MODEL 1
REMARK VINA RESULT:    -6.718      0.000      0.000
REMARK INTER + INTRA:          -9.937
REMARK INTER:                  -9.074
REMARK INTRA:                  -0.862
REMARK UNBOUND:                -0.862
REMARK  6 active torsions:
REMARK  status: ('A' for Active; 'I' for Inactive)
REMARK    1  A    between atoms: S_2  and  N_5 
REMARK    2  A    between atoms: N_5  and  C_7 
REMARK    3  A    between atoms: C_7  and  C_8 
REMARK    4  A    between atoms: C_16  and  C_17 
REMARK       I    between atoms: C_17  and  N_19 
REMARK    5  A    between atoms: N_19  and  C_22 
REMARK    6  A    between atoms: C_21  and  C_24 
ROOT
HETATM    1  C   UNL     1       8.091   1.060  21.282  1.00  0.00     0.041 A 
HETATM    2  C   UNL     1       7.115   0.584  20.395  1.00  0.00     0.080 A 
HETATM    3  C   UNL     1       5.747   1.313  20.224  1.00  0.00     0.000 C 
HETATM    4  C   UNL     1       5.148   1.362  19.287  1.00  0.00     0.015 C 
HETATM    5  C   UNL     1       5.626   0.949  18.238  1.00  0.00     0.087 C 
HETATM    6  N   UNL     1       6.717   0.521  17.948  1.00  0.00    -0.377 N 
ATOM      7  HN  UNL     1       7.055   0.316  17.008  1.00  0.00     0.164 HD
HETATM    8  C   UNL     1       7.310   0.384  18.936  1.00  0.00     0.085 C 
HETATM    9  C   UNL     1       7.234  -0.383  21.144  1.00  0.00     0.050 A 
ENDROOT
BRANCH   9  10
HETATM   10  C   UNL     1       7.076  -1.663  21.633  1.00  0.00     0.255 C 
HETATM   11  O   UNL     1       7.993  -2.115  22.234  1.00  0.00    -0.268 OA
HETATM   12  N   UNL     1       5.905  -2.229  21.399  1.00  0.00    -0.313 N 
ATOM     13  HN  UNL     1       5.317  -1.901  20.632  1.00  0.00     0.170 HD
BRANCH  12  14
HETATM   14  C   UNL     1       5.477  -3.288  22.221  1.00  0.00     0.117 A 
HETATM   15  C   UNL     1       5.355  -4.256  22.434  1.00  0.00     0.069 A 
HETATM   16 CL   UNL     1       4.698  -4.632  23.630  1.00  0.00    -0.120 Cl
BRANCH  15  17
HETATM   17  C   UNL     1       5.947  -5.281  21.551  1.00  0.00     0.066 C 
HETATM   18  C   UNL     1       6.976  -5.843  22.086  1.00  0.00    -0.045 C 
ENDBRANCH  15  17
ENDBRANCH  12  14
ENDBRANCH   9  10
BRANCH   1  19
HETATM   19  C   UNL     1       8.857   1.811  21.738  1.00  0.00    -0.021 C 
BRANCH  19  20
HETATM   20  N   UNL     1       9.576   2.437  22.363  1.00  0.00    -0.236 N 
ATOM     21  HN  UNL     1       9.695   3.396  22.037  1.00  0.00     0.189 HD
BRANCH  20  22
HETATM   22  S   UNL     1      10.438   2.064  23.675  1.00  0.00     0.327 S 
HETATM   23 CL   UNL     1      11.200   0.359  23.209  1.00  0.00     0.042 Cl
HETATM   24  O   UNL     1      11.548   2.946  23.773  1.00  0.00    -0.188 OA
HETATM   25  O   UNL     1       9.677   1.839  24.849  1.00  0.00    -0.188 OA
ENDBRANCH  20  22
ENDBRANCH  19  20
ENDBRANCH   1  19
TORSDOF 6
ENDMDL
MODEL 2
REMARK VINA RESULT:    -6.681      4.958      7.806
REMARK INTER + INTRA:          -9.887
REMARK INTER:                  -9.153
REMARK INTRA:                  -0.733
REMARK UNBOUND:                -0.862
REMARK  6 active torsions:
REMARK  status: ('A' for Active; 'I' for Inactive)
REMARK    1  A    between atoms: S_2  and  N_5 
REMARK    2  A    between atoms: N_5  and  C_7 
REMARK    3  A    between atoms: C_7  and  C_8 
REMARK    4  A    between atoms: C_16  and  C_17 
REMARK       I    between atoms: C_17  and  N_19 
REMARK    5  A    between atoms: N_19  and  C_22 
REMARK    6  A    between atoms: C_21  and  C_24 
ROOT
HETATM    1  C   UNL     1       7.746  -4.868  25.455  1.00  0.00     0.041 A 
HETATM    2  C   UNL     1       7.327  -4.616  24.141  1.00  0.00     0.080 A 
HETATM    3  C   UNL     1       7.533  -5.667  23.008  1.00  0.00     0.000 C 
HETATM    4  C   UNL     1       6.861  -5.820  22.132  1.00  0.00     0.015 C 
HETATM    5  C   UNL     1       5.783  -5.241  22.085  1.00  0.00     0.087 C 
HETATM    6  N   UNL     1       5.202  -4.527  22.866  1.00  0.00    -0.377 N 
ATOM      7  HN  UNL     1       4.243  -4.191  22.778  1.00  0.00     0.164 HD
HETATM    8  C   UNL     1       5.935  -4.294  23.735  1.00  0.00     0.085 C 
HETATM    9  C   UNL     1       8.122  -3.693  24.308  1.00  0.00     0.050 A 
ENDROOT
BRANCH   9  10
HETATM   10  C   UNL     1       8.815  -2.527  24.059  1.00  0.00     0.255 C 
HETATM   11  O   UNL     1       9.044  -2.283  22.921  1.00  0.00    -0.268 OA
HETATM   12  N   UNL     1       9.121  -1.800  25.119  1.00  0.00    -0.313 N 
ATOM     13  HN  UNL     1       9.162  -2.228  26.044  1.00  0.00     0.170 HD
BRANCH  12  14
HETATM   14  C   UNL     1       9.388  -0.428  24.958  1.00  0.00     0.117 A 
HETATM   15  C   UNL     1      10.001   0.358  24.893  1.00  0.00     0.069 A 
HETATM   16 CL   UNL     1       9.459   1.657  24.740  1.00  0.00    -0.120 Cl
BRANCH  15  17
HETATM   17  C   UNL     1      11.462   0.147  24.857  1.00  0.00     0.066 C 
HETATM   18  C   UNL     1      12.050   0.967  24.056  1.00  0.00    -0.045 C 
ENDBRANCH  15  17
ENDBRANCH  12  14
ENDBRANCH   9  10
BRANCH   1  19
HETATM   19  C   UNL     1       7.798  -5.416  26.483  1.00  0.00    -0.021 C 
BRANCH  19  20
HETATM   20  N   UNL     1       7.692  -6.069  27.411  1.00  0.00    -0.236 N 
ATOM     21  HN  UNL     1       8.481  -6.693  27.582  1.00  0.00     0.189 HD
BRANCH  20  22
HETATM   22  S   UNL     1       6.506  -6.177  28.499  1.00  0.00     0.327 S 
HETATM   23 CL   UNL     1       4.941  -6.388  27.399  1.00  0.00     0.042 Cl
HETATM   24  O   UNL     1       6.626  -7.405  29.205  1.00  0.00    -0.188 OA
HETATM   25  O   UNL     1       6.285  -5.004  29.264  1.00  0.00    -0.188 OA
ENDBRANCH  20  22
ENDBRANCH  19  20
ENDBRANCH   1  19
TORSDOF 6
ENDMDL
MODEL 3
REMARK VINA RESULT:    -6.673      3.496      5.098
REMARK INTER + INTRA:          -9.875
REMARK INTER:                  -9.129
REMARK INTRA:                  -0.746
REMARK UNBOUND:                -0.862
REMARK  6 active torsions:
REMARK  status: ('A' for Active; 'I' for Inactive)
REMARK    1  A    between atoms: S_2  and  N_5 
REMARK    2  A    between atoms: N_5  and  C_7 
REMARK    3  A    between atoms: C_7  and  C_8 
REMARK    4  A    between atoms: C_16  and  C_17 
REMARK       I    between atoms: C_17  and  N_19 
REMARK    5  A    between atoms: N_19  and  C_22 
REMARK    6  A    between atoms: C_21  and  C_24 
ROOT
HETATM    1  C   UNL     1       9.301  -0.700  22.113  1.00  0.00     0.041 A 
HETATM    2  C   UNL     1       9.966  -0.749  23.346  1.00  0.00     0.080 A 
HETATM    3  C   UNL     1      11.522  -0.828  23.427  1.00  0.00     0.000 C 
HETATM    4  C   UNL     1      12.154  -0.391  24.233  1.00  0.00     0.015 C 
HETATM    5  C   UNL     1      11.649   0.346  25.070  1.00  0.00     0.087 C 
HETATM    6  N   UNL     1      10.536   0.797  25.199  1.00  0.00    -0.377 N 
ATOM      7  HN  UNL     1      10.247   1.507  25.872  1.00  0.00     0.164 HD
HETATM    8  C   UNL     1       9.856   0.273  24.418  1.00  0.00     0.085 C 
HETATM    9  C   UNL     1       9.271  -1.760  23.422  1.00  0.00     0.050 A 
ENDROOT
BRANCH   9  10
HETATM   10  C   UNL     1       8.672  -2.876  23.969  1.00  0.00     0.255 C 
HETATM   11  O   UNL     1       8.563  -2.889  25.149  1.00  0.00    -0.268 OA
HETATM   12  N   UNL     1       8.262  -3.790  23.107  1.00  0.00    -0.313 N 
ATOM     13  HN  UNL     1       8.667  -3.838  22.172  1.00  0.00     0.170 HD
BRANCH  12  14
HETATM   14  C   UNL     1       7.259  -4.698  23.495  1.00  0.00     0.117 A 
HETATM   15  C   UNL     1       6.648  -5.472  23.335  1.00  0.00     0.069 A 
HETATM   16 CL   UNL     1       5.732  -5.861  24.342  1.00  0.00    -0.120 Cl
BRANCH  15  17
HETATM   17  C   UNL     1       6.776  -6.262  22.094  1.00  0.00     0.066 C 
HETATM   18  C   UNL     1       6.103  -5.749  21.123  1.00  0.00    -0.045 C 
ENDBRANCH  15  17
ENDBRANCH  12  14
ENDBRANCH   9  10
BRANCH   1  19
HETATM   19  C   UNL     1       9.004  -0.285  21.065  1.00  0.00    -0.021 C 
BRANCH  19  20
HETATM   20  N   UNL     1       8.548  -0.008  20.058  1.00  0.00    -0.236 N 
ATOM     21  HN  UNL     1       9.224   0.090  19.300  1.00  0.00     0.189 HD
BRANCH  20  22
HETATM   22  S   UNL     1       7.016   0.256  19.627  1.00  0.00     0.327 S 
HETATM   23 CL   UNL     1       6.453   1.607  20.876  1.00  0.00     0.042 Cl
HETATM   24  O   UNL     1       6.989   0.898  18.359  1.00  0.00    -0.188 OA
HETATM   25  O   UNL     1       6.140  -0.840  19.822  1.00  0.00    -0.188 OA
ENDBRANCH  20  22
ENDBRANCH  19  20
ENDBRANCH   1  19
TORSDOF 6
ENDMDL
MODEL 4
REMARK VINA RESULT:    -6.330     23.590     26.392
REMARK INTER + INTRA:          -9.413
REMARK INTER:                  -8.570
REMARK INTRA:                  -0.843
REMARK UNBOUND:                -0.862
REMARK  6 active torsions:
REMARK  status: ('A' for Active; 'I' for Inactive)
REMARK    1  A    between atoms: S_2  and  N_5 
REMARK    2  A    between atoms: N_5  and  C_7 
REMARK    3  A    between atoms: C_7  and  C_8 
REMARK    4  A    between atoms: C_16  and  C_17 
REMARK       I    between atoms: C_17  and  N_19 
REMARK    5  A    between atoms: N_19  and  C_22 
REMARK    6  A    between atoms: C_21  and  C_24 
ROOT
HETATM    1  C   UNL     1       7.993  14.399   1.644  1.00  0.00     0.041 A 
HETATM    2  C   UNL     1       8.883  15.077   2.489  1.00  0.00     0.080 A 
HETATM    3  C   UNL     1       8.661  15.127   4.031  1.00  0.00     0.000 C 
HETATM    4  C   UNL     1       9.462  15.167   4.804  1.00  0.00     0.015 C 
HETATM    5  C   UNL     1      10.632  15.015   4.474  1.00  0.00     0.087 C 
HETATM    6  N   UNL     1      11.158  14.748   3.421  1.00  0.00    -0.377 N 
ATOM      7  HN  UNL     1      12.142  14.521   3.278  1.00  0.00     0.164 HD
HETATM    8  C   UNL     1      10.338  14.795   2.601  1.00  0.00     0.085 C 
HETATM    9  C   UNL     1       8.515  15.996   1.760  1.00  0.00     0.050 A 
ENDROOT
BRANCH   9  10
HETATM   10  C   UNL     1       8.467  17.252   1.194  1.00  0.00     0.255 C 
HETATM   11  O   UNL     1       7.387  17.714   1.026  1.00  0.00    -0.268 OA
HETATM   12  N   UNL     1       9.635  17.811   0.929  1.00  0.00    -0.313 N 
ATOM     13  HN  UNL     1      10.469  17.234   0.816  1.00  0.00     0.170 HD
BRANCH  12  14
HETATM   14  C   UNL     1       9.715  19.210   0.804  1.00  0.00     0.117 A 
HETATM   15  C   UNL     1      10.016  20.115   1.101  1.00  0.00     0.069 A 
HETATM   16 CL   UNL     1       9.612  21.261   0.375  1.00  0.00    -0.120 Cl
BRANCH  15  17
HETATM   17  C   UNL     1      10.960  20.238   2.230  1.00  0.00     0.066 C 
HETATM   18  C   UNL     1      11.084  21.459   2.625  1.00  0.00    -0.045 C 
ENDBRANCH  15  17
ENDBRANCH  12  14
ENDBRANCH   9  10
BRANCH   1  19
HETATM   19  C   UNL     1       7.394  13.497   1.212  1.00  0.00    -0.021 C 
BRANCH  19  20
HETATM   20  N   UNL     1       6.860  12.519   0.970  1.00  0.00    -0.236 N 
ATOM     21  HN  UNL     1       6.775  12.319  -0.027  1.00  0.00     0.189 HD
BRANCH  20  22
HETATM   22  S   UNL     1       6.216  11.398   1.934  1.00  0.00     0.327 S 
HETATM   23 CL   UNL     1       7.568  11.176   3.285  1.00  0.00     0.042 Cl
HETATM   24  O   UNL     1       5.101  11.953   2.620  1.00  0.00    -0.188 OA
HETATM   25  O   UNL     1       6.048  10.122   1.342  1.00  0.00    -0.188 OA
ENDBRANCH  20  22
ENDBRANCH  19  20
ENDBRANCH   1  19
TORSDOF 6
ENDMDL
MODEL 5
REMARK VINA RESULT:    -6.054      5.310      8.056
REMARK INTER + INTRA:          -9.041
REMARK INTER:                  -8.264
REMARK INTRA:                  -0.776
REMARK UNBOUND:                -0.862
REMARK  6 active torsions:
REMARK  status: ('A' for Active; 'I' for Inactive)
REMARK    1  A    between atoms: S_2  and  N_5 
REMARK    2  A    between atoms: N_5  and  C_7 
REMARK    3  A    between atoms: C_7  and  C_8 
REMARK    4  A    between atoms: C_16  and  C_17 
REMARK       I    between atoms: C_17  and  N_19 
REMARK    5  A    between atoms: N_19  and  C_22 
REMARK    6  A    between atoms: C_21  and  C_24 
ROOT
HETATM    1  C   UNL     1       6.679  -5.287  25.848  1.00  0.00     0.041 A 
HETATM    2  C   UNL     1       5.806  -5.054  24.776  1.00  0.00     0.080 A 
HETATM    3  C   UNL     1       5.036  -6.222  24.087  1.00  0.00     0.000 C 
HETATM    4  C   UNL     1       4.025  -6.153  23.626  1.00  0.00     0.015 C 
HETATM    5  C   UNL     1       3.358  -5.136  23.774  1.00  0.00     0.087 C 
HETATM    6  N   UNL     1       3.535  -4.126  24.410  1.00  0.00    -0.377 N 
ATOM      7  HN  UNL     1       2.855  -3.382  24.565  1.00  0.00     0.164 HD
HETATM    8  C   UNL     1       4.622  -4.157  24.816  1.00  0.00     0.085 C 
HETATM    9  C   UNL     1       6.859  -4.621  24.311  1.00  0.00     0.050 A 
ENDROOT
BRANCH   9  10
HETATM   10  C   UNL     1       7.720  -3.990  23.439  1.00  0.00     0.255 C 
HETATM   11  O   UNL     1       7.554  -4.207  22.285  1.00  0.00    -0.268 OA
HETATM   12  N   UNL     1       8.616  -3.191  23.991  1.00  0.00    -0.313 N 
ATOM     13  HN  UNL     1       8.879  -3.307  24.970  1.00  0.00     0.170 HD
BRANCH  12  14
HETATM   14  C   UNL     1       9.203  -2.175  23.213  1.00  0.00     0.117 A 
HETATM   15  C   UNL     1       9.843  -1.422  23.067  1.00  0.00     0.069 A 
HETATM   16 CL   UNL     1       9.840  -0.730  21.833  1.00  0.00    -0.120 Cl
BRANCH  15  17
HETATM   17  C   UNL     1      10.850  -1.107  24.100  1.00  0.00     0.066 C 
HETATM   18  C   UNL     1      10.500  -0.100  24.825  1.00  0.00    -0.045 C 
ENDBRANCH  15  17
ENDBRANCH  12  14
ENDBRANCH   9  10
BRANCH   1  19
HETATM   19  C   UNL     1       7.012  -5.637  26.909  1.00  0.00    -0.021 C 
BRANCH  19  20
HETATM   20  N   UNL     1       7.370  -6.166  27.853  1.00  0.00    -0.236 N 
ATOM     21  HN  UNL     1       8.374  -6.345  27.883  1.00  0.00     0.189 HD
BRANCH  20  22
HETATM   22  S   UNL     1       6.561  -6.680  29.150  1.00  0.00     0.327 S 
HETATM   23 CL   UNL     1       4.769  -6.879  28.477  1.00  0.00     0.042 Cl
HETATM   24  O   UNL     1       6.979  -7.999  29.472  1.00  0.00    -0.188 OA
HETATM   25  O   UNL     1       6.473  -5.745  30.212  1.00  0.00    -0.188 OA
ENDBRANCH  20  22
ENDBRANCH  19  20
ENDBRANCH   1  19
TORSDOF 6
ENDMDL
MODEL 6
REMARK VINA RESULT:    -6.018      1.796      2.139
REMARK INTER + INTRA:          -8.992
REMARK INTER:                  -8.113
REMARK INTRA:                  -0.879
REMARK UNBOUND:                -0.862
REMARK  6 active torsions:
REMARK  status: ('A' for Active; 'I' for Inactive)
REMARK    1  A    between atoms: S_2  and  N_5 
REMARK    2  A    between atoms: N_5  and  C_7 
REMARK    3  A    between atoms: C_7  and  C_8 
REMARK    4  A    between atoms: C_16  and  C_17 
REMARK       I    between atoms: C_17  and  N_19 
REMARK    5  A    between atoms: N_19  and  C_22 
REMARK    6  A    between atoms: C_21  and  C_24 
ROOT
HETATM    1  C   UNL     1       8.209   1.067  21.398  1.00  0.00     0.041 A 
HETATM    2  C   UNL     1       7.252   0.454  20.578  1.00  0.00     0.080 A 
HETATM    3  C   UNL     1       5.883   1.137  20.277  1.00  0.00     0.000 C 
HETATM    4  C   UNL     1       5.300   1.037  19.333  1.00  0.00     0.015 C 
HETATM    5  C   UNL     1       5.799   0.476  18.366  1.00  0.00     0.087 C 
HETATM    6  N   UNL     1       6.897   0.019  18.162  1.00  0.00    -0.377 N 
ATOM      7  HN  UNL     1       7.253  -0.322  17.269  1.00  0.00     0.164 HD
HETATM    8  C   UNL     1       7.475   0.039  19.168  1.00  0.00     0.085 C 
HETATM    9  C   UNL     1       7.365  -0.388  21.466  1.00  0.00     0.050 A 
ENDROOT
BRANCH   9  10
HETATM   10  C   UNL     1       7.207  -1.581  22.139  1.00  0.00     0.255 C 
HETATM   11  O   UNL     1       8.103  -2.354  22.061  1.00  0.00    -0.268 OA
HETATM   12  N   UNL     1       6.082  -1.714  22.821  1.00  0.00    -0.313 N 
ATOM     13  HN  UNL     1       5.265  -1.152  22.582  1.00  0.00     0.170 HD
BRANCH  12  14
HETATM   14  C   UNL     1       6.026  -2.638  23.881  1.00  0.00     0.117 A 
HETATM   15  C   UNL     1       6.233  -2.941  24.810  1.00  0.00     0.069 A 
HETATM   16 CL   UNL     1       5.809  -4.222  25.239  1.00  0.00    -0.120 Cl
BRANCH  15  17
HETATM   17  C   UNL     1       6.890  -2.015  25.753  1.00  0.00     0.066 C 
HETATM   18  C   UNL     1       8.158  -2.229  25.838  1.00  0.00    -0.045 C 
ENDBRANCH  15  17
ENDBRANCH  12  14
ENDBRANCH   9  10
BRANCH   1  19
HETATM   19  C   UNL     1       8.962   1.886  21.749  1.00  0.00    -0.021 C 
BRANCH  19  20
HETATM   20  N   UNL     1       9.699   2.579  22.274  1.00  0.00    -0.236 N 
ATOM     21  HN  UNL     1       9.863   3.464  21.793  1.00  0.00     0.189 HD
BRANCH  20  22
HETATM   22  S   UNL     1      10.527   2.400  23.646  1.00  0.00     0.327 S 
HETATM   23 CL   UNL     1      11.602   3.995  23.702  1.00  0.00     0.042 Cl
HETATM   24  O   UNL     1       9.639   2.518  24.750  1.00  0.00    -0.188 OA
HETATM   25  O   UNL     1      11.442   1.317  23.658  1.00  0.00    -0.188 OA
ENDBRANCH  20  22
ENDBRANCH  19  20
ENDBRANCH   1  19
TORSDOF 6
ENDMDL
MODEL 7
REMARK VINA RESULT:    -6.000      4.193      6.499
REMARK INTER + INTRA:          -8.967
REMARK INTER:                  -8.201
REMARK INTRA:                  -0.767
REMARK UNBOUND:                -0.862
REMARK  6 active torsions:
REMARK  status: ('A' for Active; 'I' for Inactive)
REMARK    1  A    between atoms: S_2  and  N_5 
REMARK    2  A    between atoms: N_5  and  C_7 
REMARK    3  A    between atoms: C_7  and  C_8 
REMARK    4  A    between atoms: C_16  and  C_17 
REMARK       I    between atoms: C_17  and  N_19 
REMARK    5  A    between atoms: N_19  and  C_22 
REMARK    6  A    between atoms: C_21  and  C_24 
ROOT
HETATM    1  C   UNL     1       8.537  -2.474  24.691  1.00  0.00     0.041 A 
HETATM    2  C   UNL     1       9.355  -1.531  24.053  1.00  0.00     0.080 A 
HETATM    3  C   UNL     1      10.358  -0.649  24.857  1.00  0.00     0.000 C 
HETATM    4  C   UNL     1      11.338  -0.273  24.484  1.00  0.00     0.015 C 
HETATM    5  C   UNL     1      11.777  -0.679  23.414  1.00  0.00     0.087 C 
HETATM    6  N   UNL     1      11.387  -1.510  22.631  1.00  0.00    -0.377 N 
ATOM      7  HN  UNL     1      11.896  -1.863  21.821  1.00  0.00     0.164 HD
HETATM    8  C   UNL     1      10.326  -1.835  22.970  1.00  0.00     0.085 C 
HETATM    9  C   UNL     1       8.240  -1.113  23.745  1.00  0.00     0.050 A 
ENDROOT
BRANCH   9  10
HETATM   10  C   UNL     1       7.276  -0.352  23.118  1.00  0.00     0.255 C 
HETATM   11  O   UNL     1       6.782   0.511  23.765  1.00  0.00    -0.268 OA
HETATM   12  N   UNL     1       7.035  -0.654  21.854  1.00  0.00    -0.313 N 
ATOM     13  HN  UNL     1       7.269  -1.578  21.491  1.00  0.00     0.170 HD
BRANCH  12  14
HETATM   14  C   UNL     1       6.451   0.314  21.016  1.00  0.00     0.117 A 
HETATM   15  C   UNL     1       6.310   0.759  20.132  1.00  0.00     0.069 A 
HETATM   16 CL   UNL     1       5.463   1.889  20.045  1.00  0.00    -0.120 Cl
BRANCH  15  17
HETATM   17  C   UNL     1       6.906   0.174  18.915  1.00  0.00     0.066 C 
HETATM   18  C   UNL     1       6.026  -0.413  18.179  1.00  0.00    -0.045 C 
ENDBRANCH  15  17
ENDBRANCH  12  14
ENDBRANCH   9  10
BRANCH   1  19
HETATM   19  C   UNL     1       8.271  -3.411  25.332  1.00  0.00    -0.021 C 
BRANCH  19  20
HETATM   20  N   UNL     1       8.116  -4.435  25.809  1.00  0.00    -0.236 N 
ATOM     21  HN  UNL     1       8.755  -5.157  25.477  1.00  0.00     0.189 HD
BRANCH  20  22
HETATM   22  S   UNL     1       7.059  -4.935  26.919  1.00  0.00     0.327 S 
HETATM   23 CL   UNL     1       5.868  -6.048  25.896  1.00  0.00     0.042 Cl
HETATM   24  O   UNL     1       7.707  -5.824  27.819  1.00  0.00    -0.188 OA
HETATM   25  O   UNL     1       6.249  -3.916  27.480  1.00  0.00    -0.188 OA
ENDBRANCH  20  22
ENDBRANCH  19  20
ENDBRANCH   1  19
TORSDOF 6
ENDMDL
MODEL 8
REMARK VINA RESULT:    -5.912     19.759     21.578
REMARK INTER + INTRA:          -8.848
REMARK INTER:                  -8.101
REMARK INTRA:                  -0.746
REMARK UNBOUND:                -0.862
REMARK  6 active torsions:
REMARK  status: ('A' for Active; 'I' for Inactive)
REMARK    1  A    between atoms: S_2  and  N_5 
REMARK    2  A    between atoms: N_5  and  C_7 
REMARK    3  A    between atoms: C_7  and  C_8 
REMARK    4  A    between atoms: C_16  and  C_17 
REMARK       I    between atoms: C_17  and  N_19 
REMARK    5  A    between atoms: N_19  and  C_22 
REMARK    6  A    between atoms: C_21  and  C_24 
ROOT
HETATM    1  C   UNL     1       6.973  11.854   3.392  1.00  0.00     0.041 A 
HETATM    2  C   UNL     1       5.583  11.725   3.258  1.00  0.00     0.080 A 
HETATM    3  C   UNL     1       4.604  12.710   3.966  1.00  0.00     0.000 C 
HETATM    4  C   UNL     1       3.608  13.028   3.581  1.00  0.00     0.015 C 
HETATM    5  C   UNL     1       3.271  12.722   2.444  1.00  0.00     0.087 C 
HETATM    6  N   UNL     1       3.844  12.158   1.544  1.00  0.00    -0.377 N 
ATOM      7  HN  UNL     1       3.513  12.060   0.584  1.00  0.00     0.164 HD
HETATM    8  C   UNL     1       4.842  11.747   1.971  1.00  0.00     0.085 C 
HETATM    9  C   UNL     1       5.867  10.637   3.757  1.00  0.00     0.050 A 
ENDROOT
BRANCH   9  10
HETATM   10  C   UNL     1       5.707   9.343   4.206  1.00  0.00     0.255 C 
HETATM   11  O   UNL     1       6.106   9.112   5.298  1.00  0.00    -0.268 OA
HETATM   12  N   UNL     1       5.099   8.516   3.374  1.00  0.00    -0.313 N 
ATOM     13  HN  UNL     1       5.077   8.713   2.374  1.00  0.00     0.170 HD
BRANCH  12  14
HETATM   14  C   UNL     1       4.481   7.359   3.885  1.00  0.00     0.117 A 
HETATM   15  C   UNL     1       3.838   6.597   3.835  1.00  0.00     0.069 A 
HETATM   16 CL   UNL     1       3.721   5.705   4.929  1.00  0.00    -0.120 Cl
BRANCH  15  17
HETATM   17  C   UNL     1       3.092   6.350   2.585  1.00  0.00     0.066 C 
HETATM   18  C   UNL     1       2.212   5.418   2.722  1.00  0.00    -0.045 C 
ENDBRANCH  15  17
ENDBRANCH  12  14
ENDBRANCH   9  10
BRANCH   1  19
HETATM   19  C   UNL     1       8.019  12.362   3.316  1.00  0.00    -0.021 C 
BRANCH  19  20
HETATM   20  N   UNL     1       9.071  12.784   3.437  1.00  0.00    -0.236 N 
ATOM     21  HN  UNL     1       9.812  12.083   3.431  1.00  0.00     0.189 HD
BRANCH  20  22
HETATM   22  S   UNL     1       9.589  14.301   3.617  1.00  0.00     0.327 S 
HETATM   23 CL   UNL     1       8.348  15.301   2.538  1.00  0.00     0.042 Cl
HETATM   24  O   UNL     1       9.342  14.728   4.949  1.00  0.00    -0.188 OA
HETATM   25  O   UNL     1      10.872  14.566   3.074  1.00  0.00    -0.188 OA
ENDBRANCH  20  22
ENDBRANCH  19  20
ENDBRANCH   1  19
TORSDOF 6
ENDMDL
MODEL 9
REMARK VINA RESULT:    -5.676      4.444      5.909
REMARK INTER + INTRA:          -8.529
REMARK INTER:                  -7.805
REMARK INTRA:                  -0.725
REMARK UNBOUND:                -0.862
REMARK  6 active torsions:
REMARK  status: ('A' for Active; 'I' for Inactive)
REMARK    1  A    between atoms: S_2  and  N_5 
REMARK    2  A    between atoms: N_5  and  C_7 
REMARK    3  A    between atoms: C_7  and  C_8 
REMARK    4  A    between atoms: C_16  and  C_17 
REMARK       I    between atoms: C_17  and  N_19 
REMARK    5  A    between atoms: N_19  and  C_22 
REMARK    6  A    between atoms: C_21  and  C_24 
ROOT
HETATM    1  C   UNL     1       8.560  -3.450  23.981  1.00  0.00     0.041 A 
HETATM    2  C   UNL     1       7.500  -4.361  23.874  1.00  0.00     0.080 A 
HETATM    3  C   UNL     1       6.064  -3.894  23.486  1.00  0.00     0.000 C 
HETATM    4  C   UNL     1       5.319  -4.490  22.910  1.00  0.00     0.015 C 
HETATM    5  C   UNL     1       5.657  -5.546  22.390  1.00  0.00     0.087 C 
HETATM    6  N   UNL     1       6.720  -6.110  22.299  1.00  0.00    -0.377 N 
ATOM      7  HN  UNL     1       6.919  -6.936  21.734  1.00  0.00     0.164 HD
HETATM    8  C   UNL     1       7.474  -5.541  22.973  1.00  0.00     0.085 C 
HETATM    9  C   UNL     1       7.823  -4.523  25.049  1.00  0.00     0.050 A 
ENDROOT
BRANCH   9  10
HETATM   10  C   UNL     1       7.858  -5.074  26.312  1.00  0.00     0.255 C 
HETATM   11  O   UNL     1       8.768  -4.753  27.003  1.00  0.00    -0.268 OA
HETATM   12  N   UNL     1       6.855  -5.879  26.619  1.00  0.00    -0.313 N 
ATOM     13  HN  UNL     1       6.311  -6.329  25.883  1.00  0.00     0.170 HD
BRANCH  12  14
HETATM   14  C   UNL     1       6.546  -6.107  27.973  1.00  0.00     0.117 A 
HETATM   15  C   UNL     1       5.983  -5.990  28.790  1.00  0.00     0.069 A 
HETATM   16 CL   UNL     1       6.383  -6.592  30.007  1.00  0.00    -0.120 Cl
BRANCH  15  17
HETATM   17  C   UNL     1       4.694  -5.277  28.694  1.00  0.00     0.066 C 
HETATM   18  C   UNL     1       4.840  -4.000  28.779  1.00  0.00    -0.045 C 
ENDBRANCH  15  17
ENDBRANCH  12  14
ENDBRANCH   9  10
BRANCH   1  19
HETATM   19  C   UNL     1       9.320  -2.637  23.634  1.00  0.00    -0.021 C 
BRANCH  19  20
HETATM   20  N   UNL     1      10.136  -1.992  23.166  1.00  0.00    -0.236 N 
ATOM     21  HN  UNL     1      10.745  -2.488  22.514  1.00  0.00     0.189 HD
BRANCH  20  22
HETATM   22  S   UNL     1      10.492  -0.431  23.357  1.00  0.00     0.327 S 
HETATM   23 CL   UNL     1      12.258  -0.491  24.119  1.00  0.00     0.042 Cl
HETATM   24  O   UNL     1      10.663   0.172  22.082  1.00  0.00    -0.188 OA
HETATM   25  O   UNL     1       9.688   0.256  24.301  1.00  0.00    -0.188 OA
ENDBRANCH  20  22
ENDBRANCH  19  20
ENDBRANCH   1  19
TORSDOF 6
ENDMDL
