stable:False satoms:9 tatoms:24 sratio:0.375
  -OEChem-07092417473D

 24 25  0     1  0  0  0  0  0999 V2000
    6.5455   -4.8322   26.4866 C   0  0  0  0  0  0  0  0  0  0  0  0
    8.2603   -4.2485   26.0986 S   0  0  0  0  0  0  0  0  0  0  0  0
    9.0578   -5.4380   26.0553 O   0  0  0  0  0  0  0  0  0  0  0  0
    8.6116   -3.3328   27.1241 O   0  0  0  0  0  0  0  0  0  0  0  0
    8.1206   -3.5539   24.6488 N   0  0  0  0  0  0  0  0  0  0  0  0
    8.9341   -2.9170   24.1072 C   0  0  0  0  0  0  0  0  0  0  0  0
    9.4361   -1.9946   23.4569 C   0  0  0  0  0  0  0  0  0  0  0  0
   10.3622   -1.1697   23.1594 C   0  0  1  0  0  0  0  0  0  0  0  0
   11.0288   -0.0472   24.3513 C   0  0  0  0  0  0  0  0  0  0  0  0
   12.0664    0.2385   24.2640 C   0  0  0  0  0  0  0  0  0  0  0  0
   13.1061   -0.1556   23.5476 C   0  0  0  0  0  0  0  0  0  0  0  0
   12.7438   -1.2576   22.6915 C   0  0  0  0  0  0  0  0  0  0  0  0
   11.8099   -1.7111   22.5333 C   0  0  0  0  0  0  0  0  0  0  0  0
    9.7053   -0.5960   22.3304 C   0  0  0  0  0  0  0  0  0  0  0  0
    9.0609    0.0424   21.3586 C   0  0  0  0  0  0  0  0  0  0  0  0
    9.5526    0.9754   20.9633 O   0  0  0  0  0  0  0  0  0  0  0  0
    7.9066   -0.5854   21.0771 N   0  0  0  0  0  0  0  0  0  0  0  0
    7.2140   -0.1138   20.1599 C   0  0  0  0  0  0  0  0  0  0  0  0
    7.1984    0.0138   18.8967 C   0  0  0  0  0  0  0  0  0  0  0  0
    6.8031    0.3089   17.7549 N   0  0  0  0  0  0  0  0  0  0  0  0
    5.6862    0.8675   18.2669 C   0  0  0  0  0  0  0  0  0  0  0  0
    5.2891    0.9756   19.3901 C   0  0  0  0  0  0  0  0  0  0  0  0
    5.8087    0.5689   20.5476 C   0  0  0  0  0  0  0  0  0  0  0  0
    5.2757    0.6721   22.0265 Cl  0  0  0  0  0  0  0  0  0  0  0  0
 20 21  2  0  0  0  0
 19 20  1  0  0  0  0
 21 22  1  0  0  0  0
 18 19  2  0  0  0  0
 22 23  2  0  0  0  0
 18 23  1  0  0  0  0
 17 18  1  0  0  0  0
 23 24  1  0  0  0  0
 15 16  2  0  0  0  0
 15 17  1  0  0  0  0
 14 15  1  0  0  0  0
  8 14  1  0  0  0  0
 12 13  1  0  0  0  0
  8 13  1  0  0  0  0
 11 12  2  0  0  0  0
  7  8  1  0  0  0  0
  8  9  1  0  0  0  0
  6  7  2  3  0  0  0
 10 11  1  0  0  0  0
  5  6  1  0  0  0  0
  9 10  2  0  0  0  0
  2  5  1  0  0  0  0
  2  3  2  0  0  0  0
  1  2  1  0  0  0  0
  2  4  2  0  0  0  0
M  END
> <Shapegauss>
-287.313232

$$$$
