stable:False satoms:9 tatoms:24 sratio:0.375
  -OEChem-08062415213D

 42 43  0     1  0  0  0  0  0999 V2000
    6.3019   -5.1120   26.3120 C   0  0  0  0  0  0  0  0  0  0  0  0
    8.0267   -4.4830   26.0651 S   0  0  0  0  0  0  0  0  0  0  0  0
    8.8487   -5.6558   26.0247 O   0  0  0  0  0  0  0  0  0  0  0  0
    8.2911   -3.6073   27.1498 O   0  0  0  0  0  0  0  0  0  0  0  0
    7.9696   -3.7281   24.6400 N   0  0  0  0  0  0  0  0  0  0  0  0
    8.8045   -3.0544   24.1818 C   0  0  0  0  0  0  0  0  0  0  0  0
    9.3301   -2.0961   23.6064 C   0  0  0  0  0  0  0  0  0  0  0  0
   10.2574   -1.2434   23.4070 C   0  0  1  0  0  0  0  0  0  0  0  0
   10.8212   -0.1630   24.6876 C   0  0  0  0  0  0  0  0  0  0  0  0
   11.8565    0.1437   24.6823 C   0  0  0  0  0  0  0  0  0  0  0  0
   12.9489   -0.2010   24.0211 C   0  0  0  0  0  0  0  0  0  0  0  0
   12.6660   -1.2705   23.0965 C   0  0  0  0  0  0  0  0  0  0  0  0
   11.7538   -1.7323   22.8569 C   0  0  0  0  0  0  0  0  0  0  0  0
    9.6456   -0.6451   22.5610 C   0  0  0  0  0  0  0  0  0  0  0  0
    9.0545    0.0242   21.5763 C   0  0  0  0  0  0  0  0  0  0  0  0
    9.5527    0.9818   21.2549 O   0  0  0  0  0  0  0  0  0  0  0  0
    7.9340   -0.6101   21.1916 N   0  0  0  0  0  0  0  0  0  0  0  0
    7.2945   -0.1106   20.2509 C   0  0  0  0  0  0  0  0  0  0  0  0
    7.3601    0.0719   18.9961 C   0  0  0  0  0  0  0  0  0  0  0  0
    7.0355    0.4100   17.8440 N   0  0  0  0  0  0  0  0  0  0  0  0
    5.8763    0.9267   18.3032 C   0  0  0  0  0  0  0  0  0  0  0  0
    5.4036    0.9788   19.4009 C   0  0  0  0  0  0  0  0  0  0  0  0
    5.8534    0.5307   20.5722 C   0  0  0  0  0  0  0  0  0  0  0  0
    5.2216    0.5600   22.0151 Cl  0  0  0  0  0  0  0  0  0  0  0  0
    6.2404   -5.6484   27.2704 H   0  0  0  0  0  0  0  0  0  0  0  0
    5.6004   -4.2647   26.3206 H   0  0  0  0  0  0  0  0  0  0  0  0
    6.0403   -5.7964   25.4915 H   0  0  0  0  0  0  0  0  0  0  0  0
    7.1593   -3.1439   24.6866 H   0  0  0  0  0  0  0  0  0  0  0  0
    9.6774   -3.6512   24.4013 H   0  0  0  0  0  0  0  0  0  0  0  0
    8.5986   -1.8358   22.8557 H   0  0  0  0  0  0  0  0  0  0  0  0
   10.1463    0.1819   25.4570 H   0  0  0  0  0  0  0  0  0  0  0  0
   12.0483    0.9303   25.3971 H   0  0  0  0  0  0  0  0  0  0  0  0
   13.9185    0.2554   24.1552 H   0  0  0  0  0  0  0  0  0  0  0  0
   13.5254   -1.6564   22.5684 H   0  0  0  0  0  0  0  0  0  0  0  0
   11.6877   -1.6980   21.7594 H   0  0  0  0  0  0  0  0  0  0  0  0
   11.8594   -2.7768   23.1854 H   0  0  0  0  0  0  0  0  0  0  0  0
    9.2738    0.0745   23.3052 H   0  0  0  0  0  0  0  0  0  0  0  0
    8.9280   -1.4729   22.4610 H   0  0  0  0  0  0  0  0  0  0  0  0
    7.6281   -1.4483   21.6431 H   0  0  0  0  0  0  0  0  0  0  0  0
    8.3430   -0.3308   18.8012 H   0  0  0  0  0  0  0  0  0  0  0  0
    5.2614    1.3766   17.5378 H   0  0  0  0  0  0  0  0  0  0  0  0
    4.4459    1.4754   19.4511 H   0  0  0  0  0  0  0  0  0  0  0  0
 20 21  2  0  0  0  0
 19 20  1  0  0  0  0
 21 22  1  0  0  0  0
 18 19  2  0  0  0  0
 22 23  2  0  0  0  0
 18 23  1  0  0  0  0
 17 18  1  0  0  0  0
 23 24  1  0  0  0  0
 15 16  2  0  0  0  0
 15 17  1  0  0  0  0
 14 15  1  0  0  0  0
  8 14  1  0  0  0  0
 12 13  1  0  0  0  0
  8 13  1  0  0  0  0
 11 12  2  0  0  0  0
  7  8  1  0  0  0  0
  8  9  1  0  0  0  0
  6  7  2  3  0  0  0
 10 11  1  0  0  0  0
  5  6  1  0  0  0  0
  9 10  2  0  0  0  0
  2  5  1  0  0  0  0
  2  3  2  0  0  0  0
  1  2  1  0  0  0  0
  2  4  2  0  0  0  0
  1 25  1  0  0  0  0
  1 26  1  0  0  0  0
  1 27  1  0  0  0  0
  5 28  1  0  0  0  0
  6 29  1  0  0  0  0
  7 30  1  0  0  0  0
  9 31  1  0  0  0  0
 10 32  1  0  0  0  0
 11 33  1  0  0  0  0
 12 34  1  0  0  0  0
 13 35  1  0  0  0  0
 13 36  1  0  0  0  0
 14 37  1  0  0  0  0
 14 38  1  0  0  0  0
 17 39  1  0  0  0  0
 19 40  1  0  0  0  0
 21 41  1  0  0  0  0
 22 42  1  0  0  0  0
M  END
> <Chemgauss4>
-13.445786

$$$$
