stable:False satoms:9 tatoms:24 sratio:0.375
  -OEChem-08062415203D

 42 43  0     1  0  0  0  0  0999 V2000
   -6.3774   -5.3343  -26.3183 C   0  0  0  0  0  0  0  0  0  0  0  0
   -8.0805   -4.6576  -26.0477 S   0  0  0  0  0  0  0  0  0  0  0  0
   -8.9340   -5.8073  -25.9942 O   0  0  0  0  0  0  0  0  0  0  0  0
   -8.3361   -3.7759  -27.1297 O   0  0  0  0  0  0  0  0  0  0  0  0
   -7.9823   -3.9033  -24.6246 N   0  0  0  0  0  0  0  0  0  0  0  0
   -8.7916   -3.2064  -24.1554 C   0  0  0  0  0  0  0  0  0  0  0  0
   -9.2823   -2.2334  -23.5739 C   0  0  0  0  0  0  0  0  0  0  0  0
  -10.1828   -1.3552  -23.3625 C   0  0  1  0  0  0  0  0  0  0  0  0
  -10.7347   -0.2608  -24.6363 C   0  0  0  0  0  0  0  0  0  0  0  0
  -11.7609    0.0744  -24.6167 C   0  0  0  0  0  0  0  0  0  0  0  0
  -12.8530   -0.2394  -23.9396 C   0  0  0  0  0  0  0  0  0  0  0  0
  -12.5866   -1.3154  -23.0177 C   0  0  0  0  0  0  0  0  0  0  0  0
  -11.6841   -1.8021  -22.7905 C   0  0  0  0  0  0  0  0  0  0  0  0
   -9.5427   -0.7733  -22.5260 C   0  0  0  0  0  0  0  0  0  0  0  0
   -8.9194   -0.1197  -21.5506 C   0  0  0  0  0  0  0  0  0  0  0  0
   -9.3864    0.8516  -21.2235 O   0  0  0  0  0  0  0  0  0  0  0  0
   -7.8115   -0.7843  -21.1811 N   0  0  0  0  0  0  0  0  0  0  0  0
   -7.1451   -0.3018  -20.2502 C   0  0  0  0  0  0  0  0  0  0  0  0
   -7.1877   -0.1164  -18.9948 C   0  0  0  0  0  0  0  0  0  0  0  0
   -6.8376    0.2136  -17.8479 N   0  0  0  0  0  0  0  0  0  0  0  0
   -5.6712    0.6976  -18.3242 C   0  0  0  0  0  0  0  0  0  0  0  0
   -5.2130    0.7356  -19.4286 C   0  0  0  0  0  0  0  0  0  0  0  0
   -5.6915    0.2990  -20.5928 C   0  0  0  0  0  0  0  0  0  0  0  0
   -5.0798    0.3096  -22.0446 Cl  0  0  0  0  0  0  0  0  0  0  0  0
   -6.3444   -5.8731  -27.2768 H   0  0  0  0  0  0  0  0  0  0  0  0
   -5.6530   -4.5068  -26.3379 H   0  0  0  0  0  0  0  0  0  0  0  0
   -6.1232   -6.0249  -25.5007 H   0  0  0  0  0  0  0  0  0  0  0  0
   -7.1570   -3.3418  -24.6834 H   0  0  0  0  0  0  0  0  0  0  0  0
   -9.6838   -3.7791  -24.3617 H   0  0  0  0  0  0  0  0  0  0  0  0
   -8.5334   -1.9927  -22.8340 H   0  0  0  0  0  0  0  0  0  0  0  0
  -10.0615    0.0647  -25.4156 H   0  0  0  0  0  0  0  0  0  0  0  0
  -11.9411    0.8654  -25.3297 H   0  0  0  0  0  0  0  0  0  0  0  0
  -13.8114    0.2435  -24.0605 H   0  0  0  0  0  0  0  0  0  0  0  0
  -13.4487   -1.6770  -22.4770 H   0  0  0  0  0  0  0  0  0  0  0  0
  -11.6015   -1.7685  -21.6941 H   0  0  0  0  0  0  0  0  0  0  0  0
  -11.8233   -2.8435  -23.1161 H   0  0  0  0  0  0  0  0  0  0  0  0
   -9.1618   -0.0649  -23.2764 H   0  0  0  0  0  0  0  0  0  0  0  0
   -8.8470   -1.6205  -22.4351 H   0  0  0  0  0  0  0  0  0  0  0  0
   -7.5353   -1.6311  -21.6358 H   0  0  0  0  0  0  0  0  0  0  0  0
   -8.1786   -0.4917  -18.7855 H   0  0  0  0  0  0  0  0  0  0  0  0
   -5.0333    1.1310  -17.5682 H   0  0  0  0  0  0  0  0  0  0  0  0
   -4.2427    1.2055  -19.4930 H   0  0  0  0  0  0  0  0  0  0  0  0
 20 21  2  0  0  0  0
 19 20  1  0  0  0  0
 21 22  1  0  0  0  0
 18 19  2  0  0  0  0
 22 23  2  0  0  0  0
 18 23  1  0  0  0  0
 17 18  1  0  0  0  0
 23 24  1  0  0  0  0
 15 16  2  0  0  0  0
 15 17  1  0  0  0  0
 14 15  1  0  0  0  0
  8 14  1  0  0  0  0
 12 13  1  0  0  0  0
  8 13  1  0  0  0  0
 11 12  2  0  0  0  0
  7  8  1  0  0  0  0
  8  9  1  0  0  0  0
  6  7  2  3  0  0  0
 10 11  1  0  0  0  0
  5  6  1  0  0  0  0
  9 10  2  0  0  0  0
  2  5  1  0  0  0  0
  2  3  2  0  0  0  0
  1  2  1  0  0  0  0
  2  4  2  0  0  0  0
  1 25  1  0  0  0  0
  1 26  1  0  0  0  0
  1 27  1  0  0  0  0
  5 28  1  0  0  0  0
  6 29  1  0  0  0  0
  7 30  1  0  0  0  0
  9 31  1  0  0  0  0
 10 32  1  0  0  0  0
 11 33  1  0  0  0  0
 12 34  1  0  0  0  0
 13 35  1  0  0  0  0
 13 36  1  0  0  0  0
 14 37  1  0  0  0  0
 14 38  1  0  0  0  0
 17 39  1  0  0  0  0
 19 40  1  0  0  0  0
 21 41  1  0  0  0  0
 22 42  1  0  0  0  0
M  END
> <Chemgauss4>
-13.104625

$$$$
