stable:False satoms:17 tatoms:24 sratio:0.7083333333333334
  -OEChem-07092417363D

 24 23  0     1  0  0  0  0  0999 V2000
    5.8926   -3.7570   25.6727 Br  0  5  0  0  0  0  0  0  0  0  0  0
    9.7648   -3.3348   25.4191 C   0  0  0  0  0  0  0  0  0  0  0  0
    9.3958   -4.4175   25.7639 O   0  0  0  0  0  0  0  0  0  0  0  0
   10.6375   -1.9141   26.6661 H   0  0  0  0  0  0  0  0  0  0  0  0
    7.9373   -2.8281   23.8701 N   0  0  0  0  0  0  0  0  0  0  0  0
   10.2697   -2.3058   24.4392 C   0  0  0  0  0  0  0  0  0  0  0  0
    7.0303   -1.9924   23.2421 O   0  0  0  0  0  0  0  0  0  0  0  0
    8.0532   -1.9084   22.9473 C   0  0  3  0  0  0  0  0  0  0  0  0
   10.3245   -2.3051   25.6149 C   0  0  0  0  0  0  0  0  0  0  0  0
   11.9993   -0.2036   24.2070 F   0  0  0  0  0  0  0  0  0  0  0  0
   11.0654    0.1418   22.5422 H   0  0  0  0  0  0  0  0  0  0  0  0
   12.5526   -1.1242   22.3772 F   0  0  0  0  0  0  0  0  0  0  0  0
   10.8082   -1.7865   23.2568 O   0  0  0  0  0  0  0  0  0  0  0  0
    9.6567   -1.1672   21.5186 H   0  0  0  0  0  0  0  0  0  0  0  0
   11.4522   -0.7207   23.0651 C   0  0  0  0  0  0  0  0  0  0  0  0
    8.7479    0.5113   20.4294 O   0  0  0  0  0  0  0  0  0  0  0  0
    8.6188   -1.1145   21.7900 C   0  5  3  0  0  0  0  0  0  0  0  0
    7.9324   -0.1672   20.9430 C   0  0  0  0  0  0  0  0  0  0  0  0
    7.0689    0.0527   18.5573 H   0  0  0  0  0  0  0  0  0  0  0  0
    6.3985    0.6381   19.1561 C   0  0  0  0  0  0  0  0  0  0  0  0
    5.3975    0.5987   18.7499 H   0  0  0  0  0  0  0  0  0  0  0  0
    5.4373    0.0344   21.2089 O   0  0  0  0  0  0  0  0  0  0  0  0
    6.7107    1.6510   19.2458 H   0  0  0  0  0  0  0  0  0  0  0  0
    6.4318    0.1291   20.6142 C   0  0  0  0  0  0  0  0  0  0  0  0
 19 20  1  0  0  0  0
 20 21  1  0  0  0  0
 20 23  1  0  0  0  0
 20 24  1  0  0  0  0
 16 18  2  0  0  0  0
 18 24  1  0  0  0  0
 22 24  2  0  0  0  0
 17 18  1  0  0  0  0
 14 17  1  0  0  0  0
  8 17  1  0  0  0  0
 12 15  1  0  0  0  0
 11 15  1  0  0  0  0
  7  8  1  0  0  0  0
  5  8  1  0  0  0  0
 13 15  1  0  0  0  0
 10 15  1  0  0  0  0
  5  7  1  0  0  0  0
  6 13  1  0  0  0  0
  2  6  1  0  0  0  0
  6  9  2  0  0  0  0
  2  9  1  0  0  0  0
  2  3  2  0  0  0  0
  4  9  1  0  0  0  0
M  CHG  2   1  -1  17  -1
M  END
> <Shapegauss>
-157.025024

$$$$
