
 OpenBabel07202414163D

 46 49  0  0  0  0  0  0  0  0999 V2000
   -2.1072   -0.2862    0.1147 Cl  0  0  0  0  0  0  0  0  0  0  0  0
   -0.3912   -0.1522    0.0663 C   0  0  0  0  0  0  0  0  0  0  0  0
    0.1993    1.1142    0.0648 C   0  0  0  0  0  0  0  0  0  0  0  0
    1.5935    1.2402    0.0162 C   0  0  0  0  0  0  0  0  0  0  0  0
    2.2496    2.5985   -0.0808 C   0  0  0  0  0  0  0  0  0  0  0  0
    3.2827    2.9171    0.9862 C   0  0  0  0  0  0  0  0  0  0  0  0
    4.4131    3.2929    0.6819 O   0  0  0  0  0  0  0  0  0  0  0  0
    2.8296    2.7833    2.2869 N   0  0  0  0  0  0  0  0  0  0  0  0
    3.6634    3.0698    3.3968 C   0  0  0  0  0  0  0  0  0  0  0  0
    4.3554    4.2802    3.4780 C   0  0  0  0  0  0  0  0  0  0  0  0
    5.1242    4.6511    4.5271 N   0  0  0  0  0  0  0  0  0  0  0  0
    5.2368    3.7554    5.5315 C   0  0  0  0  0  0  0  0  0  0  0  0
    4.6141    2.5042    5.5553 C   0  0  0  0  0  0  0  0  0  0  0  0
    4.8034    1.6028    6.6185 C   0  0  0  0  0  0  0  0  0  0  0  0
    4.2069    0.3435    6.5986 C   0  0  0  0  0  0  0  0  0  0  0  0
    3.4145   -0.0298    5.5214 C   0  0  0  0  0  0  0  0  0  0  0  0
    3.2056    0.8636    4.4696 C   0  0  0  0  0  0  0  0  0  0  0  0
    3.7926    2.1495    4.4613 C   0  0  0  0  0  0  0  0  0  0  0  0
    2.3669    0.0722   -0.0137 C   0  0  0  0  0  0  0  0  0  0  0  0
    1.7845   -1.2037    0.0228 C   0  0  0  0  0  0  0  0  0  0  0  0
    2.5618   -2.3796    0.0747 N   0  0  0  0  0  0  0  0  0  0  0  0
    3.8373   -2.5275    0.6621 C   0  0  0  0  0  0  0  0  0  0  0  0
    4.1901   -1.7927    1.7989 C   0  0  0  0  0  0  0  0  0  0  0  0
    5.4722   -1.8652    2.3402 C   0  0  0  0  0  0  0  0  0  0  0  0
    6.4163   -2.7007    1.7575 C   0  0  0  0  0  0  0  0  0  0  0  0
    6.0661   -3.4695    0.6485 C   0  0  0  0  0  0  0  0  0  0  0  0
    7.4818   -4.7236   -0.2185 I   0  0  0  0  0  0  0  0  0  0  0  0
    4.7797   -3.3924    0.1022 C   0  0  0  0  0  0  0  0  0  0  0  0
    0.3890   -1.3068    0.0368 C   0  0  0  0  0  0  0  0  0  0  0  0
   -0.4327    1.9994    0.0828 H   0  0  0  0  0  0  0  0  0  0  0  0
    1.4977    3.3976   -0.0490 H   0  0  0  0  0  0  0  0  0  0  0  0
    2.7411    2.6675   -1.0581 H   0  0  0  0  0  0  0  0  0  0  0  0
    2.0811    2.1183    2.4291 H   0  0  0  0  0  0  0  0  0  0  0  0
    4.2772    5.0293    2.6941 H   0  0  0  0  0  0  0  0  0  0  0  0
    5.8789    4.0794    6.3470 H   0  0  0  0  0  0  0  0  0  0  0  0
    5.4336    1.8735    7.4639 H   0  0  0  0  0  0  0  0  0  0  0  0
    4.3675   -0.3492    7.4214 H   0  0  0  0  0  0  0  0  0  0  0  0
    2.9670   -1.0196    5.4876 H   0  0  0  0  0  0  0  0  0  0  0  0
    2.5990    0.5214    3.6371 H   0  0  0  0  0  0  0  0  0  0  0  0
    3.4518    0.1562   -0.0891 H   0  0  0  0  0  0  0  0  0  0  0  0
    2.3539   -3.0297   -0.6765 H   0  0  0  0  0  0  0  0  0  0  0  0
    3.4622   -1.1497    2.2730 H   0  0  0  0  0  0  0  0  0  0  0  0
    5.7285   -1.2597    3.2067 H   0  0  0  0  0  0  0  0  0  0  0  0
    7.4219   -2.7417    2.1778 H   0  0  0  0  0  0  0  0  0  0  0  0
    4.5236   -3.9886   -0.7694 H   0  0  0  0  0  0  0  0  0  0  0  0
   -0.0852   -2.2839    0.0598 H   0  0  0  0  0  0  0  0  0  0  0  0
  1  2  1  0  0  0  0
  2  3  2  0  0  0  0
  2 29  1  0  0  0  0
  3  4  1  0  0  0  0
  3 30  1  0  0  0  0
  4  5  1  0  0  0  0
  4 19  2  0  0  0  0
  5  6  1  0  0  0  0
  5 31  1  0  0  0  0
  5 32  1  0  0  0  0
  6  7  2  0  0  0  0
  6  8  1  0  0  0  0
  8  9  1  0  0  0  0
  8 33  1  0  0  0  0
  9 10  2  0  0  0  0
  9 18  1  0  0  0  0
 10 11  1  0  0  0  0
 10 34  1  0  0  0  0
 11 12  2  0  0  0  0
 12 13  1  0  0  0  0
 12 35  1  0  0  0  0
 13 14  2  0  0  0  0
 13 18  1  0  0  0  0
 14 15  1  0  0  0  0
 14 36  1  0  0  0  0
 15 16  2  0  0  0  0
 15 37  1  0  0  0  0
 16 17  1  0  0  0  0
 16 38  1  0  0  0  0
 17 18  2  0  0  0  0
 17 39  1  0  0  0  0
 19 20  1  0  0  0  0
 19 40  1  0  0  0  0
 20 21  1  0  0  0  0
 20 29  2  0  0  0  0
 21 22  1  0  0  0  0
 21 41  1  0  0  0  0
 22 23  2  0  0  0  0
 22 28  1  0  0  0  0
 23 24  1  0  0  0  0
 23 42  1  0  0  0  0
 24 25  2  0  0  0  0
 24 43  1  0  0  0  0
 25 26  1  0  0  0  0
 25 44  1  0  0  0  0
 26 27  1  0  0  0  0
 26 28  2  0  0  0  0
 28 45  1  0  0  0  0
 29 46  1  0  0  0  0
M  END
$$$$
