stable:False satoms:21 tatoms:24 sratio:0.875
  -OEChem-07092417323D

 24 23  0     1  0  0  0  0  0999 V2000
    8.6963   -0.4180   23.2357 N   0  0  0  0  0  0  0  0  0  0  0  0
    8.6707   -0.9757   25.7159 H   0  0  0  0  0  0  0  0  0  0  0  0
    9.9707   -2.1477   24.4607 C   0  5  0  0  0  0  0  0  0  0  0  0
    9.6108   -2.2180   26.5068 H   0  0  0  0  0  0  0  0  0  0  0  0
    9.5042   -3.1040   24.2908 H   0  0  0  0  0  0  0  0  0  0  0  0
    8.4104   -1.6747   22.7231 C   0  0  2  0  0  0  0  0  0  0  0  0
    7.3436   -2.0442   21.7719 C   0  3  0  0  0  0  0  0  0  0  0  0
    9.3111   -2.2574   22.3635 H   0  0  0  0  0  0  0  0  0  0  0  0
    9.6864   -0.2860   20.4688 C   0  0  0  0  0  0  0  0  0  0  0  0
    9.6409   -1.4757   25.6895 C   0  0  0  0  0  0  0  0  0  0  0  0
   10.7252   -1.6928   23.8179 H   0  0  0  0  0  0  0  0  0  0  0  0
   10.3195   -0.3644   19.5859 H   0  0  0  0  0  0  0  0  0  0  0  0
   10.1889   -0.8928   21.2322 H   0  0  0  0  0  0  0  0  0  0  0  0
    8.2270   -0.6851   20.0696 C   0  0  0  0  0  0  0  0  0  0  0  0
   10.4205   -0.7263   25.8594 H   0  0  0  0  0  0  0  0  0  0  0  0
    9.6851    0.7613   20.7813 H   0  0  0  0  0  0  0  0  0  0  0  0
    6.7792   -2.9297   21.8609 H   0  0  0  0  0  0  0  0  0  0  0  0
    7.5459   -1.0451   23.7202 O   0  3  2  0  0  0  0  0  0  0  0  0
    8.2670   -1.5691   19.4268 H   0  0  0  0  0  0  0  0  0  0  0  0
    8.4734    0.2817   22.5200 H   0  0  0  0  0  0  0  0  0  0  0  0
    7.8286    0.1289   19.4427 H   0  0  0  0  0  0  0  0  0  0  0  0
    6.6349   -0.6578   23.4636 H   0  0  0  0  0  0  0  0  0  0  0  0
    7.0723   -1.0547   20.9575 N   0  0  0  0  0  0  0  0  0  0  0  0
    6.5716   -0.2427   21.3318 H   0  0  0  0  0  0  0  0  0  0  0  0
 14 19  1  0  0  0  0
 14 21  1  0  0  0  0
  9 12  1  0  0  0  0
  9 14  1  0  0  0  0
 14 23  1  0  0  0  0
  9 16  1  0  0  0  0
  9 13  1  0  0  0  0
 23 24  1  0  0  0  0
  7 23  1  0  0  0  0
  7 17  1  0  0  0  0
  6  7  1  0  0  0  0
  6  8  1  0  0  0  0
  1 20  1  0  0  0  0
  1  6  1  0  0  0  0
  6 18  1  0  0  0  0
  1 18  1  0  0  0  0
 18 22  1  0  0  0  0
  3 11  1  0  0  0  0
  3  5  1  0  0  0  0
  3 10  1  0  0  0  0
  2 10  1  0  0  0  0
 10 15  1  0  0  0  0
  4 10  1  0  0  0  0
M  CHG  3   3  -1   7   1  18   1
M  END
> <Shapegauss>
-70.523621

$$$$
