REMARK  2 active torsions:
REMARK  status: ('A' for Active; 'I' for Inactive)
REMARK    1  A    between atoms: C_3  and  C_4 
REMARK    2  A    between atoms: C_7  and  N_11 
ROOT
HETATM    1  N   UNL     1       8.696  -0.418  23.236  1.00  0.00    -0.249 NA
HETATM    2  C   UNL     1       8.410  -1.675  22.723  1.00  0.00     0.133 A 
HETATM    3  O   UNL     1       7.546  -1.045  23.720  1.00  0.00     0.000 OA
HETATM    4  H   UNL     1       8.473   0.282  22.520  1.00  0.00     0.141 HD
HETATM    5  H   UNL     1       6.635  -0.658  23.464  1.00  0.00     0.000 HD
ENDROOT
BRANCH   2   6
HETATM    6  C   UNL     1       7.344  -2.044  21.772  1.00  0.00     0.078 C 
HETATM    7  N   UNL     1       7.072  -1.055  20.957  1.00  0.00    -0.401 N 
HETATM    8  H   UNL     1       6.572  -0.243  21.332  1.00  0.00     0.158 HD
BRANCH   7   9
HETATM    9  C   UNL     1       8.227  -0.685  20.070  1.00  0.00     0.114 C 
HETATM   10  C   UNL     1       9.686  -0.286  20.469  1.00  0.00     0.026 C 
ENDBRANCH   7   9
ENDBRANCH   2   6
TORSDOF 2
