stable:False satoms:7 tatoms:24 sratio:0.2916666666666667
  -OEChem-08062417503D

 47 47  0     1  0  0  0  0  0999 V2000
   -6.4653   -5.3037  -26.1960 C   0  0  0  0  0  0  0  0  0  0  0  0
   -8.0268   -4.6918  -25.9883 S   0  0  0  0  0  0  0  0  0  0  0  0
   -8.9366   -5.8002  -25.9217 O   0  0  0  0  0  0  0  0  0  0  0  0
   -8.3457   -3.8504  -27.0889 O   0  0  0  0  0  0  0  0  0  0  0  0
   -8.0018   -3.8446  -24.5958 N   0  0  0  0  0  0  0  0  0  0  0  0
   -8.8858   -3.1855  -24.1492 C   0  0  0  0  0  0  0  0  0  0  0  0
   -9.3404   -2.1991  -23.5703 C   0  0  0  0  0  0  0  0  0  0  0  0
  -10.1914   -1.3072  -23.4376 C   0  0  2  0  0  0  0  0  0  0  0  0
  -10.8116   -0.1919  -24.5745 C   0  0  0  0  0  0  0  0  0  0  0  0
  -11.8438    0.1286  -24.5897 C   0  0  0  0  0  0  0  0  0  0  0  0
  -12.9534   -0.2977  -23.8779 C   0  0  0  0  0  0  0  0  0  0  0  0
  -12.6526   -1.3633  -22.9434 C   0  0  0  0  0  0  0  0  0  0  0  0
  -11.7751   -1.8511  -22.7251 C   0  0  0  0  0  0  0  0  0  0  0  0
   -9.6957   -0.7372  -22.5035 C   0  0  0  0  0  0  0  0  0  0  0  0
   -9.0386   -0.0933  -21.5250 C   0  0  0  0  0  0  0  0  0  0  0  0
   -9.4691    0.9042  -21.1754 O   0  0  0  0  0  0  0  0  0  0  0  0
   -7.9792   -0.7380  -21.1275 N   0  0  0  0  0  0  0  0  0  0  0  0
   -7.2662   -0.2635  -20.1899 C   0  0  0  0  0  0  0  0  0  0  0  0
   -7.3425   -0.0884  -18.9177 C   0  0  0  0  0  0  0  0  0  0  0  0
   -6.9528    0.2867  -17.8215 N   0  0  0  0  0  0  0  0  0  0  0  0
   -5.7224    0.7773  -18.1968 C   0  0  0  0  0  0  0  0  0  0  0  0
   -5.3031    0.7760  -19.4028 C   0  0  0  0  0  0  0  0  0  0  0  0
   -5.8244    0.3529  -20.5174 C   0  0  0  0  0  0  0  0  0  0  0  0
   -5.2103    0.3870  -21.9331 C   0  0  0  0  0  0  0  0  0  0  0  0
   -6.4209   -5.8887  -27.1264 H   0  0  0  0  0  0  0  0  0  0  0  0
   -5.7496   -4.4703  -26.2524 H   0  0  0  0  0  0  0  0  0  0  0  0
   -6.2087   -5.9503  -25.3439 H   0  0  0  0  0  0  0  0  0  0  0  0
   -7.2308   -3.2147  -24.6895 H   0  0  0  0  0  0  0  0  0  0  0  0
   -9.7668   -3.7687  -24.3731 H   0  0  0  0  0  0  0  0  0  0  0  0
   -8.6404   -2.0179  -22.7680 H   0  0  0  0  0  0  0  0  0  0  0  0
  -11.1070   -1.7958  -23.0729 H   0  0  0  0  0  0  0  0  0  0  0  0
  -10.1380    0.2132  -25.3152 H   0  0  0  0  0  0  0  0  0  0  0  0
  -12.0475    0.9272  -25.2876 H   0  0  0  0  0  0  0  0  0  0  0  0
  -13.7090   -0.6597  -24.5906 H   0  0  0  0  0  0  0  0  0  0  0  0
  -13.3587    0.5568  -23.3162 H   0  0  0  0  0  0  0  0  0  0  0  0
  -13.5038   -1.7065  -22.3740 H   0  0  0  0  0  0  0  0  0  0  0  0
  -11.7629   -2.6331  -21.9803 H   0  0  0  0  0  0  0  0  0  0  0  0
  -10.8650   -1.5819  -23.2404 H   0  0  0  0  0  0  0  0  0  0  0  0
   -9.9625   -1.5592  -21.8230 H   0  0  0  0  0  0  0  0  0  0  0  0
  -10.4973    0.0161  -22.5005 H   0  0  0  0  0  0  0  0  0  0  0  0
   -7.7280   -1.6043  -21.5592 H   0  0  0  0  0  0  0  0  0  0  0  0
   -8.3034   -0.5221  -18.6836 H   0  0  0  0  0  0  0  0  0  0  0  0
   -5.0784    1.1844  -17.4313 H   0  0  0  0  0  0  0  0  0  0  0  0
   -4.3222    1.2122  -19.5212 H   0  0  0  0  0  0  0  0  0  0  0  0
   -4.6372   -0.5356  -22.1070 H   0  0  0  0  0  0  0  0  0  0  0  0
   -6.0144    0.4653  -22.6796 H   0  0  0  0  0  0  0  0  0  0  0  0
   -4.5418    1.2561  -22.0218 H   0  0  0  0  0  0  0  0  0  0  0  0
 20 21  2  0  0  0  0
 19 20  1  0  0  0  0
 21 22  1  0  0  0  0
 18 19  2  0  0  0  0
 22 23  2  0  0  0  0
 18 23  1  0  0  0  0
 17 18  1  0  0  0  0
 23 24  1  0  0  0  0
 15 16  2  0  0  0  0
 15 17  1  0  0  0  0
 14 15  1  0  0  0  0
  8 14  1  0  0  0  0
 12 13  2  0  0  0  0
 11 12  1  0  0  0  0
  7  8  1  0  0  0  0
  8  9  1  0  0  0  0
  6  7  2  3  0  0  0
 10 11  1  0  0  0  0
  5  6  1  0  0  0  0
  9 10  2  0  0  0  0
  2  5  1  0  0  0  0
  2  3  2  0  0  0  0
  1  2  1  0  0  0  0
  2  4  2  0  0  0  0
  1 25  1  0  0  0  0
  1 26  1  0  0  0  0
  1 27  1  0  0  0  0
  5 28  1  0  0  0  0
  6 29  1  0  0  0  0
  7 30  1  0  0  0  0
  8 31  1  0  0  0  0
  9 32  1  0  0  0  0
 10 33  1  0  0  0  0
 11 34  1  0  0  0  0
 11 35  1  0  0  0  0
 12 36  1  0  0  0  0
 13 37  1  0  0  0  0
 13 38  1  0  0  0  0
 14 39  1  0  0  0  0
 14 40  1  0  0  0  0
 17 41  1  0  0  0  0
 19 42  1  0  0  0  0
 21 43  1  0  0  0  0
 22 44  1  0  0  0  0
 24 45  1  0  0  0  0
 24 46  1  0  0  0  0
 24 47  1  0  0  0  0
M  END
> <Chemgauss4>
-13.291561

$$$$
