stable:False satoms:7 tatoms:24 sratio:0.2916666666666667
  -OEChem-08062417503D

 47 47  0     1  0  0  0  0  0999 V2000
    6.5780   -5.2388   26.2079 C   0  0  0  0  0  0  0  0  0  0  0  0
    8.1396   -4.6269   26.0003 S   0  0  0  0  0  0  0  0  0  0  0  0
    9.0493   -5.7353   25.9337 O   0  0  0  0  0  0  0  0  0  0  0  0
    8.4584   -3.7855   27.1009 O   0  0  0  0  0  0  0  0  0  0  0  0
    8.1145   -3.7797   24.6077 N   0  0  0  0  0  0  0  0  0  0  0  0
    8.9986   -3.1206   24.1611 C   0  0  0  0  0  0  0  0  0  0  0  0
    9.4531   -2.1342   23.5822 C   0  0  0  0  0  0  0  0  0  0  0  0
   10.3041   -1.2423   23.4495 C   0  0  2  0  0  0  0  0  0  0  0  0
   10.9243   -0.1270   24.5864 C   0  0  0  0  0  0  0  0  0  0  0  0
   11.9565    0.1935   24.6017 C   0  0  0  0  0  0  0  0  0  0  0  0
   13.0661   -0.2328   23.8898 C   0  0  0  0  0  0  0  0  0  0  0  0
   12.7654   -1.2984   22.9554 C   0  0  0  0  0  0  0  0  0  0  0  0
   11.8879   -1.7862   22.7371 C   0  0  0  0  0  0  0  0  0  0  0  0
    9.8084   -0.6723   22.5154 C   0  0  0  0  0  0  0  0  0  0  0  0
    9.1513   -0.0284   21.5369 C   0  0  0  0  0  0  0  0  0  0  0  0
    9.5818    0.9691   21.1874 O   0  0  0  0  0  0  0  0  0  0  0  0
    8.0919   -0.6732   21.1394 N   0  0  0  0  0  0  0  0  0  0  0  0
    7.3789   -0.1986   20.2018 C   0  0  0  0  0  0  0  0  0  0  0  0
    7.4552   -0.0235   18.9297 C   0  0  0  0  0  0  0  0  0  0  0  0
    7.0655    0.3515   17.8334 N   0  0  0  0  0  0  0  0  0  0  0  0
    5.8351    0.8422   18.2087 C   0  0  0  0  0  0  0  0  0  0  0  0
    5.4158    0.8409   19.4148 C   0  0  0  0  0  0  0  0  0  0  0  0
    5.9371    0.4178   20.5293 C   0  0  0  0  0  0  0  0  0  0  0  0
    5.3230    0.4519   21.9450 C   0  0  0  0  0  0  0  0  0  0  0  0
    6.5336   -5.8238   27.1384 H   0  0  0  0  0  0  0  0  0  0  0  0
    5.8623   -4.4054   26.2644 H   0  0  0  0  0  0  0  0  0  0  0  0
    6.3214   -5.8854   25.3558 H   0  0  0  0  0  0  0  0  0  0  0  0
    7.3435   -3.1498   24.7014 H   0  0  0  0  0  0  0  0  0  0  0  0
    9.8795   -3.7039   24.3851 H   0  0  0  0  0  0  0  0  0  0  0  0
    8.7532   -1.9530   22.7799 H   0  0  0  0  0  0  0  0  0  0  0  0
   11.2197   -1.7309   23.0848 H   0  0  0  0  0  0  0  0  0  0  0  0
   10.2507    0.2781   25.3271 H   0  0  0  0  0  0  0  0  0  0  0  0
   12.1602    0.9921   25.2995 H   0  0  0  0  0  0  0  0  0  0  0  0
   13.8217   -0.5948   24.6025 H   0  0  0  0  0  0  0  0  0  0  0  0
   13.4715    0.6217   23.3281 H   0  0  0  0  0  0  0  0  0  0  0  0
   13.6165   -1.6416   22.3860 H   0  0  0  0  0  0  0  0  0  0  0  0
   11.8756   -2.5682   21.9923 H   0  0  0  0  0  0  0  0  0  0  0  0
   10.9777   -1.5170   23.2524 H   0  0  0  0  0  0  0  0  0  0  0  0
   10.0752   -1.4943   21.8349 H   0  0  0  0  0  0  0  0  0  0  0  0
   10.6100    0.0810   22.5125 H   0  0  0  0  0  0  0  0  0  0  0  0
    7.8407   -1.5394   21.5712 H   0  0  0  0  0  0  0  0  0  0  0  0
    8.4162   -0.4572   18.6956 H   0  0  0  0  0  0  0  0  0  0  0  0
    5.1911    1.2493   17.4433 H   0  0  0  0  0  0  0  0  0  0  0  0
    4.4349    1.2771   19.5331 H   0  0  0  0  0  0  0  0  0  0  0  0
    4.7499   -0.4707   22.1190 H   0  0  0  0  0  0  0  0  0  0  0  0
    6.1272    0.5302   22.6915 H   0  0  0  0  0  0  0  0  0  0  0  0
    4.6545    1.3210   22.0337 H   0  0  0  0  0  0  0  0  0  0  0  0
 20 21  2  0  0  0  0
 19 20  1  0  0  0  0
 21 22  1  0  0  0  0
 18 19  2  0  0  0  0
 22 23  2  0  0  0  0
 18 23  1  0  0  0  0
 17 18  1  0  0  0  0
 23 24  1  0  0  0  0
 15 16  2  0  0  0  0
 15 17  1  0  0  0  0
 14 15  1  0  0  0  0
  8 14  1  0  0  0  0
 12 13  2  0  0  0  0
 11 12  1  0  0  0  0
  7  8  1  0  0  0  0
  8  9  1  0  0  0  0
  6  7  2  3  0  0  0
 10 11  1  0  0  0  0
  5  6  1  0  0  0  0
  9 10  2  0  0  0  0
  2  5  1  0  0  0  0
  2  3  2  0  0  0  0
  1  2  1  0  0  0  0
  2  4  2  0  0  0  0
  1 25  1  0  0  0  0
  1 26  1  0  0  0  0
  1 27  1  0  0  0  0
  5 28  1  0  0  0  0
  6 29  1  0  0  0  0
  7 30  1  0  0  0  0
  8 31  1  0  0  0  0
  9 32  1  0  0  0  0
 10 33  1  0  0  0  0
 11 34  1  0  0  0  0
 11 35  1  0  0  0  0
 12 36  1  0  0  0  0
 13 37  1  0  0  0  0
 13 38  1  0  0  0  0
 14 39  1  0  0  0  0
 14 40  1  0  0  0  0
 17 41  1  0  0  0  0
 19 42  1  0  0  0  0
 21 43  1  0  0  0  0
 22 44  1  0  0  0  0
 24 45  1  0  0  0  0
 24 46  1  0  0  0  0
 24 47  1  0  0  0  0
M  END
> <Chemgauss4>
-13.360003

$$$$
