stable:False satoms:12 tatoms:24 sratio:0.5
  -OEChem-07092417433D

 24 24  0     0  0  0  0  0  0999 V2000
    6.7923   -4.8688   26.4681 O   0  0  0  0  0  0  0  0  0  0  0  0
    8.1540   -4.3781   26.1929 S   0  0  0  0  0  0  0  0  0  0  0  0
    9.1033   -5.4633   26.0158 O   0  0  0  0  0  0  0  0  0  0  0  0
    8.5997   -3.5006   27.2341 O   0  5  0  0  0  0  0  0  0  0  0  0
    8.0594   -3.5565   24.7849 N   0  0  0  0  0  0  0  0  0  0  0  0
    8.9273   -2.9083   24.2223 C   0  0  0  0  0  0  0  0  0  0  0  0
    9.4640   -2.1655   23.6372 C   0  0  0  0  0  0  0  0  0  0  0  0
   10.2496   -1.3390   22.9810 C   0  0  0  0  0  0  0  0  0  0  0  0
   11.2512    0.3756   24.6061 H   0  0  0  0  0  0  0  0  0  0  0  0
   11.9403    0.0751   24.1744 C   0  0  0  0  0  2  0  0  0  0  0  0
   13.6238   -0.6781   23.0547 H   0  0  0  0  0  0  0  0  0  0  0  0
   12.6794   -0.9051   23.1145 C   0  0  0  0  0  0  0  0  0  0  0  0
   11.6306   -1.4289   22.8963 C   0  0  0  0  0  0  0  0  0  0  0  0
    9.7668   -0.3666   22.2867 C   0  0  0  0  0  0  0  0  0  0  0  0
    9.0581    0.1362   21.2638 C   0  0  0  0  0  0  0  0  0  0  0  0
    9.5291    1.0090   20.5811 O   0  0  0  0  0  0  0  0  0  0  0  0
    7.8599   -0.4961   21.1357 N   0  0  0  0  0  0  0  0  0  0  0  0
    7.1046   -0.0280   20.1872 C   0  0  0  0  0  0  0  0  0  0  0  0
    7.1679    0.0422   18.8625 C   0  0  0  0  0  0  0  0  0  0  0  0
    6.6417    0.2998   17.8045 N   0  0  0  0  0  0  0  0  0  0  0  0
    5.6066    0.8205   18.2632 C   0  0  0  0  0  0  0  0  0  0  0  0
    5.2280    0.9213   19.4385 C   0  0  0  0  0  0  0  0  0  0  0  0
    5.7567    0.5404   20.5555 C   0  0  0  0  0  0  0  0  0  0  0  0
    5.3898    0.5726   21.5357 H   0  0  0  0  0  0  0  0  0  0  0  0
 20 21  2  0  0  0  0
 19 20  1  0  0  0  0
 21 22  1  0  0  0  0
 18 19  2  0  0  0  0
 22 23  2  0  0  0  0
 18 23  1  0  0  0  0
 17 18  1  0  0  0  0
 23 24  1  0  0  0  0
 15 16  2  0  0  0  0
 15 17  1  0  0  0  0
 14 15  1  0  0  0  0
  8 14  2  3  0  0  0
  8 13  1  0  0  0  0
 12 13  2  0  0  0  0
  7  8  1  0  0  0  0
 11 12  1  0  0  0  0
 10 12  1  0  0  0  0
  6  7  3  0  0  0  0
  9 10  1  0  0  0  0
  5  6  1  0  0  0  0
  2  5  1  0  0  0  0
  2  3  2  0  0  0  0
  1  2  2  0  0  0  0
  2  4  1  0  0  0  0
M  CHG  1   4  -1
M  END
> <Shapegauss>
-259.492432

$$$$
