stable:False satoms:12 tatoms:24 sratio:0.5
  -OEChem-08062409143D

 31 31  0     0  0  0  0  0  0999 V2000
    6.4599   -5.3929   25.9125 O   0  0  0  0  0  0  0  0  0  0  0  0
    7.8041   -4.7960   25.8241 S   0  0  0  0  0  0  0  0  0  0  0  0
    8.8414   -5.8004   25.6647 O   0  0  0  0  0  0  0  0  0  0  0  0
    8.0781   -3.9849   26.9729 O   0  5  0  0  0  0  0  0  0  0  0  0
    7.7945   -3.8642   24.4832 N   0  0  0  0  0  0  0  0  0  0  0  0
    8.6666   -3.1170   24.0696 C   0  0  0  0  0  0  0  0  0  0  0  0
    9.2055   -2.2945   23.6056 C   0  0  0  0  0  0  0  0  0  0  0  0
    9.9927   -1.3672   23.1044 C   0  0  0  0  0  0  0  0  0  0  0  0
   10.6995    0.2610   24.9574 H   0  0  0  0  0  0  0  0  0  0  0  0
   11.4485    0.0424   24.5796 C   0  0  0  0  0  2  0  0  0  0  0  0
   13.2863   -0.5049   23.5906 H   0  0  0  0  0  0  0  0  0  0  0  0
   12.3593   -0.7949   23.5309 C   0  0  0  0  0  0  0  0  0  0  0  0
   11.3781   -1.3628   23.1612 C   0  0  0  0  0  0  0  0  0  0  0  0
    9.5148   -0.3710   22.4412 C   0  0  0  0  0  0  0  0  0  0  0  0
    8.8795    0.1724   21.3912 C   0  0  0  0  0  0  0  0  0  0  0  0
    9.3539    1.1283   20.8337 O   0  0  0  0  0  0  0  0  0  0  0  0
    7.7486   -0.5205   21.0862 N   0  0  0  0  0  0  0  0  0  0  0  0
    7.0620   -0.0209   20.1021 C   0  0  0  0  0  0  0  0  0  0  0  0
    7.2542    0.1665   18.8015 C   0  0  0  0  0  0  0  0  0  0  0  0
    6.8211    0.4805   17.7169 N   0  0  0  0  0  0  0  0  0  0  0  0
    5.7103    0.8940   18.1018 C   0  0  0  0  0  0  0  0  0  0  0  0
    5.2082    0.8696   19.2341 C   0  0  0  0  0  0  0  0  0  0  0  0
    5.6466    0.4282   20.3677 C   0  0  0  0  0  0  0  0  0  0  0  0
    5.1808    0.3531   21.3025 H   0  0  0  0  0  0  0  0  0  0  0  0
    6.9923   -3.2771   24.5919 H   0  0  0  0  0  0  0  0  0  0  0  0
   11.7109   -2.2557   22.6530 H   0  0  0  0  0  0  0  0  0  0  0  0
    9.7519    0.4812   23.0608 H   0  0  0  0  0  0  0  0  0  0  0  0
    7.4692   -1.3450   21.5781 H   0  0  0  0  0  0  0  0  0  0  0  0
    8.2923   -0.0780   18.6312 H   0  0  0  0  0  0  0  0  0  0  0  0
    5.0942    1.3395   17.3347 H   0  0  0  0  0  0  0  0  0  0  0  0
    4.2179    1.2977   19.2837 H   0  0  0  0  0  0  0  0  0  0  0  0
 20 21  2  0  0  0  0
 19 20  1  0  0  0  0
 21 22  1  0  0  0  0
 18 19  2  0  0  0  0
 22 23  2  0  0  0  0
 18 23  1  0  0  0  0
 17 18  1  0  0  0  0
 23 24  1  0  0  0  0
 15 16  2  0  0  0  0
 15 17  1  0  0  0  0
 14 15  1  0  0  0  0
  8 14  2  3  0  0  0
  8 13  1  0  0  0  0
 12 13  2  0  0  0  0
  7  8  1  0  0  0  0
 11 12  1  0  0  0  0
 10 12  1  0  0  0  0
  6  7  3  0  0  0  0
  9 10  1  0  0  0  0
  5  6  1  0  0  0  0
  2  5  1  0  0  0  0
  2  3  2  0  0  0  0
  1  2  2  0  0  0  0
  2  4  1  0  0  0  0
  5 25  1  0  0  0  0
 13 26  1  0  0  0  0
 14 27  1  0  0  0  0
 17 28  1  0  0  0  0
 19 29  1  0  0  0  0
 21 30  1  0  0  0  0
 22 31  1  0  0  0  0
M  CHG  1   4  -1
M  END
> <Chemgauss4>
-12.037663

$$$$
