stable:False satoms:12 tatoms:24 sratio:0.5
  -OEChem-08062409143D

 31 31  0     0  0  0  0  0  0999 V2000
   -6.5154   -5.4271  -25.9244 O   0  0  0  0  0  0  0  0  0  0  0  0
   -7.8595   -4.8302  -25.8361 S   0  0  0  0  0  0  0  0  0  0  0  0
   -8.8968   -5.8346  -25.6766 O   0  0  0  0  0  0  0  0  0  0  0  0
   -8.1335   -4.0191  -26.9849 O   0  5  0  0  0  0  0  0  0  0  0  0
   -7.8499   -3.8983  -24.4952 N   0  0  0  0  0  0  0  0  0  0  0  0
   -8.7220   -3.1511  -24.0815 C   0  0  0  0  0  0  0  0  0  0  0  0
   -9.2609   -2.3287  -23.6175 C   0  0  0  0  0  0  0  0  0  0  0  0
  -10.0481   -1.4013  -23.1164 C   0  0  0  0  0  0  0  0  0  0  0  0
  -10.7549    0.2269  -24.9693 H   0  0  0  0  0  0  0  0  0  0  0  0
  -11.5039    0.0083  -24.5915 C   0  0  0  0  0  2  0  0  0  0  0  0
  -13.3417   -0.5391  -23.6025 H   0  0  0  0  0  0  0  0  0  0  0  0
  -12.4147   -0.8291  -23.5429 C   0  0  0  0  0  0  0  0  0  0  0  0
  -11.4335   -1.3969  -23.1731 C   0  0  0  0  0  0  0  0  0  0  0  0
   -9.5702   -0.4051  -22.4532 C   0  0  0  0  0  0  0  0  0  0  0  0
   -8.9349    0.1382  -21.4031 C   0  0  0  0  0  0  0  0  0  0  0  0
   -9.4093    1.0942  -20.8456 O   0  0  0  0  0  0  0  0  0  0  0  0
   -7.8040   -0.5546  -21.0981 N   0  0  0  0  0  0  0  0  0  0  0  0
   -7.1174   -0.0551  -20.1141 C   0  0  0  0  0  0  0  0  0  0  0  0
   -7.3096    0.1324  -18.8134 C   0  0  0  0  0  0  0  0  0  0  0  0
   -6.8765    0.4463  -17.7288 N   0  0  0  0  0  0  0  0  0  0  0  0
   -5.7657    0.8598  -18.1137 C   0  0  0  0  0  0  0  0  0  0  0  0
   -5.2636    0.8355  -19.2460 C   0  0  0  0  0  0  0  0  0  0  0  0
   -5.7020    0.3940  -20.3797 C   0  0  0  0  0  0  0  0  0  0  0  0
   -5.2362    0.3189  -21.3144 H   0  0  0  0  0  0  0  0  0  0  0  0
   -7.0477   -3.3112  -24.6038 H   0  0  0  0  0  0  0  0  0  0  0  0
  -11.7663   -2.2899  -22.6649 H   0  0  0  0  0  0  0  0  0  0  0  0
   -9.8073    0.4471  -23.0728 H   0  0  0  0  0  0  0  0  0  0  0  0
   -7.5246   -1.3792  -21.5900 H   0  0  0  0  0  0  0  0  0  0  0  0
   -8.3477   -0.1122  -18.6431 H   0  0  0  0  0  0  0  0  0  0  0  0
   -5.1496    1.3054  -17.3467 H   0  0  0  0  0  0  0  0  0  0  0  0
   -4.2733    1.2635  -19.2957 H   0  0  0  0  0  0  0  0  0  0  0  0
 20 21  2  0  0  0  0
 19 20  1  0  0  0  0
 21 22  1  0  0  0  0
 18 19  2  0  0  0  0
 22 23  2  0  0  0  0
 18 23  1  0  0  0  0
 17 18  1  0  0  0  0
 23 24  1  0  0  0  0
 15 16  2  0  0  0  0
 15 17  1  0  0  0  0
 14 15  1  0  0  0  0
  8 14  2  3  0  0  0
  8 13  1  0  0  0  0
 12 13  2  0  0  0  0
  7  8  1  0  0  0  0
 11 12  1  0  0  0  0
 10 12  1  0  0  0  0
  6  7  3  0  0  0  0
  9 10  1  0  0  0  0
  5  6  1  0  0  0  0
  2  5  1  0  0  0  0
  2  3  2  0  0  0  0
  1  2  2  0  0  0  0
  2  4  1  0  0  0  0
  5 25  1  0  0  0  0
 13 26  1  0  0  0  0
 14 27  1  0  0  0  0
 17 28  1  0  0  0  0
 19 29  1  0  0  0  0
 21 30  1  0  0  0  0
 22 31  1  0  0  0  0
M  CHG  1   4  -1
M  END
> <Chemgauss4>
-12.188626

$$$$
