stable:False satoms:19 tatoms:24 sratio:0.7916666666666666
  -OEChem-07092417353D

 24 23  0     1  0  0  0  0  0999 V2000
    7.5734   -4.5411   25.4879 N   0  0  0  0  0  0  0  0  0  0  0  0
    7.0130   -4.9465   26.0938 H   0  0  0  0  0  0  0  0  0  0  0  0
    8.5529   -4.8084   25.5248 H   0  0  0  0  0  0  0  0  0  0  0  0
    9.3358   -2.8607   25.5595 O   0  0  0  0  0  0  0  0  0  0  0  0
    7.3391   -3.6908   25.0005 H   0  0  0  0  0  0  0  0  0  0  0  0
    9.1793   -2.6719   24.4276 C   0  0  0  0  0  0  0  0  0  0  0  0
    8.9566   -2.3676   23.2690 N   0  0  0  0  0  0  0  0  0  0  0  0
   11.2408    0.5289   23.0500 C   0  0  0  0  0  0  0  0  0  0  0  0
   12.3578   -0.5437   24.1691 H   0  0  0  0  0  0  0  0  0  0  0  0
   10.7864    1.4818   23.3067 N   0  0  0  0  0  0  0  0  0  0  0  0
   11.9851   -0.6375   23.1535 C   0  0  0  0  0  0  0  0  0  0  0  0
   12.7917   -0.8901   22.4730 H   0  0  0  0  0  0  0  0  0  0  0  0
   11.0128   -1.6152   22.9206 O   0  0  0  0  0  0  0  0  0  0  0  0
    9.7227   -1.4432   22.6653 C   0  0  3  0  0  0  0  0  0  0  0  0
    7.4481   -0.7782   20.1335 C   0  0  0  0  0  0  0  0  0  0  0  0
    9.0012   -0.5509   21.7273 C   0  0  0  0  0  0  0  0  0  0  0  0
    8.6675    0.6427   21.8612 N   0  0  0  0  0  0  0  0  0  0  0  0
    6.8812    0.4759   20.4580 C   0  3  3  0  0  4  0  0  0  0  0  0
    8.5064   -1.1967   20.6247 N   0  0  0  0  0  0  0  0  0  0  0  0
    5.6413    0.5498   18.7784 H   0  0  0  0  0  0  0  0  0  0  0  0
    6.8948   -1.3368   19.3902 H   0  0  0  0  0  0  0  0  0  0  0  0
    5.3249    1.8524   20.0277 H   0  0  0  0  0  0  0  0  0  0  0  0
    7.5048    1.0665   21.4588 O   0  0  0  0  0  0  0  0  0  0  0  0
    5.8665    0.9911   19.7357 C   0  5  0  0  0  0  0  0  0  0  0  0
 20 24  1  0  0  0  0
 15 21  1  0  0  0  0
 22 24  1  0  0  0  0
 18 24  1  0  0  0  0
 15 18  1  0  0  0  0
 15 19  2  0  0  0  0
 18 23  1  0  0  0  0
 16 19  1  0  0  0  0
 17 23  1  0  0  0  0
 16 17  2  0  0  0  0
 14 16  1  0  0  0  0
 11 12  1  0  0  0  0
 13 14  1  0  0  0  0
  7 14  1  0  0  0  0
 11 13  1  0  0  0  0
  8 11  1  0  0  0  0
  8 10  3  0  0  0  0
  9 11  1  0  0  0  0
  6  7  1  0  0  0  0
  4  6  2  0  0  0  0
  1  5  1  0  0  0  0
  1  3  1  0  0  0  0
  1  2  1  0  0  0  0
M  CHG  2  18   1  24  -1
M  END
> <Shapegauss>
-169.272369

$$$$
