REMARK  4 active torsions:
REMARK  status: ('A' for Active; 'I' for Inactive)
REMARK    1  A    between atoms: C_9  and  C_11 
REMARK    2  A    between atoms: C_11  and  O_12 
REMARK    3  A    between atoms: O_12  and  C_13 
REMARK    4  A    between atoms: C_13  and  C_15 
ROOT
HETATM    1  N   UNL     1       7.573  -4.541  25.488  1.00  0.00    -0.439 N 
HETATM    2  H   UNL     1       7.013  -4.947  26.094  1.00  0.00     0.146 HD
HETATM    3  H   UNL     1       8.553  -4.808  25.525  1.00  0.00     0.146 HD
HETATM    4  H   UNL     1       7.339  -3.691  25.000  1.00  0.00     0.146 HD
ENDROOT
TORSDOF 4
