REMARK  10 active torsions:
REMARK  status: ('A' for Active; 'I' for Inactive)
REMARK    1  A    between atoms: S_2  and  N_5 
REMARK    2  A    between atoms: N_5  and  C_7 
REMARK    3  A    between atoms: C_8  and  C_9 
REMARK    4  A    between atoms: C_9  and  C_15 
REMARK    5  A    between atoms: C_9  and  C_10 
REMARK    6  A    between atoms: C_10  and  C_11 
REMARK    7  A    between atoms: C_11  and  C_12 
REMARK    8  A    between atoms: C_12  and  C_13 
REMARK    9  A    between atoms: C_15  and  C_16 
REMARK       I    between atoms: C_16  and  N_18 
REMARK   10  A    between atoms: N_18  and  C_20 
ROOT
HETATM    1  C   UNL     1      10.292  -1.088  23.303  1.00  0.00     0.108 C 
ENDROOT
BRANCH   1   2
HETATM    2  C   UNL     1       9.454  -1.980  23.515  1.00  0.00     0.011 C 
HETATM    3  C   UNL     1       8.987  -2.947  24.168  1.00  0.00     0.097 C 
BRANCH   3   4
HETATM    4  N   UNL     1       8.106  -3.535  24.697  1.00  0.00    -0.296 N 
ATOM      5  HN  UNL     1       7.205  -3.558  24.219  1.00  0.00     0.177 HD
BRANCH   4   6
HETATM    6  S   UNL     1       8.214  -4.307  26.118  1.00  0.00     0.226 S 
HETATM    7  C   UNL     1       6.612  -4.899  26.478  1.00  0.00     0.186 C 
HETATM    8  O   UNL     1       9.083  -5.457  26.015  1.00  0.00    -0.206 OA
HETATM    9  O   UNL     1       8.605  -3.455  27.194  1.00  0.00    -0.206 OA
ENDBRANCH   4   6
ENDBRANCH   3   4
ENDBRANCH   1   2
BRANCH   1  10
HETATM   10  C   UNL     1       9.722  -0.601  22.351  1.00  0.00    -0.071 C 
BRANCH  10  11
HETATM   11  C   UNL     1       9.049   0.052  21.369  1.00  0.00     0.289 C 
HETATM   12  O   UNL     1       9.536   0.986  20.943  1.00  0.00    -0.259 OA
HETATM   13  N   UNL     1       7.931  -0.549  21.070  1.00  0.00    -0.315 N 
ATOM     14  HN  UNL     1       7.659  -1.391  21.577  1.00  0.00     0.170 HD
BRANCH  13  15
HETATM   15  C   UNL     1       7.182  -0.099  20.159  1.00  0.00     0.057 A 
HETATM   16  C   UNL     1       7.261  -0.025  18.831  1.00  0.00     0.117 A 
HETATM   17  N   UNL     1       6.780   0.346  17.815  1.00  0.00    -0.373 N 
HETATM   18  C   UNL     1       5.615   0.907  18.191  1.00  0.00     0.088 A 
ATOM     19  HN  UNL     1       7.160   0.260  16.872  1.00  0.00     0.164 HD
HETATM   20  C   UNL     1       5.251   0.959  19.380  1.00  0.00     0.026 A 
HETATM   21  C   UNL     1       5.826   0.557  20.514  1.00  0.00    -0.033 A 
HETATM   22  C   UNL     1       5.340   0.707  21.972  1.00  0.00     0.050 C 
ENDBRANCH  13  15
ENDBRANCH  10  11
ENDBRANCH   1  10
BRANCH   1  23
HETATM   23  C   UNL     1      11.030  -0.023  24.282  1.00  0.00    -0.010 C 
BRANCH  23  24
HETATM   24  C   UNL     1      11.998   0.343  24.287  1.00  0.00    -0.025 C 
BRANCH  24  25
HETATM   25  C   UNL     1      13.180  -0.148  23.497  1.00  0.00     0.053 C 
BRANCH  25  26
HETATM   26  C   UNL     1      12.709  -1.300  22.637  1.00  0.00    -0.033 C 
HETATM   27  C   UNL     1      11.820  -1.736  22.510  1.00  0.00     0.007 C 
ENDBRANCH  25  26
ENDBRANCH  24  25
ENDBRANCH  23  24
ENDBRANCH   1  23
TORSDOF 10
