MODEL 1
REMARK VINA RESULT:    -6.135      0.000      0.000
REMARK INTER + INTRA:         -11.371
REMARK INTER:                  -9.722
REMARK INTRA:                  -1.649
REMARK UNBOUND:                -1.649
REMARK  10 active torsions:
REMARK  status: ('A' for Active; 'I' for Inactive)
REMARK    1  A    between atoms: S_2  and  N_5 
REMARK    2  A    between atoms: N_5  and  C_7 
REMARK    3  A    between atoms: C_8  and  C_9 
REMARK    4  A    between atoms: C_9  and  C_15 
REMARK    5  A    between atoms: C_9  and  C_10 
REMARK    6  A    between atoms: C_10  and  C_11 
REMARK    7  A    between atoms: C_11  and  C_12 
REMARK    8  A    between atoms: C_12  and  C_13 
REMARK    9  A    between atoms: C_15  and  C_16 
REMARK       I    between atoms: C_16  and  N_18 
REMARK   10  A    between atoms: N_18  and  C_20 
ROOT
HETATM    1  C   UNL     1       9.340  -1.521  23.364  1.00  0.00     0.108 C 
ENDROOT
BRANCH   1   2
HETATM    2  C   UNL     1       8.940  -2.671  23.116  1.00  0.00     0.011 C 
HETATM    3  C   UNL     1       8.094  -3.599  23.168  1.00  0.00     0.097 C 
BRANCH   3   4
HETATM    4  N   UNL     1       7.450  -4.467  22.685  1.00  0.00    -0.296 N 
ATOM      5  HN  UNL     1       7.907  -5.368  22.544  1.00  0.00     0.177 HD
BRANCH   4   6
HETATM    6  S   UNL     1       5.899  -4.341  22.229  1.00  0.00     0.226 S 
HETATM    7  C   UNL     1       5.010  -3.845  23.646  1.00  0.00     0.186 C 
HETATM    8  O   UNL     1       5.737  -3.304  21.236  1.00  0.00    -0.206 OA
HETATM    9  O   UNL     1       5.340  -5.577  21.786  1.00  0.00    -0.206 OA
ENDBRANCH   4   6
ENDBRANCH   3   4
ENDBRANCH   1   2
BRANCH   1  10
HETATM   10  C   UNL     1       8.922  -1.018  22.344  1.00  0.00    -0.071 C 
BRANCH  10  11
HETATM   11  C   UNL     1       8.418  -0.343  21.279  1.00  0.00     0.289 C 
HETATM   12  O   UNL     1       9.137   0.323  20.703  1.00  0.00    -0.259 OA
HETATM   13  N   UNL     1       7.155  -0.610  21.094  1.00  0.00    -0.315 N 
ATOM     14  HN  UNL     1       6.674  -1.243  21.732  1.00  0.00     0.170 HD
BRANCH  13  15
HETATM   15  C   UNL     1       6.522  -0.092  20.133  1.00  0.00     0.057 A 
HETATM   16  C   UNL     1       6.248  -0.462  18.883  1.00  0.00     0.117 A 
HETATM   17  N   UNL     1       5.761  -0.191  17.838  1.00  0.00    -0.373 N 
HETATM   18  C   UNL     1       5.213   1.023  18.039  1.00  0.00     0.088 A 
ATOM     19  HN  UNL     1       5.757  -0.748  16.983  1.00  0.00     0.164 HD
HETATM   20  C   UNL     1       5.282   1.615  19.131  1.00  0.00     0.026 A 
HETATM   21  C   UNL     1       5.862   1.299  20.290  1.00  0.00    -0.033 A 
HETATM   22  C   UNL     1       5.959   2.114  21.598  1.00  0.00     0.050 C 
ENDBRANCH  13  15
ENDBRANCH  10  11
ENDBRANCH   1  10
BRANCH   1  23
HETATM   23  C   UNL     1       9.232  -0.586  24.687  1.00  0.00    -0.010 C 
BRANCH  23  24
HETATM   24  C   UNL     1       9.948  -0.040  25.198  1.00  0.00    -0.025 C 
BRANCH  24  25
HETATM   25  C   UNL     1      11.211   0.570  24.656  1.00  0.00     0.053 C 
BRANCH  25  26
HETATM   26  C   UNL     1      10.836   1.864  23.969  1.00  0.00    -0.033 C 
HETATM   27  C   UNL     1      11.328   2.719  23.811  1.00  0.00     0.007 C 
ENDBRANCH  25  26
ENDBRANCH  24  25
ENDBRANCH  23  24
ENDBRANCH   1  23
TORSDOF 10
ENDMDL
MODEL 2
REMARK VINA RESULT:    -5.938      2.775      6.246
REMARK INTER + INTRA:         -11.058
REMARK INTER:                  -9.721
REMARK INTRA:                  -1.338
REMARK UNBOUND:                -1.649
REMARK  10 active torsions:
REMARK  status: ('A' for Active; 'I' for Inactive)
REMARK    1  A    between atoms: S_2  and  N_5 
REMARK    2  A    between atoms: N_5  and  C_7 
REMARK    3  A    between atoms: C_8  and  C_9 
REMARK    4  A    between atoms: C_9  and  C_15 
REMARK    5  A    between atoms: C_9  and  C_10 
REMARK    6  A    between atoms: C_10  and  C_11 
REMARK    7  A    between atoms: C_11  and  C_12 
REMARK    8  A    between atoms: C_12  and  C_13 
REMARK    9  A    between atoms: C_15  and  C_16 
REMARK       I    between atoms: C_16  and  N_18 
REMARK   10  A    between atoms: N_18  and  C_20 
ROOT
HETATM    1  C   UNL     1       9.414  -1.769  22.988  1.00  0.00     0.108 C 
ENDROOT
BRANCH   1   2
HETATM    2  C   UNL     1       8.538  -1.595  22.124  1.00  0.00     0.011 C 
HETATM    3  C   UNL     1       7.389  -1.254  21.747  1.00  0.00     0.097 C 
BRANCH   3   4
HETATM    4  N   UNL     1       6.641  -0.682  21.028  1.00  0.00    -0.296 N 
ATOM      5  HN  UNL     1       5.669  -0.991  21.022  1.00  0.00     0.177 HD
BRANCH   4   6
HETATM    6  S   UNL     1       7.036   0.551  20.053  1.00  0.00     0.226 S 
HETATM    7  C   UNL     1       5.532   1.199  19.449  1.00  0.00     0.186 C 
HETATM    8  O   UNL     1       7.690   1.605  20.794  1.00  0.00    -0.206 OA
HETATM    9  O   UNL     1       7.811   0.151  18.924  1.00  0.00    -0.206 OA
ENDBRANCH   4   6
ENDBRANCH   3   4
ENDBRANCH   1   2
BRANCH   1  10
HETATM   10  C   UNL     1       8.888  -2.728  23.511  1.00  0.00    -0.071 C 
BRANCH  10  11
HETATM   11  C   UNL     1       8.267  -3.716  24.204  1.00  0.00     0.289 C 
HETATM   12  O   UNL     1       8.069  -4.688  23.650  1.00  0.00    -0.259 OA
HETATM   13  N   UNL     1       8.019  -3.359  25.433  1.00  0.00    -0.315 N 
ATOM     14  HN  UNL     1       8.274  -2.424  25.749  1.00  0.00     0.170 HD
BRANCH  13  15
HETATM   15  C   UNL     1       7.466  -4.161  26.237  1.00  0.00     0.057 A 
HETATM   16  C   UNL     1       7.885  -5.189  26.973  1.00  0.00     0.117 A 
HETATM   17  N   UNL     1       7.614  -6.070  27.715  1.00  0.00    -0.373 N 
HETATM   18  C   UNL     1       6.291  -5.924  27.925  1.00  0.00     0.088 A 
ATOM     19  HN  UNL     1       8.237  -6.776  28.107  1.00  0.00     0.164 HD
HETATM   20  C   UNL     1       5.625  -5.021  27.388  1.00  0.00     0.026 A 
HETATM   21  C   UNL     1       5.950  -4.053  26.530  1.00  0.00    -0.033 A 
HETATM   22  C   UNL     1       5.053  -2.993  25.854  1.00  0.00     0.050 C 
ENDBRANCH  13  15
ENDBRANCH  10  11
ENDBRANCH   1  10
BRANCH   1  23
HETATM   23  C   UNL     1      11.035  -1.832  22.907  1.00  0.00    -0.010 C 
BRANCH  23  24
HETATM   24  C   UNL     1      11.759  -1.140  23.169  1.00  0.00    -0.025 C 
BRANCH  24  25
HETATM   25  C   UNL     1      11.838  -0.308  24.420  1.00  0.00     0.053 C 
BRANCH  25  26
HETATM   26  C   UNL     1      11.470   1.111  24.049  1.00  0.00    -0.033 C 
HETATM   27  C   UNL     1      10.691   1.694  24.275  1.00  0.00     0.007 C 
ENDBRANCH  25  26
ENDBRANCH  24  25
ENDBRANCH  23  24
ENDBRANCH   1  23
TORSDOF 10
ENDMDL
MODEL 3
REMARK VINA RESULT:    -5.843     14.386     16.417
REMARK INTER + INTRA:         -10.907
REMARK INTER:                  -9.403
REMARK INTRA:                  -1.504
REMARK UNBOUND:                -1.649
REMARK  10 active torsions:
REMARK  status: ('A' for Active; 'I' for Inactive)
REMARK    1  A    between atoms: S_2  and  N_5 
REMARK    2  A    between atoms: N_5  and  C_7 
REMARK    3  A    between atoms: C_8  and  C_9 
REMARK    4  A    between atoms: C_9  and  C_15 
REMARK    5  A    between atoms: C_9  and  C_10 
REMARK    6  A    between atoms: C_10  and  C_11 
REMARK    7  A    between atoms: C_11  and  C_12 
REMARK    8  A    between atoms: C_12  and  C_13 
REMARK    9  A    between atoms: C_15  and  C_16 
REMARK       I    between atoms: C_16  and  N_18 
REMARK   10  A    between atoms: N_18  and  C_20 
ROOT
HETATM    1  C   UNL     1      24.269  -1.787  23.531  1.00  0.00     0.108 C 
ENDROOT
BRANCH   1   2
HETATM    2  C   UNL     1      24.205  -3.016  23.701  1.00  0.00     0.011 C 
HETATM    3  C   UNL     1      23.988  -4.042  24.395  1.00  0.00     0.097 C 
BRANCH   3   4
HETATM    4  N   UNL     1      23.512  -5.110  24.576  1.00  0.00    -0.296 N 
ATOM      5  HN  UNL     1      22.496  -5.185  24.529  1.00  0.00     0.177 HD
BRANCH   4   6
HETATM    6  S   UNL     1      24.343  -6.465  24.895  1.00  0.00     0.226 S 
HETATM    7  C   UNL     1      26.006  -5.981  25.113  1.00  0.00     0.186 C 
HETATM    8  O   UNL     1      23.903  -7.060  26.136  1.00  0.00    -0.206 OA
HETATM    9  O   UNL     1      24.311  -7.410  23.826  1.00  0.00    -0.206 OA
ENDBRANCH   4   6
ENDBRANCH   3   4
ENDBRANCH   1   2
BRANCH   1  10
HETATM   10  C   UNL     1      23.715  -1.778  22.454  1.00  0.00    -0.071 C 
BRANCH  10  11
HETATM   11  C   UNL     1      23.216  -1.811  21.191  1.00  0.00     0.289 C 
HETATM   12  O   UNL     1      22.096  -1.965  21.083  1.00  0.00    -0.259 OA
HETATM   13  N   UNL     1      24.151  -1.634  20.300  1.00  0.00    -0.315 N 
ATOM     14  HN  UNL     1      25.119  -1.514  20.599  1.00  0.00     0.170 HD
BRANCH  13  15
HETATM   15  C   UNL     1      23.871  -1.608  19.069  1.00  0.00     0.057 A 
HETATM   16  C   UNL     1      23.374  -0.692  18.239  1.00  0.00     0.117 A 
HETATM   17  N   UNL     1      22.998  -0.421  17.150  1.00  0.00    -0.373 N 
HETATM   18  C   UNL     1      23.212  -1.547  16.442  1.00  0.00     0.088 A 
ATOM     19  HN  UNL     1      22.603   0.461  16.823  1.00  0.00     0.164 HD
HETATM   20  C   UNL     1      23.701  -2.573  16.949  1.00  0.00     0.026 A 
HETATM   21  C   UNL     1      24.093  -2.862  18.190  1.00  0.00    -0.033 A 
HETATM   22  C   UNL     1      24.640  -4.186  18.766  1.00  0.00     0.050 C 
ENDBRANCH  13  15
ENDBRANCH  10  11
ENDBRANCH   1  10
BRANCH   1  23
HETATM   23  C   UNL     1      23.920  -0.528  24.495  1.00  0.00    -0.010 C 
BRANCH  23  24
HETATM   24  C   UNL     1      23.183  -0.398  25.209  1.00  0.00    -0.025 C 
BRANCH  24  25
HETATM   25  C   UNL     1      21.835   0.248  25.045  1.00  0.00     0.053 C 
BRANCH  25  26
HETATM   26  C   UNL     1      20.889  -0.798  24.498  1.00  0.00    -0.033 C 
HETATM   27  C   UNL     1      20.412  -1.569  24.916  1.00  0.00     0.007 C 
ENDBRANCH  25  26
ENDBRANCH  24  25
ENDBRANCH  23  24
ENDBRANCH   1  23
TORSDOF 10
ENDMDL
MODEL 4
REMARK VINA RESULT:    -5.788      1.956      2.128
REMARK INTER + INTRA:         -10.821
REMARK INTER:                  -9.290
REMARK INTRA:                  -1.530
REMARK UNBOUND:                -1.649
REMARK  10 active torsions:
REMARK  status: ('A' for Active; 'I' for Inactive)
REMARK    1  A    between atoms: S_2  and  N_5 
REMARK    2  A    between atoms: N_5  and  C_7 
REMARK    3  A    between atoms: C_8  and  C_9 
REMARK    4  A    between atoms: C_9  and  C_15 
REMARK    5  A    between atoms: C_9  and  C_10 
REMARK    6  A    between atoms: C_10  and  C_11 
REMARK    7  A    between atoms: C_11  and  C_12 
REMARK    8  A    between atoms: C_12  and  C_13 
REMARK    9  A    between atoms: C_15  and  C_16 
REMARK       I    between atoms: C_16  and  N_18 
REMARK   10  A    between atoms: N_18  and  C_20 
ROOT
HETATM    1  C   UNL     1       9.976  -1.894  22.905  1.00  0.00     0.108 C 
ENDROOT
BRANCH   1   2
HETATM    2  C   UNL     1       8.958  -2.280  23.501  1.00  0.00     0.011 C 
HETATM    3  C   UNL     1       8.321  -3.086  24.226  1.00  0.00     0.097 C 
BRANCH   3   4
HETATM    4  N   UNL     1       7.598  -3.351  25.126  1.00  0.00    -0.296 N 
ATOM      5  HN  UNL     1       7.075  -2.584  25.547  1.00  0.00     0.177 HD
BRANCH   4   6
HETATM    6  S   UNL     1       7.373  -4.833  25.742  1.00  0.00     0.226 S 
HETATM    7  C   UNL     1       6.632  -4.606  27.306  1.00  0.00     0.186 C 
HETATM    8  O   UNL     1       6.446  -5.592  24.935  1.00  0.00    -0.206 OA
HETATM    9  O   UNL     1       8.590  -5.549  25.947  1.00  0.00    -0.206 OA
ENDBRANCH   4   6
ENDBRANCH   3   4
ENDBRANCH   1   2
BRANCH   1  10
HETATM   10  C   UNL     1       9.393  -1.251  22.059  1.00  0.00    -0.071 C 
BRANCH  10  11
HETATM   11  C   UNL     1       8.800  -0.417  21.167  1.00  0.00     0.289 C 
HETATM   12  O   UNL     1       9.428   0.441  20.766  1.00  0.00    -0.259 OA
HETATM   13  N   UNL     1       7.574  -0.780  20.909  1.00  0.00    -0.315 N 
ATOM     14  HN  UNL     1       7.179  -1.593  21.381  1.00  0.00     0.170 HD
BRANCH  13  15
HETATM   15  C   UNL     1       6.873  -0.136  20.081  1.00  0.00     0.057 A 
HETATM   16  C   UNL     1       6.583  -0.276  18.788  1.00  0.00     0.117 A 
HETATM   17  N   UNL     1       6.043   0.155  17.827  1.00  0.00    -0.373 N 
HETATM   18  C   UNL     1       5.416   1.260  18.273  1.00  0.00     0.088 A 
ATOM     19  HN  UNL     1       6.050  -0.224  16.879  1.00  0.00     0.164 HD
HETATM   20  C   UNL     1       5.479   1.632  19.458  1.00  0.00     0.026 A 
HETATM   21  C   UNL     1       6.120   1.143  20.521  1.00  0.00    -0.033 A 
HETATM   22  C   UNL     1       6.203   1.693  21.961  1.00  0.00     0.050 C 
ENDBRANCH  13  15
ENDBRANCH  10  11
ENDBRANCH   1  10
BRANCH   1  23
HETATM   23  C   UNL     1      11.370  -1.242  23.425  1.00  0.00    -0.010 C 
BRANCH  23  24
HETATM   24  C   UNL     1      11.594  -0.290  23.763  1.00  0.00    -0.025 C 
BRANCH  24  25
HETATM   25  C   UNL     1      11.052   0.416  24.975  1.00  0.00     0.053 C 
BRANCH  25  26
HETATM   26  C   UNL     1      10.198   1.567  24.491  1.00  0.00    -0.033 C 
HETATM   27  C   UNL     1       9.227   1.650  24.274  1.00  0.00     0.007 C 
ENDBRANCH  25  26
ENDBRANCH  24  25
ENDBRANCH  23  24
ENDBRANCH   1  23
TORSDOF 10
ENDMDL
MODEL 5
REMARK VINA RESULT:    -5.628     24.212     27.462
REMARK INTER + INTRA:         -10.567
REMARK INTER:                  -9.006
REMARK INTRA:                  -1.561
REMARK UNBOUND:                -1.649
REMARK  10 active torsions:
REMARK  status: ('A' for Active; 'I' for Inactive)
REMARK    1  A    between atoms: S_2  and  N_5 
REMARK    2  A    between atoms: N_5  and  C_7 
REMARK    3  A    between atoms: C_8  and  C_9 
REMARK    4  A    between atoms: C_9  and  C_15 
REMARK    5  A    between atoms: C_9  and  C_10 
REMARK    6  A    between atoms: C_10  and  C_11 
REMARK    7  A    between atoms: C_11  and  C_12 
REMARK    8  A    between atoms: C_12  and  C_13 
REMARK    9  A    between atoms: C_15  and  C_16 
REMARK       I    between atoms: C_16  and  N_18 
REMARK   10  A    between atoms: N_18  and  C_20 
ROOT
HETATM    1  C   UNL     1       8.426  17.629   1.173  1.00  0.00     0.108 C 
ENDROOT
BRANCH   1   2
HETATM    2  C   UNL     1       8.656  16.414   1.298  1.00  0.00     0.011 C 
HETATM    3  C   UNL     1       9.374  15.437   1.628  1.00  0.00     0.097 C 
BRANCH   3   4
HETATM    4  N   UNL     1       9.557  14.394   2.157  1.00  0.00    -0.296 N 
ATOM      5  HN  UNL     1       9.844  13.613   1.566  1.00  0.00     0.177 HD
BRANCH   4   6
HETATM    6  S   UNL     1       9.391  14.104   3.743  1.00  0.00     0.226 S 
HETATM    7  C   UNL     1      10.705  14.937   4.535  1.00  0.00     0.186 C 
HETATM    8  O   UNL     1       8.160  14.672   4.244  1.00  0.00    -0.206 OA
HETATM    9  O   UNL     1       9.500  12.722   4.078  1.00  0.00    -0.206 OA
ENDBRANCH   4   6
ENDBRANCH   3   4
ENDBRANCH   1   2
BRANCH   1  10
HETATM   10  C   UNL     1       8.867  17.954   2.254  1.00  0.00    -0.071 C 
BRANCH  10  11
HETATM   11  C   UNL     1       9.446  18.406   3.396  1.00  0.00     0.289 C 
HETATM   12  O   UNL     1       8.805  18.407   4.334  1.00  0.00    -0.259 OA
HETATM   13  N   UNL     1      10.688  18.753   3.201  1.00  0.00    -0.315 N 
ATOM     14  HN  UNL     1      11.092  18.681   2.268  1.00  0.00     0.170 HD
BRANCH  13  15
HETATM   15  C   UNL     1      11.396  19.175   4.158  1.00  0.00     0.057 A 
HETATM   16  C   UNL     1      12.076  18.598   5.147  1.00  0.00     0.117 A 
HETATM   17  N   UNL     1      12.733  18.727   6.123  1.00  0.00    -0.373 N 
HETATM   18  C   UNL     1      12.876  20.060   6.247  1.00  0.00     0.088 A 
ATOM     19  HN  UNL     1      13.106  17.996   6.730  1.00  0.00     0.164 HD
HETATM   20  C   UNL     1      12.371  20.864   5.443  1.00  0.00     0.026 A 
HETATM   21  C   UNL     1      11.608  20.694   4.362  1.00  0.00    -0.033 A 
HETATM   22  C   UNL     1      10.963  21.748   3.437  1.00  0.00     0.050 C 
ENDBRANCH  13  15
ENDBRANCH  10  11
ENDBRANCH   1  10
BRANCH   1  23
HETATM   23  C   UNL     1       8.713  18.680  -0.031  1.00  0.00    -0.010 C 
BRANCH  23  24
HETATM   24  C   UNL     1       8.209  19.534  -0.326  1.00  0.00    -0.025 C 
BRANCH  24  25
HETATM   25  C   UNL     1       8.160  20.869   0.366  1.00  0.00     0.053 C 
BRANCH  25  26
HETATM   26  C   UNL     1       9.167  21.772  -0.312  1.00  0.00    -0.033 C 
HETATM   27  C   UNL     1       9.926  22.322   0.030  1.00  0.00     0.007 C 
ENDBRANCH  25  26
ENDBRANCH  24  25
ENDBRANCH  23  24
ENDBRANCH   1  23
TORSDOF 10
ENDMDL
MODEL 6
REMARK VINA RESULT:    -5.576      2.542      5.858
REMARK INTER + INTRA:         -10.485
REMARK INTER:                  -9.125
REMARK INTRA:                  -1.360
REMARK UNBOUND:                -1.649
REMARK  10 active torsions:
REMARK  status: ('A' for Active; 'I' for Inactive)
REMARK    1  A    between atoms: S_2  and  N_5 
REMARK    2  A    between atoms: N_5  and  C_7 
REMARK    3  A    between atoms: C_8  and  C_9 
REMARK    4  A    between atoms: C_9  and  C_15 
REMARK    5  A    between atoms: C_9  and  C_10 
REMARK    6  A    between atoms: C_10  and  C_11 
REMARK    7  A    between atoms: C_11  and  C_12 
REMARK    8  A    between atoms: C_12  and  C_13 
REMARK    9  A    between atoms: C_15  and  C_16 
REMARK       I    between atoms: C_16  and  N_18 
REMARK   10  A    between atoms: N_18  and  C_20 
ROOT
HETATM    1  C   UNL     1       8.074  -2.427  22.695  1.00  0.00     0.108 C 
ENDROOT
BRANCH   1   2
HETATM    2  C   UNL     1       7.374  -2.073  21.731  1.00  0.00     0.011 C 
HETATM    3  C   UNL     1       6.282  -1.762  21.194  1.00  0.00     0.097 C 
BRANCH   3   4
HETATM    4  N   UNL     1       5.598  -1.072  20.517  1.00  0.00    -0.296 N 
ATOM      5  HN  UNL     1       4.621  -0.968  20.791  1.00  0.00     0.177 HD
BRANCH   4   6
HETATM    6  S   UNL     1       6.087  -0.279  19.191  1.00  0.00     0.226 S 
HETATM    7  C   UNL     1       5.065   1.129  19.055  1.00  0.00     0.186 C 
HETATM    8  O   UNL     1       7.446   0.190  19.343  1.00  0.00    -0.206 OA
HETATM    9  O   UNL     1       5.930  -1.036  17.991  1.00  0.00    -0.206 OA
ENDBRANCH   4   6
ENDBRANCH   3   4
ENDBRANCH   1   2
BRANCH   1  10
HETATM   10  C   UNL     1       8.330  -1.308  23.084  1.00  0.00    -0.071 C 
BRANCH  10  11
HETATM   11  C   UNL     1       8.700  -0.116  23.618  1.00  0.00     0.289 C 
HETATM   12  O   UNL     1       8.415   0.076  24.701  1.00  0.00    -0.259 OA
HETATM   13  N   UNL     1       9.359   0.612  22.759  1.00  0.00    -0.315 N 
ATOM     14  HN  UNL     1       9.514   0.261  21.814  1.00  0.00     0.170 HD
BRANCH  13  15
HETATM   15  C   UNL     1       9.806   1.746  23.086  1.00  0.00     0.057 A 
HETATM   16  C   UNL     1       9.345   2.994  23.008  1.00  0.00     0.117 A 
HETATM   17  N   UNL     1       9.540   4.149  23.177  1.00  0.00    -0.373 N 
HETATM   18  C   UNL     1      10.767   4.196  23.730  1.00  0.00     0.088 A 
ATOM     19  HN  UNL     1       8.921   4.930  22.954  1.00  0.00     0.164 HD
HETATM   20  C   UNL     1      11.438   3.172  23.956  1.00  0.00     0.026 A 
HETATM   21  C   UNL     1      11.206   1.879  23.730  1.00  0.00    -0.033 A 
HETATM   22  C   UNL     1      12.116   0.657  23.984  1.00  0.00     0.050 C 
ENDBRANCH  13  15
ENDBRANCH  10  11
ENDBRANCH   1  10
BRANCH   1  23
HETATM   23  C   UNL     1       7.849  -3.529  23.866  1.00  0.00    -0.010 C 
BRANCH  23  24
HETATM   24  C   UNL     1       7.344  -4.432  23.866  1.00  0.00    -0.025 C 
BRANCH  24  25
HETATM   25  C   UNL     1       7.466  -5.564  22.882  1.00  0.00     0.053 C 
BRANCH  25  26
HETATM   26  C   UNL     1       6.233  -5.543  22.006  1.00  0.00    -0.033 C 
HETATM   27  C   UNL     1       6.070  -5.797  21.054  1.00  0.00     0.007 C 
ENDBRANCH  25  26
ENDBRANCH  24  25
ENDBRANCH  23  24
ENDBRANCH   1  23
TORSDOF 10
ENDMDL
MODEL 7
REMARK VINA RESULT:    -5.371      2.478      5.278
REMARK INTER + INTRA:         -10.160
REMARK INTER:                  -7.953
REMARK INTRA:                  -2.207
REMARK UNBOUND:                -1.649
REMARK  10 active torsions:
REMARK  status: ('A' for Active; 'I' for Inactive)
REMARK    1  A    between atoms: S_2  and  N_5 
REMARK    2  A    between atoms: N_5  and  C_7 
REMARK    3  A    between atoms: C_8  and  C_9 
REMARK    4  A    between atoms: C_9  and  C_15 
REMARK    5  A    between atoms: C_9  and  C_10 
REMARK    6  A    between atoms: C_10  and  C_11 
REMARK    7  A    between atoms: C_11  and  C_12 
REMARK    8  A    between atoms: C_12  and  C_13 
REMARK    9  A    between atoms: C_15  and  C_16 
REMARK       I    between atoms: C_16  and  N_18 
REMARK   10  A    between atoms: N_18  and  C_20 
ROOT
HETATM    1  C   UNL     1       7.302  -3.375  22.446  1.00  0.00     0.108 C 
ENDROOT
BRANCH   1   2
HETATM    2  C   UNL     1       6.690  -2.823  21.517  1.00  0.00     0.011 C 
HETATM    3  C   UNL     1       5.988  -1.902  21.029  1.00  0.00     0.097 C 
BRANCH   3   4
HETATM    4  N   UNL     1       5.729  -1.102  20.195  1.00  0.00    -0.296 N 
ATOM      5  HN  UNL     1       5.008  -1.350  19.516  1.00  0.00     0.177 HD
BRANCH   4   6
HETATM    6  S   UNL     1       6.425   0.354  20.043  1.00  0.00     0.226 S 
HETATM    7  C   UNL     1       5.448   1.248  18.906  1.00  0.00     0.186 C 
HETATM    8  O   UNL     1       6.393   1.073  21.296  1.00  0.00    -0.206 OA
HETATM    9  O   UNL     1       7.748   0.293  19.512  1.00  0.00    -0.206 OA
ENDBRANCH   4   6
ENDBRANCH   3   4
ENDBRANCH   1   2
BRANCH   1  10
HETATM   10  C   UNL     1       8.144  -2.513  22.575  1.00  0.00    -0.071 C 
BRANCH  10  11
HETATM   11  C   UNL     1       9.132  -1.582  22.590  1.00  0.00     0.289 C 
HETATM   12  O   UNL     1      10.170  -1.926  22.279  1.00  0.00    -0.259 OA
HETATM   13  N   UNL     1       8.686  -0.413  22.954  1.00  0.00    -0.315 N 
ATOM     14  HN  UNL     1       7.703  -0.302  23.203  1.00  0.00     0.170 HD
BRANCH  13  15
HETATM   15  C   UNL     1       9.458   0.585  23.002  1.00  0.00     0.057 A 
HETATM   16  C   UNL     1       9.848   1.512  22.129  1.00  0.00     0.117 A 
HETATM   17  N   UNL     1      10.530   2.452  21.898  1.00  0.00    -0.373 N 
HETATM   18  C   UNL     1      11.152   2.699  23.067  1.00  0.00     0.088 A 
ATOM     19  HN  UNL     1      10.625   2.958  21.017  1.00  0.00     0.164 HD
HETATM   20  C   UNL     1      10.961   2.008  24.085  1.00  0.00     0.026 A 
HETATM   21  C   UNL     1      10.205   0.933  24.312  1.00  0.00    -0.033 A 
HETATM   22  C   UNL     1      10.060   0.085  25.594  1.00  0.00     0.050 C 
ENDBRANCH  13  15
ENDBRANCH  10  11
ENDBRANCH   1  10
BRANCH   1  23
HETATM   23  C   UNL     1       6.804  -4.063  23.830  1.00  0.00    -0.010 C 
BRANCH  23  24
HETATM   24  C   UNL     1       6.419  -3.650  24.698  1.00  0.00    -0.025 C 
BRANCH  24  25
HETATM   25  C   UNL     1       5.180  -2.813  24.857  1.00  0.00     0.053 C 
BRANCH  25  26
HETATM   26  C   UNL     1       5.609  -1.363  24.897  1.00  0.00    -0.033 C 
HETATM   27  C   UNL     1       5.974  -0.781  25.621  1.00  0.00     0.007 C 
ENDBRANCH  25  26
ENDBRANCH  24  25
ENDBRANCH  23  24
ENDBRANCH   1  23
TORSDOF 10
ENDMDL
MODEL 8
REMARK VINA RESULT:    -5.350     15.075     17.964
REMARK INTER + INTRA:         -10.126
REMARK INTER:                  -8.585
REMARK INTRA:                  -1.541
REMARK UNBOUND:                -1.649
REMARK  10 active torsions:
REMARK  status: ('A' for Active; 'I' for Inactive)
REMARK    1  A    between atoms: S_2  and  N_5 
REMARK    2  A    between atoms: N_5  and  C_7 
REMARK    3  A    between atoms: C_8  and  C_9 
REMARK    4  A    between atoms: C_9  and  C_15 
REMARK    5  A    between atoms: C_9  and  C_10 
REMARK    6  A    between atoms: C_10  and  C_11 
REMARK    7  A    between atoms: C_11  and  C_12 
REMARK    8  A    between atoms: C_12  and  C_13 
REMARK    9  A    between atoms: C_15  and  C_16 
REMARK       I    between atoms: C_16  and  N_18 
REMARK   10  A    between atoms: N_18  and  C_20 
ROOT
HETATM    1  C   UNL     1      24.341  -1.368  25.907  1.00  0.00     0.108 C 
ENDROOT
BRANCH   1   2
HETATM    2  C   UNL     1      24.210  -1.658  27.108  1.00  0.00     0.011 C 
HETATM    3  C   UNL     1      23.686  -1.525  28.243  1.00  0.00     0.097 C 
BRANCH   3   4
HETATM    4  N   UNL     1      23.191  -1.947  29.232  1.00  0.00    -0.296 N 
ATOM      5  HN  UNL     1      22.190  -2.144  29.208  1.00  0.00     0.177 HD
BRANCH   4   6
HETATM    6  S   UNL     1      23.973  -2.239  30.621  1.00  0.00     0.226 S 
HETATM    7  C   UNL     1      24.886  -0.796  30.983  1.00  0.00     0.186 C 
HETATM    8  O   UNL     1      23.040  -2.440  31.706  1.00  0.00    -0.206 OA
HETATM    9  O   UNL     1      24.902  -3.319  30.529  1.00  0.00    -0.206 OA
ENDBRANCH   4   6
ENDBRANCH   3   4
ENDBRANCH   1   2
BRANCH   1  10
HETATM   10  C   UNL     1      24.183  -2.493  25.487  1.00  0.00    -0.071 C 
BRANCH  10  11
HETATM   11  C   UNL     1      24.013  -3.699  24.886  1.00  0.00     0.289 C 
HETATM   12  O   UNL     1      22.949  -4.001  24.626  1.00  0.00    -0.259 OA
HETATM   13  N   UNL     1      25.152  -4.305  24.691  1.00  0.00    -0.315 N 
ATOM     14  HN  UNL     1      26.017  -3.865  25.004  1.00  0.00     0.170 HD
BRANCH  13  15
HETATM   15  C   UNL     1      25.193  -5.430  24.120  1.00  0.00     0.057 A 
HETATM   16  C   UNL     1      25.298  -5.836  22.855  1.00  0.00     0.117 A 
HETATM   17  N   UNL     1      25.317  -6.737  22.088  1.00  0.00    -0.373 N 
HETATM   18  C   UNL     1      25.231  -7.832  22.867  1.00  0.00     0.088 A 
ATOM     19  HN  UNL     1      25.384  -6.694  21.071  1.00  0.00     0.164 HD
HETATM   20  C   UNL     1      25.150  -7.765  24.107  1.00  0.00     0.026 A 
HETATM   21  C   UNL     1      25.103  -6.733  24.950  1.00  0.00    -0.033 A 
HETATM   22  C   UNL     1      24.943  -6.721  26.486  1.00  0.00     0.050 C 
ENDBRANCH  13  15
ENDBRANCH  10  11
ENDBRANCH   1  10
BRANCH   1  23
HETATM   23  C   UNL     1      23.700  -0.193  24.988  1.00  0.00    -0.010 C 
BRANCH  23  24
HETATM   24  C   UNL     1      22.720   0.011  24.726  1.00  0.00    -0.025 C 
BRANCH  24  25
HETATM   25  C   UNL     1      21.843  -0.735  23.759  1.00  0.00     0.053 C 
BRANCH  25  26
HETATM   26  C   UNL     1      20.633  -1.228  24.523  1.00  0.00    -0.033 C 
HETATM   27  C   UNL     1      20.501  -1.534  25.464  1.00  0.00     0.007 C 
ENDBRANCH  25  26
ENDBRANCH  24  25
ENDBRANCH  23  24
ENDBRANCH   1  23
TORSDOF 10
ENDMDL
MODEL 9
REMARK VINA RESULT:    -5.325      2.988      6.101
REMARK INTER + INTRA:         -10.087
REMARK INTER:                  -8.185
REMARK INTRA:                  -1.903
REMARK UNBOUND:                -1.649
REMARK  10 active torsions:
REMARK  status: ('A' for Active; 'I' for Inactive)
REMARK    1  A    between atoms: S_2  and  N_5 
REMARK    2  A    between atoms: N_5  and  C_7 
REMARK    3  A    between atoms: C_8  and  C_9 
REMARK    4  A    between atoms: C_9  and  C_15 
REMARK    5  A    between atoms: C_9  and  C_10 
REMARK    6  A    between atoms: C_10  and  C_11 
REMARK    7  A    between atoms: C_11  and  C_12 
REMARK    8  A    between atoms: C_12  and  C_13 
REMARK    9  A    between atoms: C_15  and  C_16 
REMARK       I    between atoms: C_16  and  N_18 
REMARK   10  A    between atoms: N_18  and  C_20 
ROOT
HETATM    1  C   UNL     1       6.497   3.773  22.609  1.00  0.00     0.108 C 
ENDROOT
BRANCH   1   2
HETATM    2  C   UNL     1       5.982   2.871  21.928  1.00  0.00     0.011 C 
HETATM    3  C   UNL     1       5.610   2.359  20.842  1.00  0.00     0.097 C 
BRANCH   3   4
HETATM    4  N   UNL     1       5.528   1.464  20.071  1.00  0.00    -0.296 N 
ATOM      5  HN  UNL     1       4.713   1.448  19.458  1.00  0.00     0.177 HD
BRANCH   4   6
HETATM    6  S   UNL     1       6.603   0.263  19.911  1.00  0.00     0.226 S 
HETATM    7  C   UNL     1       5.688  -1.161  19.484  1.00  0.00     0.186 C 
HETATM    8  O   UNL     1       7.514   0.529  18.821  1.00  0.00    -0.206 OA
HETATM    9  O   UNL     1       7.307  -0.029  21.117  1.00  0.00    -0.206 OA
ENDBRANCH   4   6
ENDBRANCH   3   4
ENDBRANCH   1   2
BRANCH   1  10
HETATM   10  C   UNL     1       7.275   3.058  23.202  1.00  0.00    -0.071 C 
BRANCH  10  11
HETATM   11  C   UNL     1       8.248   2.348  23.828  1.00  0.00     0.289 C 
HETATM   12  O   UNL     1       8.213   2.315  24.963  1.00  0.00    -0.259 OA
HETATM   13  N   UNL     1       9.065   1.795  22.976  1.00  0.00    -0.315 N 
ATOM     14  HN  UNL     1       8.931   1.948  21.976  1.00  0.00     0.170 HD
BRANCH  13  15
HETATM   15  C   UNL     1      10.021   1.073  23.375  1.00  0.00     0.057 A 
HETATM   16  C   UNL     1      10.188  -0.233  23.579  1.00  0.00     0.117 A 
HETATM   17  N   UNL     1      10.889  -1.110  23.955  1.00  0.00    -0.373 N 
HETATM   18  C   UNL     1      12.040  -0.491  24.280  1.00  0.00     0.088 A 
ATOM     19  HN  UNL     1      10.672  -2.105  24.017  1.00  0.00     0.164 HD
HETATM   20  C   UNL     1      12.193   0.739  24.165  1.00  0.00     0.026 A 
HETATM   21  C   UNL     1      11.375   1.713  23.764  1.00  0.00    -0.033 A 
HETATM   22  C   UNL     1      11.615   3.237  23.701  1.00  0.00     0.050 C 
ENDBRANCH  13  15
ENDBRANCH  10  11
ENDBRANCH   1  10
BRANCH   1  23
HETATM   23  C   UNL     1       7.069   5.244  22.225  1.00  0.00    -0.010 C 
BRANCH  23  24
HETATM   24  C   UNL     1       7.486   5.989  22.811  1.00  0.00    -0.025 C 
BRANCH  24  25
HETATM   25  C   UNL     1       8.940   6.340  22.970  1.00  0.00     0.053 C 
BRANCH  25  26
HETATM   26  C   UNL     1       9.253   6.328  24.450  1.00  0.00    -0.033 C 
HETATM   27  C   UNL     1       8.915   5.781  25.214  1.00  0.00     0.007 C 
ENDBRANCH  25  26
ENDBRANCH  24  25
ENDBRANCH  23  24
ENDBRANCH   1  23
TORSDOF 10
ENDMDL
