stable:False satoms:16 tatoms:24 sratio:0.6666666666666666
  -OEChem-07092417393D

 24 23  0     1  0  0  0  0  0999 V2000
    7.0902   -4.8664   26.6299 H   0  0  0  0  0  0  0  0  0  0  0  0
    8.0841   -4.3853   26.3035 C   0  0  0  0  0  0  0  0  0  0  0  0
    8.8017   -5.1889   25.9758 H   0  0  0  0  0  0  0  0  0  0  0  0
    8.5516   -3.6624   27.1615 O   0  0  0  0  0  0  0  0  0  0  0  0
    7.6198   -3.3276   24.8855 S   0  0  0  0  0  0  0  0  0  0  0  0
    8.7134   -2.6084   24.0898 C   0  0  0  0  0  0  0  0  0  0  0  0
    9.0338   -1.7455   23.4091 N   0  0  0  0  0  0  0  0  0  0  0  0
   10.9370   -0.6163   23.5417 C   0  0  0  0  0  0  0  0  0  0  0  0
   10.8780   -0.2822   24.5516 H   0  0  0  0  0  0  0  0  0  0  0  0
   12.2591   -0.9995   23.0958 C   0  0  0  0  0  0  0  0  0  0  0  0
   13.0577   -0.4908   23.6439 H   0  0  0  0  0  0  0  0  0  0  0  0
   12.4638   -0.8346   22.0578 H   0  0  0  0  0  0  0  0  0  0  0  0
   12.2497   -2.1059   23.1805 H   0  0  0  0  0  0  0  0  0  0  0  0
    9.7900   -0.8282   22.8719 C   0  0  0  0  0  0  0  0  0  0  0  0
    9.2755   -0.0343   21.7026 C   0  0  0  0  0  0  0  0  0  0  0  0
    9.8707    0.8506   21.1980 O   0  0  0  0  0  0  0  0  0  0  0  0
    8.0614   -0.4011   21.2524 N   0  0  0  0  0  0  0  0  0  0  0  0
    7.1380    0.0789   20.7964 C   0  0  0  0  0  0  0  0  0  0  0  0
    6.5672    0.3603   18.1270 C   0  0  0  0  0  0  0  0  0  0  0  0
    7.0425    0.0641   17.2203 N   0  0  0  0  0  0  0  0  0  0  0  0
    5.7723    0.8440   19.1015 C   0  5  3  0  0  0  0  0  0  0  0  0
    4.9491    1.4102   18.7988 H   0  0  0  0  0  0  0  0  0  0  0  0
    6.0245    0.6111   20.4584 C   0  0  0  0  0  0  0  0  0  0  0  0
    5.3530    0.8682   21.2431 H   0  0  0  0  0  0  0  0  0  0  0  0
 19 20  3  0  0  0  0
 19 21  1  0  0  0  0
 21 22  1  0  0  0  0
 21 23  1  0  0  0  0
 18 23  2  0  0  0  0
 23 24  1  0  0  0  0
 17 18  1  0  0  0  0
 15 16  2  0  0  0  0
 15 17  1  0  0  0  0
 14 15  1  0  0  0  0
 10 12  1  0  0  0  0
  7 14  1  0  0  0  0
  8 14  2  3  0  0  0
 10 13  1  0  0  0  0
  8 10  1  0  0  0  0
 10 11  1  0  0  0  0
  6  7  1  0  0  0  0
  8  9  1  0  0  0  0
  5  6  1  0  0  0  0
  2  5  1  0  0  0  0
  2  3  1  0  0  0  0
  1  2  1  0  0  0  0
  2  4  1  0  0  0  0
M  CHG  1  21  -1
M  END
> <Shapegauss>
-189.388977

$$$$
