stable:False satoms:16 tatoms:24 sratio:0.6666666666666666
  -OEChem-08062405443D

 32 31  0     1  0  0  0  0  0999 V2000
    7.0496   -5.1297   26.6974 H   0  0  0  0  0  0  0  0  0  0  0  0
    8.0467   -4.8010   26.2245 C   0  0  0  0  0  0  0  0  0  0  0  0
    8.5233   -5.6780   25.7032 H   0  0  0  0  0  0  0  0  0  0  0  0
    8.7896   -4.2757   27.0303 O   0  0  0  0  0  0  0  0  0  0  0  0
    7.5609   -3.5235   25.0092 S   0  0  0  0  0  0  0  0  0  0  0  0
    8.6196   -2.9269   24.0766 C   0  0  0  0  0  0  0  0  0  0  0  0
    8.9807   -2.0641   23.4165 N   0  3  0  0  0  0  0  0  0  0  0  0
   11.0629   -1.3174   23.2683 C   0  0  0  0  0  0  0  0  0  0  0  0
   11.2475   -1.0947   24.2936 H   0  0  0  0  0  0  0  0  0  0  0  0
   12.1852   -1.8788   22.5480 C   0  0  0  0  0  0  0  0  0  0  0  0
   13.1514   -1.5871   22.9703 H   0  0  0  0  0  0  0  0  0  0  0  0
   12.2347   -1.6369   21.5061 H   0  0  0  0  0  0  0  0  0  0  0  0
   11.9724   -2.9679   22.5463 H   0  0  0  0  0  0  0  0  0  0  0  0
    9.7979   -1.2427   22.8171 C   0  0  0  0  0  0  0  0  0  0  0  0
    9.2550   -0.2421   21.8341 C   0  0  0  0  0  0  0  0  0  0  0  0
    9.9161    0.5729   21.2951 O   0  0  0  0  0  0  0  0  0  0  0  0
    7.9329   -0.3316   21.5986 N   0  0  0  0  0  0  0  0  0  0  0  0
    7.0575    0.3549   21.3675 C   0  0  0  0  0  0  0  0  0  0  0  0
    6.0982    1.0347   18.8880 C   0  0  0  0  0  0  0  0  0  0  0  0
    6.3406    0.7626   17.8865 N   0  0  0  0  0  0  0  0  0  0  0  0
    5.5962    1.5398   20.0319 C   0  0  3  0  0  0  0  0  0  0  0  0
    5.7810    2.6235   19.9951 H   0  0  0  0  0  0  0  0  0  0  0  0
    6.0295    1.1132   21.2925 C   0  0  0  0  0  0  0  0  0  0  0  0
    5.5689    1.3962   22.2093 H   0  0  0  0  0  0  0  0  0  0  0  0
    9.0601   -4.9167   27.6772 H   0  0  0  0  0  0  0  0  0  0  0  0
    8.6589   -3.7348   23.3311 H   0  0  0  0  0  0  0  0  0  0  0  0
    9.4906   -3.0015   24.7443 H   0  0  0  0  0  0  0  0  0  0  0  0
    8.4351   -1.3565   23.8653 H   0  0  0  0  0  0  0  0  0  0  0  0
    7.6319   -1.2843   21.6388 H   0  0  0  0  0  0  0  0  0  0  0  0
    7.2963    0.4391   20.3176 H   0  0  0  0  0  0  0  0  0  0  0  0
    4.5130    1.3512   20.0004 H   0  0  0  0  0  0  0  0  0  0  0  0
    8.5140   -2.3683   22.5860 H   0  0  0  0  0  0  0  0  0  0  0  0
 19 20  3  0  0  0  0
 19 21  1  0  0  0  0
 21 22  1  0  0  0  0
 21 23  1  0  0  0  0
 18 23  2  0  0  0  0
 23 24  1  0  0  0  0
 17 18  1  0  0  0  0
 15 16  2  0  0  0  0
 15 17  1  0  0  0  0
 14 15  1  0  0  0  0
 10 12  1  0  0  0  0
  7 14  1  0  0  0  0
  8 14  2  3  0  0  0
 10 13  1  0  0  0  0
  8 10  1  0  0  0  0
 10 11  1  0  0  0  0
  6  7  1  0  0  0  0
  8  9  1  0  0  0  0
  5  6  1  0  0  0  0
  2  5  1  0  0  0  0
  2  3  1  0  0  0  0
  1  2  1  0  0  0  0
  2  4  1  0  0  0  0
  4 25  1  0  0  0  0
  6 26  1  0  0  0  0
  6 27  1  0  0  0  0
  7 28  1  0  0  0  0
 17 29  1  0  0  0  0
 18 30  1  0  0  0  0
 21 31  1  0  0  0  0
  7 32  1  0  0  0  0
M  CHG  1   7   1
M  END
> <Chemgauss4>
-6.301388

$$$$
