stable:False satoms:16 tatoms:24 sratio:0.6666666666666666
  -OEChem-08062405443D

 32 31  0     1  0  0  0  0  0999 V2000
   -7.3908   -5.4081  -26.4996 H   0  0  0  0  0  0  0  0  0  0  0  0
   -8.3827   -4.9879  -26.0929 C   0  0  0  0  0  0  0  0  0  0  0  0
   -8.9535   -5.8073  -25.5724 H   0  0  0  0  0  0  0  0  0  0  0  0
   -9.0386   -4.4356  -26.9544 O   0  0  0  0  0  0  0  0  0  0  0  0
   -7.8635   -3.7099  -24.8921 S   0  0  0  0  0  0  0  0  0  0  0  0
   -8.9200   -3.0021  -24.0383 C   0  0  0  0  0  0  0  0  0  0  0  0
   -9.2469   -2.0918  -23.4258 N   0  3  0  0  0  0  0  0  0  0  0  0
  -11.2691   -1.1833  -23.4161 C   0  0  0  0  0  0  0  0  0  0  0  0
  -11.3813   -0.9828  -24.4564 H   0  0  0  0  0  0  0  0  0  0  0  0
  -12.4685   -1.6318  -22.7423 C   0  0  0  0  0  0  0  0  0  0  0  0
  -13.3852   -1.2819  -23.2263 H   0  0  0  0  0  0  0  0  0  0  0  0
  -12.5540   -1.3507  -21.7127 H   0  0  0  0  0  0  0  0  0  0  0  0
  -12.3420   -2.7332  -22.6957 H   0  0  0  0  0  0  0  0  0  0  0  0
  -10.0279   -1.1899  -22.8980 C   0  0  0  0  0  0  0  0  0  0  0  0
   -9.4610   -0.2003  -21.9175 C   0  0  0  0  0  0  0  0  0  0  0  0
  -10.0839    0.6811  -21.4410 O   0  0  0  0  0  0  0  0  0  0  0  0
   -8.1643   -0.3824  -21.6064 N   0  0  0  0  0  0  0  0  0  0  0  0
   -7.2513    0.2427  -21.3482 C   0  0  0  0  0  0  0  0  0  0  0  0
   -6.3742    0.9327  -18.8412 C   0  0  0  0  0  0  0  0  0  0  0  0
   -6.6898    0.7149  -17.8468 N   0  0  0  0  0  0  0  0  0  0  0  0
   -5.7745    1.3579  -19.9703 C   0  0  3  0  0  0  0  0  0  0  0  0
   -5.8755    2.4532  -19.9769 H   0  0  0  0  0  0  0  0  0  0  0  0
   -6.1726    0.9223  -21.2395 C   0  0  0  0  0  0  0  0  0  0  0  0
   -5.6433    1.1371  -22.1376 H   0  0  0  0  0  0  0  0  0  0  0  0
   -9.3238   -5.0761  -27.5953 H   0  0  0  0  0  0  0  0  0  0  0  0
   -9.0619   -3.7782  -23.2718 H   0  0  0  0  0  0  0  0  0  0  0  0
   -9.7577   -3.0329  -24.7507 H   0  0  0  0  0  0  0  0  0  0  0  0
   -8.6246   -1.4439  -23.8651 H   0  0  0  0  0  0  0  0  0  0  0  0
   -7.9372   -1.3562  -21.6008 H   0  0  0  0  0  0  0  0  0  0  0  0
   -7.5380    0.3813  -20.3162 H   0  0  0  0  0  0  0  0  0  0  0  0
   -4.7125    1.0882  -19.8732 H   0  0  0  0  0  0  0  0  0  0  0  0
   -8.8500   -2.4018  -22.5619 H   0  0  0  0  0  0  0  0  0  0  0  0
 19 20  3  0  0  0  0
 19 21  1  0  0  0  0
 21 22  1  0  0  0  0
 21 23  1  0  0  0  0
 18 23  2  0  0  0  0
 23 24  1  0  0  0  0
 17 18  1  0  0  0  0
 15 16  2  0  0  0  0
 15 17  1  0  0  0  0
 14 15  1  0  0  0  0
 10 12  1  0  0  0  0
  7 14  1  0  0  0  0
  8 14  2  3  0  0  0
 10 13  1  0  0  0  0
  8 10  1  0  0  0  0
 10 11  1  0  0  0  0
  6  7  1  0  0  0  0
  8  9  1  0  0  0  0
  5  6  1  0  0  0  0
  2  5  1  0  0  0  0
  2  3  1  0  0  0  0
  1  2  1  0  0  0  0
  2  4  1  0  0  0  0
  4 25  1  0  0  0  0
  6 26  1  0  0  0  0
  6 27  1  0  0  0  0
  7 28  1  0  0  0  0
 17 29  1  0  0  0  0
 18 30  1  0  0  0  0
 21 31  1  0  0  0  0
  7 32  1  0  0  0  0
M  CHG  1   7   1
M  END
> <Chemgauss4>
-6.714475

$$$$
