
 OpenBabel07202414153D

 58 62  0  0  1  0  0  0  0  0999 V2000
    2.3401    2.0006   -0.4137 C   0  0  0  0  0  0  0  0  0  0  0  0
    2.4226    0.4984   -0.7691 C   0  0  2  0  0  0  0  0  0  0  0  0
    1.1717   -0.0574   -0.2297 N   0  0  0  0  0  0  0  0  0  0  0  0
    0.4515   -1.0833   -0.8244 C   0  0  0  0  0  0  0  0  0  0  0  0
    1.0446   -2.1354   -1.5119 C   0  0  0  0  0  0  0  0  0  0  0  0
    0.2943   -3.2606   -1.8574 C   0  0  0  0  0  0  0  0  0  0  0  0
    1.0752   -4.6062   -2.5889 Cl  0  0  0  0  0  0  0  0  0  0  0  0
   -1.0725   -3.3159   -1.5910 C   0  0  0  0  0  0  0  0  0  0  0  0
   -1.7176   -2.2301   -0.9914 C   0  0  0  0  0  0  0  0  0  0  0  0
   -3.2252   -2.2271   -0.8742 C   0  0  0  0  0  0  0  0  0  0  0  0
   -3.8065   -2.0422    0.5119 C   0  0  0  0  0  0  0  0  0  0  0  0
   -4.7009   -1.2228    0.7163 O   0  0  0  0  0  0  0  0  0  0  0  0
   -3.2955   -2.8948    1.4714 N   0  0  0  0  0  0  0  0  0  0  0  0
   -3.7559   -2.8577    2.8115 C   0  0  0  0  0  0  0  0  0  0  0  0
   -5.1243   -2.9031    3.0968 C   0  0  0  0  0  0  0  0  0  0  0  0
   -5.6382   -2.9083    4.3480 N   0  0  0  0  0  0  0  0  0  0  0  0
   -4.7493   -2.8354    5.3593 C   0  0  0  0  0  0  0  0  0  0  0  0
   -3.3610   -2.7669    5.1975 C   0  0  0  0  0  0  0  0  0  0  0  0
   -2.4968   -2.6537    6.2995 C   0  0  0  0  0  0  0  0  0  0  0  0
   -1.1201   -2.5462    6.1174 C   0  0  0  0  0  0  0  0  0  0  0  0
   -0.5902   -2.5456    4.8259 C   0  0  0  0  0  0  0  0  0  0  0  0
   -1.4403   -2.6628    3.7281 C   0  0  0  0  0  0  0  0  0  0  0  0
   -2.8442   -2.7867    3.8837 C   0  0  0  0  0  0  0  0  0  0  0  0
   -0.9377   -1.1346   -0.5867 C   0  0  0  0  0  0  0  0  0  0  0  0
    3.6877   -0.1678   -0.1934 C   0  0  0  0  0  0  0  0  0  0  0  0
    3.8958   -0.1115    1.2014 C   0  0  0  0  0  0  0  0  0  0  0  0
    5.0596   -0.5911    1.7941 C   0  0  0  0  0  0  0  0  0  0  0  0
    6.0537   -1.1661    1.0082 C   0  0  0  0  0  0  0  0  0  0  0  0
    5.8725   -1.3118   -0.3638 C   0  0  0  0  0  0  0  0  0  0  0  0
    6.8834   -1.9713   -1.0857 C   0  0  0  0  0  0  0  0  0  0  0  0
    6.7522   -2.2053   -2.4471 C   0  0  0  0  0  0  0  0  0  0  0  0
    5.6193   -1.7542   -3.1036 C   0  0  0  0  0  0  0  0  0  0  0  0
    4.6176   -1.0577   -2.3996 C   0  0  0  0  0  0  0  0  0  0  0  0
    4.6940   -0.8241   -1.0043 C   0  0  0  0  0  0  0  0  0  0  0  0
    3.1562    2.5770   -0.8580 H   0  0  0  0  0  0  0  0  0  0  0  0
    2.3515    2.1721    0.6703 H   0  0  0  0  0  0  0  0  0  0  0  0
    1.3918    2.4219   -0.7743 H   0  0  0  0  0  0  0  0  0  0  0  0
    2.4081    0.4460   -1.8615 H   0  0  0  0  0  0  0  0  0  0  0  0
    1.2105   -0.1834    0.7783 H   0  0  0  0  0  0  0  0  0  0  0  0
    2.1016   -2.1225   -1.7435 H   0  0  0  0  0  0  0  0  0  0  0  0
   -1.6328   -4.2048   -1.8700 H   0  0  0  0  0  0  0  0  0  0  0  0
   -3.6410   -3.1644   -1.2649 H   0  0  0  0  0  0  0  0  0  0  0  0
   -3.6128   -1.4251   -1.5139 H   0  0  0  0  0  0  0  0  0  0  0  0
   -2.3528   -3.2274    1.3144 H   0  0  0  0  0  0  0  0  0  0  0  0
   -5.8638   -2.9780    2.3064 H   0  0  0  0  0  0  0  0  0  0  0  0
   -5.1998   -2.8227    6.3497 H   0  0  0  0  0  0  0  0  0  0  0  0
   -2.8934   -2.6339    7.3127 H   0  0  0  0  0  0  0  0  0  0  0  0
   -0.4616   -2.4562    6.9689 H   0  0  0  0  0  0  0  0  0  0  0  0
    0.4780   -2.4388    4.6770 H   0  0  0  0  0  0  0  0  0  0  0  0
   -0.9874   -2.6167    2.7414 H   0  0  0  0  0  0  0  0  0  0  0  0
   -1.4134   -0.2801   -0.1028 H   0  0  0  0  0  0  0  0  0  0  0  0
    3.1437    0.3263    1.8537 H   0  0  0  0  0  0  0  0  0  0  0  0
    5.2016   -0.5210    2.8668 H   0  0  0  0  0  0  0  0  0  0  0  0
    6.9627   -1.5184    1.4919 H   0  0  0  0  0  0  0  0  0  0  0  0
    7.7778   -2.3346   -0.5814 H   0  0  0  0  0  0  0  0  0  0  0  0
    7.5287   -2.7489   -2.9833 H   0  0  0  0  0  0  0  0  0  0  0  0
    5.5028   -1.9541   -4.1659 H   0  0  0  0  0  0  0  0  0  0  0  0
    3.7552   -0.7391   -2.9786 H   0  0  0  0  0  0  0  0  0  0  0  0
  1 35  1  0  0  0  0
  1 36  1  0  0  0  0
  1 37  1  0  0  0  0
  2 25  1  0  0  0  0
  2  3  1  0  0  0  0
  2  1  1  0  0  0  0
  2 38  1  6  0  0  0
  3  4  1  0  0  0  0
  3 39  1  0  0  0  0
  4  5  1  0  0  0  0
  4 24  2  0  0  0  0
  5  6  2  0  0  0  0
  5 40  1  0  0  0  0
  6  7  1  0  0  0  0
  6  8  1  0  0  0  0
  8  9  2  0  0  0  0
  8 41  1  0  0  0  0
  9 10  1  0  0  0  0
  9 24  1  0  0  0  0
 10 11  1  0  0  0  0
 10 42  1  0  0  0  0
 10 43  1  0  0  0  0
 11 12  2  0  0  0  0
 11 13  1  0  0  0  0
 13 14  1  0  0  0  0
 13 44  1  0  0  0  0
 14 15  1  0  0  0  0
 14 23  2  0  0  0  0
 15 16  2  0  0  0  0
 15 45  1  0  0  0  0
 16 17  1  0  0  0  0
 17 18  2  0  0  0  0
 17 46  1  0  0  0  0
 18 19  1  0  0  0  0
 18 23  1  0  0  0  0
 19 20  2  0  0  0  0
 19 47  1  0  0  0  0
 20 21  1  0  0  0  0
 20 48  1  0  0  0  0
 21 22  2  0  0  0  0
 21 49  1  0  0  0  0
 22 23  1  0  0  0  0
 22 50  1  0  0  0  0
 24 51  1  0  0  0  0
 25 26  1  0  0  0  0
 25 34  2  0  0  0  0
 26 27  2  0  0  0  0
 26 52  1  0  0  0  0
 27 28  1  0  0  0  0
 27 53  1  0  0  0  0
 28 29  2  0  0  0  0
 28 54  1  0  0  0  0
 29 30  1  0  0  0  0
 29 34  1  0  0  0  0
 30 31  2  0  0  0  0
 30 55  1  0  0  0  0
 31 32  1  0  0  0  0
 31 56  1  0  0  0  0
 32 33  2  0  0  0  0
 32 57  1  0  0  0  0
 33 34  1  0  0  0  0
 33 58  1  0  0  0  0
M  END
$$$$
