REMARK  6 active torsions:
REMARK  status: ('A' for Active; 'I' for Inactive)
REMARK    1  A    between atoms: S_2  and  N_5 
REMARK    2  A    between atoms: N_5  and  C_7 
REMARK    3  A    between atoms: C_8  and  C_9 
REMARK    4  A    between atoms: C_9  and  C_13 
REMARK    5  A    between atoms: C_10  and  C_11 
REMARK    6  A    between atoms: C_13  and  C_14 
REMARK       I    between atoms: C_14  and  N_16 
ROOT
HETATM    1  C   UNL     1      10.071  -1.013  23.423  1.00  0.00     0.070 C 
HETATM    2  C   UNL     1      10.960  -0.266  24.253  1.00  0.00     0.029 C 
ENDROOT
BRANCH   1   3
HETATM    3  C   UNL     1       9.475  -2.091  23.737  1.00  0.00    -0.034 C 
HETATM    4  C   UNL     1       8.913  -2.877  24.273  1.00  0.00     0.027 C 
BRANCH   4   5
HETATM    5  N   UNL     1       8.017  -3.519  24.809  1.00  0.00    -0.229 N 
ATOM      6  HN  UNL     1       7.088  -3.529  24.389  1.00  0.00     0.190 HD
BRANCH   5   7
HETATM    7  S   UNL     1       8.279  -4.345  26.160  1.00  0.00     0.327 S 
HETATM    8 CL   UNL     1       6.532  -4.949  26.576  1.00  0.00     0.042 Cl
HETATM    9  O   UNL     1       9.072  -5.523  25.978  1.00  0.00    -0.188 OA
HETATM   10  O   UNL     1       8.670  -3.504  27.247  1.00  0.00    -0.188 OA
ENDBRANCH   5   7
ENDBRANCH   4   5
ENDBRANCH   1   3
BRANCH   1  11
HETATM   11  C   UNL     1       9.730  -0.467  22.311  1.00  0.00    -0.035 C 
BRANCH  11  12
HETATM   12  C   UNL     1       9.014   0.151  21.365  1.00  0.00     0.294 C 
HETATM   13  O   UNL     1       9.474   1.173  20.931  1.00  0.00    -0.258 OA
HETATM   14  N   UNL     1       7.859  -0.482  21.100  1.00  0.00    -0.317 N 
HETATM   15  C   UNL     1       7.148   0.042  20.165  1.00  0.00     0.035 A 
ATOM     16  HN  UNL     1       7.567  -1.319  21.605  1.00  0.00     0.170 HD
HETATM   17  C   UNL     1       6.950   0.112  18.806  1.00  0.00     0.029 A 
HETATM   18  C   UNL     1       5.806   0.669  20.474  1.00  0.00     0.029 A 
HETATM   19  C   UNL     1       5.435   0.850  19.263  1.00  0.00     0.004 A 
ENDBRANCH  11  12
ENDBRANCH   1  11
BRANCH   2  20
HETATM   20  C   UNL     1      11.983  -0.207  23.991  1.00  0.00    -0.008 C 
HETATM   21  C   UNL     1      12.792  -0.872  23.044  1.00  0.00     0.011 C 
ENDBRANCH   2  20
TORSDOF 6
