MODEL 1
REMARK VINA RESULT:    -6.239      0.000      0.000
REMARK INTER + INTRA:          -9.073
REMARK INTER:                  -8.428
REMARK INTRA:                  -0.645
REMARK UNBOUND:                -0.645
REMARK  6 active torsions:
REMARK  status: ('A' for Active; 'I' for Inactive)
REMARK    1  A    between atoms: S_2  and  N_5 
REMARK    2  A    between atoms: N_5  and  C_7 
REMARK    3  A    between atoms: C_8  and  C_9 
REMARK    4  A    between atoms: C_9  and  C_13 
REMARK    5  A    between atoms: C_10  and  C_11 
REMARK    6  A    between atoms: C_13  and  C_14 
REMARK       I    between atoms: C_14  and  N_16 
ROOT
HETATM    1  C   UNL     1       7.928  -4.615  23.954  1.00  0.00     0.070 C 
HETATM    2  C   UNL     1       7.546  -5.562  22.958  1.00  0.00     0.029 C 
ENDROOT
BRANCH   1   3
HETATM    3  C   UNL     1       8.098  -4.851  25.192  1.00  0.00    -0.034 C 
HETATM    4  C   UNL     1       7.994  -5.226  26.226  1.00  0.00     0.027 C 
BRANCH   4   5
HETATM    5  N   UNL     1       7.987  -5.949  27.216  1.00  0.00    -0.229 N 
ATOM      6  HN  UNL     1       8.818  -6.494  27.443  1.00  0.00     0.190 HD
BRANCH   5   7
HETATM    7  S   UNL     1       6.694  -6.052  28.161  1.00  0.00     0.327 S 
HETATM    8 CL   UNL     1       5.354  -6.540  26.914  1.00  0.00     0.042 Cl
HETATM    9  O   UNL     1       6.754  -7.119  29.115  1.00  0.00    -0.188 OA
HETATM   10  O   UNL     1       6.297  -4.783  28.684  1.00  0.00    -0.188 OA
ENDBRANCH   5   7
ENDBRANCH   4   5
ENDBRANCH   1   3
BRANCH   1  11
HETATM   11  C   UNL     1       8.274  -3.450  23.535  1.00  0.00    -0.035 C 
BRANCH  11  12
HETATM   12  C   UNL     1       8.774  -2.210  23.496  1.00  0.00     0.294 C 
HETATM   13  O   UNL     1       8.312  -1.475  22.664  1.00  0.00    -0.258 OA
HETATM   14  N   UNL     1       9.759  -2.025  24.391  1.00  0.00    -0.317 N 
HETATM   15  C   UNL     1      10.248  -0.836  24.430  1.00  0.00     0.035 A 
ATOM     16  HN  UNL     1      10.094  -2.775  24.996  1.00  0.00     0.170 HD
HETATM   17  C   UNL     1      10.094   0.429  24.947  1.00  0.00     0.029 A 
HETATM   18  C   UNL     1      11.676  -0.574  24.002  1.00  0.00     0.029 A 
HETATM   19  C   UNL     1      11.736   0.643  24.394  1.00  0.00     0.004 A 
ENDBRANCH  11  12
ENDBRANCH   1  11
BRANCH   2  20
HETATM   20  C   UNL     1       6.600  -5.470  22.494  1.00  0.00    -0.008 C 
HETATM   21  C   UNL     1       6.121  -5.709  21.188  1.00  0.00     0.011 C 
ENDBRANCH   2  20
TORSDOF 6
ENDMDL
MODEL 2
REMARK VINA RESULT:    -6.134      4.127      7.433
REMARK INTER + INTRA:          -8.930
REMARK INTER:                  -7.951
REMARK INTRA:                  -0.979
REMARK UNBOUND:                -0.645
REMARK  6 active torsions:
REMARK  status: ('A' for Active; 'I' for Inactive)
REMARK    1  A    between atoms: S_2  and  N_5 
REMARK    2  A    between atoms: N_5  and  C_7 
REMARK    3  A    between atoms: C_8  and  C_9 
REMARK    4  A    between atoms: C_9  and  C_13 
REMARK    5  A    between atoms: C_10  and  C_11 
REMARK    6  A    between atoms: C_13  and  C_14 
REMARK       I    between atoms: C_14  and  N_16 
ROOT
HETATM    1  C   UNL     1      10.048  -1.072  22.799  1.00  0.00     0.070 C 
HETATM    2  C   UNL     1      11.452  -1.213  22.583  1.00  0.00     0.029 C 
ENDROOT
BRANCH   1   3
HETATM    3  C   UNL     1       9.331  -0.079  22.462  1.00  0.00    -0.034 C 
HETATM    4  C   UNL     1       8.698   0.633  21.903  1.00  0.00     0.027 C 
BRANCH   4   5
HETATM    5  N   UNL     1       7.753   1.158  21.324  1.00  0.00    -0.229 N 
ATOM      6  HN  UNL     1       7.368   2.031  21.684  1.00  0.00     0.190 HD
BRANCH   5   7
HETATM    7  S   UNL     1       7.111   0.498  20.010  1.00  0.00     0.327 S 
HETATM    8 CL   UNL     1       6.342  -1.082  20.721  1.00  0.00     0.042 Cl
HETATM    9  O   UNL     1       6.028   1.248  19.451  1.00  0.00    -0.188 OA
HETATM   10  O   UNL     1       8.102   0.063  19.077  1.00  0.00    -0.188 OA
ENDBRANCH   5   7
ENDBRANCH   4   5
ENDBRANCH   1   3
BRANCH   1  11
HETATM   11  C   UNL     1       9.430  -2.107  23.243  1.00  0.00    -0.035 C 
BRANCH  11  12
HETATM   12  C   UNL     1       8.488  -3.035  23.448  1.00  0.00     0.294 C 
HETATM   13  O   UNL     1       8.230  -3.288  24.595  1.00  0.00    -0.258 OA
HETATM   14  N   UNL     1       8.023  -3.557  22.301  1.00  0.00    -0.317 N 
HETATM   15  C   UNL     1       7.082  -4.423  22.434  1.00  0.00     0.035 A 
ATOM     16  HN  UNL     1       8.391  -3.285  21.389  1.00  0.00     0.170 HD
HETATM   17  C   UNL     1       5.727  -4.598  22.588  1.00  0.00     0.029 A 
HETATM   18  C   UNL     1       7.309  -5.874  22.069  1.00  0.00     0.029 A 
HETATM   19  C   UNL     1       6.093  -6.256  22.182  1.00  0.00     0.004 A 
ENDBRANCH  11  12
ENDBRANCH   1  11
BRANCH   2  20
HETATM   20  C   UNL     1      12.104  -1.220  23.417  1.00  0.00    -0.008 C 
HETATM   21  C   UNL     1      12.730  -0.211  24.180  1.00  0.00     0.011 C 
ENDBRANCH   2  20
TORSDOF 6
ENDMDL
MODEL 3
REMARK VINA RESULT:    -6.127      1.369      1.551
REMARK INTER + INTRA:          -8.921
REMARK INTER:                  -8.307
REMARK INTRA:                  -0.614
REMARK UNBOUND:                -0.645
REMARK  6 active torsions:
REMARK  status: ('A' for Active; 'I' for Inactive)
REMARK    1  A    between atoms: S_2  and  N_5 
REMARK    2  A    between atoms: N_5  and  C_7 
REMARK    3  A    between atoms: C_8  and  C_9 
REMARK    4  A    between atoms: C_9  and  C_13 
REMARK    5  A    between atoms: C_10  and  C_11 
REMARK    6  A    between atoms: C_13  and  C_14 
REMARK       I    between atoms: C_14  and  N_16 
ROOT
HETATM    1  C   UNL     1       7.571  -4.889  24.121  1.00  0.00     0.070 C 
HETATM    2  C   UNL     1       7.149  -5.777  23.086  1.00  0.00     0.029 C 
ENDROOT
BRANCH   1   3
HETATM    3  C   UNL     1       7.409  -5.058  25.371  1.00  0.00    -0.034 C 
HETATM    4  C   UNL     1       7.372  -5.486  26.389  1.00  0.00     0.027 C 
BRANCH   4   5
HETATM    5  N   UNL     1       7.689  -5.933  27.485  1.00  0.00    -0.229 N 
ATOM      6  HN  UNL     1       8.669  -6.135  27.679  1.00  0.00     0.190 HD
BRANCH   5   7
HETATM    7  S   UNL     1       6.589  -6.205  28.622  1.00  0.00     0.327 S 
HETATM    8 CL   UNL     1       5.058  -6.598  27.578  1.00  0.00     0.042 Cl
HETATM    9  O   UNL     1       6.842  -7.373  29.410  1.00  0.00    -0.188 OA
HETATM   10  O   UNL     1       6.264  -5.025  29.361  1.00  0.00    -0.188 OA
ENDBRANCH   5   7
ENDBRANCH   4   5
ENDBRANCH   1   3
BRANCH   1  11
HETATM   11  C   UNL     1       8.310  -3.901  23.763  1.00  0.00    -0.035 C 
BRANCH  11  12
HETATM   12  C   UNL     1       8.893  -2.697  23.725  1.00  0.00     0.294 C 
HETATM   13  O   UNL     1       8.908  -2.080  24.756  1.00  0.00    -0.258 OA
HETATM   14  N   UNL     1       9.328  -2.376  22.495  1.00  0.00    -0.317 N 
HETATM   15  C   UNL     1       9.938  -1.247  22.406  1.00  0.00     0.035 A 
ATOM     16  HN  UNL     1       9.183  -2.984  21.689  1.00  0.00     0.170 HD
HETATM   17  C   UNL     1      11.145  -0.605  22.558  1.00  0.00     0.029 A 
HETATM   18  C   UNL     1       9.335  -0.103  21.622  1.00  0.00     0.029 A 
HETATM   19  C   UNL     1      10.353   0.672  21.667  1.00  0.00     0.004 A 
ENDBRANCH  11  12
ENDBRANCH   1  11
BRANCH   2  20
HETATM   20  C   UNL     1       6.384  -5.470  22.424  1.00  0.00    -0.008 C 
HETATM   21  C   UNL     1       6.082  -5.757  21.075  1.00  0.00     0.011 C 
ENDBRANCH   2  20
TORSDOF 6
ENDMDL
MODEL 4
REMARK VINA RESULT:    -6.088      3.927      6.029
REMARK INTER + INTRA:          -8.868
REMARK INTER:                  -7.785
REMARK INTRA:                  -1.083
REMARK UNBOUND:                -0.645
REMARK  6 active torsions:
REMARK  status: ('A' for Active; 'I' for Inactive)
REMARK    1  A    between atoms: S_2  and  N_5 
REMARK    2  A    between atoms: N_5  and  C_7 
REMARK    3  A    between atoms: C_8  and  C_9 
REMARK    4  A    between atoms: C_9  and  C_13 
REMARK    5  A    between atoms: C_10  and  C_11 
REMARK    6  A    between atoms: C_13  and  C_14 
REMARK       I    between atoms: C_14  and  N_16 
ROOT
HETATM    1  C   UNL     1       9.407  -1.292  23.287  1.00  0.00     0.070 C 
HETATM    2  C   UNL     1      10.281  -0.840  24.320  1.00  0.00     0.029 C 
ENDROOT
BRANCH   1   3
HETATM    3  C   UNL     1       8.919  -2.460  23.172  1.00  0.00    -0.034 C 
HETATM    4  C   UNL     1       8.255  -3.319  22.962  1.00  0.00     0.027 C 
BRANCH   4   5
HETATM    5  N   UNL     1       7.602  -4.183  22.389  1.00  0.00    -0.229 N 
ATOM      6  HN  UNL     1       8.049  -5.064  22.138  1.00  0.00     0.190 HD
BRANCH   5   7
HETATM    7  S   UNL     1       6.055  -3.954  22.027  1.00  0.00     0.327 S 
HETATM    8 CL   UNL     1       5.324  -3.561  23.730  1.00  0.00     0.042 Cl
HETATM    9  O   UNL     1       5.812  -2.799  21.216  1.00  0.00    -0.188 OA
HETATM   10  O   UNL     1       5.412  -5.154  21.593  1.00  0.00    -0.188 OA
ENDBRANCH   5   7
ENDBRANCH   4   5
ENDBRANCH   1   3
BRANCH   1  11
HETATM   11  C   UNL     1       8.957  -0.396  22.483  1.00  0.00    -0.035 C 
BRANCH  11  12
HETATM   12  C   UNL     1       8.523   0.215  21.375  1.00  0.00     0.294 C 
HETATM   13  O   UNL     1       9.201   1.118  20.965  1.00  0.00    -0.258 OA
HETATM   14  N   UNL     1       7.353  -0.282  20.940  1.00  0.00    -0.317 N 
HETATM   15  C   UNL     1       6.907   0.238  19.851  1.00  0.00     0.035 A 
ATOM     16  HN  UNL     1       6.853  -1.018  21.439  1.00  0.00     0.170 HD
HETATM   17  C   UNL     1       6.969   0.199  18.478  1.00  0.00     0.029 A 
HETATM   18  C   UNL     1       5.641   1.065  19.851  1.00  0.00     0.029 A 
HETATM   19  C   UNL     1       5.524   1.174  18.581  1.00  0.00     0.004 A 
ENDBRANCH  11  12
ENDBRANCH   1  11
BRANCH   2  20
HETATM   20  C   UNL     1      11.279  -0.586  24.077  1.00  0.00    -0.008 C 
HETATM   21  C   UNL     1      12.101   0.528  24.353  1.00  0.00     0.011 C 
ENDBRANCH   2  20
TORSDOF 6
ENDMDL
MODEL 5
REMARK VINA RESULT:    -6.012      4.349      6.502
REMARK INTER + INTRA:          -8.766
REMARK INTER:                  -7.556
REMARK INTRA:                  -1.210
REMARK UNBOUND:                -0.645
REMARK  6 active torsions:
REMARK  status: ('A' for Active; 'I' for Inactive)
REMARK    1  A    between atoms: S_2  and  N_5 
REMARK    2  A    between atoms: N_5  and  C_7 
REMARK    3  A    between atoms: C_8  and  C_9 
REMARK    4  A    between atoms: C_9  and  C_13 
REMARK    5  A    between atoms: C_10  and  C_11 
REMARK    6  A    between atoms: C_13  and  C_14 
REMARK       I    between atoms: C_14  and  N_16 
ROOT
HETATM    1  C   UNL     1       8.267  -0.007  21.128  1.00  0.00     0.070 C 
HETATM    2  C   UNL     1       7.267   0.658  20.357  1.00  0.00     0.029 C 
ENDROOT
BRANCH   1   3
HETATM    3  C   UNL     1       9.368   0.490  21.522  1.00  0.00    -0.034 C 
HETATM    4  C   UNL     1      10.199   0.874  22.140  1.00  0.00     0.027 C 
BRANCH   4   5
HETATM    5  N   UNL     1      11.161   0.948  22.896  1.00  0.00    -0.229 N 
ATOM      6  HN  UNL     1      11.750   1.780  22.878  1.00  0.00     0.190 HD
BRANCH   5   7
HETATM    7  S   UNL     1      11.512  -0.242  23.915  1.00  0.00     0.327 S 
HETATM    8 CL   UNL     1      12.107  -1.592  22.725  1.00  0.00     0.042 Cl
HETATM    9  O   UNL     1      12.619   0.038  24.779  1.00  0.00    -0.188 OA
HETATM   10  O   UNL     1      10.351  -0.772  24.556  1.00  0.00    -0.188 OA
ENDBRANCH   5   7
ENDBRANCH   4   5
ENDBRANCH   1   3
BRANCH   1  11
HETATM   11  C   UNL     1       7.959  -1.167  21.587  1.00  0.00    -0.035 C 
BRANCH  11  12
HETATM   12  C   UNL     1       7.556  -2.143  22.408  1.00  0.00     0.294 C 
HETATM   13  O   UNL     1       6.372  -2.231  22.592  1.00  0.00    -0.258 OA
HETATM   14  N   UNL     1       8.585  -2.837  22.924  1.00  0.00    -0.317 N 
HETATM   15  C   UNL     1       8.257  -3.819  23.687  1.00  0.00     0.035 A 
ATOM     16  HN  UNL     1       9.557  -2.601  22.724  1.00  0.00     0.170 HD
HETATM   17  C   UNL     1       7.879  -5.141  23.721  1.00  0.00     0.029 A 
HETATM   18  C   UNL     1       8.578  -3.789  25.165  1.00  0.00     0.029 A 
HETATM   19  C   UNL     1       8.251  -5.000  25.421  1.00  0.00     0.004 A 
ENDBRANCH  11  12
ENDBRANCH   1  11
BRANCH   2  20
HETATM   20  C   UNL     1       7.080   0.337  19.366  1.00  0.00    -0.008 C 
HETATM   21  C   UNL     1       6.368   0.883  18.276  1.00  0.00     0.011 C 
ENDBRANCH   2  20
TORSDOF 6
ENDMDL
MODEL 6
REMARK VINA RESULT:    -5.513      4.585      7.756
REMARK INTER + INTRA:          -8.092
REMARK INTER:                  -7.363
REMARK INTRA:                  -0.729
REMARK UNBOUND:                -0.645
REMARK  6 active torsions:
REMARK  status: ('A' for Active; 'I' for Inactive)
REMARK    1  A    between atoms: S_2  and  N_5 
REMARK    2  A    between atoms: N_5  and  C_7 
REMARK    3  A    between atoms: C_8  and  C_9 
REMARK    4  A    between atoms: C_9  and  C_13 
REMARK    5  A    between atoms: C_10  and  C_11 
REMARK    6  A    between atoms: C_13  and  C_14 
REMARK       I    between atoms: C_14  and  N_16 
ROOT
HETATM    1  C   UNL     1       9.407   0.601  21.925  1.00  0.00     0.070 C 
HETATM    2  C   UNL     1      10.389   1.627  22.074  1.00  0.00     0.029 C 
ENDROOT
BRANCH   1   3
HETATM    3  C   UNL     1       8.495   0.555  21.042  1.00  0.00    -0.034 C 
HETATM    4  C   UNL     1       7.943   0.510  20.085  1.00  0.00     0.027 C 
BRANCH   4   5
HETATM    5  N   UNL     1       7.457   0.121  19.029  1.00  0.00    -0.229 N 
ATOM      6  HN  UNL     1       8.071  -0.083  18.241  1.00  0.00     0.190 HD
BRANCH   5   7
HETATM    7  S   UNL     1       5.873  -0.073  18.864  1.00  0.00     0.327 S 
HETATM    8 CL   UNL     1       5.564  -1.590  19.957  1.00  0.00     0.042 Cl
HETATM    9  O   UNL     1       5.094   0.987  19.430  1.00  0.00    -0.188 OA
HETATM   10  O   UNL     1       5.506  -0.465  17.540  1.00  0.00    -0.188 OA
ENDBRANCH   5   7
ENDBRANCH   4   5
ENDBRANCH   1   3
BRANCH   1  11
HETATM   11  C   UNL     1       9.552  -0.441  22.662  1.00  0.00    -0.035 C 
BRANCH  11  12
HETATM   12  C   UNL     1       9.508  -1.705  23.100  1.00  0.00     0.294 C 
HETATM   13  O   UNL     1      10.563  -2.272  23.197  1.00  0.00    -0.258 OA
HETATM   14  N   UNL     1       8.252  -2.131  23.314  1.00  0.00    -0.317 N 
HETATM   15  C   UNL     1       8.149  -3.325  23.779  1.00  0.00     0.035 A 
ATOM     16  HN  UNL     1       7.437  -1.547  23.120  1.00  0.00     0.170 HD
HETATM   17  C   UNL     1       8.170  -4.095  24.918  1.00  0.00     0.029 A 
HETATM   18  C   UNL     1       7.528  -4.427  22.949  1.00  0.00     0.029 A 
HETATM   19  C   UNL     1       7.480  -5.311  23.873  1.00  0.00     0.004 A 
ENDBRANCH  11  12
ENDBRANCH   1  11
BRANCH   2  20
HETATM   20  C   UNL     1      10.358   2.250  22.928  1.00  0.00    -0.008 C 
HETATM   21  C   UNL     1      11.341   2.931  23.680  1.00  0.00     0.011 C 
ENDBRANCH   2  20
TORSDOF 6
ENDMDL
MODEL 7
REMARK VINA RESULT:    -5.510      3.738      5.551
REMARK INTER + INTRA:          -8.088
REMARK INTER:                  -7.311
REMARK INTRA:                  -0.777
REMARK UNBOUND:                -0.645
REMARK  6 active torsions:
REMARK  status: ('A' for Active; 'I' for Inactive)
REMARK    1  A    between atoms: S_2  and  N_5 
REMARK    2  A    between atoms: N_5  and  C_7 
REMARK    3  A    between atoms: C_8  and  C_9 
REMARK    4  A    between atoms: C_9  and  C_13 
REMARK    5  A    between atoms: C_10  and  C_11 
REMARK    6  A    between atoms: C_13  and  C_14 
REMARK       I    between atoms: C_14  and  N_16 
ROOT
HETATM    1  C   UNL     1      10.852  -0.377  24.025  1.00  0.00     0.070 C 
HETATM    2  C   UNL     1      12.146  -0.042  24.528  1.00  0.00     0.029 C 
ENDROOT
BRANCH   1   3
HETATM    3  C   UNL     1      10.035  -1.203  24.540  1.00  0.00    -0.034 C 
HETATM    4  C   UNL     1       9.155  -1.669  25.020  1.00  0.00     0.027 C 
BRANCH   4   5
HETATM    5  N   UNL     1       8.034  -2.118  25.227  1.00  0.00    -0.229 N 
ATOM      6  HN  UNL     1       7.401  -1.617  25.850  1.00  0.00     0.190 HD
BRANCH   5   7
HETATM    7  S   UNL     1       7.544  -3.482  24.537  1.00  0.00     0.327 S 
HETATM    8 CL   UNL     1       7.025  -2.868  22.821  1.00  0.00     0.042 Cl
HETATM    9  O   UNL     1       8.591  -4.433  24.317  1.00  0.00    -0.188 OA
HETATM   10  O   UNL     1       6.358  -4.003  25.140  1.00  0.00    -0.188 OA
ENDBRANCH   5   7
ENDBRANCH   4   5
ENDBRANCH   1   3
BRANCH   1  11
HETATM   11  C   UNL     1      10.417   0.331  23.045  1.00  0.00    -0.035 C 
BRANCH  11  12
HETATM   12  C   UNL     1       9.728   0.723  21.967  1.00  0.00     0.294 C 
HETATM   13  O   UNL     1      10.139   1.698  21.397  1.00  0.00    -0.258 OA
HETATM   14  N   UNL     1       8.648  -0.044  21.742  1.00  0.00    -0.317 N 
HETATM   15  C   UNL     1       7.970   0.258  20.692  1.00  0.00     0.035 A 
ATOM     16  HN  UNL     1       8.384  -0.811  22.361  1.00  0.00     0.170 HD
HETATM   17  C   UNL     1       7.868   0.090  19.331  1.00  0.00     0.029 A 
HETATM   18  C   UNL     1       6.565   0.806  20.810  1.00  0.00     0.029 A 
HETATM   19  C   UNL     1       6.271   0.756  19.566  1.00  0.00     0.004 A 
ENDBRANCH  11  12
ENDBRANCH   1  11
BRANCH   2  20
HETATM   20  C   UNL     1      13.002  -0.320  23.973  1.00  0.00    -0.008 C 
HETATM   21  C   UNL     1      13.484  -1.545  23.463  1.00  0.00     0.011 C 
ENDBRANCH   2  20
TORSDOF 6
ENDMDL
MODEL 8
REMARK VINA RESULT:    -5.492      5.278      7.584
REMARK INTER + INTRA:          -8.064
REMARK INTER:                  -7.239
REMARK INTRA:                  -0.824
REMARK UNBOUND:                -0.645
REMARK  6 active torsions:
REMARK  status: ('A' for Active; 'I' for Inactive)
REMARK    1  A    between atoms: S_2  and  N_5 
REMARK    2  A    between atoms: N_5  and  C_7 
REMARK    3  A    between atoms: C_8  and  C_9 
REMARK    4  A    between atoms: C_9  and  C_13 
REMARK    5  A    between atoms: C_10  and  C_11 
REMARK    6  A    between atoms: C_13  and  C_14 
REMARK       I    between atoms: C_14  and  N_16 
ROOT
HETATM    1  C   UNL     1       6.945   0.996  20.847  1.00  0.00     0.070 C 
HETATM    2  C   UNL     1       5.938   1.294  19.881  1.00  0.00     0.029 C 
ENDROOT
BRANCH   1   3
HETATM    3  C   UNL     1       7.663   1.839  21.471  1.00  0.00    -0.034 C 
HETATM    4  C   UNL     1       8.425   2.317  22.112  1.00  0.00     0.027 C 
BRANCH   4   5
HETATM    5  N   UNL     1       9.487   2.738  22.556  1.00  0.00    -0.229 N 
ATOM      6  HN  UNL     1       9.804   3.671  22.297  1.00  0.00     0.190 HD
BRANCH   5   7
HETATM    7  S   UNL     1      10.389   1.846  23.540  1.00  0.00     0.327 S 
HETATM    8 CL   UNL     1      10.703   0.311  22.474  1.00  0.00     0.042 Cl
HETATM    9  O   UNL     1      11.677   2.405  23.818  1.00  0.00    -0.188 OA
HETATM   10  O   UNL     1       9.661   1.386  24.681  1.00  0.00    -0.188 OA
ENDBRANCH   5   7
ENDBRANCH   4   5
ENDBRANCH   1   3
BRANCH   1  11
HETATM   11  C   UNL     1       7.030  -0.229  21.228  1.00  0.00    -0.035 C 
BRANCH  11  12
HETATM   12  C   UNL     1       6.861  -1.359  21.924  1.00  0.00     0.294 C 
HETATM   13  O   UNL     1       7.569  -1.504  22.884  1.00  0.00    -0.258 OA
HETATM   14  N   UNL     1       5.934  -2.164  21.378  1.00  0.00    -0.317 N 
HETATM   15  C   UNL     1       5.696  -3.247  22.030  1.00  0.00     0.035 A 
ATOM     16  HN  UNL     1       5.454  -1.932  20.508  1.00  0.00     0.170 HD
HETATM   17  C   UNL     1       4.983  -3.804  23.065  1.00  0.00     0.029 A 
HETATM   18  C   UNL     1       6.056  -4.595  21.445  1.00  0.00     0.029 A 
HETATM   19  C   UNL     1       5.471  -5.311  22.330  1.00  0.00     0.004 A 
ENDBRANCH  11  12
ENDBRANCH   1  11
BRANCH   2  20
HETATM   20  C   UNL     1       6.091   1.012  18.873  1.00  0.00    -0.008 C 
HETATM   21  C   UNL     1       5.661  -0.077  18.083  1.00  0.00     0.011 C 
ENDBRANCH   2  20
TORSDOF 6
ENDMDL
MODEL 9
REMARK VINA RESULT:    -5.478      3.785      6.721
REMARK INTER + INTRA:          -8.045
REMARK INTER:                  -7.435
REMARK INTRA:                  -0.609
REMARK UNBOUND:                -0.645
REMARK  6 active torsions:
REMARK  status: ('A' for Active; 'I' for Inactive)
REMARK    1  A    between atoms: S_2  and  N_5 
REMARK    2  A    between atoms: N_5  and  C_7 
REMARK    3  A    between atoms: C_8  and  C_9 
REMARK    4  A    between atoms: C_9  and  C_13 
REMARK    5  A    between atoms: C_10  and  C_11 
REMARK    6  A    between atoms: C_13  and  C_14 
REMARK       I    between atoms: C_14  and  N_16 
ROOT
HETATM    1  C   UNL     1       8.050  -3.644  23.333  1.00  0.00     0.070 C 
HETATM    2  C   UNL     1       6.994  -4.071  22.473  1.00  0.00     0.029 C 
ENDROOT
BRANCH   1   3
HETATM    3  C   UNL     1       8.821  -2.652  23.143  1.00  0.00    -0.034 C 
HETATM    4  C   UNL     1       9.539  -1.932  22.711  1.00  0.00     0.027 C 
BRANCH   4   5
HETATM    5  N   UNL     1      10.052  -1.057  22.022  1.00  0.00    -0.229 N 
ATOM      6  HN  UNL     1      10.952  -1.233  21.578  1.00  0.00     0.190 HD
BRANCH   5   7
HETATM    7  S   UNL     1       9.331   0.361  21.807  1.00  0.00     0.327 S 
HETATM    8 CL   UNL     1       8.282   0.018  20.266  1.00  0.00     0.042 Cl
HETATM    9  O   UNL     1       8.408   0.709  22.844  1.00  0.00    -0.188 OA
HETATM   10  O   UNL     1      10.250   1.389  21.432  1.00  0.00    -0.188 OA
ENDBRANCH   5   7
ENDBRANCH   4   5
ENDBRANCH   1   3
BRANCH   1  11
HETATM   11  C   UNL     1       8.132  -4.230  24.474  1.00  0.00    -0.035 C 
BRANCH  11  12
HETATM   12  C   UNL     1       7.832  -4.965  25.551  1.00  0.00     0.294 C 
HETATM   13  O   UNL     1       8.713  -5.656  25.987  1.00  0.00    -0.258 OA
HETATM   14  N   UNL     1       6.550  -4.822  25.928  1.00  0.00    -0.317 N 
HETATM   15  C   UNL     1       6.214  -5.471  26.986  1.00  0.00     0.035 A 
ATOM     16  HN  UNL     1       5.891  -4.240  25.411  1.00  0.00     0.170 HD
HETATM   17  C   UNL     1       6.195  -5.450  28.361  1.00  0.00     0.029 A 
HETATM   18  C   UNL     1       5.228  -6.616  26.910  1.00  0.00     0.029 A 
HETATM   19  C   UNL     1       5.084  -6.784  28.170  1.00  0.00     0.004 A 
ENDBRANCH  11  12
ENDBRANCH   1  11
BRANCH   2  20
HETATM   20  C   UNL     1       7.081  -4.997  21.970  1.00  0.00    -0.008 C 
HETATM   21  C   UNL     1       6.160  -5.860  21.337  1.00  0.00     0.011 C 
ENDBRANCH   2  20
TORSDOF 6
ENDMDL
