REMARK  4 active torsions:
REMARK  status: ('A' for Active; 'I' for Inactive)
REMARK    1  A    between atoms: C_9  and  C_17 
REMARK    2  A    between atoms: N_11  and  N_15 
REMARK    3  A    between atoms: C_17  and  C_18 
REMARK    4  A    between atoms: C_18  and  N_22 
REMARK       I    between atoms: C_19  and  N_22 
ROOT
HETATM    1  C   UNL     1       9.426  -1.073  22.153  1.00  0.00    -0.063 C 
ENDROOT
BRANCH   1   2
HETATM    2  C   UNL     1       9.694  -1.525  23.340  1.00  0.00     0.066 C 
HETATM    3  C   UNL     1       8.975  -2.354  23.388  1.00  0.00     0.233 C 
HETATM    4  N   UNL     1       8.258  -3.353  23.895  1.00  0.00    -0.314 NA
HETATM    5  N   UNL     1       7.972  -4.239  24.424  1.00  0.00    -0.108 N 
HETATM    6  O   UNL     1       7.865  -4.812  25.595  1.00  0.00    -0.072 OA
ATOM      7  HN  UNL     1       7.651  -4.913  23.729  1.00  0.00     0.234 HD
HETATM    8  O   UNL     1       8.127  -3.935  26.490  1.00  0.00    -0.126 OA
HETATM    9  C   UNL     1       8.919  -3.105  25.901  1.00  0.00     0.046 C 
HETATM   10  C   UNL     1       9.852  -2.035  25.696  1.00  0.00     0.111 C 
HETATM   11  C   UNL     1      10.375  -1.290  24.637  1.00  0.00     0.064 C 
HETATM   12 CL   UNL     1      11.432   0.007  24.912  1.00  0.00    -0.082 Cl
ENDBRANCH   1   2
BRANCH   1  13
HETATM   13  C   UNL     1       9.455  -0.397  21.056  1.00  0.00     0.171 C 
HETATM   14  N   UNL     1      10.591   0.082  20.909  1.00  0.00    -0.285 N 
ATOM     15  HN  UNL     1      10.757   0.440  19.969  1.00  0.00     0.188 HD
BRANCH  14  16
HETATM   16  N   UNL     1      11.614   0.224  21.699  1.00  0.00    -0.343 N 
HETATM   17  H   UNL     1      11.748  -0.446  22.397  1.00  0.00     0.176 HD
ATOM     18  HN  UNL     1      12.256   1.010  21.593  1.00  0.00     0.176 HD
ENDBRANCH  14  16
BRANCH  13  19
HETATM   19  N   UNL     1       8.340  -0.246  20.087  1.00  0.00    -0.306 N 
HETATM   20  C   UNL     1       7.205   0.290  20.502  1.00  0.00     0.219 C 
HETATM   21  C   UNL     1       6.244   0.576  19.382  1.00  0.00     0.117 C 
HETATM   22  O   UNL     1       6.878   0.610  21.632  1.00  0.00    -0.274 OA
HETATM   23  H   UNL     1       8.470  -0.533  19.151  1.00  0.00     0.171 HD
ENDBRANCH  13  19
ENDBRANCH   1  13
TORSDOF 4
