REMARK  6 active torsions:
REMARK  status: ('A' for Active; 'I' for Inactive)
REMARK    1  A    between atoms: S_2  and  N_5 
REMARK    2  A    between atoms: C_7  and  C_8 
REMARK    3  A    between atoms: C_8  and  C_9 
REMARK    4  A    between atoms: C_9  and  C_15 
REMARK    5  A    between atoms: C_15  and  C_16 
REMARK       I    between atoms: C_16  and  N_18 
REMARK    6  A    between atoms: N_18  and  C_20 
ROOT
HETATM    1  C   UNL     1      10.326  -1.155  23.224  1.00  0.00     0.075 C 
HETATM    2  C   UNL     1      11.044   0.012  24.366  1.00  0.00    -0.000 C 
HETATM    3  C   UNL     1      12.110   0.270  24.247  1.00  0.00    -0.025 C 
HETATM    4  C   UNL     1      13.133  -0.112  23.570  1.00  0.00     0.054 C 
HETATM    5  C   UNL     1      12.733  -1.297  22.633  1.00  0.00    -0.025 C 
HETATM    6  C   UNL     1      11.787  -1.677  22.520  1.00  0.00    -0.000 C 
ENDROOT
BRANCH   1   7
HETATM    7  C   UNL     1       9.419  -1.986  23.507  1.00  0.00     0.021 C 
BRANCH   7   8
HETATM    8  C   UNL     1       8.975  -2.938  24.128  1.00  0.00     0.098 C 
HETATM    9  N   UNL     1       8.116  -3.619  24.655  1.00  0.00    -0.296 N 
ATOM     10  HN  UNL     1       7.261  -3.769  24.119  1.00  0.00     0.177 HD
BRANCH   9  11
HETATM   11  S   UNL     1       8.186  -4.317  26.127  1.00  0.00     0.226 S 
HETATM   12  C   UNL     1       6.640  -4.836  26.465  1.00  0.00     0.186 C 
HETATM   13  O   UNL     1       9.043  -5.492  26.062  1.00  0.00    -0.206 OA
HETATM   14  O   UNL     1       8.622  -3.438  27.165  1.00  0.00    -0.206 OA
ENDBRANCH   9  11
ENDBRANCH   7   8
ENDBRANCH   1   7
BRANCH   1  15
HETATM   15  C   UNL     1       9.725  -0.550  22.327  1.00  0.00    -0.061 C 
BRANCH  15  16
HETATM   16  C   UNL     1       9.062   0.046  21.375  1.00  0.00     0.290 C 
HETATM   17  O   UNL     1       9.548   0.992  20.975  1.00  0.00    -0.259 OA
HETATM   18  N   UNL     1       7.920  -0.549  21.069  1.00  0.00    -0.315 N 
ATOM     19  HN  UNL     1       7.632  -1.380  21.585  1.00  0.00     0.170 HD
BRANCH  18  20
HETATM   20  C   UNL     1       7.206  -0.116  20.177  1.00  0.00     0.060 A 
HETATM   21  C   UNL     1       7.227  -0.010  18.875  1.00  0.00     0.117 A 
HETATM   22  N   UNL     1       6.811   0.326  17.796  1.00  0.00    -0.373 N 
HETATM   23  C   UNL     1       5.650   0.882  18.222  1.00  0.00     0.088 A 
ATOM     24  HN  UNL     1       7.206   0.225  16.861  1.00  0.00     0.164 HD
HETATM   25  C   UNL     1       5.207   0.988  19.401  1.00  0.00     0.030 A 
HETATM   26  C   UNL     1       5.775   0.594  20.595  1.00  0.00    -0.016 A 
HETATM   27  C   UNL     1       5.319   0.694  21.816  1.00  0.00     0.026 C 
ENDBRANCH  18  20
ENDBRANCH  15  16
ENDBRANCH   1  15
TORSDOF 6
