stable:False satoms:15 tatoms:24 sratio:0.625
  -OEChem-08062403563D

 29 28  0     0  0  0  0  0  0999 V2000
    6.7447   -5.8485   24.8276 H   0  0  0  0  0  0  0  0  0  0  0  0
    7.7127   -5.2783   24.9117 C   0  0  0  0  0  0  0  0  0  0  0  0
    8.5642   -5.9997   24.8294 H   0  0  0  0  0  0  0  0  0  0  0  0
    7.7483   -4.7625   25.9352 H   0  0  0  0  0  0  0  0  0  0  0  0
    7.7429   -4.3226   23.8391 N   0  0  0  0  0  0  0  0  0  0  0  0
    8.4722   -3.4356   23.5804 C   0  0  0  0  0  0  0  0  0  0  0  0
    8.9605   -2.4317   23.2531 N   0  3  0  0  0  0  0  0  0  0  0  0
    9.9990   -1.6201   23.2199 C   0  0  0  0  0  0  0  0  0  0  0  0
    9.7602   -0.3284   23.4207 C   0  0  0  0  0  0  0  0  0  0  0  0
   10.0353    0.3045   24.2703 H   0  0  0  0  0  0  0  0  0  0  0  0
   12.9900   -0.1213   24.2213 N   0  0  0  0  0  0  0  0  0  0  0  0
   12.3987   -0.7454   23.6048 C   0  0  0  0  0  0  0  0  0  0  0  0
   11.5861   -1.8616   22.6450 S   0  0  0  0  0  0  0  0  0  0  0  0
    9.1299   -0.1933   22.3316 N   0  0  0  0  0  0  0  0  0  0  0  0
    8.6857    0.3960   21.2028 C   0  0  0  0  0  0  0  0  0  0  0  0
    9.1774    1.4246   20.8449 O   0  0  0  0  0  0  0  0  0  0  0  0
    7.6618   -0.2118   20.3647 N   0  0  0  0  0  0  0  0  0  0  0  0
    7.5940    0.2432   19.0950 C   0  0  0  0  0  2  0  0  0  0  0  0
    6.6540    0.7419   17.1258 H   0  0  0  0  0  0  0  0  0  0  0  0
    6.5106    0.5927   18.1403 C   0  0  0  0  0  0  0  0  0  0  0  0
    5.4782    0.6311   18.8826 C   0  0  0  0  0  0  0  0  0  0  0  0
    5.3948    0.4422   20.0126 C   0  0  0  0  0  2  0  0  0  0  0  0
    5.4330    0.3345   20.9895 H   0  0  0  0  0  0  0  0  0  0  0  0
    6.9969   -4.4330   23.1824 H   0  0  0  0  0  0  0  0  0  0  0  0
    9.3867   -3.9361   23.8624 H   0  0  0  0  0  0  0  0  0  0  0  0
    8.6762   -1.0821   22.2681 H   0  0  0  0  0  0  0  0  0  0  0  0
    7.0471   -0.9220   20.7079 H   0  0  0  0  0  0  0  0  0  0  0  0
    4.5530    0.8747   18.3815 H   0  0  0  0  0  0  0  0  0  0  0  0
    8.2419   -1.9487   22.7528 H   0  0  0  0  0  0  0  0  0  0  0  0
 19 20  1  0  0  0  0
 18 20  1  0  0  0  0
 20 21  2  0  0  0  0
 17 18  1  0  0  0  0
 21 22  1  0  0  0  0
 15 16  2  0  0  0  0
 22 23  1  0  0  0  0
 15 17  1  0  0  0  0
 14 15  1  0  0  0  0
  9 14  1  0  0  0  0
 12 13  1  0  0  0  0
  8 13  1  0  0  0  0
 11 12  3  0  0  0  0
  8  9  2  3  0  0  0
  9 10  1  0  0  0  0
  7  8  1  0  0  0  0
  6  7  2  0  0  0  0
  5  6  1  0  0  0  0
  2  5  1  0  0  0  0
  2  3  1  0  0  0  0
  1  2  1  0  0  0  0
  2  4  1  0  0  0  0
  5 24  1  0  0  0  0
  6 25  1  0  0  0  0
 14 26  1  0  0  0  0
 17 27  1  0  0  0  0
 21 28  1  0  0  0  0
  7 29  1  0  0  0  0
M  CHG  1   7   1
M  END
> <Chemgauss4>
-8.278951

$$$$
