stable:False satoms:15 tatoms:24 sratio:0.625
  -OEChem-08062403563D

 29 28  0     0  0  0  0  0  0999 V2000
   -7.4272   -5.7048  -25.4182 H   0  0  0  0  0  0  0  0  0  0  0  0
   -8.3859   -5.1131  -25.4246 C   0  0  0  0  0  0  0  0  0  0  0  0
   -9.2472   -5.8217  -25.3322 H   0  0  0  0  0  0  0  0  0  0  0  0
   -8.4630   -4.5480  -26.4193 H   0  0  0  0  0  0  0  0  0  0  0  0
   -8.3410   -4.2100  -24.3079 N   0  0  0  0  0  0  0  0  0  0  0  0
   -9.0371   -3.3230  -23.9699 C   0  0  0  0  0  0  0  0  0  0  0  0
   -9.4866   -2.3271  -23.5705 N   0  3  0  0  0  0  0  0  0  0  0  0
  -10.5046   -1.4988  -23.4449 C   0  0  0  0  0  0  0  0  0  0  0  0
  -10.2491   -0.2036  -23.5967 C   0  0  0  0  0  0  0  0  0  0  0  0
  -10.5539    0.4746  -24.3999 H   0  0  0  0  0  0  0  0  0  0  0  0
  -13.5106    0.1023  -24.2170 N   0  0  0  0  0  0  0  0  0  0  0  0
  -12.9019   -0.5618  -23.6623 C   0  0  0  0  0  0  0  0  0  0  0  0
  -12.0650   -1.7380  -22.8000 S   0  0  0  0  0  0  0  0  0  0  0  0
   -9.5612   -0.1330  -22.5367 N   0  0  0  0  0  0  0  0  0  0  0  0
   -9.0474    0.3927  -21.4060 C   0  0  0  0  0  0  0  0  0  0  0  0
   -9.4983    1.4118  -20.9748 O   0  0  0  0  0  0  0  0  0  0  0  0
   -7.9950   -0.2740  -20.6521 N   0  0  0  0  0  0  0  0  0  0  0  0
   -7.8527    0.1179  -19.3676 C   0  0  0  0  0  2  0  0  0  0  0  0
   -6.8028    0.5032  -17.4288 H   0  0  0  0  0  0  0  0  0  0  0  0
   -6.7147    0.4006  -18.4553 C   0  0  0  0  0  0  0  0  0  0  0  0
   -5.7210    0.4554  -19.2477 C   0  0  0  0  0  0  0  0  0  0  0  0
   -5.6996    0.3198  -20.3882 C   0  0  0  0  0  2  0  0  0  0  0  0
   -5.7901    0.2601  -21.3658 H   0  0  0  0  0  0  0  0  0  0  0  0
   -7.5648   -4.3659  -23.6970 H   0  0  0  0  0  0  0  0  0  0  0  0
   -9.9753   -3.7921  -24.2272 H   0  0  0  0  0  0  0  0  0  0  0  0
   -9.1237   -1.0322  -22.5390 H   0  0  0  0  0  0  0  0  0  0  0  0
   -7.4139   -0.9781  -21.0601 H   0  0  0  0  0  0  0  0  0  0  0  0
   -4.7665    0.6572  -18.7846 H   0  0  0  0  0  0  0  0  0  0  0  0
   -8.7333   -1.8823  -23.0861 H   0  0  0  0  0  0  0  0  0  0  0  0
 19 20  1  0  0  0  0
 18 20  1  0  0  0  0
 20 21  2  0  0  0  0
 17 18  1  0  0  0  0
 21 22  1  0  0  0  0
 15 16  2  0  0  0  0
 22 23  1  0  0  0  0
 15 17  1  0  0  0  0
 14 15  1  0  0  0  0
  9 14  1  0  0  0  0
 12 13  1  0  0  0  0
  8 13  1  0  0  0  0
 11 12  3  0  0  0  0
  8  9  2  3  0  0  0
  9 10  1  0  0  0  0
  7  8  1  0  0  0  0
  6  7  2  0  0  0  0
  5  6  1  0  0  0  0
  2  5  1  0  0  0  0
  2  3  1  0  0  0  0
  1  2  1  0  0  0  0
  2  4  1  0  0  0  0
  5 24  1  0  0  0  0
  6 25  1  0  0  0  0
 14 26  1  0  0  0  0
 17 27  1  0  0  0  0
 21 28  1  0  0  0  0
  7 29  1  0  0  0  0
M  CHG  1   7   1
M  END
> <Chemgauss4>
-8.292983

$$$$
