MODEL 1
REMARK VINA RESULT:    -6.390      0.000      0.000
REMARK INTER + INTRA:         -10.501
REMARK INTER:                  -9.379
REMARK INTRA:                  -1.122
REMARK UNBOUND:                -1.122
REMARK  8 active torsions:
REMARK  status: ('A' for Active; 'I' for Inactive)
REMARK    1  A    between atoms: S_2  and  N_5 
REMARK    2  A    between atoms: N_5  and  C_7 
REMARK    3  A    between atoms: C_7  and  C_8 
REMARK    4  A    between atoms: C_8  and  C_9 
REMARK    5  A    between atoms: C_9  and  C_15 
REMARK    6  A    between atoms: C_9  and  C_10 
REMARK    7  A    between atoms: C_10  and  N_11 
REMARK    8  A    between atoms: C_15  and  C_16 
REMARK       I    between atoms: C_16  and  N_18 
ROOT
HETATM    1  C   UNL     1       9.901  -1.428  22.979  1.00  0.00     0.076 C 
ENDROOT
BRANCH   1   2
HETATM    2  C   UNL     1       9.196  -2.558  23.082  1.00  0.00    -0.089 C 
BRANCH   2   3
HETATM    3  C   UNL     1       8.428  -3.293  23.421  1.00  0.00     0.158 C 
BRANCH   3   4
HETATM    4  N   UNL     1       7.627  -4.125  23.367  1.00  0.00    -0.275 N 
ATOM      5  HN  UNL     1       7.794  -4.946  23.948  1.00  0.00     0.179 HD
BRANCH   4   6
HETATM    6  S   UNL     1       6.290  -4.144  22.491  1.00  0.00     0.320 S 
HETATM    7 CL   UNL     1       6.527  -5.709  21.371  1.00  0.00     0.041 Cl
HETATM    8  O   UNL     1       5.140  -4.453  23.294  1.00  0.00    -0.188 OA
HETATM    9  O   UNL     1       6.145  -3.048  21.611  1.00  0.00    -0.188 OA
ENDBRANCH   4   6
ENDBRANCH   3   4
ENDBRANCH   2   3
ENDBRANCH   1   2
BRANCH   1  10
HETATM   10  C   UNL     1       9.238  -0.943  22.193  1.00  0.00    -0.034 C 
BRANCH  10  11
HETATM   11  C   UNL     1       8.625  -0.108  21.226  1.00  0.00     0.295 C 
HETATM   12  O   UNL     1       9.056   0.983  20.963  1.00  0.00    -0.258 OA
HETATM   13  N   UNL     1       7.531  -0.689  20.707  1.00  0.00    -0.301 N 
HETATM   14  C   UNL     1       6.884  -0.056  19.742  1.00  0.00     0.123 A 
ATOM     15  HN  UNL     1       7.208  -1.595  21.048  1.00  0.00     0.171 HD
HETATM   16  N   UNL     1       7.352   0.297  18.591  1.00  0.00    -0.286 N 
HETATM   17  C   UNL     1       5.477   0.272  20.027  1.00  0.00     0.051 A 
HETATM   18  N   UNL     1       6.813   0.890  17.674  1.00  0.00    -0.310 N 
ATOM     19  HN  UNL     1       8.325   0.039  18.424  1.00  0.00     0.188 HD
HETATM   20  C   UNL     1       5.723   1.096  17.980  1.00  0.00     0.107 A 
ATOM     21  HN  UNL     1       7.249   1.156  16.791  1.00  0.00     0.186 HD
HETATM   22  C   UNL     1       5.118   0.856  19.006  1.00  0.00     0.022 A 
ENDBRANCH  10  11
ENDBRANCH   1  10
BRANCH   1  23
HETATM   23  C   UNL     1      11.055  -0.843  23.741  1.00  0.00     0.116 C 
BRANCH  23  24
HETATM   24  N   UNL     1      11.394  -0.057  24.391  1.00  0.00    -0.374 N 
HETATM   25  C   UNL     1      12.699  -0.023  24.435  1.00  0.00     0.077 C 
HETATM   26  C   UNL     1      13.393  -0.794  23.982  1.00  0.00     0.029 C 
ATOM     27  HN  UNL     1      10.781   0.577  24.904  1.00  0.00     0.164 HD
ENDBRANCH  23  24
ENDBRANCH   1  23
TORSDOF 8
ENDMDL
MODEL 2
REMARK VINA RESULT:    -6.366     23.674     26.031
REMARK INTER + INTRA:         -10.465
REMARK INTER:                  -9.401
REMARK INTRA:                  -1.064
REMARK UNBOUND:                -1.122
REMARK  8 active torsions:
REMARK  status: ('A' for Active; 'I' for Inactive)
REMARK    1  A    between atoms: S_2  and  N_5 
REMARK    2  A    between atoms: N_5  and  C_7 
REMARK    3  A    between atoms: C_7  and  C_8 
REMARK    4  A    between atoms: C_8  and  C_9 
REMARK    5  A    between atoms: C_9  and  C_15 
REMARK    6  A    between atoms: C_9  and  C_10 
REMARK    7  A    between atoms: C_10  and  N_11 
REMARK    8  A    between atoms: C_15  and  C_16 
REMARK       I    between atoms: C_16  and  N_18 
ROOT
HETATM    1  C   UNL     1       9.019  13.942   3.020  1.00  0.00     0.076 C 
ENDROOT
BRANCH   1   2
HETATM    2  C   UNL     1       8.871  14.680   1.916  1.00  0.00    -0.089 C 
BRANCH   2   3
HETATM    3  C   UNL     1       8.762  15.568   1.250  1.00  0.00     0.158 C 
BRANCH   3   4
HETATM    4  N   UNL     1       8.349  16.563   0.830  1.00  0.00    -0.275 N 
ATOM      5  HN  UNL     1       7.538  16.488   0.216  1.00  0.00     0.179 HD
BRANCH   4   6
HETATM    6  S   UNL     1       8.894  18.042   1.097  1.00  0.00     0.320 S 
HETATM    7 CL   UNL     1       7.592  19.155   0.187  1.00  0.00     0.041 Cl
HETATM    8  O   UNL     1       8.769  18.407   2.480  1.00  0.00    -0.188 OA
HETATM    9  O   UNL     1      10.142  18.328   0.499  1.00  0.00    -0.188 OA
ENDBRANCH   4   6
ENDBRANCH   3   4
ENDBRANCH   2   3
ENDBRANCH   1   2
BRANCH   1  10
HETATM   10  C   UNL     1       9.663  14.693   3.581  1.00  0.00    -0.034 C 
BRANCH  10  11
HETATM   11  C   UNL     1      10.691  15.411   4.241  1.00  0.00     0.295 C 
HETATM   12  O   UNL     1      11.644  14.859   4.724  1.00  0.00    -0.258 OA
HETATM   13  N   UNL     1      10.424  16.727   4.265  1.00  0.00    -0.301 N 
HETATM   14  C   UNL     1      11.324  17.539   4.795  1.00  0.00     0.123 A 
ATOM     15  HN  UNL     1       9.550  17.090   3.886  1.00  0.00     0.171 HD
HETATM   16  N   UNL     1      12.546  17.703   4.412  1.00  0.00    -0.286 N 
HETATM   17  C   UNL     1      10.865  18.336   5.945  1.00  0.00     0.051 A 
HETATM   18  N   UNL     1      13.420  18.421   4.865  1.00  0.00    -0.310 N 
ATOM     19  HN  UNL     1      12.823  17.145   3.604  1.00  0.00     0.188 HD
HETATM   20  C   UNL     1      12.972  19.007   5.748  1.00  0.00     0.107 A 
ATOM     21  HN  UNL     1      14.379  18.490   4.523  1.00  0.00     0.186 HD
HETATM   22  C   UNL     1      11.868  18.978   6.253  1.00  0.00     0.022 A 
ENDBRANCH  10  11
ENDBRANCH   1  10
BRANCH   1  23
HETATM   23  C   UNL     1       8.415  12.656   3.507  1.00  0.00     0.116 C 
BRANCH  23  24
HETATM   24  N   UNL     1       8.430  11.582   3.454  1.00  0.00    -0.374 N 
HETATM   25  C   UNL     1       7.294  11.126   2.998  1.00  0.00     0.077 C 
HETATM   26  C   UNL     1       6.362  11.743   2.818  1.00  0.00     0.029 C 
ATOM     27  HN  UNL     1       9.222  10.998   3.724  1.00  0.00     0.164 HD
ENDBRANCH  23  24
ENDBRANCH   1  23
TORSDOF 8
ENDMDL
MODEL 3
REMARK VINA RESULT:    -6.215      3.071      6.838
REMARK INTER + INTRA:         -10.244
REMARK INTER:                  -8.871
REMARK INTRA:                  -1.373
REMARK UNBOUND:                -1.122
REMARK  8 active torsions:
REMARK  status: ('A' for Active; 'I' for Inactive)
REMARK    1  A    between atoms: S_2  and  N_5 
REMARK    2  A    between atoms: N_5  and  C_7 
REMARK    3  A    between atoms: C_7  and  C_8 
REMARK    4  A    between atoms: C_8  and  C_9 
REMARK    5  A    between atoms: C_9  and  C_15 
REMARK    6  A    between atoms: C_9  and  C_10 
REMARK    7  A    between atoms: C_10  and  N_11 
REMARK    8  A    between atoms: C_15  and  C_16 
REMARK       I    between atoms: C_16  and  N_18 
ROOT
HETATM    1  C   UNL     1       8.175  -0.018  20.750  1.00  0.00     0.076 C 
ENDROOT
BRANCH   1   2
HETATM    2  C   UNL     1       9.127   0.710  21.340  1.00  0.00    -0.089 C 
BRANCH   2   3
HETATM    3  C   UNL     1      10.108   0.997  21.785  1.00  0.00     0.158 C 
BRANCH   3   4
HETATM    4  N   UNL     1      10.897   1.263  22.588  1.00  0.00    -0.275 N 
ATOM      5  HN  UNL     1      11.254   2.218  22.567  1.00  0.00     0.179 HD
BRANCH   4   6
HETATM    6  S   UNL     1      11.496   0.314  23.727  1.00  0.00     0.320 S 
HETATM    7 CL   UNL     1      10.216   0.509  25.171  1.00  0.00     0.041 Cl
HETATM    8  O   UNL     1      11.407  -1.071  23.357  1.00  0.00    -0.188 OA
HETATM    9  O   UNL     1      12.743   0.730  24.247  1.00  0.00    -0.188 OA
ENDBRANCH   4   6
ENDBRANCH   3   4
ENDBRANCH   2   3
ENDBRANCH   1   2
BRANCH   1  10
HETATM   10  C   UNL     1       8.104  -0.808  21.565  1.00  0.00    -0.034 C 
BRANCH  10  11
HETATM   11  C   UNL     1       7.722  -1.826  22.473  1.00  0.00     0.295 C 
HETATM   12  O   UNL     1       6.625  -2.318  22.453  1.00  0.00    -0.258 OA
HETATM   13  N   UNL     1       8.717  -2.111  23.329  1.00  0.00    -0.301 N 
HETATM   14  C   UNL     1       8.532  -3.089  24.201  1.00  0.00     0.123 A 
ATOM     15  HN  UNL     1       9.591  -1.586  23.308  1.00  0.00     0.171 HD
HETATM   16  N   UNL     1       8.282  -4.328  23.939  1.00  0.00    -0.286 N 
HETATM   17  C   UNL     1       8.628  -2.705  25.619  1.00  0.00     0.051 A 
HETATM   18  N   UNL     1       8.091  -5.266  24.694  1.00  0.00    -0.310 N 
ATOM     19  HN  UNL     1       8.239  -4.559  22.947  1.00  0.00     0.188 HD
HETATM   20  C   UNL     1       8.192  -4.877  25.772  1.00  0.00     0.107 A 
ATOM     21  HN  UNL     1       7.879  -6.225  24.419  1.00  0.00     0.186 HD
HETATM   22  C   UNL     1       8.407  -3.763  26.207  1.00  0.00     0.022 A 
ENDBRANCH  10  11
ENDBRANCH   1  10
BRANCH   1  23
HETATM   23  C   UNL     1       7.310   0.177  19.538  1.00  0.00     0.116 C 
BRANCH  23  24
HETATM   24  N   UNL     1       7.272   0.261  18.466  1.00  0.00    -0.374 N 
HETATM   25  C   UNL     1       6.138   0.783  18.083  1.00  0.00     0.077 C 
HETATM   26  C   UNL     1       5.248   0.987  18.752  1.00  0.00     0.029 C 
ATOM     27  HN  UNL     1       8.021  -0.026  17.835  1.00  0.00     0.164 HD
ENDBRANCH  23  24
ENDBRANCH   1  23
TORSDOF 8
ENDMDL
MODEL 4
REMARK VINA RESULT:    -6.203      2.411      2.714
REMARK INTER + INTRA:         -10.226
REMARK INTER:                  -9.519
REMARK INTRA:                  -0.707
REMARK UNBOUND:                -1.122
REMARK  8 active torsions:
REMARK  status: ('A' for Active; 'I' for Inactive)
REMARK    1  A    between atoms: S_2  and  N_5 
REMARK    2  A    between atoms: N_5  and  C_7 
REMARK    3  A    between atoms: C_7  and  C_8 
REMARK    4  A    between atoms: C_8  and  C_9 
REMARK    5  A    between atoms: C_9  and  C_15 
REMARK    6  A    between atoms: C_9  and  C_10 
REMARK    7  A    between atoms: C_10  and  N_11 
REMARK    8  A    between atoms: C_15  and  C_16 
REMARK       I    between atoms: C_16  and  N_18 
ROOT
HETATM    1  C   UNL     1       9.568  -1.883  23.043  1.00  0.00     0.076 C 
ENDROOT
BRANCH   1   2
HETATM    2  C   UNL     1       8.947  -2.827  23.755  1.00  0.00    -0.089 C 
BRANCH   2   3
HETATM    3  C   UNL     1       8.559  -3.825  24.070  1.00  0.00     0.158 C 
BRANCH   3   4
HETATM    4  N   UNL     1       8.408  -4.774  24.712  1.00  0.00    -0.275 N 
ATOM      5  HN  UNL     1       8.589  -5.664  24.247  1.00  0.00     0.179 HD
BRANCH   4   6
HETATM    6  S   UNL     1       7.948  -4.861  26.241  1.00  0.00     0.320 S 
HETATM    7 CL   UNL     1       6.669  -3.411  26.393  1.00  0.00     0.041 Cl
HETATM    8  O   UNL     1       7.174  -6.045  26.490  1.00  0.00    -0.188 OA
HETATM    9  O   UNL     1       8.968  -4.588  27.181  1.00  0.00    -0.188 OA
ENDBRANCH   4   6
ENDBRANCH   3   4
ENDBRANCH   2   3
ENDBRANCH   1   2
BRANCH   1  10
HETATM   10  C   UNL     1       8.631  -1.470  22.548  1.00  0.00    -0.034 C 
BRANCH  10  11
HETATM   11  C   UNL     1       7.510  -1.191  21.727  1.00  0.00     0.295 C 
HETATM   12  O   UNL     1       6.520  -1.873  21.748  1.00  0.00    -0.258 OA
HETATM   13  N   UNL     1       7.736  -0.122  20.946  1.00  0.00    -0.301 N 
HETATM   14  C   UNL     1       6.755   0.302  20.165  1.00  0.00     0.123 A 
ATOM     15  HN  UNL     1       8.640   0.351  20.953  1.00  0.00     0.171 HD
HETATM   16  N   UNL     1       5.585   0.706  20.535  1.00  0.00    -0.286 N 
HETATM   17  C   UNL     1       7.046   0.308  18.722  1.00  0.00     0.051 A 
HETATM   18  N   UNL     1       4.642   1.092  19.867  1.00  0.00    -0.310 N 
ATOM     19  HN  UNL     1       5.426   0.702  21.542  1.00  0.00     0.188 HD
HETATM   20  C   UNL     1       4.961   1.071  18.761  1.00  0.00     0.107 A 
ATOM     21  HN  UNL     1       3.732   1.383  20.224  1.00  0.00     0.186 HD
HETATM   22  C   UNL     1       5.995   0.717  18.231  1.00  0.00     0.022 A 
ENDBRANCH  10  11
ENDBRANCH   1  10
BRANCH   1  23
HETATM   23  C   UNL     1      10.974  -1.356  23.006  1.00  0.00     0.116 C 
BRANCH  23  24
HETATM   24  N   UNL     1      12.019  -1.581  23.121  1.00  0.00    -0.374 N 
HETATM   25  C   UNL     1      12.585  -0.739  23.942  1.00  0.00     0.077 C 
HETATM   26  C   UNL     1      12.102   0.192  24.368  1.00  0.00     0.029 C 
ATOM     27  HN  UNL     1      12.503  -2.348  22.652  1.00  0.00     0.164 HD
ENDBRANCH  23  24
ENDBRANCH   1  23
TORSDOF 8
ENDMDL
MODEL 5
REMARK VINA RESULT:    -6.175      4.491      6.546
REMARK INTER + INTRA:         -10.186
REMARK INTER:                  -8.863
REMARK INTRA:                  -1.322
REMARK UNBOUND:                -1.122
REMARK  8 active torsions:
REMARK  status: ('A' for Active; 'I' for Inactive)
REMARK    1  A    between atoms: S_2  and  N_5 
REMARK    2  A    between atoms: N_5  and  C_7 
REMARK    3  A    between atoms: C_7  and  C_8 
REMARK    4  A    between atoms: C_8  and  C_9 
REMARK    5  A    between atoms: C_9  and  C_15 
REMARK    6  A    between atoms: C_9  and  C_10 
REMARK    7  A    between atoms: C_10  and  N_11 
REMARK    8  A    between atoms: C_15  and  C_16 
REMARK       I    between atoms: C_16  and  N_18 
ROOT
HETATM    1  C   UNL     1       8.016  -4.258  23.923  1.00  0.00     0.076 C 
ENDROOT
BRANCH   1   2
HETATM    2  C   UNL     1       8.425  -4.930  25.003  1.00  0.00    -0.089 C 
BRANCH   2   3
HETATM    3  C   UNL     1       8.520  -5.259  26.064  1.00  0.00     0.158 C 
BRANCH   3   4
HETATM    4  N   UNL     1       8.218  -5.671  27.101  1.00  0.00    -0.275 N 
ATOM      5  HN  UNL     1       8.981  -6.001  27.693  1.00  0.00     0.179 HD
BRANCH   4   6
HETATM    6  S   UNL     1       6.749  -5.787  27.722  1.00  0.00     0.320 S 
HETATM    7 CL   UNL     1       6.037  -3.999  27.484  1.00  0.00     0.041 Cl
HETATM    8  O   UNL     1       5.901  -6.617  26.913  1.00  0.00    -0.188 OA
HETATM    9  O   UNL     1       6.713  -6.044  29.111  1.00  0.00    -0.188 OA
ENDBRANCH   4   6
ENDBRANCH   3   4
ENDBRANCH   2   3
ENDBRANCH   1   2
BRANCH   1  10
HETATM   10  C   UNL     1       7.068  -4.864  23.756  1.00  0.00    -0.034 C 
BRANCH  10  11
HETATM   11  C   UNL     1       5.908  -5.506  23.255  1.00  0.00     0.295 C 
HETATM   12  O   UNL     1       5.900  -6.066  22.191  1.00  0.00    -0.258 OA
HETATM   13  N   UNL     1       4.873  -5.364  24.099  1.00  0.00    -0.301 N 
HETATM   14  C   UNL     1       3.733  -5.963  23.797  1.00  0.00     0.123 A 
ATOM     15  HN  UNL     1       4.964  -4.808  24.949  1.00  0.00     0.171 HD
HETATM   16  N   UNL     1       3.539  -7.229  23.630  1.00  0.00    -0.286 N 
HETATM   17  C   UNL     1       2.568  -5.076  23.642  1.00  0.00     0.051 A 
HETATM   18  N   UNL     1       2.522  -7.834  23.340  1.00  0.00    -0.310 N 
ATOM     19  HN  UNL     1       4.365  -7.813  23.760  1.00  0.00     0.188 HD
HETATM   20  C   UNL     1       1.669  -7.067  23.247  1.00  0.00     0.107 A 
ATOM     21  HN  UNL     1       2.441  -8.842  23.204  1.00  0.00     0.186 HD
HETATM   22  C   UNL     1       1.663  -5.857  23.355  1.00  0.00     0.022 A 
ENDBRANCH  10  11
ENDBRANCH   1  10
BRANCH   1  23
HETATM   23  C   UNL     1       8.478  -3.008  23.232  1.00  0.00     0.116 C 
BRANCH  23  24
HETATM   24  N   UNL     1       9.016  -2.589  22.400  1.00  0.00    -0.374 N 
HETATM   25  C   UNL     1       9.973  -1.805  22.816  1.00  0.00     0.077 C 
HETATM   26  C   UNL     1      10.139  -1.479  23.887  1.00  0.00     0.029 C 
ATOM     27  HN  UNL     1       8.807  -2.778  21.419  1.00  0.00     0.164 HD
ENDBRANCH  23  24
ENDBRANCH   1  23
TORSDOF 8
ENDMDL
MODEL 6
REMARK VINA RESULT:    -5.996      3.134      6.411
REMARK INTER + INTRA:          -9.922
REMARK INTER:                  -8.862
REMARK INTRA:                  -1.060
REMARK UNBOUND:                -1.122
REMARK  8 active torsions:
REMARK  status: ('A' for Active; 'I' for Inactive)
REMARK    1  A    between atoms: S_2  and  N_5 
REMARK    2  A    between atoms: N_5  and  C_7 
REMARK    3  A    between atoms: C_7  and  C_8 
REMARK    4  A    between atoms: C_8  and  C_9 
REMARK    5  A    between atoms: C_9  and  C_15 
REMARK    6  A    between atoms: C_9  and  C_10 
REMARK    7  A    between atoms: C_10  and  N_11 
REMARK    8  A    between atoms: C_15  and  C_16 
REMARK       I    between atoms: C_16  and  N_18 
ROOT
HETATM    1  C   UNL     1       8.374  -0.219  20.710  1.00  0.00     0.076 C 
ENDROOT
BRANCH   1   2
HETATM    2  C   UNL     1       9.460   0.371  21.217  1.00  0.00    -0.089 C 
BRANCH   2   3
HETATM    3  C   UNL     1      10.282   0.635  21.923  1.00  0.00     0.158 C 
BRANCH   3   4
HETATM    4  N   UNL     1      10.813   0.912  22.912  1.00  0.00    -0.275 N 
ATOM      5  HN  UNL     1      10.838   1.905  23.145  1.00  0.00     0.179 HD
BRANCH   4   6
HETATM    6  S   UNL     1      11.511  -0.073  23.961  1.00  0.00     0.320 S 
HETATM    7 CL   UNL     1      11.896  -1.643  22.890  1.00  0.00     0.041 Cl
HETATM    8  O   UNL     1      12.803   0.413  24.358  1.00  0.00    -0.188 OA
HETATM    9  O   UNL     1      10.672  -0.508  25.011  1.00  0.00    -0.188 OA
ENDBRANCH   4   6
ENDBRANCH   3   4
ENDBRANCH   2   3
ENDBRANCH   1   2
BRANCH   1  10
HETATM   10  C   UNL     1       8.269  -1.002  21.528  1.00  0.00    -0.034 C 
BRANCH  10  11
HETATM   11  C   UNL     1       7.968  -2.130  22.331  1.00  0.00     0.295 C 
HETATM   12  O   UNL     1       8.559  -2.360  23.353  1.00  0.00    -0.258 OA
HETATM   13  N   UNL     1       6.996  -2.873  21.777  1.00  0.00    -0.301 N 
HETATM   14  C   UNL     1       6.561  -3.931  22.443  1.00  0.00     0.123 A 
ATOM     15  HN  UNL     1       6.604  -2.629  20.868  1.00  0.00     0.171 HD
HETATM   16  N   UNL     1       6.027  -3.946  23.619  1.00  0.00    -0.286 N 
HETATM   17  C   UNL     1       6.708  -5.223  21.752  1.00  0.00     0.051 A 
HETATM   18  N   UNL     1       5.622  -4.883  24.284  1.00  0.00    -0.310 N 
ATOM     19  HN  UNL     1       5.928  -3.031  24.059  1.00  0.00     0.188 HD
HETATM   20  C   UNL     1       5.769  -5.843  23.666  1.00  0.00     0.107 A 
ATOM     21  HN  UNL     1       5.224  -4.827  25.221  1.00  0.00     0.186 HD
HETATM   22  C   UNL     1       6.256  -6.025  22.568  1.00  0.00     0.022 A 
ENDBRANCH  10  11
ENDBRANCH   1  10
BRANCH   1  23
HETATM   23  C   UNL     1       7.442   0.104  19.578  1.00  0.00     0.116 C 
BRANCH  23  24
HETATM   24  N   UNL     1       7.348   0.338  18.532  1.00  0.00    -0.374 N 
HETATM   25  C   UNL     1       6.129   0.712  18.250  1.00  0.00     0.077 C 
HETATM   26  C   UNL     1       5.245   0.663  18.956  1.00  0.00     0.029 C 
ATOM     27  HN  UNL     1       8.107   0.276  17.853  1.00  0.00     0.164 HD
ENDBRANCH  23  24
ENDBRANCH   1  23
TORSDOF 8
ENDMDL
MODEL 7
REMARK VINA RESULT:    -5.858     25.001     26.915
REMARK INTER + INTRA:          -9.720
REMARK INTER:                  -8.573
REMARK INTRA:                  -1.147
REMARK UNBOUND:                -1.122
REMARK  8 active torsions:
REMARK  status: ('A' for Active; 'I' for Inactive)
REMARK    1  A    between atoms: S_2  and  N_5 
REMARK    2  A    between atoms: N_5  and  C_7 
REMARK    3  A    between atoms: C_7  and  C_8 
REMARK    4  A    between atoms: C_8  and  C_9 
REMARK    5  A    between atoms: C_9  and  C_15 
REMARK    6  A    between atoms: C_9  and  C_10 
REMARK    7  A    between atoms: C_10  and  N_11 
REMARK    8  A    between atoms: C_15  and  C_16 
REMARK       I    between atoms: C_16  and  N_18 
ROOT
HETATM    1  C   UNL     1       8.846  17.330   1.375  1.00  0.00     0.076 C 
ENDROOT
BRANCH   1   2
HETATM    2  C   UNL     1       8.767  15.999   1.456  1.00  0.00    -0.089 C 
BRANCH   2   3
HETATM    3  C   UNL     1       9.024  14.943   1.704  1.00  0.00     0.158 C 
BRANCH   3   4
HETATM    4  N   UNL     1       8.977  13.910   2.222  1.00  0.00    -0.275 N 
ATOM      5  HN  UNL     1       8.823  13.108   1.611  1.00  0.00     0.179 HD
BRANCH   4   6
HETATM    6  S   UNL     1       9.126  13.586   3.781  1.00  0.00     0.320 S 
HETATM    7 CL   UNL     1       7.603  14.499   4.560  1.00  0.00     0.041 Cl
HETATM    8  O   UNL     1       8.885  12.196   4.054  1.00  0.00    -0.188 OA
HETATM    9  O   UNL     1      10.273  14.140   4.392  1.00  0.00    -0.188 OA
ENDBRANCH   4   6
ENDBRANCH   3   4
ENDBRANCH   2   3
ENDBRANCH   1   2
BRANCH   1  10
HETATM   10  C   UNL     1       9.198  17.496   2.444  1.00  0.00    -0.034 C 
BRANCH  10  11
HETATM   11  C   UNL     1       9.857  17.879   3.638  1.00  0.00     0.295 C 
HETATM   12  O   UNL     1       9.513  17.468   4.715  1.00  0.00    -0.258 OA
HETATM   13  N   UNL     1      10.847  18.751   3.387  1.00  0.00    -0.301 N 
HETATM   14  C   UNL     1      11.597  19.156   4.399  1.00  0.00     0.123 A 
ATOM     15  HN  UNL     1      11.016  19.093   2.441  1.00  0.00     0.171 HD
HETATM   16  N   UNL     1      12.321  18.420   5.175  1.00  0.00    -0.286 N 
HETATM   17  C   UNL     1      11.596  20.606   4.653  1.00  0.00     0.051 A 
HETATM   18  N   UNL     1      13.017  18.731   6.125  1.00  0.00    -0.310 N 
ATOM     19  HN  UNL     1      12.307  17.423   4.959  1.00  0.00     0.188 HD
HETATM   20  C   UNL     1      12.962  19.874   6.243  1.00  0.00     0.107 A 
ATOM     21  HN  UNL     1      13.553  18.091   6.712  1.00  0.00     0.186 HD
HETATM   22  C   UNL     1      12.337  20.715   5.629  1.00  0.00     0.022 A 
ENDBRANCH  10  11
ENDBRANCH   1  10
BRANCH   1  23
HETATM   23  C   UNL     1       8.727  18.318   0.250  1.00  0.00     0.116 C 
BRANCH  23  24
HETATM   24  N   UNL     1       9.211  19.092  -0.319  1.00  0.00    -0.374 N 
HETATM   25  C   UNL     1       8.489  20.180  -0.326  1.00  0.00     0.077 C 
HETATM   26  C   UNL     1       7.435  20.274   0.075  1.00  0.00     0.029 C 
ATOM     27  HN  UNL     1      10.111  18.990  -0.790  1.00  0.00     0.164 HD
ENDBRANCH  23  24
ENDBRANCH   1  23
TORSDOF 8
ENDMDL
MODEL 8
REMARK VINA RESULT:    -5.841      1.518      5.621
REMARK INTER + INTRA:          -9.695
REMARK INTER:                  -9.109
REMARK INTRA:                  -0.586
REMARK UNBOUND:                -1.122
REMARK  8 active torsions:
REMARK  status: ('A' for Active; 'I' for Inactive)
REMARK    1  A    between atoms: S_2  and  N_5 
REMARK    2  A    between atoms: N_5  and  C_7 
REMARK    3  A    between atoms: C_7  and  C_8 
REMARK    4  A    between atoms: C_8  and  C_9 
REMARK    5  A    between atoms: C_9  and  C_15 
REMARK    6  A    between atoms: C_9  and  C_10 
REMARK    7  A    between atoms: C_10  and  N_11 
REMARK    8  A    between atoms: C_15  and  C_16 
REMARK       I    between atoms: C_16  and  N_18 
ROOT
HETATM    1  C   UNL     1       6.500  -1.133  20.859  1.00  0.00     0.076 C 
ENDROOT
BRANCH   1   2
HETATM    2  C   UNL     1       6.247  -1.894  21.927  1.00  0.00    -0.089 C 
BRANCH   2   3
HETATM    3  C   UNL     1       6.272  -2.755  22.636  1.00  0.00     0.158 C 
BRANCH   3   4
HETATM    4  N   UNL     1       6.590  -3.763  23.105  1.00  0.00    -0.275 N 
ATOM      5  HN  UNL     1       7.449  -3.753  23.653  1.00  0.00     0.179 HD
BRANCH   4   6
HETATM    6  S   UNL     1       5.842  -5.173  22.997  1.00  0.00     0.320 S 
HETATM    7 CL   UNL     1       7.050  -6.221  21.900  1.00  0.00     0.041 Cl
HETATM    8  O   UNL     1       5.826  -5.857  24.260  1.00  0.00    -0.188 OA
HETATM    9  O   UNL     1       4.611  -5.137  22.305  1.00  0.00    -0.188 OA
ENDBRANCH   4   6
ENDBRANCH   3   4
ENDBRANCH   2   3
ENDBRANCH   1   2
BRANCH   1  10
HETATM   10  C   UNL     1       7.574  -0.884  21.140  1.00  0.00    -0.034 C 
BRANCH  10  11
HETATM   11  C   UNL     1       8.790  -0.292  21.560  1.00  0.00     0.295 C 
HETATM   12  O   UNL     1       9.281   0.637  20.975  1.00  0.00    -0.258 OA
HETATM   13  N   UNL     1       9.291  -0.923  22.635  1.00  0.00    -0.301 N 
HETATM   14  C   UNL     1      10.397  -0.445  23.183  1.00  0.00     0.123 A 
ATOM     15  HN  UNL     1       8.832  -1.749  23.018  1.00  0.00     0.171 HD
HETATM   16  N   UNL     1      10.572   0.733  23.682  1.00  0.00    -0.286 N 
HETATM   17  C   UNL     1      11.540  -1.372  23.223  1.00  0.00     0.051 A 
HETATM   18  N   UNL     1      11.564   1.232  24.184  1.00  0.00    -0.310 N 
ATOM     19  HN  UNL     1       9.754   1.341  23.650  1.00  0.00     0.188 HD
HETATM   20  C   UNL     1      12.398   0.439  24.180  1.00  0.00     0.107 A 
ATOM     21  HN  UNL     1      11.641   2.182  24.546  1.00  0.00     0.186 HD
HETATM   22  C   UNL     1      12.423  -0.697  23.751  1.00  0.00     0.022 A 
ENDBRANCH  10  11
ENDBRANCH   1  10
BRANCH   1  23
HETATM   23  C   UNL     1       5.755  -0.829  19.592  1.00  0.00     0.116 C 
BRANCH  23  24
HETATM   24  N   UNL     1       5.746  -0.895  18.518  1.00  0.00    -0.374 N 
HETATM   25  C   UNL     1       5.659   0.292  17.983  1.00  0.00     0.077 C 
HETATM   26  C   UNL     1       5.468   1.257  18.545  1.00  0.00     0.029 C 
ATOM     27  HN  UNL     1       5.798  -1.767  17.990  1.00  0.00     0.164 HD
ENDBRANCH  23  24
ENDBRANCH   1  23
TORSDOF 8
ENDMDL
MODEL 9
REMARK VINA RESULT:    -5.744     18.453     22.050
REMARK INTER + INTRA:          -9.553
REMARK INTER:                  -8.738
REMARK INTRA:                  -0.815
REMARK UNBOUND:                -1.122
REMARK  8 active torsions:
REMARK  status: ('A' for Active; 'I' for Inactive)
REMARK    1  A    between atoms: S_2  and  N_5 
REMARK    2  A    between atoms: N_5  and  C_7 
REMARK    3  A    between atoms: C_7  and  C_8 
REMARK    4  A    between atoms: C_8  and  C_9 
REMARK    5  A    between atoms: C_9  and  C_15 
REMARK    6  A    between atoms: C_9  and  C_10 
REMARK    7  A    between atoms: C_10  and  N_11 
REMARK    8  A    between atoms: C_15  and  C_16 
REMARK       I    between atoms: C_16  and  N_18 
ROOT
HETATM    1  C   UNL     1       5.302  10.198   3.072  1.00  0.00     0.076 C 
ENDROOT
BRANCH   1   2
HETATM    2  C   UNL     1       6.510  10.728   3.283  1.00  0.00    -0.089 C 
BRANCH   2   3
HETATM    3  C   UNL     1       7.449  11.306   3.118  1.00  0.00     0.158 C 
BRANCH   3   4
HETATM    4  N   UNL     1       8.447  11.841   3.353  1.00  0.00    -0.275 N 
ATOM      5  HN  UNL     1       9.261  11.239   3.474  1.00  0.00     0.179 HD
BRANCH   4   6
HETATM    6  S   UNL     1       8.706  13.411   3.511  1.00  0.00     0.320 S 
HETATM    7 CL   UNL     1       7.834  14.153   1.945  1.00  0.00     0.041 Cl
HETATM    8  O   UNL     1       7.971  13.956   4.618  1.00  0.00    -0.188 OA
HETATM    9  O   UNL     1      10.063  13.797   3.427  1.00  0.00    -0.188 OA
ENDBRANCH   4   6
ENDBRANCH   3   4
ENDBRANCH   2   3
ENDBRANCH   1   2
BRANCH   1  10
HETATM   10  C   UNL     1       5.399   9.368   3.843  1.00  0.00    -0.034 C 
BRANCH  10  11
HETATM   11  C   UNL     1       5.218   8.276   4.729  1.00  0.00     0.295 C 
HETATM   12  O   UNL     1       6.109   7.870   5.427  1.00  0.00    -0.258 OA
HETATM   13  N   UNL     1       3.973   7.781   4.640  1.00  0.00    -0.301 N 
HETATM   14  C   UNL     1       3.632   6.794   5.453  1.00  0.00     0.123 A 
ATOM     15  HN  UNL     1       3.308   8.154   3.963  1.00  0.00     0.171 HD
HETATM   16  N   UNL     1       3.628   6.816   6.745  1.00  0.00    -0.286 N 
HETATM   17  C   UNL     1       3.213   5.544   4.798  1.00  0.00     0.051 A 
HETATM   18  N   UNL     1       3.340   5.941   7.542  1.00  0.00    -0.310 N 
ATOM     19  HN  UNL     1       3.910   7.703   7.162  1.00  0.00     0.188 HD
HETATM   20  C   UNL     1       3.019   5.011   6.945  1.00  0.00     0.107 A 
ATOM     21  HN  UNL     1       3.376   6.019   8.558  1.00  0.00     0.186 HD
HETATM   22  C   UNL     1       2.972   4.802   5.749  1.00  0.00     0.022 A 
ENDBRANCH  10  11
ENDBRANCH   1  10
BRANCH   1  23
HETATM   23  C   UNL     1       4.104  10.613   2.267  1.00  0.00     0.116 C 
BRANCH  23  24
HETATM   24  N   UNL     1       3.363  10.320   1.546  1.00  0.00    -0.374 N 
HETATM   25  C   UNL     1       2.394  11.193   1.497  1.00  0.00     0.077 C 
HETATM   26  C   UNL     1       2.256  12.064   2.208  1.00  0.00     0.029 C 
ATOM     27  HN  UNL     1       3.410   9.474   0.976  1.00  0.00     0.164 HD
ENDBRANCH  23  24
ENDBRANCH   1  23
TORSDOF 8
ENDMDL
