REMARK  6 active torsions:
REMARK  status: ('A' for Active; 'I' for Inactive)
REMARK    1  A    between atoms: S_2  and  N_5 
REMARK    2  A    between atoms: C_7  and  C_8 
REMARK    3  A    between atoms: C_8  and  C_9 
REMARK    4  A    between atoms: C_9  and  C_15 
REMARK    5  A    between atoms: C_15  and  C_16 
REMARK       I    between atoms: C_16  and  N_18 
REMARK    6  A    between atoms: N_18  and  C_20 
ROOT
HETATM    1  C   UNL     1      10.321  -1.133  23.240  1.00  0.00     0.075 C 
HETATM    2  C   UNL     1      11.005   0.001  24.285  1.00  0.00    -0.000 C 
HETATM    3  C   UNL     1      12.078   0.321  24.265  1.00  0.00    -0.025 C 
HETATM    4  C   UNL     1      13.143  -0.051  23.597  1.00  0.00     0.054 C 
HETATM    5  C   UNL     1      12.717  -1.307  22.685  1.00  0.00    -0.025 C 
HETATM    6  C   UNL     1      11.866  -1.737  22.553  1.00  0.00    -0.000 C 
ENDROOT
BRANCH   1   7
HETATM    7  C   UNL     1       9.412  -1.974  23.490  1.00  0.00     0.021 C 
BRANCH   7   8
HETATM    8  C   UNL     1       8.963  -2.909  24.142  1.00  0.00     0.098 C 
HETATM    9  N   UNL     1       8.087  -3.569  24.667  1.00  0.00    -0.296 N 
ATOM     10  HN  UNL     1       7.206  -3.670  24.163  1.00  0.00     0.177 HD
BRANCH   9  11
HETATM   11  S   UNL     1       8.214  -4.299  26.104  1.00  0.00     0.226 S 
HETATM   12  C   UNL     1       6.588  -4.859  26.480  1.00  0.00     0.186 C 
HETATM   13  O   UNL     1       9.059  -5.460  26.008  1.00  0.00    -0.206 OA
HETATM   14  O   UNL     1       8.614  -3.444  27.164  1.00  0.00    -0.206 OA
ENDBRANCH   9  11
ENDBRANCH   7   8
ENDBRANCH   1   7
BRANCH   1  15
HETATM   15  C   UNL     1       9.744  -0.565  22.323  1.00  0.00    -0.061 C 
BRANCH  15  16
HETATM   16  C   UNL     1       9.062   0.030  21.365  1.00  0.00     0.290 C 
HETATM   17  O   UNL     1       9.559   0.965  20.932  1.00  0.00    -0.259 OA
HETATM   18  N   UNL     1       7.919  -0.582  21.081  1.00  0.00    -0.315 N 
ATOM     19  HN  UNL     1       7.638  -1.411  21.605  1.00  0.00     0.170 HD
BRANCH  18  20
HETATM   20  C   UNL     1       7.185  -0.137  20.166  1.00  0.00     0.057 A 
HETATM   21  C   UNL     1       7.225  -0.051  18.843  1.00  0.00     0.117 A 
HETATM   22  N   UNL     1       6.777   0.260  17.772  1.00  0.00    -0.373 N 
HETATM   23  C   UNL     1       5.625   0.898  18.215  1.00  0.00     0.088 A 
ATOM     24  HN  UNL     1       7.133   0.104  16.829  1.00  0.00     0.164 HD
HETATM   25  C   UNL     1       5.228   1.023  19.429  1.00  0.00     0.026 A 
HETATM   26  C   UNL     1       5.833   0.569  20.524  1.00  0.00    -0.033 A 
HETATM   27  C   UNL     1       5.362   0.720  21.966  1.00  0.00     0.050 C 
ENDBRANCH  18  20
ENDBRANCH  15  16
ENDBRANCH   1  15
TORSDOF 6
