
 OpenBabel07202414173D

 36 39  0  0  1  0  0  0  0  0999 V2000
    1.3385    1.6514   -0.0530 Cl  0  0  0  0  0  0  0  0  0  0  0  0
   -0.1149    0.7208    0.0063 C   0  0  0  0  0  0  0  0  0  0  0  0
   -1.3304    1.4083   -0.0208 C   0  0  0  0  0  0  0  0  0  0  0  0
   -2.5396    0.7086    0.0194 C   0  0  0  0  0  0  0  0  0  0  0  0
   -2.5512   -0.6928    0.0909 C   0  0  0  0  0  0  0  0  0  0  0  0
   -3.8377   -1.4765    0.0802 C   0  0  3  0  0  0  0  0  0  0  0  0
   -4.5863   -1.2443   -1.1215 N   0  0  0  0  0  0  0  0  0  0  0  0
   -5.8770   -0.8417   -0.8589 C   0  0  0  0  0  0  0  0  0  0  0  0
   -6.6514   -0.5126   -1.7369 O   0  0  0  0  0  0  0  0  0  0  0  0
   -6.0547   -0.8252    0.5021 N   0  0  0  0  0  0  0  0  0  0  0  0
   -7.2692   -0.5046    1.1417 C   0  0  0  0  0  0  0  0  0  0  0  0
   -7.3269    0.5731    2.0249 C   0  0  0  0  0  0  0  0  0  0  0  0
   -8.4538    0.9913    2.6445 N   0  0  0  0  0  0  0  0  0  0  0  0
   -9.5742    0.2750    2.4008 C   0  0  0  0  0  0  0  0  0  0  0  0
   -9.6343   -0.8545    1.5822 C   0  0  0  0  0  0  0  0  0  0  0  0
  -10.8255   -1.5891    1.4272 C   0  0  0  0  0  0  0  0  0  0  0  0
  -10.8542   -2.7446    0.6486 C   0  0  0  0  0  0  0  0  0  0  0  0
   -9.6974   -3.1761    0.0165 C   0  0  0  0  0  0  0  0  0  0  0  0
   -8.5129   -2.4480    0.1528 C   0  0  0  0  0  0  0  0  0  0  0  0
   -8.4503   -1.2634    0.9277 C   0  0  0  0  0  0  0  0  0  0  0  0
   -4.8672   -1.0866    1.1485 C   0  0  0  0  0  0  0  0  0  0  0  0
   -4.6596   -1.0797    2.3542 O   0  0  0  0  0  0  0  0  0  0  0  0
   -1.3227   -1.3747    0.1136 C   0  0  0  0  0  0  0  0  0  0  0  0
   -0.1107   -0.6748    0.0700 C   0  0  0  0  0  0  0  0  0  0  0  0
    1.3485   -1.6001    0.0771 Cl  0  0  0  0  0  0  0  0  0  0  0  0
   -1.3448    2.4946   -0.0815 H   0  0  0  0  0  0  0  0  0  0  0  0
   -3.4706    1.2730   -0.0204 H   0  0  0  0  0  0  0  0  0  0  0  0
   -3.6610   -2.5559    0.1513 H   0  0  0  0  0  0  0  0  0  0  0  0
   -4.2224   -1.2745   -2.0668 H   0  0  0  0  0  0  0  0  0  0  0  0
   -6.4515    1.1805    2.2397 H   0  0  0  0  0  0  0  0  0  0  0  0
  -10.4585    0.6394    2.9201 H   0  0  0  0  0  0  0  0  0  0  0  0
  -11.7384   -1.2731    1.9289 H   0  0  0  0  0  0  0  0  0  0  0  0
  -11.7760   -3.3117    0.5443 H   0  0  0  0  0  0  0  0  0  0  0  0
   -9.7072   -4.0841   -0.5832 H   0  0  0  0  0  0  0  0  0  0  0  0
   -7.6291   -2.8367   -0.3464 H   0  0  0  0  0  0  0  0  0  0  0  0
   -1.3034   -2.4628    0.1559 H   0  0  0  0  0  0  0  0  0  0  0  0
  1  2  1  0  0  0  0
  2  3  1  0  0  0  0
  2 24  2  0  0  0  0
  3  4  2  0  0  0  0
  3 26  1  0  0  0  0
  4  5  1  0  0  0  0
  4 27  1  0  0  0  0
  5  6  1  0  0  0  0
  5 23  2  0  0  0  0
  6  7  1  0  0  0  0
  6 21  1  0  0  0  0
  6 28  1  0  0  0  0
  7  8  1  0  0  0  0
  7 29  1  0  0  0  0
  8  9  2  0  0  0  0
  8 10  1  0  0  0  0
 10 11  1  0  0  0  0
 10 21  1  0  0  0  0
 11 12  1  0  0  0  0
 11 20  2  0  0  0  0
 12 13  2  0  0  0  0
 12 30  1  0  0  0  0
 13 14  1  0  0  0  0
 14 15  2  0  0  0  0
 14 31  1  0  0  0  0
 15 16  1  0  0  0  0
 15 20  1  0  0  0  0
 16 17  2  0  0  0  0
 16 32  1  0  0  0  0
 17 18  1  0  0  0  0
 17 33  1  0  0  0  0
 18 19  2  0  0  0  0
 18 34  1  0  0  0  0
 19 20  1  0  0  0  0
 19 35  1  0  0  0  0
 21 22  2  0  0  0  0
 23 24  1  0  0  0  0
 23 36  1  0  0  0  0
 24 25  1  0  0  0  0
M  END
$$$$
