stable:False satoms:6 tatoms:24 sratio:0.25
  -OEChem-07092417473D

 24 24  0     1  0  0  0  0  0999 V2000
    6.7078   -4.8875   26.4333 C   0  0  0  0  0  0  0  0  0  0  0  0
    8.1618   -4.3310   26.1248 S   0  0  0  0  0  0  0  0  0  0  0  0
    9.0719   -5.4607   26.0302 O   0  0  0  0  0  0  0  0  0  0  0  0
    8.5941   -3.4303   27.1347 O   0  0  0  0  0  0  0  0  0  0  0  0
    8.1108   -3.5980   24.6680 N   0  0  0  0  0  0  0  0  0  0  0  0
    8.9355   -2.8603   24.1474 C   0  0  0  0  0  0  0  0  0  0  0  0
    9.4200   -1.9775   23.5472 C   0  0  0  0  0  0  0  0  0  0  0  0
   10.3059   -1.0650   23.2637 C   0  0  2  0  0  0  0  0  0  0  0  0
   11.0451   -0.1140   24.2792 C   0  0  0  0  0  0  0  0  0  0  0  0
   12.1581    0.2157   24.2679 C   0  0  0  0  0  0  0  0  0  0  0  0
   13.0760   -0.2301   23.5153 C   0  0  0  0  0  0  0  0  0  0  0  0
   12.6927   -1.2459   22.6156 C   0  0  0  0  0  0  0  0  0  0  0  0
   11.8255   -1.6978   22.3873 C   0  0  0  0  0  0  0  0  0  0  0  0
    9.6603   -0.5638   22.3904 C   0  0  0  0  0  0  0  0  0  0  0  0
    9.0283    0.0838   21.4000 C   0  0  0  0  0  0  0  0  0  0  0  0
    9.5333    1.0282   20.9844 O   0  0  0  0  0  0  0  0  0  0  0  0
    7.8809   -0.5430   21.1480 N   0  0  0  0  0  0  0  0  0  0  0  0
    7.1968   -0.0775   20.2427 C   0  0  0  0  0  0  0  0  0  0  0  0
    7.2101    0.0337   18.9327 C   0  0  0  0  0  0  0  0  0  0  0  0
    6.7587    0.3066   17.8361 N   0  0  0  0  0  0  0  0  0  0  0  0
    5.7077    0.8471   18.2866 C   0  0  0  0  0  0  0  0  0  0  0  0
    5.2547    1.0060   19.4453 C   0  0  0  0  0  0  0  0  0  0  0  0
    5.7840    0.5939   20.6114 C   0  0  0  0  0  0  0  0  0  0  0  0
    5.4642    0.6773   21.6046 C   0  0  0  0  0  0  0  0  0  0  0  0
 20 21  2  0  0  0  0
 19 20  1  0  0  0  0
 21 22  1  0  0  0  0
 18 19  2  0  0  0  0
 22 23  2  0  0  0  0
 18 23  1  0  0  0  0
 17 18  1  0  0  0  0
 23 24  1  0  0  0  0
 15 16  2  0  0  0  0
 15 17  1  0  0  0  0
 14 15  1  0  0  0  0
 12 13  2  0  0  0  0
  8 14  1  0  0  0  0
 11 12  1  0  0  0  0
  7  8  1  0  0  0  0
  8  9  1  0  0  0  0
 10 11  2  0  0  0  0
  6  7  3  0  0  0  0
  5  6  1  0  0  0  0
  9 10  1  0  0  0  0
  2  5  1  0  0  0  0
  2  3  2  0  0  0  0
  1  2  1  0  0  0  0
  2  4  2  0  0  0  0
M  END
> <Shapegauss>
-288.887756

$$$$
