stable:False satoms:7 tatoms:24 sratio:0.2916666666666667
  -OEChem-08062412563D

 43 43  0     0  0  0  0  0  0999 V2000
   -6.6654   -5.3601  -26.0940 C   0  0  0  0  0  0  0  0  0  0  0  0
   -8.2439   -4.7334  -25.9220 S   0  0  0  0  0  0  0  0  0  0  0  0
   -9.1615   -5.8308  -25.8325 O   0  0  0  0  0  0  0  0  0  0  0  0
   -8.5341   -3.8757  -27.0483 O   0  0  0  0  0  0  0  0  0  0  0  0
   -8.2177   -3.9372  -24.5292 N   0  0  0  0  0  0  0  0  0  0  0  0
   -9.0118   -3.1982  -24.1020 C   0  0  0  0  0  0  0  0  0  0  0  0
   -9.4846   -2.2529  -23.5815 C   0  0  0  0  0  0  0  0  0  0  0  0
  -10.3776   -1.4845  -23.1117 C   0  0  0  0  0  0  0  0  0  0  0  0
  -11.0998    0.0590  -24.9705 C   0  0  0  0  0  0  0  0  0  0  0  0
  -12.0023    0.1522  -24.7360 C   0  0  0  0  0  0  0  0  0  0  0  0
  -13.0491   -0.1610  -24.0006 C   0  0  0  0  0  0  0  0  0  0  0  0
  -12.7831   -1.1680  -23.0850 C   0  0  0  0  0  0  0  0  0  0  0  0
  -11.8610   -1.6449  -22.8520 C   0  0  0  0  0  0  0  0  0  0  0  0
   -9.8009   -0.6102  -22.5336 C   0  0  0  0  0  0  0  0  0  0  0  0
   -9.1626    0.0379  -21.6055 C   0  0  0  0  0  0  0  0  0  0  0  0
   -9.6582    1.0110  -21.2790 O   0  0  0  0  0  0  0  0  0  0  0  0
   -8.0620   -0.6023  -21.2128 N   0  0  0  0  0  0  0  0  0  0  0  0
   -7.3556   -0.0956  -20.2719 C   0  0  0  0  0  0  0  0  0  0  0  0
   -7.4951    0.0797  -18.9766 C   0  0  0  0  0  0  0  0  0  0  0  0
   -7.1428    0.4055  -17.8754 N   0  0  0  0  0  0  0  0  0  0  0  0
   -5.9569    0.9405  -18.3261 C   0  0  0  0  0  0  0  0  0  0  0  0
   -5.5029    0.9354  -19.4362 C   0  0  0  0  0  0  0  0  0  0  0  0
   -5.9495    0.4684  -20.5944 C   0  0  0  0  0  0  0  0  0  0  0  0
   -5.2696    0.4631  -22.0397 C   0  0  0  0  0  0  0  0  0  0  0  0
   -6.5958   -5.9268  -27.0342 H   0  0  0  0  0  0  0  0  0  0  0  0
   -5.9420   -4.5317  -26.1109 H   0  0  0  0  0  0  0  0  0  0  0  0
   -6.4411   -6.0257  -25.2474 H   0  0  0  0  0  0  0  0  0  0  0  0
   -7.3710   -3.4060  -24.5594 H   0  0  0  0  0  0  0  0  0  0  0  0
  -10.4725   -0.6395  -24.4365 H   0  0  0  0  0  0  0  0  0  0  0  0
  -10.6869    0.6499  -25.7747 H   0  0  0  0  0  0  0  0  0  0  0  0
  -12.3756    0.9005  -25.4196 H   0  0  0  0  0  0  0  0  0  0  0  0
  -13.8581   -0.4964  -24.6662 H   0  0  0  0  0  0  0  0  0  0  0  0
  -13.3737    0.7356  -23.4520 H   0  0  0  0  0  0  0  0  0  0  0  0
  -13.6377   -1.5198  -22.5261 H   0  0  0  0  0  0  0  0  0  0  0  0
  -12.0383   -2.5158  -22.2385 H   0  0  0  0  0  0  0  0  0  0  0  0
   -9.8309    0.1552  -23.2950 H   0  0  0  0  0  0  0  0  0  0  0  0
   -7.7923   -1.4629  -21.6447 H   0  0  0  0  0  0  0  0  0  0  0  0
   -8.5028   -0.2680  -18.8035 H   0  0  0  0  0  0  0  0  0  0  0  0
   -5.3530    1.4320  -17.5777 H   0  0  0  0  0  0  0  0  0  0  0  0
   -4.5337    1.4067  -19.5070 H   0  0  0  0  0  0  0  0  0  0  0  0
   -4.6900   -0.4628  -22.1694 H   0  0  0  0  0  0  0  0  0  0  0  0
   -6.0506    0.5179  -22.8124 H   0  0  0  0  0  0  0  0  0  0  0  0
   -4.6000    1.3308  -22.1329 H   0  0  0  0  0  0  0  0  0  0  0  0
 20 21  2  0  0  0  0
 19 20  1  0  0  0  0
 21 22  1  0  0  0  0
 18 19  2  0  0  0  0
 22 23  2  0  0  0  0
 18 23  1  0  0  0  0
 17 18  1  0  0  0  0
 23 24  1  0  0  0  0
 15 16  2  0  0  0  0
 15 17  1  0  0  0  0
 14 15  1  0  0  0  0
  8 14  2  3  0  0  0
 12 13  2  0  0  0  0
  8 13  1  0  0  0  0
 11 12  1  0  0  0  0
  7  8  1  0  0  0  0
  6  7  3  0  0  0  0
 10 11  1  0  0  0  0
  5  6  1  0  0  0  0
  9 10  2  0  0  0  0
  2  5  1  0  0  0  0
  2  3  2  0  0  0  0
  1  2  1  0  0  0  0
  2  4  2  0  0  0  0
  1 25  1  0  0  0  0
  1 26  1  0  0  0  0
  1 27  1  0  0  0  0
  5 28  1  0  0  0  0
  9 29  1  0  0  0  0
  9 30  1  0  0  0  0
 10 31  1  0  0  0  0
 11 32  1  0  0  0  0
 11 33  1  0  0  0  0
 12 34  1  0  0  0  0
 13 35  1  0  0  0  0
 14 36  1  0  0  0  0
 17 37  1  0  0  0  0
 19 38  1  0  0  0  0
 21 39  1  0  0  0  0
 22 40  1  0  0  0  0
 24 41  1  0  0  0  0
 24 42  1  0  0  0  0
 24 43  1  0  0  0  0
M  END
> <Chemgauss4>
-13.706440

$$$$
