stable:False satoms:17 tatoms:24 sratio:0.7083333333333334
  -OEChem-07092417353D

 24 24  0     1  0  0  0  0  0999 V2000
    7.2921   -3.4178   25.7038 H   0  0  0  0  0  0  0  0  0  0  0  0
    8.1066   -3.4622   24.9917 C   0  0  0  0  0  0  0  0  0  0  0  0
    8.7769   -4.2506   25.3210 H   0  0  0  0  0  0  0  0  0  0  0  0
    9.4899   -1.9193   25.9263 O   0  0  0  0  0  0  0  0  0  0  0  0
    7.7196   -3.6733   24.0155 H   0  0  0  0  0  0  0  0  0  0  0  0
    8.8158   -2.1202   24.9620 C   0  0  0  0  0  0  0  0  0  0  0  0
   10.4542   -2.7700   23.5100 H   0  0  0  0  0  0  0  0  0  0  0  0
   10.4435   -1.0810   21.3313 O   0  0  0  0  0  0  0  0  0  0  0  0
   11.3659   -0.5637   23.7739 C   0  0  0  0  0  0  0  0  0  0  0  0
   11.0622   -0.1217   24.6912 H   0  0  0  0  0  0  0  0  0  0  0  0
   12.2783   -0.1866   23.3891 H   0  0  0  0  0  0  0  0  0  0  0  0
   10.7985   -1.7349   23.3784 C   0  5  3  0  0  0  0  0  0  0  0  0
   10.3467   -0.8802   22.4637 C   0  0  0  0  0  0  0  0  0  0  0  0
    8.5113   -1.0913   24.0928 O   0  0  0  0  0  0  0  0  0  0  0  0
    8.4063   -0.6768   23.1933 H   0  0  0  0  0  0  0  0  0  0  0  0
    9.4842   -0.0065   21.9799 O   0  0  0  0  0  0  0  0  0  0  0  0
    7.7537   -0.6439   20.3856 C   0  0  0  0  0  0  0  0  0  0  0  0
    8.7014   -0.2744   19.9608 H   0  0  0  0  0  0  0  0  0  0  0  0
    7.7689   -1.7262   20.2735 H   0  0  0  0  0  0  0  0  0  0  0  0
    6.9570    0.8658   17.6939 Cl  0  0  0  0  0  0  0  0  0  0  0  0
    6.7756    0.1160   20.1744 C   0  0  2  0  0  0  0  0  0  0  0  0
    5.3584    1.4215   19.2722 H   0  0  0  0  0  0  0  0  0  0  0  0
    6.2101    0.8561   19.1148 C   0  5  3  0  0  0  0  0  0  0  0  0
    6.7069    0.0511   21.6978 S   0  0  0  0  0  0  0  0  0  0  0  0
 20 23  1  0  0  0  0
 22 23  1  0  0  0  0
 21 23  1  0  0  0  0
 17 18  1  0  0  0  0
 17 21  1  0  0  0  0
 21 24  1  0  0  0  0
 17 19  1  0  0  0  0
 17 24  1  0  0  0  0
  8 16  1  0  0  0  0
  8 13  1  0  0  0  0
 13 16  1  0  0  0  0
 12 13  1  0  0  0  0
  9 13  1  0  0  0  0
 14 15  1  0  0  0  0
  7 12  1  0  0  0  0
  9 12  1  0  0  0  0
  9 11  1  0  0  0  0
  9 10  1  0  0  0  0
  2  5  1  0  0  0  0
  6 14  1  0  0  0  0
  2  6  1  0  0  0  0
  4  6  2  0  0  0  0
  2  3  1  0  0  0  0
  1  2  1  0  0  0  0
M  CHG  2  12  -1  23  -1
M  END
> <Shapegauss>
-156.745499

$$$$
