REMARK  2 active torsions:
REMARK  status: ('A' for Active; 'I' for Inactive)
REMARK    1  A    between atoms: C_3  and  O_4 
REMARK    2  A    between atoms: C_13  and  C_14 
ROOT
HETATM    1  O   UNL     2      10.444  -1.081  21.331  1.00  0.00    -0.195 OA
HETATM    2  C   UNL     2      11.366  -0.564  23.774  1.00  0.00     0.080 A 
HETATM    3  C   UNL     2      10.799  -1.735  23.378  1.00  0.00     0.080 A 
HETATM    4  C   UNL     2      10.347  -0.880  22.464  1.00  0.00     0.230 A 
HETATM    5  O   UNL     2       9.484  -0.006  21.980  1.00  0.00    -0.195 OA
ENDROOT
TORSDOF 2
