stable:False satoms:21 tatoms:24 sratio:0.875
  -OEChem-07092417293D

 24 26  0     0  0  0  0  0  0999 V2000
   12.8875    1.8817   22.8493 Br  0  0  0  0  0  0  0  0  0  0  0  0
    6.0552   -1.1116   22.8955 C   0  0  0  0  0  0  0  0  0  0  0  0
    9.8935    1.4064   22.7976 H   0  0  0  0  0  0  0  0  0  0  0  0
    7.9460   -3.5535   23.0023 S   0  0  0  0  0  0  0  0  0  0  0  0
    9.2025   -2.3259   20.8055 C   0  0  0  0  0  0  0  0  0  0  0  0
    7.0080   -2.8062   24.4047 C   0  0  0  0  0  0  0  0  0  0  0  0
   12.2660   -0.3868   21.1813 C   0  0  0  0  0  0  0  0  0  0  0  0
   11.7527    0.5899   22.0549 C   0  0  0  0  0  0  0  0  0  0  0  0
    7.7458   -2.2771   25.0235 H   0  0  0  0  0  0  0  0  0  0  0  0
   10.4249    0.5946   22.3186 C   0  0  0  0  0  0  0  0  0  0  0  0
   10.2190   -1.3950   21.0283 C   0  0  0  0  0  0  0  0  0  0  0  0
    6.0004   -1.7140   21.9851 H   0  0  0  0  0  0  0  0  0  0  0  0
    7.3376   -0.3964   22.9246 N   0  0  0  0  0  0  0  0  0  0  0  0
   11.4956   -1.2807   20.5824 N   0  0  0  0  0  0  0  0  0  0  0  0
    9.6888   -0.4893   21.9477 N   0  0  0  0  0  0  0  0  0  0  0  0
    7.3869    0.2795   23.6763 H   0  0  0  0  0  0  0  0  0  0  0  0
    8.4556   -2.2687   21.9725 C   0  0  0  0  0  0  0  0  0  0  0  0
    5.2436   -0.3587   22.8675 H   0  0  0  0  0  0  0  0  0  0  0  0
    8.9771   -2.9020   19.9240 H   0  0  0  0  0  0  0  0  0  0  0  0
    5.9229   -1.9662   24.0063 N   0  0  0  0  0  0  0  0  0  0  0  0
    6.6246   -3.6766   24.9625 H   0  0  0  0  0  0  0  0  0  0  0  0
   13.3293   -0.4230   20.9612 H   0  0  0  0  0  0  0  0  0  0  0  0
    5.2904   -1.7688   24.7582 H   0  0  0  0  0  0  0  0  0  0  0  0
    8.4301   -0.9418   22.3670 C   0  0  0  0  0  0  0  0  0  0  0  0
  5 19  1  0  0  0  0
 11 14  1  0  0  0  0
  7 14  2  0  0  0  0
  5 11  2  0  0  0  0
  5 17  1  0  0  0  0
  7 22  1  0  0  0  0
 11 15  1  0  0  0  0
  7  8  1  0  0  0  0
 10 15  1  0  0  0  0
 15 24  1  0  0  0  0
 17 24  2  0  0  0  0
  4 17  1  0  0  0  0
  2 12  1  0  0  0  0
  8 10  2  0  0  0  0
  1  8  1  0  0  0  0
  3 10  1  0  0  0  0
 13 24  1  0  0  0  0
  2 18  1  0  0  0  0
  2 13  1  0  0  0  0
  2 20  1  0  0  0  0
 13 16  1  0  0  0  0
  4  6  1  0  0  0  0
  6 20  1  0  0  0  0
 20 23  1  0  0  0  0
  6 21  1  0  0  0  0
  6  9  1  0  0  0  0
M  END
> <Shapegauss>
-102.144226

$$$$
