stable:False satoms:21 tatoms:24 sratio:0.875
  -OEChem-08052415563D

 25 27  0     0  0  0  0  0  0999 V2000
   -6.9706   -3.2725  -26.5507 Br  0  0  0  0  0  0  0  0  0  0  0  0
  -11.8780    2.0172  -24.6589 C   0  0  0  0  0  0  0  0  0  0  0  0
   -9.1396   -1.1540  -26.5369 H   0  0  0  0  0  0  0  0  0  0  0  0
  -10.5619    1.2203  -21.9789 S   0  0  0  0  0  0  0  0  0  0  0  0
  -11.1805   -1.4055  -22.7756 C   0  0  0  0  0  0  0  0  0  0  0  0
  -10.2037    2.7174  -22.9965 C   0  0  0  0  0  0  0  0  0  0  0  0
   -8.6766   -3.6061  -24.2501 C   0  0  0  0  0  0  0  0  0  0  0  0
   -8.3836   -2.8138  -25.3757 C   0  0  0  0  0  0  0  0  0  0  0  0
   -9.2248    2.5462  -23.4650 H   0  0  0  0  0  0  0  0  0  0  0  0
   -9.1345   -1.7120  -25.6098 C   0  0  0  0  0  0  0  0  0  0  0  0
  -10.2692   -2.1183  -23.5572 C   0  0  0  0  0  0  0  0  0  0  0  0
  -12.5837    1.5251  -23.9847 H   0  0  0  0  0  0  0  0  0  0  0  0
  -10.9243    1.0234  -25.1685 N   0  0  0  0  0  0  0  0  0  0  0  0
   -9.6786   -3.3334  -23.4298 N   0  0  0  0  0  0  0  0  0  0  0  0
   -9.9584   -1.2695  -24.6201 N   0  0  0  0  0  0  0  0  0  0  0  0
  -10.3318    1.3951  -25.9001 H   0  0  0  0  0  0  0  0  0  0  0  0
  -10.8805   -0.0822  -23.0620 C   0  0  0  0  0  0  0  0  0  0  0  0
  -12.4418    2.4244  -25.5207 H   0  0  0  0  0  0  0  0  0  0  0  0
  -11.9852   -1.7641  -22.1562 H   0  0  0  0  0  0  0  0  0  0  0  0
  -11.2191    3.0388  -23.9491 N   0  3  0  0  0  0  0  0  0  0  0  0
  -10.1137    3.5282  -22.2547 H   0  0  0  0  0  0  0  0  0  0  0  0
   -8.0828   -4.4889  -24.0298 H   0  0  0  0  0  0  0  0  0  0  0  0
  -10.7948    3.6345  -24.6310 H   0  0  0  0  0  0  0  0  0  0  0  0
  -10.5682   -0.0250  -24.4096 C   0  0  0  0  0  0  0  0  0  0  0  0
  -11.9251    3.5469  -23.4557 H   0  0  0  0  0  0  0  0  0  0  0  0
  5 19  1  0  0  0  0
 11 14  1  0  0  0  0
  7 14  2  0  0  0  0
  5 11  2  0  0  0  0
  5 17  1  0  0  0  0
  7 22  1  0  0  0  0
 11 15  1  0  0  0  0
  7  8  1  0  0  0  0
 10 15  1  0  0  0  0
 15 24  1  0  0  0  0
 17 24  2  0  0  0  0
  4 17  1  0  0  0  0
  2 12  1  0  0  0  0
  8 10  2  0  0  0  0
  1  8  1  0  0  0  0
  3 10  1  0  0  0  0
 13 24  1  0  0  0  0
  2 18  1  0  0  0  0
  2 13  1  0  0  0  0
  2 20  1  0  0  0  0
 13 16  1  0  0  0  0
  4  6  1  0  0  0  0
  6 20  1  0  0  0  0
 20 23  1  0  0  0  0
  6 21  1  0  0  0  0
  6  9  1  0  0  0  0
 20 25  1  0  0  0  0
M  CHG  1  20   1
M  END
> <Chemgauss4>
-6.653918

$$$$
