REMARK  4 active torsions:
REMARK  status: ('A' for Active; 'I' for Inactive)
REMARK    1  A    between atoms: N_1  and  C_9 
REMARK    2  A    between atoms: C_5  and  N_7 
REMARK    3  A    between atoms: C_5  and  C_9 
REMARK    4  A    between atoms: C_6  and  C_12 
ROOT
HETATM    1  C   UNL     1      10.358  -0.900  22.633  1.00  0.00     0.154 C 
ENDROOT
BRANCH   1   2
HETATM    2  N   UNL     1       8.982  -0.722  22.297  1.00  0.00    -0.395 N 
HETATM    3  H   UNL     1       8.571  -1.347  21.597  1.00  0.00     0.159 HD
HETATM    4  C   UNL     1       7.971  -0.297  23.027  1.00  0.00    -0.022 C 
HETATM    5  C   UNL     1       7.885  -0.175  24.485  1.00  0.00     0.062 C 
BRANCH   4   6
HETATM    6  C   UNL     1       6.711   0.023  22.286  1.00  0.00     0.047 C 
HETATM    7  C   UNL     1       6.592   0.119  20.795  1.00  0.00     0.011 C 
ENDBRANCH   4   6
ENDBRANCH   1   2
BRANCH   1   8
HETATM    8  C   UNL     1      10.592  -2.403  22.395  1.00  0.00     0.231 C 
HETATM    9  C   UNL     1      10.239  -2.688  21.000  1.00  0.00     0.044 C 
BRANCH   8  10
HETATM   10  N   UNL     1       9.756  -3.109  23.427  1.00  0.00     0.084 N 
HETATM   11  H   UNL     1      10.018  -4.061  23.515  1.00  0.00     0.313 HD
HETATM   12  H   UNL     1       9.645  -2.523  24.215  1.00  0.00     0.313 HD
ENDBRANCH   8  10
ENDBRANCH   1   8
TORSDOF 4
