MODEL 1
REMARK VINA RESULT:    -3.817      0.000      0.000
REMARK INTER + INTRA:          -4.698
REMARK INTER:                  -4.598
REMARK INTRA:                  -0.100
REMARK UNBOUND:                -0.100
REMARK  4 active torsions:
REMARK  status: ('A' for Active; 'I' for Inactive)
REMARK    1  A    between atoms: N_1  and  C_9 
REMARK    2  A    between atoms: C_5  and  N_7 
REMARK    3  A    between atoms: C_5  and  C_9 
REMARK    4  A    between atoms: C_6  and  C_12 
ROOT
HETATM    1  C   UNL     1       9.062  13.428   3.455  1.00  0.00     0.154 C 
ENDROOT
BRANCH   1   2
HETATM    2  N   UNL     1       7.993  13.182   2.542  1.00  0.00    -0.395 N 
HETATM    3  H   UNL     1       8.139  13.410   1.554  1.00  0.00     0.159 HD
HETATM    4  C   UNL     1       7.051  12.261   2.555  1.00  0.00    -0.022 C 
HETATM    5  C   UNL     1       6.997  11.021   3.335  1.00  0.00     0.062 C 
BRANCH   4   6
HETATM    6  C   UNL     1       5.927  12.452   1.586  1.00  0.00     0.047 C 
HETATM    7  C   UNL     1       4.476  12.521   1.956  1.00  0.00     0.011 C 
ENDBRANCH   4   6
ENDBRANCH   1   2
BRANCH   1   8
HETATM    8  C   UNL     1       9.636  14.775   2.978  1.00  0.00     0.231 C 
HETATM    9  C   UNL     1       9.150  15.002   1.613  1.00  0.00     0.044 C 
BRANCH   8  10
HETATM   10  N   UNL     1      11.128  14.648   3.117  1.00  0.00     0.084 N 
HETATM   11  H   UNL     1      11.588  14.825   2.257  1.00  0.00     0.313 HD
HETATM   12  H   UNL     1      11.416  15.076   3.960  1.00  0.00     0.313 HD
ENDBRANCH   8  10
ENDBRANCH   1   8
TORSDOF 4
ENDMDL
MODEL 2
REMARK VINA RESULT:    -3.696      3.128      5.684
REMARK INTER + INTRA:          -4.552
REMARK INTER:                  -4.395
REMARK INTRA:                  -0.157
REMARK UNBOUND:                -0.100
REMARK  4 active torsions:
REMARK  status: ('A' for Active; 'I' for Inactive)
REMARK    1  A    between atoms: N_1  and  C_9 
REMARK    2  A    between atoms: C_5  and  N_7 
REMARK    3  A    between atoms: C_5  and  C_9 
REMARK    4  A    between atoms: C_6  and  C_12 
ROOT
HETATM    1  C   UNL     1       9.141  16.348   3.095  1.00  0.00     0.154 C 
ENDROOT
BRANCH   1   2
HETATM    2  N   UNL     1       9.641  17.443   2.327  1.00  0.00    -0.395 N 
HETATM    3  H   UNL     1      10.628  17.429   2.053  1.00  0.00     0.159 HD
HETATM    4  C   UNL     1       9.041  18.214   1.444  1.00  0.00    -0.022 C 
HETATM    5  C   UNL     1       7.769  17.989   0.750  1.00  0.00     0.062 C 
BRANCH   4   6
HETATM    6  C   UNL     1       9.788  19.439   1.021  1.00  0.00     0.047 C 
HETATM    7  C   UNL     1      10.687  20.246   1.910  1.00  0.00     0.011 C 
ENDBRANCH   4   6
ENDBRANCH   1   2
BRANCH   1   8
HETATM    8  C   UNL     1       9.522  15.117   2.253  1.00  0.00     0.231 C 
HETATM    9  C   UNL     1       8.360  14.222   2.229  1.00  0.00     0.044 C 
BRANCH   8  10
HETATM   10  N   UNL     1      10.756  14.552   2.902  1.00  0.00     0.084 N 
HETATM   11  H   UNL     1      10.902  13.608   2.639  1.00  0.00     0.313 HD
HETATM   12  H   UNL     1      11.481  15.223   2.865  1.00  0.00     0.313 HD
ENDBRANCH   8  10
ENDBRANCH   1   8
TORSDOF 4
ENDMDL
MODEL 3
REMARK VINA RESULT:    -3.669     20.540     22.217
REMARK INTER + INTRA:          -4.519
REMARK INTER:                  -4.345
REMARK INTRA:                  -0.174
REMARK UNBOUND:                -0.100
REMARK  4 active torsions:
REMARK  status: ('A' for Active; 'I' for Inactive)
REMARK    1  A    between atoms: N_1  and  C_9 
REMARK    2  A    between atoms: C_5  and  N_7 
REMARK    3  A    between atoms: C_5  and  C_9 
REMARK    4  A    between atoms: C_6  and  C_12 
ROOT
HETATM    1  C   UNL     1       6.258  -0.343  20.012  1.00  0.00     0.154 C 
ENDROOT
BRANCH   1   2
HETATM    2  N   UNL     1       7.642  -0.182  20.324  1.00  0.00    -0.395 N 
HETATM    3  H   UNL     1       8.330  -0.413  19.601  1.00  0.00     0.159 HD
HETATM    4  C   UNL     1       8.245   0.674  21.124  1.00  0.00    -0.022 C 
HETATM    5  C   UNL     1       7.719   1.918  21.694  1.00  0.00     0.062 C 
BRANCH   4   6
HETATM    6  C   UNL     1       9.683   0.394  21.426  1.00  0.00     0.047 C 
HETATM    7  C   UNL     1      10.517   1.151  22.414  1.00  0.00     0.011 C 
ENDBRANCH   4   6
ENDBRANCH   1   2
BRANCH   1   8
HETATM    8  C   UNL     1       6.101   0.417  18.682  1.00  0.00     0.231 C 
HETATM    9  C   UNL     1       5.126   1.491  18.901  1.00  0.00     0.044 C 
BRANCH   8  10
HETATM   10  N   UNL     1       5.699  -0.621  17.671  1.00  0.00     0.084 N 
HETATM   11  H   UNL     1       5.115  -1.313  18.075  1.00  0.00     0.313 HD
HETATM   12  H   UNL     1       5.468  -0.176  16.819  1.00  0.00     0.313 HD
ENDBRANCH   8  10
ENDBRANCH   1   8
TORSDOF 4
ENDMDL
MODEL 4
REMARK VINA RESULT:    -3.627     21.019     22.685
REMARK INTER + INTRA:          -4.468
REMARK INTER:                  -4.307
REMARK INTRA:                  -0.162
REMARK UNBOUND:                -0.100
REMARK  4 active torsions:
REMARK  status: ('A' for Active; 'I' for Inactive)
REMARK    1  A    between atoms: N_1  and  C_9 
REMARK    2  A    between atoms: C_5  and  N_7 
REMARK    3  A    between atoms: C_5  and  C_9 
REMARK    4  A    between atoms: C_6  and  C_12 
ROOT
HETATM    1  C   UNL     1       7.129   0.480  19.185  1.00  0.00     0.154 C 
ENDROOT
BRANCH   1   2
HETATM    2  N   UNL     1       6.777  -0.491  20.170  1.00  0.00    -0.395 N 
HETATM    3  H   UNL     1       6.228  -1.304  19.872  1.00  0.00     0.159 HD
HETATM    4  C   UNL     1       7.411  -0.874  21.259  1.00  0.00    -0.022 C 
HETATM    5  C   UNL     1       8.811  -0.648  21.628  1.00  0.00     0.062 C 
BRANCH   4   6
HETATM    6  C   UNL     1       6.632  -1.726  22.211  1.00  0.00     0.047 C 
HETATM    7  C   UNL     1       5.827  -2.930  21.825  1.00  0.00     0.011 C 
ENDBRANCH   4   6
ENDBRANCH   1   2
BRANCH   1   8
HETATM    8  C   UNL     1       5.828   0.661  18.381  1.00  0.00     0.231 C 
HETATM    9  C   UNL     1       4.770   1.020  19.330  1.00  0.00     0.044 C 
BRANCH   8  10
HETATM   10  N   UNL     1       5.623  -0.638  17.650  1.00  0.00     0.084 N 
HETATM   11  H   UNL     1       4.670  -0.774  17.415  1.00  0.00     0.313 HD
HETATM   12  H   UNL     1       6.347  -0.760  16.989  1.00  0.00     0.313 HD
ENDBRANCH   8  10
ENDBRANCH   1   8
TORSDOF 4
ENDMDL
MODEL 5
REMARK VINA RESULT:    -3.594     25.279     26.297
REMARK INTER + INTRA:          -4.430
REMARK INTER:                  -4.354
REMARK INTRA:                  -0.075
REMARK UNBOUND:                -0.100
REMARK  4 active torsions:
REMARK  status: ('A' for Active; 'I' for Inactive)
REMARK    1  A    between atoms: N_1  and  C_9 
REMARK    2  A    between atoms: C_5  and  N_7 
REMARK    3  A    between atoms: C_5  and  C_9 
REMARK    4  A    between atoms: C_6  and  C_12 
ROOT
HETATM    1  C   UNL     1       9.405  -2.196  23.801  1.00  0.00     0.154 C 
ENDROOT
BRANCH   1   2
HETATM    2  N   UNL     1       8.659  -3.085  22.970  1.00  0.00    -0.395 N 
HETATM    3  H   UNL     1       9.024  -3.295  22.036  1.00  0.00     0.159 HD
HETATM    4  C   UNL     1       7.889  -4.107  23.284  1.00  0.00    -0.022 C 
HETATM    5  C   UNL     1       7.811  -4.835  24.554  1.00  0.00     0.062 C 
BRANCH   4   6
HETATM    6  C   UNL     1       7.043  -4.659  22.181  1.00  0.00     0.047 C 
HETATM    7  C   UNL     1       6.899  -6.115  21.855  1.00  0.00     0.011 C 
ENDBRANCH   4   6
ENDBRANCH   1   2
BRANCH   1   8
HETATM    8  C   UNL     1      10.607  -1.809  22.920  1.00  0.00     0.231 C 
HETATM    9  C   UNL     1      11.423  -0.858  23.683  1.00  0.00     0.044 C 
BRANCH   8  10
HETATM   10  N   UNL     1      10.017  -1.272  21.645  1.00  0.00     0.084 N 
HETATM   11  H   UNL     1       9.161  -0.801  21.814  1.00  0.00     0.313 HD
HETATM   12  H   UNL     1      10.734  -0.872  21.096  1.00  0.00     0.313 HD
ENDBRANCH   8  10
ENDBRANCH   1   8
TORSDOF 4
ENDMDL
MODEL 6
REMARK VINA RESULT:    -3.574     31.142     33.037
REMARK INTER + INTRA:          -4.406
REMARK INTER:                  -4.233
REMARK INTRA:                  -0.173
REMARK UNBOUND:                -0.100
REMARK  4 active torsions:
REMARK  status: ('A' for Active; 'I' for Inactive)
REMARK    1  A    between atoms: N_1  and  C_9 
REMARK    2  A    between atoms: C_5  and  N_7 
REMARK    3  A    between atoms: C_5  and  C_9 
REMARK    4  A    between atoms: C_6  and  C_12 
ROOT
HETATM    1  C   UNL     1      -0.092 -17.602   9.854  1.00  0.00     0.154 C 
ENDROOT
BRANCH   1   2
HETATM    2  N   UNL     1       1.173 -18.179   9.531  1.00  0.00    -0.395 N 
HETATM    3  H   UNL     1       2.002 -17.832  10.024  1.00  0.00     0.159 HD
HETATM    4  C   UNL     1       1.482 -19.398   9.136  1.00  0.00    -0.022 C 
HETATM    5  C   UNL     1       0.669 -20.615   9.207  1.00  0.00     0.062 C 
BRANCH   4   6
HETATM    6  C   UNL     1       2.876 -19.592   8.627  1.00  0.00     0.047 C 
HETATM    7  C   UNL     1       3.401 -20.860   8.025  1.00  0.00     0.011 C 
ENDBRANCH   4   6
ENDBRANCH   1   2
BRANCH   1   8
HETATM    8  C   UNL     1      -0.051 -16.235   9.147  1.00  0.00     0.231 C 
HETATM    9  C   UNL     1      -0.342 -16.464   7.728  1.00  0.00     0.044 C 
BRANCH   8  10
HETATM   10  N   UNL     1       1.312 -15.670   9.441  1.00  0.00     0.084 N 
HETATM   11  H   UNL     1       1.932 -16.373   9.766  1.00  0.00     0.313 HD
HETATM   12  H   UNL     1       1.567 -15.040   8.724  1.00  0.00     0.313 HD
ENDBRANCH   8  10
ENDBRANCH   1   8
TORSDOF 4
ENDMDL
MODEL 7
REMARK VINA RESULT:    -3.470     33.906     35.836
REMARK INTER + INTRA:          -4.279
REMARK INTER:                  -4.108
REMARK INTRA:                  -0.171
REMARK UNBOUND:                -0.100
REMARK  4 active torsions:
REMARK  status: ('A' for Active; 'I' for Inactive)
REMARK    1  A    between atoms: N_1  and  C_9 
REMARK    2  A    between atoms: C_5  and  N_7 
REMARK    3  A    between atoms: C_5  and  C_9 
REMARK    4  A    between atoms: C_6  and  C_12 
ROOT
HETATM    1  C   UNL     1       2.642 -20.450   8.305  1.00  0.00     0.154 C 
ENDROOT
BRANCH   1   2
HETATM    2  N   UNL     1       2.938 -21.664   8.995  1.00  0.00    -0.395 N 
HETATM    3  H   UNL     1       3.770 -21.690   9.593  1.00  0.00     0.159 HD
HETATM    4  C   UNL     1       2.136 -22.598   9.466  1.00  0.00    -0.022 C 
HETATM    5  C   UNL     1       0.692 -22.526   9.704  1.00  0.00     0.062 C 
BRANCH   4   6
HETATM    6  C   UNL     1       2.791 -23.871   9.900  1.00  0.00     0.047 C 
HETATM    7  C   UNL     1       2.693 -25.179   9.174  1.00  0.00     0.011 C 
ENDBRANCH   4   6
ENDBRANCH   1   2
BRANCH   1   8
HETATM    8  C   UNL     1       2.757 -19.378   9.404  1.00  0.00     0.231 C 
HETATM    9  C   UNL     1       1.488 -18.643   9.437  1.00  0.00     0.044 C 
BRANCH   8  10
HETATM   10  N   UNL     1       3.965 -18.559   9.044  1.00  0.00     0.084 N 
HETATM   11  H   UNL     1       3.841 -18.094   8.177  1.00  0.00     0.313 HD
HETATM   12  H   UNL     1       4.293 -18.086   9.848  1.00  0.00     0.313 HD
ENDBRANCH   8  10
ENDBRANCH   1   8
TORSDOF 4
ENDMDL
MODEL 8
REMARK VINA RESULT:    -3.468     30.975     32.228
REMARK INTER + INTRA:          -4.277
REMARK INTER:                  -4.161
REMARK INTRA:                  -0.116
REMARK UNBOUND:                -0.100
REMARK  4 active torsions:
REMARK  status: ('A' for Active; 'I' for Inactive)
REMARK    1  A    between atoms: N_1  and  C_9 
REMARK    2  A    between atoms: C_5  and  N_7 
REMARK    3  A    between atoms: C_5  and  C_9 
REMARK    4  A    between atoms: C_6  and  C_12 
ROOT
HETATM    1  C   UNL     1      21.916  -2.718  24.757  1.00  0.00     0.154 C 
ENDROOT
BRANCH   1   2
HETATM    2  N   UNL     1      22.525  -3.332  25.892  1.00  0.00    -0.395 N 
HETATM    3  H   UNL     1      22.010  -3.328  26.778  1.00  0.00     0.159 HD
HETATM    4  C   UNL     1      23.354  -4.353  25.972  1.00  0.00    -0.022 C 
HETATM    5  C   UNL     1      23.657  -5.364  24.954  1.00  0.00     0.062 C 
BRANCH   4   6
HETATM    6  C   UNL     1      24.010  -4.569  27.299  1.00  0.00     0.047 C 
HETATM    7  C   UNL     1      24.415  -3.479  28.244  1.00  0.00     0.011 C 
ENDBRANCH   4   6
ENDBRANCH   1   2
BRANCH   1   8
HETATM    8  C   UNL     1      20.883  -1.761  25.379  1.00  0.00     0.231 C 
HETATM    9  C   UNL     1      20.580  -0.730  24.380  1.00  0.00     0.044 C 
BRANCH   8  10
HETATM   10  N   UNL     1      21.513  -1.260  26.650  1.00  0.00     0.084 N 
HETATM   11  H   UNL     1      22.461  -1.542  26.719  1.00  0.00     0.313 HD
HETATM   12  H   UNL     1      21.234  -0.325  26.807  1.00  0.00     0.313 HD
ENDBRANCH   8  10
ENDBRANCH   1   8
TORSDOF 4
ENDMDL
MODEL 9
REMARK VINA RESULT:    -3.426     23.499     24.683
REMARK INTER + INTRA:          -4.227
REMARK INTER:                  -4.015
REMARK INTRA:                  -0.211
REMARK UNBOUND:                -0.100
REMARK  4 active torsions:
REMARK  status: ('A' for Active; 'I' for Inactive)
REMARK    1  A    between atoms: N_1  and  C_9 
REMARK    2  A    between atoms: C_5  and  N_7 
REMARK    3  A    between atoms: C_5  and  C_9 
REMARK    4  A    between atoms: C_6  and  C_12 
ROOT
HETATM    1  C   UNL     1      11.324   2.186  23.809  1.00  0.00     0.154 C 
ENDROOT
BRANCH   1   2
HETATM    2  N   UNL     1      11.204   0.865  23.281  1.00  0.00    -0.395 N 
HETATM    3  H   UNL     1      10.905   0.760  22.307  1.00  0.00     0.159 HD
HETATM    4  C   UNL     1      11.872  -0.234  23.566  1.00  0.00    -0.022 C 
HETATM    5  C   UNL     1      13.145  -0.370  24.281  1.00  0.00     0.062 C 
BRANCH   4   6
HETATM    6  C   UNL     1      11.310  -1.508  23.018  1.00  0.00     0.047 C 
HETATM    7  C   UNL     1       9.901  -1.691  22.542  1.00  0.00     0.011 C 
ENDBRANCH   4   6
ENDBRANCH   1   2
BRANCH   1   8
HETATM    8  C   UNL     1       9.904   2.761  23.659  1.00  0.00     0.231 C 
HETATM    9  C   UNL     1       9.034   2.035  24.590  1.00  0.00     0.044 C 
BRANCH   8  10
HETATM   10  N   UNL     1       9.559   2.606  22.203  1.00  0.00     0.084 N 
HETATM   11  H   UNL     1       8.594   2.413  22.079  1.00  0.00     0.313 HD
HETATM   12  H   UNL     1      10.023   3.305  21.680  1.00  0.00     0.313 HD
ENDBRANCH   8  10
ENDBRANCH   1   8
TORSDOF 4
ENDMDL
