stable:False satoms:8 tatoms:24 sratio:0.3333333333333333
  -OEChem-07092417443D

 24 25  0     1  0  0  0  0  0999 V2000
    6.5240   -4.8844   26.4067 C   0  0  0  0  0  0  0  0  0  0  0  0
    8.2397   -4.3147   26.0916 S   0  0  0  0  0  0  0  0  0  0  0  0
    9.0643   -5.4813   26.0141 O   0  0  0  0  0  0  0  0  0  0  0  0
    8.5376   -3.4284   27.1729 O   0  0  0  0  0  0  0  0  0  0  0  0
    8.1343   -3.5855   24.6395 N   0  0  0  0  0  0  0  0  0  0  0  0
    8.9574   -2.9145   24.1299 C   0  0  0  0  0  0  0  0  0  0  0  0
    9.4551   -1.9717   23.5021 C   0  0  0  0  0  0  0  0  0  0  0  0
   10.3306   -1.0750   23.2795 C   0  0  1  0  0  0  0  0  0  0  0  0
   11.0163   -0.0120   24.2687 C   0  0  0  0  0  0  0  0  0  0  0  0
   12.0911    0.3061   24.2526 C   0  0  0  0  0  0  0  0  0  0  0  0
   13.1353   -0.1138   23.5369 C   0  0  0  0  0  0  0  0  0  0  0  0
   12.7496   -1.2307   22.7363 C   0  0  0  0  0  0  0  0  0  0  0  0
   11.8557   -1.7332   22.5817 C   0  0  0  0  0  0  0  0  0  0  0  0
    9.7341   -0.6093   22.3089 C   0  0  0  0  0  0  0  0  0  0  0  0
    9.0686    0.0054   21.3419 C   0  0  0  0  0  0  0  0  0  0  0  0
    9.5399    0.9426   20.8656 O   0  0  0  0  0  0  0  0  0  0  0  0
    7.9071   -0.5888   21.0974 N   0  0  0  0  0  0  0  0  0  0  0  0
    7.2094   -0.1018   20.1834 C   0  0  0  0  0  0  0  0  0  0  0  0
    7.2165    0.0526   18.8859 C   0  0  0  0  0  0  0  0  0  0  0  0
    6.7394    0.3630   17.7672 N   0  0  0  0  0  0  0  0  0  0  0  0
    5.6978    0.8773   18.2943 C   0  0  0  0  0  0  0  0  0  0  0  0
    5.2553    0.9745   19.4191 C   0  0  0  0  0  0  0  0  0  0  0  0
    5.8095    0.5673   20.5388 C   0  0  0  0  0  0  0  0  0  0  0  0
    5.3156    0.6664   21.9818 Cl  0  0  0  0  0  0  0  0  0  0  0  0
 20 21  2  0  0  0  0
 19 20  1  0  0  0  0
 21 22  1  0  0  0  0
 18 19  2  0  0  0  0
 22 23  2  0  0  0  0
 18 23  1  0  0  0  0
 17 18  1  0  0  0  0
 23 24  1  0  0  0  0
 15 16  2  0  0  0  0
 15 17  1  0  0  0  0
 14 15  1  0  0  0  0
  8 14  1  0  0  0  0
 12 13  1  0  0  0  0
  8 13  1  0  0  0  0
 11 12  2  0  0  0  0
  7  8  1  0  0  0  0
  8  9  1  0  0  0  0
  6  7  2  3  0  0  0
 10 11  1  0  0  0  0
  5  6  1  0  0  0  0
  9 10  2  0  0  0  0
  2  5  1  0  0  0  0
  2  3  2  0  0  0  0
  1  2  1  0  0  0  0
  2  4  2  0  0  0  0
M  END
> <Shapegauss>
-286.865662

$$$$
