stable:False satoms:8 tatoms:24 sratio:0.3333333333333333
  -OEChem-08062413363D

 42 43  0     1  0  0  0  0  0999 V2000
    6.2734   -5.1167   26.2847 C   0  0  0  0  0  0  0  0  0  0  0  0
    8.0104   -4.5496   26.1155 S   0  0  0  0  0  0  0  0  0  0  0  0
    8.8344   -5.7187   26.0784 O   0  0  0  0  0  0  0  0  0  0  0  0
    8.2266   -3.6868   27.2346 O   0  0  0  0  0  0  0  0  0  0  0  0
    8.0208   -3.7907   24.6749 N   0  0  0  0  0  0  0  0  0  0  0  0
    8.8835   -3.1139   24.2446 C   0  0  0  0  0  0  0  0  0  0  0  0
    9.4319   -2.1612   23.6768 C   0  0  0  0  0  0  0  0  0  0  0  0
   10.3252   -1.2647   23.5413 C   0  0  1  0  0  0  0  0  0  0  0  0
   10.9358   -0.2255   24.6023 C   0  0  0  0  0  0  0  0  0  0  0  0
   12.0097    0.0873   24.6762 C   0  0  0  0  0  0  0  0  0  0  0  0
   13.1049   -0.3234   24.0353 C   0  0  0  0  0  0  0  0  0  0  0  0
   12.7786   -1.4220   23.1844 C   0  0  0  0  0  0  0  0  0  0  0  0
   11.8976   -1.9166   22.9506 C   0  0  0  0  0  0  0  0  0  0  0  0
    9.8076   -0.7765   22.5370 C   0  0  0  0  0  0  0  0  0  0  0  0
    9.2215   -0.1390   21.5341 C   0  0  0  0  0  0  0  0  0  0  0  0
    9.7318    0.8052   21.1151 O   0  0  0  0  0  0  0  0  0  0  0  0
    8.0804   -0.7221   21.1880 N   0  0  0  0  0  0  0  0  0  0  0  0
    7.4576   -0.2131   20.2328 C   0  0  0  0  0  0  0  0  0  0  0  0
    7.5661   -0.0326   18.9432 C   0  0  0  0  0  0  0  0  0  0  0  0
    7.1785    0.3027   17.7974 N   0  0  0  0  0  0  0  0  0  0  0  0
    6.1010    0.8117   18.2525 C   0  0  0  0  0  0  0  0  0  0  0  0
    5.5727    0.8885   19.3413 C   0  0  0  0  0  0  0  0  0  0  0  0
    6.0368    0.4559   20.4921 C   0  0  0  0  0  0  0  0  0  0  0  0
    5.4326    0.5284   21.8941 Cl  0  0  0  0  0  0  0  0  0  0  0  0
    6.1527   -5.6506   27.2388 H   0  0  0  0  0  0  0  0  0  0  0  0
    5.6002   -4.2470   26.2637 H   0  0  0  0  0  0  0  0  0  0  0  0
    6.0257   -5.7923   25.4527 H   0  0  0  0  0  0  0  0  0  0  0  0
    7.2110   -3.2042   24.6846 H   0  0  0  0  0  0  0  0  0  0  0  0
    9.7477   -3.6979   24.5245 H   0  0  0  0  0  0  0  0  0  0  0  0
    8.8000   -2.0006   22.8157 H   0  0  0  0  0  0  0  0  0  0  0  0
   10.2480    0.2128   25.3103 H   0  0  0  0  0  0  0  0  0  0  0  0
   12.1914    0.8665   25.4016 H   0  0  0  0  0  0  0  0  0  0  0  0
   14.0885    0.1091   24.1436 H   0  0  0  0  0  0  0  0  0  0  0  0
   13.6381   -1.8271   22.6712 H   0  0  0  0  0  0  0  0  0  0  0  0
   11.8349   -1.9554   21.8531 H   0  0  0  0  0  0  0  0  0  0  0  0
   11.9895   -2.9378   23.3490 H   0  0  0  0  0  0  0  0  0  0  0  0
    9.1507   -1.6496   22.4102 H   0  0  0  0  0  0  0  0  0  0  0  0
   10.7275   -0.9215   21.9515 H   0  0  0  0  0  0  0  0  0  0  0  0
    7.7366   -1.5289   21.6684 H   0  0  0  0  0  0  0  0  0  0  0  0
    8.5758   -0.3652   18.7523 H   0  0  0  0  0  0  0  0  0  0  0  0
    5.5172    1.2906   17.4803 H   0  0  0  0  0  0  0  0  0  0  0  0
    4.6061    1.3695   19.3685 H   0  0  0  0  0  0  0  0  0  0  0  0
 20 21  2  0  0  0  0
 19 20  1  0  0  0  0
 21 22  1  0  0  0  0
 18 19  2  0  0  0  0
 22 23  2  0  0  0  0
 18 23  1  0  0  0  0
 17 18  1  0  0  0  0
 23 24  1  0  0  0  0
 15 16  2  0  0  0  0
 15 17  1  0  0  0  0
 14 15  1  0  0  0  0
  8 14  1  0  0  0  0
 12 13  1  0  0  0  0
  8 13  1  0  0  0  0
 11 12  2  0  0  0  0
  7  8  1  0  0  0  0
  8  9  1  0  0  0  0
  6  7  2  3  0  0  0
 10 11  1  0  0  0  0
  5  6  1  0  0  0  0
  9 10  2  0  0  0  0
  2  5  1  0  0  0  0
  2  3  2  0  0  0  0
  1  2  1  0  0  0  0
  2  4  2  0  0  0  0
  1 25  1  0  0  0  0
  1 26  1  0  0  0  0
  1 27  1  0  0  0  0
  5 28  1  0  0  0  0
  6 29  1  0  0  0  0
  7 30  1  0  0  0  0
  9 31  1  0  0  0  0
 10 32  1  0  0  0  0
 11 33  1  0  0  0  0
 12 34  1  0  0  0  0
 13 35  1  0  0  0  0
 13 36  1  0  0  0  0
 14 37  1  0  0  0  0
 14 38  1  0  0  0  0
 17 39  1  0  0  0  0
 19 40  1  0  0  0  0
 21 41  1  0  0  0  0
 22 42  1  0  0  0  0
M  END
> <Chemgauss4>
-13.381039

$$$$
