stable:False satoms:8 tatoms:24 sratio:0.3333333333333333
  -OEChem-08062413363D

 42 43  0     1  0  0  0  0  0999 V2000
   -6.3321   -5.5319  -25.7810 C   0  0  0  0  0  0  0  0  0  0  0  0
   -8.0560   -4.9124  -25.6724 S   0  0  0  0  0  0  0  0  0  0  0  0
   -8.9113   -6.0564  -25.5903 O   0  0  0  0  0  0  0  0  0  0  0  0
   -8.2304   -4.1034  -26.8380 O   0  0  0  0  0  0  0  0  0  0  0  0
   -8.0703   -4.0800  -24.2730 N   0  0  0  0  0  0  0  0  0  0  0  0
   -8.9217   -3.3599  -23.8936 C   0  0  0  0  0  0  0  0  0  0  0  0
   -9.4539   -2.3653  -23.3854 C   0  0  0  0  0  0  0  0  0  0  0  0
  -10.3253   -1.4404  -23.3122 C   0  0  1  0  0  0  0  0  0  0  0  0
  -10.8902   -0.4420  -24.4359 C   0  0  0  0  0  0  0  0  0  0  0  0
  -11.9540   -0.1060  -24.5452 C   0  0  0  0  0  0  0  0  0  0  0  0
  -13.0703   -0.4548  -23.9039 C   0  0  0  0  0  0  0  0  0  0  0  0
  -12.7875   -1.5159  -22.9921 C   0  0  0  0  0  0  0  0  0  0  0  0
  -11.9241   -2.0202  -22.7174 C   0  0  0  0  0  0  0  0  0  0  0  0
   -9.8118   -0.9143  -22.3251 C   0  0  0  0  0  0  0  0  0  0  0  0
   -9.2257   -0.2411  -21.3457 C   0  0  0  0  0  0  0  0  0  0  0  0
   -9.7176    0.7363  -20.9850 O   0  0  0  0  0  0  0  0  0  0  0  0
   -8.1065   -0.8347  -20.9497 N   0  0  0  0  0  0  0  0  0  0  0  0
   -7.4864   -0.2932  -20.0107 C   0  0  0  0  0  0  0  0  0  0  0  0
   -7.6116   -0.0435  -18.7342 C   0  0  0  0  0  0  0  0  0  0  0  0
   -7.2344    0.3406  -17.6003 N   0  0  0  0  0  0  0  0  0  0  0  0
   -6.1363    0.7974  -18.0614 C   0  0  0  0  0  0  0  0  0  0  0  0
   -5.5881    0.8042  -19.1430 C   0  0  0  0  0  0  0  0  0  0  0  0
   -6.0441    0.3248  -20.2782 C   0  0  0  0  0  0  0  0  0  0  0  0
   -5.4149    0.3092  -21.6710 Cl  0  0  0  0  0  0  0  0  0  0  0  0
   -6.2097   -6.1174  -26.7041 H   0  0  0  0  0  0  0  0  0  0  0  0
   -5.6365   -4.6799  -25.7924 H   0  0  0  0  0  0  0  0  0  0  0  0
   -6.1164   -6.1698  -24.9111 H   0  0  0  0  0  0  0  0  0  0  0  0
   -7.2451   -3.5158  -24.2982 H   0  0  0  0  0  0  0  0  0  0  0  0
   -9.7964   -3.9352  -24.1588 H   0  0  0  0  0  0  0  0  0  0  0  0
   -8.8325   -2.1768  -22.5224 H   0  0  0  0  0  0  0  0  0  0  0  0
  -10.1792   -0.0588  -25.1529 H   0  0  0  0  0  0  0  0  0  0  0  0
  -12.1028    0.6391  -25.3127 H   0  0  0  0  0  0  0  0  0  0  0  0
  -14.0401   -0.0032  -24.0520 H   0  0  0  0  0  0  0  0  0  0  0  0
  -13.6661   -1.8717  -22.4744 H   0  0  0  0  0  0  0  0  0  0  0  0
  -11.8808   -2.0038  -21.6184 H   0  0  0  0  0  0  0  0  0  0  0  0
  -12.0365   -3.0580  -23.0644 H   0  0  0  0  0  0  0  0  0  0  0  0
   -9.1804   -1.7963  -22.1418 H   0  0  0  0  0  0  0  0  0  0  0  0
  -10.7448   -1.0053  -21.7496 H   0  0  0  0  0  0  0  0  0  0  0  0
   -7.7762   -1.6738  -21.3818 H   0  0  0  0  0  0  0  0  0  0  0  0
   -8.6328   -0.3397  -18.5448 H   0  0  0  0  0  0  0  0  0  0  0  0
   -5.5530    1.3005  -17.3044 H   0  0  0  0  0  0  0  0  0  0  0  0
   -4.6087    1.2582  -19.1773 H   0  0  0  0  0  0  0  0  0  0  0  0
 20 21  2  0  0  0  0
 19 20  1  0  0  0  0
 21 22  1  0  0  0  0
 18 19  2  0  0  0  0
 22 23  2  0  0  0  0
 18 23  1  0  0  0  0
 17 18  1  0  0  0  0
 23 24  1  0  0  0  0
 15 16  2  0  0  0  0
 15 17  1  0  0  0  0
 14 15  1  0  0  0  0
  8 14  1  0  0  0  0
 12 13  1  0  0  0  0
  8 13  1  0  0  0  0
 11 12  2  0  0  0  0
  7  8  1  0  0  0  0
  8  9  1  0  0  0  0
  6  7  2  3  0  0  0
 10 11  1  0  0  0  0
  5  6  1  0  0  0  0
  9 10  2  0  0  0  0
  2  5  1  0  0  0  0
  2  3  2  0  0  0  0
  1  2  1  0  0  0  0
  2  4  2  0  0  0  0
  1 25  1  0  0  0  0
  1 26  1  0  0  0  0
  1 27  1  0  0  0  0
  5 28  1  0  0  0  0
  6 29  1  0  0  0  0
  7 30  1  0  0  0  0
  9 31  1  0  0  0  0
 10 32  1  0  0  0  0
 11 33  1  0  0  0  0
 12 34  1  0  0  0  0
 13 35  1  0  0  0  0
 13 36  1  0  0  0  0
 14 37  1  0  0  0  0
 14 38  1  0  0  0  0
 17 39  1  0  0  0  0
 19 40  1  0  0  0  0
 21 41  1  0  0  0  0
 22 42  1  0  0  0  0
M  END
> <Chemgauss4>
-13.108207

$$$$
