stable:False satoms:17 tatoms:24 sratio:0.7083333333333334
  -OEChem-07092417393D

 24 24  0     1  0  0  0  0  0999 V2000
    6.7334   -5.1825   26.4944 Cl  0  0  0  0  0  0  0  0  0  0  0  0
    8.5221   -4.3969   25.8782 S   0  5  0  0  0  0  0  0  0  0  0  0
    9.2103   -5.5141   25.3412 O   0  0  0  0  0  0  0  0  0  0  0  0
    9.0088   -3.9345   27.1344 O   0  0  0  0  0  0  0  0  0  0  0  0
    8.0842   -3.3853   24.8132 N   0  0  0  0  0  0  0  0  0  0  0  0
    8.7776   -2.7451   24.5504 C   0  0  3  0  0  0  0  0  0  0  0  0
    8.7579   -1.3882   23.7489 N   0  3  0  0  0  0  0  0  0  0  0  0
   10.9245   -0.9259   23.0235 C   0  0  3  0  0  0  0  0  0  0  0  0
   12.1168   -0.7906   24.7107 H   0  0  0  0  0  0  0  0  0  0  0  0
   12.4505    0.4737   23.6176 H   0  0  0  0  0  0  0  0  0  0  0  0
   12.2512   -0.5737   23.6755 C   0  0  0  0  0  0  0  0  0  0  0  0
   13.0346   -1.1025   23.1904 H   0  0  0  0  0  0  0  0  0  0  0  0
   10.7546   -0.8210   21.8424 N   0  0  0  0  0  0  0  0  0  0  0  0
    9.6754   -1.3893   23.6426 C   0  0  0  0  0  0  0  0  0  0  0  0
    9.8882    0.0922   21.3684 C   0  0  0  0  0  0  0  0  0  0  0  0
    9.5497    1.0203   20.9200 O   0  0  0  0  0  0  0  0  0  0  0  0
    7.7526   -0.4733   20.8802 N   0  0  0  0  0  0  0  0  0  0  0  0
    7.0852    0.0115   20.1706 C   0  0  0  0  0  0  0  0  0  0  0  0
    6.7274    0.2606   18.7659 C   0  0  0  0  0  0  0  0  0  0  0  0
    7.1057    0.0946   17.7807 H   0  0  0  0  0  0  0  0  0  0  0  0
    5.5675    0.8035   19.1460 C   0  0  0  0  0  0  0  0  0  0  0  0
    4.7092    1.2150   18.6723 H   0  0  0  0  0  0  0  0  0  0  0  0
    5.6999    0.6295   20.5042 C   0  0  0  0  0  0  0  0  0  0  0  0
    5.1969    0.7317   21.4253 H   0  0  0  0  0  0  0  0  0  0  0  0
 19 20  1  0  0  0  0
 21 22  1  0  0  0  0
 19 21  2  0  0  0  0
 18 19  1  0  0  0  0
 21 23  1  0  0  0  0
 18 23  2  0  0  0  0
 17 18  1  0  0  0  0
 23 24  1  0  0  0  0
 15 16  2  0  0  0  0
 13 15  1  0  0  0  0
  8 13  1  0  0  0  0
  8 14  1  0  0  0  0
  8 11  1  0  0  0  0
 11 12  1  0  0  0  0
 10 11  1  0  0  0  0
  7 14  1  0  0  0  0
  9 11  1  0  0  0  0
  6  7  1  0  0  0  0
  5  6  1  0  0  0  0
  2  6  1  0  0  0  0
  2  5  1  0  0  0  0
  2  3  1  0  0  0  0
  1  2  1  0  0  0  0
  2  4  1  0  0  0  0
M  CHG  2   2  -1   7   1
M  END
> <Shapegauss>
-212.402283

$$$$
