REMARK  10 active torsions:
REMARK  status: ('A' for Active; 'I' for Inactive)
REMARK    1  A    between atoms: S_2  and  N_5 
REMARK    2  A    between atoms: N_5  and  C_7 
REMARK    3  A    between atoms: C_7  and  C_8 
REMARK    4  A    between atoms: C_8  and  C_9 
REMARK    5  A    between atoms: C_9  and  C_15 
REMARK    6  A    between atoms: C_9  and  C_10 
REMARK    7  A    between atoms: C_10  and  C_11 
REMARK    8  A    between atoms: C_12  and  C_13 
REMARK    9  A    between atoms: C_15  and  C_16 
REMARK       I    between atoms: C_16  and  N_18 
REMARK   10  A    between atoms: N_18  and  C_20 
ROOT
HETATM    1  C   UNL     1      10.292  -1.107  23.266  1.00  0.00     0.096 C 
ENDROOT
BRANCH   1   2
HETATM    2  C   UNL     1       9.402  -1.996  23.559  1.00  0.00     0.125 C 
BRANCH   2   3
HETATM    3  C   UNL     1       8.938  -2.873  24.145  1.00  0.00    -0.059 C 
BRANCH   3   4
HETATM    4  N   UNL     1       8.168  -3.606  24.664  1.00  0.00    -0.254 N 
ATOM      5  HN  UNL     1       7.338  -3.812  24.108  1.00  0.00     0.188 HD
BRANCH   4   6
HETATM    6  S   UNL     1       8.210  -4.337  26.107  1.00  0.00     0.233 S 
HETATM    7  C   UNL     1       6.626  -4.839  26.415  1.00  0.00     0.186 C 
HETATM    8  O   UNL     1       9.085  -5.491  26.058  1.00  0.00    -0.206 OA
HETATM    9  O   UNL     1       8.599  -3.442  27.165  1.00  0.00    -0.206 OA
ENDBRANCH   4   6
ENDBRANCH   3   4
ENDBRANCH   2   3
ENDBRANCH   1   2
BRANCH   1  10
HETATM   10  C   UNL     1       9.689  -0.575  22.336  1.00  0.00    -0.074 C 
BRANCH  10  11
HETATM   11  C   UNL     1       9.035   0.006  21.374  1.00  0.00     0.289 C 
HETATM   12  O   UNL     1       9.539   0.926  20.918  1.00  0.00    -0.259 OA
HETATM   13  N   UNL     1       7.865  -0.591  21.121  1.00  0.00    -0.315 N 
ATOM     14  HN  UNL     1       7.545  -1.400  21.654  1.00  0.00     0.170 HD
BRANCH  13  15
HETATM   15  C   UNL     1       7.172  -0.088  20.173  1.00  0.00     0.060 A 
HETATM   16  C   UNL     1       7.203   0.057  18.875  1.00  0.00     0.117 A 
HETATM   17  N   UNL     1       6.759   0.365  17.766  1.00  0.00    -0.373 N 
HETATM   18  C   UNL     1       5.670   0.897  18.260  1.00  0.00     0.088 A 
ATOM     19  HN  UNL     1       7.111   0.248  16.816  1.00  0.00     0.164 HD
HETATM   20  C   UNL     1       5.271   0.988  19.408  1.00  0.00     0.030 A 
HETATM   21  C   UNL     1       5.809   0.579  20.592  1.00  0.00    -0.016 A 
HETATM   22  C   UNL     1       5.382   0.712  21.866  1.00  0.00     0.026 C 
ENDBRANCH  13  15
ENDBRANCH  10  11
ENDBRANCH   1  10
BRANCH   1  23
HETATM   23  C   UNL     1      11.019  -0.041  24.262  1.00  0.00    -0.009 C 
BRANCH  23  24
HETATM   24  C   UNL     1      12.107   0.276  24.216  1.00  0.00    -0.003 C 
HETATM   25  C   UNL     1      13.176  -0.146  23.535  1.00  0.00    -0.001 C 
BRANCH  25  26
HETATM   26  C   UNL     1      12.735  -1.262  22.691  1.00  0.00    -0.010 C 
HETATM   27  C   UNL     1      11.833  -1.702  22.525  1.00  0.00     0.011 C 
ENDBRANCH  25  26
ENDBRANCH  23  24
ENDBRANCH   1  23
TORSDOF 10
