stable:False satoms:17 tatoms:24 sratio:0.7083333333333334
  -OEChem-08062406423D

 31 31  0     0  0  0  0  0  0999 V2000
   -6.9361   -4.4041  -23.5953 F   0  0  0  0  0  0  0  0  0  0  0  0
   -8.2443   -4.3853  -23.3813 C   0  0  0  0  0  0  0  0  0  0  0  0
   -8.4337   -5.0577  -22.5217 H   0  0  0  0  0  0  0  0  0  0  0  0
   -8.7306   -4.7955  -24.2808 H   0  0  0  0  0  0  0  0  0  0  0  0
   -8.6118   -3.0501  -23.0841 N   0  0  0  0  0  0  0  0  0  0  0  0
   -9.6258   -2.4477  -22.9235 C   0  0  0  0  0  0  0  0  0  0  0  0
  -10.4396   -1.6582  -22.7840 N   0  3  0  0  0  0  0  0  0  0  0  0
  -11.6773   -1.3118  -23.0745 C   0  0  0  0  0  0  0  0  0  0  0  0
  -13.0557   -0.7670  -24.3979 O   0  0  0  0  0  0  0  0  0  0  0  0
  -14.3222   -2.1981  -24.1031 H   0  0  0  0  0  0  0  0  0  0  0  0
  -13.8011   -1.5203  -23.4123 C   0  0  0  0  0  0  0  0  0  0  0  0
  -14.5384   -1.1506  -22.6673 H   0  0  0  0  0  0  0  0  0  0  0  0
  -12.7254   -1.9034  -22.5425 O   0  0  0  0  0  0  0  0  0  0  0  0
  -12.0503   -0.2221  -23.8574 C   0  0  0  0  0  0  0  0  0  0  0  0
  -11.6922    1.2162  -23.9880 C   0  0  0  0  0  0  0  0  0  0  0  0
  -12.5512    1.9769  -24.2636 O   0  0  0  0  0  0  0  0  0  0  0  0
  -10.3831    1.6393  -23.8043 N   0  0  0  0  0  0  0  0  0  0  0  0
  -10.0957    2.7193  -23.5169 C   0  0  0  0  0  0  0  0  0  0  0  0
   -9.6631    3.9293  -23.6486 C   0  0  0  0  0  0  0  0  0  0  0  0
   -9.9501    5.0880  -22.9430 N   0  3  0  0  0  0  0  0  0  0  0  0
   -9.4259    5.8492  -23.3247 H   0  0  0  0  0  0  0  0  0  0  0  0
   -8.2535    4.5995  -25.1293 H   0  0  0  0  0  0  0  0  0  0  0  0
   -8.7956    3.7355  -24.7844 C   0  0  0  0  0  0  0  0  0  0  0  0
   -8.5569    2.2979  -25.5224 S   0  0  0  0  0  0  0  0  0  0  0  0
   -7.8109   -2.4599  -22.9827 H   0  0  0  0  0  0  0  0  0  0  0  0
  -10.2750   -3.3087  -22.8643 H   0  0  0  0  0  0  0  0  0  0  0  0
   -9.6488    0.9718  -23.9279 H   0  0  0  0  0  0  0  0  0  0  0  0
  -10.3523    2.7169  -22.4678 H   0  0  0  0  0  0  0  0  0  0  0  0
   -9.7040    4.9625  -21.9819 H   0  0  0  0  0  0  0  0  0  0  0  0
  -10.0573   -0.9368  -22.2066 H   0  0  0  0  0  0  0  0  0  0  0  0
  -10.9274    5.2877  -23.0135 H   0  0  0  0  0  0  0  0  0  0  0  0
 20 21  1  0  0  0  0
 19 20  1  0  0  0  0
 18 19  2  0  0  0  0
 19 23  1  0  0  0  0
 22 23  1  0  0  0  0
 17 18  1  0  0  0  0
 23 24  2  0  0  0  0
 15 16  2  0  0  0  0
 15 17  1  0  0  0  0
 14 15  1  0  0  0  0
 11 12  1  0  0  0  0
  8 14  2  0  0  0  0
  9 14  1  0  0  0  0
  8 13  1  0  0  0  0
  7  8  1  0  0  0  0
 11 13  1  0  0  0  0
  9 11  1  0  0  0  0
 10 11  1  0  0  0  0
  6  7  2  3  0  0  0
  5  6  1  0  0  0  0
  2  5  1  0  0  0  0
  2  3  1  0  0  0  0
  1  2  1  0  0  0  0
  2  4  1  0  0  0  0
  5 25  1  0  0  0  0
  6 26  1  0  0  0  0
 17 27  1  0  0  0  0
 18 28  1  0  0  0  0
 20 29  1  0  0  0  0
  7 30  1  0  0  0  0
 20 31  1  0  0  0  0
M  CHG  2   7   1  20   1
M  END
> <Chemgauss4>
-7.481344

$$$$
