stable:False satoms:17 tatoms:24 sratio:0.7083333333333334
  -OEChem-08062406423D

 31 31  0     0  0  0  0  0  0999 V2000
    7.0372   -4.2100   23.6301 F   0  0  0  0  0  0  0  0  0  0  0  0
    8.3500   -4.1832   23.4474 C   0  0  0  0  0  0  0  0  0  0  0  0
    8.5655   -4.8654   22.6019 H   0  0  0  0  0  0  0  0  0  0  0  0
    8.8177   -4.5771   24.3639 H   0  0  0  0  0  0  0  0  0  0  0  0
    8.7139   -2.8490   23.1409 N   0  0  0  0  0  0  0  0  0  0  0  0
    9.7265   -2.2404   22.9966 C   0  0  0  0  0  0  0  0  0  0  0  0
   10.5372   -1.4462   22.8659 N   0  3  0  0  0  0  0  0  0  0  0  0
   11.7646   -1.0855   23.1814 C   0  0  0  0  0  0  0  0  0  0  0  0
   13.1062   -0.5114   24.5299 O   0  0  0  0  0  0  0  0  0  0  0  0
   14.3909   -1.9357   24.2854 H   0  0  0  0  0  0  0  0  0  0  0  0
   13.8812   -1.2717   23.5730 C   0  0  0  0  0  0  0  0  0  0  0  0
   14.6333   -0.9059   22.8410 H   0  0  0  0  0  0  0  0  0  0  0  0
   12.8300   -1.6754   22.6829 O   0  0  0  0  0  0  0  0  0  0  0  0
   12.1098    0.0177   23.9581 C   0  0  0  0  0  0  0  0  0  0  0  0
   11.7371    1.4546   24.0602 C   0  0  0  0  0  0  0  0  0  0  0  0
   12.5831    2.2261   24.3460 O   0  0  0  0  0  0  0  0  0  0  0  0
   10.4295    1.8643   23.8394 N   0  0  0  0  0  0  0  0  0  0  0  0
   10.1405    2.9379   23.5304 C   0  0  0  0  0  0  0  0  0  0  0  0
    9.6952    4.1459   23.6351 C   0  0  0  0  0  0  0  0  0  0  0  0
    9.9898    5.2973   22.9208 N   0  3  0  0  0  0  0  0  0  0  0  0
    9.4504    6.0592   23.2793 H   0  0  0  0  0  0  0  0  0  0  0  0
    8.2448    4.8242   25.0721 H   0  0  0  0  0  0  0  0  0  0  0  0
    8.8020    3.9602   24.7522 C   0  0  0  0  0  0  0  0  0  0  0  0
    8.5570    2.5307   25.5039 S   0  0  0  0  0  0  0  0  0  0  0  0
    7.9110   -2.2670   23.0122 H   0  0  0  0  0  0  0  0  0  0  0  0
   10.3839   -3.0967   22.9648 H   0  0  0  0  0  0  0  0  0  0  0  0
    9.6978    1.1923   23.9543 H   0  0  0  0  0  0  0  0  0  0  0  0
   10.4223    2.9234   22.4879 H   0  0  0  0  0  0  0  0  0  0  0  0
    9.7680    5.1568   21.9558 H   0  0  0  0  0  0  0  0  0  0  0  0
   10.1632   -0.7358   22.2697 H   0  0  0  0  0  0  0  0  0  0  0  0
   10.9635    5.5061   23.0120 H   0  0  0  0  0  0  0  0  0  0  0  0
 20 21  1  0  0  0  0
 19 20  1  0  0  0  0
 18 19  2  0  0  0  0
 19 23  1  0  0  0  0
 22 23  1  0  0  0  0
 17 18  1  0  0  0  0
 23 24  2  0  0  0  0
 15 16  2  0  0  0  0
 15 17  1  0  0  0  0
 14 15  1  0  0  0  0
 11 12  1  0  0  0  0
  8 14  2  0  0  0  0
  9 14  1  0  0  0  0
  8 13  1  0  0  0  0
  7  8  1  0  0  0  0
 11 13  1  0  0  0  0
  9 11  1  0  0  0  0
 10 11  1  0  0  0  0
  6  7  2  3  0  0  0
  5  6  1  0  0  0  0
  2  5  1  0  0  0  0
  2  3  1  0  0  0  0
  1  2  1  0  0  0  0
  2  4  1  0  0  0  0
  5 25  1  0  0  0  0
  6 26  1  0  0  0  0
 17 27  1  0  0  0  0
 18 28  1  0  0  0  0
 20 29  1  0  0  0  0
  7 30  1  0  0  0  0
 20 31  1  0  0  0  0
M  CHG  2   7   1  20   1
M  END
> <Chemgauss4>
-7.649684

$$$$
