MODEL 1
REMARK VINA RESULT:    -6.424      0.000      0.000
REMARK INTER + INTRA:         -10.782
REMARK INTER:                  -9.428
REMARK INTRA:                  -1.354
REMARK UNBOUND:                -1.354
REMARK  8 active torsions:
REMARK  status: ('A' for Active; 'I' for Inactive)
REMARK    1  A    between atoms: S_2  and  N_5 
REMARK    2  A    between atoms: N_5  and  C_7 
REMARK    3  A    between atoms: C_7  and  C_8 
REMARK    4  A    between atoms: C_9  and  C_10 
REMARK    5  A    between atoms: C_10  and  C_11 
REMARK    6  A    between atoms: C_11  and  C_12 
REMARK    7  A    between atoms: C_12  and  C_13 
REMARK    8  A    between atoms: C_15  and  C_16 
REMARK       I    between atoms: C_16  and  N_18 
ROOT
HETATM    1  C   UNL     1       9.027   0.483  21.422  1.00  0.00    -0.017 A 
HETATM    2  C   UNL     1      10.108  -0.085  21.784  1.00  0.00     0.082 A 
HETATM    3  C   UNL     1      10.485   0.852  22.378  1.00  0.00     0.031 A 
ENDROOT
BRANCH   3   4
HETATM    4  C   UNL     1      11.020   1.840  23.158  1.00  0.00     0.254 C 
HETATM    5  O   UNL     1      11.684   1.485  24.031  1.00  0.00    -0.268 OA
HETATM    6  N   UNL     1      10.668   3.053  22.752  1.00  0.00    -0.315 N 
HETATM    7  C   UNL     1      11.094   4.041  23.337  1.00  0.00     0.108 A 
ATOM      8  HN  UNL     1      10.044   3.163  21.953  1.00  0.00     0.170 HD
HETATM    9  C   UNL     1      12.204   4.745  23.517  1.00  0.00    -0.011 A 
HETATM   10  C   UNL     1      10.070   5.004  24.176  1.00  0.00    -0.008 A 
HETATM   11  N   UNL     1      12.992   5.559  23.832  1.00  0.00    -0.331 N 
HETATM   12  C   UNL     1      12.019   6.257  24.535  1.00  0.00     0.098 A 
ATOM     13  HN  UNL     1      13.987   5.697  23.658  1.00  0.00     0.175 HD
HETATM   14  C   UNL     1      10.809   6.049  24.715  1.00  0.00     0.031 A 
HETATM   15  C   UNL     1       9.082   4.737  24.191  1.00  0.00     0.026 C 
ENDBRANCH   3   4
BRANCH   1  16
HETATM   16  C   UNL     1       7.969   0.579  20.864  1.00  0.00     0.108 C 
BRANCH  16  17
HETATM   17  N   UNL     1       6.868   0.864  20.688  1.00  0.00    -0.295 N 
ATOM     18  HN  UNL     1       6.407   1.409  21.416  1.00  0.00     0.177 HD
BRANCH  17  19
HETATM   19  S   UNL     1       5.987   0.478  19.391  1.00  0.00     0.226 S 
HETATM   20  C   UNL     1       4.530   1.587  19.535  1.00  0.00     0.186 C 
HETATM   21  O   UNL     1       6.624   0.836  18.146  1.00  0.00    -0.206 OA
HETATM   22  O   UNL     1       5.471  -0.846  19.382  1.00  0.00    -0.206 OA
ENDBRANCH  17  19
ENDBRANCH  16  17
ENDBRANCH   1  16
BRANCH   2  23
HETATM   23  C   UNL     1      10.233  -1.603  22.521  1.00  0.00    -0.012 C 
BRANCH  23  24
HETATM   24  C   UNL     1      10.287  -1.742  23.606  1.00  0.00    -0.003 C 
BRANCH  24  25
HETATM   25  C   UNL     1       9.330  -1.839  24.530  1.00  0.00    -0.001 C 
BRANCH  25  26
HETATM   26  C   UNL     1       9.324  -0.865  25.432  1.00  0.00    -0.010 C 
HETATM   27  C   UNL     1       8.719   0.023  25.575  1.00  0.00     0.011 C 
ENDBRANCH  25  26
ENDBRANCH  24  25
ENDBRANCH  23  24
ENDBRANCH   2  23
TORSDOF 8
ENDMDL
MODEL 2
REMARK VINA RESULT:    -6.336     13.837     15.937
REMARK INTER + INTRA:         -10.653
REMARK INTER:                  -9.249
REMARK INTRA:                  -1.404
REMARK UNBOUND:                -1.354
REMARK  8 active torsions:
REMARK  status: ('A' for Active; 'I' for Inactive)
REMARK    1  A    between atoms: S_2  and  N_5 
REMARK    2  A    between atoms: N_5  and  C_7 
REMARK    3  A    between atoms: C_7  and  C_8 
REMARK    4  A    between atoms: C_9  and  C_10 
REMARK    5  A    between atoms: C_10  and  C_11 
REMARK    6  A    between atoms: C_11  and  C_12 
REMARK    7  A    between atoms: C_12  and  C_13 
REMARK    8  A    between atoms: C_15  and  C_16 
REMARK       I    between atoms: C_16  and  N_18 
ROOT
HETATM    1  C   UNL     1      23.634  -2.900  24.005  1.00  0.00    -0.017 A 
HETATM    2  C   UNL     1      24.124  -1.787  23.627  1.00  0.00     0.082 A 
HETATM    3  C   UNL     1      23.683  -1.879  22.545  1.00  0.00     0.031 A 
ENDROOT
BRANCH   3   4
HETATM    4  C   UNL     1      23.181  -1.822  21.273  1.00  0.00     0.254 C 
HETATM    5  O   UNL     1      22.032  -1.844  21.188  1.00  0.00    -0.268 OA
HETATM    6  N   UNL     1      24.135  -1.748  20.355  1.00  0.00    -0.315 N 
HETATM    7  C   UNL     1      23.836  -1.663  19.170  1.00  0.00     0.108 A 
ATOM      8  HN  UNL     1      25.116  -1.762  20.634  1.00  0.00     0.170 HD
HETATM    9  C   UNL     1      23.327  -0.817  18.285  1.00  0.00    -0.011 A 
HETATM   10  C   UNL     1      24.188  -2.889  18.144  1.00  0.00    -0.008 A 
HETATM   11  N   UNL     1      22.948  -0.298  17.300  1.00  0.00    -0.331 N 
HETATM   12  C   UNL     1      23.268  -1.428  16.558  1.00  0.00     0.098 A 
ATOM     13  HN  UNL     1      22.547   0.613  17.079  1.00  0.00     0.175 HD
HETATM   14  C   UNL     1      23.763  -2.521  16.874  1.00  0.00     0.031 A 
HETATM   15  C   UNL     1      24.650  -3.713  18.539  1.00  0.00     0.026 C 
ENDBRANCH   3   4
BRANCH   1  16
HETATM   16  C   UNL     1      23.413  -3.803  24.765  1.00  0.00     0.108 C 
BRANCH  16  17
HETATM   17  N   UNL     1      23.618  -4.682  25.479  1.00  0.00    -0.295 N 
ATOM     18  HN  UNL     1      23.281  -4.590  26.437  1.00  0.00     0.177 HD
BRANCH  17  19
HETATM   19  S   UNL     1      24.391  -6.047  25.100  1.00  0.00     0.226 S 
HETATM   20  C   UNL     1      26.136  -5.670  25.535  1.00  0.00     0.186 C 
HETATM   21  O   UNL     1      24.016  -7.162  25.938  1.00  0.00    -0.206 OA
HETATM   22  O   UNL     1      24.395  -6.378  23.718  1.00  0.00    -0.206 OA
ENDBRANCH  17  19
ENDBRANCH  16  17
ENDBRANCH   1  16
BRANCH   2  23
HETATM   23  C   UNL     1      23.964  -0.307  24.431  1.00  0.00    -0.012 C 
BRANCH  23  24
HETATM   24  C   UNL     1      23.049   0.292  24.411  1.00  0.00    -0.003 C 
BRANCH  24  25
HETATM   25  C   UNL     1      21.941   0.235  25.151  1.00  0.00    -0.001 C 
BRANCH  25  26
HETATM   26  C   UNL     1      20.928  -0.415  24.589  1.00  0.00    -0.010 C 
HETATM   27  C   UNL     1      20.448  -1.368  24.780  1.00  0.00     0.011 C 
ENDBRANCH  25  26
ENDBRANCH  24  25
ENDBRANCH  23  24
ENDBRANCH   2  23
TORSDOF 8
ENDMDL
MODEL 3
REMARK VINA RESULT:    -6.137      3.250      6.269
REMARK INTER + INTRA:         -10.361
REMARK INTER:                  -9.211
REMARK INTRA:                  -1.150
REMARK UNBOUND:                -1.354
REMARK  8 active torsions:
REMARK  status: ('A' for Active; 'I' for Inactive)
REMARK    1  A    between atoms: S_2  and  N_5 
REMARK    2  A    between atoms: N_5  and  C_7 
REMARK    3  A    between atoms: C_7  and  C_8 
REMARK    4  A    between atoms: C_9  and  C_10 
REMARK    5  A    between atoms: C_10  and  C_11 
REMARK    6  A    between atoms: C_11  and  C_12 
REMARK    7  A    between atoms: C_12  and  C_13 
REMARK    8  A    between atoms: C_15  and  C_16 
REMARK       I    between atoms: C_16  and  N_18 
ROOT
HETATM    1  C   UNL     1       7.908   0.530  21.669  1.00  0.00    -0.017 A 
HETATM    2  C   UNL     1       8.466   0.809  22.779  1.00  0.00     0.082 A 
HETATM    3  C   UNL     1       8.493  -0.310  23.127  1.00  0.00     0.031 A 
ENDROOT
BRANCH   3   4
HETATM    4  C   UNL     1       8.648  -1.571  23.634  1.00  0.00     0.254 C 
HETATM    5  O   UNL     1       9.578  -2.146  23.270  1.00  0.00    -0.268 OA
HETATM    6  N   UNL     1       7.675  -1.904  24.473  1.00  0.00    -0.315 N 
HETATM    7  C   UNL     1       7.694  -2.994  25.028  1.00  0.00     0.108 A 
ATOM      8  HN  UNL     1       6.913  -1.251  24.655  1.00  0.00     0.170 HD
HETATM    9  C   UNL     1       8.337  -3.670  25.972  1.00  0.00    -0.011 A 
HETATM   10  C   UNL     1       6.553  -4.115  24.678  1.00  0.00    -0.008 A 
HETATM   11  N   UNL     1       8.685  -4.483  26.747  1.00  0.00    -0.331 N 
HETATM   12  C   UNL     1       7.684  -5.347  26.322  1.00  0.00     0.098 A 
ATOM     13  HN  UNL     1       9.423  -4.533  27.449  1.00  0.00     0.175 HD
HETATM   14  C   UNL     1       6.799  -5.237  25.459  1.00  0.00     0.031 A 
HETATM   15  C   UNL     1       5.848  -3.863  23.980  1.00  0.00     0.026 C 
ENDBRANCH   3   4
BRANCH   1  16
HETATM   16  C   UNL     1       7.417   0.758  20.597  1.00  0.00     0.108 C 
BRANCH  16  17
HETATM   17  N   UNL     1       7.090   0.591  19.507  1.00  0.00    -0.295 N 
ATOM     18  HN  UNL     1       7.741   0.883  18.777  1.00  0.00     0.177 HD
BRANCH  17  19
HETATM   19  S   UNL     1       5.695  -0.063  19.026  1.00  0.00     0.226 S 
HETATM   20  C   UNL     1       5.622  -1.632  19.979  1.00  0.00     0.186 C 
HETATM   21  O   UNL     1       4.539   0.696  19.443  1.00  0.00    -0.206 OA
HETATM   22  O   UNL     1       5.640  -0.435  17.656  1.00  0.00    -0.206 OA
ENDBRANCH  17  19
ENDBRANCH  16  17
ENDBRANCH   1  16
BRANCH   2  23
HETATM   23  C   UNL     1       9.863   1.742  22.980  1.00  0.00    -0.012 C 
BRANCH  23  24
HETATM   24  C   UNL     1      10.486   1.705  23.879  1.00  0.00    -0.003 C 
BRANCH  24  25
HETATM   25  C   UNL     1      11.784   1.446  24.042  1.00  0.00    -0.001 C 
BRANCH  25  26
HETATM   26  C   UNL     1      12.094   0.156  24.091  1.00  0.00    -0.010 C 
HETATM   27  C   UNL     1      13.021  -0.389  24.225  1.00  0.00     0.011 C 
ENDBRANCH  25  26
ENDBRANCH  24  25
ENDBRANCH  23  24
ENDBRANCH   2  23
TORSDOF 8
ENDMDL
MODEL 4
REMARK VINA RESULT:    -5.978      4.389      7.659
REMARK INTER + INTRA:         -10.128
REMARK INTER:                  -9.275
REMARK INTRA:                  -0.853
REMARK UNBOUND:                -1.354
REMARK  8 active torsions:
REMARK  status: ('A' for Active; 'I' for Inactive)
REMARK    1  A    between atoms: S_2  and  N_5 
REMARK    2  A    between atoms: N_5  and  C_7 
REMARK    3  A    between atoms: C_7  and  C_8 
REMARK    4  A    between atoms: C_9  and  C_10 
REMARK    5  A    between atoms: C_10  and  C_11 
REMARK    6  A    between atoms: C_11  and  C_12 
REMARK    7  A    between atoms: C_12  and  C_13 
REMARK    8  A    between atoms: C_15  and  C_16 
REMARK       I    between atoms: C_16  and  N_18 
ROOT
HETATM    1  C   UNL     1       7.491  -1.867  22.283  1.00  0.00    -0.017 A 
HETATM    2  C   UNL     1       8.475  -1.894  23.091  1.00  0.00     0.082 A 
HETATM    3  C   UNL     1       8.086  -2.851  23.645  1.00  0.00     0.031 A 
ENDROOT
BRANCH   3   4
HETATM    4  C   UNL     1       7.788  -3.992  24.338  1.00  0.00     0.254 C 
HETATM    5  O   UNL     1       8.584  -4.825  24.297  1.00  0.00    -0.268 OA
HETATM    6  N   UNL     1       6.611  -3.924  24.946  1.00  0.00    -0.315 N 
HETATM    7  C   UNL     1       6.221  -4.862  25.630  1.00  0.00     0.108 A 
ATOM      8  HN  UNL     1       6.031  -3.091  24.845  1.00  0.00     0.170 HD
HETATM    9  C   UNL     1       6.450  -5.473  26.784  1.00  0.00    -0.011 A 
HETATM   10  C   UNL     1       4.918  -5.736  25.160  1.00  0.00    -0.008 A 
HETATM   11  N   UNL     1       6.400  -6.179  27.724  1.00  0.00    -0.331 N 
HETATM   12  C   UNL     1       5.313  -6.855  27.182  1.00  0.00     0.098 A 
ATOM     13  HN  UNL     1       6.936  -6.262  28.587  1.00  0.00     0.175 HD
HETATM   14  C   UNL     1       4.688  -6.712  26.120  1.00  0.00     0.031 A 
HETATM   15  C   UNL     1       4.466  -5.467  24.282  1.00  0.00     0.026 C 
ENDBRANCH   3   4
BRANCH   1  16
HETATM   16  C   UNL     1       6.818  -1.444  21.384  1.00  0.00     0.108 C 
BRANCH  16  17
HETATM   17  N   UNL     1       6.053  -0.787  20.831  1.00  0.00    -0.295 N 
ATOM     18  HN  UNL     1       5.067  -0.947  21.039  1.00  0.00     0.177 HD
BRANCH  17  19
HETATM   19  S   UNL     1       6.398   0.366  19.755  1.00  0.00     0.226 S 
HETATM   20  C   UNL     1       5.588   1.854  20.467  1.00  0.00     0.186 C 
HETATM   21  O   UNL     1       7.805   0.684  19.696  1.00  0.00    -0.206 OA
HETATM   22  O   UNL     1       5.822   0.186  18.468  1.00  0.00    -0.206 OA
ENDBRANCH  17  19
ENDBRANCH  16  17
ENDBRANCH   1  16
BRANCH   2  23
HETATM   23  C   UNL     1      10.111  -1.827  22.666  1.00  0.00    -0.012 C 
BRANCH  23  24
HETATM   24  C   UNL     1      10.904  -1.550  23.367  1.00  0.00    -0.003 C 
BRANCH  24  25
HETATM   25  C   UNL     1      11.090  -0.447  24.095  1.00  0.00    -0.001 C 
BRANCH  25  26
HETATM   26  C   UNL     1      12.358  -0.081  24.239  1.00  0.00    -0.010 C 
HETATM   27  C   UNL     1      13.305  -0.599  24.140  1.00  0.00     0.011 C 
ENDBRANCH  25  26
ENDBRANCH  24  25
ENDBRANCH  23  24
ENDBRANCH   2  23
TORSDOF 8
ENDMDL
MODEL 5
REMARK VINA RESULT:    -5.892      5.137      8.773
REMARK INTER + INTRA:         -10.001
REMARK INTER:                  -8.573
REMARK INTRA:                  -1.428
REMARK UNBOUND:                -1.354
REMARK  8 active torsions:
REMARK  status: ('A' for Active; 'I' for Inactive)
REMARK    1  A    between atoms: S_2  and  N_5 
REMARK    2  A    between atoms: N_5  and  C_7 
REMARK    3  A    between atoms: C_7  and  C_8 
REMARK    4  A    between atoms: C_9  and  C_10 
REMARK    5  A    between atoms: C_10  and  C_11 
REMARK    6  A    between atoms: C_11  and  C_12 
REMARK    7  A    between atoms: C_12  and  C_13 
REMARK    8  A    between atoms: C_15  and  C_16 
REMARK       I    between atoms: C_16  and  N_18 
ROOT
HETATM    1  C   UNL     1       9.170  -1.506  25.148  1.00  0.00    -0.017 A 
HETATM    2  C   UNL     1       8.980  -2.555  24.452  1.00  0.00     0.082 A 
HETATM    3  C   UNL     1       8.631  -3.189  25.374  1.00  0.00     0.031 A 
ENDROOT
BRANCH   3   4
HETATM    4  C   UNL     1       8.147  -4.027  26.341  1.00  0.00     0.254 C 
HETATM    5  O   UNL     1       8.940  -4.539  27.002  1.00  0.00    -0.268 OA
HETATM    6  N   UNL     1       6.822  -4.092  26.338  1.00  0.00    -0.315 N 
HETATM    7  C   UNL     1       6.243  -4.782  27.168  1.00  0.00     0.108 A 
ATOM      8  HN  UNL     1       6.286  -3.568  25.647  1.00  0.00     0.170 HD
HETATM    9  C   UNL     1       5.948  -4.827  28.460  1.00  0.00    -0.011 A 
HETATM   10  C   UNL     1       5.412  -6.112  26.695  1.00  0.00    -0.008 A 
HETATM   11  N   UNL     1       5.521  -5.117  29.517  1.00  0.00    -0.331 N 
HETATM   12  C   UNL     1       4.895  -6.234  28.979  1.00  0.00     0.098 A 
ATOM     13  HN  UNL     1       5.584  -4.712  30.450  1.00  0.00     0.175 HD
HETATM   14  C   UNL     1       4.844  -6.687  27.825  1.00  0.00     0.031 A 
HETATM   15  C   UNL     1       5.413  -6.334  25.696  1.00  0.00     0.026 C 
ENDBRANCH   3   4
BRANCH   1  16
HETATM   16  C   UNL     1       9.485  -0.366  25.355  1.00  0.00     0.108 C 
BRANCH  16  17
HETATM   17  N   UNL     1       9.956   0.668  25.177  1.00  0.00    -0.295 N 
ATOM     18  HN  UNL     1       9.557   1.455  25.690  1.00  0.00     0.177 HD
BRANCH  17  19
HETATM   19  S   UNL     1      11.191   0.988  24.188  1.00  0.00     0.226 S 
HETATM   20  C   UNL     1      10.562   0.445  22.549  1.00  0.00     0.186 C 
HETATM   21  O   UNL     1      11.457   2.401  24.050  1.00  0.00    -0.206 OA
HETATM   22  O   UNL     1      12.369   0.230  24.426  1.00  0.00    -0.206 OA
ENDBRANCH  17  19
ENDBRANCH  16  17
ENDBRANCH   1  16
BRANCH   2  23
HETATM   23  C   UNL     1       8.071  -2.650  23.028  1.00  0.00    -0.012 C 
BRANCH  23  24
HETATM   24  C   UNL     1       7.002  -2.884  23.011  1.00  0.00    -0.003 C 
BRANCH  24  25
HETATM   25  C   UNL     1       6.341  -3.952  22.562  1.00  0.00    -0.001 C 
BRANCH  25  26
HETATM   26  C   UNL     1       7.109  -4.978  22.213  1.00  0.00    -0.010 C 
HETATM   27  C   UNL     1       6.954  -6.050  22.165  1.00  0.00     0.011 C 
ENDBRANCH  25  26
ENDBRANCH  24  25
ENDBRANCH  23  24
ENDBRANCH   2  23
TORSDOF 8
ENDMDL
MODEL 6
REMARK VINA RESULT:    -5.872     24.682     27.199
REMARK INTER + INTRA:          -9.972
REMARK INTER:                  -8.480
REMARK INTRA:                  -1.491
REMARK UNBOUND:                -1.354
REMARK  8 active torsions:
REMARK  status: ('A' for Active; 'I' for Inactive)
REMARK    1  A    between atoms: S_2  and  N_5 
REMARK    2  A    between atoms: N_5  and  C_7 
REMARK    3  A    between atoms: C_7  and  C_8 
REMARK    4  A    between atoms: C_9  and  C_10 
REMARK    5  A    between atoms: C_10  and  C_11 
REMARK    6  A    between atoms: C_11  and  C_12 
REMARK    7  A    between atoms: C_12  and  C_13 
REMARK    8  A    between atoms: C_15  and  C_16 
REMARK       I    between atoms: C_16  and  N_18 
ROOT
HETATM    1  C   UNL     1      10.599  19.891   2.139  1.00  0.00    -0.017 A 
HETATM    2  C   UNL     1      10.341  19.873   0.892  1.00  0.00     0.082 A 
HETATM    3  C   UNL     1       9.677  18.910   0.972  1.00  0.00     0.031 A 
ENDROOT
BRANCH   3   4
HETATM    4  C   UNL     1       8.830  17.837   0.924  1.00  0.00     0.254 C 
HETATM    5  O   UNL     1       7.988  17.899   0.140  1.00  0.00    -0.268 OA
HETATM    6  N   UNL     1       9.147  16.901   1.810  1.00  0.00    -0.315 N 
HETATM    7  C   UNL     1       8.494  15.867   1.866  1.00  0.00     0.108 A 
ATOM      8  HN  UNL     1       9.934  17.043   2.444  1.00  0.00     0.170 HD
HETATM    9  C   UNL     1       8.269  14.742   1.200  1.00  0.00    -0.011 A 
HETATM   10  C   UNL     1       7.585  15.539   3.187  1.00  0.00    -0.008 A 
HETATM   11  N   UNL     1       7.900  13.677   0.864  1.00  0.00    -0.331 N 
HETATM   12  C   UNL     1       7.144  13.552   2.023  1.00  0.00     0.098 A 
ATOM     13  HN  UNL     1       8.067  13.085   0.051  1.00  0.00     0.175 HD
HETATM   14  C   UNL     1       6.975  14.307   2.993  1.00  0.00     0.031 A 
HETATM   15  C   UNL     1       7.584  16.233   3.939  1.00  0.00     0.026 C 
ENDBRANCH   3   4
BRANCH   1  16
HETATM   16  C   UNL     1      11.099  20.297   3.153  1.00  0.00     0.108 C 
BRANCH  16  17
HETATM   17  N   UNL     1      11.690  20.285   4.139  1.00  0.00    -0.295 N 
ATOM     18  HN  UNL     1      11.870  21.185   4.584  1.00  0.00     0.177 HD
BRANCH  17  19
HETATM   19  S   UNL     1      12.262  18.971   4.883  1.00  0.00     0.226 S 
HETATM   20  C   UNL     1      10.735  18.071   5.368  1.00  0.00     0.186 C 
HETATM   21  O   UNL     1      12.970  18.079   3.996  1.00  0.00    -0.206 OA
HETATM   22  O   UNL     1      12.969  19.218   6.091  1.00  0.00    -0.206 OA
ENDBRANCH  17  19
ENDBRANCH  16  17
ENDBRANCH   1  16
BRANCH   2  23
HETATM   23  C   UNL     1       9.757  21.173  -0.020  1.00  0.00    -0.012 C 
BRANCH  23  24
HETATM   24  C   UNL     1       8.703  21.294  -0.289  1.00  0.00    -0.003 C 
BRANCH  24  25
HETATM   25  C   UNL     1       7.718  21.976   0.297  1.00  0.00    -0.001 C 
BRANCH  25  26
HETATM   26  C   UNL     1       6.710  21.233   0.738  1.00  0.00    -0.010 C 
HETATM   27  C   UNL     1       6.500  20.733   1.676  1.00  0.00     0.011 C 
ENDBRANCH  25  26
ENDBRANCH  24  25
ENDBRANCH  23  24
ENDBRANCH   2  23
TORSDOF 8
ENDMDL
MODEL 7
REMARK VINA RESULT:    -5.863     21.930     24.788
REMARK INTER + INTRA:          -9.959
REMARK INTER:                  -9.035
REMARK INTRA:                  -0.924
REMARK UNBOUND:                -1.354
REMARK  8 active torsions:
REMARK  status: ('A' for Active; 'I' for Inactive)
REMARK    1  A    between atoms: S_2  and  N_5 
REMARK    2  A    between atoms: N_5  and  C_7 
REMARK    3  A    between atoms: C_7  and  C_8 
REMARK    4  A    between atoms: C_9  and  C_10 
REMARK    5  A    between atoms: C_10  and  C_11 
REMARK    6  A    between atoms: C_11  and  C_12 
REMARK    7  A    between atoms: C_12  and  C_13 
REMARK    8  A    between atoms: C_15  and  C_16 
REMARK       I    between atoms: C_16  and  N_18 
ROOT
HETATM    1  C   UNL     1      10.055  15.639   3.787  1.00  0.00    -0.017 A 
HETATM    2  C   UNL     1       9.858  15.128   2.638  1.00  0.00     0.082 A 
HETATM    3  C   UNL     1       9.342  14.171   3.073  1.00  0.00     0.031 A 
ENDROOT
BRANCH   3   4
HETATM    4  C   UNL     1       8.667  13.036   3.434  1.00  0.00     0.254 C 
HETATM    5  O   UNL     1       9.226  12.330   4.153  1.00  0.00    -0.268 OA
HETATM    6  N   UNL     1       7.466  12.961   2.875  1.00  0.00    -0.315 N 
HETATM    7  C   UNL     1       6.734  12.013   3.127  1.00  0.00     0.108 A 
ATOM      8  HN  UNL     1       7.153  13.693   2.237  1.00  0.00     0.170 HD
HETATM    9  C   UNL     1       5.989  11.504   4.099  1.00  0.00    -0.011 A 
HETATM   10  C   UNL     1       6.356  10.932   1.956  1.00  0.00    -0.008 A 
HETATM   11  N   UNL     1       5.249  10.849   4.737  1.00  0.00    -0.331 N 
HETATM   12  C   UNL     1       5.050   9.992   3.662  1.00  0.00     0.098 A 
ATOM     13  HN  UNL     1       4.896  10.893   5.692  1.00  0.00     0.175 HD
HETATM   14  C   UNL     1       5.503   9.984   2.507  1.00  0.00     0.031 A 
HETATM   15  C   UNL     1       6.764  11.084   1.030  1.00  0.00     0.026 C 
ENDBRANCH   3   4
BRANCH   1  16
HETATM   16  C   UNL     1      10.444  16.458   4.575  1.00  0.00     0.108 C 
BRANCH  16  17
HETATM   17  N   UNL     1      11.166  17.025   5.267  1.00  0.00    -0.295 N 
ATOM     18  HN  UNL     1      11.336  16.625   6.190  1.00  0.00     0.177 HD
BRANCH  17  19
HETATM   19  S   UNL     1      11.935  18.399   4.911  1.00  0.00     0.226 S 
HETATM   20  C   UNL     1      10.675  19.348   3.968  1.00  0.00     0.186 C 
HETATM   21  O   UNL     1      12.231  19.202   6.074  1.00  0.00    -0.206 OA
HETATM   22  O   UNL     1      13.051  18.261   4.042  1.00  0.00    -0.206 OA
ENDBRANCH  17  19
ENDBRANCH  16  17
ENDBRANCH   1  16
BRANCH   2  23
HETATM   23  C   UNL     1       9.129  15.900   1.320  1.00  0.00    -0.012 C 
BRANCH  23  24
HETATM   24  C   UNL     1       8.940  16.977   1.283  1.00  0.00    -0.003 C 
BRANCH  24  25
HETATM   25  C   UNL     1       7.801  17.672   1.280  1.00  0.00    -0.001 C 
BRANCH  25  26
HETATM   26  C   UNL     1       7.871  18.855   0.680  1.00  0.00    -0.010 C 
HETATM   27  C   UNL     1       8.116  19.173  -0.327  1.00  0.00     0.011 C 
ENDBRANCH  25  26
ENDBRANCH  24  25
ENDBRANCH  23  24
ENDBRANCH   2  23
TORSDOF 8
ENDMDL
MODEL 8
REMARK VINA RESULT:    -5.749      5.994      8.720
REMARK INTER + INTRA:          -9.791
REMARK INTER:                  -8.622
REMARK INTRA:                  -1.169
REMARK UNBOUND:                -1.354
REMARK  8 active torsions:
REMARK  status: ('A' for Active; 'I' for Inactive)
REMARK    1  A    between atoms: S_2  and  N_5 
REMARK    2  A    between atoms: N_5  and  C_7 
REMARK    3  A    between atoms: C_7  and  C_8 
REMARK    4  A    between atoms: C_9  and  C_10 
REMARK    5  A    between atoms: C_10  and  C_11 
REMARK    6  A    between atoms: C_11  and  C_12 
REMARK    7  A    between atoms: C_12  and  C_13 
REMARK    8  A    between atoms: C_15  and  C_16 
REMARK       I    between atoms: C_16  and  N_18 
ROOT
HETATM    1  C   UNL     1       5.614  -4.588  24.432  1.00  0.00    -0.017 A 
HETATM    2  C   UNL     1       4.644  -3.846  24.071  1.00  0.00     0.082 A 
HETATM    3  C   UNL     1       5.169  -3.522  23.075  1.00  0.00     0.031 A 
ENDROOT
BRANCH   3   4
HETATM    4  C   UNL     1       5.631  -3.109  21.855  1.00  0.00     0.254 C 
HETATM    5  O   UNL     1       5.827  -3.944  21.086  1.00  0.00    -0.268 OA
HETATM    6  N   UNL     1       5.767  -1.791  21.784  1.00  0.00    -0.315 N 
HETATM    7  C   UNL     1       6.145  -1.272  20.742  1.00  0.00     0.108 A 
ATOM      8  HN  UNL     1       5.555  -1.211  22.596  1.00  0.00     0.170 HD
HETATM    9  C   UNL     1       5.741  -1.000  19.509  1.00  0.00    -0.011 A 
HETATM   10  C   UNL     1       7.600  -0.523  20.679  1.00  0.00    -0.008 A 
HETATM   11  N   UNL     1       5.658  -0.610  18.402  1.00  0.00    -0.331 N 
HETATM   12  C   UNL     1       6.926  -0.051  18.483  1.00  0.00     0.098 A 
ATOM     13  HN  UNL     1       4.943  -0.661  17.677  1.00  0.00     0.175 HD
HETATM   14  C   UNL     1       7.764  -0.011  19.398  1.00  0.00     0.031 A 
HETATM   15  C   UNL     1       8.164  -0.522  21.533  1.00  0.00     0.026 C 
ENDBRANCH   3   4
BRANCH   1  16
HETATM   16  C   UNL     1       6.218  -5.336  25.151  1.00  0.00     0.108 C 
BRANCH  16  17
HETATM   17  N   UNL     1       6.457  -5.983  26.072  1.00  0.00    -0.295 N 
ATOM     18  HN  UNL     1       6.215  -6.972  26.020  1.00  0.00     0.177 HD
BRANCH  17  19
HETATM   19  S   UNL     1       7.142  -5.465  27.439  1.00  0.00     0.226 S 
HETATM   20  C   UNL     1       5.880  -4.322  28.129  1.00  0.00     0.186 C 
HETATM   21  O   UNL     1       7.299  -6.508  28.425  1.00  0.00    -0.206 OA
HETATM   22  O   UNL     1       8.321  -4.689  27.270  1.00  0.00    -0.206 OA
ENDBRANCH  17  19
ENDBRANCH  16  17
ENDBRANCH   1  16
BRANCH   2  23
HETATM   23  C   UNL     1       3.016  -4.304  24.004  1.00  0.00    -0.012 C 
BRANCH  23  24
HETATM   24  C   UNL     1       2.658  -5.297  24.294  1.00  0.00    -0.003 C 
BRANCH  24  25
HETATM   25  C   UNL     1       2.502  -6.418  23.589  1.00  0.00    -0.001 C 
BRANCH  25  26
HETATM   26  C   UNL     1       2.653  -7.540  24.283  1.00  0.00    -0.010 C 
HETATM   27  C   UNL     1       3.371  -7.874  25.024  1.00  0.00     0.011 C 
ENDBRANCH  25  26
ENDBRANCH  24  25
ENDBRANCH  23  24
ENDBRANCH   2  23
TORSDOF 8
ENDMDL
MODEL 9
REMARK VINA RESULT:    -5.617      5.845      7.781
REMARK INTER + INTRA:          -9.598
REMARK INTER:                  -8.411
REMARK INTRA:                  -1.186
REMARK UNBOUND:                -1.354
REMARK  8 active torsions:
REMARK  status: ('A' for Active; 'I' for Inactive)
REMARK    1  A    between atoms: S_2  and  N_5 
REMARK    2  A    between atoms: N_5  and  C_7 
REMARK    3  A    between atoms: C_7  and  C_8 
REMARK    4  A    between atoms: C_9  and  C_10 
REMARK    5  A    between atoms: C_10  and  C_11 
REMARK    6  A    between atoms: C_11  and  C_12 
REMARK    7  A    between atoms: C_12  and  C_13 
REMARK    8  A    between atoms: C_15  and  C_16 
REMARK       I    between atoms: C_16  and  N_18 
ROOT
HETATM    1  C   UNL     1       5.834  -3.798  26.117  1.00  0.00    -0.017 A 
HETATM    2  C   UNL     1       5.441  -3.206  25.060  1.00  0.00     0.082 A 
HETATM    3  C   UNL     1       6.531  -2.957  24.709  1.00  0.00     0.031 A 
ENDROOT
BRANCH   3   4
HETATM    4  C   UNL     1       7.741  -2.653  24.146  1.00  0.00     0.254 C 
HETATM    5  O   UNL     1       8.397  -3.555  23.856  1.00  0.00    -0.268 OA
HETATM    6  N   UNL     1       7.935  -1.346  24.035  1.00  0.00    -0.315 N 
HETATM    7  C   UNL     1       8.963  -0.922  23.524  1.00  0.00     0.108 A 
ATOM      8  HN  UNL     1       7.228  -0.693  24.375  1.00  0.00     0.170 HD
HETATM    9  C   UNL     1       9.573  -0.814  22.351  1.00  0.00    -0.011 A 
HETATM   10  C   UNL     1      10.052  -0.098  24.428  1.00  0.00    -0.008 A 
HETATM   11  N   UNL     1      10.320  -0.553  21.481  1.00  0.00    -0.331 N 
HETATM   12  C   UNL     1      11.169   0.088  22.374  1.00  0.00     0.098 A 
ATOM     13  HN  UNL     1      10.338  -0.727  20.476  1.00  0.00     0.175 HD
HETATM   14  C   UNL     1      11.101   0.279  23.599  1.00  0.00     0.031 A 
HETATM   15  C   UNL     1       9.834   0.031  25.420  1.00  0.00     0.026 C 
ENDBRANCH   3   4
BRANCH   1  16
HETATM   16  C   UNL     1       5.715  -4.387  27.156  1.00  0.00     0.108 C 
BRANCH  16  17
HETATM   17  N   UNL     1       5.434  -4.585  28.254  1.00  0.00    -0.295 N 
ATOM     18  HN  UNL     1       4.712  -3.991  28.662  1.00  0.00     0.177 HD
BRANCH  17  19
HETATM   19  S   UNL     1       6.079  -5.717  29.206  1.00  0.00     0.226 S 
HETATM   20  C   UNL     1       4.733  -6.961  29.343  1.00  0.00     0.186 C 
HETATM   21  O   UNL     1       7.186  -6.412  28.592  1.00  0.00    -0.206 OA
HETATM   22  O   UNL     1       6.363  -5.301  30.535  1.00  0.00    -0.206 OA
ENDBRANCH  17  19
ENDBRANCH  16  17
ENDBRANCH   1  16
BRANCH   2  23
HETATM   23  C   UNL     1       4.357  -3.829  23.919  1.00  0.00    -0.012 C 
BRANCH  23  24
HETATM   24  C   UNL     1       4.673  -4.281  22.973  1.00  0.00    -0.003 C 
BRANCH  24  25
HETATM   25  C   UNL     1       5.137  -5.499  22.691  1.00  0.00    -0.001 C 
BRANCH  25  26
HETATM   26  C   UNL     1       6.285  -5.519  22.023  1.00  0.00    -0.010 C 
HETATM   27  C   UNL     1       7.091  -6.238  21.937  1.00  0.00     0.011 C 
ENDBRANCH  25  26
ENDBRANCH  24  25
ENDBRANCH  23  24
ENDBRANCH   2  23
TORSDOF 8
ENDMDL
