stable:False satoms:10 tatoms:24 sratio:0.4166666666666667
  -OEChem-07092417503D

 24 25  0     1  0  0  0  0  0999 V2000
    6.5545   -4.8625   26.5206 C   0  0  0  0  0  0  0  0  0  0  0  0
    8.2125   -4.3115   26.1085 S   0  0  0  0  0  0  0  0  0  0  0  0
    9.0641   -5.4788   26.0809 O   0  0  0  0  0  0  0  0  0  0  0  0
    8.5970   -3.4117   27.1546 O   0  0  0  0  0  0  0  0  0  0  0  0
    8.1139   -3.5592   24.6578 N   0  0  0  0  0  0  0  0  0  0  0  0
    8.9700   -2.9196   24.1435 C   0  0  0  0  0  0  0  0  0  0  0  0
    9.4281   -1.9377   23.4939 C   0  0  0  0  0  0  0  0  0  0  0  0
   10.3453   -1.0843   23.3011 C   0  0  1  0  0  0  0  0  0  0  0  0
   11.0233   -0.0380   24.2976 C   0  0  0  0  0  0  0  0  0  0  0  0
   12.0865    0.3159   24.2781 C   0  0  0  0  0  0  0  0  0  0  0  0
   13.1703   -0.2080   23.4268 C   0  0  0  0  0  0  0  0  0  0  0  0
   12.7222   -1.2390   22.6900 C   0  0  0  0  0  0  0  0  0  0  0  0
   11.7787   -1.7507   22.5334 C   0  0  0  0  0  0  0  0  0  0  0  0
    9.7331   -0.5280   22.3377 C   0  0  0  0  0  0  0  0  0  0  0  0
    9.0530    0.0476   21.3984 C   0  0  0  0  0  0  0  0  0  0  0  0
    9.5145    1.0196   20.9981 O   0  0  0  0  0  0  0  0  0  0  0  0
    7.9439   -0.5816   21.0470 N   0  0  0  0  0  0  0  0  0  0  0  0
    7.2207   -0.1460   20.1448 C   0  0  0  0  0  0  0  0  0  0  0  0
    7.2243   -0.0393   18.8599 C   0  0  0  0  0  0  0  0  0  0  0  0
    6.7658    0.3260   17.7583 N   0  0  0  0  0  0  0  0  0  0  0  0
    5.6623    0.8790   18.2458 C   0  0  0  0  0  0  0  0  0  0  0  0
    5.2390    0.9731   19.4075 C   0  0  0  0  0  0  0  0  0  0  0  0
    5.7922    0.5768   20.5467 C   0  0  0  0  0  0  0  0  0  0  0  0
    5.3688    0.6677   21.8657 C   0  0  0  0  0  0  0  0  0  0  0  0
 20 21  2  0  0  0  0
 19 20  1  0  0  0  0
 21 22  1  0  0  0  0
 18 19  2  0  0  0  0
 22 23  2  0  0  0  0
 18 23  1  0  0  0  0
 17 18  1  0  0  0  0
 23 24  1  0  0  0  0
 15 16  2  0  0  0  0
 15 17  1  0  0  0  0
 14 15  1  0  0  0  0
  8 14  1  0  0  0  0
 12 13  1  0  0  0  0
  8 13  1  0  0  0  0
 11 12  2  0  0  0  0
  7  8  1  0  0  0  0
  8  9  1  0  0  0  0
 10 11  1  0  0  0  0
  6  7  2  3  0  0  0
  5  6  1  0  0  0  0
  9 10  2  0  0  0  0
  2  5  1  0  0  0  0
  2  3  2  0  0  0  0
  1  2  1  0  0  0  0
  2  4  2  0  0  0  0
M  END
> <Shapegauss>
-286.439667

$$$$
