MODEL 1
REMARK VINA RESULT:    -5.641      0.000      0.000
REMARK INTER + INTRA:          -7.332
REMARK INTER:                  -6.960
REMARK INTRA:                  -0.372
REMARK UNBOUND:                -0.372
REMARK  4 active torsions:
REMARK  status: ('A' for Active; 'I' for Inactive)
REMARK    1  A    between atoms: C_5  and  C_8 
REMARK    2  A    between atoms: C_5  and  C_6 
REMARK    3  A    between atoms: C_8  and  C_13 
REMARK    4  A    between atoms: C_9  and  C_15 
REMARK       I    between atoms: C_9  and  N_11 
REMARK       I    between atoms: N_11  and  C_13 
ROOT
HETATM    1  O   UNL     1       8.606  -2.516  24.855  1.00  0.00    -0.267 OA
HETATM    2  C   UNL     1       7.466  -4.697  22.993  1.00  0.00     0.316 C 
HETATM    3  N   UNL     1       8.430  -3.650  22.917  1.00  0.00    -0.285 N 
HETATM    4  O   UNL     1       7.143  -5.305  22.016  1.00  0.00    -0.262 OA
HETATM    5  C   UNL     1       8.918  -2.674  23.716  1.00  0.00     0.262 C 
HETATM    6  H   UNL     1       8.778  -3.728  21.970  1.00  0.00     0.172 HD
ENDROOT
BRANCH   5   7
HETATM    7  C   UNL     1       9.913  -1.711  22.995  1.00  0.00     0.082 C 
HETATM    8  C   UNL     1       9.534  -1.174  21.878  1.00  0.00    -0.010 C 
HETATM    9  C   UNL     1       9.909   0.221  21.513  1.00  0.00     0.037 C 
BRANCH   7  10
HETATM   10  C   UNL     1      11.376  -1.305  23.292  1.00  0.00     0.232 C 
HETATM   11  O   UNL     1      12.261  -1.847  22.757  1.00  0.00    -0.283 OA
BRANCH  10  12
HETATM   12  C   UNL     1      12.086  -0.471  24.106  1.00  0.00     0.196 C 
HETATM   13  C   UNL     1      11.207   0.512  25.021  1.00  0.00     0.100 C 
HETATM   14  O   UNL     1      13.300  -0.391  24.306  1.00  0.00    -0.289 OA
ENDBRANCH  10  12
ENDBRANCH   7  10
ENDBRANCH   5   7
BRANCH   2  15
HETATM   15  C   UNL     1       6.798  -5.175  24.164  1.00  0.00     0.334 C 
HETATM   16  F   UNL     1       5.517  -5.244  24.318  1.00  0.00    -0.167 F 
HETATM   17  F   UNL     1       7.476  -5.416  25.247  1.00  0.00    -0.167 F 
ENDBRANCH   2  15
TORSDOF 4
ENDMDL
MODEL 2
REMARK VINA RESULT:    -5.513     24.766     25.818
REMARK INTER + INTRA:          -7.174
REMARK INTER:                  -6.879
REMARK INTRA:                  -0.295
REMARK UNBOUND:                -0.372
REMARK  4 active torsions:
REMARK  status: ('A' for Active; 'I' for Inactive)
REMARK    1  A    between atoms: C_5  and  C_8 
REMARK    2  A    between atoms: C_5  and  C_6 
REMARK    3  A    between atoms: C_8  and  C_13 
REMARK    4  A    between atoms: C_9  and  C_15 
REMARK       I    between atoms: C_9  and  N_11 
REMARK       I    between atoms: N_11  and  C_13 
ROOT
HETATM    1  O   UNL     1       8.888  12.095   4.051  1.00  0.00    -0.267 OA
HETATM    2  C   UNL     1       6.416  11.896   2.212  1.00  0.00     0.316 C 
HETATM    3  N   UNL     1       7.488  12.809   2.436  1.00  0.00    -0.285 N 
HETATM    4  O   UNL     1       5.506  12.184   1.493  1.00  0.00    -0.262 OA
HETATM    5  C   UNL     1       8.559  12.919   3.254  1.00  0.00     0.262 C 
HETATM    6  H   UNL     1       7.304  13.546   1.767  1.00  0.00     0.172 HD
ENDROOT
BRANCH   5   7
HETATM    7  C   UNL     1       9.325  14.271   3.107  1.00  0.00     0.082 C 
HETATM    8  C   UNL     1       9.143  14.956   2.022  1.00  0.00    -0.010 C 
HETATM    9  C   UNL     1       9.101  16.445   2.034  1.00  0.00     0.037 C 
BRANCH   7  10
HETATM   10  C   UNL     1      10.390  14.971   3.986  1.00  0.00     0.232 C 
HETATM   11  O   UNL     1      11.514  14.965   3.670  1.00  0.00    -0.283 OA
BRANCH  10  12
HETATM   12  C   UNL     1      10.497  15.622   5.180  1.00  0.00     0.196 C 
HETATM   13  C   UNL     1      10.831  17.188   5.083  1.00  0.00     0.100 C 
HETATM   14  O   UNL     1      10.316  15.217   6.330  1.00  0.00    -0.289 OA
ENDBRANCH  10  12
ENDBRANCH   7  10
ENDBRANCH   5   7
BRANCH   2  15
HETATM   15  C   UNL     1       6.277  10.577   2.747  1.00  0.00     0.334 C 
HETATM   16  F   UNL     1       5.913   9.533   2.078  1.00  0.00    -0.167 F 
HETATM   17  F   UNL     1       6.349  10.385   4.031  1.00  0.00    -0.167 F 
ENDBRANCH   2  15
TORSDOF 4
ENDMDL
MODEL 3
REMARK VINA RESULT:    -5.349      3.644      4.344
REMARK INTER + INTRA:          -6.972
REMARK INTER:                  -6.736
REMARK INTRA:                  -0.236
REMARK UNBOUND:                -0.372
REMARK  4 active torsions:
REMARK  status: ('A' for Active; 'I' for Inactive)
REMARK    1  A    between atoms: C_5  and  C_8 
REMARK    2  A    between atoms: C_5  and  C_6 
REMARK    3  A    between atoms: C_8  and  C_13 
REMARK    4  A    between atoms: C_9  and  C_15 
REMARK       I    between atoms: C_9  and  N_11 
REMARK       I    between atoms: N_11  and  C_13 
ROOT
HETATM    1  O   UNL     1       8.057  -1.568  21.936  1.00  0.00    -0.267 OA
HETATM    2  C   UNL     1       7.132   0.154  19.548  1.00  0.00     0.316 C 
HETATM    3  N   UNL     1       8.226   0.127  20.461  1.00  0.00    -0.285 N 
HETATM    4  O   UNL     1       6.989   1.069  18.792  1.00  0.00    -0.262 OA
HETATM    5  C   UNL     1       8.628  -0.606  21.525  1.00  0.00     0.262 C 
HETATM    6  H   UNL     1       8.792   0.911  20.163  1.00  0.00     0.172 HD
ENDROOT
BRANCH   5   7
HETATM    7  C   UNL     1       9.906  -0.046  22.226  1.00  0.00     0.082 C 
HETATM    8  C   UNL     1      10.310   1.139  21.892  1.00  0.00    -0.010 C 
HETATM    9  C   UNL     1      10.903   2.073  22.889  1.00  0.00     0.037 C 
BRANCH   7  10
HETATM   10  C   UNL     1      10.909  -0.671  23.224  1.00  0.00     0.232 C 
HETATM   11  O   UNL     1      10.618  -0.808  24.347  1.00  0.00    -0.283 OA
BRANCH  10  12
HETATM   12  C   UNL     1      12.196  -1.120  23.271  1.00  0.00     0.196 C 
HETATM   13  C   UNL     1      13.141  -0.392  24.345  1.00  0.00     0.100 C 
HETATM   14  O   UNL     1      12.743  -2.044  22.665  1.00  0.00    -0.289 OA
ENDBRANCH  10  12
ENDBRANCH   7  10
ENDBRANCH   5   7
BRANCH   2  15
HETATM   15  C   UNL     1       6.120  -0.842  19.378  1.00  0.00     0.334 C 
HETATM   16  F   UNL     1       5.554  -1.503  20.333  1.00  0.00    -0.167 F 
HETATM   17  F   UNL     1       5.826  -1.273  18.187  1.00  0.00    -0.167 F 
ENDBRANCH   2  15
TORSDOF 4
ENDMDL
MODEL 4
REMARK VINA RESULT:    -5.267      4.909      5.726
REMARK INTER + INTRA:          -6.870
REMARK INTER:                  -6.568
REMARK INTRA:                  -0.303
REMARK UNBOUND:                -0.372
REMARK  4 active torsions:
REMARK  status: ('A' for Active; 'I' for Inactive)
REMARK    1  A    between atoms: C_5  and  C_8 
REMARK    2  A    between atoms: C_5  and  C_6 
REMARK    3  A    between atoms: C_8  and  C_13 
REMARK    4  A    between atoms: C_9  and  C_15 
REMARK       I    between atoms: C_9  and  N_11 
REMARK       I    between atoms: N_11  and  C_13 
ROOT
HETATM    1  O   UNL     1       8.442  -0.012  19.622  1.00  0.00    -0.267 OA
HETATM    2  C   UNL     1       5.629   1.250  19.475  1.00  0.00     0.316 C 
HETATM    3  N   UNL     1       6.685   1.144  20.428  1.00  0.00    -0.285 N 
HETATM    4  O   UNL     1       4.569   1.706  19.785  1.00  0.00    -0.262 OA
HETATM    5  C   UNL     1       7.908   0.573  20.512  1.00  0.00     0.262 C 
HETATM    6  H   UNL     1       6.324   1.651  21.226  1.00  0.00     0.172 HD
ENDROOT
BRANCH   5   7
HETATM    7  C   UNL     1       8.564   0.700  21.923  1.00  0.00     0.082 C 
HETATM    8  C   UNL     1       7.789   0.952  22.931  1.00  0.00    -0.010 C 
HETATM    9  C   UNL     1       8.033   0.356  24.274  1.00  0.00     0.037 C 
BRANCH   7  10
HETATM   10  C   UNL     1      10.036   0.681  22.397  1.00  0.00     0.232 C 
HETATM   11  O   UNL     1      10.680   1.654  22.367  1.00  0.00    -0.283 OA
BRANCH  10  12
HETATM   12  C   UNL     1      10.982  -0.198  22.837  1.00  0.00     0.196 C 
HETATM   13  C   UNL     1      11.824   0.280  24.117  1.00  0.00     0.100 C 
HETATM   14  O   UNL     1      11.257  -1.337  22.452  1.00  0.00    -0.289 OA
ENDBRANCH  10  12
ENDBRANCH   7  10
ENDBRANCH   5   7
BRANCH   2  15
HETATM   15  C   UNL     1       5.670   0.881  18.094  1.00  0.00     0.334 C 
HETATM   16  F   UNL     1       5.587  -0.325  17.639  1.00  0.00    -0.167 F 
HETATM   17  F   UNL     1       5.976   1.768  17.194  1.00  0.00    -0.167 F 
ENDBRANCH   2  15
TORSDOF 4
ENDMDL
MODEL 5
REMARK VINA RESULT:    -5.199     27.160     29.036
REMARK INTER + INTRA:          -6.786
REMARK INTER:                  -6.420
REMARK INTRA:                  -0.366
REMARK UNBOUND:                -0.372
REMARK  4 active torsions:
REMARK  status: ('A' for Active; 'I' for Inactive)
REMARK    1  A    between atoms: C_5  and  C_8 
REMARK    2  A    between atoms: C_5  and  C_6 
REMARK    3  A    between atoms: C_8  and  C_13 
REMARK    4  A    between atoms: C_9  and  C_15 
REMARK       I    between atoms: C_9  and  N_11 
REMARK       I    between atoms: N_11  and  C_13 
ROOT
HETATM    1  O   UNL     1       9.837  19.093   3.728  1.00  0.00    -0.267 OA
HETATM    2  C   UNL     1       9.508  18.445   0.728  1.00  0.00     0.316 C 
HETATM    3  N   UNL     1       9.655  17.723   1.948  1.00  0.00    -0.285 N 
HETATM    4  O   UNL     1       9.541  17.881  -0.325  1.00  0.00    -0.262 OA
HETATM    5  C   UNL     1       9.825  17.996   3.262  1.00  0.00     0.262 C 
HETATM    6  H   UNL     1       9.626  16.757   1.648  1.00  0.00     0.172 HD
ENDROOT
BRANCH   5   7
HETATM    7  C   UNL     1      10.064  16.728   4.141  1.00  0.00     0.082 C 
HETATM    8  C   UNL     1      10.271  16.898   5.409  1.00  0.00    -0.010 C 
HETATM    9  C   UNL     1       9.747  15.942   6.423  1.00  0.00     0.037 C 
BRANCH   7  10
HETATM   10  C   UNL     1      10.210  15.227   3.793  1.00  0.00     0.232 C 
HETATM   11  O   UNL     1      11.263  14.767   3.586  1.00  0.00    -0.283 OA
BRANCH  10  12
HETATM   12  C   UNL     1       9.436  14.129   3.555  1.00  0.00     0.196 C 
HETATM   13  C   UNL     1       8.193  14.363   2.568  1.00  0.00     0.100 C 
HETATM   14  O   UNL     1       9.572  12.960   3.924  1.00  0.00    -0.289 OA
ENDBRANCH  10  12
ENDBRANCH   7  10
ENDBRANCH   5   7
BRANCH   2  15
HETATM   15  C   UNL     1       9.286  19.850   0.575  1.00  0.00     0.334 C 
HETATM   16  F   UNL     1       8.157  20.400   0.274  1.00  0.00    -0.167 F 
HETATM   17  F   UNL     1      10.296  20.669   0.563  1.00  0.00    -0.167 F 
ENDBRANCH   2  15
TORSDOF 4
ENDMDL
MODEL 6
REMARK VINA RESULT:    -5.174      4.233      5.993
REMARK INTER + INTRA:          -6.755
REMARK INTER:                  -6.501
REMARK INTRA:                  -0.254
REMARK UNBOUND:                -0.372
REMARK  4 active torsions:
REMARK  status: ('A' for Active; 'I' for Inactive)
REMARK    1  A    between atoms: C_5  and  C_8 
REMARK    2  A    between atoms: C_5  and  C_6 
REMARK    3  A    between atoms: C_8  and  C_13 
REMARK    4  A    between atoms: C_9  and  C_15 
REMARK       I    between atoms: C_9  and  N_11 
REMARK       I    between atoms: N_11  and  C_13 
ROOT
HETATM    1  O   UNL     1       8.949   0.670  23.316  1.00  0.00    -0.267 OA
HETATM    2  C   UNL     1      11.517  -1.033  23.134  1.00  0.00     0.316 C 
HETATM    3  N   UNL     1      10.291  -0.901  22.418  1.00  0.00    -0.285 N 
HETATM    4  O   UNL     1      12.282  -1.916  22.881  1.00  0.00    -0.262 OA
HETATM    5  C   UNL     1       9.151  -0.178  22.504  1.00  0.00     0.262 C 
HETATM    6  H   UNL     1      10.386  -1.580  21.674  1.00  0.00     0.172 HD
ENDROOT
BRANCH   5   7
HETATM    7  C   UNL     1       8.067  -0.590  21.459  1.00  0.00     0.082 C 
HETATM    8  C   UNL     1       7.518  -1.757  21.582  1.00  0.00    -0.010 C 
HETATM    9  C   UNL     1       6.079  -1.983  21.269  1.00  0.00     0.037 C 
BRANCH   7  10
HETATM   10  C   UNL     1       7.539   0.095  20.176  1.00  0.00     0.232 C 
HETATM   11  O   UNL     1       8.140   0.025  19.177  1.00  0.00    -0.283 OA
BRANCH  10  12
HETATM   12  C   UNL     1       6.519   0.903  19.765  1.00  0.00     0.196 C 
HETATM   13  C   UNL     1       5.996   0.645  18.270  1.00  0.00     0.100 C 
HETATM   14  O   UNL     1       5.883   1.763  20.379  1.00  0.00    -0.289 OA
ENDBRANCH  10  12
ENDBRANCH   7  10
ENDBRANCH   5   7
BRANCH   2  15
HETATM   15  C   UNL     1      12.009  -0.181  24.172  1.00  0.00     0.334 C 
HETATM   16  F   UNL     1      11.367   0.136  25.247  1.00  0.00    -0.167 F 
HETATM   17  F   UNL     1      13.113   0.483  23.999  1.00  0.00    -0.167 F 
ENDBRANCH   2  15
TORSDOF 4
ENDMDL
MODEL 7
REMARK VINA RESULT:    -5.147      5.628      7.489
REMARK INTER + INTRA:          -6.722
REMARK INTER:                  -6.394
REMARK INTRA:                  -0.328
REMARK UNBOUND:                -0.372
REMARK  4 active torsions:
REMARK  status: ('A' for Active; 'I' for Inactive)
REMARK    1  A    between atoms: C_5  and  C_8 
REMARK    2  A    between atoms: C_5  and  C_6 
REMARK    3  A    between atoms: C_8  and  C_13 
REMARK    4  A    between atoms: C_9  and  C_15 
REMARK       I    between atoms: C_9  and  N_11 
REMARK       I    between atoms: N_11  and  C_13 
ROOT
HETATM    1  O   UNL     1       9.164   3.376  24.558  1.00  0.00    -0.267 OA
HETATM    2  C   UNL     1      11.827   4.696  23.725  1.00  0.00     0.316 C 
HETATM    3  N   UNL     1      11.279   3.381  23.779  1.00  0.00    -0.285 N 
HETATM    4  O   UNL     1      12.983   4.867  23.472  1.00  0.00    -0.262 OA
HETATM    5  C   UNL     1      10.125   2.790  24.166  1.00  0.00     0.262 C 
HETATM    6  H   UNL     1      12.032   2.804  23.429  1.00  0.00     0.172 HD
ENDROOT
BRANCH   5   7
HETATM    7  C   UNL     1      10.168   1.231  24.106  1.00  0.00     0.082 C 
HETATM    8  C   UNL     1       9.544   0.571  25.031  1.00  0.00    -0.010 C 
HETATM    9  C   UNL     1       8.836  -0.707  24.739  1.00  0.00     0.037 C 
BRANCH   7  10
HETATM   10  C   UNL     1      10.915   0.240  23.182  1.00  0.00     0.232 C 
HETATM   11  O   UNL     1      10.659   0.185  22.044  1.00  0.00    -0.283 OA
BRANCH  10  12
HETATM   12  C   UNL     1      11.843  -0.757  23.250  1.00  0.00     0.196 C 
HETATM   13  C   UNL     1      13.113  -0.455  24.183  1.00  0.00     0.100 C 
HETATM   14  O   UNL     1      11.838  -1.889  22.761  1.00  0.00    -0.289 OA
ENDBRANCH  10  12
ENDBRANCH   7  10
ENDBRANCH   5   7
BRANCH   2  15
HETATM   15  C   UNL     1      11.135   5.932  23.921  1.00  0.00     0.334 C 
HETATM   16  F   UNL     1      11.295   6.727  24.926  1.00  0.00    -0.167 F 
HETATM   17  F   UNL     1      10.140   6.250  23.146  1.00  0.00    -0.167 F 
ENDBRANCH   2  15
TORSDOF 4
ENDMDL
MODEL 8
REMARK VINA RESULT:    -5.081      4.686      5.710
REMARK INTER + INTRA:          -6.641
REMARK INTER:                  -6.266
REMARK INTRA:                  -0.374
REMARK UNBOUND:                -0.372
REMARK  4 active torsions:
REMARK  status: ('A' for Active; 'I' for Inactive)
REMARK    1  A    between atoms: C_5  and  C_8 
REMARK    2  A    between atoms: C_5  and  C_6 
REMARK    3  A    between atoms: C_8  and  C_13 
REMARK    4  A    between atoms: C_9  and  C_15 
REMARK       I    between atoms: C_9  and  N_11 
REMARK       I    between atoms: N_11  and  C_13 
ROOT
HETATM    1  O   UNL     1       6.949   0.995  21.411  1.00  0.00    -0.267 OA
HETATM    2  C   UNL     1       6.001  -0.204  18.730  1.00  0.00     0.316 C 
HETATM    3  N   UNL     1       6.382  -0.682  20.018  1.00  0.00    -0.285 N 
HETATM    4  O   UNL     1       5.808  -0.964  17.828  1.00  0.00    -0.262 OA
HETATM    5  C   UNL     1       6.822  -0.169  21.189  1.00  0.00     0.262 C 
HETATM    6  H   UNL     1       6.275  -1.684  19.931  1.00  0.00     0.172 HD
ENDROOT
BRANCH   5   7
HETATM    7  C   UNL     1       7.214  -1.254  22.242  1.00  0.00     0.082 C 
HETATM    8  C   UNL     1       6.638  -2.412  22.162  1.00  0.00    -0.010 C 
HETATM    9  C   UNL     1       7.368  -3.672  22.472  1.00  0.00     0.037 C 
BRANCH   7  10
HETATM   10  C   UNL     1       8.124  -1.217  23.492  1.00  0.00     0.232 C 
HETATM   11  O   UNL     1       7.660  -1.139  24.560  1.00  0.00    -0.283 OA
BRANCH  10  12
HETATM   12  C   UNL     1       9.448  -1.179  23.821  1.00  0.00     0.196 C 
HETATM   13  C   UNL     1      10.459  -1.654  22.669  1.00  0.00     0.100 C 
HETATM   14  O   UNL     1      10.006  -0.775  24.844  1.00  0.00    -0.289 OA
ENDBRANCH  10  12
ENDBRANCH   7  10
ENDBRANCH   5   7
BRANCH   2  15
HETATM   15  C   UNL     1       5.778   1.154  18.342  1.00  0.00     0.334 C 
HETATM   16  F   UNL     1       5.032   2.000  18.972  1.00  0.00    -0.167 F 
HETATM   17  F   UNL     1       6.199   1.577  17.186  1.00  0.00    -0.167 F 
ENDBRANCH   2  15
TORSDOF 4
ENDMDL
MODEL 9
REMARK VINA RESULT:    -5.008      3.094      6.334
REMARK INTER + INTRA:          -6.550
REMARK INTER:                  -6.250
REMARK INTRA:                  -0.301
REMARK UNBOUND:                -0.372
REMARK  4 active torsions:
REMARK  status: ('A' for Active; 'I' for Inactive)
REMARK    1  A    between atoms: C_5  and  C_8 
REMARK    2  A    between atoms: C_5  and  C_6 
REMARK    3  A    between atoms: C_8  and  C_13 
REMARK    4  A    between atoms: C_9  and  C_15 
REMARK       I    between atoms: C_9  and  N_11 
REMARK       I    between atoms: N_11  and  C_13 
ROOT
HETATM    1  O   UNL     1       7.616  -1.625  22.475  1.00  0.00    -0.267 OA
HETATM    2  C   UNL     1      10.693  -1.398  22.527  1.00  0.00     0.316 C 
HETATM    3  N   UNL     1       9.708  -2.387  22.814  1.00  0.00    -0.285 N 
HETATM    4  O   UNL     1      11.844  -1.586  22.789  1.00  0.00    -0.262 OA
HETATM    5  C   UNL     1       8.359  -2.490  22.820  1.00  0.00     0.262 C 
HETATM    6  H   UNL     1      10.262  -3.187  23.094  1.00  0.00     0.172 HD
ENDROOT
BRANCH   5   7
HETATM    7  C   UNL     1       7.835  -3.850  23.378  1.00  0.00     0.082 C 
HETATM    8  C   UNL     1       8.451  -4.366  24.395  1.00  0.00    -0.010 C 
HETATM    9  C   UNL     1       7.718  -5.100  25.464  1.00  0.00     0.037 C 
BRANCH   7  10
HETATM   10  C   UNL     1       6.733  -4.823  22.896  1.00  0.00     0.232 C 
HETATM   11  O   UNL     1       7.016  -5.800  22.321  1.00  0.00    -0.283 OA
BRANCH  10  12
HETATM   12  C   UNL     1       5.374  -4.923  22.848  1.00  0.00     0.196 C 
HETATM   13  C   UNL     1       4.751  -6.205  23.587  1.00  0.00     0.100 C 
HETATM   14  O   UNL     1       4.531  -4.152  22.384  1.00  0.00    -0.289 OA
ENDBRANCH  10  12
ENDBRANCH   7  10
ENDBRANCH   5   7
BRANCH   2  15
HETATM   15  C   UNL     1      10.488  -0.127  21.904  1.00  0.00     0.334 C 
HETATM   16  F   UNL     1      10.940   1.002  22.339  1.00  0.00    -0.167 F 
HETATM   17  F   UNL     1       9.654  -0.017  20.912  1.00  0.00    -0.167 F 
ENDBRANCH   2  15
TORSDOF 4
ENDMDL
