REMARK  4 active torsions:
REMARK  status: ('A' for Active; 'I' for Inactive)
REMARK    1  A    between atoms: C_5  and  C_8 
REMARK    2  A    between atoms: C_5  and  C_6 
REMARK    3  A    between atoms: C_8  and  C_13 
REMARK    4  A    between atoms: C_9  and  C_15 
REMARK       I    between atoms: C_9  and  N_11 
REMARK       I    between atoms: N_11  and  C_13 
ROOT
HETATM    1  O   UNL     1       6.984  -1.586  22.752  1.00  0.00    -0.267 OA
HETATM    2  C   UNL     1       6.593   0.883  20.942  1.00  0.00     0.316 C 
HETATM    3  N   UNL     1       7.678   0.087  21.412  1.00  0.00    -0.285 N 
HETATM    4  O   UNL     1       6.793   1.895  20.338  1.00  0.00    -0.262 OA
HETATM    5  C   UNL     1       7.863  -0.979  22.224  1.00  0.00     0.262 C 
HETATM    6  H   UNL     1       8.484   0.521  20.981  1.00  0.00     0.172 HD
ENDROOT
BRANCH   5   7
HETATM    7  C   UNL     1       9.365  -1.331  22.465  1.00  0.00     0.082 C 
HETATM    8  C   UNL     1      10.239  -0.862  21.631  1.00  0.00    -0.010 C 
HETATM    9  C   UNL     1      11.589  -0.419  22.078  1.00  0.00     0.037 C 
BRANCH   7  10
HETATM   10  C   UNL     1      10.072  -2.249  23.490  1.00  0.00     0.232 C 
HETATM   11  O   UNL     1      11.175  -2.591  23.316  1.00  0.00    -0.283 OA
BRANCH  10  12
HETATM   12  C   UNL     1       9.806  -2.933  24.640  1.00  0.00     0.196 C 
HETATM   13  C   UNL     1       8.332  -3.559  24.744  1.00  0.00     0.100 C 
HETATM   14  O   UNL     1      10.537  -3.208  25.594  1.00  0.00    -0.289 OA
ENDBRANCH  10  12
ENDBRANCH   7  10
ENDBRANCH   5   7
BRANCH   2  15
HETATM   15  C   UNL     1       5.196   0.611  21.080  1.00  0.00     0.334 C 
HETATM   16  F   UNL     1       4.517  -0.207  20.346  1.00  0.00    -0.167 F 
HETATM   17  F   UNL     1       4.469   1.334  21.880  1.00  0.00    -0.167 F 
ENDBRANCH   2  15
TORSDOF 4
