MODEL 1
REMARK VINA RESULT:    -7.936      0.000      0.000
REMARK INTER + INTRA:         -10.711
REMARK INTER:                  -9.792
REMARK INTRA:                  -0.919
REMARK UNBOUND:                -0.919
REMARK  4 active torsions:
REMARK  status: ('A' for Active; 'I' for Inactive)
REMARK    1  A    between atoms: S_2  and  N_5 
REMARK    2  A    between atoms: N_5  and  C_7 
REMARK    3  A    between atoms: C_15  and  C_16 
REMARK       I    between atoms: C_16  and  N_18 
REMARK    4  A    between atoms: N_18  and  C_20 
ROOT
HETATM    1  C   UNL     1       8.812   0.842  22.165  1.00  0.00     0.109 C 
HETATM    2  C   UNL     1       9.323   0.028  23.011  1.00  0.00    -0.008 A 
HETATM    3  C   UNL     1      10.314  -0.544  23.498  1.00  0.00     0.058 A 
HETATM    4  C   UNL     1      11.490  -1.499  22.667  1.00  0.00    -0.003 C 
HETATM    5  C   UNL     1      12.469  -1.521  22.988  1.00  0.00    -0.002 C 
HETATM    6  C   UNL     1      13.248  -0.770  24.016  1.00  0.00    -0.001 C 
HETATM    7  C   UNL     1      12.390   0.183  24.532  1.00  0.00    -0.002 C 
HETATM    8  C   UNL     1      11.365   0.433  24.446  1.00  0.00    -0.003 C 
HETATM    9  C   UNL     1       9.604  -1.172  24.241  1.00  0.00     0.040 A 
ENDROOT
BRANCH   9  10
HETATM   10  C   UNL     1       8.950  -1.944  25.106  1.00  0.00     0.254 C 
HETATM   11  O   UNL     1       8.668  -1.503  26.138  1.00  0.00    -0.268 OA
HETATM   12  N   UNL     1       8.705  -3.130  24.583  1.00  0.00    -0.321 N 
ATOM     13  HN  UNL     1       9.029  -3.345  23.640  1.00  0.00     0.169 HD
BRANCH  12  14
HETATM   14  C   UNL     1       8.081  -3.984  25.231  1.00  0.00     0.056 A 
HETATM   15  C   UNL     1       8.383  -4.900  26.130  1.00  0.00     0.117 A 
HETATM   16  N   UNL     1       8.017  -5.761  26.920  1.00  0.00    -0.373 N 
HETATM   17  C   UNL     1       6.705  -5.817  26.626  1.00  0.00     0.088 A 
ATOM     18  HN  UNL     1       8.556  -6.289  27.608  1.00  0.00     0.164 HD
HETATM   19  C   UNL     1       6.106  -5.139  25.862  1.00  0.00     0.026 A 
HETATM   20  C   UNL     1       6.501  -4.120  25.065  1.00  0.00    -0.033 A 
HETATM   21  C   UNL     1       5.677  -3.229  24.074  1.00  0.00     0.050 C 
ENDBRANCH  12  14
ENDBRANCH   9  10
BRANCH   1  22
HETATM   22  N   UNL     1       7.946   1.202  21.415  1.00  0.00    -0.295 N 
ATOM     23  HN  UNL     1       7.657   2.177  21.489  1.00  0.00     0.177 HD
BRANCH  22  24
HETATM   24  S   UNL     1       7.176   0.297  20.283  1.00  0.00     0.226 S 
HETATM   25  C   UNL     1       5.867   1.155  19.826  1.00  0.00     0.186 C 
HETATM   26  O   UNL     1       8.058   0.090  19.158  1.00  0.00    -0.206 OA
HETATM   27  O   UNL     1       6.759  -0.964  20.820  1.00  0.00    -0.206 OA
ENDBRANCH  22  24
ENDBRANCH   1  22
TORSDOF 4
ENDMDL
MODEL 2
REMARK VINA RESULT:    -7.797      2.616      5.958
REMARK INTER + INTRA:         -10.539
REMARK INTER:                  -9.838
REMARK INTRA:                  -0.702
REMARK UNBOUND:                -0.919
REMARK  4 active torsions:
REMARK  status: ('A' for Active; 'I' for Inactive)
REMARK    1  A    between atoms: S_2  and  N_5 
REMARK    2  A    between atoms: N_5  and  C_7 
REMARK    3  A    between atoms: C_15  and  C_16 
REMARK       I    between atoms: C_16  and  N_18 
REMARK    4  A    between atoms: N_18  and  C_20 
ROOT
HETATM    1  C   UNL     1       8.386  -3.604  23.763  1.00  0.00     0.109 C 
HETATM    2  C   UNL     1       8.795  -2.479  23.308  1.00  0.00    -0.008 A 
HETATM    3  C   UNL     1       9.528  -1.479  23.398  1.00  0.00     0.058 A 
HETATM    4  C   UNL     1       9.658  -0.387  24.730  1.00  0.00    -0.003 C 
HETATM    5  C   UNL     1      10.554   0.076  24.942  1.00  0.00    -0.002 C 
HETATM    6  C   UNL     1      11.947  -0.056  24.425  1.00  0.00    -0.001 C 
HETATM    7  C   UNL     1      11.926  -1.105  23.524  1.00  0.00    -0.002 C 
HETATM    8  C   UNL     1      11.199  -1.733  23.078  1.00  0.00    -0.003 C 
HETATM    9  C   UNL     1       9.021  -1.001  22.415  1.00  0.00     0.040 A 
ENDROOT
BRANCH   9  10
HETATM   10  C   UNL     1       8.547  -0.345  21.359  1.00  0.00     0.254 C 
HETATM   11  O   UNL     1       9.258   0.362  20.781  1.00  0.00    -0.268 OA
HETATM   12  N   UNL     1       7.286  -0.664  21.137  1.00  0.00    -0.321 N 
ATOM     13  HN  UNL     1       6.813  -1.320  21.758  1.00  0.00     0.169 HD
BRANCH  12  14
HETATM   14  C   UNL     1       6.674  -0.169  20.178  1.00  0.00     0.056 A 
HETATM   15  C   UNL     1       6.409  -0.527  18.937  1.00  0.00     0.117 A 
HETATM   16  N   UNL     1       5.835  -0.307  17.877  1.00  0.00    -0.373 N 
HETATM   17  C   UNL     1       5.338   0.920  18.122  1.00  0.00     0.088 A 
ATOM     18  HN  UNL     1       5.755  -0.890  17.044  1.00  0.00     0.164 HD
HETATM   19  C   UNL     1       5.400   1.536  19.131  1.00  0.00     0.026 A 
HETATM   20  C   UNL     1       5.951   1.243  20.331  1.00  0.00    -0.033 A 
HETATM   21  C   UNL     1       6.001   2.078  21.657  1.00  0.00     0.050 C 
ENDBRANCH  12  14
ENDBRANCH   9  10
BRANCH   1  22
HETATM   22  N   UNL     1       7.540  -4.431  23.970  1.00  0.00    -0.295 N 
ATOM     23  HN  UNL     1       7.345  -4.647  24.947  1.00  0.00     0.177 HD
BRANCH  22  24
HETATM   24  S   UNL     1       6.663  -5.252  22.853  1.00  0.00     0.226 S 
HETATM   25  C   UNL     1       5.865  -4.129  21.982  1.00  0.00     0.186 C 
HETATM   26  O   UNL     1       7.558  -6.004  22.003  1.00  0.00    -0.206 OA
HETATM   27  O   UNL     1       5.721  -6.134  23.476  1.00  0.00    -0.206 OA
ENDBRANCH  22  24
ENDBRANCH   1  22
TORSDOF 4
ENDMDL
MODEL 3
REMARK VINA RESULT:    -7.638      2.437      6.282
REMARK INTER + INTRA:         -10.343
REMARK INTER:                  -9.709
REMARK INTRA:                  -0.634
REMARK UNBOUND:                -0.919
REMARK  4 active torsions:
REMARK  status: ('A' for Active; 'I' for Inactive)
REMARK    1  A    between atoms: S_2  and  N_5 
REMARK    2  A    between atoms: N_5  and  C_7 
REMARK    3  A    between atoms: C_15  and  C_16 
REMARK       I    between atoms: C_16  and  N_18 
REMARK    4  A    between atoms: N_18  and  C_20 
ROOT
HETATM    1  C   UNL     1       8.581  -3.419  23.945  1.00  0.00     0.109 C 
HETATM    2  C   UNL     1       8.953  -2.306  23.433  1.00  0.00    -0.008 A 
HETATM    3  C   UNL     1       9.651  -1.278  23.472  1.00  0.00     0.058 A 
HETATM    4  C   UNL     1       9.738  -0.113  24.745  1.00  0.00    -0.003 C 
HETATM    5  C   UNL     1      10.616   0.390  24.936  1.00  0.00    -0.002 C 
HETATM    6  C   UNL     1      12.015   0.279  24.429  1.00  0.00    -0.001 C 
HETATM    7  C   UNL     1      12.034  -0.815  23.584  1.00  0.00    -0.002 C 
HETATM    8  C   UNL     1      11.331  -1.490  23.170  1.00  0.00    -0.003 C 
HETATM    9  C   UNL     1       9.132  -0.870  22.465  1.00  0.00     0.040 A 
ENDROOT
BRANCH   9  10
HETATM   10  C   UNL     1       8.640  -0.287  21.374  1.00  0.00     0.254 C 
HETATM   11  O   UNL     1       9.346   0.365  20.728  1.00  0.00    -0.268 OA
HETATM   12  N   UNL     1       7.370  -0.601  21.208  1.00  0.00    -0.321 N 
ATOM     13  HN  UNL     1       6.904  -1.203  21.886  1.00  0.00     0.169 HD
BRANCH  12  14
HETATM   14  C   UNL     1       6.741  -0.170  20.229  1.00  0.00     0.056 A 
HETATM   15  C   UNL     1       6.448  -0.610  19.021  1.00  0.00     0.117 A 
HETATM   16  N   UNL     1       5.852  -0.459  17.961  1.00  0.00    -0.373 N 
HETATM   17  C   UNL     1       5.368   0.785  18.131  1.00  0.00     0.088 A 
ATOM     18  HN  UNL     1       5.753  -1.098  17.172  1.00  0.00     0.164 HD
HETATM   19  C   UNL     1       5.453   1.468  19.094  1.00  0.00     0.026 A 
HETATM   20  C   UNL     1       6.028   1.254  20.299  1.00  0.00    -0.033 A 
HETATM   21  C   UNL     1       6.110   2.178  21.563  1.00  0.00     0.050 C 
ENDBRANCH  12  14
ENDBRANCH   9  10
BRANCH   1  22
HETATM   22  N   UNL     1       7.763  -4.263  24.193  1.00  0.00    -0.295 N 
ATOM     23  HN  UNL     1       7.406  -4.796  23.400  1.00  0.00     0.177 HD
BRANCH  22  24
HETATM   24  S   UNL     1       7.155  -4.652  25.666  1.00  0.00     0.226 S 
HETATM   25  C   UNL     1       8.419  -5.168  26.559  1.00  0.00     0.186 C 
HETATM   26  O   UNL     1       6.564  -3.478  26.264  1.00  0.00    -0.206 OA
HETATM   27  O   UNL     1       6.180  -5.698  25.568  1.00  0.00    -0.206 OA
ENDBRANCH  22  24
ENDBRANCH   1  22
TORSDOF 4
ENDMDL
MODEL 4
REMARK VINA RESULT:    -7.371      2.228      5.548
REMARK INTER + INTRA:         -10.013
REMARK INTER:                  -9.301
REMARK INTRA:                  -0.713
REMARK UNBOUND:                -0.919
REMARK  4 active torsions:
REMARK  status: ('A' for Active; 'I' for Inactive)
REMARK    1  A    between atoms: S_2  and  N_5 
REMARK    2  A    between atoms: N_5  and  C_7 
REMARK    3  A    between atoms: C_15  and  C_16 
REMARK       I    between atoms: C_16  and  N_18 
REMARK    4  A    between atoms: N_18  and  C_20 
ROOT
HETATM    1  C   UNL     1       5.882  -1.859  20.631  1.00  0.00     0.109 C 
HETATM    2  C   UNL     1       6.440  -2.504  21.586  1.00  0.00    -0.008 A 
HETATM    3  C   UNL     1       6.429  -3.429  22.416  1.00  0.00     0.058 A 
HETATM    4  C   UNL     1       5.221  -3.761  23.606  1.00  0.00    -0.003 C 
HETATM    5  C   UNL     1       5.022  -4.730  23.895  1.00  0.00    -0.002 C 
HETATM    6  C   UNL     1       5.463  -6.073  23.418  1.00  0.00    -0.001 C 
HETATM    7  C   UNL     1       6.243  -5.850  22.299  1.00  0.00    -0.002 C 
HETATM    8  C   UNL     1       6.647  -5.016  21.787  1.00  0.00    -0.003 C 
HETATM    9  C   UNL     1       7.479  -3.053  22.871  1.00  0.00     0.040 A 
ENDROOT
BRANCH   9  10
HETATM   10  C   UNL     1       8.620  -2.747  23.483  1.00  0.00     0.254 C 
HETATM   11  O   UNL     1       8.912  -3.334  24.437  1.00  0.00    -0.268 OA
HETATM   12  N   UNL     1       9.259  -1.793  22.834  1.00  0.00    -0.321 N 
ATOM     13  HN  UNL     1       8.847  -1.388  21.993  1.00  0.00     0.169 HD
BRANCH  12  14
HETATM   14  C   UNL     1      10.359  -1.386  23.240  1.00  0.00     0.056 A 
HETATM   15  C   UNL     1      11.623  -1.680  23.009  1.00  0.00     0.117 A 
HETATM   16  N   UNL     1      12.810  -1.437  23.187  1.00  0.00    -0.373 N 
HETATM   17  C   UNL     1      12.722  -0.482  24.131  1.00  0.00     0.088 A 
ATOM     18  HN  UNL     1      13.634  -1.845  22.745  1.00  0.00     0.164 HD
HETATM   19  C   UNL     1      11.740   0.011  24.571  1.00  0.00     0.026 A 
HETATM   20  C   UNL     1      10.431  -0.194  24.296  1.00  0.00    -0.033 A 
HETATM   21  C   UNL     1       9.151   0.489  24.889  1.00  0.00     0.050 C 
ENDBRANCH  12  14
ENDBRANCH   9  10
BRANCH   1  22
HETATM   22  N   UNL     1       5.622  -0.854  20.026  1.00  0.00    -0.295 N 
ATOM     23  HN  UNL     1       4.698  -0.809  19.597  1.00  0.00     0.177 HD
BRANCH  22  24
HETATM   24  S   UNL     1       6.589   0.453  19.815  1.00  0.00     0.226 S 
HETATM   25  C   UNL     1       5.754   1.492  18.874  1.00  0.00     0.186 C 
HETATM   26  O   UNL     1       6.867   1.053  21.099  1.00  0.00    -0.206 OA
HETATM   27  O   UNL     1       7.814   0.096  19.163  1.00  0.00    -0.206 OA
ENDBRANCH  22  24
ENDBRANCH   1  22
TORSDOF 4
ENDMDL
MODEL 5
REMARK VINA RESULT:    -7.296      3.472      7.504
REMARK INTER + INTRA:          -9.921
REMARK INTER:                  -9.137
REMARK INTRA:                  -0.784
REMARK UNBOUND:                -0.919
REMARK  4 active torsions:
REMARK  status: ('A' for Active; 'I' for Inactive)
REMARK    1  A    between atoms: S_2  and  N_5 
REMARK    2  A    between atoms: N_5  and  C_7 
REMARK    3  A    between atoms: C_15  and  C_16 
REMARK       I    between atoms: C_16  and  N_18 
REMARK    4  A    between atoms: N_18  and  C_20 
ROOT
HETATM    1  C   UNL     1       6.984  -5.617  26.612  1.00  0.00     0.109 C 
HETATM    2  C   UNL     1       7.103  -4.874  25.576  1.00  0.00    -0.008 A 
HETATM    3  C   UNL     1       6.980  -4.699  24.351  1.00  0.00     0.058 A 
HETATM    4  C   UNL     1       7.638  -5.667  23.080  1.00  0.00    -0.003 C 
HETATM    5  C   UNL     1       7.136  -5.769  22.186  1.00  0.00    -0.002 C 
HETATM    6  C   UNL     1       5.789  -5.360  21.692  1.00  0.00    -0.001 C 
HETATM    7  C   UNL     1       5.136  -4.797  22.772  1.00  0.00    -0.002 C 
HETATM    8  C   UNL     1       5.371  -4.524  23.768  1.00  0.00    -0.003 C 
HETATM    9  C   UNL     1       7.472  -3.604  24.443  1.00  0.00     0.040 A 
ENDROOT
BRANCH   9  10
HETATM   10  C   UNL     1       8.011  -2.388  24.388  1.00  0.00     0.254 C 
HETATM   11  O   UNL     1       7.430  -1.503  24.855  1.00  0.00    -0.268 OA
HETATM   12  N   UNL     1       9.191  -2.425  23.800  1.00  0.00    -0.321 N 
ATOM     13  HN  UNL     1       9.555  -3.310  23.448  1.00  0.00     0.169 HD
BRANCH  12  14
HETATM   14  C   UNL     1       9.862  -1.388  23.674  1.00  0.00     0.056 A 
HETATM   15  C   UNL     1      10.816  -0.788  24.358  1.00  0.00     0.117 A 
HETATM   16  N   UNL     1      11.637   0.117  24.448  1.00  0.00    -0.373 N 
HETATM   17  C   UNL     1      11.302   0.855  23.374  1.00  0.00     0.088 A 
ATOM     18  HN  UNL     1      12.370   0.268  25.142  1.00  0.00     0.164 HD
HETATM   19  C   UNL     1      10.484   0.608  22.554  1.00  0.00     0.026 A 
HETATM   20  C   UNL     1       9.648  -0.445  22.407  1.00  0.00    -0.033 A 
HETATM   21  C   UNL     1       8.584  -0.750  21.297  1.00  0.00     0.050 C 
ENDBRANCH  12  14
ENDBRANCH   9  10
BRANCH   1  22
HETATM   22  N   UNL     1       7.340  -6.021  27.685  1.00  0.00    -0.295 N 
ATOM     23  HN  UNL     1       8.344  -6.149  27.812  1.00  0.00     0.177 HD
BRANCH  22  24
HETATM   24  S   UNL     1       6.390  -6.392  28.970  1.00  0.00     0.226 S 
HETATM   25  C   UNL     1       4.869  -6.512  28.394  1.00  0.00     0.186 C 
HETATM   26  O   UNL     1       6.816  -7.654  29.529  1.00  0.00    -0.206 OA
HETATM   27  O   UNL     1       6.443  -5.368  29.970  1.00  0.00    -0.206 OA
ENDBRANCH  22  24
ENDBRANCH   1  22
TORSDOF 4
ENDMDL
MODEL 6
REMARK VINA RESULT:    -7.060     13.888     16.349
REMARK INTER + INTRA:          -9.630
REMARK INTER:                  -8.819
REMARK INTRA:                  -0.810
REMARK UNBOUND:                -0.919
REMARK  4 active torsions:
REMARK  status: ('A' for Active; 'I' for Inactive)
REMARK    1  A    between atoms: S_2  and  N_5 
REMARK    2  A    between atoms: N_5  and  C_7 
REMARK    3  A    between atoms: C_15  and  C_16 
REMARK       I    between atoms: C_16  and  N_18 
REMARK    4  A    between atoms: N_18  and  C_20 
ROOT
HETATM    1  C   UNL     1      23.799  -4.169  24.447  1.00  0.00     0.109 C 
HETATM    2  C   UNL     1      23.568  -3.058  23.854  1.00  0.00    -0.008 A 
HETATM    3  C   UNL     1      23.037  -1.934  23.833  1.00  0.00     0.058 A 
HETATM    4  C   UNL     1      21.365  -1.557  24.049  1.00  0.00    -0.003 C 
HETATM    5  C   UNL     1      21.081  -0.670  24.489  1.00  0.00    -0.002 C 
HETATM    6  C   UNL     1      21.809   0.437  25.174  1.00  0.00    -0.001 C 
HETATM    7  C   UNL     1      23.134   0.046  25.239  1.00  0.00    -0.002 C 
HETATM    8  C   UNL     1      23.729  -0.748  24.869  1.00  0.00    -0.003 C 
HETATM    9  C   UNL     1      23.445  -1.747  22.715  1.00  0.00     0.040 A 
ENDROOT
BRANCH   9  10
HETATM   10  C   UNL     1      23.812  -1.407  21.482  1.00  0.00     0.254 C 
HETATM   11  O   UNL     1      24.783  -0.794  21.342  1.00  0.00    -0.268 OA
HETATM   12  N   UNL     1      22.964  -1.885  20.593  1.00  0.00    -0.321 N 
ATOM     13  HN  UNL     1      22.151  -2.418  20.902  1.00  0.00     0.169 HD
BRANCH  12  14
HETATM   14  C   UNL     1      23.150  -1.692  19.381  1.00  0.00     0.056 A 
HETATM   15  C   UNL     1      22.813  -0.765  18.506  1.00  0.00     0.117 A 
HETATM   16  N   UNL     1      22.894  -0.308  17.372  1.00  0.00    -0.373 N 
HETATM   17  C   UNL     1      23.575  -1.295  16.762  1.00  0.00     0.088 A 
ATOM     18  HN  UNL     1      22.543   0.573  16.996  1.00  0.00     0.164 HD
HETATM   19  C   UNL     1      24.022  -2.276  17.253  1.00  0.00     0.026 A 
HETATM   20  C   UNL     1      24.015  -2.725  18.529  1.00  0.00    -0.033 A 
HETATM   21  C   UNL     1      24.632  -4.024  19.151  1.00  0.00     0.050 C 
ENDBRANCH  12  14
ENDBRANCH   9  10
BRANCH   1  22
HETATM   22  N   UNL     1      23.975  -5.357  24.464  1.00  0.00    -0.295 N 
ATOM     23  HN  UNL     1      23.789  -5.856  23.594  1.00  0.00     0.177 HD
BRANCH  22  24
HETATM   24  S   UNL     1      24.480  -6.266  25.732  1.00  0.00     0.226 S 
HETATM   25  C   UNL     1      26.110  -6.261  25.677  1.00  0.00     0.186 C 
HETATM   26  O   UNL     1      24.018  -5.667  26.963  1.00  0.00    -0.206 OA
HETATM   27  O   UNL     1      24.002  -7.613  25.631  1.00  0.00    -0.206 OA
ENDBRANCH  22  24
ENDBRANCH   1  22
TORSDOF 4
ENDMDL
MODEL 7
REMARK VINA RESULT:    -6.875      1.981      2.274
REMARK INTER + INTRA:          -9.402
REMARK INTER:                  -8.696
REMARK INTRA:                  -0.705
REMARK UNBOUND:                -0.919
REMARK  4 active torsions:
REMARK  status: ('A' for Active; 'I' for Inactive)
REMARK    1  A    between atoms: S_2  and  N_5 
REMARK    2  A    between atoms: N_5  and  C_7 
REMARK    3  A    between atoms: C_15  and  C_16 
REMARK       I    between atoms: C_16  and  N_18 
REMARK    4  A    between atoms: N_18  and  C_20 
ROOT
HETATM    1  C   UNL     1       8.540  -0.160  20.785  1.00  0.00     0.109 C 
HETATM    2  C   UNL     1       8.908  -0.832  21.811  1.00  0.00    -0.008 A 
HETATM    3  C   UNL     1       9.736  -1.070  22.707  1.00  0.00     0.058 A 
HETATM    4  C   UNL     1      11.410  -1.451  22.517  1.00  0.00    -0.003 C 
HETATM    5  C   UNL     1      12.097  -1.164  23.229  1.00  0.00    -0.002 C 
HETATM    6  C   UNL     1      12.039  -0.308  24.450  1.00  0.00    -0.001 C 
HETATM    7  C   UNL     1      10.762   0.218  24.494  1.00  0.00    -0.002 C 
HETATM    8  C   UNL     1       9.854   0.100  23.962  1.00  0.00    -0.003 C 
HETATM    9  C   UNL     1       9.063  -1.987  23.104  1.00  0.00     0.040 A 
ENDROOT
BRANCH   9  10
HETATM   10  C   UNL     1       8.438  -3.032  23.642  1.00  0.00     0.254 C 
HETATM   11  O   UNL     1       9.040  -3.744  24.328  1.00  0.00    -0.268 OA
HETATM   12  N   UNL     1       7.166  -3.046  23.295  1.00  0.00    -0.321 N 
ATOM     13  HN  UNL     1       6.801  -2.322  22.676  1.00  0.00     0.169 HD
BRANCH  12  14
HETATM   14  C   UNL     1       6.410  -3.935  23.718  1.00  0.00     0.056 A 
HETATM   15  C   UNL     1       5.628  -4.093  24.768  1.00  0.00     0.117 A 
HETATM   16  N   UNL     1       4.795  -4.761  25.368  1.00  0.00    -0.373 N 
HETATM   17  C   UNL     1       4.778  -5.870  24.606  1.00  0.00     0.088 A 
ATOM     18  HN  UNL     1       4.263  -4.538  26.210  1.00  0.00     0.164 HD
HETATM   19  C   UNL     1       5.366  -6.061  23.597  1.00  0.00     0.026 A 
HETATM   20  C   UNL     1       6.209  -5.279  22.886  1.00  0.00    -0.033 A 
HETATM   21  C   UNL     1       6.961  -5.559  21.539  1.00  0.00     0.050 C 
ENDBRANCH  12  14
ENDBRANCH   9  10
BRANCH   1  22
HETATM   22  N   UNL     1       8.004  -0.045  19.716  1.00  0.00    -0.295 N 
ATOM     23  HN  UNL     1       8.592  -0.187  18.896  1.00  0.00     0.177 HD
BRANCH  22  24
HETATM   24  S   UNL     1       6.429   0.315  19.431  1.00  0.00     0.226 S 
HETATM   25  C   UNL     1       5.595  -1.068  19.660  1.00  0.00     0.186 C 
HETATM   26  O   UNL     1       5.994   1.324  20.368  1.00  0.00    -0.206 OA
HETATM   27  O   UNL     1       6.235   0.774  18.088  1.00  0.00    -0.206 OA
ENDBRANCH  22  24
ENDBRANCH   1  22
TORSDOF 4
ENDMDL
MODEL 8
REMARK VINA RESULT:    -6.658      2.938      5.327
REMARK INTER + INTRA:          -9.135
REMARK INTER:                  -8.386
REMARK INTRA:                  -0.749
REMARK UNBOUND:                -0.919
REMARK  4 active torsions:
REMARK  status: ('A' for Active; 'I' for Inactive)
REMARK    1  A    between atoms: S_2  and  N_5 
REMARK    2  A    between atoms: N_5  and  C_7 
REMARK    3  A    between atoms: C_15  and  C_16 
REMARK       I    between atoms: C_16  and  N_18 
REMARK    4  A    between atoms: N_18  and  C_20 
ROOT
HETATM    1  C   UNL     1       9.110  -2.305  24.089  1.00  0.00     0.109 C 
HETATM    2  C   UNL     1       8.245  -3.193  24.413  1.00  0.00    -0.008 A 
HETATM    3  C   UNL     1       7.299  -3.941  24.111  1.00  0.00     0.058 A 
HETATM    4  C   UNL     1       5.790  -3.492  23.401  1.00  0.00    -0.003 C 
HETATM    5  C   UNL     1       5.298  -4.136  22.765  1.00  0.00    -0.002 C 
HETATM    6  C   UNL     1       5.642  -5.442  22.129  1.00  0.00    -0.001 C 
HETATM    7  C   UNL     1       6.951  -5.711  22.483  1.00  0.00    -0.002 C 
HETATM    8  C   UNL     1       7.686  -5.292  23.120  1.00  0.00    -0.003 C 
HETATM    9  C   UNL     1       7.215  -4.318  25.252  1.00  0.00     0.040 A 
ENDROOT
BRANCH   9  10
HETATM   10  C   UNL     1       6.994  -4.814  26.467  1.00  0.00     0.254 C 
HETATM   11  O   UNL     1       7.864  -4.821  27.230  1.00  0.00    -0.268 OA
HETATM   12  N   UNL     1       5.739  -5.202  26.593  1.00  0.00    -0.321 N 
ATOM     13  HN  UNL     1       5.100  -5.115  25.804  1.00  0.00     0.169 HD
BRANCH  12  14
HETATM   14  C   UNL     1       5.334  -5.673  27.668  1.00  0.00     0.056 A 
HETATM   15  C   UNL     1       5.282  -6.869  28.219  1.00  0.00     0.117 A 
HETATM   16  N   UNL     1       5.026  -7.571  29.190  1.00  0.00    -0.373 N 
HETATM   17  C   UNL     1       4.455  -6.662  30.001  1.00  0.00     0.088 A 
ATOM     18  HN  UNL     1       5.198  -8.565  29.341  1.00  0.00     0.164 HD
HETATM   19  C   UNL     1       4.333  -5.499  29.812  1.00  0.00     0.026 A 
HETATM   20  C   UNL     1       4.709  -4.714  28.777  1.00  0.00    -0.033 A 
HETATM   21  C   UNL     1       4.547  -3.169  28.564  1.00  0.00     0.050 C 
ENDBRANCH  12  14
ENDBRANCH   9  10
BRANCH   1  22
HETATM   22  N   UNL     1       9.783  -1.336  24.311  1.00  0.00    -0.295 N 
ATOM     23  HN  UNL     1       9.478  -0.738  25.079  1.00  0.00     0.177 HD
BRANCH  22  24
HETATM   24  S   UNL     1      11.138  -0.867  23.516  1.00  0.00     0.226 S 
HETATM   25  C   UNL     1      10.700   0.383  22.564  1.00  0.00     0.186 C 
HETATM   26  O   UNL     1      12.131  -0.442  24.475  1.00  0.00    -0.206 OA
HETATM   27  O   UNL     1      11.659  -1.926  22.704  1.00  0.00    -0.206 OA
ENDBRANCH  22  24
ENDBRANCH   1  22
TORSDOF 4
ENDMDL
MODEL 9
REMARK VINA RESULT:    -6.640      4.340      6.353
REMARK INTER + INTRA:          -9.112
REMARK INTER:                  -8.980
REMARK INTRA:                  -0.131
REMARK UNBOUND:                -0.919
REMARK  4 active torsions:
REMARK  status: ('A' for Active; 'I' for Inactive)
REMARK    1  A    between atoms: S_2  and  N_5 
REMARK    2  A    between atoms: N_5  and  C_7 
REMARK    3  A    between atoms: C_15  and  C_16 
REMARK       I    between atoms: C_16  and  N_18 
REMARK    4  A    between atoms: N_18  and  C_20 
ROOT
HETATM    1  C   UNL     1       8.806   3.967  24.551  1.00  0.00     0.109 C 
HETATM    2  C   UNL     1       9.135   2.903  23.919  1.00  0.00    -0.008 A 
HETATM    3  C   UNL     1       9.847   1.890  23.807  1.00  0.00     0.058 A 
HETATM    4  C   UNL     1      11.572   1.816  23.759  1.00  0.00    -0.003 C 
HETATM    5  C   UNL     1      12.072   1.001  24.142  1.00  0.00    -0.002 C 
HETATM    6  C   UNL     1      11.664  -0.204  24.921  1.00  0.00    -0.001 C 
HETATM    7  C   UNL     1      10.317  -0.051  25.192  1.00  0.00    -0.002 C 
HETATM    8  C   UNL     1       9.542   0.620  24.926  1.00  0.00    -0.003 C 
HETATM    9  C   UNL     1       9.312   1.613  22.763  1.00  0.00     0.040 A 
ENDROOT
BRANCH   9  10
HETATM   10  C   UNL     1       8.826   1.191  21.598  1.00  0.00     0.254 C 
HETATM   11  O   UNL     1       9.541   0.656  20.861  1.00  0.00    -0.268 OA
HETATM   12  N   UNL     1       7.537   1.452  21.507  1.00  0.00    -0.321 N 
ATOM     13  HN  UNL     1       7.061   1.935  22.269  1.00  0.00     0.169 HD
BRANCH  12  14
HETATM   14  C   UNL     1       6.898   1.113  20.498  1.00  0.00     0.056 A 
HETATM   15  C   UNL     1       7.113   0.330  19.459  1.00  0.00     0.117 A 
HETATM   16  N   UNL     1       6.695  -0.204  18.439  1.00  0.00    -0.373 N 
HETATM   17  C   UNL     1       5.493   0.390  18.330  1.00  0.00     0.088 A 
ATOM     18  HN  UNL     1       7.136  -0.903  17.840  1.00  0.00     0.164 HD
HETATM   19  C   UNL     1       4.992   1.151  19.086  1.00  0.00     0.026 A 
HETATM   20  C   UNL     1       5.419   1.660  20.264  1.00  0.00    -0.033 A 
HETATM   21  C   UNL     1       4.722   2.656  21.252  1.00  0.00     0.050 C 
ENDBRANCH  12  14
ENDBRANCH   9  10
BRANCH   1  22
HETATM   22  N   UNL     1       8.428   5.106  24.605  1.00  0.00    -0.295 N 
ATOM     23  HN  UNL     1       7.608   5.285  25.183  1.00  0.00     0.177 HD
BRANCH  22  24
HETATM   24  S   UNL     1       9.087   6.406  23.852  1.00  0.00     0.226 S 
HETATM   25  C   UNL     1       9.084   7.617  24.943  1.00  0.00     0.186 C 
HETATM   26  O   UNL     1      10.440   6.092  23.455  1.00  0.00    -0.206 OA
HETATM   27  O   UNL     1       8.316   6.791  22.707  1.00  0.00    -0.206 OA
ENDBRANCH  22  24
ENDBRANCH   1  22
TORSDOF 4
ENDMDL
