REMARK  4 active torsions:
REMARK  status: ('A' for Active; 'I' for Inactive)
REMARK    1  A    between atoms: S_2  and  N_5 
REMARK    2  A    between atoms: N_5  and  C_7 
REMARK    3  A    between atoms: C_15  and  C_16 
REMARK       I    between atoms: C_16  and  N_18 
REMARK    4  A    between atoms: N_18  and  C_20 
ROOT
HETATM    1  C   UNL     1       8.996  -2.938  24.154  1.00  0.00     0.109 C 
HETATM    2  C   UNL     1       9.455  -1.956  23.472  1.00  0.00    -0.008 A 
HETATM    3  C   UNL     1      10.351  -1.126  23.241  1.00  0.00     0.058 A 
HETATM    4  C   UNL     1      11.047   0.005  24.346  1.00  0.00    -0.003 C 
HETATM    5  C   UNL     1      12.034   0.286  24.256  1.00  0.00    -0.002 C 
HETATM    6  C   UNL     1      13.176  -0.167  23.409  1.00  0.00    -0.001 C 
HETATM    7  C   UNL     1      12.713  -1.248  22.682  1.00  0.00    -0.002 C 
HETATM    8  C   UNL     1      11.789  -1.741  22.525  1.00  0.00    -0.003 C 
HETATM    9  C   UNL     1       9.681  -0.622  22.376  1.00  0.00     0.040 A 
ENDROOT
BRANCH   9  10
HETATM   10  C   UNL     1       9.053   0.044  21.410  1.00  0.00     0.254 C 
HETATM   11  O   UNL     1       9.543   1.005  20.991  1.00  0.00    -0.268 OA
HETATM   12  N   UNL     1       7.935  -0.568  21.070  1.00  0.00    -0.321 N 
ATOM     13  HN  UNL     1       7.658  -1.423  21.552  1.00  0.00     0.169 HD
BRANCH  12  14
HETATM   14  C   UNL     1       7.219  -0.109  20.166  1.00  0.00     0.056 A 
HETATM   15  C   UNL     1       7.292  -0.018  18.853  1.00  0.00     0.117 A 
HETATM   16  N   UNL     1       6.770   0.289  17.788  1.00  0.00    -0.373 N 
HETATM   17  C   UNL     1       5.648   0.885  18.232  1.00  0.00     0.088 A 
ATOM     18  HN  UNL     1       7.095   0.136  16.833  1.00  0.00     0.164 HD
HETATM   19  C   UNL     1       5.277   0.984  19.352  1.00  0.00     0.026 A 
HETATM   20  C   UNL     1       5.812   0.553  20.517  1.00  0.00    -0.033 A 
HETATM   21  C   UNL     1       5.285   0.687  21.987  1.00  0.00     0.050 C 
ENDBRANCH  12  14
ENDBRANCH   9  10
BRANCH   1  22
HETATM   22  N   UNL     1       8.109  -3.556  24.677  1.00  0.00    -0.295 N 
ATOM     23  HN  UNL     1       7.233  -3.619  24.159  1.00  0.00     0.177 HD
BRANCH  22  24
HETATM   24  S   UNL     1       8.151  -4.310  26.133  1.00  0.00     0.226 S 
HETATM   25  C   UNL     1       6.629  -4.814  26.431  1.00  0.00     0.186 C 
HETATM   26  O   UNL     1       9.048  -5.440  26.059  1.00  0.00    -0.206 OA
HETATM   27  O   UNL     1       8.571  -3.416  27.171  1.00  0.00    -0.206 OA
ENDBRANCH  22  24
ENDBRANCH   1  22
TORSDOF 4
