stable:False satoms:8 tatoms:24 sratio:0.3333333333333333
  -OEChem-07092417513D

 24 24  0     0  0  0  0  0  0999 V2000
    6.5945   -4.8657   26.4750 C   0  0  0  0  0  0  0  0  0  0  0  0
    8.2436   -4.2763   26.1341 S   0  0  0  0  0  0  0  0  0  0  0  0
    9.0895   -5.4217   26.1052 O   0  0  0  0  0  0  0  0  0  0  0  0
    8.6184   -3.3704   27.1615 O   0  0  0  0  0  0  0  0  0  0  0  0
    8.1105   -3.5393   24.6621 N   0  0  0  0  0  0  0  0  0  0  0  0
    9.0089   -2.9510   24.1418 C   0  0  0  0  0  0  0  0  0  0  0  0
    9.4303   -1.9654   23.5129 C   0  0  0  0  0  0  0  0  0  0  0  0
   10.1703   -1.0069   23.3369 C   0  0  0  0  0  0  0  0  0  0  0  0
   11.0345   -0.0086   24.2781 C   0  0  0  0  0  0  0  0  0  0  0  0
   12.0445    0.2483   24.2242 C   0  0  0  0  0  0  0  0  0  0  0  0
   13.0982   -0.2496   23.4364 C   0  0  0  0  0  0  0  0  0  0  0  0
   12.7203   -1.3235   22.6115 C   0  0  0  0  0  0  0  0  0  0  0  0
   11.9601   -1.8186   22.4114 C   0  0  0  0  0  0  0  0  0  0  0  0
    9.7012   -0.5781   22.3753 C   0  0  0  0  0  0  0  0  0  0  0  0
    9.0517    0.0538   21.3701 C   0  0  0  0  0  0  0  0  0  0  0  0
    9.5186    1.0051   20.9624 O   0  0  0  0  0  0  0  0  0  0  0  0
    7.9397   -0.5622   21.0489 N   0  0  0  0  0  0  0  0  0  0  0  0
    7.1891   -0.1028   20.1594 C   0  0  0  0  0  0  0  0  0  0  0  0
    7.2325    0.0033   18.8363 C   0  0  0  0  0  0  0  0  0  0  0  0
    6.7903    0.3288   17.7849 N   0  0  0  0  0  0  0  0  0  0  0  0
    5.5920    0.9358   18.2563 C   0  0  0  0  0  0  0  0  0  0  0  0
    5.2657    0.9831   19.4156 C   0  0  0  0  0  0  0  0  0  0  0  0
    5.8395    0.5422   20.5385 C   0  0  0  0  0  0  0  0  0  0  0  0
    5.3401    0.6498   22.0580 C   0  0  0  0  0  0  0  0  0  0  0  0
 20 21  2  0  0  0  0
 19 20  1  0  0  0  0
 21 22  1  0  0  0  0
 18 19  2  0  0  0  0
 22 23  2  0  0  0  0
 18 23  1  0  0  0  0
 17 18  1  0  0  0  0
 23 24  1  0  0  0  0
 15 16  2  0  0  0  0
 15 17  1  0  0  0  0
 14 15  1  0  0  0  0
  8 14  2  3  0  0  0
 12 13  2  0  0  0  0
 11 12  1  0  0  0  0
  7  8  1  0  0  0  0
  8  9  1  0  0  0  0
 10 11  1  0  0  0  0
  6  7  2  3  0  0  0
  5  6  1  0  0  0  0
  9 10  2  0  0  0  0
  2  5  1  0  0  0  0
  2  3  2  0  0  0  0
  1  2  1  0  0  0  0
  2  4  2  0  0  0  0
M  END
> <Shapegauss>
-284.289001

$$$$
