MODEL 1
REMARK VINA RESULT:    -6.286      0.000      0.000
REMARK INTER + INTRA:         -11.471
REMARK INTER:                  -9.961
REMARK INTRA:                  -1.510
REMARK UNBOUND:                -1.510
REMARK  10 active torsions:
REMARK  status: ('A' for Active; 'I' for Inactive)
REMARK    1  A    between atoms: S_2  and  N_5 
REMARK    2  A    between atoms: N_5  and  C_7 
REMARK    3  A    between atoms: C_8  and  C_9 
REMARK    4  A    between atoms: C_9  and  C_15 
REMARK    5  A    between atoms: C_9  and  C_10 
REMARK    6  A    between atoms: C_10  and  C_11 
REMARK    7  A    between atoms: C_11  and  C_12 
REMARK    8  A    between atoms: C_12  and  C_13 
REMARK    9  A    between atoms: C_15  and  C_16 
REMARK       I    between atoms: C_16  and  N_18 
REMARK   10  A    between atoms: N_18  and  C_20 
ROOT
HETATM    1  C   UNL     1       9.279  -1.454  23.470  1.00  0.00     0.016 C 
ENDROOT
BRANCH   1   2
HETATM    2  C   UNL     1       9.028  -2.646  23.357  1.00  0.00     0.038 C 
HETATM    3  C   UNL     1       8.367  -3.675  23.582  1.00  0.00     0.101 C 
BRANCH   3   4
HETATM    4  N   UNL     1       7.749  -4.614  23.183  1.00  0.00    -0.295 N 
ATOM      5  HN  UNL     1       8.217  -5.519  23.137  1.00  0.00     0.177 HD
BRANCH   4   6
HETATM    6  S   UNL     1       6.172  -4.520  22.700  1.00  0.00     0.226 S 
HETATM    7  C   UNL     1       5.496  -3.191  23.679  1.00  0.00     0.186 C 
HETATM    8  O   UNL     1       6.033  -4.133  21.336  1.00  0.00    -0.206 OA
HETATM    9  O   UNL     1       5.445  -5.705  22.989  1.00  0.00    -0.206 OA
ENDBRANCH   4   6
ENDBRANCH   3   4
ENDBRANCH   1   2
BRANCH   1  10
HETATM   10  C   UNL     1       8.786  -1.063  22.505  1.00  0.00    -0.044 C 
BRANCH  10  11
HETATM   11  C   UNL     1       8.362  -0.471  21.364  1.00  0.00     0.294 C 
HETATM   12  O   UNL     1       9.120   0.137  20.777  1.00  0.00    -0.258 OA
HETATM   13  N   UNL     1       7.090  -0.699  21.145  1.00  0.00    -0.315 N 
ATOM     14  HN  UNL     1       6.564  -1.286  21.792  1.00  0.00     0.170 HD
BRANCH  13  15
HETATM   15  C   UNL     1       6.514  -0.202  20.151  1.00  0.00     0.057 A 
HETATM   16  C   UNL     1       6.243  -0.594  18.911  1.00  0.00     0.117 A 
HETATM   17  N   UNL     1       5.791  -0.438  17.826  1.00  0.00    -0.373 N 
HETATM   18  C   UNL     1       5.321   0.894  18.000  1.00  0.00     0.088 A 
ATOM     19  HN  UNL     1       5.751  -1.062  17.021  1.00  0.00     0.164 HD
HETATM   20  C   UNL     1       5.410   1.516  19.029  1.00  0.00     0.026 A 
HETATM   21  C   UNL     1       5.921   1.220  20.226  1.00  0.00    -0.033 A 
HETATM   22  C   UNL     1       6.007   2.113  21.556  1.00  0.00     0.050 C 
ENDBRANCH  13  15
ENDBRANCH  10  11
ENDBRANCH   1  10
BRANCH   1  23
HETATM   23  C   UNL     1       9.491  -0.416  24.697  1.00  0.00     0.020 C 
BRANCH  23  24
HETATM   24  C   UNL     1      10.368   0.021  25.055  1.00  0.00     0.001 C 
BRANCH  24  25
HETATM   25  C   UNL     1      11.414   0.699  24.401  1.00  0.00    -0.001 C 
BRANCH  25  26
HETATM   26  C   UNL     1      12.637   0.010  24.440  1.00  0.00    -0.010 C 
HETATM   27  C   UNL     1      13.059  -0.695  24.005  1.00  0.00     0.011 C 
ENDBRANCH  25  26
ENDBRANCH  24  25
ENDBRANCH  23  24
ENDBRANCH   1  23
TORSDOF 10
ENDMDL
MODEL 2
REMARK VINA RESULT:    -6.021      2.696      6.119
REMARK INTER + INTRA:         -11.051
REMARK INTER:                 -10.250
REMARK INTRA:                  -0.801
REMARK UNBOUND:                -1.510
REMARK  10 active torsions:
REMARK  status: ('A' for Active; 'I' for Inactive)
REMARK    1  A    between atoms: S_2  and  N_5 
REMARK    2  A    between atoms: N_5  and  C_7 
REMARK    3  A    between atoms: C_8  and  C_9 
REMARK    4  A    between atoms: C_9  and  C_15 
REMARK    5  A    between atoms: C_9  and  C_10 
REMARK    6  A    between atoms: C_10  and  C_11 
REMARK    7  A    between atoms: C_11  and  C_12 
REMARK    8  A    between atoms: C_12  and  C_13 
REMARK    9  A    between atoms: C_15  and  C_16 
REMARK       I    between atoms: C_16  and  N_18 
REMARK   10  A    between atoms: N_18  and  C_20 
ROOT
HETATM    1  C   UNL     1       8.888  -1.489  22.238  1.00  0.00     0.016 C 
ENDROOT
BRANCH   1   2
HETATM    2  C   UNL     1       8.005  -1.315  21.409  1.00  0.00     0.038 C 
HETATM    3  C   UNL     1       6.823  -1.198  21.044  1.00  0.00     0.101 C 
BRANCH   3   4
HETATM    4  N   UNL     1       5.968  -0.574  20.494  1.00  0.00    -0.295 N 
ATOM      5  HN  UNL     1       5.081  -0.437  20.977  1.00  0.00     0.177 HD
BRANCH   4   6
HETATM    6  S   UNL     1       6.150   0.076  18.987  1.00  0.00     0.226 S 
HETATM    7  C   UNL     1       5.073   1.499  18.995  1.00  0.00     0.186 C 
HETATM    8  O   UNL     1       7.467   0.564  18.750  1.00  0.00    -0.206 OA
HETATM    9  O   UNL     1       5.721  -0.806  17.960  1.00  0.00    -0.206 OA
ENDBRANCH   4   6
ENDBRANCH   3   4
ENDBRANCH   1   2
BRANCH   1  10
HETATM   10  C   UNL     1       8.451  -2.401  22.793  1.00  0.00    -0.044 C 
BRANCH  10  11
HETATM   11  C   UNL     1       7.999  -3.376  23.614  1.00  0.00     0.294 C 
HETATM   12  O   UNL     1       7.480  -4.265  23.135  1.00  0.00    -0.258 OA
HETATM   13  N   UNL     1       8.232  -3.095  24.874  1.00  0.00    -0.315 N 
ATOM     14  HN  UNL     1       8.727  -2.237  25.116  1.00  0.00     0.170 HD
BRANCH  13  15
HETATM   15  C   UNL     1       7.854  -3.869  25.782  1.00  0.00     0.057 A 
HETATM   16  C   UNL     1       8.329  -4.966  26.360  1.00  0.00     0.117 A 
HETATM   17  N   UNL     1       8.277  -5.862  27.134  1.00  0.00    -0.373 N 
HETATM   18  C   UNL     1       7.006  -5.559  27.699  1.00  0.00     0.088 A 
ATOM     19  HN  UNL     1       8.936  -6.614  27.334  1.00  0.00     0.164 HD
HETATM   20  C   UNL     1       6.334  -4.609  27.386  1.00  0.00     0.026 A 
HETATM   21  C   UNL     1       6.513  -3.623  26.504  1.00  0.00    -0.033 A 
HETATM   22  C   UNL     1       5.559  -2.386  26.138  1.00  0.00     0.050 C 
ENDBRANCH  13  15
ENDBRANCH  10  11
ENDBRANCH   1  10
BRANCH   1  23
HETATM   23  C   UNL     1      10.489  -1.245  22.310  1.00  0.00     0.020 C 
BRANCH  23  24
HETATM   24  C   UNL     1      11.217  -1.761  22.850  1.00  0.00     0.001 C 
BRANCH  24  25
HETATM   25  C   UNL     1      12.568  -1.472  23.118  1.00  0.00    -0.001 C 
BRANCH  25  26
HETATM   26  C   UNL     1      12.744  -0.529  24.146  1.00  0.00    -0.010 C 
HETATM   27  C   UNL     1      12.438   0.316  24.380  1.00  0.00     0.011 C 
ENDBRANCH  25  26
ENDBRANCH  24  25
ENDBRANCH  23  24
ENDBRANCH   1  23
TORSDOF 10
ENDMDL
MODEL 3
REMARK VINA RESULT:    -5.890      1.932      2.081
REMARK INTER + INTRA:         -10.844
REMARK INTER:                  -9.782
REMARK INTRA:                  -1.062
REMARK UNBOUND:                -1.510
REMARK  10 active torsions:
REMARK  status: ('A' for Active; 'I' for Inactive)
REMARK    1  A    between atoms: S_2  and  N_5 
REMARK    2  A    between atoms: N_5  and  C_7 
REMARK    3  A    between atoms: C_8  and  C_9 
REMARK    4  A    between atoms: C_9  and  C_15 
REMARK    5  A    between atoms: C_9  and  C_10 
REMARK    6  A    between atoms: C_10  and  C_11 
REMARK    7  A    between atoms: C_11  and  C_12 
REMARK    8  A    between atoms: C_12  and  C_13 
REMARK    9  A    between atoms: C_15  and  C_16 
REMARK       I    between atoms: C_16  and  N_18 
REMARK   10  A    between atoms: N_18  and  C_20 
ROOT
HETATM    1  C   UNL     1       9.497  -1.147  23.500  1.00  0.00     0.016 C 
ENDROOT
BRANCH   1   2
HETATM    2  C   UNL     1       8.835  -2.166  23.636  1.00  0.00     0.038 C 
HETATM    3  C   UNL     1       8.679  -3.370  23.902  1.00  0.00     0.101 C 
BRANCH   3   4
HETATM    4  N   UNL     1       8.138  -4.229  24.528  1.00  0.00    -0.295 N 
ATOM      5  HN  UNL     1       7.851  -5.077  24.040  1.00  0.00     0.177 HD
BRANCH   4   6
HETATM    6  S   UNL     1       7.828  -4.111  26.146  1.00  0.00     0.226 S 
HETATM    7  C   UNL     1       6.705  -5.459  26.473  1.00  0.00     0.186 C 
HETATM    8  O   UNL     1       8.982  -4.339  26.949  1.00  0.00    -0.206 OA
HETATM    9  O   UNL     1       7.180  -2.894  26.487  1.00  0.00    -0.206 OA
ENDBRANCH   4   6
ENDBRANCH   3   4
ENDBRANCH   1   2
BRANCH   1  10
HETATM   10  C   UNL     1       8.960  -0.691  22.587  1.00  0.00    -0.044 C 
BRANCH  10  11
HETATM   11  C   UNL     1       8.489  -0.223  21.408  1.00  0.00     0.294 C 
HETATM   12  O   UNL     1       9.215   0.339  20.740  1.00  0.00    -0.258 OA
HETATM   13  N   UNL     1       7.216  -0.497  21.253  1.00  0.00    -0.315 N 
ATOM     14  HN  UNL     1       6.723  -1.027  21.971  1.00  0.00     0.170 HD
BRANCH  13  15
HETATM   15  C   UNL     1       6.600  -0.113  20.233  1.00  0.00     0.057 A 
HETATM   16  C   UNL     1       6.341  -0.612  19.031  1.00  0.00     0.117 A 
HETATM   17  N   UNL     1       5.868  -0.566  17.944  1.00  0.00    -0.373 N 
HETATM   18  C   UNL     1       5.318   0.744  18.026  1.00  0.00     0.088 A 
ATOM     19  HN  UNL     1       5.858  -1.251  17.189  1.00  0.00     0.164 HD
HETATM   20  C   UNL     1       5.379   1.446  19.004  1.00  0.00     0.026 A 
HETATM   21  C   UNL     1       5.921   1.272  20.212  1.00  0.00    -0.033 A 
HETATM   22  C   UNL     1       5.965   2.267  21.470  1.00  0.00     0.050 C 
ENDBRANCH  13  15
ENDBRANCH  10  11
ENDBRANCH   1  10
BRANCH   1  23
HETATM   23  C   UNL     1      10.326  -0.152  24.476  1.00  0.00     0.020 C 
BRANCH  23  24
HETATM   24  C   UNL     1      11.301  -0.236  24.838  1.00  0.00     0.001 C 
BRANCH  24  25
HETATM   25  C   UNL     1      12.551  -0.038  24.222  1.00  0.00    -0.001 C 
BRANCH  25  26
HETATM   26  C   UNL     1      12.921  -1.085  23.361  1.00  0.00    -0.010 C 
HETATM   27  C   UNL     1      13.551  -1.767  23.318  1.00  0.00     0.011 C 
ENDBRANCH  25  26
ENDBRANCH  24  25
ENDBRANCH  23  24
ENDBRANCH   1  23
TORSDOF 10
ENDMDL
MODEL 4
REMARK VINA RESULT:    -5.881      2.802      6.723
REMARK INTER + INTRA:         -10.829
REMARK INTER:                  -8.758
REMARK INTRA:                  -2.070
REMARK UNBOUND:                -1.510
REMARK  10 active torsions:
REMARK  status: ('A' for Active; 'I' for Inactive)
REMARK    1  A    between atoms: S_2  and  N_5 
REMARK    2  A    between atoms: N_5  and  C_7 
REMARK    3  A    between atoms: C_8  and  C_9 
REMARK    4  A    between atoms: C_9  and  C_15 
REMARK    5  A    between atoms: C_9  and  C_10 
REMARK    6  A    between atoms: C_10  and  C_11 
REMARK    7  A    between atoms: C_11  and  C_12 
REMARK    8  A    between atoms: C_12  and  C_13 
REMARK    9  A    between atoms: C_15  and  C_16 
REMARK       I    between atoms: C_16  and  N_18 
REMARK   10  A    between atoms: N_18  and  C_20 
ROOT
HETATM    1  C   UNL     1       7.768   0.564  21.525  1.00  0.00     0.016 C 
ENDROOT
BRANCH   1   2
HETATM    2  C   UNL     1       8.982   0.678  21.616  1.00  0.00     0.038 C 
HETATM    3  C   UNL     1      10.034   1.010  22.189  1.00  0.00     0.101 C 
BRANCH   3   4
HETATM    4  N   UNL     1      11.115   0.731  22.609  1.00  0.00    -0.295 N 
ATOM      5  HN  UNL     1      11.900   1.333  22.365  1.00  0.00     0.177 HD
BRANCH   4   6
HETATM    6  S   UNL     1      11.402  -0.583  23.568  1.00  0.00     0.226 S 
HETATM    7  C   UNL     1      13.061  -0.326  24.171  1.00  0.00     0.186 C 
HETATM    8  O   UNL     1      10.555  -0.630  24.711  1.00  0.00    -0.206 OA
HETATM    9  O   UNL     1      11.374  -1.802  22.839  1.00  0.00    -0.206 OA
ENDBRANCH   4   6
ENDBRANCH   3   4
ENDBRANCH   1   2
BRANCH   1  10
HETATM   10  C   UNL     1       7.608  -0.338  22.226  1.00  0.00    -0.044 C 
BRANCH  10  11
HETATM   11  C   UNL     1       7.292  -1.274  23.150  1.00  0.00     0.294 C 
HETATM   12  O   UNL     1       6.312  -1.148  23.709  1.00  0.00    -0.258 OA
HETATM   13  N   UNL     1       8.228  -2.187  23.253  1.00  0.00    -0.315 N 
ATOM     14  HN  UNL     1       9.049  -2.138  22.651  1.00  0.00     0.170 HD
BRANCH  13  15
HETATM   15  C   UNL     1       8.123  -3.118  24.084  1.00  0.00     0.057 A 
HETATM   16  C   UNL     1       8.388  -3.278  25.375  1.00  0.00     0.117 A 
HETATM   17  N   UNL     1       8.430  -3.911  26.377  1.00  0.00    -0.373 N 
HETATM   18  C   UNL     1       7.947  -5.142  25.851  1.00  0.00     0.088 A 
ATOM     19  HN  UNL     1       8.720  -3.654  27.320  1.00  0.00     0.164 HD
HETATM   20  C   UNL     1       7.608  -5.303  24.705  1.00  0.00     0.026 A 
HETATM   21  C   UNL     1       7.571  -4.490  23.647  1.00  0.00    -0.033 A 
HETATM   22  C   UNL     1       7.107  -4.785  22.140  1.00  0.00     0.050 C 
ENDBRANCH  13  15
ENDBRANCH  10  11
ENDBRANCH   1  10
BRANCH   1  23
HETATM   23  C   UNL     1       6.517   1.561  21.263  1.00  0.00     0.020 C 
BRANCH  23  24
HETATM   24  C   UNL     1       5.930   1.682  20.409  1.00  0.00     0.001 C 
BRANCH  24  25
HETATM   25  C   UNL     1       5.110   0.785  19.700  1.00  0.00    -0.001 C 
BRANCH  25  26
HETATM   26  C   UNL     1       5.671   0.357  18.484  1.00  0.00    -0.010 C 
HETATM   27  C   UNL     1       5.976  -0.428  18.091  1.00  0.00     0.011 C 
ENDBRANCH  25  26
ENDBRANCH  24  25
ENDBRANCH  23  24
ENDBRANCH   1  23
TORSDOF 10
ENDMDL
MODEL 5
REMARK VINA RESULT:    -5.847      2.757      5.758
REMARK INTER + INTRA:         -10.776
REMARK INTER:                  -9.329
REMARK INTRA:                  -1.447
REMARK UNBOUND:                -1.510
REMARK  10 active torsions:
REMARK  status: ('A' for Active; 'I' for Inactive)
REMARK    1  A    between atoms: S_2  and  N_5 
REMARK    2  A    between atoms: N_5  and  C_7 
REMARK    3  A    between atoms: C_8  and  C_9 
REMARK    4  A    between atoms: C_9  and  C_15 
REMARK    5  A    between atoms: C_9  and  C_10 
REMARK    6  A    between atoms: C_10  and  C_11 
REMARK    7  A    between atoms: C_11  and  C_12 
REMARK    8  A    between atoms: C_12  and  C_13 
REMARK    9  A    between atoms: C_15  and  C_16 
REMARK       I    between atoms: C_16  and  N_18 
REMARK   10  A    between atoms: N_18  and  C_20 
ROOT
HETATM    1  C   UNL     1       8.354   0.933  22.298  1.00  0.00     0.016 C 
ENDROOT
BRANCH   1   2
HETATM    2  C   UNL     1       8.373   0.497  21.155  1.00  0.00     0.038 C 
HETATM    3  C   UNL     1       7.849   0.050  20.121  1.00  0.00     0.101 C 
BRANCH   3   4
HETATM    4  N   UNL     1       7.677   0.107  18.942  1.00  0.00    -0.295 N 
ATOM      5  HN  UNL     1       8.481  -0.024  18.328  1.00  0.00     0.177 HD
BRANCH   4   6
HETATM    6  S   UNL     1       6.202   0.385  18.254  1.00  0.00     0.226 S 
HETATM    7  C   UNL     1       5.154   0.814  19.633  1.00  0.00     0.186 C 
HETATM    8  O   UNL     1       6.202   1.508  17.378  1.00  0.00    -0.206 OA
HETATM    9  O   UNL     1       5.668  -0.773  17.628  1.00  0.00    -0.206 OA
ENDBRANCH   4   6
ENDBRANCH   3   4
ENDBRANCH   1   2
BRANCH   1  10
HETATM   10  C   UNL     1       8.047  -0.025  22.862  1.00  0.00    -0.044 C 
BRANCH  10  11
HETATM   11  C   UNL     1       7.656  -1.026  23.684  1.00  0.00     0.294 C 
HETATM   12  O   UNL     1       6.660  -0.907  24.216  1.00  0.00    -0.258 OA
HETATM   13  N   UNL     1       8.547  -1.985  23.737  1.00  0.00    -0.315 N 
ATOM     14  HN  UNL     1       9.394  -1.919  23.173  1.00  0.00     0.170 HD
BRANCH  13  15
HETATM   15  C   UNL     1       8.371  -2.982  24.474  1.00  0.00     0.057 A 
HETATM   16  C   UNL     1       8.586  -3.273  25.751  1.00  0.00     0.117 A 
HETATM   17  N   UNL     1       8.564  -3.998  26.690  1.00  0.00    -0.373 N 
HETATM   18  C   UNL     1       8.039  -5.148  26.038  1.00  0.00     0.088 A 
ATOM     19  HN  UNL     1       8.836  -3.844  27.661  1.00  0.00     0.164 HD
HETATM   20  C   UNL     1       7.729  -5.186  24.873  1.00  0.00     0.026 A 
HETATM   21  C   UNL     1       7.767  -4.278  23.895  1.00  0.00    -0.033 A 
HETATM   22  C   UNL     1       7.339  -4.409  22.355  1.00  0.00     0.050 C 
ENDBRANCH  13  15
ENDBRANCH  10  11
ENDBRANCH   1  10
BRANCH   1  23
HETATM   23  C   UNL     1       9.137   2.089  23.122  1.00  0.00     0.020 C 
BRANCH  23  24
HETATM   24  C   UNL     1       9.883   2.000  23.846  1.00  0.00     0.001 C 
BRANCH  24  25
HETATM   25  C   UNL     1      11.262   1.736  23.745  1.00  0.00    -0.001 C 
BRANCH  25  26
HETATM   26  C   UNL     1      11.611   0.434  24.143  1.00  0.00    -0.010 C 
HETATM   27  C   UNL     1      12.355  -0.026  24.457  1.00  0.00     0.011 C 
ENDBRANCH  25  26
ENDBRANCH  24  25
ENDBRANCH  23  24
ENDBRANCH   1  23
TORSDOF 10
ENDMDL
MODEL 6
REMARK VINA RESULT:    -5.840      1.691      2.197
REMARK INTER + INTRA:         -10.764
REMARK INTER:                  -9.197
REMARK INTRA:                  -1.567
REMARK UNBOUND:                -1.510
REMARK  10 active torsions:
REMARK  status: ('A' for Active; 'I' for Inactive)
REMARK    1  A    between atoms: S_2  and  N_5 
REMARK    2  A    between atoms: N_5  and  C_7 
REMARK    3  A    between atoms: C_8  and  C_9 
REMARK    4  A    between atoms: C_9  and  C_15 
REMARK    5  A    between atoms: C_9  and  C_10 
REMARK    6  A    between atoms: C_10  and  C_11 
REMARK    7  A    between atoms: C_11  and  C_12 
REMARK    8  A    between atoms: C_12  and  C_13 
REMARK    9  A    between atoms: C_15  and  C_16 
REMARK       I    between atoms: C_16  and  N_18 
REMARK   10  A    between atoms: N_18  and  C_20 
ROOT
HETATM    1  C   UNL     1      10.152  -0.343  23.636  1.00  0.00     0.016 C 
ENDROOT
BRANCH   1   2
HETATM    2  C   UNL     1       9.818  -1.463  23.999  1.00  0.00     0.038 C 
HETATM    3  C   UNL     1       8.994  -2.367  24.216  1.00  0.00     0.101 C 
BRANCH   3   4
HETATM    4  N   UNL     1       8.622  -3.489  24.052  1.00  0.00    -0.295 N 
ATOM      5  HN  UNL     1       9.233  -4.250  24.348  1.00  0.00     0.177 HD
BRANCH   4   6
HETATM    6  S   UNL     1       7.169  -3.869  23.366  1.00  0.00     0.226 S 
HETATM    7  C   UNL     1       7.395  -5.533  22.763  1.00  0.00     0.186 C 
HETATM    8  O   UNL     1       6.107  -3.920  24.313  1.00  0.00    -0.206 OA
HETATM    9  O   UNL     1       6.854  -3.031  22.263  1.00  0.00    -0.206 OA
ENDBRANCH   4   6
ENDBRANCH   3   4
ENDBRANCH   1   2
BRANCH   1  10
HETATM   10  C   UNL     1       9.463  -0.227  22.719  1.00  0.00    -0.044 C 
BRANCH  10  11
HETATM   11  C   UNL     1       8.752   0.086  21.611  1.00  0.00     0.294 C 
HETATM   12  O   UNL     1       9.330   0.453  20.705  1.00  0.00    -0.258 OA
HETATM   13  N   UNL     1       7.465  -0.080  21.798  1.00  0.00    -0.315 N 
ATOM     14  HN  UNL     1       7.127  -0.433  22.693  1.00  0.00     0.170 HD
BRANCH  13  15
HETATM   15  C   UNL     1       6.647   0.191  20.891  1.00  0.00     0.057 A 
HETATM   16  C   UNL     1       6.123  -0.454  19.855  1.00  0.00     0.117 A 
HETATM   17  N   UNL     1       5.425  -0.533  18.899  1.00  0.00    -0.373 N 
HETATM   18  C   UNL     1       4.927   0.801  18.910  1.00  0.00     0.088 A 
ATOM     19  HN  UNL     1       5.239  -1.312  18.269  1.00  0.00     0.164 HD
HETATM   20  C   UNL     1       5.213   1.625  19.743  1.00  0.00     0.026 A 
HETATM   21  C   UNL     1       6.002   1.591  20.819  1.00  0.00    -0.033 A 
HETATM   22  C   UNL     1       6.337   2.743  21.883  1.00  0.00     0.050 C 
ENDBRANCH  13  15
ENDBRANCH  10  11
ENDBRANCH   1  10
BRANCH   1  23
HETATM   23  C   UNL     1      10.705   1.002  24.352  1.00  0.00     0.020 C 
BRANCH  23  24
HETATM   24  C   UNL     1      11.193   1.825  23.936  1.00  0.00     0.001 C 
BRANCH  24  25
HETATM   25  C   UNL     1      10.759   3.137  23.672  1.00  0.00    -0.001 C 
BRANCH  25  26
HETATM   26  C   UNL     1      11.802   4.079  23.662  1.00  0.00    -0.010 C 
HETATM   27  C   UNL     1      11.920   4.995  23.763  1.00  0.00     0.011 C 
ENDBRANCH  25  26
ENDBRANCH  24  25
ENDBRANCH  23  24
ENDBRANCH   1  23
TORSDOF 10
ENDMDL
MODEL 7
REMARK VINA RESULT:    -5.783     14.160     16.260
REMARK INTER + INTRA:         -10.675
REMARK INTER:                  -9.273
REMARK INTRA:                  -1.401
REMARK UNBOUND:                -1.510
REMARK  10 active torsions:
REMARK  status: ('A' for Active; 'I' for Inactive)
REMARK    1  A    between atoms: S_2  and  N_5 
REMARK    2  A    between atoms: N_5  and  C_7 
REMARK    3  A    between atoms: C_8  and  C_9 
REMARK    4  A    between atoms: C_9  and  C_15 
REMARK    5  A    between atoms: C_9  and  C_10 
REMARK    6  A    between atoms: C_10  and  C_11 
REMARK    7  A    between atoms: C_11  and  C_12 
REMARK    8  A    between atoms: C_12  and  C_13 
REMARK    9  A    between atoms: C_15  and  C_16 
REMARK       I    between atoms: C_16  and  N_18 
REMARK   10  A    between atoms: N_18  and  C_20 
ROOT
HETATM    1  C   UNL     1      24.436  -2.047  23.168  1.00  0.00     0.016 C 
ENDROOT
BRANCH   1   2
HETATM    2  C   UNL     1      24.636  -3.246  23.297  1.00  0.00     0.038 C 
HETATM    3  C   UNL     1      24.639  -4.317  23.928  1.00  0.00     0.101 C 
BRANCH   3   4
HETATM    4  N   UNL     1      24.314  -5.461  24.025  1.00  0.00    -0.295 N 
ATOM      5  HN  UNL     1      24.122  -5.985  23.172  1.00  0.00     0.177 HD
BRANCH   4   6
HETATM    6  S   UNL     1      24.160  -6.238  25.475  1.00  0.00     0.226 S 
HETATM    7  C   UNL     1      25.752  -6.029  26.252  1.00  0.00     0.186 C 
HETATM    8  O   UNL     1      23.204  -5.623  26.333  1.00  0.00    -0.206 OA
HETATM    9  O   UNL     1      23.914  -7.628  25.321  1.00  0.00    -0.206 OA
ENDBRANCH   4   6
ENDBRANCH   3   4
ENDBRANCH   1   2
BRANCH   1  10
HETATM   10  C   UNL     1      24.042  -2.035  22.085  1.00  0.00    -0.044 C 
BRANCH  10  11
HETATM   11  C   UNL     1      23.462  -1.865  20.874  1.00  0.00     0.294 C 
HETATM   12  O   UNL     1      22.329  -1.921  20.824  1.00  0.00    -0.258 OA
HETATM   13  N   UNL     1      24.354  -1.680  19.932  1.00  0.00    -0.315 N 
ATOM     14  HN  UNL     1      25.344  -1.653  20.173  1.00  0.00     0.170 HD
BRANCH  13  15
HETATM   15  C   UNL     1      24.003  -1.537  18.738  1.00  0.00     0.057 A 
HETATM   16  C   UNL     1      23.580  -0.530  17.983  1.00  0.00     0.117 A 
HETATM   17  N   UNL     1      23.199  -0.059  16.964  1.00  0.00    -0.373 N 
HETATM   18  C   UNL     1      23.198  -1.250  16.185  1.00  0.00     0.088 A 
ATOM     19  HN  UNL     1      22.950   0.900  16.721  1.00  0.00     0.164 HD
HETATM   20  C   UNL     1      23.548  -2.329  16.595  1.00  0.00     0.026 A 
HETATM   21  C   UNL     1      24.001  -2.745  17.780  1.00  0.00    -0.033 A 
HETATM   22  C   UNL     1      24.444  -4.213  18.251  1.00  0.00     0.050 C 
ENDBRANCH  13  15
ENDBRANCH  10  11
ENDBRANCH   1  10
BRANCH   1  23
HETATM   23  C   UNL     1      24.029  -0.818  24.144  1.00  0.00     0.020 C 
BRANCH  23  24
HETATM   24  C   UNL     1      23.293  -0.088  24.023  1.00  0.00     0.001 C 
BRANCH  24  25
HETATM   25  C   UNL     1      22.012   0.055  24.588  1.00  0.00    -0.001 C 
BRANCH  25  26
HETATM   26  C   UNL     1      21.167  -1.040  24.341  1.00  0.00    -0.010 C 
HETATM   27  C   UNL     1      20.500  -1.522  24.773  1.00  0.00     0.011 C 
ENDBRANCH  25  26
ENDBRANCH  24  25
ENDBRANCH  23  24
ENDBRANCH   1  23
TORSDOF 10
ENDMDL
MODEL 8
REMARK VINA RESULT:    -5.782      2.565      5.219
REMARK INTER + INTRA:         -10.672
REMARK INTER:                  -9.115
REMARK INTRA:                  -1.558
REMARK UNBOUND:                -1.510
REMARK  10 active torsions:
REMARK  status: ('A' for Active; 'I' for Inactive)
REMARK    1  A    between atoms: S_2  and  N_5 
REMARK    2  A    between atoms: N_5  and  C_7 
REMARK    3  A    between atoms: C_8  and  C_9 
REMARK    4  A    between atoms: C_9  and  C_15 
REMARK    5  A    between atoms: C_9  and  C_10 
REMARK    6  A    between atoms: C_10  and  C_11 
REMARK    7  A    between atoms: C_11  and  C_12 
REMARK    8  A    between atoms: C_12  and  C_13 
REMARK    9  A    between atoms: C_15  and  C_16 
REMARK       I    between atoms: C_16  and  N_18 
REMARK   10  A    between atoms: N_18  and  C_20 
ROOT
HETATM    1  C   UNL     1       8.385   1.457  22.689  1.00  0.00     0.016 C 
ENDROOT
BRANCH   1   2
HETATM    2  C   UNL     1       7.375   1.580  22.010  1.00  0.00     0.038 C 
HETATM    3  C   UNL     1       6.759   1.818  20.957  1.00  0.00     0.101 C 
BRANCH   3   4
HETATM    4  N   UNL     1       5.975   1.488  20.121  1.00  0.00    -0.295 N 
ATOM      5  HN  UNL     1       5.064   1.946  20.103  1.00  0.00     0.177 HD
BRANCH   4   6
HETATM    6  S   UNL     1       6.291   0.326  18.991  1.00  0.00     0.226 S 
HETATM    7  C   UNL     1       5.670  -1.176  19.728  1.00  0.00     0.186 C 
HETATM    8  O   UNL     1       5.565   0.517  17.782  1.00  0.00    -0.206 OA
HETATM    9  O   UNL     1       7.682   0.166  18.752  1.00  0.00    -0.206 OA
ENDBRANCH   4   6
ENDBRANCH   3   4
ENDBRANCH   1   2
BRANCH   1  10
HETATM   10  C   UNL     1       8.441   0.307  22.741  1.00  0.00    -0.044 C 
BRANCH  10  11
HETATM   11  C   UNL     1       8.707  -1.020  22.764  1.00  0.00     0.294 C 
HETATM   12  O   UNL     1       9.705  -1.361  22.345  1.00  0.00    -0.258 OA
HETATM   13  N   UNL     1       7.709  -1.704  23.269  1.00  0.00    -0.315 N 
ATOM     14  HN  UNL     1       6.881  -1.214  23.606  1.00  0.00     0.170 HD
BRANCH  13  15
HETATM   15  C   UNL     1       7.762  -2.953  23.341  1.00  0.00     0.057 A 
HETATM   16  C   UNL     1       7.523  -3.966  22.517  1.00  0.00     0.117 A 
HETATM   17  N   UNL     1       7.459  -5.119  22.247  1.00  0.00    -0.373 N 
HETATM   18  C   UNL     1       7.826  -5.639  23.521  1.00  0.00     0.088 A 
ATOM     19  HN  UNL     1       7.218  -5.591  21.376  1.00  0.00     0.164 HD
HETATM   20  C   UNL     1       8.117  -4.958  24.473  1.00  0.00     0.026 A 
HETATM   21  C   UNL     1       8.188  -3.637  24.655  1.00  0.00    -0.033 A 
HETATM   22  C   UNL     1       8.583  -2.802  25.967  1.00  0.00     0.050 C 
ENDBRANCH  13  15
ENDBRANCH  10  11
ENDBRANCH   1  10
BRANCH   1  23
HETATM   23  C   UNL     1       9.750   2.301  22.918  1.00  0.00     0.020 C 
BRANCH  23  24
HETATM   24  C   UNL     1      10.739   1.969  22.956  1.00  0.00     0.001 C 
BRANCH  24  25
HETATM   25  C   UNL     1      11.603   1.718  24.037  1.00  0.00    -0.001 C 
BRANCH  25  26
HETATM   26  C   UNL     1      12.015   0.377  24.123  1.00  0.00    -0.010 C 
HETATM   27  C   UNL     1      12.750  -0.113  24.409  1.00  0.00     0.011 C 
ENDBRANCH  25  26
ENDBRANCH  24  25
ENDBRANCH  23  24
ENDBRANCH   1  23
TORSDOF 10
ENDMDL
MODEL 9
REMARK VINA RESULT:    -5.770      3.678      6.414
REMARK INTER + INTRA:         -10.653
REMARK INTER:                  -9.366
REMARK INTRA:                  -1.286
REMARK UNBOUND:                -1.510
REMARK  10 active torsions:
REMARK  status: ('A' for Active; 'I' for Inactive)
REMARK    1  A    between atoms: S_2  and  N_5 
REMARK    2  A    between atoms: N_5  and  C_7 
REMARK    3  A    between atoms: C_8  and  C_9 
REMARK    4  A    between atoms: C_9  and  C_15 
REMARK    5  A    between atoms: C_9  and  C_10 
REMARK    6  A    between atoms: C_10  and  C_11 
REMARK    7  A    between atoms: C_11  and  C_12 
REMARK    8  A    between atoms: C_12  and  C_13 
REMARK    9  A    between atoms: C_15  and  C_16 
REMARK       I    between atoms: C_16  and  N_18 
REMARK   10  A    between atoms: N_18  and  C_20 
ROOT
HETATM    1  C   UNL     1       7.711  -4.622  24.593  1.00  0.00     0.016 C 
ENDROOT
BRANCH   1   2
HETATM    2  C   UNL     1       7.956  -5.102  25.691  1.00  0.00     0.038 C 
HETATM    3  C   UNL     1       7.689  -5.387  26.871  1.00  0.00     0.101 C 
BRANCH   3   4
HETATM    4  N   UNL     1       7.586  -6.195  27.742  1.00  0.00    -0.295 N 
ATOM      5  HN  UNL     1       8.348  -6.860  27.879  1.00  0.00     0.177 HD
BRANCH   4   6
HETATM    6  S   UNL     1       6.271  -6.293  28.736  1.00  0.00     0.226 S 
HETATM    7  C   UNL     1       4.961  -5.525  27.799  1.00  0.00     0.186 C 
HETATM    8  O   UNL     1       5.863  -7.635  28.984  1.00  0.00    -0.206 OA
HETATM    9  O   UNL     1       6.448  -5.563  29.942  1.00  0.00    -0.206 OA
ENDBRANCH   4   6
ENDBRANCH   3   4
ENDBRANCH   1   2
BRANCH   1  10
HETATM   10  C   UNL     1       8.086  -3.546  24.768  1.00  0.00    -0.044 C 
BRANCH  10  11
HETATM   11  C   UNL     1       8.625  -2.305  24.796  1.00  0.00     0.294 C 
HETATM   12  O   UNL     1       8.145  -1.542  25.487  1.00  0.00    -0.258 OA
HETATM   13  N   UNL     1       9.635  -2.197  23.968  1.00  0.00    -0.315 N 
ATOM     14  HN  UNL     1       9.932  -3.008  23.426  1.00  0.00     0.170 HD
BRANCH  13  15
HETATM   15  C   UNL     1      10.239  -1.109  23.835  1.00  0.00     0.057 A 
HETATM   16  C   UNL     1      11.189  -0.458  24.497  1.00  0.00     0.117 A 
HETATM   17  N   UNL     1      11.919   0.460  24.671  1.00  0.00    -0.373 N 
HETATM   18  C   UNL     1      11.495   1.259  23.572  1.00  0.00     0.088 A 
ATOM     19  HN  UNL     1      12.628   0.626  25.385  1.00  0.00     0.164 HD
HETATM   20  C   UNL     1      10.652   0.926  22.777  1.00  0.00     0.026 A 
HETATM   21  C   UNL     1       9.902  -0.172  22.657  1.00  0.00    -0.033 A 
HETATM   22  C   UNL     1       8.787  -0.540  21.563  1.00  0.00     0.050 C 
ENDBRANCH  13  15
ENDBRANCH  10  11
ENDBRANCH   1  10
BRANCH   1  23
HETATM   23  C   UNL     1       7.635  -5.167  23.068  1.00  0.00     0.020 C 
BRANCH  23  24
HETATM   24  C   UNL     1       6.851  -5.118  22.382  1.00  0.00     0.001 C 
BRANCH  24  25
HETATM   25  C   UNL     1       5.524  -4.667  22.506  1.00  0.00    -0.001 C 
BRANCH  25  26
HETATM   26  C   UNL     1       4.645  -5.645  23.002  1.00  0.00    -0.010 C 
HETATM   27  C   UNL     1       3.739  -5.746  23.184  1.00  0.00     0.011 C 
ENDBRANCH  25  26
ENDBRANCH  24  25
ENDBRANCH  23  24
ENDBRANCH   1  23
TORSDOF 10
ENDMDL
