
 OpenBabel07202414153D

 36 38  0  0  0  0  0  0  0  0999 V2000
    0.9111   -0.0854   -0.0203 C   0  0  0  0  0  0  0  0  0  0  0  0
    2.4015    0.0506   -0.0617 C   0  0  0  0  0  0  0  0  0  0  0  0
    3.1866    1.2546   -0.0226 C   0  0  0  0  0  0  0  0  0  0  0  0
    4.5123    0.8450   -0.0138 C   0  0  0  0  0  0  0  0  0  0  0  0
    5.7535    1.5565    0.0415 C   0  0  0  0  0  0  0  0  0  0  0  0
    6.9198    0.8924   -0.0508 C   0  0  0  0  0  0  0  0  0  0  0  0
    6.9546   -0.5415   -0.2353 C   0  0  0  0  0  0  0  0  0  0  0  0
    5.7942   -1.2187   -0.2867 C   0  0  0  0  0  0  0  0  0  0  0  0
    4.5745   -0.5412   -0.1354 N   0  0  0  0  0  0  0  0  0  0  0  0
    3.2803   -1.0438   -0.0849 C   0  0  0  0  0  0  0  0  0  0  0  0
    2.8735   -2.4463   -0.1255 C   0  0  0  0  0  0  0  0  0  0  0  0
    1.8613   -2.8063   -0.7275 O   0  0  0  0  0  0  0  0  0  0  0  0
    3.6175   -3.5175    0.6015 C   0  0  0  0  0  0  0  0  0  0  0  0
    3.5284   -4.8319    0.1086 C   0  0  0  0  0  0  0  0  0  0  0  0
    4.1861   -5.8782    0.7574 C   0  0  0  0  0  0  0  0  0  0  0  0
    4.9321   -5.6108    1.8981 C   0  0  0  0  0  0  0  0  0  0  0  0
    5.0235   -4.3192    2.4074 C   0  0  0  0  0  0  0  0  0  0  0  0
    4.3529   -3.2701    1.7700 C   0  0  0  0  0  0  0  0  0  0  0  0
    5.5645   -6.6129    2.5217 F   0  0  0  0  0  0  0  0  0  0  0  0
    2.7739    2.6715    0.0200 C   0  0  0  0  0  0  0  0  0  0  0  0
    3.4581    3.5000    0.6260 O   0  0  0  0  0  0  0  0  0  0  0  0
    1.4882    3.0756   -0.6746 C   0  0  0  0  0  0  0  0  0  0  0  0
    1.6090    4.7207   -1.3410 Cl  0  0  0  0  0  0  0  0  0  0  0  0
    0.3986    0.8684    0.0960 H   0  0  0  0  0  0  0  0  0  0  0  0
    0.6136   -0.7076    0.8306 H   0  0  0  0  0  0  0  0  0  0  0  0
    0.5423   -0.5496   -0.9406 H   0  0  0  0  0  0  0  0  0  0  0  0
    5.7519    2.6364    0.1627 H   0  0  0  0  0  0  0  0  0  0  0  0
    7.8640    1.4263   -0.0010 H   0  0  0  0  0  0  0  0  0  0  0  0
    7.9144   -1.0375   -0.3313 H   0  0  0  0  0  0  0  0  0  0  0  0
    5.7795   -2.2848   -0.4482 H   0  0  0  0  0  0  0  0  0  0  0  0
    2.9374   -5.0457   -0.7812 H   0  0  0  0  0  0  0  0  0  0  0  0
    4.1148   -6.8950    0.3838 H   0  0  0  0  0  0  0  0  0  0  0  0
    5.6101   -4.1401    3.3038 H   0  0  0  0  0  0  0  0  0  0  0  0
    4.4142   -2.2726    2.1983 H   0  0  0  0  0  0  0  0  0  0  0  0
    0.6674    3.0662    0.0472 H   0  0  0  0  0  0  0  0  0  0  0  0
    1.2693    2.4118   -1.5136 H   0  0  0  0  0  0  0  0  0  0  0  0
  1  2  1  0  0  0  0
  1 24  1  0  0  0  0
  1 25  1  0  0  0  0
  1 26  1  0  0  0  0
  2  3  1  0  0  0  0
  2 10  2  0  0  0  0
  3  4  2  0  0  0  0
  3 20  1  0  0  0  0
  4  5  1  0  0  0  0
  4  9  1  0  0  0  0
  5  6  2  0  0  0  0
  5 27  1  0  0  0  0
  6  7  1  0  0  0  0
  6 28  1  0  0  0  0
  7  8  2  0  0  0  0
  7 29  1  0  0  0  0
  8  9  1  0  0  0  0
  8 30  1  0  0  0  0
  9 10  1  0  0  0  0
 10 11  1  0  0  0  0
 11 12  2  0  0  0  0
 11 13  1  0  0  0  0
 13 14  1  0  0  0  0
 13 18  2  0  0  0  0
 14 15  2  0  0  0  0
 14 31  1  0  0  0  0
 15 16  1  0  0  0  0
 15 32  1  0  0  0  0
 16 17  2  0  0  0  0
 16 19  1  0  0  0  0
 17 18  1  0  0  0  0
 17 33  1  0  0  0  0
 18 34  1  0  0  0  0
 20 21  2  0  0  0  0
 20 22  1  0  0  0  0
 22 23  1  0  0  0  0
 22 35  1  0  0  0  0
 22 36  1  0  0  0  0
M  END
$$$$
