stable:False satoms:13 tatoms:24 sratio:0.5416666666666666
  -OEChem-07092417413D

 24 24  0     0  0  0  0  0  0999 V2000
    6.5282   -5.0544   26.4604 Cl  0  0  0  0  0  0  0  0  0  0  0  0
    8.2513   -4.4443   26.1486 S   0  0  0  0  0  0  0  0  0  0  0  0
    9.0814   -5.5932   26.0133 O   0  0  0  0  0  0  0  0  0  0  0  0
    8.5939   -3.6117   27.2131 O   0  0  0  0  0  0  0  0  0  0  0  0
    8.0496   -3.6596   24.7473 N   0  0  0  0  0  0  0  0  0  0  0  0
    8.8654   -2.8907   24.1896 C   0  0  0  0  0  0  0  0  0  0  0  0
    9.3941   -2.1838   23.6523 C   0  0  0  0  0  0  0  0  0  0  0  0
   10.2122   -1.4706   23.0163 C   0  0  0  0  0  0  0  0  0  0  0  0
   11.5551    0.2945   24.4436 H   0  0  0  0  0  0  0  0  0  0  0  0
   12.4590    0.0694   23.9348 C   0  5  0  0  0  0  0  0  0  0  0  0
   13.3532    0.4341   23.8532 H   0  0  0  0  0  0  0  0  0  0  0  0
   12.4179   -1.0635   23.1298 C   0  0  0  0  0  0  0  0  0  0  0  0
   11.5705   -1.6485   22.8586 C   0  0  0  0  0  0  0  0  0  0  0  0
    9.8665   -0.4782   22.2523 C   0  0  0  0  0  0  0  0  0  0  0  0
    9.1437    0.1551   21.3381 C   0  0  0  0  0  0  0  0  0  0  0  0
    9.5702    1.1094   20.7720 O   0  0  0  0  0  0  0  0  0  0  0  0
    7.9100   -0.4264   21.1479 N   0  0  0  0  0  0  0  0  0  0  0  0
    7.1549   -0.0170   20.1637 C   0  0  0  0  0  0  0  0  0  0  0  0
    7.4592   -0.0422   18.8647 N   0  0  0  0  0  0  0  0  0  0  0  0
    6.7601    0.2887   18.0588 N   0  0  0  0  0  0  0  0  0  0  0  0
    4.8596    1.0294   18.2808 H   0  0  0  0  0  0  0  0  0  0  0  0
    5.4924    0.7254   18.9954 C   0  0  0  0  0  0  0  0  0  0  0  0
    5.8353    0.5102   20.2571 C   0  0  0  0  0  0  0  0  0  0  0  0
    5.2003    0.6778   21.5048 Cl  0  0  0  0  0  0  0  0  0  0  0  0
 19 20  1  0  0  0  0
 20 22  2  0  0  0  0
 21 22  1  0  0  0  0
 18 19  1  0  0  0  0
 22 23  1  0  0  0  0
 18 23  2  0  0  0  0
 17 18  1  0  0  0  0
 23 24  1  0  0  0  0
 15 16  2  0  0  0  0
 15 17  1  0  0  0  0
 14 15  1  0  0  0  0
  8 14  2  3  0  0  0
  8 13  1  0  0  0  0
 12 13  2  0  0  0  0
  7  8  1  0  0  0  0
 10 12  1  0  0  0  0
  6  7  3  0  0  0  0
 10 11  1  0  0  0  0
  9 10  1  0  0  0  0
  5  6  1  0  0  0  0
  2  5  1  0  0  0  0
  2  3  2  0  0  0  0
  1  2  1  0  0  0  0
  2  4  2  0  0  0  0
M  CHG  1  10  -1
M  END
> <Shapegauss>
-249.185303

$$$$
