REMARK  7 active torsions:
REMARK  status: ('A' for Active; 'I' for Inactive)
REMARK    1  A    between atoms: S_2  and  N_5 
REMARK    2  A    between atoms: N_5  and  C_7 
REMARK    3  A    between atoms: C_8  and  C_9 
REMARK    4  A    between atoms: C_9  and  C_12 
REMARK    5  A    between atoms: C_11  and  C_12 
REMARK    6  A    between atoms: C_13  and  C_14 
REMARK       I    between atoms: C_14  and  N_16 
REMARK    7  A    between atoms: N_16  and  C_18 
ROOT
HETATM    1  C   UNL     1      10.212  -1.471  23.016  1.00  0.00     0.024 C 
HETATM    2  C   UNL     1       9.867  -0.478  22.252  1.00  0.00     0.095 C 
ENDROOT
BRANCH   2   3
HETATM    3  C   UNL     1       9.144   0.155  21.338  1.00  0.00     0.248 C 
HETATM    4  O   UNL     1       9.570   1.109  20.772  1.00  0.00    -0.268 OA
HETATM    5  N   UNL     1       7.910  -0.426  21.148  1.00  0.00    -0.307 N 
ATOM      6  HN  UNL     1       7.589  -1.168  21.770  1.00  0.00     0.170 HD
BRANCH   5   7
HETATM    7  C   UNL     1       7.155  -0.017  20.164  1.00  0.00     0.146 A 
HETATM    8  N   UNL     1       7.459  -0.042  18.865  1.00  0.00    -0.284 N 
HETATM    9  N   UNL     1       6.760   0.289  18.059  1.00  0.00    -0.309 N 
ATOM     10  HN  UNL     1       8.381  -0.382  18.593  1.00  0.00     0.188 HD
HETATM   11  C   UNL     1       5.492   0.725  18.995  1.00  0.00     0.135 A 
ATOM     12  HN  UNL     1       6.877   0.312  17.046  1.00  0.00     0.186 HD
HETATM   13  C   UNL     1       5.835   0.510  20.257  1.00  0.00     0.096 A 
HETATM   14 CL   UNL     1       5.200   0.678  21.505  1.00  0.00    -0.079 Cl
ENDBRANCH   5   7
ENDBRANCH   2   3
BRANCH   1  15
HETATM   15  C   UNL     1       9.394  -2.184  23.652  1.00  0.00    -0.043 C 
HETATM   16  C   UNL     1       8.865  -2.891  24.190  1.00  0.00     0.027 C 
BRANCH  16  17
HETATM   17  N   UNL     1       8.050  -3.660  24.747  1.00  0.00    -0.229 N 
ATOM     18  HN  UNL     1       7.163  -3.809  24.266  1.00  0.00     0.190 HD
BRANCH  17  19
HETATM   19  S   UNL     1       8.251  -4.444  26.149  1.00  0.00     0.327 S 
HETATM   20 CL   UNL     1       6.528  -5.054  26.460  1.00  0.00     0.042 Cl
HETATM   21  O   UNL     1       9.081  -5.593  26.013  1.00  0.00    -0.188 OA
HETATM   22  O   UNL     1       8.594  -3.612  27.213  1.00  0.00    -0.188 OA
ENDBRANCH  17  19
ENDBRANCH  16  17
ENDBRANCH   1  15
BRANCH   1  23
HETATM   23  C   UNL     1      11.570  -1.649  22.859  1.00  0.00     0.020 C 
BRANCH  23  24
HETATM   24  C   UNL     1      12.418  -1.063  23.130  1.00  0.00    -0.009 C 
HETATM   25  C   UNL     1      12.459   0.069  23.935  1.00  0.00     0.011 C 
ENDBRANCH  23  24
ENDBRANCH   1  23
TORSDOF 7
