MODEL 1
REMARK VINA RESULT:    -6.498      0.000      0.000
REMARK INTER + INTRA:         -10.140
REMARK INTER:                  -9.157
REMARK INTRA:                  -0.983
REMARK UNBOUND:                -0.983
REMARK  7 active torsions:
REMARK  status: ('A' for Active; 'I' for Inactive)
REMARK    1  A    between atoms: S_2  and  N_5 
REMARK    2  A    between atoms: N_5  and  C_7 
REMARK    3  A    between atoms: C_8  and  C_9 
REMARK    4  A    between atoms: C_9  and  C_12 
REMARK    5  A    between atoms: C_11  and  C_12 
REMARK    6  A    between atoms: C_13  and  C_14 
REMARK       I    between atoms: C_14  and  N_16 
REMARK    7  A    between atoms: N_16  and  C_18 
ROOT
HETATM    1  C   UNL     1       9.173  -1.826  22.650  1.00  0.00     0.024 C 
HETATM    2  C   UNL     1       9.093  -2.674  23.632  1.00  0.00     0.095 C 
ENDROOT
BRANCH   2   3
HETATM    3  C   UNL     1       8.595  -3.199  24.743  1.00  0.00     0.248 C 
HETATM    4  O   UNL     1       8.430  -2.535  25.715  1.00  0.00    -0.268 OA
HETATM    5  N   UNL     1       8.309  -4.540  24.610  1.00  0.00    -0.307 N 
ATOM      6  HN  UNL     1       8.602  -5.048  23.775  1.00  0.00     0.170 HD
BRANCH   5   7
HETATM    7  C   UNL     1       7.660  -5.153  25.563  1.00  0.00     0.146 A 
HETATM    8  N   UNL     1       8.173  -5.614  26.705  1.00  0.00    -0.284 N 
HETATM    9  N   UNL     1       7.564  -6.102  27.505  1.00  0.00    -0.309 N 
ATOM     10  HN  UNL     1       9.176  -5.515  26.857  1.00  0.00     0.188 HD
HETATM   11  C   UNL     1       6.098  -6.016  26.786  1.00  0.00     0.135 A 
ATOM     12  HN  UNL     1       7.839  -6.484  28.409  1.00  0.00     0.186 HD
HETATM   13  C   UNL     1       6.264  -5.432  25.608  1.00  0.00     0.096 A 
HETATM   14 CL   UNL     1       5.411  -5.077  24.542  1.00  0.00    -0.079 Cl
ENDBRANCH   5   7
ENDBRANCH   2   3
BRANCH   1  15
HETATM   15  C   UNL     1       8.178  -1.396  22.012  1.00  0.00    -0.043 C 
HETATM   16  C   UNL     1       7.303  -1.221  21.490  1.00  0.00     0.027 C 
BRANCH  16  17
HETATM   17  N   UNL     1       6.348  -0.839  20.777  1.00  0.00    -0.229 N 
ATOM     18  HN  UNL     1       5.412  -0.979  21.157  1.00  0.00     0.190 HD
BRANCH  17  19
HETATM   19  S   UNL     1       6.438  -0.146  19.317  1.00  0.00     0.327 S 
HETATM   20 CL   UNL     1       5.426   1.383  19.592  1.00  0.00     0.042 Cl
HETATM   21  O   UNL     1       7.759   0.281  19.000  1.00  0.00    -0.188 OA
HETATM   22  O   UNL     1       5.815  -0.879  18.309  1.00  0.00    -0.188 OA
ENDBRANCH  17  19
ENDBRANCH  16  17
ENDBRANCH   1  15
BRANCH   1  23
HETATM   23  C   UNL     1      10.487  -1.417  22.576  1.00  0.00     0.020 C 
BRANCH  23  24
HETATM   24  C   UNL     1      11.326  -1.540  23.221  1.00  0.00    -0.009 C 
HETATM   25  C   UNL     1      12.674  -1.568  22.883  1.00  0.00     0.011 C 
ENDBRANCH  23  24
ENDBRANCH   1  23
TORSDOF 7
ENDMDL
MODEL 2
REMARK VINA RESULT:    -6.444      4.487      7.699
REMARK INTER + INTRA:         -10.065
REMARK INTER:                  -9.005
REMARK INTRA:                  -1.059
REMARK UNBOUND:                -0.983
REMARK  7 active torsions:
REMARK  status: ('A' for Active; 'I' for Inactive)
REMARK    1  A    between atoms: S_2  and  N_5 
REMARK    2  A    between atoms: N_5  and  C_7 
REMARK    3  A    between atoms: C_8  and  C_9 
REMARK    4  A    between atoms: C_9  and  C_12 
REMARK    5  A    between atoms: C_11  and  C_12 
REMARK    6  A    between atoms: C_13  and  C_14 
REMARK       I    between atoms: C_14  and  N_16 
REMARK    7  A    between atoms: N_16  and  C_18 
ROOT
HETATM    1  C   UNL     1       7.567  -4.616  24.846  1.00  0.00     0.024 C 
HETATM    2  C   UNL     1       8.333  -3.580  24.678  1.00  0.00     0.095 C 
ENDROOT
BRANCH   2   3
HETATM    3  C   UNL     1       8.892  -2.420  24.996  1.00  0.00     0.248 C 
HETATM    4  O   UNL     1       8.709  -1.922  26.059  1.00  0.00    -0.268 OA
HETATM    5  N   UNL     1       9.674  -1.917  23.980  1.00  0.00    -0.307 N 
ATOM      6  HN  UNL     1       9.670  -2.357  23.060  1.00  0.00     0.170 HD
BRANCH   5   7
HETATM    7  C   UNL     1      10.421  -0.869  24.207  1.00  0.00     0.146 A 
HETATM    8  N   UNL     1      10.068   0.229  24.877  1.00  0.00    -0.284 N 
HETATM    9  N   UNL     1      10.759   1.084  25.073  1.00  0.00    -0.309 N 
ATOM     10  HN  UNL     1       9.113   0.292  25.230  1.00  0.00     0.188 HD
HETATM   11  C   UNL     1      12.091   0.502  24.323  1.00  0.00     0.135 A 
ATOM     12  HN  UNL     1      10.607   1.962  25.569  1.00  0.00     0.186 HD
HETATM   13  C   UNL     1      11.780  -0.685  23.822  1.00  0.00     0.096 A 
HETATM   14 CL   UNL     1      12.472  -1.668  23.084  1.00  0.00    -0.079 Cl
ENDBRANCH   5   7
ENDBRANCH   2   3
BRANCH   1  15
HETATM   15  C   UNL     1       7.467  -5.246  25.930  1.00  0.00    -0.043 C 
HETATM   16  C   UNL     1       7.480  -5.618  26.895  1.00  0.00     0.027 C 
BRANCH  16  17
HETATM   17  N   UNL     1       7.475  -6.263  27.967  1.00  0.00    -0.229 N 
ATOM     18  HN  UNL     1       8.303  -6.826  28.164  1.00  0.00     0.190 HD
BRANCH  17  19
HETATM   19  S   UNL     1       6.298  -6.299  29.078  1.00  0.00     0.327 S 
HETATM   20 CL   UNL     1       4.803  -6.487  27.998  1.00  0.00     0.042 Cl
HETATM   21  O   UNL     1       6.365  -7.460  29.900  1.00  0.00    -0.188 OA
HETATM   22  O   UNL     1       6.153  -5.105  29.782  1.00  0.00    -0.188 OA
ENDBRANCH  17  19
ENDBRANCH  16  17
ENDBRANCH   1  15
BRANCH   1  23
HETATM   23  C   UNL     1       6.825  -4.762  23.694  1.00  0.00     0.020 C 
BRANCH  23  24
HETATM   24  C   UNL     1       6.552  -5.607  23.105  1.00  0.00    -0.009 C 
HETATM   25  C   UNL     1       6.984  -5.940  21.826  1.00  0.00     0.011 C 
ENDBRANCH  23  24
ENDBRANCH   1  23
TORSDOF 7
ENDMDL
MODEL 3
REMARK VINA RESULT:    -6.283     21.065     23.845
REMARK INTER + INTRA:          -9.837
REMARK INTER:                  -8.726
REMARK INTRA:                  -1.112
REMARK UNBOUND:                -0.983
REMARK  7 active torsions:
REMARK  status: ('A' for Active; 'I' for Inactive)
REMARK    1  A    between atoms: S_2  and  N_5 
REMARK    2  A    between atoms: N_5  and  C_7 
REMARK    3  A    between atoms: C_8  and  C_9 
REMARK    4  A    between atoms: C_9  and  C_12 
REMARK    5  A    between atoms: C_11  and  C_12 
REMARK    6  A    between atoms: C_13  and  C_14 
REMARK       I    between atoms: C_14  and  N_16 
REMARK    7  A    between atoms: N_16  and  C_18 
ROOT
HETATM    1  C   UNL     1       6.019  11.342   3.031  1.00  0.00     0.024 C 
HETATM    2  C   UNL     1       5.560  10.345   3.727  1.00  0.00     0.095 C 
ENDROOT
BRANCH   2   3
HETATM    3  C   UNL     1       5.596   9.154   4.309  1.00  0.00     0.248 C 
HETATM    4  O   UNL     1       6.237   8.971   5.293  1.00  0.00    -0.268 OA
HETATM    5  N   UNL     1       4.823   8.223   3.652  1.00  0.00    -0.307 N 
ATOM      6  HN  UNL     1       4.409   8.445   2.746  1.00  0.00     0.170 HD
BRANCH   5   7
HETATM    7  C   UNL     1       4.625   7.054   4.199  1.00  0.00     0.146 A 
HETATM    8  N   UNL     1       5.555   6.134   4.467  1.00  0.00    -0.284 N 
HETATM    9  N   UNL     1       5.336   5.161   4.970  1.00  0.00    -0.309 N 
ATOM     10  HN  UNL     1       6.518   6.331   4.198  1.00  0.00     0.188 HD
HETATM   11  C   UNL     1       3.723   5.343   5.169  1.00  0.00     0.135 A 
ATOM     12  HN  UNL     1       5.954   4.392   5.228  1.00  0.00     0.186 HD
HETATM   13  C   UNL     1       3.388   6.520   4.660  1.00  0.00     0.096 A 
HETATM   14 CL   UNL     1       2.184   7.242   4.525  1.00  0.00    -0.079 Cl
ENDBRANCH   5   7
ENDBRANCH   2   3
BRANCH   1  15
HETATM   15  C   UNL     1       7.181  11.807   3.153  1.00  0.00    -0.043 C 
HETATM   16  C   UNL     1       8.119  12.140   3.434  1.00  0.00     0.027 C 
BRANCH  16  17
HETATM   17  N   UNL     1       9.236  12.677   3.603  1.00  0.00    -0.229 N 
ATOM     18  HN  UNL     1      10.029  12.047   3.727  1.00  0.00     0.190 HD
BRANCH  17  19
HETATM   19  S   UNL     1       9.560  14.262   3.649  1.00  0.00     0.327 S 
HETATM   20 CL   UNL     1       8.351  14.903   2.398  1.00  0.00     0.042 Cl
HETATM   21  O   UNL     1       9.216  14.850   4.899  1.00  0.00    -0.188 OA
HETATM   22  O   UNL     1      10.837  14.587   3.195  1.00  0.00    -0.188 OA
ENDBRANCH  17  19
ENDBRANCH  16  17
ENDBRANCH   1  15
BRANCH   1  23
HETATM   23  C   UNL     1       5.062  11.651   2.088  1.00  0.00     0.020 C 
BRANCH  23  24
HETATM   24  C   UNL     1       4.009  11.806   2.143  1.00  0.00    -0.009 C 
HETATM   25  C   UNL     1       3.323  13.007   2.287  1.00  0.00     0.011 C 
ENDBRANCH  23  24
ENDBRANCH   1  23
TORSDOF 7
ENDMDL
MODEL 4
REMARK VINA RESULT:    -6.194      2.525      2.598
REMARK INTER + INTRA:          -9.712
REMARK INTER:                  -8.589
REMARK INTRA:                  -1.122
REMARK UNBOUND:                -0.983
REMARK  7 active torsions:
REMARK  status: ('A' for Active; 'I' for Inactive)
REMARK    1  A    between atoms: S_2  and  N_5 
REMARK    2  A    between atoms: N_5  and  C_7 
REMARK    3  A    between atoms: C_8  and  C_9 
REMARK    4  A    between atoms: C_9  and  C_12 
REMARK    5  A    between atoms: C_11  and  C_12 
REMARK    6  A    between atoms: C_13  and  C_14 
REMARK       I    between atoms: C_14  and  N_16 
REMARK    7  A    between atoms: N_16  and  C_18 
ROOT
HETATM    1  C   UNL     1       9.243  -0.805  23.502  1.00  0.00     0.024 C 
HETATM    2  C   UNL     1       9.165  -2.099  23.589  1.00  0.00     0.095 C 
ENDROOT
BRANCH   2   3
HETATM    3  C   UNL     1       8.560  -3.279  23.611  1.00  0.00     0.248 C 
HETATM    4  O   UNL     1       8.615  -3.978  24.571  1.00  0.00    -0.268 OA
HETATM    5  N   UNL     1       7.894  -3.552  22.437  1.00  0.00    -0.307 N 
ATOM      6  HN  UNL     1       8.009  -2.943  21.627  1.00  0.00     0.170 HD
BRANCH   5   7
HETATM    7  C   UNL     1       7.114  -4.598  22.372  1.00  0.00     0.146 A 
HETATM    8  N   UNL     1       7.486  -5.851  22.105  1.00  0.00    -0.284 N 
HETATM    9  N   UNL     1       6.781  -6.718  22.096  1.00  0.00    -0.309 N 
ATOM     10  HN  UNL     1       8.469  -6.028  21.898  1.00  0.00     0.188 HD
HETATM   11  C   UNL     1       5.403  -5.919  22.466  1.00  0.00     0.135 A 
ATOM     12  HN  UNL     1       6.947  -7.707  21.914  1.00  0.00     0.186 HD
HETATM   13  C   UNL     1       5.710  -4.637  22.604  1.00  0.00     0.096 A 
HETATM   14 CL   UNL     1       4.986  -3.466  22.912  1.00  0.00    -0.079 Cl
ENDBRANCH   5   7
ENDBRANCH   2   3
BRANCH   1  15
HETATM   15  C   UNL     1       8.600  -0.117  22.669  1.00  0.00    -0.043 C 
HETATM   16  C   UNL     1       8.179   0.363  21.855  1.00  0.00     0.027 C 
BRANCH  16  17
HETATM   17  N   UNL     1       7.619   1.099  21.012  1.00  0.00    -0.229 N 
ATOM     18  HN  UNL     1       7.780   2.102  21.105  1.00  0.00     0.190 HD
BRANCH  17  19
HETATM   19  S   UNL     1       6.667   0.632  19.789  1.00  0.00     0.327 S 
HETATM   20 CL   UNL     1       5.340   1.925  19.865  1.00  0.00     0.042 Cl
HETATM   21  O   UNL     1       7.306   0.764  18.524  1.00  0.00    -0.188 OA
HETATM   22  O   UNL     1       6.054  -0.603  19.995  1.00  0.00    -0.188 OA
ENDBRANCH  17  19
ENDBRANCH  16  17
ENDBRANCH   1  15
BRANCH   1  23
HETATM   23  C   UNL     1      10.017  -0.375  24.559  1.00  0.00     0.020 C 
BRANCH  23  24
HETATM   24  C   UNL     1      10.859   0.274  24.629  1.00  0.00    -0.009 C 
HETATM   25  C   UNL     1      12.204  -0.044  24.481  1.00  0.00     0.011 C 
ENDBRANCH  23  24
ENDBRANCH   1  23
TORSDOF 7
ENDMDL
MODEL 5
REMARK VINA RESULT:    -6.044     23.104     24.535
REMARK INTER + INTRA:          -9.501
REMARK INTER:                  -8.289
REMARK INTRA:                  -1.211
REMARK UNBOUND:                -0.983
REMARK  7 active torsions:
REMARK  status: ('A' for Active; 'I' for Inactive)
REMARK    1  A    between atoms: S_2  and  N_5 
REMARK    2  A    between atoms: N_5  and  C_7 
REMARK    3  A    between atoms: C_8  and  C_9 
REMARK    4  A    between atoms: C_9  and  C_12 
REMARK    5  A    between atoms: C_11  and  C_12 
REMARK    6  A    between atoms: C_13  and  C_14 
REMARK       I    between atoms: C_14  and  N_16 
REMARK    7  A    between atoms: N_16  and  C_18 
ROOT
HETATM    1  C   UNL     1       1.748 -21.546   9.401  1.00  0.00     0.024 C 
HETATM    2  C   UNL     1       2.090 -20.292   9.397  1.00  0.00     0.095 C 
ENDROOT
BRANCH   2   3
HETATM    3  C   UNL     1       1.977 -19.005   9.097  1.00  0.00     0.248 C 
HETATM    4  O   UNL     1       2.777 -18.465   8.403  1.00  0.00    -0.268 OA
HETATM    5  N   UNL     1       0.863 -18.428   9.663  1.00  0.00    -0.307 N 
ATOM      6  HN  UNL     1       0.304 -18.944  10.343  1.00  0.00     0.170 HD
BRANCH   5   7
HETATM    7  C   UNL     1       0.529 -17.212   9.322  1.00  0.00     0.146 A 
HETATM    8  N   UNL     1       1.249 -16.106   9.513  1.00  0.00    -0.284 N 
HETATM    9  N   UNL     1       0.931 -15.092   9.169  1.00  0.00    -0.309 N 
ATOM     10  HN  UNL     1       2.141 -16.191  10.001  1.00  0.00     0.188 HD
HETATM   11  C   UNL     1      -0.500 -15.500   8.489  1.00  0.00     0.135 A 
ATOM     12  HN  UNL     1       1.393 -14.187   9.252  1.00  0.00     0.186 HD
HETATM   13  C   UNL     1      -0.656 -16.807   8.643  1.00  0.00     0.096 A 
HETATM   14 CL   UNL     1      -1.652 -17.740   8.287  1.00  0.00    -0.079 Cl
ENDBRANCH   5   7
ENDBRANCH   2   3
BRANCH   1  15
HETATM   15  C   UNL     1       0.569 -21.951   9.574  1.00  0.00    -0.043 C 
HETATM   16  C   UNL     1      -0.383 -22.206   9.887  1.00  0.00     0.027 C 
BRANCH  16  17
HETATM   17  N   UNL     1      -1.519 -22.675  10.120  1.00  0.00    -0.229 N 
ATOM     18  HN  UNL     1      -2.305 -22.209   9.667  1.00  0.00     0.190 HD
BRANCH  17  19
HETATM   19  S   UNL     1      -1.877 -23.940  11.064  1.00  0.00     0.327 S 
HETATM   20 CL   UNL     1      -0.613 -25.172  10.494  1.00  0.00     0.042 Cl
HETATM   21  O   UNL     1      -1.615 -23.682  12.440  1.00  0.00    -0.188 OA
HETATM   22  O   UNL     1      -3.133 -24.490  10.814  1.00  0.00    -0.188 OA
ENDBRANCH  17  19
ENDBRANCH  16  17
ENDBRANCH   1  15
BRANCH   1  23
HETATM   23  C   UNL     1       2.864 -22.271   9.044  1.00  0.00     0.020 C 
BRANCH  23  24
HETATM   24  C   UNL     1       3.002 -23.179   8.503  1.00  0.00    -0.009 C 
HETATM   25  C   UNL     1       3.319 -24.437   9.002  1.00  0.00     0.011 C 
ENDBRANCH  23  24
ENDBRANCH   1  23
TORSDOF 7
ENDMDL
MODEL 6
REMARK VINA RESULT:    -6.041      4.016      7.628
REMARK INTER + INTRA:          -9.496
REMARK INTER:                  -8.368
REMARK INTRA:                  -1.128
REMARK UNBOUND:                -0.983
REMARK  7 active torsions:
REMARK  status: ('A' for Active; 'I' for Inactive)
REMARK    1  A    between atoms: S_2  and  N_5 
REMARK    2  A    between atoms: N_5  and  C_7 
REMARK    3  A    between atoms: C_8  and  C_9 
REMARK    4  A    between atoms: C_9  and  C_12 
REMARK    5  A    between atoms: C_11  and  C_12 
REMARK    6  A    between atoms: C_13  and  C_14 
REMARK       I    between atoms: C_14  and  N_16 
REMARK    7  A    between atoms: N_16  and  C_18 
ROOT
HETATM    1  C   UNL     1       6.296  -4.734  24.070  1.00  0.00     0.024 C 
HETATM    2  C   UNL     1       6.955  -4.029  23.200  1.00  0.00     0.095 C 
ENDROOT
BRANCH   2   3
HETATM    3  C   UNL     1       7.737  -3.044  22.779  1.00  0.00     0.248 C 
HETATM    4  O   UNL     1       7.343  -2.238  21.999  1.00  0.00    -0.268 OA
HETATM    5  N   UNL     1       8.990  -3.086  23.349  1.00  0.00    -0.307 N 
ATOM      6  HN  UNL     1       9.272  -3.888  23.913  1.00  0.00     0.170 HD
BRANCH   5   7
HETATM    7  C   UNL     1       9.812  -2.089  23.161  1.00  0.00     0.146 A 
HETATM    8  N   UNL     1      10.483  -1.812  22.042  1.00  0.00    -0.284 N 
HETATM    9  N   UNL     1      11.149  -0.923  21.923  1.00  0.00    -0.309 N 
ATOM     10  HN  UNL     1      10.382  -2.447  21.251  1.00  0.00     0.188 HD
HETATM   11  C   UNL     1      10.968  -0.277  23.414  1.00  0.00     0.135 A 
ATOM     12  HN  UNL     1      11.702  -0.609  21.125  1.00  0.00     0.186 HD
HETATM   13  C   UNL     1      10.145  -1.064  24.093  1.00  0.00     0.096 A 
HETATM   14 CL   UNL     1       9.606  -1.055  25.396  1.00  0.00    -0.079 Cl
ENDBRANCH   5   7
ENDBRANCH   2   3
BRANCH   1  15
HETATM   15  C   UNL     1       6.749  -5.060  25.197  1.00  0.00    -0.043 C 
HETATM   16  C   UNL     1       7.136  -5.500  26.048  1.00  0.00     0.027 C 
BRANCH  16  17
HETATM   17  N   UNL     1       7.505  -5.873  27.185  1.00  0.00    -0.229 N 
ATOM     18  HN  UNL     1       8.509  -5.975  27.326  1.00  0.00     0.190 HD
BRANCH  17  19
HETATM   19  S   UNL     1       6.559  -6.210  28.455  1.00  0.00     0.327 S 
HETATM   20 CL   UNL     1       5.020  -6.793  27.601  1.00  0.00     0.042 Cl
HETATM   21  O   UNL     1       7.050  -7.305  29.221  1.00  0.00    -0.188 OA
HETATM   22  O   UNL     1       6.215  -5.091  29.211  1.00  0.00    -0.188 OA
ENDBRANCH  17  19
ENDBRANCH  16  17
ENDBRANCH   1  15
BRANCH   1  23
HETATM   23  C   UNL     1       5.020  -4.898  23.574  1.00  0.00     0.020 C 
BRANCH  23  24
HETATM   24  C   UNL     1       4.482  -5.745  23.212  1.00  0.00    -0.009 C 
HETATM   25  C   UNL     1       3.110  -5.963  23.231  1.00  0.00     0.011 C 
ENDBRANCH  23  24
ENDBRANCH   1  23
TORSDOF 7
ENDMDL
MODEL 7
REMARK VINA RESULT:    -5.962      4.457      7.790
REMARK INTER + INTRA:          -9.385
REMARK INTER:                  -8.580
REMARK INTRA:                  -0.805
REMARK UNBOUND:                -0.983
REMARK  7 active torsions:
REMARK  status: ('A' for Active; 'I' for Inactive)
REMARK    1  A    between atoms: S_2  and  N_5 
REMARK    2  A    between atoms: N_5  and  C_7 
REMARK    3  A    between atoms: C_8  and  C_9 
REMARK    4  A    between atoms: C_9  and  C_12 
REMARK    5  A    between atoms: C_11  and  C_12 
REMARK    6  A    between atoms: C_13  and  C_14 
REMARK       I    between atoms: C_14  and  N_16 
REMARK    7  A    between atoms: N_16  and  C_18 
ROOT
HETATM    1  C   UNL     1       5.377  -4.122  23.271  1.00  0.00     0.024 C 
HETATM    2  C   UNL     1       5.561  -3.224  22.349  1.00  0.00     0.095 C 
ENDROOT
BRANCH   2   3
HETATM    3  C   UNL     1       5.671  -2.762  21.111  1.00  0.00     0.248 C 
HETATM    4  O   UNL     1       5.537  -3.480  20.174  1.00  0.00    -0.268 OA
HETATM    5  N   UNL     1       5.937  -1.411  21.075  1.00  0.00    -0.307 N 
ATOM      6  HN  UNL     1       6.156  -0.906  21.934  1.00  0.00     0.170 HD
BRANCH   5   7
HETATM    7  C   UNL     1       5.906  -0.783  19.930  1.00  0.00     0.146 A 
HETATM    8  N   UNL     1       5.507  -1.283  18.760  1.00  0.00    -0.284 N 
HETATM    9  N   UNL     1       5.467  -0.690  17.814  1.00  0.00    -0.309 N 
ATOM     10  HN  UNL     1       5.223  -2.262  18.726  1.00  0.00     0.188 HD
HETATM   11  C   UNL     1       6.008   0.740  18.396  1.00  0.00     0.135 A 
ATOM     12  HN  UNL     1       5.180  -0.958  16.873  1.00  0.00     0.186 HD
HETATM   13  C   UNL     1       6.255   0.577  19.688  1.00  0.00     0.096 A 
HETATM   14 CL   UNL     1       6.728   1.407  20.725  1.00  0.00    -0.079 Cl
ENDBRANCH   5   7
ENDBRANCH   2   3
BRANCH   1  15
HETATM   15  C   UNL     1       4.491  -5.012  23.216  1.00  0.00    -0.043 C 
HETATM   16  C   UNL     1       3.870  -5.819  23.035  1.00  0.00     0.027 C 
BRANCH  16  17
HETATM   17  N   UNL     1       2.962  -6.668  22.895  1.00  0.00    -0.229 N 
ATOM     18  HN  UNL     1       2.637  -6.835  21.943  1.00  0.00     0.190 HD
BRANCH  17  19
HETATM   19  S   UNL     1       2.245  -7.531  24.063  1.00  0.00     0.327 S 
HETATM   20 CL   UNL     1       1.694  -6.182  25.208  1.00  0.00     0.042 Cl
HETATM   21  O   UNL     1       1.071  -8.194  23.604  1.00  0.00    -0.188 OA
HETATM   22  O   UNL     1       3.122  -8.347  24.776  1.00  0.00    -0.188 OA
ENDBRANCH  17  19
ENDBRANCH  16  17
ENDBRANCH   1  15
BRANCH   1  23
HETATM   23  C   UNL     1       6.401  -3.980  24.183  1.00  0.00     0.020 C 
BRANCH  23  24
HETATM   24  C   UNL     1       7.463  -4.036  24.101  1.00  0.00    -0.009 C 
HETATM   25  C   UNL     1       8.348  -4.767  24.885  1.00  0.00     0.011 C 
ENDBRANCH  23  24
ENDBRANCH   1  23
TORSDOF 7
ENDMDL
MODEL 8
REMARK VINA RESULT:    -5.837      4.165      8.020
REMARK INTER + INTRA:          -9.209
REMARK INTER:                  -8.140
REMARK INTRA:                  -1.070
REMARK UNBOUND:                -0.983
REMARK  7 active torsions:
REMARK  status: ('A' for Active; 'I' for Inactive)
REMARK    1  A    between atoms: S_2  and  N_5 
REMARK    2  A    between atoms: N_5  and  C_7 
REMARK    3  A    between atoms: C_8  and  C_9 
REMARK    4  A    between atoms: C_9  and  C_12 
REMARK    5  A    between atoms: C_11  and  C_12 
REMARK    6  A    between atoms: C_13  and  C_14 
REMARK       I    between atoms: C_14  and  N_16 
REMARK    7  A    between atoms: N_16  and  C_18 
ROOT
HETATM    1  C   UNL     1       4.780  -5.897  24.482  1.00  0.00     0.024 C 
HETATM    2  C   UNL     1       5.736  -5.506  23.693  1.00  0.00     0.095 C 
ENDROOT
BRANCH   2   3
HETATM    3  C   UNL     1       6.885  -4.926  23.376  1.00  0.00     0.248 C 
HETATM    4  O   UNL     1       7.842  -5.573  23.097  1.00  0.00    -0.268 OA
HETATM    5  N   UNL     1       6.807  -3.551  23.405  1.00  0.00    -0.307 N 
ATOM      6  HN  UNL     1       5.976  -3.091  23.776  1.00  0.00     0.170 HD
BRANCH   5   7
HETATM    7  C   UNL     1       7.808  -2.844  22.954  1.00  0.00     0.146 A 
HETATM    8  N   UNL     1       9.087  -2.956  23.315  1.00  0.00    -0.284 N 
HETATM    9  N   UNL     1       9.912  -2.347  22.871  1.00  0.00    -0.309 N 
ATOM     10  HN  UNL     1       9.326  -3.635  24.037  1.00  0.00     0.188 HD
HETATM   11  C   UNL     1       9.025  -1.457  21.824  1.00  0.00     0.135 A 
ATOM     12  HN  UNL     1      10.914  -2.347  23.060  1.00  0.00     0.186 HD
HETATM   13  C   UNL     1       7.760  -1.827  21.958  1.00  0.00     0.096 A 
HETATM   14 CL   UNL     1       6.541  -1.447  21.358  1.00  0.00    -0.079 Cl
ENDBRANCH   5   7
ENDBRANCH   2   3
BRANCH   1  15
HETATM   15  C   UNL     1       4.970  -6.415  25.612  1.00  0.00    -0.043 C 
HETATM   16  C   UNL     1       5.023  -6.699  26.605  1.00  0.00     0.027 C 
BRANCH  16  17
HETATM   17  N   UNL     1       5.270  -7.141  27.749  1.00  0.00    -0.229 N 
ATOM     18  HN  UNL     1       4.708  -7.932  28.063  1.00  0.00     0.190 HD
BRANCH  17  19
HETATM   19  S   UNL     1       6.387  -6.593  28.785  1.00  0.00     0.327 S 
HETATM   20 CL   UNL     1       5.415  -5.307  29.701  1.00  0.00     0.042 Cl
HETATM   21  O   UNL     1       6.773  -7.579  29.738  1.00  0.00    -0.188 OA
HETATM   22  O   UNL     1       7.455  -5.943  28.169  1.00  0.00    -0.188 OA
ENDBRANCH  17  19
ENDBRANCH  16  17
ENDBRANCH   1  15
BRANCH   1  23
HETATM   23  C   UNL     1       3.592  -5.499  23.905  1.00  0.00     0.020 C 
BRANCH  23  24
HETATM   24  C   UNL     1       2.593  -5.863  23.970  1.00  0.00    -0.009 C 
HETATM   25  C   UNL     1       1.630  -5.914  22.969  1.00  0.00     0.011 C 
ENDBRANCH  23  24
ENDBRANCH   1  23
TORSDOF 7
ENDMDL
MODEL 9
REMARK VINA RESULT:    -5.819      4.185      6.213
REMARK INTER + INTRA:          -9.184
REMARK INTER:                  -8.122
REMARK INTRA:                  -1.062
REMARK UNBOUND:                -0.983
REMARK  7 active torsions:
REMARK  status: ('A' for Active; 'I' for Inactive)
REMARK    1  A    between atoms: S_2  and  N_5 
REMARK    2  A    between atoms: N_5  and  C_7 
REMARK    3  A    between atoms: C_8  and  C_9 
REMARK    4  A    between atoms: C_9  and  C_12 
REMARK    5  A    between atoms: C_11  and  C_12 
REMARK    6  A    between atoms: C_13  and  C_14 
REMARK       I    between atoms: C_14  and  N_16 
REMARK    7  A    between atoms: N_16  and  C_18 
ROOT
HETATM    1  C   UNL     1       6.581  -0.837  20.633  1.00  0.00     0.024 C 
HETATM    2  C   UNL     1       7.740  -0.274  20.802  1.00  0.00     0.095 C 
ENDROOT
BRANCH   2   3
HETATM    3  C   UNL     1       8.788   0.163  21.487  1.00  0.00     0.248 C 
HETATM    4  O   UNL     1       9.358   1.156  21.168  1.00  0.00    -0.268 OA
HETATM    5  N   UNL     1       9.091  -0.646  22.559  1.00  0.00    -0.307 N 
ATOM      6  HN  UNL     1       8.618  -1.543  22.677  1.00  0.00     0.170 HD
BRANCH   5   7
HETATM    7  C   UNL     1       9.989  -0.255  23.422  1.00  0.00     0.146 A 
HETATM    8  N   UNL     1       9.807   0.607  24.424  1.00  0.00    -0.284 N 
HETATM    9  N   UNL     1      10.604   0.881  25.157  1.00  0.00    -0.309 N 
ATOM     10  HN  UNL     1       8.890   1.041  24.524  1.00  0.00     0.188 HD
HETATM   11  C   UNL     1      11.815  -0.044  24.565  1.00  0.00     0.135 A 
ATOM     12  HN  UNL     1      10.582   1.516  25.955  1.00  0.00     0.186 HD
HETATM   13  C   UNL     1      11.344  -0.688  23.506  1.00  0.00     0.096 A 
HETATM   14 CL   UNL     1      11.876  -1.612  22.583  1.00  0.00    -0.079 Cl
ENDBRANCH   5   7
ENDBRANCH   2   3
BRANCH   1  15
HETATM   15  C   UNL     1       6.226  -1.898  21.208  1.00  0.00    -0.043 C 
HETATM   16  C   UNL     1       6.011  -2.856  21.532  1.00  0.00     0.027 C 
BRANCH  16  17
HETATM   17  N   UNL     1       5.590  -3.921  22.036  1.00  0.00    -0.229 N 
ATOM     18  HN  UNL     1       4.582  -3.992  22.175  1.00  0.00     0.190 HD
BRANCH  17  19
HETATM   19  S   UNL     1       6.473  -5.199  22.492  1.00  0.00     0.327 S 
HETATM   20 CL   UNL     1       7.817  -4.369  23.462  1.00  0.00     0.042 Cl
HETATM   21  O   UNL     1       5.771  -6.048  23.394  1.00  0.00    -0.188 OA
HETATM   22  O   UNL     1       7.081  -5.868  21.431  1.00  0.00    -0.188 OA
ENDBRANCH  17  19
ENDBRANCH  16  17
ENDBRANCH   1  15
BRANCH   1  23
HETATM   23  C   UNL     1       5.827   0.015  19.855  1.00  0.00     0.020 C 
BRANCH  23  24
HETATM   24  C   UNL     1       5.758   1.077  19.793  1.00  0.00    -0.009 C 
HETATM   25  C   UNL     1       4.728   1.842  19.261  1.00  0.00     0.011 C 
ENDBRANCH  23  24
ENDBRANCH   1  23
TORSDOF 7
ENDMDL
