MODEL 1
REMARK VINA RESULT:    -7.889      0.000      0.000
REMARK INTER + INTRA:         -10.527
REMARK INTER:                  -9.733
REMARK INTRA:                  -0.794
REMARK UNBOUND:                -0.794
REMARK  4 active torsions:
REMARK  status: ('A' for Active; 'I' for Inactive)
REMARK    1  A    between atoms: S_2  and  N_5 
REMARK    2  A    between atoms: N_5  and  C_7 
REMARK    3  A    between atoms: C_15  and  C_16 
REMARK       I    between atoms: C_16  and  N_18 
REMARK    4  A    between atoms: N_18  and  C_20 
ROOT
HETATM    1  C   UNL     1       8.765   0.920  22.227  1.00  0.00     0.109 C 
HETATM    2  C   UNL     1       9.275   0.069  23.028  1.00  0.00    -0.008 A 
HETATM    3  C   UNL     1      10.260  -0.472  23.514  1.00  0.00     0.058 A 
HETATM    4  C   UNL     1      11.447  -1.442  22.659  1.00  0.00    -0.003 C 
HETATM    5  C   UNL     1      12.481  -1.519  22.929  1.00  0.00    -0.002 C 
HETATM    6  C   UNL     1      13.264  -0.749  23.985  1.00  0.00    -0.001 C 
HETATM    7  C   UNL     1      12.417   0.155  24.563  1.00  0.00    -0.002 C 
HETATM    8  C   UNL     1      11.388   0.430  24.460  1.00  0.00    -0.003 C 
HETATM    9  C   UNL     1       9.651  -1.181  24.278  1.00  0.00     0.040 A 
ENDROOT
BRANCH   9  10
HETATM   10  C   UNL     1       8.960  -1.934  25.137  1.00  0.00     0.254 C 
HETATM   11  O   UNL     1       8.711  -1.471  26.149  1.00  0.00    -0.268 OA
HETATM   12  N   UNL     1       8.699  -3.129  24.612  1.00  0.00    -0.321 N 
ATOM     13  HN  UNL     1       9.011  -3.364  23.669  1.00  0.00     0.169 HD
BRANCH  12  14
HETATM   14  C   UNL     1       8.051  -3.973  25.311  1.00  0.00     0.056 A 
HETATM   15  C   UNL     1       8.328  -4.855  26.270  1.00  0.00     0.117 A 
HETATM   16  N   UNL     1       8.100  -5.693  27.071  1.00  0.00    -0.373 N 
HETATM   17  C   UNL     1       6.709  -5.783  26.792  1.00  0.00     0.088 A 
ATOM     18  HN  UNL     1       8.697  -6.184  27.736  1.00  0.00     0.164 HD
HETATM   19  C   UNL     1       6.104  -5.087  25.975  1.00  0.00     0.026 A 
HETATM   20  C   UNL     1       6.511  -4.119  25.143  1.00  0.00    -0.033 A 
HETATM   21  C   UNL     1       5.688  -3.252  24.151  1.00  0.00     0.050 C 
ENDBRANCH  12  14
ENDBRANCH   9  10
BRANCH   1  22
HETATM   22  N   UNL     1       7.907   1.357  21.512  1.00  0.00    -0.295 N 
ATOM     23  HN  UNL     1       7.644   2.334  21.637  1.00  0.00     0.177 HD
BRANCH  22  24
HETATM   24  S   UNL     1       7.129   0.509  20.355  1.00  0.00     0.226 S 
HETATM   25  C   UNL     1       6.736  -1.061  21.107  1.00  0.00     0.186 C 
HETATM   26  O   UNL     1       5.895   1.166  19.971  1.00  0.00    -0.206 OA
HETATM   27  O   UNL     1       7.939   0.196  19.217  1.00  0.00    -0.206 OA
ENDBRANCH  22  24
ENDBRANCH   1  22
TORSDOF 4
ENDMDL
MODEL 2
REMARK VINA RESULT:    -7.882      2.914      5.971
REMARK INTER + INTRA:         -10.519
REMARK INTER:                  -9.817
REMARK INTRA:                  -0.702
REMARK UNBOUND:                -0.794
REMARK  4 active torsions:
REMARK  status: ('A' for Active; 'I' for Inactive)
REMARK    1  A    between atoms: S_2  and  N_5 
REMARK    2  A    between atoms: N_5  and  C_7 
REMARK    3  A    between atoms: C_15  and  C_16 
REMARK       I    between atoms: C_16  and  N_18 
REMARK    4  A    between atoms: N_18  and  C_20 
ROOT
HETATM    1  C   UNL     1       8.612  -3.632  23.834  1.00  0.00     0.109 C 
HETATM    2  C   UNL     1       8.921  -2.482  23.377  1.00  0.00    -0.008 A 
HETATM    3  C   UNL     1       9.606  -1.469  23.431  1.00  0.00     0.058 A 
HETATM    4  C   UNL     1       9.654  -0.310  24.748  1.00  0.00    -0.003 C 
HETATM    5  C   UNL     1      10.512   0.271  25.018  1.00  0.00    -0.002 C 
HETATM    6  C   UNL     1      11.939   0.191  24.491  1.00  0.00    -0.001 C 
HETATM    7  C   UNL     1      11.996  -0.828  23.581  1.00  0.00    -0.002 C 
HETATM    8  C   UNL     1      11.311  -1.539  23.168  1.00  0.00    -0.003 C 
HETATM    9  C   UNL     1       9.124  -0.939  22.459  1.00  0.00     0.040 A 
ENDROOT
BRANCH   9  10
HETATM   10  C   UNL     1       8.600  -0.385  21.363  1.00  0.00     0.254 C 
HETATM   11  O   UNL     1       9.302   0.229  20.706  1.00  0.00    -0.268 OA
HETATM   12  N   UNL     1       7.303  -0.670  21.265  1.00  0.00    -0.321 N 
ATOM     13  HN  UNL     1       6.842  -1.249  21.967  1.00  0.00     0.169 HD
BRANCH  12  14
HETATM   14  C   UNL     1       6.652  -0.206  20.275  1.00  0.00     0.056 A 
HETATM   15  C   UNL     1       6.320  -0.617  19.052  1.00  0.00     0.117 A 
HETATM   16  N   UNL     1       5.819  -0.549  17.985  1.00  0.00    -0.373 N 
HETATM   17  C   UNL     1       5.295   0.761  18.155  1.00  0.00     0.088 A 
ATOM     18  HN  UNL     1       5.776  -1.207  17.206  1.00  0.00     0.164 HD
HETATM   19  C   UNL     1       5.390   1.434  19.182  1.00  0.00     0.026 A 
HETATM   20  C   UNL     1       5.976   1.193  20.364  1.00  0.00    -0.033 A 
HETATM   21  C   UNL     1       6.036   2.076  21.640  1.00  0.00     0.050 C 
ENDBRANCH  12  14
ENDBRANCH   9  10
BRANCH   1  22
HETATM   22  N   UNL     1       7.873  -4.553  24.041  1.00  0.00    -0.295 N 
ATOM     23  HN  UNL     1       8.084  -5.156  24.836  1.00  0.00     0.177 HD
BRANCH  22  24
HETATM   24  S   UNL     1       6.555  -4.916  23.150  1.00  0.00     0.226 S 
HETATM   25  C   UNL     1       7.135  -6.033  21.886  1.00  0.00     0.186 C 
HETATM   26  O   UNL     1       5.556  -5.596  23.953  1.00  0.00    -0.206 OA
HETATM   27  O   UNL     1       5.999  -3.800  22.449  1.00  0.00    -0.206 OA
ENDBRANCH  22  24
ENDBRANCH   1  22
TORSDOF 4
ENDMDL
MODEL 3
REMARK VINA RESULT:    -7.412      3.389      7.436
REMARK INTER + INTRA:          -9.939
REMARK INTER:                  -9.164
REMARK INTRA:                  -0.775
REMARK UNBOUND:                -0.794
REMARK  4 active torsions:
REMARK  status: ('A' for Active; 'I' for Inactive)
REMARK    1  A    between atoms: S_2  and  N_5 
REMARK    2  A    between atoms: N_5  and  C_7 
REMARK    3  A    between atoms: C_15  and  C_16 
REMARK       I    between atoms: C_16  and  N_18 
REMARK    4  A    between atoms: N_18  and  C_20 
ROOT
HETATM    1  C   UNL     1       7.159  -5.471  26.661  1.00  0.00     0.109 C 
HETATM    2  C   UNL     1       7.344  -4.636  25.713  1.00  0.00    -0.008 A 
HETATM    3  C   UNL     1       7.141  -4.280  24.560  1.00  0.00     0.058 A 
HETATM    4  C   UNL     1       7.609  -5.142  23.104  1.00  0.00    -0.003 C 
HETATM    5  C   UNL     1       7.075  -5.107  22.176  1.00  0.00    -0.002 C 
HETATM    6  C   UNL     1       5.731  -4.462  21.858  1.00  0.00    -0.001 C 
HETATM    7  C   UNL     1       5.237  -3.926  23.014  1.00  0.00    -0.002 C 
HETATM    8  C   UNL     1       5.556  -3.849  24.033  1.00  0.00    -0.003 C 
HETATM    9  C   UNL     1       7.777  -3.256  24.631  1.00  0.00     0.040 A 
ENDROOT
BRANCH   9  10
HETATM   10  C   UNL     1       8.459  -2.113  24.739  1.00  0.00     0.254 C 
HETATM   11  O   UNL     1       8.101  -1.369  25.526  1.00  0.00    -0.268 OA
HETATM   12  N   UNL     1       9.458  -2.075  23.860  1.00  0.00    -0.321 N 
ATOM     13  HN  UNL     1       9.624  -2.856  23.225  1.00  0.00     0.169 HD
BRANCH  12  14
HETATM   14  C   UNL     1      10.201  -1.043  23.829  1.00  0.00     0.056 A 
HETATM   15  C   UNL     1      11.317  -0.631  24.431  1.00  0.00     0.117 A 
HETATM   16  N   UNL     1      12.209   0.104  24.674  1.00  0.00    -0.373 N 
HETATM   17  C   UNL     1      11.784   1.140  23.800  1.00  0.00     0.088 A 
ATOM     18  HN  UNL     1      13.011   0.021  25.299  1.00  0.00     0.164 HD
HETATM   19  C   UNL     1      10.799   1.086  23.062  1.00  0.00     0.026 A 
HETATM   20  C   UNL     1       9.876   0.134  22.865  1.00  0.00    -0.033 A 
HETATM   21  C   UNL     1       8.666   0.113  21.890  1.00  0.00     0.050 C 
ENDBRANCH  12  14
ENDBRANCH   9  10
BRANCH   1  22
HETATM   22  N   UNL     1       7.455  -6.049  27.668  1.00  0.00    -0.295 N 
ATOM     23  HN  UNL     1       8.416  -6.378  27.756  1.00  0.00     0.177 HD
BRANCH  22  24
HETATM   24  S   UNL     1       6.439  -6.352  28.909  1.00  0.00     0.226 S 
HETATM   25  C   UNL     1       4.813  -6.421  28.178  1.00  0.00     0.186 C 
HETATM   26  O   UNL     1       6.733  -7.634  29.519  1.00  0.00    -0.206 OA
HETATM   27  O   UNL     1       6.378  -5.304  29.881  1.00  0.00    -0.206 OA
ENDBRANCH  22  24
ENDBRANCH   1  22
TORSDOF 4
ENDMDL
MODEL 4
REMARK VINA RESULT:    -7.008     13.916     16.441
REMARK INTER + INTRA:          -9.440
REMARK INTER:                  -8.625
REMARK INTRA:                  -0.815
REMARK UNBOUND:                -0.794
REMARK  4 active torsions:
REMARK  status: ('A' for Active; 'I' for Inactive)
REMARK    1  A    between atoms: S_2  and  N_5 
REMARK    2  A    between atoms: N_5  and  C_7 
REMARK    3  A    between atoms: C_15  and  C_16 
REMARK       I    between atoms: C_16  and  N_18 
REMARK    4  A    between atoms: N_18  and  C_20 
ROOT
HETATM    1  C   UNL     1      24.351  -3.954  24.455  1.00  0.00     0.109 C 
HETATM    2  C   UNL     1      23.937  -2.951  23.784  1.00  0.00    -0.008 A 
HETATM    3  C   UNL     1      23.301  -1.907  23.721  1.00  0.00     0.058 A 
HETATM    4  C   UNL     1      21.571  -1.723  23.952  1.00  0.00    -0.003 C 
HETATM    5  C   UNL     1      21.098  -0.847  24.346  1.00  0.00    -0.002 C 
HETATM    6  C   UNL     1      21.727   0.404  24.948  1.00  0.00    -0.001 C 
HETATM    7  C   UNL     1      23.083   0.232  24.954  1.00  0.00    -0.002 C 
HETATM    8  C   UNL     1      23.771  -0.528  24.647  1.00  0.00    -0.003 C 
HETATM    9  C   UNL     1      23.571  -1.663  22.570  1.00  0.00     0.040 A 
ENDROOT
BRANCH   9  10
HETATM   10  C   UNL     1      23.908  -1.397  21.306  1.00  0.00     0.254 C 
HETATM   11  O   UNL     1      24.851  -0.778  21.140  1.00  0.00    -0.268 OA
HETATM   12  N   UNL     1      23.025  -1.927  20.461  1.00  0.00    -0.321 N 
ATOM     13  HN  UNL     1      22.227  -2.460  20.808  1.00  0.00     0.169 HD
BRANCH  12  14
HETATM   14  C   UNL     1      23.199  -1.754  19.213  1.00  0.00     0.056 A 
HETATM   15  C   UNL     1      22.901  -0.820  18.311  1.00  0.00     0.117 A 
HETATM   16  N   UNL     1      22.868  -0.315  17.243  1.00  0.00    -0.373 N 
HETATM   17  C   UNL     1      23.533  -1.372  16.564  1.00  0.00     0.088 A 
ATOM     18  HN  UNL     1      22.492   0.576  16.920  1.00  0.00     0.164 HD
HETATM   19  C   UNL     1      23.977  -2.389  17.099  1.00  0.00     0.026 A 
HETATM   20  C   UNL     1      23.969  -2.812  18.371  1.00  0.00    -0.033 A 
HETATM   21  C   UNL     1      24.577  -4.100  18.991  1.00  0.00     0.050 C 
ENDBRANCH  12  14
ENDBRANCH   9  10
BRANCH   1  22
HETATM   22  N   UNL     1      24.729  -5.082  24.594  1.00  0.00    -0.295 N 
ATOM     23  HN  UNL     1      25.270  -5.494  23.834  1.00  0.00     0.177 HD
BRANCH  22  24
HETATM   24  S   UNL     1      24.445  -6.012  25.905  1.00  0.00     0.226 S 
HETATM   25  C   UNL     1      26.043  -6.262  26.658  1.00  0.00     0.186 C 
HETATM   26  O   UNL     1      23.584  -5.327  26.850  1.00  0.00    -0.206 OA
HETATM   27  O   UNL     1      23.958  -7.321  25.598  1.00  0.00    -0.206 OA
ENDBRANCH  22  24
ENDBRANCH   1  22
TORSDOF 4
ENDMDL
MODEL 5
REMARK VINA RESULT:    -6.905      3.019      5.197
REMARK INTER + INTRA:          -9.313
REMARK INTER:                  -8.535
REMARK INTRA:                  -0.778
REMARK UNBOUND:                -0.794
REMARK  4 active torsions:
REMARK  status: ('A' for Active; 'I' for Inactive)
REMARK    1  A    between atoms: S_2  and  N_5 
REMARK    2  A    between atoms: N_5  and  C_7 
REMARK    3  A    between atoms: C_15  and  C_16 
REMARK       I    between atoms: C_16  and  N_18 
REMARK    4  A    between atoms: N_18  and  C_20 
ROOT
HETATM    1  C   UNL     1       9.563   1.504  21.416  1.00  0.00     0.109 C 
HETATM    2  C   UNL     1       8.568   0.718  21.282  1.00  0.00    -0.008 A 
HETATM    3  C   UNL     1       7.490   0.449  20.767  1.00  0.00     0.058 A 
HETATM    4  C   UNL     1       5.999   1.361  20.931  1.00  0.00    -0.003 C 
HETATM    5  C   UNL     1       5.237   1.423  20.182  1.00  0.00    -0.002 C 
HETATM    6  C   UNL     1       5.245   0.905  18.749  1.00  0.00    -0.001 C 
HETATM    7  C   UNL     1       6.466   0.338  18.513  1.00  0.00    -0.002 C 
HETATM    8  C   UNL     1       7.367   0.174  19.068  1.00  0.00    -0.003 C 
HETATM    9  C   UNL     1       7.356  -0.623  21.306  1.00  0.00     0.040 A 
ENDROOT
BRANCH   9  10
HETATM   10  C   UNL     1       7.242  -1.819  21.888  1.00  0.00     0.254 C 
HETATM   11  O   UNL     1       8.195  -2.284  22.309  1.00  0.00    -0.268 OA
HETATM   12  N   UNL     1       5.981  -2.245  21.847  1.00  0.00    -0.321 N 
ATOM     13  HN  UNL     1       5.252  -1.675  21.419  1.00  0.00     0.169 HD
BRANCH  12  14
HETATM   14  C   UNL     1       5.706  -3.379  22.354  1.00  0.00     0.056 A 
HETATM   15  C   UNL     1       5.695  -4.648  21.948  1.00  0.00     0.117 A 
HETATM   16  N   UNL     1       5.547  -5.816  22.045  1.00  0.00    -0.373 N 
HETATM   17  C   UNL     1       5.108  -5.793  23.397  1.00  0.00     0.088 A 
ATOM     18  HN  UNL     1       5.688  -6.580  21.384  1.00  0.00     0.164 HD
HETATM   19  C   UNL     1       5.023  -4.783  24.097  1.00  0.00     0.026 A 
HETATM   20  C   UNL     1       5.274  -3.491  23.845  1.00  0.00    -0.033 A 
HETATM   21  C   UNL     1       5.177  -2.259  24.787  1.00  0.00     0.050 C 
ENDBRANCH  12  14
ENDBRANCH   9  10
BRANCH   1  22
HETATM   22  N   UNL     1      10.484   1.995  22.005  1.00  0.00    -0.295 N 
ATOM     23  HN  UNL     1      11.131   2.573  21.468  1.00  0.00     0.177 HD
BRANCH  22  24
HETATM   24  S   UNL     1      10.784   1.812  23.598  1.00  0.00     0.226 S 
HETATM   25  C   UNL     1      11.360   0.133  23.778  1.00  0.00     0.186 C 
HETATM   26  O   UNL     1      11.830   2.716  24.038  1.00  0.00    -0.206 OA
HETATM   27  O   UNL     1       9.620   1.908  24.425  1.00  0.00    -0.206 OA
ENDBRANCH  22  24
ENDBRANCH   1  22
TORSDOF 4
ENDMDL
MODEL 6
REMARK VINA RESULT:    -6.865      2.901      5.971
REMARK INTER + INTRA:          -9.264
REMARK INTER:                  -8.443
REMARK INTRA:                  -0.821
REMARK UNBOUND:                -0.794
REMARK  4 active torsions:
REMARK  status: ('A' for Active; 'I' for Inactive)
REMARK    1  A    between atoms: S_2  and  N_5 
REMARK    2  A    between atoms: N_5  and  C_7 
REMARK    3  A    between atoms: C_15  and  C_16 
REMARK       I    between atoms: C_16  and  N_18 
REMARK    4  A    between atoms: N_18  and  C_20 
ROOT
HETATM    1  C   UNL     1       8.156  -3.692  23.189  1.00  0.00     0.109 C 
HETATM    2  C   UNL     1       8.492  -2.480  22.978  1.00  0.00    -0.008 A 
HETATM    3  C   UNL     1       9.258  -1.544  23.166  1.00  0.00     0.058 A 
HETATM    4  C   UNL     1       9.577  -0.749  24.699  1.00  0.00    -0.003 C 
HETATM    5  C   UNL     1      10.508  -0.292  24.967  1.00  0.00    -0.002 C 
HETATM    6  C   UNL     1      11.839  -0.304  24.226  1.00  0.00    -0.001 C 
HETATM    7  C   UNL     1      11.690  -1.068  23.102  1.00  0.00    -0.002 C 
HETATM    8  C   UNL     1      10.900  -1.624  22.641  1.00  0.00    -0.003 C 
HETATM    9  C   UNL     1       8.693  -0.769  22.433  1.00  0.00     0.040 A 
ENDROOT
BRANCH   9  10
HETATM   10  C   UNL     1       8.072   0.062  21.593  1.00  0.00     0.254 C 
HETATM   11  O   UNL     1       8.729   0.708  20.921  1.00  0.00    -0.268 OA
HETATM   12  N   UNL     1       6.751  -0.035  21.725  1.00  0.00    -0.321 N 
ATOM     13  HN  UNL     1       6.340  -0.686  22.395  1.00  0.00     0.169 HD
BRANCH  12  14
HETATM   14  C   UNL     1       6.011   0.702  20.998  1.00  0.00     0.056 A 
HETATM   15  C   UNL     1       5.541   1.948  21.039  1.00  0.00     0.117 A 
HETATM   16  N   UNL     1       4.940   2.893  20.663  1.00  0.00    -0.373 N 
HETATM   17  C   UNL     1       4.429   2.280  19.488  1.00  0.00     0.088 A 
ATOM     18  HN  UNL     1       4.828   3.830  21.050  1.00  0.00     0.164 HD
HETATM   19  C   UNL     1       4.685   1.133  19.118  1.00  0.00     0.026 A 
HETATM   20  C   UNL     1       5.442   0.164  19.653  1.00  0.00    -0.033 A 
HETATM   21  C   UNL     1       5.753  -1.261  19.119  1.00  0.00     0.050 C 
ENDBRANCH  12  14
ENDBRANCH   9  10
BRANCH   1  22
HETATM   22  N   UNL     1       7.380  -4.601  23.281  1.00  0.00    -0.295 N 
ATOM     23  HN  UNL     1       7.710  -5.459  23.723  1.00  0.00     0.177 HD
BRANCH  22  24
HETATM   24  S   UNL     1       5.836  -4.573  22.753  1.00  0.00     0.226 S 
HETATM   25  C   UNL     1       4.992  -3.429  23.831  1.00  0.00     0.186 C 
HETATM   26  O   UNL     1       5.762  -4.076  21.393  1.00  0.00    -0.206 OA
HETATM   27  O   UNL     1       5.146  -5.818  22.901  1.00  0.00    -0.206 OA
ENDBRANCH  22  24
ENDBRANCH   1  22
TORSDOF 4
ENDMDL
MODEL 7
REMARK VINA RESULT:    -6.516      6.033      8.996
REMARK INTER + INTRA:          -8.834
REMARK INTER:                  -8.360
REMARK INTRA:                  -0.474
REMARK UNBOUND:                -0.794
REMARK  4 active torsions:
REMARK  status: ('A' for Active; 'I' for Inactive)
REMARK    1  A    between atoms: S_2  and  N_5 
REMARK    2  A    between atoms: N_5  and  C_7 
REMARK    3  A    between atoms: C_15  and  C_16 
REMARK       I    between atoms: C_16  and  N_18 
REMARK    4  A    between atoms: N_18  and  C_20 
ROOT
HETATM    1  C   UNL     1       5.241  -6.637  26.175  1.00  0.00     0.109 C 
HETATM    2  C   UNL     1       4.716  -6.233  25.085  1.00  0.00    -0.008 A 
HETATM    3  C   UNL     1       4.800  -5.610  24.035  1.00  0.00     0.058 A 
HETATM    4  C   UNL     1       5.061  -3.883  23.864  1.00  0.00    -0.003 C 
HETATM    5  C   UNL     1       5.574  -3.421  23.046  1.00  0.00    -0.002 C 
HETATM    6  C   UNL     1       6.338  -4.067  21.896  1.00  0.00    -0.001 C 
HETATM    7  C   UNL     1       6.316  -5.421  22.083  1.00  0.00    -0.002 C 
HETATM    8  C   UNL     1       5.905  -6.099  22.802  1.00  0.00    -0.003 C 
HETATM    9  C   UNL     1       3.692  -5.881  23.639  1.00  0.00     0.040 A 
ENDROOT
BRANCH   9  10
HETATM   10  C   UNL     1       2.475  -6.217  23.205  1.00  0.00     0.254 C 
HETATM   11  O   UNL     1       1.783  -5.367  22.891  1.00  0.00    -0.268 OA
HETATM   12  N   UNL     1       2.311  -7.538  23.238  1.00  0.00    -0.321 N 
ATOM     13  HN  UNL     1       3.064  -8.149  23.557  1.00  0.00     0.169 HD
BRANCH  12  14
HETATM   14  C   UNL     1       1.196  -8.022  22.862  1.00  0.00     0.056 A 
HETATM   15  C   UNL     1       0.400  -7.916  21.799  1.00  0.00     0.117 A 
HETATM   16  N   UNL     1      -0.548  -8.135  21.129  1.00  0.00    -0.373 N 
HETATM   17  C   UNL     1      -1.176  -9.016  22.050  1.00  0.00     0.088 A 
ATOM     18  HN  UNL     1      -0.821  -7.805  20.203  1.00  0.00     0.164 HD
HETATM   19  C   UNL     1      -0.703  -9.363  23.134  1.00  0.00     0.026 A 
HETATM   20  C   UNL     1       0.442  -9.048  23.757  1.00  0.00    -0.033 A 
HETATM   21  C   UNL     1       0.999  -9.546  25.118  1.00  0.00     0.050 C 
ENDBRANCH  12  14
ENDBRANCH   9  10
BRANCH   1  22
HETATM   22  N   UNL     1       5.223  -7.002  27.317  1.00  0.00    -0.295 N 
ATOM     23  HN  UNL     1       4.494  -7.662  27.587  1.00  0.00     0.177 HD
BRANCH  22  24
HETATM   24  S   UNL     1       6.272  -6.523  28.472  1.00  0.00     0.226 S 
HETATM   25  C   UNL     1       5.444  -5.204  29.341  1.00  0.00     0.186 C 
HETATM   26  O   UNL     1       6.544  -7.600  29.404  1.00  0.00    -0.206 OA
HETATM   27  O   UNL     1       7.478  -5.948  27.962  1.00  0.00    -0.206 OA
ENDBRANCH  22  24
ENDBRANCH   1  22
TORSDOF 4
ENDMDL
MODEL 8
REMARK VINA RESULT:    -6.502     25.523     27.454
REMARK INTER + INTRA:          -8.816
REMARK INTER:                  -8.063
REMARK INTRA:                  -0.753
REMARK UNBOUND:                -0.794
REMARK  4 active torsions:
REMARK  status: ('A' for Active; 'I' for Inactive)
REMARK    1  A    between atoms: S_2  and  N_5 
REMARK    2  A    between atoms: N_5  and  C_7 
REMARK    3  A    between atoms: C_15  and  C_16 
REMARK       I    between atoms: C_16  and  N_18 
REMARK    4  A    between atoms: N_18  and  C_20 
ROOT
HETATM    1  C   UNL     1       0.018 -25.664  10.333  1.00  0.00     0.109 C 
HETATM    2  C   UNL     1       1.112 -25.171   9.901  1.00  0.00    -0.008 A 
HETATM    3  C   UNL     1       2.304 -25.294   9.649  1.00  0.00     0.058 A 
HETATM    4  C   UNL     1       3.587 -25.618  10.803  1.00  0.00    -0.003 C 
HETATM    5  C   UNL     1       4.483 -26.160  10.581  1.00  0.00    -0.002 C 
HETATM    6  C   UNL     1       4.866 -26.920   9.317  1.00  0.00    -0.001 C 
HETATM    7  C   UNL     1       3.815 -26.847   8.447  1.00  0.00    -0.002 C 
HETATM    8  C   UNL     1       2.842 -26.401   8.440  1.00  0.00    -0.003 C 
HETATM    9  C   UNL     1       2.453 -24.184   9.198  1.00  0.00     0.040 A 
ENDROOT
BRANCH   9  10
HETATM   10  C   UNL     1       2.589 -22.963   8.675  1.00  0.00     0.254 C 
HETATM   11  O   UNL     1       2.958 -22.899   7.598  1.00  0.00    -0.268 OA
HETATM   12  N   UNL     1       2.257 -22.029   9.564  1.00  0.00    -0.321 N 
ATOM     13  HN  UNL     1       1.942 -22.288  10.499  1.00  0.00     0.169 HD
BRANCH  12  14
HETATM   14  C   UNL     1       2.341 -20.806   9.223  1.00  0.00     0.056 A 
HETATM   15  C   UNL     1       3.297 -19.882   9.151  1.00  0.00     0.117 A 
HETATM   16  N   UNL     1       3.763 -18.819   8.931  1.00  0.00    -0.373 N 
HETATM   17  C   UNL     1       2.544 -18.209   8.525  1.00  0.00     0.088 A 
ATOM     18  HN  UNL     1       4.715 -18.461   9.006  1.00  0.00     0.164 HD
HETATM   19  C   UNL     1       1.458 -18.784   8.443  1.00  0.00     0.026 A 
HETATM   20  C   UNL     1       1.087 -20.047   8.699  1.00  0.00    -0.033 A 
HETATM   21  C   UNL     1      -0.302 -20.723   8.546  1.00  0.00     0.050 C 
ENDBRANCH  12  14
ENDBRANCH   9  10
BRANCH   1  22
HETATM   22  N   UNL     1      -1.069 -25.613  10.837  1.00  0.00    -0.295 N 
ATOM     23  HN  UNL     1      -1.574 -26.492  10.954  1.00  0.00     0.177 HD
BRANCH  22  24
HETATM   24  S   UNL     1      -1.803 -24.249  11.350  1.00  0.00     0.226 S 
HETATM   25  C   UNL     1      -3.419 -24.272  10.595  1.00  0.00     0.186 C 
HETATM   26  O   UNL     1      -1.959 -24.254  12.792  1.00  0.00    -0.206 OA
HETATM   27  O   UNL     1      -1.182 -23.044  10.890  1.00  0.00    -0.206 OA
ENDBRANCH  22  24
ENDBRANCH   1  22
TORSDOF 4
ENDMDL
MODEL 9
REMARK VINA RESULT:    -6.426     24.304     27.517
REMARK INTER + INTRA:          -8.723
REMARK INTER:                  -7.954
REMARK INTRA:                  -0.769
REMARK UNBOUND:                -0.794
REMARK  4 active torsions:
REMARK  status: ('A' for Active; 'I' for Inactive)
REMARK    1  A    between atoms: S_2  and  N_5 
REMARK    2  A    between atoms: N_5  and  C_7 
REMARK    3  A    between atoms: C_15  and  C_16 
REMARK       I    between atoms: C_16  and  N_18 
REMARK    4  A    between atoms: N_18  and  C_20 
ROOT
HETATM    1  C   UNL     1       7.497  14.213   2.540  1.00  0.00     0.109 C 
HETATM    2  C   UNL     1       8.179  15.281   2.687  1.00  0.00    -0.008 A 
HETATM    3  C   UNL     1       8.410  16.442   2.376  1.00  0.00     0.058 A 
HETATM    4  C   UNL     1       8.946  17.014   0.806  1.00  0.00    -0.003 C 
HETATM    5  C   UNL     1       8.715  17.976   0.396  1.00  0.00    -0.002 C 
HETATM    6  C   UNL     1       7.778  19.054   0.928  1.00  0.00    -0.001 C 
HETATM    7  C   UNL     1       7.193  18.579   2.068  1.00  0.00    -0.002 C 
HETATM    8  C   UNL     1       7.241  17.681   2.649  1.00  0.00    -0.003 C 
HETATM    9  C   UNL     1       9.295  16.614   3.179  1.00  0.00     0.040 A 
ENDROOT
BRANCH   9  10
HETATM   10  C   UNL     1      10.250  16.793   4.096  1.00  0.00     0.254 C 
HETATM   11  O   UNL     1      11.121  16.056   4.087  1.00  0.00    -0.268 OA
HETATM   12  N   UNL     1       9.970  17.838   4.871  1.00  0.00    -0.321 N 
ATOM     13  HN  UNL     1       9.123  18.387   4.719  1.00  0.00     0.169 HD
BRANCH  12  14
HETATM   14  C   UNL     1      10.781  18.138   5.804  1.00  0.00     0.056 A 
HETATM   15  C   UNL     1      10.993  17.762   7.064  1.00  0.00     0.117 A 
HETATM   16  N   UNL     1      11.527  17.754   8.118  1.00  0.00    -0.373 N 
HETATM   17  C   UNL     1      12.472  18.769   7.807  1.00  0.00     0.088 A 
ATOM     18  HN  UNL     1      11.364  17.206   8.963  1.00  0.00     0.164 HD
HETATM   19  C   UNL     1      12.581  19.325   6.713  1.00  0.00     0.026 A 
HETATM   20  C   UNL     1      11.902  19.190   5.565  1.00  0.00    -0.033 A 
HETATM   21  C   UNL     1      12.109  19.904   4.201  1.00  0.00     0.050 C 
ENDBRANCH  12  14
ENDBRANCH   9  10
BRANCH   1  22
HETATM   22  N   UNL     1       7.318  13.028   2.576  1.00  0.00    -0.295 N 
ATOM     23  HN  UNL     1       7.112  12.557   1.695  1.00  0.00     0.177 HD
BRANCH  22  24
HETATM   24  S   UNL     1       7.380  12.110   3.924  1.00  0.00     0.226 S 
HETATM   25  C   UNL     1       6.309  10.722   3.596  1.00  0.00     0.186 C 
HETATM   26  O   UNL     1       8.725  11.619   4.156  1.00  0.00    -0.206 OA
HETATM   27  O   UNL     1       6.840  12.745   5.087  1.00  0.00    -0.206 OA
ENDBRANCH  22  24
ENDBRANCH   1  22
TORSDOF 4
ENDMDL
