stable:False satoms:6 tatoms:24 sratio:0.25
  -OEChem-07092417513D

 24 26  0     1  0  0  0  0  0999 V2000
    6.5664   -4.8925   26.4893 C   0  0  0  0  0  0  0  0  0  0  0  0
    8.2155   -4.3305   26.1111 S   0  0  0  0  0  0  0  0  0  0  0  0
    9.0980   -5.4792   26.0391 O   0  0  0  0  0  0  0  0  0  0  0  0
    8.5759   -3.4531   27.1827 O   0  0  0  0  0  0  0  0  0  0  0  0
    8.0968   -3.5929   24.6605 N   0  0  0  0  0  0  0  0  0  0  0  0
    8.9558   -2.9291   24.1517 C   0  0  0  0  0  0  0  0  0  0  0  0
    9.4052   -1.9368   23.4871 C   0  0  0  0  0  0  0  0  0  0  0  0
   10.3121   -1.1559   23.2308 C   0  0  1  0  0  0  0  0  0  0  0  0
   11.0268    0.0104   24.3308 C   0  0  0  0  0  0  0  0  0  0  0  0
   12.0453    0.3398   24.2927 C   0  0  0  0  0  0  0  0  0  0  0  0
   13.1932   -0.1647   23.4265 C   0  0  0  0  0  0  0  0  0  0  0  0
   12.7256   -1.2039   22.6715 C   0  0  0  0  0  0  0  0  0  0  0  0
   11.7943   -1.7149   22.5462 C   0  0  0  0  0  0  0  0  0  0  0  0
    9.7247   -0.5627   22.3585 C   0  0  1  0  0  0  0  0  0  0  0  0
    9.0696    0.0591   21.3746 C   0  0  0  0  0  0  0  0  0  0  0  0
    9.5468    1.0035   20.9512 O   0  0  0  0  0  0  0  0  0  0  0  0
    7.9384   -0.5792   21.0848 N   0  0  0  0  0  0  0  0  0  0  0  0
    7.1898   -0.1060   20.1709 C   0  0  0  0  0  0  0  0  0  0  0  0
    7.2119   -0.0292   18.8413 C   0  0  0  0  0  0  0  0  0  0  0  0
    6.8163    0.2553   17.7655 N   0  0  0  0  0  0  0  0  0  0  0  0
    5.6348    0.9059   18.2138 C   0  0  0  0  0  0  0  0  0  0  0  0
    5.2801    0.9981   19.3898 C   0  0  0  0  0  0  0  0  0  0  0  0
    5.8382    0.5738   20.5330 C   0  0  0  0  0  0  0  0  0  0  0  0
    5.3225    0.6946   21.9933 C   0  0  0  0  0  0  0  0  0  0  0  0
 20 21  2  0  0  0  0
 19 20  1  0  0  0  0
 21 22  1  0  0  0  0
 18 19  2  0  0  0  0
 22 23  2  0  0  0  0
 18 23  1  0  0  0  0
 17 18  1  0  0  0  0
 23 24  1  0  0  0  0
 15 16  2  0  0  0  0
 15 17  1  0  0  0  0
 14 15  1  0  0  0  0
  8 14  1  0  0  0  0
  7 14  1  0  0  0  0
 12 13  1  0  0  0  0
  8 13  1  0  0  0  0
 11 12  2  0  0  0  0
  7  8  1  0  0  0  0
  8  9  1  0  0  0  0
 10 11  1  0  0  0  0
  6  7  2  3  0  0  0
  5  6  1  0  0  0  0
  9 10  2  0  0  0  0
  2  5  1  0  0  0  0
  2  3  2  0  0  0  0
  1  2  1  0  0  0  0
  2  4  2  0  0  0  0
M  END
> <Shapegauss>
-285.754761

$$$$
