stable:False satoms:19 tatoms:24 sratio:0.7916666666666666
  -OEChem-08052419313D

 24 25  0     0  0  0  0  0  0999 V2000
   -8.4450    0.2629  -23.4555 H   0  0  0  0  0  0  0  0  0  0  0  0
   -7.6070    0.3509  -24.9793 H   0  0  0  0  0  0  0  0  0  0  0  0
  -11.2705    2.0209  -25.7637 H   0  0  0  0  0  0  0  0  0  0  0  0
  -13.0517   -1.4095  -23.4614 C   0  0  0  0  0  0  0  0  0  0  0  0
   -7.9097   -1.9202  -24.1994 S   0  0  0  0  0  0  0  0  0  0  0  0
   -9.6569   -0.2332  -25.2511 C   0  0  0  0  0  0  0  0  0  0  0  0
  -11.6383    0.7687  -26.9055 H   0  0  0  0  0  0  0  0  0  0  0  0
   -9.6868    0.6314  -25.9102 H   0  0  0  0  0  0  0  0  0  0  0  0
  -14.1255   -0.0205  -24.7866 H   0  0  0  0  0  0  0  0  0  0  0  0
  -13.1592   -0.3475  -24.4174 C   0  0  0  0  0  0  0  0  0  0  0  0
  -11.9749    1.2098  -25.9743 C   0  0  0  0  0  0  0  0  0  0  0  0
  -12.9779    1.6175  -26.1169 H   0  0  0  0  0  0  0  0  0  0  0  0
  -12.0072    0.1650  -24.8936 C   0  0  0  0  0  0  0  0  0  0  0  0
  -11.9321   -1.8589  -22.8569 C   0  0  0  0  0  0  0  0  0  0  0  0
  -10.8223   -0.4105  -24.3623 C   0  0  0  0  0  0  0  0  0  0  0  0
   -9.6950   -1.1275  -25.8800 H   0  0  0  0  0  0  0  0  0  0  0  0
   -8.1419   -2.4621  -21.8631 H   0  0  0  0  0  0  0  0  0  0  0  0
   -8.3702   -0.2118  -24.4365 C   0  0  0  0  0  0  0  0  0  0  0  0
   -8.9132   -2.4016  -22.6361 C   0  0  0  0  0  0  0  0  0  0  0  0
  -14.1432   -2.3876  -23.0311 F   0  0  0  0  0  0  0  0  0  0  0  0
   -9.3936   -3.3724  -22.7620 H   0  0  0  0  0  0  0  0  0  0  0  0
  -11.8744   -2.6297  -22.0741 H   0  0  0  0  0  0  0  0  0  0  0  0
  -10.7577   -1.2373  -23.2177 C   0  0  0  0  0  0  0  0  0  0  0  0
   -9.7362   -1.3660  -22.2852 O   0  0  0  0  0  0  0  0  0  0  0  0
  4 20  1  0  0  0  0
 19 21  1  0  0  0  0
 14 22  1  0  0  0  0
  4 14  2  0  0  0  0
  4 10  1  0  0  0  0
 14 23  1  0  0  0  0
 17 19  1  0  0  0  0
  5 19  1  0  0  0  0
 19 24  1  0  0  0  0
  9 10  1  0  0  0  0
 10 13  2  0  0  0  0
 23 24  1  0  0  0  0
 15 23  2  0  0  0  0
  6 16  1  0  0  0  0
  5 18  1  0  0  0  0
 13 15  1  0  0  0  0
  6 15  1  0  0  0  0
 11 13  1  0  0  0  0
  6 18  1  0  0  0  0
  6  8  1  0  0  0  0
  7 11  1  0  0  0  0
  1 18  1  0  0  0  0
  2 18  1  0  0  0  0
 11 12  1  0  0  0  0
  3 11  1  0  0  0  0
M  END
> <Chemgauss4>
-6.836078

$$$$
