stable:False satoms:19 tatoms:24 sratio:0.7916666666666666
  -OEChem-08052419313D

 24 25  0     0  0  0  0  0  0999 V2000
    7.6689   -1.0258   23.8127 H   0  0  0  0  0  0  0  0  0  0  0  0
    7.0841   -0.4336   25.3422 H   0  0  0  0  0  0  0  0  0  0  0  0
   10.0572    2.2041   24.3282 H   0  0  0  0  0  0  0  0  0  0  0  0
   12.5169   -1.3876   23.1923 C   0  0  0  0  0  0  0  0  0  0  0  0
    8.0059   -2.6669   25.4859 S   0  0  0  0  0  0  0  0  0  0  0  0
    9.2278   -0.3324   25.2369 C   0  0  0  0  0  0  0  0  0  0  0  0
   10.9847    1.7521   25.7219 H   0  0  0  0  0  0  0  0  0  0  0  0
    9.0656    0.7201   25.4573 H   0  0  0  0  0  0  0  0  0  0  0  0
   13.2511    0.6644   23.4904 H   0  0  0  0  0  0  0  0  0  0  0  0
   12.4052   -0.0101   23.5709 C   0  0  0  0  0  0  0  0  0  0  0  0
   11.0141    1.7723   24.6386 C   0  0  0  0  0  0  0  0  0  0  0  0
   11.8339    2.4185   24.3179 H   0  0  0  0  0  0  0  0  0  0  0  0
   11.2320    0.3836   24.1050 C   0  0  0  0  0  0  0  0  0  0  0  0
   11.5341   -2.3118   23.1596 C   0  0  0  0  0  0  0  0  0  0  0  0
   10.2411   -0.6291   24.2050 C   0  0  0  0  0  0  0  0  0  0  0  0
    9.6536   -0.7942   26.1326 H   0  0  0  0  0  0  0  0  0  0  0  0
    8.0574   -4.1654   23.5996 H   0  0  0  0  0  0  0  0  0  0  0  0
    7.9020   -0.9910   24.8795 C   0  0  0  0  0  0  0  0  0  0  0  0
    8.8699   -3.5752   24.0329 C   0  0  0  0  0  0  0  0  0  0  0  0
   13.7953   -2.1715   22.9016 F   0  0  0  0  0  0  0  0  0  0  0  0
    9.6587   -4.2346   24.3961 H   0  0  0  0  0  0  0  0  0  0  0  0
   11.6211   -3.3483   22.8015 H   0  0  0  0  0  0  0  0  0  0  0  0
   10.2869   -1.8839   23.5556 C   0  0  0  0  0  0  0  0  0  0  0  0
    9.2404   -2.6644   23.0810 O   0  0  0  0  0  0  0  0  0  0  0  0
  4 20  1  0  0  0  0
 19 21  1  0  0  0  0
 14 22  1  0  0  0  0
  4 14  2  0  0  0  0
  4 10  1  0  0  0  0
 14 23  1  0  0  0  0
 17 19  1  0  0  0  0
  5 19  1  0  0  0  0
 19 24  1  0  0  0  0
  9 10  1  0  0  0  0
 10 13  2  0  0  0  0
 23 24  1  0  0  0  0
 15 23  2  0  0  0  0
  6 16  1  0  0  0  0
  5 18  1  0  0  0  0
 13 15  1  0  0  0  0
  6 15  1  0  0  0  0
 11 13  1  0  0  0  0
  6 18  1  0  0  0  0
  6  8  1  0  0  0  0
  7 11  1  0  0  0  0
  1 18  1  0  0  0  0
  2 18  1  0  0  0  0
 11 12  1  0  0  0  0
  3 11  1  0  0  0  0
M  END
> <Chemgauss4>
-6.908866

$$$$
