MODEL 1
REMARK VINA RESULT:    -7.122      0.000      0.000
REMARK INTER + INTRA:         -11.154
REMARK INTER:                 -10.037
REMARK INTRA:                  -1.117
REMARK UNBOUND:                -1.117
REMARK  7 active torsions:
REMARK  status: ('A' for Active; 'I' for Inactive)
REMARK    1  A    between atoms: S_2  and  N_5 
REMARK    2  A    between atoms: N_5  and  C_7 
REMARK    3  A    between atoms: C_7  and  C_8 
REMARK    4  A    between atoms: C_8  and  C_9 
REMARK    5  A    between atoms: C_9  and  C_15 
REMARK    6  A    between atoms: C_15  and  C_16 
REMARK       I    between atoms: C_16  and  N_18 
REMARK    7  A    between atoms: N_18  and  C_20 
ROOT
HETATM    1  C   UNL     1       9.570  -1.505  23.300  1.00  0.00     0.067 C 
HETATM    2  C   UNL     1       9.687  -0.499  24.517  1.00  0.00    -0.004 C 
HETATM    3  C   UNL     1      10.686   0.036  24.809  1.00  0.00    -0.025 C 
HETATM    4  C   UNL     1      11.828  -0.008  24.419  1.00  0.00     0.053 C 
HETATM    5  C   UNL     1      12.002  -1.151  23.330  1.00  0.00    -0.025 C 
HETATM    6  C   UNL     1      11.242  -1.674  22.960  1.00  0.00    -0.004 C 
ENDROOT
BRANCH   1   7
HETATM    7  C   UNL     1       8.856  -2.582  23.235  1.00  0.00     0.135 C 
BRANCH   7   8
HETATM    8  C   UNL     1       7.887  -3.293  23.500  1.00  0.00    -0.058 C 
BRANCH   8   9
HETATM    9  N   UNL     1       7.107  -4.194  23.453  1.00  0.00    -0.254 N 
ATOM     10  HN  UNL     1       6.905  -4.661  24.337  1.00  0.00     0.188 HD
BRANCH   9  11
HETATM   11  S   UNL     1       6.339  -4.758  22.162  1.00  0.00     0.233 S 
HETATM   12  C   UNL     1       4.976  -5.620  22.774  1.00  0.00     0.186 C 
HETATM   13  O   UNL     1       5.860  -3.620  21.407  1.00  0.00    -0.206 OA
HETATM   14  O   UNL     1       7.113  -5.671  21.386  1.00  0.00    -0.206 OA
ENDBRANCH   9  11
ENDBRANCH   8   9
ENDBRANCH   7   8
ENDBRANCH   1   7
BRANCH   1  15
HETATM   15  C   UNL     1       9.010  -1.037  22.296  1.00  0.00    -0.064 C 
BRANCH  15  16
HETATM   16  C   UNL     1       8.495  -0.418  21.231  1.00  0.00     0.290 C 
HETATM   17  O   UNL     1       9.217   0.254  20.663  1.00  0.00    -0.259 OA
HETATM   18  N   UNL     1       7.221  -0.705  21.105  1.00  0.00    -0.315 N 
ATOM     19  HN  UNL     1       6.749  -1.296  21.790  1.00  0.00     0.170 HD
BRANCH  18  20
HETATM   20  C   UNL     1       6.602  -0.241  20.133  1.00  0.00     0.068 A 
HETATM   21  C   UNL     1       6.266  -0.601  18.910  1.00  0.00     0.118 A 
HETATM   22  N   UNL     1       5.716  -0.430  17.823  1.00  0.00    -0.373 N 
HETATM   23  C   UNL     1       5.283   0.749  18.119  1.00  0.00     0.089 A 
ATOM     24  HN  UNL     1       5.633  -1.010  16.988  1.00  0.00     0.164 HD
HETATM   25  C   UNL     1       5.340   1.426  19.061  1.00  0.00     0.038 A 
HETATM   26  C   UNL     1       5.926   1.183  20.246  1.00  0.00     0.040 A 
HETATM   27 BR   UNL     1       6.029   2.110  21.597  1.00  0.00    -0.049 Br
ENDBRANCH  18  20
ENDBRANCH  15  16
ENDBRANCH   1  15
TORSDOF 7
ENDMDL
MODEL 2
REMARK VINA RESULT:    -6.935      2.861      5.724
REMARK INTER + INTRA:         -10.890
REMARK INTER:                  -9.888
REMARK INTRA:                  -1.002
REMARK UNBOUND:                -1.117
REMARK  7 active torsions:
REMARK  status: ('A' for Active; 'I' for Inactive)
REMARK    1  A    between atoms: S_2  and  N_5 
REMARK    2  A    between atoms: N_5  and  C_7 
REMARK    3  A    between atoms: C_7  and  C_8 
REMARK    4  A    between atoms: C_8  and  C_9 
REMARK    5  A    between atoms: C_9  and  C_15 
REMARK    6  A    between atoms: C_15  and  C_16 
REMARK       I    between atoms: C_16  and  N_18 
REMARK    7  A    between atoms: N_18  and  C_20 
ROOT
HETATM    1  C   UNL     1      10.667  -0.809  23.140  1.00  0.00     0.067 C 
HETATM    2  C   UNL     1      11.928  -1.664  22.709  1.00  0.00    -0.004 C 
HETATM    3  C   UNL     1      12.988  -1.521  23.183  1.00  0.00    -0.025 C 
HETATM    4  C   UNL     1      13.473  -0.761  23.988  1.00  0.00     0.053 C 
HETATM    5  C   UNL     1      12.427   0.363  24.393  1.00  0.00    -0.025 C 
HETATM    6  C   UNL     1      11.479   0.362  24.094  1.00  0.00    -0.004 C 
ENDROOT
BRANCH   1   7
HETATM    7  C   UNL     1       9.714  -0.375  22.380  1.00  0.00     0.135 C 
BRANCH   7   8
HETATM    8  C   UNL     1       8.959  -0.414  21.410  1.00  0.00    -0.058 C 
BRANCH   8   9
HETATM    9  N   UNL     1       8.557  -0.301  20.292  1.00  0.00    -0.254 N 
ATOM     10  HN  UNL     1       9.161  -0.667  19.557  1.00  0.00     0.188 HD
BRANCH   9  11
HETATM   11  S   UNL     1       7.176   0.360  19.810  1.00  0.00     0.233 S 
HETATM   12  C   UNL     1       5.991  -0.884  19.959  1.00  0.00     0.186 C 
HETATM   13  O   UNL     1       6.850   1.419  20.741  1.00  0.00    -0.206 OA
HETATM   14  O   UNL     1       7.187   0.783  18.447  1.00  0.00    -0.206 OA
ENDBRANCH   9  11
ENDBRANCH   8   9
ENDBRANCH   7   8
ENDBRANCH   1   7
BRANCH   1  15
HETATM   15  C   UNL     1       9.858  -1.412  23.862  1.00  0.00    -0.064 C 
BRANCH  15  16
HETATM   16  C   UNL     1       9.102  -2.112  24.712  1.00  0.00     0.290 C 
HETATM   17  O   UNL     1       8.813  -1.565  25.668  1.00  0.00    -0.259 OA
HETATM   18  N   UNL     1       8.896  -3.323  24.252  1.00  0.00    -0.315 N 
ATOM     19  HN  UNL     1       9.320  -3.629  23.376  1.00  0.00     0.170 HD
BRANCH  18  20
HETATM   20  C   UNL     1       8.171  -4.090  24.909  1.00  0.00     0.068 A 
HETATM   21  C   UNL     1       8.282  -4.945  25.906  1.00  0.00     0.118 A 
HETATM   22  N   UNL     1       7.836  -5.755  26.718  1.00  0.00    -0.373 N 
HETATM   23  C   UNL     1       6.624  -5.671  26.281  1.00  0.00     0.089 A 
ATOM     24  HN  UNL     1       8.267  -6.296  27.467  1.00  0.00     0.164 HD
HETATM   25  C   UNL     1       6.097  -5.053  25.451  1.00  0.00     0.038 A 
HETATM   26  C   UNL     1       6.621  -4.150  24.605  1.00  0.00     0.040 A 
HETATM   27 BR   UNL     1       5.913  -3.257  23.422  1.00  0.00    -0.049 Br
ENDBRANCH  18  20
ENDBRANCH  15  16
ENDBRANCH   1  15
TORSDOF 7
ENDMDL
MODEL 3
REMARK VINA RESULT:    -6.725      4.025      6.165
REMARK INTER + INTRA:         -10.594
REMARK INTER:                  -9.878
REMARK INTRA:                  -0.717
REMARK UNBOUND:                -1.117
REMARK  7 active torsions:
REMARK  status: ('A' for Active; 'I' for Inactive)
REMARK    1  A    between atoms: S_2  and  N_5 
REMARK    2  A    between atoms: N_5  and  C_7 
REMARK    3  A    between atoms: C_7  and  C_8 
REMARK    4  A    between atoms: C_8  and  C_9 
REMARK    5  A    between atoms: C_9  and  C_15 
REMARK    6  A    between atoms: C_15  and  C_16 
REMARK       I    between atoms: C_16  and  N_18 
REMARK    7  A    between atoms: N_18  and  C_20 
ROOT
HETATM    1  C   UNL     1       7.394  -4.542  23.905  1.00  0.00     0.067 C 
HETATM    2  C   UNL     1       7.637  -5.723  22.879  1.00  0.00    -0.004 C 
HETATM    3  C   UNL     1       6.929  -5.936  21.972  1.00  0.00    -0.025 C 
HETATM    4  C   UNL     1       5.886  -5.474  21.571  1.00  0.00     0.053 C 
HETATM    5  C   UNL     1       5.317  -4.406  22.599  1.00  0.00    -0.025 C 
HETATM    6  C   UNL     1       5.816  -4.100  23.402  1.00  0.00    -0.004 C 
ENDROOT
BRANCH   1   7
HETATM    7  C   UNL     1       7.612  -4.551  25.180  1.00  0.00     0.135 C 
BRANCH   7   8
HETATM    8  C   UNL     1       7.796  -5.083  26.275  1.00  0.00    -0.058 C 
BRANCH   8   9
HETATM    9  N   UNL     1       7.738  -5.877  27.163  1.00  0.00    -0.254 N 
ATOM     10  HN  UNL     1       8.518  -6.531  27.233  1.00  0.00     0.188 HD
BRANCH   9  11
HETATM   11  S   UNL     1       6.578  -6.037  28.261  1.00  0.00     0.233 S 
HETATM   12  C   UNL     1       5.150  -6.415  27.372  1.00  0.00     0.186 C 
HETATM   13  O   UNL     1       6.916  -7.173  29.091  1.00  0.00    -0.206 OA
HETATM   14  O   UNL     1       6.321  -4.846  29.003  1.00  0.00    -0.206 OA
ENDBRANCH   9  11
ENDBRANCH   8   9
ENDBRANCH   7   8
ENDBRANCH   1   7
BRANCH   1  15
HETATM   15  C   UNL     1       8.144  -3.565  23.753  1.00  0.00    -0.064 C 
BRANCH  15  16
HETATM   16  C   UNL     1       8.958  -2.550  23.450  1.00  0.00     0.290 C 
HETATM   17  O   UNL     1       9.036  -2.305  22.341  1.00  0.00    -0.259 OA
HETATM   18  N   UNL     1       9.531  -2.083  24.533  1.00  0.00    -0.315 N 
ATOM     19  HN  UNL     1       9.359  -2.513  25.443  1.00  0.00     0.170 HD
BRANCH  18  20
HETATM   20  C   UNL     1      10.289  -1.104  24.427  1.00  0.00     0.068 A 
HETATM   21  C   UNL     1      11.541  -0.853  24.099  1.00  0.00     0.118 A 
HETATM   22  N   UNL     1      12.497  -0.107  23.891  1.00  0.00    -0.373 N 
HETATM   23  C   UNL     1      11.848   0.968  24.191  1.00  0.00     0.089 A 
ATOM     24  HN  UNL     1      13.457  -0.276  23.591  1.00  0.00     0.164 HD
HETATM   25  C   UNL     1      10.756   1.198  24.513  1.00  0.00     0.038 A 
HETATM   26  C   UNL     1       9.729   0.350  24.696  1.00  0.00     0.040 A 
HETATM   27 BR   UNL     1       8.177   0.633  25.149  1.00  0.00    -0.049 Br
ENDBRANCH  18  20
ENDBRANCH  15  16
ENDBRANCH   1  15
TORSDOF 7
ENDMDL
MODEL 4
REMARK VINA RESULT:    -6.683      2.214      2.498
REMARK INTER + INTRA:         -10.535
REMARK INTER:                  -9.586
REMARK INTRA:                  -0.949
REMARK UNBOUND:                -1.117
REMARK  7 active torsions:
REMARK  status: ('A' for Active; 'I' for Inactive)
REMARK    1  A    between atoms: S_2  and  N_5 
REMARK    2  A    between atoms: N_5  and  C_7 
REMARK    3  A    between atoms: C_7  and  C_8 
REMARK    4  A    between atoms: C_8  and  C_9 
REMARK    5  A    between atoms: C_9  and  C_15 
REMARK    6  A    between atoms: C_15  and  C_16 
REMARK       I    between atoms: C_16  and  N_18 
REMARK    7  A    between atoms: N_18  and  C_20 
ROOT
HETATM    1  C   UNL     1       9.097  -2.034  23.534  1.00  0.00     0.067 C 
HETATM    2  C   UNL     1       9.065  -0.988  24.723  1.00  0.00    -0.004 C 
HETATM    3  C   UNL     1       9.869  -0.147  24.854  1.00  0.00    -0.025 C 
HETATM    4  C   UNL     1      10.890   0.160  24.285  1.00  0.00     0.053 C 
HETATM    5  C   UNL     1      11.256  -0.917  23.176  1.00  0.00    -0.025 C 
HETATM    6  C   UNL     1      10.660  -1.673  22.930  1.00  0.00    -0.004 C 
ENDROOT
BRANCH   1   7
HETATM    7  C   UNL     1       8.770  -3.285  23.579  1.00  0.00     0.135 C 
BRANCH   7   8
HETATM    8  C   UNL     1       8.239  -4.281  24.071  1.00  0.00    -0.058 C 
BRANCH   8   9
HETATM    9  N   UNL     1       7.814  -5.041  24.885  1.00  0.00    -0.254 N 
ATOM     10  HN  UNL     1       7.433  -5.917  24.527  1.00  0.00     0.188 HD
BRANCH   9  11
HETATM   11  S   UNL     1       7.770  -4.848  26.478  1.00  0.00     0.233 S 
HETATM   12  C   UNL     1       6.722  -3.506  26.753  1.00  0.00     0.186 C 
HETATM   13  O   UNL     1       7.158  -6.031  27.044  1.00  0.00    -0.206 OA
HETATM   14  O   UNL     1       9.036  -4.531  27.053  1.00  0.00    -0.206 OA
ENDBRANCH   9  11
ENDBRANCH   8   9
ENDBRANCH   7   8
ENDBRANCH   1   7
BRANCH   1  15
HETATM   15  C   UNL     1       8.268  -1.818  22.636  1.00  0.00    -0.064 C 
BRANCH  15  16
HETATM   16  C   UNL     1       7.305  -1.504  21.765  1.00  0.00     0.290 C 
HETATM   17  O   UNL     1       6.334  -2.085  21.885  1.00  0.00    -0.259 OA
HETATM   18  N   UNL     1       7.731  -0.598  20.917  1.00  0.00    -0.315 N 
ATOM     19  HN  UNL     1       8.692  -0.256  20.957  1.00  0.00     0.170 HD
BRANCH  18  20
HETATM   20  C   UNL     1       6.937  -0.165  20.065  1.00  0.00     0.068 A 
HETATM   21  C   UNL     1       6.447  -0.526  18.896  1.00  0.00     0.118 A 
HETATM   22  N   UNL     1       5.726  -0.376  17.910  1.00  0.00    -0.373 N 
HETATM   23  C   UNL     1       5.253   0.757  18.308  1.00  0.00     0.089 A 
ATOM     24  HN  UNL     1       5.561  -0.943  17.078  1.00  0.00     0.164 HD
HETATM   25  C   UNL     1       5.400   1.416  19.252  1.00  0.00     0.038 A 
HETATM   26  C   UNL     1       6.177   1.196  20.327  1.00  0.00     0.040 A 
HETATM   27 BR   UNL     1       6.414   2.099  21.677  1.00  0.00    -0.049 Br
ENDBRANCH  18  20
ENDBRANCH  15  16
ENDBRANCH   1  15
TORSDOF 7
ENDMDL
MODEL 5
REMARK VINA RESULT:    -6.184      2.501      6.169
REMARK INTER + INTRA:          -9.832
REMARK INTER:                  -8.886
REMARK INTRA:                  -0.946
REMARK UNBOUND:                -1.117
REMARK  7 active torsions:
REMARK  status: ('A' for Active; 'I' for Inactive)
REMARK    1  A    between atoms: S_2  and  N_5 
REMARK    2  A    between atoms: N_5  and  C_7 
REMARK    3  A    between atoms: C_7  and  C_8 
REMARK    4  A    between atoms: C_8  and  C_9 
REMARK    5  A    between atoms: C_9  and  C_15 
REMARK    6  A    between atoms: C_15  and  C_16 
REMARK       I    between atoms: C_16  and  N_18 
REMARK    7  A    between atoms: N_18  and  C_20 
ROOT
HETATM    1  C   UNL     1       6.258  -3.626  22.360  1.00  0.00     0.067 C 
HETATM    2  C   UNL     1       5.049  -3.820  23.364  1.00  0.00    -0.004 C 
HETATM    3  C   UNL     1       4.680  -4.871  23.722  1.00  0.00    -0.025 C 
HETATM    4  C   UNL     1       4.970  -6.016  23.466  1.00  0.00     0.053 C 
HETATM    5  C   UNL     1       6.025  -6.071  22.280  1.00  0.00    -0.025 C 
HETATM    6  C   UNL     1       6.452  -5.263  21.889  1.00  0.00    -0.004 C 
ENDROOT
BRANCH   1   7
HETATM    7  C   UNL     1       6.370  -2.739  21.425  1.00  0.00     0.135 C 
BRANCH   7   8
HETATM    8  C   UNL     1       5.973  -1.819  20.709  1.00  0.00    -0.058 C 
BRANCH   8   9
HETATM    9  N   UNL     1       5.777  -0.715  20.303  1.00  0.00    -0.254 N 
ATOM     10  HN  UNL     1       4.812  -0.488  20.065  1.00  0.00     0.188 HD
BRANCH   9  11
HETATM   11  S   UNL     1       6.854   0.455  20.088  1.00  0.00     0.233 S 
HETATM   12  C   UNL     1       6.179   1.850  20.844  1.00  0.00     0.186 C 
HETATM   13  O   UNL     1       8.055   0.081  20.803  1.00  0.00    -0.206 OA
HETATM   14  O   UNL     1       7.085   0.778  18.717  1.00  0.00    -0.206 OA
ENDBRANCH   9  11
ENDBRANCH   8   9
ENDBRANCH   7   8
ENDBRANCH   1   7
BRANCH   1  15
HETATM   15  C   UNL     1       7.312  -3.243  22.891  1.00  0.00    -0.064 C 
BRANCH  15  16
HETATM   16  C   UNL     1       8.511  -2.943  23.399  1.00  0.00     0.290 C 
HETATM   17  O   UNL     1       8.927  -3.700  24.140  1.00  0.00    -0.259 OA
HETATM   18  N   UNL     1       8.926  -1.785  22.943  1.00  0.00    -0.315 N 
ATOM     19  HN  UNL     1       8.340  -1.229  22.319  1.00  0.00     0.170 HD
BRANCH  18  20
HETATM   20  C   UNL     1      10.049  -1.381  23.289  1.00  0.00     0.068 A 
HETATM   21  C   UNL     1      11.315  -1.606  22.995  1.00  0.00     0.118 A 
HETATM   22  N   UNL     1      12.523  -1.405  23.107  1.00  0.00    -0.373 N 
HETATM   23  C   UNL     1      12.388  -0.500  24.017  1.00  0.00     0.089 A 
ATOM     24  HN  UNL     1      13.339  -1.809  22.646  1.00  0.00     0.164 HD
HETATM   25  C   UNL     1      11.480  -0.004  24.545  1.00  0.00     0.038 A 
HETATM   26  C   UNL     1      10.167  -0.231  24.367  1.00  0.00     0.040 A 
HETATM   27 BR   UNL     1       8.858   0.445  25.090  1.00  0.00    -0.049 Br
ENDBRANCH  18  20
ENDBRANCH  15  16
ENDBRANCH   1  15
TORSDOF 7
ENDMDL
MODEL 6
REMARK VINA RESULT:    -5.999     14.866     16.097
REMARK INTER + INTRA:          -9.571
REMARK INTER:                  -8.668
REMARK INTRA:                  -0.903
REMARK UNBOUND:                -1.117
REMARK  7 active torsions:
REMARK  status: ('A' for Active; 'I' for Inactive)
REMARK    1  A    between atoms: S_2  and  N_5 
REMARK    2  A    between atoms: N_5  and  C_7 
REMARK    3  A    between atoms: C_7  and  C_8 
REMARK    4  A    between atoms: C_8  and  C_9 
REMARK    5  A    between atoms: C_9  and  C_15 
REMARK    6  A    between atoms: C_15  and  C_16 
REMARK       I    between atoms: C_16  and  N_18 
REMARK    7  A    between atoms: N_18  and  C_20 
ROOT
HETATM    1  C   UNL     1      23.099  -1.562  23.554  1.00  0.00     0.067 C 
HETATM    2  C   UNL     1      21.743  -1.407  24.357  1.00  0.00    -0.004 C 
HETATM    3  C   UNL     1      21.425  -0.413  24.886  1.00  0.00    -0.025 C 
HETATM    4  C   UNL     1      21.937   0.668  25.061  1.00  0.00     0.053 C 
HETATM    5  C   UNL     1      23.434   0.667  24.531  1.00  0.00    -0.025 C 
HETATM    6  C   UNL     1      23.839  -0.093  24.036  1.00  0.00    -0.004 C 
ENDROOT
BRANCH   1   7
HETATM    7  C   UNL     1      23.864  -2.603  23.497  1.00  0.00     0.135 C 
BRANCH   7   8
HETATM    8  C   UNL     1      24.219  -3.743  23.798  1.00  0.00    -0.058 C 
BRANCH   8   9
HETATM    9  N   UNL     1      24.210  -4.930  23.911  1.00  0.00    -0.254 N 
ATOM     10  HN  UNL     1      24.107  -5.464  23.048  1.00  0.00     0.188 HD
BRANCH   9  11
HETATM   11  S   UNL     1      24.341  -5.787  25.261  1.00  0.00     0.233 S 
HETATM   12  C   UNL     1      24.370  -7.437  24.761  1.00  0.00     0.186 C 
HETATM   13  O   UNL     1      25.619  -5.466  25.860  1.00  0.00    -0.206 OA
HETATM   14  O   UNL     1      23.238  -5.626  26.153  1.00  0.00    -0.206 OA
ENDBRANCH   9  11
ENDBRANCH   8   9
ENDBRANCH   7   8
ENDBRANCH   1   7
BRANCH   1  15
HETATM   15  C   UNL     1      22.970  -1.551  22.320  1.00  0.00    -0.064 C 
BRANCH  15  16
HETATM   16  C   UNL     1      22.706  -1.607  21.011  1.00  0.00     0.290 C 
HETATM   17  O   UNL     1      21.631  -1.868  20.744  1.00  0.00    -0.259 OA
HETATM   18  N   UNL     1      23.793  -1.382  20.314  1.00  0.00    -0.315 N 
ATOM     19  HN  UNL     1      24.690  -1.231  20.777  1.00  0.00     0.170 HD
BRANCH  18  20
HETATM   20  C   UNL     1      23.706  -1.356  19.074  1.00  0.00     0.068 A 
HETATM   21  C   UNL     1      23.370  -0.506  18.123  1.00  0.00     0.118 A 
HETATM   22  N   UNL     1      23.206  -0.175  16.950  1.00  0.00    -0.373 N 
HETATM   23  C   UNL     1      23.554  -1.323  16.476  1.00  0.00     0.089 A 
ATOM     24  HN  UNL     1      22.904   0.695  16.510  1.00  0.00     0.164 HD
HETATM   25  C   UNL     1      23.923  -2.321  16.943  1.00  0.00     0.038 A 
HETATM   26  C   UNL     1      24.120  -2.630  18.236  1.00  0.00     0.040 A 
HETATM   27 BR   UNL     1      24.637  -4.022  18.935  1.00  0.00    -0.049 Br
ENDBRANCH  18  20
ENDBRANCH  15  16
ENDBRANCH   1  15
TORSDOF 7
ENDMDL
MODEL 7
REMARK VINA RESULT:    -5.958      1.705      2.058
REMARK INTER + INTRA:          -9.513
REMARK INTER:                  -8.452
REMARK INTRA:                  -1.061
REMARK UNBOUND:                -1.117
REMARK  7 active torsions:
REMARK  status: ('A' for Active; 'I' for Inactive)
REMARK    1  A    between atoms: S_2  and  N_5 
REMARK    2  A    between atoms: N_5  and  C_7 
REMARK    3  A    between atoms: C_7  and  C_8 
REMARK    4  A    between atoms: C_8  and  C_9 
REMARK    5  A    between atoms: C_9  and  C_15 
REMARK    6  A    between atoms: C_15  and  C_16 
REMARK       I    between atoms: C_16  and  N_18 
REMARK    7  A    between atoms: N_18  and  C_20 
ROOT
HETATM    1  C   UNL     1       8.031  -2.509  23.784  1.00  0.00     0.067 C 
HETATM    2  C   UNL     1       7.719  -1.540  24.996  1.00  0.00    -0.004 C 
HETATM    3  C   UNL     1       8.419  -0.652  25.300  1.00  0.00    -0.025 C 
HETATM    4  C   UNL     1       9.492  -0.240  24.928  1.00  0.00     0.053 C 
HETATM    5  C   UNL     1      10.123  -1.219  23.848  1.00  0.00    -0.025 C 
HETATM    6  C   UNL     1       9.639  -2.001  23.470  1.00  0.00    -0.004 C 
ENDROOT
BRANCH   1   7
HETATM    7  C   UNL     1       7.804  -3.781  23.715  1.00  0.00     0.135 C 
BRANCH   7   8
HETATM    8  C   UNL     1       7.128  -4.800  23.852  1.00  0.00    -0.058 C 
BRANCH   8   9
HETATM    9  N   UNL     1       6.185  -5.508  24.031  1.00  0.00    -0.254 N 
ATOM     10  HN  UNL     1       6.390  -6.471  24.299  1.00  0.00     0.188 HD
BRANCH   9  11
HETATM   11  S   UNL     1       4.632  -5.125  23.901  1.00  0.00     0.233 S 
HETATM   12  C   UNL     1       3.796  -6.223  24.934  1.00  0.00     0.186 C 
HETATM   13  O   UNL     1       4.468  -3.786  24.424  1.00  0.00    -0.206 OA
HETATM   14  O   UNL     1       4.108  -5.289  22.584  1.00  0.00    -0.206 OA
ENDBRANCH   9  11
ENDBRANCH   8   9
ENDBRANCH   7   8
ENDBRANCH   1   7
BRANCH   1  15
HETATM   15  C   UNL     1       7.348  -2.301  22.769  1.00  0.00    -0.064 C 
BRANCH  15  16
HETATM   16  C   UNL     1       6.631  -1.935  21.703  1.00  0.00     0.290 C 
HETATM   17  O   UNL     1       5.734  -2.597  21.471  1.00  0.00    -0.259 OA
HETATM   18  N   UNL     1       7.168  -0.887  21.126  1.00  0.00    -0.315 N 
ATOM     19  HN  UNL     1       8.037  -0.485  21.478  1.00  0.00     0.170 HD
BRANCH  18  20
HETATM   20  C   UNL     1       6.593  -0.395  20.140  1.00  0.00     0.068 A 
HETATM   21  C   UNL     1       6.255  -0.745  18.914  1.00  0.00     0.118 A 
HETATM   22  N   UNL     1       5.733  -0.550  17.818  1.00  0.00    -0.373 N 
HETATM   23  C   UNL     1       5.366   0.655  18.098  1.00  0.00     0.089 A 
ATOM     24  HN  UNL     1       5.629  -1.131  16.986  1.00  0.00     0.164 HD
HETATM   25  C   UNL     1       5.449   1.335  19.036  1.00  0.00     0.038 A 
HETATM   26  C   UNL     1       6.001   1.068  20.232  1.00  0.00     0.040 A 
HETATM   27 BR   UNL     1       6.138   1.998  21.578  1.00  0.00    -0.049 Br
ENDBRANCH  18  20
ENDBRANCH  15  16
ENDBRANCH   1  15
TORSDOF 7
ENDMDL
MODEL 8
REMARK VINA RESULT:    -5.947     24.672     27.994
REMARK INTER + INTRA:          -9.498
REMARK INTER:                  -8.257
REMARK INTRA:                  -1.241
REMARK UNBOUND:                -1.117
REMARK  7 active torsions:
REMARK  status: ('A' for Active; 'I' for Inactive)
REMARK    1  A    between atoms: S_2  and  N_5 
REMARK    2  A    between atoms: N_5  and  C_7 
REMARK    3  A    between atoms: C_7  and  C_8 
REMARK    4  A    between atoms: C_8  and  C_9 
REMARK    5  A    between atoms: C_9  and  C_15 
REMARK    6  A    between atoms: C_15  and  C_16 
REMARK       I    between atoms: C_16  and  N_18 
REMARK    7  A    between atoms: N_18  and  C_20 
ROOT
HETATM    1  C   UNL     1       8.694  18.808   0.858  1.00  0.00     0.067 C 
HETATM    2  C   UNL     1       8.606  19.883  -0.302  1.00  0.00    -0.004 C 
HETATM    3  C   UNL     1       7.800  20.730  -0.326  1.00  0.00    -0.025 C 
HETATM    4  C   UNL     1       6.848  21.029   0.356  1.00  0.00     0.053 C 
HETATM    5  C   UNL     1       6.594  19.928   1.472  1.00  0.00    -0.025 C 
HETATM    6  C   UNL     1       7.207  19.163   1.635  1.00  0.00    -0.004 C 
ENDROOT
BRANCH   1   7
HETATM    7  C   UNL     1       9.004  17.557   0.749  1.00  0.00     0.135 C 
BRANCH   7   8
HETATM    8  C   UNL     1       9.185  16.414   1.168  1.00  0.00    -0.058 C 
BRANCH   8   9
HETATM    9  N   UNL     1       9.727  15.461   1.638  1.00  0.00    -0.254 N 
ATOM     10  HN  UNL     1      10.141  14.806   0.975  1.00  0.00     0.188 HD
BRANCH   9  11
HETATM   11  S   UNL     1       9.880  15.089   3.192  1.00  0.00     0.233 S 
HETATM   12  C   UNL     1       8.963  13.645   3.414  1.00  0.00     0.186 C 
HETATM   13  O   UNL     1      11.275  14.788   3.433  1.00  0.00    -0.206 OA
HETATM   14  O   UNL     1       9.350  16.077   4.075  1.00  0.00    -0.206 OA
ENDBRANCH   9  11
ENDBRANCH   8   9
ENDBRANCH   7   8
ENDBRANCH   1   7
BRANCH   1  15
HETATM   15  C   UNL     1       9.615  18.998   1.667  1.00  0.00    -0.064 C 
BRANCH  15  16
HETATM   16  C   UNL     1      10.602  19.342   2.499  1.00  0.00     0.290 C 
HETATM   17  O   UNL     1      11.487  19.866   2.013  1.00  0.00    -0.259 OA
HETATM   18  N   UNL     1      10.332  18.945   3.720  1.00  0.00    -0.315 N 
ATOM     19  HN  UNL     1       9.482  18.416   3.921  1.00  0.00     0.170 HD
BRANCH  18  20
HETATM   20  C   UNL     1      11.134  19.227   4.626  1.00  0.00     0.068 A 
HETATM   21  C   UNL     1      12.238  18.738   5.158  1.00  0.00     0.118 A 
HETATM   22  N   UNL     1      13.184  18.758   5.944  1.00  0.00    -0.373 N 
HETATM   23  C   UNL     1      12.811  19.854   6.515  1.00  0.00     0.089 A 
ATOM     24  HN  UNL     1      13.977  18.134   6.091  1.00  0.00     0.164 HD
HETATM   25  C   UNL     1      11.932  20.597   6.360  1.00  0.00     0.038 A 
HETATM   26  C   UNL     1      10.934  20.554   5.461  1.00  0.00     0.040 A 
HETATM   27 BR   UNL     1       9.677  21.579   5.209  1.00  0.00    -0.049 Br
ENDBRANCH  18  20
ENDBRANCH  15  16
ENDBRANCH   1  15
TORSDOF 7
ENDMDL
MODEL 9
REMARK VINA RESULT:    -5.799     19.580     22.477
REMARK INTER + INTRA:          -9.289
REMARK INTER:                  -8.457
REMARK INTRA:                  -0.832
REMARK UNBOUND:                -1.117
REMARK  7 active torsions:
REMARK  status: ('A' for Active; 'I' for Inactive)
REMARK    1  A    between atoms: S_2  and  N_5 
REMARK    2  A    between atoms: N_5  and  C_7 
REMARK    3  A    between atoms: C_7  and  C_8 
REMARK    4  A    between atoms: C_8  and  C_9 
REMARK    5  A    between atoms: C_9  and  C_15 
REMARK    6  A    between atoms: C_15  and  C_16 
REMARK       I    between atoms: C_16  and  N_18 
REMARK    7  A    between atoms: N_18  and  C_20 
ROOT
HETATM    1  C   UNL     1       5.485  11.448   3.481  1.00  0.00     0.067 C 
HETATM    2  C   UNL     1       4.589  12.271   4.494  1.00  0.00    -0.004 C 
HETATM    3  C   UNL     1       3.689  12.937   4.153  1.00  0.00    -0.025 C 
HETATM    4  C   UNL     1       3.214  13.259   3.089  1.00  0.00     0.053 C 
HETATM    5  C   UNL     1       4.113  12.728   1.893  1.00  0.00    -0.025 C 
HETATM    6  C   UNL     1       4.896  12.128   2.022  1.00  0.00    -0.004 C 
ENDROOT
BRANCH   1   7
HETATM    7  C   UNL     1       6.761  11.241   3.548  1.00  0.00     0.135 C 
BRANCH   7   8
HETATM    8  C   UNL     1       7.946  11.556   3.451  1.00  0.00    -0.058 C 
BRANCH   8   9
HETATM    9  N   UNL     1       8.943  12.211   3.489  1.00  0.00    -0.254 N 
ATOM     10  HN  UNL     1       9.819  11.693   3.554  1.00  0.00     0.188 HD
BRANCH   9  11
HETATM   11  S   UNL     1       9.066  13.811   3.450  1.00  0.00     0.233 S 
HETATM   12  C   UNL     1       8.069  14.319   2.137  1.00  0.00     0.186 C 
HETATM   13  O   UNL     1       8.501  14.322   4.680  1.00  0.00    -0.206 OA
HETATM   14  O   UNL     1      10.389  14.279   3.192  1.00  0.00    -0.206 OA
ENDBRANCH   9  11
ENDBRANCH   8   9
ENDBRANCH   7   8
ENDBRANCH   1   7
BRANCH   1  15
HETATM   15  C   UNL     1       5.258  10.228   3.466  1.00  0.00    -0.064 C 
BRANCH  15  16
HETATM   16  C   UNL     1       4.877   8.949   3.412  1.00  0.00     0.290 C 
HETATM   17  O   UNL     1       4.822   8.502   2.367  1.00  0.00    -0.259 OA
HETATM   18  N   UNL     1       4.606   8.500   4.615  1.00  0.00    -0.315 N 
ATOM     19  HN  UNL     1       4.663   9.115   5.427  1.00  0.00     0.170 HD
BRANCH  18  20
HETATM   20  C   UNL     1       4.277   7.309   4.742  1.00  0.00     0.068 A 
HETATM   21  C   UNL     1       4.856   6.127   4.835  1.00  0.00     0.118 A 
HETATM   22  N   UNL     1       4.848   4.905   4.972  1.00  0.00    -0.373 N 
HETATM   23  C   UNL     1       3.561   4.822   5.029  1.00  0.00     0.089 A 
ATOM     24  HN  UNL     1       5.590   4.207   5.021  1.00  0.00     0.164 HD
HETATM   25  C   UNL     1       2.693   5.593   4.999  1.00  0.00     0.038 A 
HETATM   26  C   UNL     1       2.749   6.930   4.882  1.00  0.00     0.040 A 
HETATM   27 BR   UNL     1       1.550   8.051   4.835  1.00  0.00    -0.049 Br
ENDBRANCH  18  20
ENDBRANCH  15  16
ENDBRANCH   1  15
TORSDOF 7
ENDMDL
