stable:False satoms:11 tatoms:24 sratio:0.4583333333333333
  -OEChem-07092417463D

 24 25  0     1  0  0  0  0  0999 V2000
    6.5695   -4.7968   26.4331 C   0  0  0  0  0  0  0  0  0  0  0  0
    8.1840   -4.2960   26.0940 S   0  0  0  0  0  0  0  0  0  0  0  0
    9.0141   -5.4754   25.9714 O   0  0  0  0  0  0  0  0  0  0  0  0
    8.5916   -3.4194   27.1434 O   0  0  0  0  0  0  0  0  0  0  0  0
    8.1230   -3.5937   24.6518 N   0  0  0  0  0  0  0  0  0  0  0  0
    8.9472   -2.8950   24.1470 C   0  0  0  0  0  0  0  0  0  0  0  0
    9.4534   -1.9644   23.5208 C   0  0  0  0  0  0  0  0  0  0  0  0
   10.3780   -1.1010   23.2512 C   0  0  1  0  0  0  0  0  0  0  0  0
   11.0325   -0.0513   24.2388 C   0  0  0  0  0  0  0  0  0  0  0  0
   12.1656    0.2389   24.2024 C   0  0  0  0  0  0  0  0  0  0  0  0
   13.1250   -0.1274   23.5640 C   0  0  0  0  0  0  0  0  0  0  0  0
   12.7457   -1.3698   22.6506 C   0  0  0  0  0  0  0  0  0  0  0  0
   11.8191   -1.7164   22.5553 C   0  0  0  0  0  0  0  0  0  0  0  0
    9.6892   -0.5994   22.3486 C   0  0  0  0  0  0  0  0  0  0  0  0
    9.0518    0.0399   21.3645 C   0  0  0  0  0  0  0  0  0  0  0  0
    9.5890    0.9550   20.9522 O   0  0  0  0  0  0  0  0  0  0  0  0
    7.8964   -0.5304   21.1200 N   0  0  0  0  0  0  0  0  0  0  0  0
    7.1966   -0.0794   20.1968 C   0  0  0  0  0  0  0  0  0  0  0  0
    7.2344    0.0138   18.8819 C   0  0  0  0  0  0  0  0  0  0  0  0
    6.7731    0.3325   17.7868 N   0  0  0  0  0  0  0  0  0  0  0  0
    5.7019    0.8559   18.2818 C   0  0  0  0  0  0  0  0  0  0  0  0
    5.2743    0.9770   19.3547 C   0  0  0  0  0  0  0  0  0  0  0  0
    5.7994    0.5806   20.5266 C   0  0  0  0  0  0  0  0  0  0  0  0
    5.2295    0.7321   22.0591 Br  0  0  0  0  0  0  0  0  0  0  0  0
 20 21  2  0  0  0  0
 19 20  1  0  0  0  0
 21 22  1  0  0  0  0
 18 19  2  0  0  0  0
 22 23  2  0  0  0  0
 18 23  1  0  0  0  0
 17 18  1  0  0  0  0
 23 24  1  0  0  0  0
 15 16  2  0  0  0  0
 15 17  1  0  0  0  0
 14 15  1  0  0  0  0
  8 14  1  0  0  0  0
 12 13  1  0  0  0  0
  8 13  1  0  0  0  0
 11 12  2  0  0  0  0
  7  8  1  0  0  0  0
  8  9  1  0  0  0  0
  6  7  2  3  0  0  0
 10 11  1  0  0  0  0
  5  6  1  0  0  0  0
  9 10  2  0  0  0  0
  2  5  1  0  0  0  0
  2  3  2  0  0  0  0
  1  2  1  0  0  0  0
  2  4  2  0  0  0  0
M  END
> <Shapegauss>
-286.863373

$$$$
