REMARK  7 active torsions:
REMARK  status: ('A' for Active; 'I' for Inactive)
REMARK    1  A    between atoms: S_2  and  N_5 
REMARK    2  A    between atoms: N_5  and  C_7 
REMARK    3  A    between atoms: C_7  and  C_8 
REMARK    4  A    between atoms: C_8  and  C_9 
REMARK    5  A    between atoms: C_9  and  C_15 
REMARK    6  A    between atoms: C_15  and  C_16 
REMARK       I    between atoms: C_16  and  N_18 
REMARK    7  A    between atoms: N_18  and  C_20 
ROOT
HETATM    1  C   UNL     1      10.378  -1.101  23.251  1.00  0.00     0.067 C 
HETATM    2  C   UNL     1      11.033  -0.051  24.239  1.00  0.00    -0.004 C 
HETATM    3  C   UNL     1      12.166   0.239  24.202  1.00  0.00    -0.025 C 
HETATM    4  C   UNL     1      13.125  -0.127  23.564  1.00  0.00     0.053 C 
HETATM    5  C   UNL     1      12.746  -1.370  22.651  1.00  0.00    -0.025 C 
HETATM    6  C   UNL     1      11.819  -1.716  22.555  1.00  0.00    -0.004 C 
ENDROOT
BRANCH   1   7
HETATM    7  C   UNL     1       9.453  -1.964  23.521  1.00  0.00     0.135 C 
BRANCH   7   8
HETATM    8  C   UNL     1       8.947  -2.895  24.147  1.00  0.00    -0.058 C 
BRANCH   8   9
HETATM    9  N   UNL     1       8.123  -3.594  24.652  1.00  0.00    -0.254 N 
ATOM     10  HN  UNL     1       7.281  -3.766  24.103  1.00  0.00     0.188 HD
BRANCH   9  11
HETATM   11  S   UNL     1       8.184  -4.296  26.094  1.00  0.00     0.233 S 
HETATM   12  C   UNL     1       6.569  -4.797  26.433  1.00  0.00     0.186 C 
HETATM   13  O   UNL     1       9.014  -5.475  25.971  1.00  0.00    -0.206 OA
HETATM   14  O   UNL     1       8.592  -3.419  27.143  1.00  0.00    -0.206 OA
ENDBRANCH   9  11
ENDBRANCH   8   9
ENDBRANCH   7   8
ENDBRANCH   1   7
BRANCH   1  15
HETATM   15  C   UNL     1       9.689  -0.599  22.349  1.00  0.00    -0.064 C 
BRANCH  15  16
HETATM   16  C   UNL     1       9.052   0.040  21.364  1.00  0.00     0.290 C 
HETATM   17  O   UNL     1       9.589   0.955  20.952  1.00  0.00    -0.259 OA
HETATM   18  N   UNL     1       7.896  -0.530  21.120  1.00  0.00    -0.315 N 
ATOM     19  HN  UNL     1       7.578  -1.325  21.675  1.00  0.00     0.170 HD
BRANCH  18  20
HETATM   20  C   UNL     1       7.197  -0.079  20.197  1.00  0.00     0.068 A 
HETATM   21  C   UNL     1       7.234   0.014  18.882  1.00  0.00     0.118 A 
HETATM   22  N   UNL     1       6.773   0.333  17.787  1.00  0.00    -0.373 N 
HETATM   23  C   UNL     1       5.702   0.856  18.282  1.00  0.00     0.089 A 
ATOM     24  HN  UNL     1       7.114   0.224  16.832  1.00  0.00     0.164 HD
HETATM   25  C   UNL     1       5.274   0.977  19.355  1.00  0.00     0.038 A 
HETATM   26  C   UNL     1       5.799   0.581  20.527  1.00  0.00     0.040 A 
HETATM   27 BR   UNL     1       5.229   0.732  22.059  1.00  0.00    -0.049 Br
ENDBRANCH  18  20
ENDBRANCH  15  16
ENDBRANCH   1  15
TORSDOF 7
