stable:False satoms:6 tatoms:24 sratio:0.25
  -OEChem-08062416283D

 45 46  0     1  0  0  0  0  0999 V2000
    6.3808   -5.0605   26.2632 C   0  0  0  0  0  0  0  0  0  0  0  0
    7.9755   -4.5435   26.0345 S   0  0  0  0  0  0  0  0  0  0  0  0
    8.8445   -5.6815   25.9798 O   0  0  0  0  0  0  0  0  0  0  0  0
    8.3056   -3.6794   27.1475 O   0  0  0  0  0  0  0  0  0  0  0  0
    7.9289   -3.7527   24.6412 N   0  0  0  0  0  0  0  0  0  0  0  0
    8.8968   -3.0469   24.1860 C   0  0  0  0  0  0  0  0  0  0  0  0
    9.3302   -2.0435   23.6246 C   0  0  0  0  0  0  0  0  0  0  0  0
   10.2046   -1.0793   23.5403 C   0  0  2  0  0  0  0  0  0  0  0  0
   10.8120   -0.1241   24.5955 C   0  0  0  0  0  0  0  0  0  0  0  0
   11.9019    0.2230   24.6472 C   0  0  0  0  0  0  0  0  0  0  0  0
   12.9773   -0.1327   23.9655 C   0  0  0  0  0  0  0  0  0  0  0  0
   12.6307   -1.2880   22.9814 C   0  0  0  0  0  0  0  0  0  0  0  0
   11.8017   -1.7324   22.7775 C   0  0  0  0  0  0  0  0  0  0  0  0
    9.6695   -0.6270   22.5845 C   0  0  2  0  0  0  0  0  0  0  0  0
    9.0734    0.0564   21.5721 C   0  0  0  0  0  0  0  0  0  0  0  0
    9.5503    1.0542   21.2472 O   0  0  0  0  0  0  0  0  0  0  0  0
    7.9777   -0.5459   21.1504 N   0  0  0  0  0  0  0  0  0  0  0  0
    7.3121   -0.0612   20.2219 C   0  0  0  0  0  0  0  0  0  0  0  0
    7.4358    0.0590   18.9178 C   0  0  0  0  0  0  0  0  0  0  0  0
    7.0155    0.4519   17.8154 N   0  0  0  0  0  0  0  0  0  0  0  0
    5.8711    0.9959   18.2383 C   0  0  0  0  0  0  0  0  0  0  0  0
    5.4194    1.0614   19.3762 C   0  0  0  0  0  0  0  0  0  0  0  0
    5.8990    0.5853   20.5395 C   0  0  0  0  0  0  0  0  0  0  0  0
    5.3031    0.6278   21.9515 C   0  0  0  0  0  0  0  0  0  0  0  0
    6.3083   -5.6212   27.2068 H   0  0  0  0  0  0  0  0  0  0  0  0
    5.7144   -4.1863   26.3041 H   0  0  0  0  0  0  0  0  0  0  0  0
    6.0826   -5.7100   25.4270 H   0  0  0  0  0  0  0  0  0  0  0  0
    7.1482   -3.1315   24.7079 H   0  0  0  0  0  0  0  0  0  0  0  0
    9.7787   -3.6293   24.4085 H   0  0  0  0  0  0  0  0  0  0  0  0
   11.1051   -1.5789   23.1537 H   0  0  0  0  0  0  0  0  0  0  0  0
   10.1436    0.2513   25.3563 H   0  0  0  0  0  0  0  0  0  0  0  0
   12.0858    0.9830   25.3921 H   0  0  0  0  0  0  0  0  0  0  0  0
   13.7554   -0.4722   24.6650 H   0  0  0  0  0  0  0  0  0  0  0  0
   13.3486    0.7315   23.3952 H   0  0  0  0  0  0  0  0  0  0  0  0
   13.4777   -1.6598   22.4240 H   0  0  0  0  0  0  0  0  0  0  0  0
   11.7807   -2.5269   22.0462 H   0  0  0  0  0  0  0  0  0  0  0  0
   10.8926   -1.4366   23.2799 H   0  0  0  0  0  0  0  0  0  0  0  0
   10.2702   -1.2325   21.8898 H   0  0  0  0  0  0  0  0  0  0  0  0
    7.6819   -1.3982   21.5818 H   0  0  0  0  0  0  0  0  0  0  0  0
    8.3726   -0.4280   18.6905 H   0  0  0  0  0  0  0  0  0  0  0  0
    5.2571    1.4408   17.4693 H   0  0  0  0  0  0  0  0  0  0  0  0
    4.4806    1.5889   19.4583 H   0  0  0  0  0  0  0  0  0  0  0  0
    4.6954   -0.2733   22.1209 H   0  0  0  0  0  0  0  0  0  0  0  0
    6.1161    0.6660   22.6915 H   0  0  0  0  0  0  0  0  0  0  0  0
    4.6703    1.5215   22.0556 H   0  0  0  0  0  0  0  0  0  0  0  0
 20 21  2  0  0  0  0
 19 20  1  0  0  0  0
 21 22  1  0  0  0  0
 18 19  2  0  0  0  0
 22 23  2  0  0  0  0
 18 23  1  0  0  0  0
 17 18  1  0  0  0  0
 23 24  1  0  0  0  0
 15 16  2  0  0  0  0
 15 17  1  0  0  0  0
 14 15  1  0  0  0  0
  8 14  1  0  0  0  0
  7 14  1  0  0  0  0
 12 13  2  0  0  0  0
 11 12  1  0  0  0  0
  7  8  1  0  0  0  0
  8  9  1  0  0  0  0
  6  7  2  3  0  0  0
 10 11  1  0  0  0  0
  5  6  1  0  0  0  0
  9 10  2  0  0  0  0
  2  5  1  0  0  0  0
  2  3  2  0  0  0  0
  1  2  1  0  0  0  0
  2  4  2  0  0  0  0
  1 25  1  0  0  0  0
  1 26  1  0  0  0  0
  1 27  1  0  0  0  0
  5 28  1  0  0  0  0
  6 29  1  0  0  0  0
  8 30  1  0  0  0  0
  9 31  1  0  0  0  0
 10 32  1  0  0  0  0
 11 33  1  0  0  0  0
 11 34  1  0  0  0  0
 12 35  1  0  0  0  0
 13 36  1  0  0  0  0
 13 37  1  0  0  0  0
 14 38  1  0  0  0  0
 17 39  1  0  0  0  0
 19 40  1  0  0  0  0
 21 41  1  0  0  0  0
 22 42  1  0  0  0  0
 24 43  1  0  0  0  0
 24 44  1  0  0  0  0
 24 45  1  0  0  0  0
M  END
> <Chemgauss4>
-13.248424

$$$$
