stable:False satoms:13 tatoms:24 sratio:0.5416666666666666
  -OEChem-08052416173D

 26 27  0     1  0  0  0  0  0999 V2000
   10.1657   -0.4884   24.6289 C   0  0  0  0  0  0  0  0  0  0  0  0
    9.4564   -0.1902   25.8577 C   0  0  0  0  0  0  0  0  0  0  0  0
    4.9998   -4.2384   25.7599 O   0  0  0  0  0  0  0  0  0  0  0  0
    5.7107   -6.3839   26.7276 O   0  0  0  0  0  0  0  0  0  0  0  0
    9.1015   -2.7441   25.1253 C   0  0  0  0  0  0  0  0  0  0  0  0
    9.5744    0.8341   26.1179 H   0  0  0  0  0  0  0  0  0  0  0  0
    5.9713   -4.9710   26.5569 S   0  0  0  0  0  0  0  0  0  0  0  0
    8.4723   -2.1236   27.1282 N   0  0  0  0  0  0  0  0  0  0  0  0
    7.1505   -4.5688   24.5641 H   0  0  0  0  0  0  0  0  0  0  0  0
    8.4939   -4.8210   27.4909 H   0  0  0  0  0  0  0  0  0  0  0  0
    8.4918   -4.5184   26.4552 C   0  0  1  0  0  0  0  0  0  0  0  0
    8.6792   -0.8675   26.8726 C   0  0  0  0  0  0  0  0  0  0  0  0
    9.5563   -3.5881   23.5319 H   0  0  0  0  0  0  0  0  0  0  0  0
    9.7160   -5.2768   24.8759 H   0  0  0  0  0  0  0  0  0  0  0  0
    6.2782   -4.3004   27.8168 O   0  5  0  0  0  0  0  0  0  0  0  0
   11.6647    0.9392   24.2540 Br  0  0  0  0  0  0  0  0  0  0  0  0
   10.1922   -1.5879   23.7808 C   0  0  3  0  0  0  0  0  0  0  0  0
    7.5109   -4.9277   25.5054 C   0  0  1  0  0  0  0  0  0  0  0  0
    8.8558   -5.5258   25.4840 C   0  0  0  0  0  0  0  0  0  0  0  0
    9.6167   -2.7514   24.0660 N   0  0  0  0  0  0  0  0  0  0  0  0
    8.2173   -0.2075   27.6058 H   0  0  0  0  0  0  0  0  0  0  0  0
   10.9815   -1.6515   22.2680 Cl  0  0  0  0  0  0  0  0  0  0  0  0
    8.7052   -3.0535   26.2665 C   0  0  0  0  0  0  0  0  0  0  0  0
    8.8905   -6.5976   25.6505 H   0  0  0  0  0  0  0  0  0  0  0  0
    8.6428   -1.7682   25.0645 H   0  0  0  0  0  0  0  0  0  0  0  0
    9.2694   -1.2423   23.2917 H   0  0  0  0  0  0  0  0  0  0  0  0
  3  7  2  0  0  0  0
  9 18  1  0  0  0  0
  4  7  2  0  0  0  0
  7 18  1  0  0  0  0
  7 15  1  0  0  0  0
 18 19  1  0  0  0  0
 11 18  1  0  0  0  0
 13 20  1  0  0  0  0
 17 22  1  0  0  0  0
 17 20  1  0  0  0  0
  5 20  1  0  0  0  0
  1 17  1  0  0  0  0
  5 23  2  3  0  0  0
  1  2  2  0  0  0  0
  1 16  1  0  0  0  0
 11 19  1  0  0  0  0
 19 24  1  0  0  0  0
 14 19  1  0  0  0  0
  2 12  1  0  0  0  0
  2  6  1  0  0  0  0
 11 23  1  0  0  0  0
  8 23  1  0  0  0  0
 12 21  1  0  0  0  0
  8 12  2  0  0  0  0
 10 11  1  0  0  0  0
  5 25  1  0  0  0  0
 17 26  1  0  0  0  0
M  CHG  1  15  -1
M  END
> <Chemgauss4>
-5.388589

$$$$
