stable:False satoms:13 tatoms:24 sratio:0.5416666666666666
  -OEChem-08052416173D

 26 27  0     1  0  0  0  0  0999 V2000
  -10.2516    4.4619  -24.2506 C   0  0  0  0  0  0  0  0  0  0  0  0
   -9.1692    3.6531  -24.7761 C   0  0  0  0  0  0  0  0  0  0  0  0
   -9.9007   -1.5288  -21.7978 O   0  0  0  0  0  0  0  0  0  0  0  0
  -11.5099   -3.0006  -22.9331 O   0  0  0  0  0  0  0  0  0  0  0  0
  -11.1918    2.1242  -23.9068 C   0  0  0  0  0  0  0  0  0  0  0  0
   -8.3583    4.2686  -25.0834 H   0  0  0  0  0  0  0  0  0  0  0  0
  -10.6515   -1.8382  -23.0046 S   0  0  0  0  0  0  0  0  0  0  0  0
   -9.6046    1.1978  -25.0963 N   0  0  0  0  0  0  0  0  0  0  0  0
  -11.7556    0.0727  -22.1966 H   0  0  0  0  0  0  0  0  0  0  0  0
  -11.5033   -0.7403  -25.3127 H   0  0  0  0  0  0  0  0  0  0  0  0
  -11.6819   -0.0398  -24.5117 C   0  0  1  0  0  0  0  0  0  0  0  0
   -8.8691    2.2674  -25.0633 C   0  0  0  0  0  0  0  0  0  0  0  0
  -12.6941    2.6043  -22.9215 H   0  0  0  0  0  0  0  0  0  0  0  0
  -13.5205    0.9330  -24.0202 H   0  0  0  0  0  0  0  0  0  0  0  0
   -9.8132   -1.8319  -24.1998 O   0  5  0  0  0  0  0  0  0  0  0  0
  -10.1164    6.4462  -24.9359 Br  0  0  0  0  0  0  0  0  0  0  0  0
  -11.4267    4.1655  -23.5722 C   0  0  3  0  0  0  0  0  0  0  0  0
  -11.8456   -0.4127  -23.1458 C   0  0  1  0  0  0  0  0  0  0  0  0
  -13.0143   -0.0214  -23.9507 C   0  0  0  0  0  0  0  0  0  0  0  0
  -11.8862    2.9303  -23.4010 N   0  0  0  0  0  0  0  0  0  0  0  0
   -7.8401    2.0797  -25.3671 H   0  0  0  0  0  0  0  0  0  0  0  0
  -12.4866    5.3125  -22.8818 Cl  0  0  0  0  0  0  0  0  0  0  0  0
  -10.7664    1.1385  -24.5412 C   0  0  0  0  0  0  0  0  0  0  0  0
  -13.7737   -0.7874  -24.0704 H   0  0  0  0  0  0  0  0  0  0  0  0
  -10.2392    2.5316  -23.6021 H   0  0  0  0  0  0  0  0  0  0  0  0
  -10.8718    4.0989  -22.6247 H   0  0  0  0  0  0  0  0  0  0  0  0
  3  7  2  0  0  0  0
  9 18  1  0  0  0  0
  4  7  2  0  0  0  0
  7 18  1  0  0  0  0
  7 15  1  0  0  0  0
 18 19  1  0  0  0  0
 11 18  1  0  0  0  0
 13 20  1  0  0  0  0
 17 22  1  0  0  0  0
 17 20  1  0  0  0  0
  5 20  1  0  0  0  0
  1 17  1  0  0  0  0
  5 23  2  3  0  0  0
  1  2  2  0  0  0  0
  1 16  1  0  0  0  0
 11 19  1  0  0  0  0
 19 24  1  0  0  0  0
 14 19  1  0  0  0  0
  2 12  1  0  0  0  0
  2  6  1  0  0  0  0
 11 23  1  0  0  0  0
  8 23  1  0  0  0  0
 12 21  1  0  0  0  0
  8 12  2  0  0  0  0
 10 11  1  0  0  0  0
  5 25  1  0  0  0  0
 17 26  1  0  0  0  0
M  CHG  1  15  -1
M  END
> <Chemgauss4>
-5.519341

$$$$
