stable:False satoms:7 tatoms:24 sratio:0.2916666666666667
  -OEChem-08062414053D

 47 47  0     1  0  0  0  0  0999 V2000
    6.3171   -5.2381   26.2026 C   0  0  0  0  0  0  0  0  0  0  0  0
    8.0067   -4.5340   26.0419 S   0  0  0  0  0  0  0  0  0  0  0  0
    8.9222   -5.6308   25.9863 O   0  0  0  0  0  0  0  0  0  0  0  0
    8.1873   -3.6740   27.1571 O   0  0  0  0  0  0  0  0  0  0  0  0
    7.9393   -3.7182   24.6581 N   0  0  0  0  0  0  0  0  0  0  0  0
    8.7845   -3.0319   24.2094 C   0  0  0  0  0  0  0  0  0  0  0  0
    9.2976   -2.1050   23.6439 C   0  0  0  0  0  0  0  0  0  0  0  0
   10.2142   -1.2838   23.4206 C   0  0  1  0  0  0  0  0  0  0  0  0
   10.8414   -0.0823   24.6210 C   0  0  0  0  0  0  0  0  0  0  0  0
   11.8163    0.1895   24.6203 C   0  0  0  0  0  0  0  0  0  0  0  0
   12.9955   -0.3034   23.8770 C   0  0  0  0  0  0  0  0  0  0  0  0
   12.6377   -1.2176   23.1516 C   0  0  0  0  0  0  0  0  0  0  0  0
   11.6280   -1.7832   22.8860 C   0  0  0  0  0  0  0  0  0  0  0  0
    9.6098   -0.6133   22.5861 C   0  0  0  0  0  0  0  0  0  0  0  0
    9.0099    0.0109   21.6175 C   0  0  0  0  0  0  0  0  0  0  0  0
    9.5259    0.9749   21.2965 O   0  0  0  0  0  0  0  0  0  0  0  0
    7.8902   -0.6362   21.2163 N   0  0  0  0  0  0  0  0  0  0  0  0
    7.2328   -0.0866   20.2794 C   0  0  0  0  0  0  0  0  0  0  0  0
    7.3621    0.1226   18.9769 C   0  0  0  0  0  0  0  0  0  0  0  0
    6.9777    0.4724   17.8819 N   0  0  0  0  0  0  0  0  0  0  0  0
    5.8388    0.9680   18.3571 C   0  0  0  0  0  0  0  0  0  0  0  0
    5.3476    1.0040   19.4751 C   0  0  0  0  0  0  0  0  0  0  0  0
    5.8234    0.5427   20.6166 C   0  0  0  0  0  0  0  0  0  0  0  0
    5.2451    0.5795   21.9201 C   0  0  0  0  0  0  0  0  0  0  0  0
    6.2507   -5.8251   27.1305 H   0  0  0  0  0  0  0  0  0  0  0  0
    5.5809   -4.4213   26.2322 H   0  0  0  0  0  0  0  0  0  0  0  0
    6.1079   -5.8893   25.3411 H   0  0  0  0  0  0  0  0  0  0  0  0
    7.1400   -3.1236   24.7452 H   0  0  0  0  0  0  0  0  0  0  0  0
    9.6607   -3.6020   24.4807 H   0  0  0  0  0  0  0  0  0  0  0  0
    8.5447   -1.8210   22.9236 H   0  0  0  0  0  0  0  0  0  0  0  0
   10.4251   -0.6891   24.3216 H   0  0  0  0  0  0  0  0  0  0  0  0
   10.5041   -0.8845   23.9815 H   0  0  0  0  0  0  0  0  0  0  0  0
   10.1385    0.4298   25.2614 H   0  0  0  0  0  0  0  0  0  0  0  0
   12.0396    1.0010   25.2971 H   0  0  0  0  0  0  0  0  0  0  0  0
   13.7559   -0.6658   24.5843 H   0  0  0  0  0  0  0  0  0  0  0  0
   13.4183    0.5100   23.2690 H   0  0  0  0  0  0  0  0  0  0  0  0
   13.4705   -1.6250   22.5977 H   0  0  0  0  0  0  0  0  0  0  0  0
   11.6701   -2.6639   22.2622 H   0  0  0  0  0  0  0  0  0  0  0  0
   10.1560    0.2965   22.8757 H   0  0  0  0  0  0  0  0  0  0  0  0
    8.6758   -0.6797   23.1634 H   0  0  0  0  0  0  0  0  0  0  0  0
    7.5980   -1.4967   21.6335 H   0  0  0  0  0  0  0  0  0  0  0  0
    8.3754   -0.1968   18.7833 H   0  0  0  0  0  0  0  0  0  0  0  0
    5.2232    1.4329   17.6013 H   0  0  0  0  0  0  0  0  0  0  0  0
    4.3822    1.4839   19.5389 H   0  0  0  0  0  0  0  0  0  0  0  0
    4.6416   -0.3263   22.0797 H   0  0  0  0  0  0  0  0  0  0  0  0
    6.0443    0.6251   22.6745 H   0  0  0  0  0  0  0  0  0  0  0  0
    4.6034    1.4682   22.0115 H   0  0  0  0  0  0  0  0  0  0  0  0
 20 21  2  0  0  0  0
 19 20  1  0  0  0  0
 21 22  1  0  0  0  0
 18 19  2  0  0  0  0
 22 23  2  0  0  0  0
 18 23  1  0  0  0  0
 17 18  1  0  0  0  0
 23 24  1  0  0  0  0
 15 16  2  0  0  0  0
 15 17  1  0  0  0  0
 14 15  1  0  0  0  0
  8 14  1  0  0  0  0
 12 13  2  0  0  0  0
  8 13  1  0  0  0  0
 11 12  1  0  0  0  0
  7  8  1  0  0  0  0
 10 11  1  0  0  0  0
  6  7  2  0  0  0  0
  5  6  1  0  0  0  0
  9 10  2  0  0  0  0
  2  5  1  0  0  0  0
  2  3  2  0  0  0  0
  1  2  1  0  0  0  0
  2  4  2  0  0  0  0
  1 25  1  0  0  0  0
  1 26  1  0  0  0  0
  1 27  1  0  0  0  0
  5 28  1  0  0  0  0
  6 29  1  0  0  0  0
  7 30  1  0  0  0  0
  8 31  1  0  0  0  0
  9 32  1  0  0  0  0
  9 33  1  0  0  0  0
 10 34  1  0  0  0  0
 11 35  1  0  0  0  0
 11 36  1  0  0  0  0
 12 37  1  0  0  0  0
 13 38  1  0  0  0  0
 14 39  1  0  0  0  0
 14 40  1  0  0  0  0
 17 41  1  0  0  0  0
 19 42  1  0  0  0  0
 21 43  1  0  0  0  0
 22 44  1  0  0  0  0
 24 45  1  0  0  0  0
 24 46  1  0  0  0  0
 24 47  1  0  0  0  0
M  END
> <Chemgauss4>
-13.369905

$$$$
