stable:False satoms:12 tatoms:24 sratio:0.5
  -OEChem-07092417313D

 24 27  0     1  0  0  0  0  0999 V2000
    7.6771   -1.1009   25.5227 C   0  0  0  0  0  0  0  0  0  0  0  0
    6.6994   -3.2267   24.4059 O   0  0  0  0  0  0  0  0  0  0  0  0
    7.7295   -3.7148   23.3448 O   0  0  0  0  0  0  0  0  0  0  0  0
    7.7164   -1.8177   26.6352 O   0  0  0  0  0  0  0  0  0  0  0  0
    7.3423   -1.0561   20.3451 C   0  0  0  0  0  0  0  0  0  0  0  0
    9.9087   -2.6769   22.2786 O   0  0  0  0  0  0  0  0  0  0  0  0
    9.0080   -1.9309   21.9142 C   0  0  0  0  0  0  0  0  0  0  0  0
    8.6552   -1.8365   24.5159 N   0  3  2  0  0  0  0  0  0  0  0  0
   10.6772   -1.4209   24.4852 H   0  0  0  0  0  0  0  0  0  0  0  0
   11.7901    0.8100   20.5753 O   0  0  0  0  0  0  0  0  0  0  0  0
   10.7602    0.2494   20.8782 C   0  0  0  0  0  0  0  0  0  0  0  0
    9.6587   -0.0135   24.3652 H   0  0  0  0  0  0  0  0  0  0  0  0
    9.7297   -1.0593   24.1145 C   0  0  0  0  0  0  0  0  0  0  0  0
    9.8373   -1.2352   22.5374 C   0  0  1  0  0  0  0  0  0  0  0  0
    9.7052   -0.0873   19.7421 C   0  0  3  0  0  0  0  0  0  0  0  0
    7.8365   -1.9639   21.2353 N   0  0  0  0  0  0  0  0  0  0  0  0
   10.4811   -0.0441   22.1003 N   0  0  0  0  0  0  0  0  0  0  0  0
    6.8738   -1.5441   19.4928 H   0  0  0  0  0  0  0  0  0  0  0  0
   10.2986   -0.0467   18.1733 Cl  0  0  0  0  0  0  0  0  0  0  0  0
    8.4145   -0.2216   19.7648 O   0  0  0  0  0  0  0  0  0  0  0  0
    7.6673   -2.8015   23.9392 C   0  0  0  0  0  0  0  0  0  0  0  0
    6.6277   -0.3492   20.7602 H   0  0  0  0  0  0  0  0  0  0  0  0
    6.7480   -0.3843   24.7608 O   0  0  0  0  0  0  0  0  0  0  0  0
    7.7417    0.1826   25.4098 O   0  0  0  0  0  0  0  0  0  0  0  0
 15 19  1  0  0  0  0
  5 18  1  0  0  0  0
 15 20  1  0  0  0  0
 11 15  1  0  0  0  0
  5 20  1  0  0  0  0
  5 22  1  0  0  0  0
  5 16  1  0  0  0  0
 10 11  2  0  0  0  0
 11 17  1  0  0  0  0
  7 16  2  3  0  0  0
  6  7  1  0  0  0  0
  7 14  1  0  0  0  0
 14 17  1  0  0  0  0
  6 14  1  0  0  0  0
 13 14  1  0  0  0  0
  3 21  1  0  0  0  0
  2  3  1  0  0  0  0
  2 21  1  0  0  0  0
  8 21  1  0  0  0  0
 12 13  1  0  0  0  0
  9 13  1  0  0  0  0
  8 13  1  0  0  0  0
  1  8  1  0  0  0  0
 23 24  1  0  0  0  0
  1 23  1  0  0  0  0
  1 24  1  0  0  0  0
  1  4  1  0  0  0  0
M  CHG  1   8   1
M  END
> <Shapegauss>
-131.940506

$$$$
