MODEL 1
REMARK VINA RESULT:    -6.350      0.000      0.000
REMARK INTER + INTRA:          -8.604
REMARK INTER:                  -8.021
REMARK INTRA:                  -0.583
REMARK UNBOUND:                -0.583
REMARK  5 active torsions:
REMARK  status: ('A' for Active; 'I' for Inactive)
REMARK    1  A    between atoms: C_1  and  N_9 
REMARK    2  A    between atoms: C_1  and  O_4 
REMARK    3  A    between atoms: N_9  and  C_21 
REMARK    4  A    between atoms: N_9  and  C_12 
REMARK    5  A    between atoms: C_12  and  C_13 
ROOT
HETATM    1  C   UNL     1       6.676   0.142  23.805  1.00  0.00     0.301 C 
HETATM    2  O   UNL     1       8.381   1.737  21.066  1.00  0.00    -0.293 OA
HETATM    3  C   UNL     1       7.691   0.981  21.739  1.00  0.00     0.178 A 
HETATM    4  O   UNL     1      10.909  -1.560  22.223  1.00  0.00    -0.264 OA
HETATM    5  C   UNL     1       9.806  -1.060  22.247  1.00  0.00     0.289 C 
HETATM    6  C   UNL     1       8.312   0.280  20.913  1.00  0.00     0.226 A 
HETATM    7  C   UNL     1       9.158  -0.695  23.648  1.00  0.00     0.209 C 
HETATM    8  N   UNL     1       6.803   1.011  22.761  1.00  0.00    -0.348 N 
ATOM      9  HN  UNL     1       6.141   1.787  22.748  1.00  0.00     0.163 HD
HETATM   10  N   UNL     1       9.130  -0.855  21.171  1.00  0.00    -0.314 N 
ATOM     11  HN  UNL     1       9.186  -1.567  20.441  1.00  0.00     0.166 HD
HETATM   12 CL   UNL     1      10.229  -0.613  24.937  1.00  0.00    -0.051 Cl
HETATM   13  O   UNL     1       7.924  -0.612  24.041  1.00  0.00    -0.316 OA
ENDROOT
BRANCH   6  14
HETATM   14  C   UNL     1       7.711   0.002  19.467  1.00  0.00     0.206 C 
BRANCH  14  15
HETATM   15  N   UNL     1       6.394  -0.386  19.666  1.00  0.00    -0.248 N 
BRANCH  15  16
HETATM   16  C   UNL     1       5.352   0.426  18.790  1.00  0.00     0.434 A 
HETATM   17  O   UNL     1       5.278   1.721  19.314  1.00  0.00    -0.141 OA
HETATM   18  O   UNL     1       4.337   0.818  19.485  1.00  0.00    -0.141 OA
BRANCH  16  19
HETATM   19  O   UNL     1       5.341  -0.177  17.612  1.00  0.00    -0.321 OA
ATOM     20  HO  UNL     1       4.513   0.063  17.214  1.00  0.00     0.217 HD
ENDBRANCH  16  19
ENDBRANCH  15  16
BRANCH  15  21
HETATM   21  C   UNL     1       5.588  -1.633  19.840  1.00  0.00     0.329 A 
HETATM   22  O   UNL     1       5.615  -2.412  20.695  1.00  0.00    -0.141 OA
HETATM   23  O   UNL     1       5.243  -2.434  19.183  1.00  0.00    -0.141 OA
ENDBRANCH  15  21
ENDBRANCH  14  15
ENDBRANCH   6  14
TORSDOF 5
ENDMDL
MODEL 2
REMARK VINA RESULT:    -6.101     24.352     26.236
REMARK INTER + INTRA:          -8.288
REMARK INTER:                  -7.728
REMARK INTRA:                  -0.560
REMARK UNBOUND:                -0.583
REMARK  5 active torsions:
REMARK  status: ('A' for Active; 'I' for Inactive)
REMARK    1  A    between atoms: C_1  and  N_9 
REMARK    2  A    between atoms: C_1  and  O_4 
REMARK    3  A    between atoms: N_9  and  C_21 
REMARK    4  A    between atoms: N_9  and  C_12 
REMARK    5  A    between atoms: C_12  and  C_13 
ROOT
HETATM    1  C   UNL     1       7.610  19.559   0.012  1.00  0.00     0.301 C 
HETATM    2  O   UNL     1       9.724  16.815   0.991  1.00  0.00    -0.293 OA
HETATM    3  C   UNL     1       8.826  17.647   0.945  1.00  0.00     0.178 A 
HETATM    4  O   UNL     1      10.995  20.157   3.403  1.00  0.00    -0.264 OA
HETATM    5  C   UNL     1      10.128  19.662   2.717  1.00  0.00     0.289 C 
HETATM    6  C   UNL     1       9.163  17.531   2.142  1.00  0.00     0.226 A 
HETATM    7  C   UNL     1       9.659  20.422   1.405  1.00  0.00     0.209 C 
HETATM    8  N   UNL     1       8.013  18.256   0.049  1.00  0.00    -0.348 N 
ATOM      9  HN  UNL     1       7.653  17.660  -0.696  1.00  0.00     0.163 HD
HETATM   10  N   UNL     1       9.550  18.560   3.044  1.00  0.00    -0.314 N 
ATOM     11  HN  UNL     1       9.352  18.413   4.035  1.00  0.00     0.166 HD
HETATM   12 CL   UNL     1      10.709  21.604   0.843  1.00  0.00    -0.051 Cl
HETATM   13  O   UNL     1       8.531  20.435   0.764  1.00  0.00    -0.316 OA
ENDROOT
BRANCH   6  14
HETATM   14  C   UNL     1       8.486  16.435   3.074  1.00  0.00     0.206 C 
BRANCH  14  15
HETATM   15  N   UNL     1       9.479  15.997   3.937  1.00  0.00    -0.248 N 
BRANCH  15  16
HETATM   16  C   UNL     1       9.993  14.530   3.625  1.00  0.00     0.434 A 
HETATM   17  O   UNL     1       9.049  13.634   4.137  1.00  0.00    -0.141 OA
HETATM   18  O   UNL     1      10.216  13.855   4.702  1.00  0.00    -0.141 OA
BRANCH  16  19
HETATM   19  O   UNL     1      10.784  14.654   2.570  1.00  0.00    -0.321 OA
ATOM     20  HO  UNL     1      10.583  15.507   2.204  1.00  0.00     0.217 HD
ENDBRANCH  16  19
ENDBRANCH  15  16
BRANCH  15  21
HETATM   21  C   UNL     1      10.716  16.509   4.605  1.00  0.00     0.329 A 
HETATM   22  O   UNL     1      10.825  17.304   5.437  1.00  0.00    -0.141 OA
HETATM   23  O   UNL     1      11.721  16.782   4.276  1.00  0.00    -0.141 OA
ENDBRANCH  15  21
ENDBRANCH  14  15
ENDBRANCH   6  14
TORSDOF 5
ENDMDL
MODEL 3
REMARK VINA RESULT:    -5.922     21.838     23.186
REMARK INTER + INTRA:          -8.063
REMARK INTER:                  -7.617
REMARK INTRA:                  -0.445
REMARK UNBOUND:                -0.583
REMARK  5 active torsions:
REMARK  status: ('A' for Active; 'I' for Inactive)
REMARK    1  A    between atoms: C_1  and  N_9 
REMARK    2  A    between atoms: C_1  and  O_4 
REMARK    3  A    between atoms: N_9  and  C_21 
REMARK    4  A    between atoms: N_9  and  C_12 
REMARK    5  A    between atoms: C_12  and  C_13 
ROOT
HETATM    1  C   UNL     1       7.080  16.051   5.045  1.00  0.00     0.301 C 
HETATM    2  O   UNL     1       7.787  16.176   1.518  1.00  0.00    -0.293 OA
HETATM    3  C   UNL     1       7.487  15.794   2.643  1.00  0.00     0.178 A 
HETATM    4  O   UNL     1      11.417  14.757   3.364  1.00  0.00    -0.264 OA
HETATM    5  C   UNL     1      10.221  14.922   3.455  1.00  0.00     0.289 C 
HETATM    6  C   UNL     1       8.208  14.912   2.131  1.00  0.00     0.226 A 
HETATM    7  C   UNL     1       9.660  15.852   4.612  1.00  0.00     0.209 C 
HETATM    8  N   UNL     1       6.773  16.190   3.723  1.00  0.00    -0.348 N 
ATOM      9  HN  UNL     1       5.887  16.653   3.521  1.00  0.00     0.163 HD
HETATM   10  N   UNL     1       9.392  14.333   2.666  1.00  0.00    -0.314 N 
ATOM     11  HN  UNL     1       9.602  13.370   2.403  1.00  0.00     0.166 HD
HETATM   12 CL   UNL     1      10.784  16.877   5.320  1.00  0.00    -0.051 Cl
HETATM   13  O   UNL     1       8.531  15.861   5.250  1.00  0.00    -0.316 OA
ENDROOT
BRANCH   6  14
HETATM   14  C   UNL     1       7.570  13.747   1.256  1.00  0.00     0.206 C 
BRANCH  14  15
HETATM   15  N   UNL     1       7.097  12.804   2.156  1.00  0.00    -0.248 N 
BRANCH  15  16
HETATM   16  C   UNL     1       6.257  11.643   1.480  1.00  0.00     0.434 A 
HETATM   17  O   UNL     1       4.904  11.902   1.727  1.00  0.00    -0.141 OA
HETATM   18  O   UNL     1       5.585  10.963   2.347  1.00  0.00    -0.141 OA
BRANCH  16  19
HETATM   19  O   UNL     1       7.023  11.179   0.506  1.00  0.00    -0.321 OA
ATOM     20  HO  UNL     1       6.720  11.614  -0.282  1.00  0.00     0.217 HD
ENDBRANCH  16  19
ENDBRANCH  15  16
BRANCH  15  21
HETATM   21  C   UNL     1       7.558  12.048   3.362  1.00  0.00     0.329 A 
HETATM   22  O   UNL     1       7.538  12.359   4.475  1.00  0.00    -0.141 OA
HETATM   23  O   UNL     1       8.415  11.414   3.601  1.00  0.00    -0.141 OA
ENDBRANCH  15  21
ENDBRANCH  14  15
ENDBRANCH   6  14
TORSDOF 5
ENDMDL
MODEL 4
REMARK VINA RESULT:    -5.877      3.013      4.187
REMARK INTER + INTRA:          -8.006
REMARK INTER:                  -7.288
REMARK INTRA:                  -0.717
REMARK UNBOUND:                -0.583
REMARK  5 active torsions:
REMARK  status: ('A' for Active; 'I' for Inactive)
REMARK    1  A    between atoms: C_1  and  N_9 
REMARK    2  A    between atoms: C_1  and  O_4 
REMARK    3  A    between atoms: N_9  and  C_21 
REMARK    4  A    between atoms: N_9  and  C_12 
REMARK    5  A    between atoms: C_12  and  C_13 
ROOT
HETATM    1  C   UNL     1       8.511  -0.468  25.571  1.00  0.00     0.301 C 
HETATM    2  O   UNL     1       8.065  -0.095  22.019  1.00  0.00    -0.293 OA
HETATM    3  C   UNL     1       8.113  -0.551  23.155  1.00  0.00     0.178 A 
HETATM    4  O   UNL     1      11.986  -1.825  22.505  1.00  0.00    -0.264 OA
HETATM    5  C   UNL     1      10.896  -1.611  22.987  1.00  0.00     0.289 C 
HETATM    6  C   UNL     1       8.570  -1.422  22.385  1.00  0.00     0.226 A 
HETATM    7  C   UNL     1      10.799  -0.752  24.317  1.00  0.00     0.209 C 
HETATM    8  N   UNL     1       7.810  -0.210  24.430  1.00  0.00    -0.348 N 
ATOM      9  HN  UNL     1       6.940   0.309  24.553  1.00  0.00     0.163 HD
HETATM   10  N   UNL     1       9.820  -2.097  22.474  1.00  0.00    -0.314 N 
ATOM     11  HN  UNL     1       9.867  -3.045  22.099  1.00  0.00     0.166 HD
HETATM   12 CL   UNL     1      12.158   0.160  24.686  1.00  0.00    -0.051 Cl
HETATM   13  O   UNL     1       9.935  -0.741  25.285  1.00  0.00    -0.316 OA
ENDROOT
BRANCH   6  14
HETATM   14  C   UNL     1       7.607  -2.483  21.694  1.00  0.00     0.206 C 
BRANCH  14  15
HETATM   15  N   UNL     1       7.219  -3.360  22.695  1.00  0.00    -0.248 N 
BRANCH  15  16
HETATM   16  C   UNL     1       6.606  -4.716  22.150  1.00  0.00     0.434 A 
HETATM   17  O   UNL     1       5.293  -4.453  21.745  1.00  0.00    -0.141 OA
HETATM   18  O   UNL     1       5.592  -5.104  22.849  1.00  0.00    -0.141 OA
BRANCH  16  19
HETATM   19  O   UNL     1       7.645  -5.439  21.763  1.00  0.00    -0.321 OA
ATOM     20  HO  UNL     1       7.790  -6.066  22.462  1.00  0.00     0.217 HD
ENDBRANCH  16  19
ENDBRANCH  15  16
BRANCH  15  21
HETATM   21  C   UNL     1       7.706  -3.871  24.014  1.00  0.00     0.329 A 
HETATM   22  O   UNL     1       7.472  -3.488  25.080  1.00  0.00    -0.141 OA
HETATM   23  O   UNL     1       8.658  -4.236  24.403  1.00  0.00    -0.141 OA
ENDBRANCH  15  21
ENDBRANCH  14  15
ENDBRANCH   6  14
TORSDOF 5
ENDMDL
MODEL 5
REMARK VINA RESULT:    -5.794     21.255     23.269
REMARK INTER + INTRA:          -7.901
REMARK INTER:                  -7.740
REMARK INTRA:                  -0.161
REMARK UNBOUND:                -0.583
REMARK  5 active torsions:
REMARK  status: ('A' for Active; 'I' for Inactive)
REMARK    1  A    between atoms: C_1  and  N_9 
REMARK    2  A    between atoms: C_1  and  O_4 
REMARK    3  A    between atoms: N_9  and  C_21 
REMARK    4  A    between atoms: N_9  and  C_12 
REMARK    5  A    between atoms: C_12  and  C_13 
ROOT
HETATM    1  C   UNL     1       4.530  12.118   2.230  1.00  0.00     0.301 C 
HETATM    2  O   UNL     1       6.680  14.705   3.510  1.00  0.00    -0.293 OA
HETATM    3  C   UNL     1       6.174  13.841   2.805  1.00  0.00     0.178 A 
HETATM    4  O   UNL     1       8.654  10.995   4.477  1.00  0.00    -0.264 OA
HETATM    5  C   UNL     1       7.834  11.569   3.795  1.00  0.00     0.289 C 
HETATM    6  C   UNL     1       7.413  13.695   2.741  1.00  0.00     0.226 A 
HETATM    7  C   UNL     1       6.318  11.110   3.865  1.00  0.00     0.209 C 
HETATM    8  N   UNL     1       4.958  13.402   2.402  1.00  0.00    -0.348 N 
ATOM      9  HN  UNL     1       4.271  14.128   2.200  1.00  0.00     0.163 HD
HETATM   10  N   UNL     1       8.167  12.513   2.986  1.00  0.00    -0.314 N 
ATOM     11  HN  UNL     1       9.045  12.405   2.477  1.00  0.00     0.166 HD
HETATM   12 CL   UNL     1       5.908  10.181   5.202  1.00  0.00    -0.051 Cl
HETATM   13  O   UNL     1       5.352  11.162   3.001  1.00  0.00    -0.316 OA
ENDROOT
BRANCH   6  14
HETATM   14  C   UNL     1       8.270  14.481   1.656  1.00  0.00     0.206 C 
BRANCH  14  15
HETATM   15  N   UNL     1       9.300  15.096   2.352  1.00  0.00    -0.248 N 
BRANCH  15  16
HETATM   16  C   UNL     1       9.043  16.632   2.646  1.00  0.00     0.434 A 
HETATM   17  O   UNL     1       8.550  17.210   1.471  1.00  0.00    -0.141 OA
HETATM   18  O   UNL     1       9.777  17.396   1.909  1.00  0.00    -0.141 OA
BRANCH  16  19
HETATM   19  O   UNL     1       8.853  16.710   3.954  1.00  0.00    -0.321 OA
ATOM     20  HO  UNL     1       8.912  15.816   4.270  1.00  0.00     0.217 HD
ENDBRANCH  16  19
ENDBRANCH  15  16
BRANCH  15  21
HETATM   21  C   UNL     1      10.227  14.821   3.494  1.00  0.00     0.329 A 
HETATM   22  O   UNL     1      11.381  14.877   3.532  1.00  0.00    -0.141 OA
HETATM   23  O   UNL     1      10.283  14.073   4.287  1.00  0.00    -0.141 OA
ENDBRANCH  15  21
ENDBRANCH  14  15
ENDBRANCH   6  14
TORSDOF 5
ENDMDL
MODEL 6
REMARK VINA RESULT:    -5.747      2.292      3.767
REMARK INTER + INTRA:          -7.841
REMARK INTER:                  -6.991
REMARK INTRA:                  -0.850
REMARK UNBOUND:                -0.583
REMARK  5 active torsions:
REMARK  status: ('A' for Active; 'I' for Inactive)
REMARK    1  A    between atoms: C_1  and  N_9 
REMARK    2  A    between atoms: C_1  and  O_4 
REMARK    3  A    between atoms: N_9  and  C_21 
REMARK    4  A    between atoms: N_9  and  C_12 
REMARK    5  A    between atoms: C_12  and  C_13 
ROOT
HETATM    1  C   UNL     1       9.419  -0.448  25.863  1.00  0.00     0.301 C 
HETATM    2  O   UNL     1      11.359  -1.797  23.147  1.00  0.00    -0.293 OA
HETATM    3  C   UNL     1      10.515  -1.199  23.804  1.00  0.00     0.178 A 
HETATM    4  O   UNL     1       8.000  -4.466  23.590  1.00  0.00    -0.264 OA
HETATM    5  C   UNL     1       8.472  -3.371  23.807  1.00  0.00     0.289 C 
HETATM    6  C   UNL     1       9.929  -1.718  22.831  1.00  0.00     0.226 A 
HETATM    7  C   UNL     1       8.657  -2.897  25.309  1.00  0.00     0.209 C 
HETATM    8  N   UNL     1      10.407  -0.442  24.922  1.00  0.00    -0.348 N 
ATOM      9  HN  UNL     1      11.165   0.221  25.081  1.00  0.00     0.163 HD
HETATM   10  N   UNL     1       8.788  -2.568  22.852  1.00  0.00    -0.314 N 
ATOM     11  HN  UNL     1       8.168  -2.538  22.042  1.00  0.00     0.166 HD
HETATM   12 CL   UNL     1       8.608  -4.117  26.460  1.00  0.00    -0.051 Cl
HETATM   13  O   UNL     1       8.669  -1.721  25.855  1.00  0.00    -0.316 OA
ENDROOT
BRANCH   6  14
HETATM   14  C   UNL     1       9.810  -0.946  21.446  1.00  0.00     0.206 C 
BRANCH  14  15
HETATM   15  N   UNL     1       8.747  -0.066  21.586  1.00  0.00    -0.248 N 
BRANCH  15  16
HETATM   16  C   UNL     1       7.632  -0.233  20.473  1.00  0.00     0.434 A 
HETATM   17  O   UNL     1       8.191   0.161  19.252  1.00  0.00    -0.141 OA
HETATM   18  O   UNL     1       7.326   0.893  19.921  1.00  0.00    -0.141 OA
BRANCH  16  19
HETATM   19  O   UNL     1       6.805  -1.154  20.942  1.00  0.00    -0.321 OA
ATOM     20  HO  UNL     1       5.936  -0.782  20.850  1.00  0.00     0.217 HD
ENDBRANCH  16  19
ENDBRANCH  15  16
BRANCH  15  21
HETATM   21  C   UNL     1       7.881   0.513  22.659  1.00  0.00     0.329 A 
HETATM   22  O   UNL     1       8.123   1.338  23.432  1.00  0.00    -0.141 OA
HETATM   23  O   UNL     1       7.163   0.113  23.378  1.00  0.00    -0.141 OA
ENDBRANCH  15  21
ENDBRANCH  14  15
ENDBRANCH   6  14
TORSDOF 5
ENDMDL
MODEL 7
REMARK VINA RESULT:    -5.719      2.309      3.804
REMARK INTER + INTRA:          -7.806
REMARK INTER:                  -7.148
REMARK INTRA:                  -0.659
REMARK UNBOUND:                -0.583
REMARK  5 active torsions:
REMARK  status: ('A' for Active; 'I' for Inactive)
REMARK    1  A    between atoms: C_1  and  N_9 
REMARK    2  A    between atoms: C_1  and  O_4 
REMARK    3  A    between atoms: N_9  and  C_21 
REMARK    4  A    between atoms: N_9  and  C_12 
REMARK    5  A    between atoms: C_12  and  C_13 
ROOT
HETATM    1  C   UNL     1       9.004  -1.004  25.752  1.00  0.00     0.301 C 
HETATM    2  O   UNL     1      11.219  -1.823  23.035  1.00  0.00    -0.293 OA
HETATM    3  C   UNL     1      10.326  -1.332  23.715  1.00  0.00     0.178 A 
HETATM    4  O   UNL     1       7.705  -4.245  22.416  1.00  0.00    -0.264 OA
HETATM    5  C   UNL     1       8.197  -3.274  22.947  1.00  0.00     0.289 C 
HETATM    6  C   UNL     1       9.849  -1.558  22.583  1.00  0.00     0.226 A 
HETATM    7  C   UNL     1       8.203  -3.184  24.531  1.00  0.00     0.209 C 
HETATM    8  N   UNL     1      10.107  -0.854  24.963  1.00  0.00    -0.348 N 
ATOM      9  HN  UNL     1      10.869  -0.310  25.367  1.00  0.00     0.163 HD
HETATM   10  N   UNL     1       8.676  -2.295  22.261  1.00  0.00    -0.314 N 
ATOM     11  HN  UNL     1       8.171  -2.026  21.416  1.00  0.00     0.166 HD
HETATM   12 CL   UNL     1       7.942  -4.634  25.335  1.00  0.00    -0.051 Cl
HETATM   13  O   UNL     1       8.200  -2.175  25.345  1.00  0.00    -0.316 OA
ENDROOT
BRANCH   6  14
HETATM   14  C   UNL     1       9.953  -0.474  21.424  1.00  0.00     0.206 C 
BRANCH  14  15
HETATM   15  N   UNL     1       8.691   0.088  21.309  1.00  0.00    -0.248 N 
BRANCH  15  16
HETATM   16  C   UNL     1       8.548   1.488  22.039  1.00  0.00     0.434 A 
HETATM   17  O   UNL     1       8.112   1.239  23.346  1.00  0.00    -0.141 OA
HETATM   18  O   UNL     1       7.332   1.722  22.403  1.00  0.00    -0.141 OA
BRANCH  16  19
HETATM   19  O   UNL     1       9.371   2.302  21.399  1.00  0.00    -0.321 OA
ATOM     20  HO  UNL     1       8.815   2.967  21.010  1.00  0.00     0.217 HD
ENDBRANCH  16  19
ENDBRANCH  15  16
BRANCH  15  21
HETATM   21  C   UNL     1       7.619   0.282  20.283  1.00  0.00     0.329 A 
HETATM   22  O   UNL     1       6.759  -0.427  19.978  1.00  0.00    -0.141 OA
HETATM   23  O   UNL     1       7.575   0.697  19.274  1.00  0.00    -0.141 OA
ENDBRANCH  15  21
ENDBRANCH  14  15
ENDBRANCH   6  14
TORSDOF 5
ENDMDL
MODEL 8
REMARK VINA RESULT:    -5.703      5.906      8.297
REMARK INTER + INTRA:          -7.786
REMARK INTER:                  -6.842
REMARK INTRA:                  -0.945
REMARK UNBOUND:                -0.583
REMARK  5 active torsions:
REMARK  status: ('A' for Active; 'I' for Inactive)
REMARK    1  A    between atoms: C_1  and  N_9 
REMARK    2  A    between atoms: C_1  and  O_4 
REMARK    3  A    between atoms: N_9  and  C_21 
REMARK    4  A    between atoms: N_9  and  C_12 
REMARK    5  A    between atoms: C_12  and  C_13 
ROOT
HETATM    1  C   UNL     1       8.245  -3.619  23.720  1.00  0.00     0.301 C 
HETATM    2  O   UNL     1       4.974  -2.747  24.944  1.00  0.00    -0.293 OA
HETATM    3  C   UNL     1       6.119  -3.176  24.853  1.00  0.00     0.178 A 
HETATM    4  O   UNL     1       4.669  -6.863  23.692  1.00  0.00    -0.264 OA
HETATM    5  C   UNL     1       5.388  -5.945  24.021  1.00  0.00     0.289 C 
HETATM    6  C   UNL     1       5.452  -4.027  25.478  1.00  0.00     0.226 A 
HETATM    7  C   UNL     1       6.478  -5.418  22.996  1.00  0.00     0.209 C 
HETATM    8  N   UNL     1       7.325  -2.829  24.346  1.00  0.00    -0.348 N 
ATOM      9  HN  UNL     1       7.580  -1.847  24.445  1.00  0.00     0.163 HD
HETATM   10  N   UNL     1       5.318  -5.414  25.191  1.00  0.00    -0.314 N 
ATOM     11  HN  UNL     1       5.154  -6.041  25.980  1.00  0.00     0.166 HD
HETATM   12 CL   UNL     1       6.240  -5.869  21.397  1.00  0.00    -0.051 Cl
HETATM   13  O   UNL     1       7.627  -4.842  23.168  1.00  0.00    -0.316 OA
ENDROOT
BRANCH   6  14
HETATM   14  C   UNL     1       5.305  -3.944  27.059  1.00  0.00     0.206 C 
BRANCH  14  15
HETATM   15  N   UNL     1       6.400  -4.614  27.583  1.00  0.00    -0.248 N 
BRANCH  15  16
HETATM   16  C   UNL     1       6.013  -5.833  28.520  1.00  0.00     0.434 A 
HETATM   17  O   UNL     1       5.577  -5.306  29.741  1.00  0.00    -0.141 OA
HETATM   18  O   UNL     1       6.749  -5.882  29.579  1.00  0.00    -0.141 OA
BRANCH  16  19
HETATM   19  O   UNL     1       5.714  -6.825  27.696  1.00  0.00    -0.321 OA
ATOM     20  HO  UNL     1       4.871  -7.150  27.990  1.00  0.00     0.217 HD
ENDBRANCH  16  19
ENDBRANCH  15  16
BRANCH  15  21
HETATM   21  C   UNL     1       7.748  -5.103  27.157  1.00  0.00     0.329 A 
HETATM   22  O   UNL     1       8.722  -4.507  26.977  1.00  0.00    -0.141 OA
HETATM   23  O   UNL     1       8.116  -5.835  26.435  1.00  0.00    -0.141 OA
ENDBRANCH  15  21
ENDBRANCH  14  15
ENDBRANCH   6  14
TORSDOF 5
ENDMDL
MODEL 9
REMARK VINA RESULT:    -5.511     22.957     24.726
REMARK INTER + INTRA:          -7.543
REMARK INTER:                  -6.908
REMARK INTRA:                  -0.635
REMARK UNBOUND:                -0.583
REMARK  5 active torsions:
REMARK  status: ('A' for Active; 'I' for Inactive)
REMARK    1  A    between atoms: C_1  and  N_9 
REMARK    2  A    between atoms: C_1  and  O_4 
REMARK    3  A    between atoms: N_9  and  C_21 
REMARK    4  A    between atoms: N_9  and  C_12 
REMARK    5  A    between atoms: C_12  and  C_13 
ROOT
HETATM    1  C   UNL     1       7.759  20.109   3.205  1.00  0.00     0.301 C 
HETATM    2  O   UNL     1       8.613  16.803   2.064  1.00  0.00    -0.293 OA
HETATM    3  C   UNL     1       8.227  17.749   2.740  1.00  0.00     0.178 A 
HETATM    4  O   UNL     1      11.980  18.104   4.425  1.00  0.00    -0.264 OA
HETATM    5  C   UNL     1      10.808  18.243   4.151  1.00  0.00     0.289 C 
HETATM    6  C   UNL     1       8.860  16.984   3.498  1.00  0.00     0.226 A 
HETATM    7  C   UNL     1      10.314  19.635   3.572  1.00  0.00     0.209 C 
HETATM    8  N   UNL     1       7.522  18.899   2.620  1.00  0.00    -0.348 N 
ATOM      9  HN  UNL     1       6.705  18.854   2.012  1.00  0.00     0.163 HD
HETATM   10  N   UNL     1       9.948  17.308   4.356  1.00  0.00    -0.314 N 
ATOM     11  HN  UNL     1      10.054  16.753   5.206  1.00  0.00     0.166 HD
HETATM   12 CL   UNL     1      11.521  20.632   2.967  1.00  0.00    -0.051 Cl
HETATM   13  O   UNL     1       9.170  20.243   3.625  1.00  0.00    -0.316 OA
ENDROOT
BRANCH   6  14
HETATM   14  C   UNL     1       8.127  15.785   4.241  1.00  0.00     0.206 C 
BRANCH  14  15
HETATM   15  N   UNL     1       9.024  14.727   4.245  1.00  0.00    -0.248 N 
BRANCH  15  16
HETATM   16  C   UNL     1       8.499  13.444   3.477  1.00  0.00     0.434 A 
HETATM   17  O   UNL     1       7.715  12.708   4.372  1.00  0.00    -0.141 OA
HETATM   18  O   UNL     1       8.929  12.351   4.011  1.00  0.00    -0.141 OA
BRANCH  16  19
HETATM   19  O   UNL     1       8.507  13.775   2.195  1.00  0.00    -0.321 OA
ATOM     20  HO  UNL     1       9.355  13.497   1.869  1.00  0.00     0.217 HD
ENDBRANCH  16  19
ENDBRANCH  15  16
BRANCH  15  21
HETATM   21  C   UNL     1      10.490  14.477   4.084  1.00  0.00     0.329 A 
HETATM   22  O   UNL     1      11.339  14.563   4.864  1.00  0.00    -0.141 OA
HETATM   23  O   UNL     1      11.236  14.691   3.316  1.00  0.00    -0.141 OA
ENDBRANCH  15  21
ENDBRANCH  14  15
ENDBRANCH   6  14
TORSDOF 5
ENDMDL
