stable:False satoms:10 tatoms:24 sratio:0.4166666666666667
  -OEChem-07092417383D

 24 24  0     0  0  0  0  0  0999 V2000
    6.4907   -4.8416   26.3707 Cl  0  0  0  0  0  0  0  0  0  0  0  0
    8.2659   -4.2738   25.9928 S   0  0  0  0  0  0  0  0  0  0  0  0
    9.0151   -5.4044   25.6835 O   0  0  0  0  0  0  0  0  0  0  0  0
    8.6077   -3.5110   27.0944 O   0  0  0  0  0  0  0  0  0  0  0  0
    8.0405   -3.4134   24.7459 N   0  0  0  0  0  0  0  0  0  0  0  0
    8.6476   -2.7787   24.1741 C   0  0  0  0  0  0  0  0  0  0  0  0
    9.0487   -1.8842   23.3026 C   0  0  0  0  0  0  0  0  0  0  0  0
   10.8447   -1.0454   23.3123 C   0  0  0  0  0  0  0  0  0  0  0  0
   10.9471   -0.7920   24.3503 H   0  0  0  0  0  0  0  0  0  0  0  0
   12.9169    0.2194   23.7231 O   0  0  0  0  0  0  0  0  0  0  0  0
   13.2439   -0.2660   24.4391 H   0  0  0  0  0  0  0  0  0  0  0  0
   12.9763   -0.6392   22.6962 N   0  0  0  0  0  0  0  0  0  0  0  0
   12.0168   -1.1824   22.7661 C   0  0  0  0  0  0  0  0  0  0  0  0
    9.6410   -1.0382   22.6495 C   0  0  0  0  0  0  0  0  0  0  0  0
    9.1197   -0.2237   21.4291 C   0  0  0  0  0  0  0  0  0  0  0  0
    9.7738    0.6278   20.9066 O   0  0  0  0  0  0  0  0  0  0  0  0
    7.8960   -0.6086   21.1159 N   0  0  0  0  0  0  0  0  0  0  0  0
    7.1381   -0.0564   20.1795 C   0  0  0  0  0  0  0  0  0  0  0  0
    7.2986    0.0528   18.8673 C   0  0  0  0  0  0  0  0  0  0  0  0
    6.4273    0.5001   18.1010 N   0  0  0  0  0  0  0  0  0  0  0  0
    5.5032    0.8545   18.9907 C   0  0  0  0  0  0  0  0  0  0  0  0
    4.6026    1.3880   18.7687 H   0  0  0  0  0  0  0  0  0  0  0  0
    5.8311    0.4631   20.3510 C   0  0  0  0  0  0  0  0  0  0  0  0
    5.2908    0.5632   21.2863 H   0  0  0  0  0  0  0  0  0  0  0  0
 19 20  1  0  0  0  0
 20 21  1  0  0  0  0
 21 22  1  0  0  0  0
 18 19  2  0  0  0  0
 21 23  2  0  0  0  0
 18 23  1  0  0  0  0
 17 18  1  0  0  0  0
 23 24  1  0  0  0  0
 15 16  2  0  0  0  0
 15 17  1  0  0  0  0
 14 15  1  0  0  0  0
  7 14  1  0  0  0  0
  8 14  2  3  0  0  0
 12 13  2  0  0  0  0
 10 12  1  0  0  0  0
  8 13  1  0  0  0  0
  6  7  3  0  0  0  0
  8  9  1  0  0  0  0
 10 11  1  0  0  0  0
  5  6  1  0  0  0  0
  2  5  1  0  0  0  0
  2  3  2  0  0  0  0
  1  2  1  0  0  0  0
  2  4  2  0  0  0  0
M  END
> <Shapegauss>
-239.255280

$$$$
