stable:False satoms:16 tatoms:24 sratio:0.6666666666666666
  -OEChem-07092417383D

 24 23  0     0  0  0  0  0  0999 V2000
    6.6455   -4.6212   26.3730 Cl  0  0  0  0  0  0  0  0  0  0  0  0
    8.4115   -3.8970   26.0583 S   0  0  0  0  0  0  0  0  0  0  0  0
    9.2071   -5.0248   25.6555 O   0  0  0  0  0  0  0  0  0  0  0  0
    8.8303   -3.2487   27.2671 O   0  0  0  0  0  0  0  0  0  0  0  0
    8.1881   -2.8495   24.8756 N   0  0  0  0  0  0  0  0  0  0  0  0
    9.6781   -3.3071   23.6238 H   0  0  0  0  0  0  0  0  0  0  0  0
    9.3814   -2.4469   24.2024 C   0  3  0  0  0  0  0  0  0  0  0  0
   10.0910   -1.3950   24.2009 C   0  0  0  0  0  0  0  0  0  0  0  0
   11.1718   -0.5636   24.0433 C   0  0  0  0  0  0  0  0  0  0  0  0
   11.4893    0.4273   24.7329 O   0  0  0  0  0  0  0  0  0  0  0  0
   12.9102   -0.3171   22.9457 H   0  0  0  0  0  0  0  0  0  0  0  0
   12.0773   -1.8920   22.5462 H   0  0  0  0  0  0  0  0  0  0  0  0
   12.0766   -0.9969   23.0663 C   0  5  0  0  0  0  0  0  0  0  0  0
    9.6751   -0.7425   22.2017 H   0  0  0  0  0  0  0  0  0  0  0  0
    9.1803   -0.0864   21.4336 C   0  0  0  0  0  0  0  0  0  0  0  0
    9.7901    0.8902   21.0631 O   0  0  0  0  0  0  0  0  0  0  0  0
    7.9723   -0.5429   21.1630 N   0  0  0  0  0  0  0  0  0  0  0  0
    7.1883   -0.0010   20.1960 C   0  0  0  0  0  0  0  0  0  0  0  0
    7.2946    0.2499   18.8977 O   0  0  0  0  0  0  0  0  0  0  0  0
    5.6494    0.0110   17.8580 H   0  0  0  0  0  0  0  0  0  0  0  0
    5.9865    0.6172   18.6987 C   0  0  0  0  0  0  0  0  0  0  0  0
    5.4728    1.5841   18.6590 H   0  0  0  0  0  0  0  0  0  0  0  0
    5.9532    0.3690   20.3769 C   0  0  0  0  0  0  0  0  0  0  0  0
    5.2631    0.4935   21.1582 H   0  0  0  0  0  0  0  0  0  0  0  0
 20 21  1  0  0  0  0
 21 22  1  0  0  0  0
 19 21  1  0  0  0  0
 21 23  1  0  0  0  0
 18 19  1  0  0  0  0
 18 23  2  0  0  0  0
 17 18  1  0  0  0  0
 23 24  1  0  0  0  0
 15 16  2  0  0  0  0
 15 17  1  0  0  0  0
 14 15  1  0  0  0  0
 12 13  1  0  0  0  0
 11 13  1  0  0  0  0
  9 13  1  0  0  0  0
  6  7  1  0  0  0  0
  8  9  1  0  0  0  0
  9 10  2  0  0  0  0
  7  8  1  0  0  0  0
  5  7  1  0  0  0  0
  2  5  1  0  0  0  0
  2  3  2  0  0  0  0
  1  2  1  0  0  0  0
  2  4  2  0  0  0  0
M  CHG  2   7   1  13  -1
M  END
> <Shapegauss>
-199.160889

$$$$
