stable:False satoms:20 tatoms:24 sratio:0.8333333333333334
  -OEChem-07092417283D

 24 26  0     0  0  0  0  0  0999 V2000
    9.3418   -1.7326   22.3653 C   0  0  0  0  0  0  0  0  0  0  0  0
   11.4809   -2.3994   22.0334 C   0  0  0  0  0  0  0  0  0  0  0  0
    4.6026   -2.4165   25.1957 O   0  0  0  0  0  0  0  0  0  0  0  0
   12.3912   -2.9741   22.0493 H   0  0  0  0  0  0  0  0  0  0  0  0
    7.3076   -2.9133   22.8834 C   0  0  0  0  0  0  0  0  0  0  0  0
    8.0054   -1.5974   22.6859 C   0  0  0  0  0  0  0  0  0  0  0  0
    8.3480    0.8074   22.2550 N   0  3  0  0  0  0  0  0  0  0  0  0
   10.1539   -0.6137   21.9743 C   0  0  0  0  0  0  0  0  0  0  0  0
   10.0696    2.9483   21.6207 O   0  0  0  0  0  0  0  0  0  0  0  0
    9.9581   -3.8537   22.5915 H   0  0  0  0  0  0  0  0  0  0  0  0
    5.7244   -0.8320   24.1596 N   0  0  0  0  0  0  0  0  0  0  0  0
    6.0070    0.2712   23.0323 S   0  0  0  0  0  0  0  0  0  0  0  0
   10.4717    1.8030   21.3357 C   0  0  0  0  0  0  0  0  0  0  0  0
    6.1469   -3.0427   23.6415 N   0  0  0  0  0  0  0  0  0  0  0  0
    5.4462   -2.0764   24.3783 C   0  0  0  0  0  0  0  0  0  0  0  0
    9.6592    0.6452   21.8705 C   0  0  0  0  0  0  0  0  0  0  0  0
    7.5659   -0.2201   22.6645 C   0  0  0  0  0  0  0  0  0  0  0  0
    7.7030   -3.9572   22.3730 O   0  0  0  0  0  0  0  0  0  0  0  0
   11.4730    1.4969   20.6518 O   0  5  0  0  0  0  0  0  0  0  0  0
    8.0773    1.7979   22.3191 H   0  0  0  0  0  0  0  0  0  0  0  0
   10.2179   -2.8495   22.3455 C   0  0  0  0  0  0  0  0  0  0  0  0
   12.1577   -0.4933   21.3600 H   0  0  0  0  0  0  0  0  0  0  0  0
    5.8250   -4.0065   23.7457 H   0  0  0  0  0  0  0  0  0  0  0  0
   11.4496   -1.0816   21.7647 N   0  0  0  0  0  0  0  0  0  0  0  0
 13 19  1  0  0  0  0
  9 13  2  0  0  0  0
 13 16  1  0  0  0  0
 22 24  1  0  0  0  0
  8 24  1  0  0  0  0
  2 24  1  0  0  0  0
  8 16  2  0  0  0  0
  7 16  1  0  0  0  0
  1  8  1  0  0  0  0
  2  4  1  0  0  0  0
  2 21  2  0  0  0  0
  7 20  1  0  0  0  0
  7 17  2  0  0  0  0
  1 21  1  0  0  0  0
 10 21  1  0  0  0  0
  1  6  2  0  0  0  0
  5 18  2  0  0  0  0
  6 17  1  0  0  0  0
 12 17  1  0  0  0  0
  5  6  1  0  0  0  0
  5 14  1  0  0  0  0
 11 12  1  0  0  0  0
 14 23  1  0  0  0  0
 14 15  1  0  0  0  0
 11 15  1  0  0  0  0
  3 15  2  0  0  0  0
M  CHG  2   7   1  19  -1
M  END
> <Shapegauss>
-127.098137

$$$$
