REMARK  1 active torsions:
REMARK  status: ('A' for Active; 'I' for Inactive)
REMARK    1  A    between atoms: C_12  and  CA_15 
ROOT
HETATM    1  C   UNL     1       9.342  -1.733  22.365  1.00  0.00     0.013 A 
HETATM    2  C   UNL     1      11.481  -2.399  22.033  1.00  0.00     0.089 A 
HETATM    3  O   UNL     1       4.603  -2.417  25.196  1.00  0.00    -0.246 OA
HETATM    4  C   UNL     1       7.308  -2.913  22.883  1.00  0.00     0.263 C 
HETATM    5  C   UNL     1       8.005  -1.597  22.686  1.00  0.00     0.080 A 
HETATM    6  N   UNL     1       8.348   0.807  22.255  1.00  0.00    -0.341 N 
HETATM    7  C   UNL     1      10.154  -0.614  21.974  1.00  0.00     0.077 A 
HETATM    8  N   UNL     1       5.724  -0.832  24.160  1.00  0.00    -0.277 N 
ATOM      9  HN  UNL     1       5.789  -0.368  25.066  1.00  0.00     0.179 HD
HETATM   10  S   UNL     1       6.007   0.271  23.032  1.00  0.00     0.009 SA
HETATM   11  N   UNL     1       6.147  -3.043  23.642  1.00  0.00    -0.274 N 
HETATM   12  C   UNL     1       5.446  -2.076  24.378  1.00  0.00     0.333 C 
HETATM   13  CA  UNL     1       9.659   0.645  21.870  1.00  0.00     0.138 A 
HETATM   14  C   UNL     1       7.566  -0.220  22.665  1.00  0.00     0.108 A 
HETATM   15  O   UNL     1       7.703  -3.957  22.373  1.00  0.00    -0.267 OA
HETATM   16  H   UNL     1       8.077   1.798  22.319  1.00  0.00     0.167 HD
HETATM   17  C   UNL     1      10.218  -2.849  22.346  1.00  0.00     0.032 A 
HETATM   18  H   UNL     1      12.158  -0.493  21.360  1.00  0.00     0.165 HD
HETATM   19  H   UNL     1       5.825  -4.006  23.746  1.00  0.00     0.173 HD
HETATM   20  N   UNL     1      11.450  -1.082  21.765  1.00  0.00    -0.363 N 
ENDROOT
BRANCH  13  21
HETATM   21  C   UNL     1      10.472   1.803  21.336  1.00  0.00     0.229 C 
HETATM   22  OXT UNL     1      10.070   2.948  21.621  1.00  0.00    -0.643 OA
HETATM   23  O   UNL     1      11.473   1.497  20.652  1.00  0.00    -0.643 OA
ENDBRANCH  13  21
TORSDOF 1
