MODEL 1
REMARK VINA RESULT:    -6.815      0.000      0.000
REMARK INTER + INTRA:          -7.531
REMARK INTER:                  -7.213
REMARK INTRA:                  -0.318
REMARK UNBOUND:                -0.318
REMARK  1 active torsions:
REMARK  status: ('A' for Active; 'I' for Inactive)
REMARK    1  A    between atoms: C_12  and  CA_15 
ROOT
HETATM    1  C   UNL     1       9.695   0.224  22.509  1.00  0.00     0.013 A 
HETATM    2  C   UNL     1       9.174  -1.953  22.162  1.00  0.00     0.089 A 
HETATM    3  O   UNL     1       7.896   5.328  23.793  1.00  0.00    -0.246 OA
HETATM    4  C   UNL     1       8.571   2.291  21.996  1.00  0.00     0.263 C 
HETATM    5  C   UNL     1       9.724   1.597  22.663  1.00  0.00     0.080 A 
HETATM    6  N   UNL     1      11.935   1.237  23.695  1.00  0.00    -0.341 N 
HETATM    7  C   UNL     1      10.783  -0.617  22.924  1.00  0.00     0.077 A 
HETATM    8  N   UNL     1       9.706   4.091  23.981  1.00  0.00    -0.277 N 
ATOM      9  HN  UNL     1       9.586   4.175  24.991  1.00  0.00     0.179 HD
HETATM   10  S   UNL     1      11.225   3.659  23.710  1.00  0.00     0.009 SA
HETATM   11  N   UNL     1       8.125   3.552  22.385  1.00  0.00    -0.274 N 
HETATM   12  C   UNL     1       8.571   4.376  23.429  1.00  0.00     0.333 C 
HETATM   13  CA  UNL     1      11.921  -0.121  23.471  1.00  0.00     0.138 A 
HETATM   14  C   UNL     1      10.910   2.053  23.352  1.00  0.00     0.108 A 
HETATM   15  O   UNL     1       7.958   1.803  21.052  1.00  0.00    -0.267 OA
HETATM   16  H   UNL     1      12.742   1.533  24.262  1.00  0.00     0.167 HD
HETATM   17  C   UNL     1       8.717  -0.665  21.994  1.00  0.00     0.032 A 
HETATM   18  H   UNL     1      11.082  -2.689  22.765  1.00  0.00     0.165 HD
HETATM   19  H   UNL     1       7.291   3.868  21.890  1.00  0.00     0.173 HD
HETATM   20  N   UNL     1      10.419  -1.939  22.671  1.00  0.00    -0.363 N 
ENDROOT
BRANCH  13  21
HETATM   21  C   UNL     1      13.121  -0.984  23.790  1.00  0.00     0.229 C 
HETATM   22  OXT UNL     1      13.307  -1.976  23.059  1.00  0.00    -0.643 OA
HETATM   23  O   UNL     1      13.811  -0.619  24.766  1.00  0.00    -0.643 OA
ENDBRANCH  13  21
TORSDOF 1
ENDMDL
MODEL 2
REMARK VINA RESULT:    -6.652      3.996      5.745
REMARK INTER + INTRA:          -7.359
REMARK INTER:                  -7.067
REMARK INTRA:                  -0.292
REMARK UNBOUND:                -0.318
REMARK  1 active torsions:
REMARK  status: ('A' for Active; 'I' for Inactive)
REMARK    1  A    between atoms: C_12  and  CA_15 
ROOT
HETATM    1  C   UNL     1       8.360  -3.014  25.141  1.00  0.00     0.013 A 
HETATM    2  C   UNL     1       7.447  -4.623  26.447  1.00  0.00     0.089 A 
HETATM    3  O   UNL     1      12.402   0.748  24.469  1.00  0.00    -0.246 OA
HETATM    4  C   UNL     1       9.428  -0.910  25.618  1.00  0.00     0.263 C 
HETATM    5  C   UNL     1       9.040  -1.942  24.598  1.00  0.00     0.080 A 
HETATM    6  N   UNL     1       8.524  -2.970  22.416  1.00  0.00    -0.341 N 
HETATM    7  C   UNL     1       7.755  -4.031  24.325  1.00  0.00     0.077 A 
HETATM    8  N   UNL     1      11.090  -0.539  23.258  1.00  0.00    -0.277 N 
ATOM      9  HN  UNL     1      11.940  -0.996  22.930  1.00  0.00     0.179 HD
HETATM   10  S   UNL     1       9.924  -0.880  22.212  1.00  0.00     0.009 SA
HETATM   11  N   UNL     1      10.481  -0.018  25.425  1.00  0.00    -0.274 N 
HETATM   12  C   UNL     1      11.380   0.085  24.353  1.00  0.00     0.333 C 
HETATM   13  CA  UNL     1       7.789  -3.993  22.969  1.00  0.00     0.138 A 
HETATM   14  C   UNL     1       9.139  -2.017  23.158  1.00  0.00     0.108 A 
HETATM   15  O   UNL     1       8.831  -0.770  26.682  1.00  0.00    -0.267 OA
HETATM   16  H   UNL     1       8.658  -3.086  21.402  1.00  0.00     0.167 HD
HETATM   17  C   UNL     1       8.101  -3.412  26.478  1.00  0.00     0.032 A 
HETATM   18  H   UNL     1       6.606  -5.716  24.822  1.00  0.00     0.165 HD
HETATM   19  H   UNL     1      10.673   0.578  26.231  1.00  0.00     0.173 HD
HETATM   20  N   UNL     1       7.194  -4.981  25.176  1.00  0.00    -0.363 N 
ENDROOT
BRANCH  13  21
HETATM   21  C   UNL     1       7.046  -4.986  22.104  1.00  0.00     0.229 C 
HETATM   22  OXT UNL     1       6.112  -4.537  21.411  1.00  0.00    -0.643 OA
HETATM   23  O   UNL     1       7.441  -6.171  22.170  1.00  0.00    -0.643 OA
ENDBRANCH  13  21
TORSDOF 1
ENDMDL
MODEL 3
REMARK VINA RESULT:    -6.455      6.936      8.484
REMARK INTER + INTRA:          -7.150
REMARK INTER:                  -6.823
REMARK INTRA:                  -0.327
REMARK UNBOUND:                -0.318
REMARK  1 active torsions:
REMARK  status: ('A' for Active; 'I' for Inactive)
REMARK    1  A    between atoms: C_12  and  CA_15 
ROOT
HETATM    1  C   UNL     1       5.515  -6.043  25.060  1.00  0.00     0.013 A 
HETATM    2  C   UNL     1       3.709  -7.370  25.386  1.00  0.00     0.089 A 
HETATM    3  O   UNL     1       7.839  -1.921  22.137  1.00  0.00    -0.246 OA
HETATM    4  C   UNL     1       6.568  -5.144  23.090  1.00  0.00     0.263 C 
HETATM    5  C   UNL     1       6.502  -5.199  24.589  1.00  0.00     0.080 A 
HETATM    6  N   UNL     1       7.180  -4.995  26.952  1.00  0.00    -0.341 N 
HETATM    7  C   UNL     1       5.386  -6.371  26.453  1.00  0.00     0.077 A 
HETATM    8  N   UNL     1       7.911  -2.792  24.156  1.00  0.00    -0.277 N 
ATOM      9  HN  UNL     1       7.570  -1.892  24.492  1.00  0.00     0.179 HD
HETATM   10  S   UNL     1       8.563  -3.558  25.404  1.00  0.00     0.009 SA
HETATM   11  N   UNL     1       7.118  -4.066  22.400  1.00  0.00    -0.274 N 
HETATM   12  C   UNL     1       7.645  -2.863  22.892  1.00  0.00     0.333 C 
HETATM   13  CA  UNL     1       6.237  -5.893  27.396  1.00  0.00     0.138 A 
HETATM   14  C   UNL     1       7.304  -4.636  25.652  1.00  0.00     0.108 A 
HETATM   15  O   UNL     1       6.160  -6.053  22.373  1.00  0.00    -0.267 OA
HETATM   16  H   UNL     1       7.682  -4.538  27.726  1.00  0.00     0.167 HD
HETATM   17  C   UNL     1       4.455  -6.735  24.419  1.00  0.00     0.032 A 
HETATM   18  H   UNL     1       4.072  -7.656  27.467  1.00  0.00     0.165 HD
HETATM   19  H   UNL     1       7.030  -4.135  21.385  1.00  0.00     0.173 HD
HETATM   20  N   UNL     1       4.275  -7.200  26.593  1.00  0.00    -0.363 N 
ENDROOT
BRANCH  13  21
HETATM   21  C   UNL     1       6.187  -6.333  28.842  1.00  0.00     0.229 C 
HETATM   22  OXT UNL     1       6.329  -5.443  29.703  1.00  0.00    -0.643 OA
HETATM   23  O   UNL     1       6.013  -7.556  29.034  1.00  0.00    -0.643 OA
ENDBRANCH  13  21
TORSDOF 1
ENDMDL
MODEL 4
REMARK VINA RESULT:    -6.415      8.904     10.767
REMARK INTER + INTRA:          -7.108
REMARK INTER:                  -6.787
REMARK INTRA:                  -0.321
REMARK UNBOUND:                -0.318
REMARK  1 active torsions:
REMARK  status: ('A' for Active; 'I' for Inactive)
REMARK    1  A    between atoms: C_12  and  CA_15 
ROOT
HETATM    1  C   UNL     1       5.238  -5.853  24.851  1.00  0.00     0.013 A 
HETATM    2  C   UNL     1       7.304  -4.939  24.703  1.00  0.00     0.089 A 
HETATM    3  O   UNL     1       1.140  -8.619  22.302  1.00  0.00    -0.246 OA
HETATM    4  C   UNL     1       3.387  -6.006  23.318  1.00  0.00     0.263 C 
HETATM    5  C   UNL     1       3.979  -6.385  24.645  1.00  0.00     0.080 A 
HETATM    6  N   UNL     1       4.133  -7.147  26.986  1.00  0.00    -0.341 N 
HETATM    7  C   UNL     1       5.915  -5.953  26.114  1.00  0.00     0.077 A 
HETATM    8  N   UNL     1       1.981  -8.349  24.317  1.00  0.00    -0.277 N 
ATOM      9  HN  UNL     1       2.193  -9.347  24.298  1.00  0.00     0.179 HD
HETATM   10  S   UNL     1       2.002  -7.882  25.850  1.00  0.00     0.009 SA
HETATM   11  N   UNL     1       2.394  -6.758  22.695  1.00  0.00    -0.274 N 
HETATM   12  C   UNL     1       1.801  -7.965  23.096  1.00  0.00     0.333 C 
HETATM   13  CA  UNL     1       5.356  -6.552  27.196  1.00  0.00     0.138 A 
HETATM   14  C   UNL     1       3.485  -7.105  25.797  1.00  0.00     0.108 A 
HETATM   15  O   UNL     1       3.725  -4.999  22.703  1.00  0.00    -0.267 OA
HETATM   16  H   UNL     1       3.837  -7.727  27.783  1.00  0.00     0.167 HD
HETATM   17  C   UNL     1       6.142  -5.165  24.001  1.00  0.00     0.032 A 
HETATM   18  H   UNL     1       7.763  -5.202  26.768  1.00  0.00     0.165 HD
HETATM   19  H   UNL     1       2.138  -6.419  21.766  1.00  0.00     0.173 HD
HETATM   20  N   UNL     1       7.168  -5.360  25.972  1.00  0.00    -0.363 N 
ENDROOT
BRANCH  13  21
HETATM   21  C   UNL     1       6.006  -6.547  28.561  1.00  0.00     0.229 C 
HETATM   22  OXT UNL     1       6.401  -5.445  28.990  1.00  0.00    -0.643 OA
HETATM   23  O   UNL     1       6.088  -7.658  29.130  1.00  0.00    -0.643 OA
ENDBRANCH  13  21
TORSDOF 1
ENDMDL
MODEL 5
REMARK VINA RESULT:    -6.334      2.890      4.648
REMARK INTER + INTRA:          -7.022
REMARK INTER:                  -6.708
REMARK INTRA:                  -0.315
REMARK UNBOUND:                -0.318
REMARK  1 active torsions:
REMARK  status: ('A' for Active; 'I' for Inactive)
REMARK    1  A    between atoms: C_12  and  CA_15 
ROOT
HETATM    1  C   UNL     1       9.197   0.305  22.977  1.00  0.00     0.013 A 
HETATM    2  C   UNL     1      10.076   2.339  22.506  1.00  0.00     0.089 A 
HETATM    3  O   UNL     1       5.298  -3.496  21.840  1.00  0.00    -0.246 OA
HETATM    4  C   UNL     1       6.944  -0.541  23.054  1.00  0.00     0.263 C 
HETATM    5  C   UNL     1       8.417  -0.824  23.136  1.00  0.00     0.080 A 
HETATM    6  N   UNL     1      10.534  -1.973  23.665  1.00  0.00    -0.341 N 
HETATM    7  C   UNL     1      10.619   0.290  23.183  1.00  0.00     0.077 A 
HETATM    8  N   UNL     1       7.362  -3.384  22.594  1.00  0.00    -0.277 N 
ATOM      9  HN  UNL     1       7.629  -3.922  21.770  1.00  0.00     0.179 HD
HETATM   10  S   UNL     1       8.545  -3.526  23.666  1.00  0.00     0.009 SA
HETATM   11  N   UNL     1       6.008  -1.517  22.718  1.00  0.00    -0.274 N 
HETATM   12  C   UNL     1       6.204  -2.859  22.359  1.00  0.00     0.333 C 
HETATM   13  CA  UNL     1      11.287  -0.825  23.571  1.00  0.00     0.138 A 
HETATM   14  C   UNL     1       9.199  -2.001  23.440  1.00  0.00     0.108 A 
HETATM   15  O   UNL     1       6.465   0.563  23.296  1.00  0.00    -0.267 OA
HETATM   16  H   UNL     1      11.114  -2.813  23.795  1.00  0.00     0.167 HD
HETATM   17  C   UNL     1       8.894   1.637  22.590  1.00  0.00     0.032 A 
HETATM   18  H   UNL     1      12.056   1.818  23.100  1.00  0.00     0.165 HD
HETATM   19  H   UNL     1       5.054  -1.164  22.632  1.00  0.00     0.173 HD
HETATM   20  N   UNL     1      11.103   1.566  22.899  1.00  0.00    -0.363 N 
ENDROOT
BRANCH  13  21
HETATM   21  C   UNL     1      12.760  -0.819  23.915  1.00  0.00     0.229 C 
HETATM   22  OXT UNL     1      13.135   0.023  24.755  1.00  0.00    -0.643 OA
HETATM   23  O   UNL     1      13.463  -1.661  23.317  1.00  0.00    -0.643 OA
ENDBRANCH  13  21
TORSDOF 1
ENDMDL
MODEL 6
REMARK VINA RESULT:    -6.327      8.353     10.376
REMARK INTER + INTRA:          -7.015
REMARK INTER:                  -6.699
REMARK INTRA:                  -0.316
REMARK UNBOUND:                -0.318
REMARK  1 active torsions:
REMARK  status: ('A' for Active; 'I' for Inactive)
REMARK    1  A    between atoms: C_12  and  CA_15 
ROOT
HETATM    1  C   UNL     1       4.159  -6.793  25.546  1.00  0.00     0.013 A 
HETATM    2  C   UNL     1       2.623  -7.627  24.106  1.00  0.00     0.089 A 
HETATM    3  O   UNL     1       6.947  -7.431  30.317  1.00  0.00    -0.246 OA
HETATM    4  C   UNL     1       4.327  -6.770  27.948  1.00  0.00     0.263 C 
HETATM    5  C   UNL     1       4.960  -6.460  26.622  1.00  0.00     0.080 A 
HETATM    6  N   UNL     1       6.454  -5.444  24.943  1.00  0.00    -0.341 N 
HETATM    7  C   UNL     1       4.498  -6.432  24.197  1.00  0.00     0.077 A 
HETATM    8  N   UNL     1       7.198  -6.500  28.339  1.00  0.00    -0.277 N 
ATOM      9  HN  UNL     1       7.981  -7.140  28.203  1.00  0.00     0.179 HD
HETATM   10  S   UNL     1       7.370  -5.299  27.291  1.00  0.00     0.009 SA
HETATM   11  N   UNL     1       5.072  -6.969  29.109  1.00  0.00    -0.274 N 
HETATM   12  C   UNL     1       6.463  -6.979  29.289  1.00  0.00     0.333 C 
HETATM   13  CA  UNL     1       5.612  -5.721  23.891  1.00  0.00     0.138 A 
HETATM   14  C   UNL     1       6.184  -5.803  26.221  1.00  0.00     0.108 A 
HETATM   15  O   UNL     1       3.112  -6.849  28.102  1.00  0.00    -0.267 OA
HETATM   16  H   UNL     1       7.357  -5.057  24.633  1.00  0.00     0.167 HD
HETATM   17  C   UNL     1       2.941  -7.512  25.441  1.00  0.00     0.032 A 
HETATM   18  H   UNL     1       3.481  -6.711  22.382  1.00  0.00     0.165 HD
HETATM   19  H   UNL     1       4.513  -7.241  29.918  1.00  0.00     0.173 HD
HETATM   20  N   UNL     1       3.514  -6.952  23.358  1.00  0.00    -0.363 N 
ENDROOT
BRANCH  13  21
HETATM   21  C   UNL     1       5.909  -5.226  22.493  1.00  0.00     0.229 C 
HETATM   22  OXT UNL     1       7.025  -5.519  22.021  1.00  0.00    -0.643 OA
HETATM   23  O   UNL     1       5.001  -4.564  21.944  1.00  0.00    -0.643 OA
ENDBRANCH  13  21
TORSDOF 1
ENDMDL
MODEL 7
REMARK VINA RESULT:    -6.297      3.782      6.475
REMARK INTER + INTRA:          -6.983
REMARK INTER:                  -6.658
REMARK INTRA:                  -0.326
REMARK UNBOUND:                -0.318
REMARK  1 active torsions:
REMARK  status: ('A' for Active; 'I' for Inactive)
REMARK    1  A    between atoms: C_12  and  CA_15 
ROOT
HETATM    1  C   UNL     1       6.613   0.859  19.969  1.00  0.00     0.013 A 
HETATM    2  C   UNL     1       5.816  -0.067  18.062  1.00  0.00     0.089 A 
HETATM    3  O   UNL     1      11.023   2.769  22.770  1.00  0.00    -0.246 OA
HETATM    4  C   UNL     1       8.645   0.561  21.225  1.00  0.00     0.263 C 
HETATM    5  C   UNL     1       7.357   1.312  21.041  1.00  0.00     0.080 A 
HETATM    6  N   UNL     1       5.404   2.729  21.548  1.00  0.00    -0.341 N 
HETATM    7  C   UNL     1       5.277   1.323  19.713  1.00  0.00     0.077 A 
HETATM    8  N   UNL     1       8.852   3.101  22.630  1.00  0.00    -0.277 N 
ATOM      9  HN  UNL     1       9.077   4.048  22.323  1.00  0.00     0.179 HD
HETATM   10  S   UNL     1       7.331   3.106  23.134  1.00  0.00     0.009 SA
HETATM   11  N   UNL     1       9.742   1.101  21.894  1.00  0.00    -0.274 N 
HETATM   12  C   UNL     1       9.908   2.375  22.458  1.00  0.00     0.333 C 
HETATM   13  CA  UNL     1       4.649   2.217  20.518  1.00  0.00     0.138 A 
HETATM   14  C   UNL     1       6.678   2.342  21.794  1.00  0.00     0.108 A 
HETATM   15  O   UNL     1       8.811  -0.584  20.815  1.00  0.00    -0.267 OA
HETATM   16  H   UNL     1       4.942   3.520  22.018  1.00  0.00     0.167 HD
HETATM   17  C   UNL     1       6.894  -0.053  18.919  1.00  0.00     0.032 A 
HETATM   18  H   UNL     1       3.873   0.790  18.246  1.00  0.00     0.165 HD
HETATM   19  H   UNL     1      10.571   0.505  21.880  1.00  0.00     0.173 HD
HETATM   20  N   UNL     1       4.831   0.710  18.544  1.00  0.00    -0.363 N 
ENDROOT
BRANCH  13  21
HETATM   21  C   UNL     1       3.201   2.612  20.330  1.00  0.00     0.229 C 
HETATM   22  OXT UNL     1       2.484   2.612  21.350  1.00  0.00    -0.643 OA
HETATM   23  O   UNL     1       2.861   2.898  19.162  1.00  0.00    -0.643 OA
ENDBRANCH  13  21
TORSDOF 1
ENDMDL
MODEL 8
REMARK VINA RESULT:    -6.273      4.162      7.163
REMARK INTER + INTRA:          -6.958
REMARK INTER:                  -6.709
REMARK INTRA:                  -0.249
REMARK UNBOUND:                -0.318
REMARK  1 active torsions:
REMARK  status: ('A' for Active; 'I' for Inactive)
REMARK    1  A    between atoms: C_12  and  CA_15 
ROOT
HETATM    1  C   UNL     1       7.942  -0.885  21.988  1.00  0.00     0.013 A 
HETATM    2  C   UNL     1       8.755   1.209  21.696  1.00  0.00     0.089 A 
HETATM    3  O   UNL     1       6.934  -5.076  25.503  1.00  0.00    -0.246 OA
HETATM    4  C   UNL     1       8.626  -2.745  23.356  1.00  0.00     0.263 C 
HETATM    5  C   UNL     1       7.618  -2.160  22.409  1.00  0.00     0.080 A 
HETATM    6  N   UNL     1       5.780  -2.022  20.770  1.00  0.00    -0.341 N 
HETATM    7  C   UNL     1       7.205  -0.207  20.958  1.00  0.00     0.077 A 
HETATM    8  N   UNL     1       6.134  -4.220  23.640  1.00  0.00    -0.277 N 
ATOM      9  HN  UNL     1       5.276  -4.040  24.161  1.00  0.00     0.179 HD
HETATM   10  S   UNL     1       5.768  -4.179  22.080  1.00  0.00     0.009 SA
HETATM   11  N   UNL     1       8.314  -3.763  24.253  1.00  0.00    -0.274 N 
HETATM   12  C   UNL     1       7.084  -4.392  24.500  1.00  0.00     0.333 C 
HETATM   13  CA  UNL     1       6.159  -0.780  20.312  1.00  0.00     0.138 A 
HETATM   14  C   UNL     1       6.429  -2.672  21.764  1.00  0.00     0.108 A 
HETATM   15  O   UNL     1       9.797  -2.378  23.389  1.00  0.00    -0.267 OA
HETATM   16  H   UNL     1       4.886  -2.333  20.366  1.00  0.00     0.167 HD
HETATM   17  C   UNL     1       8.941   0.037  22.395  1.00  0.00     0.032 A 
HETATM   18  H   UNL     1       7.480   1.666  20.050  1.00  0.00     0.165 HD
HETATM   19  H   UNL     1       9.079  -4.012  24.882  1.00  0.00     0.173 HD
HETATM   20  N   UNL     1       7.757   1.064  20.807  1.00  0.00    -0.363 N 
ENDROOT
BRANCH  13  21
HETATM   21  C   UNL     1       5.461  -0.126  19.141  1.00  0.00     0.229 C 
HETATM   22  OXT UNL     1       5.689  -0.607  18.013  1.00  0.00    -0.643 OA
HETATM   23  O   UNL     1       4.721   0.843  19.419  1.00  0.00    -0.643 OA
ENDBRANCH  13  21
TORSDOF 1
ENDMDL
MODEL 9
REMARK VINA RESULT:    -6.155      8.166     10.203
REMARK INTER + INTRA:          -6.833
REMARK INTER:                  -6.540
REMARK INTRA:                  -0.292
REMARK UNBOUND:                -0.318
REMARK  1 active torsions:
REMARK  status: ('A' for Active; 'I' for Inactive)
REMARK    1  A    between atoms: C_12  and  CA_15 
ROOT
HETATM    1  C   UNL     1       6.365  -5.662  25.780  1.00  0.00     0.013 A 
HETATM    2  C   UNL     1       8.253  -4.413  25.726  1.00  0.00     0.089 A 
HETATM    3  O   UNL     1       1.726  -7.033  28.526  1.00  0.00    -0.246 OA
HETATM    4  C   UNL     1       5.175  -6.778  27.552  1.00  0.00     0.263 C 
HETATM    5  C   UNL     1       5.227  -6.374  26.106  1.00  0.00     0.080 A 
HETATM    6  N   UNL     1       4.753  -6.344  23.686  1.00  0.00    -0.341 N 
HETATM    7  C   UNL     1       6.695  -5.323  24.424  1.00  0.00     0.077 A 
HETATM    8  N   UNL     1       2.480  -6.913  26.462  1.00  0.00    -0.277 N 
ATOM      9  HN  UNL     1       1.760  -6.209  26.303  1.00  0.00     0.179 HD
HETATM   10  S   UNL     1       2.936  -7.468  25.030  1.00  0.00     0.009 SA
HETATM   11  N   UNL     1       3.982  -7.066  28.211  1.00  0.00    -0.274 N 
HETATM   12  C   UNL     1       2.662  -7.003  27.740  1.00  0.00     0.333 C 
HETATM   13  CA  UNL     1       5.926  -5.697  23.371  1.00  0.00     0.138 A 
HETATM   14  C   UNL     1       4.394  -6.646  24.956  1.00  0.00     0.108 A 
HETATM   15  O   UNL     1       6.182  -6.899  28.244  1.00  0.00    -0.267 OA
HETATM   16  H   UNL     1       4.133  -6.452  22.871  1.00  0.00     0.167 HD
HETATM   17  C   UNL     1       7.405  -5.100  26.565  1.00  0.00     0.032 A 
HETATM   18  H   UNL     1       8.355  -4.337  23.598  1.00  0.00     0.165 HD
HETATM   19  H   UNL     1       4.094  -7.256  29.207  1.00  0.00     0.173 HD
HETATM   20  N   UNL     1       7.870  -4.573  24.447  1.00  0.00    -0.363 N 
ENDROOT
BRANCH  13  21
HETATM   21  C   UNL     1       6.332  -5.456  21.934  1.00  0.00     0.229 C 
HETATM   22  OXT UNL     1       7.402  -5.974  21.560  1.00  0.00    -0.643 OA
HETATM   23  O   UNL     1       5.550  -4.752  21.258  1.00  0.00    -0.643 OA
ENDBRANCH  13  21
TORSDOF 1
ENDMDL
