stable:False satoms:23 tatoms:24 sratio:0.9583333333333334
  -OEChem-07092417293D

 24 25  0     1  0  0  0  0  0999 V2000
   11.1381   -1.1153   20.6337 H   0  0  0  0  0  0  0  0  0  0  0  0
   11.7360    0.2048   22.6582 O   0  0  0  0  0  0  0  0  0  0  0  0
    9.7622    0.3319   24.1395 H   0  0  0  0  0  0  0  0  0  0  0  0
    9.4212    1.4078   22.5343 H   0  0  0  0  0  0  0  0  0  0  0  0
   10.9743   -2.2344   22.0170 H   0  0  0  0  0  0  0  0  0  0  0  0
    7.3904   -1.1998   23.1257 C   0  0  2  0  0  0  0  0  0  0  0  0
    8.0317   -2.1457   24.1201 C   0  0  0  0  0  0  0  0  0  0  0  0
    6.6352   -2.3206   21.3939 H   0  0  0  0  0  0  0  0  0  0  0  0
    7.7586   -1.8472   25.1245 H   0  0  0  0  0  0  0  0  0  0  0  0
    7.2802   -0.7886   21.0210 H   0  0  0  0  0  0  0  0  0  0  0  0
    9.4018    0.4488   23.0882 C   0  0  0  0  0  0  0  0  0  0  0  0
    9.1415   -1.8186   20.9460 C   0  0  1  0  0  0  0  0  0  0  0  0
    7.5270   -1.6959   21.6168 C   0  0  0  0  0  0  0  0  0  0  0  0
    8.6692   -3.5808   22.0457 H   0  0  0  0  0  0  0  0  0  0  0  0
    7.3295    0.8900   22.6171 H   0  0  0  0  0  0  0  0  0  0  0  0
    6.3143   -1.2008   23.3075 H   0  0  0  0  0  0  0  0  0  0  0  0
   10.6175   -0.2238   22.4187 C   0  0  0  0  0  0  0  0  0  0  0  0
    7.6951   -3.1829   23.9953 H   0  0  0  0  0  0  0  0  0  0  0  0
   10.5183   -1.3812   21.4924 C   0  0  0  0  0  0  0  0  0  0  0  0
    7.6231    0.5644   24.3045 H   0  0  0  0  0  0  0  0  0  0  0  0
    9.1278   -2.1290   24.0161 H   0  0  0  0  0  0  0  0  0  0  0  0
    7.8750    0.2270   23.2916 C   0  0  0  0  0  0  0  0  0  0  0  0
    9.0972   -1.7225   19.8660 H   0  0  0  0  0  0  0  0  0  0  0  0
    8.5186   -2.7777   21.5228 N   0  0  0  0  0  0  0  0  0  0  0  0
 12 23  1  0  0  0  0
  1 19  1  0  0  0  0
 12 19  1  0  0  0  0
 12 24  1  0  0  0  0
 12 13  1  0  0  0  0
 10 13  1  0  0  0  0
  8 13  1  0  0  0  0
  5 19  1  0  0  0  0
 17 19  1  0  0  0  0
 13 24  1  0  0  0  0
 14 24  1  0  0  0  0
  6 13  1  0  0  0  0
  2 17  2  0  0  0  0
 11 17  1  0  0  0  0
  4 11  1  0  0  0  0
 15 22  1  0  0  0  0
 11 22  1  0  0  0  0
  3 11  1  0  0  0  0
  6 22  1  0  0  0  0
  6 16  1  0  0  0  0
  6  7  1  0  0  0  0
 20 22  1  0  0  0  0
  7 18  1  0  0  0  0
  7 21  1  0  0  0  0
  7  9  1  0  0  0  0
M  END
> <Shapegauss>
-77.717651

$$$$
