stable:False satoms:23 tatoms:24 sratio:0.9583333333333334
  -OEChem-08052414523D

 25 26  0     1  0  0  0  0  0999 V2000
  -10.5467   -0.4360  -20.6295 H   0  0  0  0  0  0  0  0  0  0  0  0
  -10.3370   -2.2512  -22.3206 O   0  0  0  0  0  0  0  0  0  0  0  0
  -10.5008   -1.2609  -24.5786 H   0  0  0  0  0  0  0  0  0  0  0  0
  -12.2568   -1.1531  -23.7096 H   0  0  0  0  0  0  0  0  0  0  0  0
   -9.0682   -0.0699  -21.5637 H   0  0  0  0  0  0  0  0  0  0  0  0
  -10.7624    1.7276  -24.5709 C   0  0  2  0  0  0  0  0  0  0  0  0
   -9.2859    1.4960  -24.8180 C   0  0  0  0  0  0  0  0  0  0  0  0
  -11.0459    3.4607  -23.2511 H   0  0  0  0  0  0  0  0  0  0  0  0
   -9.1343    1.2350  -25.8579 H   0  0  0  0  0  0  0  0  0  0  0  0
  -12.1561    2.1922  -23.0048 H   0  0  0  0  0  0  0  0  0  0  0  0
  -11.2508   -0.7454  -23.9301 C   0  0  0  0  0  0  0  0  0  0  0  0
  -10.6494    1.3970  -21.7286 C   0  0  1  0  0  0  0  0  0  0  0  0
  -11.0629    2.3553  -23.1366 C   0  0  0  0  0  0  0  0  0  0  0  0
   -9.6485    3.0647  -21.7328 H   0  0  0  0  0  0  0  0  0  0  0  0
  -12.6538    0.7122  -24.7163 H   0  0  0  0  0  0  0  0  0  0  0  0
  -11.1038    2.4924  -25.2705 H   0  0  0  0  0  0  0  0  0  0  0  0
  -10.5709   -1.0824  -22.5874 C   0  0  0  0  0  0  0  0  0  0  0  0
   -8.6790    2.3897  -24.6240 H   0  0  0  0  0  0  0  0  0  0  0  0
  -10.1685   -0.0636  -21.5837 C   0  0  0  0  0  0  0  0  0  0  0  0
  -11.4573    0.1813  -25.8679 H   0  0  0  0  0  0  0  0  0  0  0  0
   -8.9104    0.6840  -24.1760 H   0  0  0  0  0  0  0  0  0  0  0  0
  -11.5914    0.4835  -24.8220 C   0  0  0  0  0  0  0  0  0  0  0  0
  -11.2708    1.6927  -20.8895 H   0  0  0  0  0  0  0  0  0  0  0  0
   -9.8740    2.2565  -22.2768 N   0  3  0  0  0  0  0  0  0  0  0  0
   -9.0431    1.8996  -22.7036 H   0  0  0  0  0  0  0  0  0  0  0  0
 12 23  1  0  0  0  0
  1 19  1  0  0  0  0
 12 19  1  0  0  0  0
 12 24  1  0  0  0  0
 12 13  1  0  0  0  0
 10 13  1  0  0  0  0
  8 13  1  0  0  0  0
  5 19  1  0  0  0  0
 17 19  1  0  0  0  0
 13 24  1  0  0  0  0
 14 24  1  0  0  0  0
  6 13  1  0  0  0  0
  2 17  2  0  0  0  0
 11 17  1  0  0  0  0
  4 11  1  0  0  0  0
 15 22  1  0  0  0  0
 11 22  1  0  0  0  0
  3 11  1  0  0  0  0
  6 22  1  0  0  0  0
  6 16  1  0  0  0  0
  6  7  1  0  0  0  0
 20 22  1  0  0  0  0
  7 18  1  0  0  0  0
  7 21  1  0  0  0  0
  7  9  1  0  0  0  0
 24 25  1  0  0  0  0
M  CHG  1  24   1
M  END
> <Chemgauss4>
-5.902467

$$$$
