stable:False satoms:23 tatoms:24 sratio:0.9583333333333334
  -OEChem-08052414523D

 25 26  0     1  0  0  0  0  0999 V2000
    8.2910   -1.6404   24.8615 H   0  0  0  0  0  0  0  0  0  0  0  0
    9.3157   -2.8896   22.9673 O   0  0  0  0  0  0  0  0  0  0  0  0
   11.2609   -1.6158   22.1307 H   0  0  0  0  0  0  0  0  0  0  0  0
    9.6202   -0.6412   21.6739 H   0  0  0  0  0  0  0  0  0  0  0  0
    9.9438   -2.0666   25.3899 H   0  0  0  0  0  0  0  0  0  0  0  0
   11.8302    0.8826   23.6906 C   0  0  2  0  0  0  0  0  0  0  0  0
   12.7909   -0.1330   24.2741 C   0  0  0  0  0  0  0  0  0  0  0  0
   11.0403    2.1771   25.2799 H   0  0  0  0  0  0  0  0  0  0  0  0
   13.6398   -0.2438   23.6111 H   0  0  0  0  0  0  0  0  0  0  0  0
    9.9219    1.7984   24.0520 H   0  0  0  0  0  0  0  0  0  0  0  0
   10.4526   -0.8804   22.3644 C   0  0  0  0  0  0  0  0  0  0  0  0
    9.5509    0.0531   25.2127 C   0  0  1  0  0  0  0  0  0  0  0  0
   10.6731    1.2998   24.7048 C   0  0  0  0  0  0  0  0  0  0  0  0
   10.5121    0.7672   26.7456 H   0  0  0  0  0  0  0  0  0  0  0  0
   10.6509    1.2361   21.9260 H   0  0  0  0  0  0  0  0  0  0  0  0
   12.3819    1.8094   23.5240 H   0  0  0  0  0  0  0  0  0  0  0  0
    9.6801   -1.7865   23.3446 C   0  0  0  0  0  0  0  0  0  0  0  0
   13.1890    0.1730   25.2501 H   0  0  0  0  0  0  0  0  0  0  0  0
    9.3503   -1.4041   24.7419 C   0  0  0  0  0  0  0  0  0  0  0  0
   12.1038    0.3122   21.6520 H   0  0  0  0  0  0  0  0  0  0  0  0
   12.2925   -1.1067   24.4002 H   0  0  0  0  0  0  0  0  0  0  0  0
   11.2697    0.4439   22.3521 C   0  0  0  0  0  0  0  0  0  0  0  0
    8.6093    0.5059   25.5061 H   0  0  0  0  0  0  0  0  0  0  0  0
   10.6250    0.3635   25.8377 N   0  3  0  0  0  0  0  0  0  0  0  0
   11.3400   -0.3349   25.8699 H   0  0  0  0  0  0  0  0  0  0  0  0
 12 23  1  0  0  0  0
  1 19  1  0  0  0  0
 12 19  1  0  0  0  0
 12 24  1  0  0  0  0
 12 13  1  0  0  0  0
 10 13  1  0  0  0  0
  8 13  1  0  0  0  0
  5 19  1  0  0  0  0
 17 19  1  0  0  0  0
 13 24  1  0  0  0  0
 14 24  1  0  0  0  0
  6 13  1  0  0  0  0
  2 17  2  0  0  0  0
 11 17  1  0  0  0  0
  4 11  1  0  0  0  0
 15 22  1  0  0  0  0
 11 22  1  0  0  0  0
  3 11  1  0  0  0  0
  6 22  1  0  0  0  0
  6 16  1  0  0  0  0
  6  7  1  0  0  0  0
 20 22  1  0  0  0  0
  7 18  1  0  0  0  0
  7 21  1  0  0  0  0
  7  9  1  0  0  0  0
 24 25  1  0  0  0  0
M  CHG  1  24   1
M  END
> <Chemgauss4>
-5.850294

$$$$
