stable:False satoms:20 tatoms:24 sratio:0.8333333333333334
  -OEChem-07092417373D

 24 24  0     0  0  0  0  0  0999 V2000
    7.8389   -4.3545   26.0922 O   0  5  0  0  0  0  0  0  0  0  0  0
    8.8247   -4.0915   23.8296 H   0  0  0  0  0  0  0  0  0  0  0  0
   10.2104   -4.6614   24.8126 H   0  0  0  0  0  0  0  0  0  0  0  0
    9.2300   -2.7186   26.5675 O   0  0  0  0  0  0  0  0  0  0  0  0
    8.7867   -3.5848   25.8231 C   0  0  0  0  0  0  0  0  0  0  0  0
    9.5964   -3.8010   24.5286 C   0  0  0  0  0  0  0  0  0  0  0  0
    9.1699   -1.3773   24.0697 H   0  0  0  0  0  0  0  0  0  0  0  0
   10.2301   -1.5083   23.8439 C   0  0  0  0  0  0  0  0  0  0  0  0
    9.5102    0.7095   23.0931 H   0  0  0  0  0  0  0  0  0  0  0  0
   10.8118   -0.9102   24.5456 H   0  0  0  0  0  0  0  0  0  0  0  0
    9.8582    0.2190   22.2056 C   0  0  0  0  0  0  0  0  0  0  0  0
   11.6490   -1.0239   22.3093 H   0  0  0  0  0  0  0  0  0  0  0  0
   10.5450   -2.8759   23.8966 O   0  0  0  0  0  0  0  0  0  0  0  0
   10.5656   -1.0465   22.4417 C   0  0  0  0  0  0  0  0  0  0  0  0
   10.1917   -1.7546   21.6997 H   0  0  0  0  0  0  0  0  0  0  0  0
   10.2766    0.9056   21.5060 H   0  0  0  0  0  0  0  0  0  0  0  0
    8.3065   -0.4270   21.2683 S   0  0  0  0  0  0  0  0  0  0  0  0
    5.8282   -0.4527   18.9922 H   0  0  0  0  0  0  0  0  0  0  0  0
    6.5671    0.3163   19.0862 C   0  0  0  0  0  0  0  0  0  0  0  0
    6.8786    0.7531   18.1385 H   0  0  0  0  0  0  0  0  0  0  0  0
    7.1123    0.3888   20.2556 C   0  0  0  0  0  0  0  0  0  0  0  0
    5.4383    0.7197   21.2816 H   0  0  0  0  0  0  0  0  0  0  0  0
    6.1348    1.1171   20.5821 C   0  0  0  0  0  0  0  0  0  0  0  0
    6.0232    2.1691   20.4274 H   0  0  0  0  0  0  0  0  0  0  0  0
 19 20  1  0  0  0  0
 18 19  1  0  0  0  0
 19 21  1  0  0  0  0
 19 23  1  0  0  0  0
 21 23  1  0  0  0  0
 17 21  1  0  0  0  0
 23 24  1  0  0  0  0
 22 23  1  0  0  0  0
 11 17  1  0  0  0  0
 11 16  1  0  0  0  0
 14 15  1  0  0  0  0
 11 14  1  0  0  0  0
  9 11  1  0  0  0  0
 12 14  1  0  0  0  0
  8 14  1  0  0  0  0
  2  6  1  0  0  0  0
  8 13  1  0  0  0  0
  7  8  1  0  0  0  0
  8 10  1  0  0  0  0
  6 13  1  0  0  0  0
  3  6  1  0  0  0  0
  5  6  1  0  0  0  0
  1  5  1  0  0  0  0
  4  5  2  0  0  0  0
M  CHG  1   1  -1
M  END
> <Shapegauss>
-135.680832

$$$$
