stable:False satoms:20 tatoms:24 sratio:0.8333333333333334
  -OEChem-08052423083D

 25 25  0     0  0  0  0  0  0999 V2000
   -7.5152   -5.0811  -28.5932 O   0  5  0  0  0  0  0  0  0  0  0  0
   -7.0243   -3.0988  -27.1826 H   0  0  0  0  0  0  0  0  0  0  0  0
   -5.5939   -4.1466  -26.9226 H   0  0  0  0  0  0  0  0  0  0  0  0
   -7.5854   -6.0879  -26.6390 O   0  0  0  0  0  0  0  0  0  0  0  0
   -7.3447   -5.1236  -27.3553 C   0  0  0  0  0  0  0  0  0  0  0  0
   -6.6350   -3.9526  -26.6460 C   0  0  0  0  0  0  0  0  0  0  0  0
   -8.5996   -3.9366  -25.0946 H   0  0  0  0  0  0  0  0  0  0  0  0
   -7.7362   -3.8549  -24.4313 C   0  0  0  0  0  0  0  0  0  0  0  0
   -9.7850   -3.4696  -23.1449 H   0  0  0  0  0  0  0  0  0  0  0  0
   -7.6948   -4.7447  -23.8028 H   0  0  0  0  0  0  0  0  0  0  0  0
   -9.2194   -2.5652  -23.0374 C   0  0  0  0  0  0  0  0  0  0  0  0
   -7.0578   -2.6882  -22.7635 H   0  0  0  0  0  0  0  0  0  0  0  0
   -6.5782   -3.6759  -25.2054 O   0  0  0  0  0  0  0  0  0  0  0  0
   -7.8368   -2.6448  -23.5271 C   0  0  0  0  0  0  0  0  0  0  0  0
   -7.6519   -1.7257  -24.0864 H   0  0  0  0  0  0  0  0  0  0  0  0
   -9.3933   -2.0930  -22.0979 H   0  0  0  0  0  0  0  0  0  0  0  0
   -9.9485   -1.2886  -24.2793 S   0  0  0  0  0  0  0  0  0  0  0  0
  -11.8129    1.2989  -25.3525 H   0  0  0  0  0  0  0  0  0  0  0  0
  -11.7866    0.9377  -24.3451 C   0  0  0  0  0  0  0  0  0  0  0  0
  -11.8765    1.7172  -23.5898 H   0  0  0  0  0  0  0  0  0  0  0  0
  -11.4048   -0.2916  -24.2315 C   0  0  0  0  0  0  0  0  0  0  0  0
  -12.8352   -1.0933  -25.3610 H   0  0  0  0  0  0  0  0  0  0  0  0
  -12.6088   -0.6051  -24.4430 C   0  0  0  0  0  0  0  0  0  0  0  0
  -13.4063   -0.6525  -23.7325 H   0  0  0  0  0  0  0  0  0  0  0  0
  -11.4799   -0.3212  -23.1344 H   0  0  0  0  0  0  0  0  0  0  0  0
 19 20  1  0  0  0  0
 18 19  1  0  0  0  0
 19 21  1  0  0  0  0
 19 23  1  0  0  0  0
 21 23  1  0  0  0  0
 17 21  1  0  0  0  0
 23 24  1  0  0  0  0
 22 23  1  0  0  0  0
 11 17  1  0  0  0  0
 11 16  1  0  0  0  0
 14 15  1  0  0  0  0
 11 14  1  0  0  0  0
  9 11  1  0  0  0  0
 12 14  1  0  0  0  0
  8 14  1  0  0  0  0
  2  6  1  0  0  0  0
  8 13  1  0  0  0  0
  7  8  1  0  0  0  0
  8 10  1  0  0  0  0
  6 13  1  0  0  0  0
  3  6  1  0  0  0  0
  5  6  1  0  0  0  0
  1  5  1  0  0  0  0
  4  5  2  0  0  0  0
 21 25  1  0  0  0  0
M  CHG  1   1  -1
M  END
> <Chemgauss4>
-6.409782

$$$$
