stable:False satoms:20 tatoms:24 sratio:0.8333333333333334
  -OEChem-08052423083D

 25 25  0     0  0  0  0  0  0999 V2000
    7.7489   -4.8878   28.2943 O   0  5  0  0  0  0  0  0  0  0  0  0
    7.2580   -2.9055   26.8838 H   0  0  0  0  0  0  0  0  0  0  0  0
    5.8277   -3.9533   26.6237 H   0  0  0  0  0  0  0  0  0  0  0  0
    7.8192   -5.8946   26.3402 O   0  0  0  0  0  0  0  0  0  0  0  0
    7.5785   -4.9303   27.0565 C   0  0  0  0  0  0  0  0  0  0  0  0
    6.8687   -3.7593   26.3471 C   0  0  0  0  0  0  0  0  0  0  0  0
    8.8334   -3.7434   24.7958 H   0  0  0  0  0  0  0  0  0  0  0  0
    7.9699   -3.6616   24.1325 C   0  0  0  0  0  0  0  0  0  0  0  0
   10.0187   -3.2763   22.8461 H   0  0  0  0  0  0  0  0  0  0  0  0
    7.9285   -4.5514   23.5039 H   0  0  0  0  0  0  0  0  0  0  0  0
    9.4531   -2.3720   22.7386 C   0  0  0  0  0  0  0  0  0  0  0  0
    7.2915   -2.4949   22.4647 H   0  0  0  0  0  0  0  0  0  0  0  0
    6.8119   -3.4826   24.9065 O   0  0  0  0  0  0  0  0  0  0  0  0
    8.0705   -2.4515   23.2283 C   0  0  0  0  0  0  0  0  0  0  0  0
    7.8856   -1.5324   23.7875 H   0  0  0  0  0  0  0  0  0  0  0  0
    9.6270   -1.8997   21.7991 H   0  0  0  0  0  0  0  0  0  0  0  0
   10.1822   -1.0953   23.9804 S   0  0  0  0  0  0  0  0  0  0  0  0
   12.0466    1.4922   25.0537 H   0  0  0  0  0  0  0  0  0  0  0  0
   12.0203    1.1310   24.0462 C   0  0  0  0  0  0  0  0  0  0  0  0
   12.1103    1.9104   23.2910 H   0  0  0  0  0  0  0  0  0  0  0  0
   11.6386   -0.0983   23.9326 C   0  0  0  0  0  0  0  0  0  0  0  0
   13.0689   -0.9000   25.0622 H   0  0  0  0  0  0  0  0  0  0  0  0
   12.8425   -0.4118   24.1441 C   0  0  0  0  0  0  0  0  0  0  0  0
   13.6400   -0.4592   23.4336 H   0  0  0  0  0  0  0  0  0  0  0  0
   11.7137   -0.1279   22.8356 H   0  0  0  0  0  0  0  0  0  0  0  0
 19 20  1  0  0  0  0
 18 19  1  0  0  0  0
 19 21  1  0  0  0  0
 19 23  1  0  0  0  0
 21 23  1  0  0  0  0
 17 21  1  0  0  0  0
 23 24  1  0  0  0  0
 22 23  1  0  0  0  0
 11 17  1  0  0  0  0
 11 16  1  0  0  0  0
 14 15  1  0  0  0  0
 11 14  1  0  0  0  0
  9 11  1  0  0  0  0
 12 14  1  0  0  0  0
  8 14  1  0  0  0  0
  2  6  1  0  0  0  0
  8 13  1  0  0  0  0
  7  8  1  0  0  0  0
  8 10  1  0  0  0  0
  6 13  1  0  0  0  0
  3  6  1  0  0  0  0
  5  6  1  0  0  0  0
  1  5  1  0  0  0  0
  4  5  2  0  0  0  0
 21 25  1  0  0  0  0
M  CHG  1   1  -1
M  END
> <Chemgauss4>
-6.523499

$$$$
