REMARK  2 active torsions:
REMARK  status: ('A' for Active; 'I' for Inactive)
REMARK       I    between atoms: C_3  and  N_5 
REMARK    1  A    between atoms: N_8  and  C_9 
REMARK    2  A    between atoms: C_9  and  C_10 
ROOT
HETATM    1  C   UNL     1       4.390  -0.026   2.840  1.00  0.00     0.022 C 
HETATM    2  C   UNL     1       4.084  -0.113   1.681  1.00  0.00    -0.016 C 
HETATM    3  C   UNL     1       3.707  -0.262   0.286  1.00  0.00     0.298 C 
HETATM    4  O   UNL     1       2.599   0.141  -0.037  1.00  0.00    -0.258 OA
HETATM    5  N   UNL     1       4.605  -0.892  -0.591  1.00  0.00    -0.332 N 
HETATM    6  C   UNL     1       5.717  -1.656  -0.001  1.00  0.00     0.157 C 
HETATM    7  C   UNL     1       6.825  -2.019  -0.994  1.00  0.00     0.293 C 
HETATM    8  N   UNL     1       6.345  -2.654  -2.237  1.00  0.00     0.101 N 
HETATM    9  C   UNL     1       5.283  -1.815  -2.849  1.00  0.00     0.261 C 
HETATM   10  C   UNL     1       5.843  -0.509  -3.435  1.00  0.00     0.178 C 
HETATM   11  S   UNL     1       4.410   0.477  -3.784  1.00  0.00     0.148 S 
HETATM   12  O   UNL     1       4.040   0.272  -5.170  1.00  0.00    -0.228 OA
HETATM   13  O   UNL     1       4.611   1.800  -3.230  1.00  0.00    -0.228 OA
HETATM   14  C   UNL     1       3.270  -0.422  -2.763  1.00  0.00     0.167 C 
HETATM   15  C   UNL     1       4.110  -1.381  -1.903  1.00  0.00     0.136 C 
ENDROOT
BRANCH   8  16
HETATM   16  C   UNL     1       5.870  -4.039  -2.021  1.00  0.00     0.311 C 
BRANCH  16  17
HETATM   17  C   UNL     1       6.917  -4.963  -1.423  1.00  0.00    -0.029 A 
HETATM   18  C   UNL     1       6.717  -5.541  -0.158  1.00  0.00     0.009 A 
HETATM   19  C   UNL     1       7.698  -6.351   0.418  1.00  0.00     0.002 A 
HETATM   20  C   UNL     1       8.886  -6.601  -0.265  1.00  0.00     0.024 A 
HETATM   21  C   UNL     1       9.088  -6.047  -1.530  1.00  0.00     0.034 A 
HETATM   22 CL   UNL     1      10.550  -6.365  -2.377  1.00  0.00    -0.084 Cl
HETATM   23  C   UNL     1       8.111  -5.230  -2.109  1.00  0.00     0.032 A 
ENDBRANCH  16  17
ENDBRANCH   8  16
TORSDOF 2
