stable:False satoms:7 tatoms:24 sratio:0.2916666666666667
  -OEChem-07092417503D

 24 26  0     1  0  0  0  0  0999 V2000
    6.5566   -4.8603   26.4657 C   0  0  0  0  0  0  0  0  0  0  0  0
    8.2242   -4.3062   26.1181 S   0  0  0  0  0  0  0  0  0  0  0  0
    9.0518   -5.4813   26.0753 O   0  0  0  0  0  0  0  0  0  0  0  0
    8.6464   -3.4254   27.1746 O   0  0  0  0  0  0  0  0  0  0  0  0
    8.1205   -3.5446   24.6744 N   0  0  0  0  0  0  0  0  0  0  0  0
    8.9960   -2.9381   24.1540 C   0  0  0  0  0  0  0  0  0  0  0  0
    9.4405   -1.9566   23.4643 C   0  0  0  0  0  0  0  0  0  0  0  0
   10.3846   -1.1936   23.2145 C   0  0  1  0  0  0  0  0  0  0  0  0
   11.0516   -0.0058   24.3343 C   0  0  0  0  0  0  0  0  0  0  0  0
   12.0291    0.2828   24.2674 C   0  0  0  0  0  0  0  0  0  0  0  0
   13.1331   -0.1363   23.4249 C   0  0  0  0  0  0  0  0  0  0  0  0
   12.7679   -1.2031   22.6286 C   0  0  0  0  0  0  0  0  0  0  0  0
   11.7711   -1.7154   22.5006 C   0  0  0  0  0  0  0  0  0  0  0  0
    9.7090   -0.5942   22.3545 C   0  0  1  0  0  0  0  0  0  0  0  0
    9.0671    0.0474   21.3879 C   0  0  0  0  0  0  0  0  0  0  0  0
    9.5364    1.0018   20.9974 O   0  0  0  0  0  0  0  0  0  0  0  0
    7.9405   -0.5381   21.0436 N   0  0  0  0  0  0  0  0  0  0  0  0
    7.1922   -0.0908   20.1771 C   0  0  0  0  0  0  0  0  0  0  0  0
    7.2259   -0.0004   18.8295 C   0  0  0  0  0  0  0  0  0  0  0  0
    6.7806    0.3063   17.7758 N   0  0  0  0  0  0  0  0  0  0  0  0
    5.5888    0.8979   18.2539 C   0  0  0  0  0  0  0  0  0  0  0  0
    5.2747    0.9700   19.4168 C   0  0  0  0  0  0  0  0  0  0  0  0
    5.8168    0.5520   20.5616 C   0  0  0  0  0  0  0  0  0  0  0  0
    5.2788    0.6417   22.0018 C   0  0  0  0  0  0  0  0  0  0  0  0
 20 21  2  0  0  0  0
 19 20  1  0  0  0  0
 21 22  1  0  0  0  0
 18 19  2  0  0  0  0
 22 23  2  0  0  0  0
 18 23  1  0  0  0  0
 17 18  1  0  0  0  0
 23 24  1  0  0  0  0
 15 16  2  0  0  0  0
 15 17  1  0  0  0  0
 14 15  1  0  0  0  0
  8 14  1  0  0  0  0
  7 14  1  0  0  0  0
 12 13  1  0  0  0  0
  8 13  1  0  0  0  0
 11 12  2  0  0  0  0
  7  8  1  0  0  0  0
  8  9  1  0  0  0  0
 10 11  1  0  0  0  0
  6  7  2  0  0  0  0
  5  6  1  0  0  0  0
  9 10  2  0  0  0  0
  2  5  1  0  0  0  0
  2  3  2  0  0  0  0
  1  2  1  0  0  0  0
  2  4  2  0  0  0  0
M  END
> <Shapegauss>
-285.883942

$$$$
