stable:False satoms:7 tatoms:24 sratio:0.2916666666666667
  -OEChem-08062416253D

 43 45  0     1  0  0  0  0  0999 V2000
   -6.3175   -5.1709  -26.2894 C   0  0  0  0  0  0  0  0  0  0  0  0
   -7.9923   -4.5722  -26.0769 S   0  0  0  0  0  0  0  0  0  0  0  0
   -8.8452   -5.7292  -26.0388 O   0  0  0  0  0  0  0  0  0  0  0  0
   -8.3262   -3.7313  -27.1957 O   0  0  0  0  0  0  0  0  0  0  0  0
   -7.9673   -3.7497  -24.6634 N   0  0  0  0  0  0  0  0  0  0  0  0
   -8.8622   -3.1053  -24.2285 C   0  0  0  0  0  0  0  0  0  0  0  0
   -9.3303   -2.0865  -23.6123 C   0  0  0  0  0  0  0  0  0  0  0  0
  -10.2726   -1.2965  -23.4584 C   0  0  1  0  0  0  0  0  0  0  0  0
  -10.8401   -0.1473  -24.6696 C   0  0  0  0  0  0  0  0  0  0  0  0
  -11.8137    0.1614  -24.6800 C   0  0  0  0  0  0  0  0  0  0  0  0
  -12.9789   -0.2003  -23.8952 C   0  0  0  0  0  0  0  0  0  0  0  0
  -12.6888   -1.2374  -23.0316 C   0  0  0  0  0  0  0  0  0  0  0  0
  -11.7133   -1.7614  -22.8161 C   0  0  0  0  0  0  0  0  0  0  0  0
   -9.6423   -0.6720  -22.5820 C   0  0  1  0  0  0  0  0  0  0  0  0
   -9.0517   -0.0001  -21.6033 C   0  0  0  0  0  0  0  0  0  0  0  0
   -9.5256    0.9789  -21.2859 O   0  0  0  0  0  0  0  0  0  0  0  0
   -7.9624   -0.5900  -21.1605 N   0  0  0  0  0  0  0  0  0  0  0  0
   -7.2632   -0.1184  -20.2663 C   0  0  0  0  0  0  0  0  0  0  0  0
   -7.3830    0.0318  -18.9290 C   0  0  0  0  0  0  0  0  0  0  0  0
   -7.0012    0.3766  -17.8622 N   0  0  0  0  0  0  0  0  0  0  0  0
   -5.7686    0.9251  -18.2853 C   0  0  0  0  0  0  0  0  0  0  0  0
   -5.3778    0.9402  -19.4269 C   0  0  0  0  0  0  0  0  0  0  0  0
   -5.8525    0.4820  -20.5861 C   0  0  0  0  0  0  0  0  0  0  0  0
   -5.2198    0.4985  -21.9901 C   0  0  0  0  0  0  0  0  0  0  0  0
   -6.2476   -5.7411  -27.2274 H   0  0  0  0  0  0  0  0  0  0  0  0
   -5.6250   -4.3170  -26.3271 H   0  0  0  0  0  0  0  0  0  0  0  0
   -6.0510   -5.8220  -25.4439 H   0  0  0  0  0  0  0  0  0  0  0  0
   -7.1971   -3.1165  -24.7389 H   0  0  0  0  0  0  0  0  0  0  0  0
   -9.7413   -3.6764  -24.4879 H   0  0  0  0  0  0  0  0  0  0  0  0
  -10.1509    0.2341  -25.4085 H   0  0  0  0  0  0  0  0  0  0  0  0
  -12.0177    0.9117  -25.4295 H   0  0  0  0  0  0  0  0  0  0  0  0
  -13.9440    0.2777  -23.9758 H   0  0  0  0  0  0  0  0  0  0  0  0
  -13.5339   -1.6077  -22.4704 H   0  0  0  0  0  0  0  0  0  0  0  0
  -11.5837   -1.7186  -21.7246 H   0  0  0  0  0  0  0  0  0  0  0  0
  -11.8581   -2.8064  -23.1276 H   0  0  0  0  0  0  0  0  0  0  0  0
   -9.2047   -0.0029  -23.3376 H   0  0  0  0  0  0  0  0  0  0  0  0
   -7.6911   -1.4611  -21.5698 H   0  0  0  0  0  0  0  0  0  0  0  0
   -8.3534   -0.3929  -18.7187 H   0  0  0  0  0  0  0  0  0  0  0  0
   -5.1304    1.3624  -17.5318 H   0  0  0  0  0  0  0  0  0  0  0  0
   -4.4259    1.4389  -19.5346 H   0  0  0  0  0  0  0  0  0  0  0  0
   -4.6335   -0.4201  -22.1394 H   0  0  0  0  0  0  0  0  0  0  0  0
   -6.0139    0.5541  -22.7493 H   0  0  0  0  0  0  0  0  0  0  0  0
   -4.5603    1.3738  -22.0846 H   0  0  0  0  0  0  0  0  0  0  0  0
 20 21  2  0  0  0  0
 19 20  1  0  0  0  0
 21 22  1  0  0  0  0
 18 19  2  0  0  0  0
 22 23  2  0  0  0  0
 18 23  1  0  0  0  0
 17 18  1  0  0  0  0
 23 24  1  0  0  0  0
 15 16  2  0  0  0  0
 15 17  1  0  0  0  0
 14 15  1  0  0  0  0
  8 14  1  0  0  0  0
  7 14  1  0  0  0  0
 12 13  1  0  0  0  0
  8 13  1  0  0  0  0
 11 12  2  0  0  0  0
  7  8  1  0  0  0  0
  8  9  1  0  0  0  0
 10 11  1  0  0  0  0
  6  7  2  0  0  0  0
  5  6  1  0  0  0  0
  9 10  2  0  0  0  0
  2  5  1  0  0  0  0
  2  3  2  0  0  0  0
  1  2  1  0  0  0  0
  2  4  2  0  0  0  0
  1 25  1  0  0  0  0
  1 26  1  0  0  0  0
  1 27  1  0  0  0  0
  5 28  1  0  0  0  0
  6 29  1  0  0  0  0
  9 30  1  0  0  0  0
 10 31  1  0  0  0  0
 11 32  1  0  0  0  0
 12 33  1  0  0  0  0
 13 34  1  0  0  0  0
 13 35  1  0  0  0  0
 14 36  1  0  0  0  0
 17 37  1  0  0  0  0
 19 38  1  0  0  0  0
 21 39  1  0  0  0  0
 22 40  1  0  0  0  0
 24 41  1  0  0  0  0
 24 42  1  0  0  0  0
 24 43  1  0  0  0  0
M  END
> <Chemgauss4>
-13.178625

$$$$
