MODEL 1
REMARK VINA RESULT:    -6.564      0.000      0.000
REMARK INTER + INTRA:         -10.394
REMARK INTER:                  -9.634
REMARK INTRA:                  -0.761
REMARK UNBOUND:                -0.761
REMARK  8 active torsions:
REMARK  status: ('A' for Active; 'I' for Inactive)
REMARK    1  A    between atoms: S_2  and  N_5 
REMARK    2  A    between atoms: N_5  and  C_7 
REMARK    3  A    between atoms: C_7  and  C_8 
REMARK    4  A    between atoms: C_8  and  C_14 
REMARK    5  A    between atoms: C_9  and  C_13 
REMARK    6  A    between atoms: C_9  and  C_10 
REMARK    7  A    between atoms: C_14  and  C_15 
REMARK       I    between atoms: C_15  and  N_17 
REMARK    8  A    between atoms: N_17  and  C_19 
ROOT
HETATM    1  C   UNL     1       6.882  -3.807  22.789  1.00  0.00     0.025 C 
HETATM    2  C   UNL     1       7.670  -2.767  22.730  1.00  0.00     0.100 C 
ENDROOT
BRANCH   2   3
HETATM    3  C   UNL     1       6.999  -2.121  21.913  1.00  0.00    -0.036 C 
BRANCH   3   4
HETATM    4  C   UNL     1       6.362  -1.400  21.114  1.00  0.00     0.027 C 
BRANCH   4   5
HETATM    5  N   UNL     1       6.012  -0.565  20.381  1.00  0.00    -0.229 N 
ATOM      6  HN  UNL     1       5.302   0.031  20.805  1.00  0.00     0.190 HD
BRANCH   5   7
HETATM    7  S   UNL     1       6.346  -0.108  18.901  1.00  0.00     0.327 S 
HETATM    8 CL   UNL     1       5.328   1.443  18.665  1.00  0.00     0.042 Cl
HETATM    9  O   UNL     1       7.715   0.255  18.848  1.00  0.00    -0.188 OA
HETATM   10  O   UNL     1       5.916  -1.029  17.911  1.00  0.00    -0.188 OA
ENDBRANCH   5   7
ENDBRANCH   4   5
ENDBRANCH   3   4
ENDBRANCH   2   3
BRANCH   2  11
HETATM   11  C   UNL     1       9.030  -2.532  23.585  1.00  0.00     0.265 C 
HETATM   12  O   UNL     1       9.195  -3.097  24.591  1.00  0.00    -0.267 OA
HETATM   13  N   UNL     1       9.753  -1.691  22.931  1.00  0.00    -0.324 N 
ATOM     14  HN  UNL     1       9.380  -1.299  22.067  1.00  0.00     0.169 HD
BRANCH  13  15
HETATM   15  C   UNL     1      10.874  -1.337  23.301  1.00  0.00     0.036 A 
HETATM   16  C   UNL     1      12.184  -1.644  23.159  1.00  0.00     0.153 A 
HETATM   17  N   UNL     1      13.363  -1.664  23.231  1.00  0.00    -0.400 N 
HETATM   18  C   UNL     1      13.283  -0.644  23.984  1.00  0.00     0.129 A 
ATOM     19  HN  UNL     1      14.114  -2.244  22.856  1.00  0.00     0.154 HD
HETATM   20  C   UNL     1      12.346   0.037  24.386  1.00  0.00     0.002 A 
HETATM   21  C   UNL     1      11.032  -0.066  24.155  1.00  0.00     0.025 A 
ENDBRANCH  13  15
ENDBRANCH   2  11
BRANCH   1  22
HETATM   22  C   UNL     1       7.029  -4.997  22.052  1.00  0.00     0.006 C 
HETATM   23  C   UNL     1       6.353  -5.390  21.424  1.00  0.00     0.012 C 
ENDBRANCH   1  22
BRANCH   1  24
HETATM   24  C   UNL     1       5.896  -4.264  23.732  1.00  0.00     0.271 C 
HETATM   25  O   UNL     1       5.070  -4.323  24.321  1.00  0.00    -0.301 OA
ENDBRANCH   1  24
TORSDOF 8
ENDMDL
MODEL 2
REMARK VINA RESULT:    -6.316      2.494      5.301
REMARK INTER + INTRA:         -10.030
REMARK INTER:                  -9.268
REMARK INTRA:                  -0.762
REMARK UNBOUND:                -0.761
REMARK  8 active torsions:
REMARK  status: ('A' for Active; 'I' for Inactive)
REMARK    1  A    between atoms: S_2  and  N_5 
REMARK    2  A    between atoms: N_5  and  C_7 
REMARK    3  A    between atoms: C_7  and  C_8 
REMARK    4  A    between atoms: C_8  and  C_14 
REMARK    5  A    between atoms: C_9  and  C_13 
REMARK    6  A    between atoms: C_9  and  C_10 
REMARK    7  A    between atoms: C_14  and  C_15 
REMARK       I    between atoms: C_15  and  N_17 
REMARK    8  A    between atoms: N_17  and  C_19 
ROOT
HETATM    1  C   UNL     1      11.026  -0.902  23.367  1.00  0.00     0.025 C 
HETATM    2  C   UNL     1       9.774  -1.251  23.488  1.00  0.00     0.100 C 
ENDROOT
BRANCH   2   3
HETATM    3  C   UNL     1       9.398  -0.836  22.383  1.00  0.00    -0.036 C 
BRANCH   3   4
HETATM    4  C   UNL     1       9.093  -0.440  21.236  1.00  0.00     0.027 C 
BRANCH   4   5
HETATM    5  N   UNL     1       8.552  -0.200  20.233  1.00  0.00    -0.229 N 
ATOM      6  HN  UNL     1       9.121  -0.465  19.429  1.00  0.00     0.190 HD
BRANCH   5   7
HETATM    7  S   UNL     1       7.168   0.428  19.784  1.00  0.00     0.327 S 
HETATM    8 CL   UNL     1       5.943  -0.968  20.006  1.00  0.00     0.042 Cl
HETATM    9  O   UNL     1       6.831   1.456  20.700  1.00  0.00    -0.188 OA
HETATM   10  O   UNL     1       7.126   0.789  18.412  1.00  0.00    -0.188 OA
ENDBRANCH   5   7
ENDBRANCH   4   5
ENDBRANCH   3   4
ENDBRANCH   2   3
BRANCH   2  11
HETATM   11  C   UNL     1       9.104  -2.040  24.739  1.00  0.00     0.265 C 
HETATM   12  O   UNL     1       9.023  -1.524  25.782  1.00  0.00    -0.267 OA
HETATM   13  N   UNL     1       8.742  -3.199  24.312  1.00  0.00    -0.324 N 
ATOM     14  HN  UNL     1       8.947  -3.446  23.343  1.00  0.00     0.169 HD
BRANCH  13  15
HETATM   15  C   UNL     1       8.159  -4.024  25.018  1.00  0.00     0.036 A 
HETATM   16  C   UNL     1       8.363  -4.860  26.061  1.00  0.00     0.153 A 
HETATM   17  N   UNL     1       8.233  -5.655  26.926  1.00  0.00    -0.400 N 
HETATM   18  C   UNL     1       7.011  -5.744  26.590  1.00  0.00     0.129 A 
ATOM     19  HN  UNL     1       8.835  -6.082  27.630  1.00  0.00     0.154 HD
HETATM   20  C   UNL     1       6.325  -5.182  25.743  1.00  0.00     0.002 A 
HETATM   21  C   UNL     1       6.644  -4.239  24.850  1.00  0.00     0.025 A 
ENDBRANCH  13  15
ENDBRANCH   2  11
BRANCH   1  22
HETATM   22  C   UNL     1      11.603   0.285  23.857  1.00  0.00     0.006 C 
HETATM   23  C   UNL     1      12.414   0.349  24.443  1.00  0.00     0.012 C 
ENDBRANCH   1  22
BRANCH   1  24
HETATM   24  C   UNL     1      12.238  -1.612  23.055  1.00  0.00     0.271 C 
HETATM   25  O   UNL     1      13.005  -2.048  22.552  1.00  0.00    -0.301 OA
ENDBRANCH   1  24
TORSDOF 8
ENDMDL
MODEL 3
REMARK VINA RESULT:    -6.302      4.411      5.966
REMARK INTER + INTRA:         -10.010
REMARK INTER:                  -8.998
REMARK INTRA:                  -1.012
REMARK UNBOUND:                -0.761
REMARK  8 active torsions:
REMARK  status: ('A' for Active; 'I' for Inactive)
REMARK    1  A    between atoms: S_2  and  N_5 
REMARK    2  A    between atoms: N_5  and  C_7 
REMARK    3  A    between atoms: C_7  and  C_8 
REMARK    4  A    between atoms: C_8  and  C_14 
REMARK    5  A    between atoms: C_9  and  C_13 
REMARK    6  A    between atoms: C_9  and  C_10 
REMARK    7  A    between atoms: C_14  and  C_15 
REMARK       I    between atoms: C_15  and  N_17 
REMARK    8  A    between atoms: N_17  and  C_19 
ROOT
HETATM    1  C   UNL     1       7.112  -4.663  23.720  1.00  0.00     0.025 C 
HETATM    2  C   UNL     1       7.994  -3.931  24.346  1.00  0.00     0.100 C 
ENDROOT
BRANCH   2   3
HETATM    3  C   UNL     1       7.941  -4.533  25.428  1.00  0.00    -0.036 C 
BRANCH   3   4
HETATM    4  C   UNL     1       7.811  -5.164  26.501  1.00  0.00     0.027 C 
BRANCH   4   5
HETATM    5  N   UNL     1       7.567  -5.951  27.323  1.00  0.00    -0.229 N 
ATOM      6  HN  UNL     1       8.257  -6.702  27.339  1.00  0.00     0.190 HD
BRANCH   5   7
HETATM    7  S   UNL     1       6.449  -6.168  28.424  1.00  0.00     0.327 S 
HETATM    8 CL   UNL     1       4.849  -6.157  27.454  1.00  0.00     0.042 Cl
HETATM    9  O   UNL     1       6.616  -7.462  28.978  1.00  0.00    -0.188 OA
HETATM   10  O   UNL     1       6.360  -5.105  29.361  1.00  0.00    -0.188 OA
ENDBRANCH   5   7
ENDBRANCH   4   5
ENDBRANCH   3   4
ENDBRANCH   2   3
BRANCH   2  11
HETATM   11  C   UNL     1       8.848  -2.699  23.725  1.00  0.00     0.265 C 
HETATM   12  O   UNL     1       8.827  -2.490  22.578  1.00  0.00    -0.267 OA
HETATM   13  N   UNL     1       9.446  -2.115  24.704  1.00  0.00    -0.324 N 
ATOM     14  HN  UNL     1       9.336  -2.502  25.641  1.00  0.00     0.169 HD
BRANCH  13  15
HETATM   15  C   UNL     1      10.144  -1.109  24.563  1.00  0.00     0.036 A 
HETATM   16  C   UNL     1      11.369  -0.719  24.142  1.00  0.00     0.153 A 
HETATM   17  N   UNL     1      12.326  -0.089  23.850  1.00  0.00    -0.400 N 
HETATM   18  C   UNL     1      11.679   0.952  24.183  1.00  0.00     0.129 A 
ATOM     19  HN  UNL     1      13.259  -0.293  23.491  1.00  0.00     0.154 HD
HETATM   20  C   UNL     1      10.538   1.144  24.587  1.00  0.00     0.002 A 
HETATM   21  C   UNL     1       9.541   0.283  24.822  1.00  0.00     0.025 A 
ENDBRANCH  13  15
ENDBRANCH   2  11
BRANCH   1  22
HETATM   22  C   UNL     1       5.745  -4.364  23.574  1.00  0.00     0.006 C 
HETATM   23  C   UNL     1       5.361  -3.577  23.084  1.00  0.00     0.012 C 
ENDBRANCH   1  22
BRANCH   1  24
HETATM   24  C   UNL     1       7.198  -5.729  22.757  1.00  0.00     0.271 C 
HETATM   25  O   UNL     1       7.176  -6.257  21.890  1.00  0.00    -0.301 OA
ENDBRANCH   1  24
TORSDOF 8
ENDMDL
MODEL 4
REMARK VINA RESULT:    -6.131      3.459      6.277
REMARK INTER + INTRA:          -9.760
REMARK INTER:                  -9.006
REMARK INTRA:                  -0.754
REMARK UNBOUND:                -0.761
REMARK  8 active torsions:
REMARK  status: ('A' for Active; 'I' for Inactive)
REMARK    1  A    between atoms: S_2  and  N_5 
REMARK    2  A    between atoms: N_5  and  C_7 
REMARK    3  A    between atoms: C_7  and  C_8 
REMARK    4  A    between atoms: C_8  and  C_14 
REMARK    5  A    between atoms: C_9  and  C_13 
REMARK    6  A    between atoms: C_9  and  C_10 
REMARK    7  A    between atoms: C_14  and  C_15 
REMARK       I    between atoms: C_15  and  N_17 
REMARK    8  A    between atoms: N_17  and  C_19 
ROOT
HETATM    1  C   UNL     1      10.153  -1.208  23.203  1.00  0.00     0.025 C 
HETATM    2  C   UNL     1       9.133  -1.266  22.391  1.00  0.00     0.100 C 
ENDROOT
BRANCH   2   3
HETATM    3  C   UNL     1       8.708  -2.368  22.767  1.00  0.00    -0.036 C 
BRANCH   3   4
HETATM    4  C   UNL     1       8.212  -3.467  23.099  1.00  0.00     0.027 C 
BRANCH   4   5
HETATM    5  N   UNL     1       7.765  -4.542  23.118  1.00  0.00    -0.229 N 
ATOM      6  HN  UNL     1       8.355  -5.183  23.649  1.00  0.00     0.190 HD
BRANCH   5   7
HETATM    7  S   UNL     1       6.484  -5.275  22.542  1.00  0.00     0.327 S 
HETATM    8 CL   UNL     1       5.522  -5.772  24.068  1.00  0.00     0.042 Cl
HETATM    9  O   UNL     1       5.712  -4.323  21.829  1.00  0.00    -0.188 OA
HETATM   10  O   UNL     1       6.780  -6.474  21.843  1.00  0.00    -0.188 OA
ENDBRANCH   5   7
ENDBRANCH   4   5
ENDBRANCH   3   4
ENDBRANCH   2   3
BRANCH   2  11
HETATM   11  C   UNL     1       8.671  -0.126  21.332  1.00  0.00     0.265 C 
HETATM   12  O   UNL     1       9.376   0.772  21.092  1.00  0.00    -0.267 OA
HETATM   13  N   UNL     1       7.503  -0.453  20.901  1.00  0.00    -0.324 N 
ATOM     14  HN  UNL     1       7.060  -1.288  21.283  1.00  0.00     0.169 HD
BRANCH  13  15
HETATM   15  C   UNL     1       6.895   0.194  20.046  1.00  0.00     0.036 A 
HETATM   16  C   UNL     1       6.789   0.344  18.706  1.00  0.00     0.153 A 
HETATM   17  N   UNL     1       6.477   0.692  17.620  1.00  0.00    -0.400 N 
HETATM   18  C   UNL     1       5.638   1.472  18.166  1.00  0.00     0.129 A 
ATOM     19  HN  UNL     1       6.759   0.466  16.666  1.00  0.00     0.154 HD
HETATM   20  C   UNL     1       5.318   1.687  19.330  1.00  0.00     0.002 A 
HETATM   21  C   UNL     1       5.762   1.146  20.470  1.00  0.00     0.025 A 
ENDBRANCH  13  15
ENDBRANCH   2  11
BRANCH   1  22
HETATM   22  C   UNL     1      11.475  -1.581  22.896  1.00  0.00     0.006 C 
HETATM   23  C   UNL     1      12.307  -1.206  23.313  1.00  0.00     0.012 C 
ENDBRANCH   1  22
BRANCH   1  24
HETATM   24  C   UNL     1      10.411  -0.519  24.440  1.00  0.00     0.271 C 
HETATM   25  O   UNL     1      10.312  -0.130  25.373  1.00  0.00    -0.301 OA
ENDBRANCH   1  24
TORSDOF 8
ENDMDL
MODEL 5
REMARK VINA RESULT:    -6.039      3.808      6.720
REMARK INTER + INTRA:          -9.624
REMARK INTER:                  -8.645
REMARK INTRA:                  -0.979
REMARK UNBOUND:                -0.761
REMARK  8 active torsions:
REMARK  status: ('A' for Active; 'I' for Inactive)
REMARK    1  A    between atoms: S_2  and  N_5 
REMARK    2  A    between atoms: N_5  and  C_7 
REMARK    3  A    between atoms: C_7  and  C_8 
REMARK    4  A    between atoms: C_8  and  C_14 
REMARK    5  A    between atoms: C_9  and  C_13 
REMARK    6  A    between atoms: C_9  and  C_10 
REMARK    7  A    between atoms: C_14  and  C_15 
REMARK       I    between atoms: C_15  and  N_17 
REMARK    8  A    between atoms: N_17  and  C_19 
ROOT
HETATM    1  C   UNL     1       9.763  -1.445  23.353  1.00  0.00     0.025 C 
HETATM    2  C   UNL     1       8.800  -1.618  22.489  1.00  0.00     0.100 C 
ENDROOT
BRANCH   2   3
HETATM    3  C   UNL     1       8.366  -2.677  22.964  1.00  0.00    -0.036 C 
BRANCH   3   4
HETATM    4  C   UNL     1       7.852  -3.709  23.449  1.00  0.00     0.027 C 
BRANCH   4   5
HETATM    5  N   UNL     1       7.479  -4.560  24.152  1.00  0.00    -0.229 N 
ATOM      6  HN  UNL     1       7.437  -5.455  23.665  1.00  0.00     0.190 HD
BRANCH   5   7
HETATM    7  S   UNL     1       7.019  -4.697  25.662  1.00  0.00     0.327 S 
HETATM    8 CL   UNL     1       8.619  -4.918  26.604  1.00  0.00     0.042 Cl
HETATM    9  O   UNL     1       6.441  -3.466  26.062  1.00  0.00    -0.188 OA
HETATM   10  O   UNL     1       6.237  -5.854  25.915  1.00  0.00    -0.188 OA
ENDBRANCH   5   7
ENDBRANCH   4   5
ENDBRANCH   3   4
ENDBRANCH   2   3
BRANCH   2  11
HETATM   11  C   UNL     1       8.397  -0.620  21.274  1.00  0.00     0.265 C 
HETATM   12  O   UNL     1       9.186   0.117  20.833  1.00  0.00    -0.267 OA
HETATM   13  N   UNL     1       7.164  -0.849  20.983  1.00  0.00    -0.324 N 
ATOM     14  HN  UNL     1       6.653  -1.537  21.537  1.00  0.00     0.169 HD
BRANCH  13  15
HETATM   15  C   UNL     1       6.571  -0.276  20.067  1.00  0.00     0.036 A 
HETATM   16  C   UNL     1       6.148  -0.465  18.796  1.00  0.00     0.153 A 
HETATM   17  N   UNL     1       5.669  -0.333  17.723  1.00  0.00    -0.400 N 
HETATM   18  C   UNL     1       5.294   0.824  18.090  1.00  0.00     0.129 A 
ATOM     19  HN  UNL     1       5.591  -0.898  16.878  1.00  0.00     0.154 HD
HETATM   20  C   UNL     1       5.391   1.450  19.140  1.00  0.00     0.002 A 
HETATM   21  C   UNL     1       5.947   1.110  20.308  1.00  0.00     0.025 A 
ENDBRANCH  13  15
ENDBRANCH   2  11
BRANCH   1  22
HETATM   22  C   UNL     1      11.107  -1.823  23.180  1.00  0.00     0.006 C 
HETATM   23  C   UNL     1      11.778  -1.367  22.590  1.00  0.00     0.012 C 
ENDBRANCH   1  22
BRANCH   1  24
HETATM   24  C   UNL     1       9.928  -0.609  24.513  1.00  0.00     0.271 C 
HETATM   25  O   UNL     1      10.039  -0.289  25.471  1.00  0.00    -0.301 OA
ENDBRANCH   1  24
TORSDOF 8
ENDMDL
MODEL 6
REMARK VINA RESULT:    -5.989      2.428      5.472
REMARK INTER + INTRA:          -9.550
REMARK INTER:                  -8.636
REMARK INTRA:                  -0.914
REMARK UNBOUND:                -0.761
REMARK  8 active torsions:
REMARK  status: ('A' for Active; 'I' for Inactive)
REMARK    1  A    between atoms: S_2  and  N_5 
REMARK    2  A    between atoms: N_5  and  C_7 
REMARK    3  A    between atoms: C_7  and  C_8 
REMARK    4  A    between atoms: C_8  and  C_14 
REMARK    5  A    between atoms: C_9  and  C_13 
REMARK    6  A    between atoms: C_9  and  C_10 
REMARK    7  A    between atoms: C_14  and  C_15 
REMARK       I    between atoms: C_15  and  N_17 
REMARK    8  A    between atoms: N_17  and  C_19 
ROOT
HETATM    1  C   UNL     1       9.072  -1.565  23.307  1.00  0.00     0.025 C 
HETATM    2  C   UNL     1       8.027  -2.321  23.105  1.00  0.00     0.100 C 
ENDROOT
BRANCH   2   3
HETATM    3  C   UNL     1       7.506  -1.621  22.226  1.00  0.00    -0.036 C 
BRANCH   3   4
HETATM    4  C   UNL     1       6.909  -0.921  21.379  1.00  0.00     0.027 C 
BRANCH   4   5
HETATM    5  N   UNL     1       6.231  -0.528  20.517  1.00  0.00    -0.229 N 
ATOM      6  HN  UNL     1       5.263  -0.424  20.820  1.00  0.00     0.190 HD
BRANCH   5   7
HETATM    7  S   UNL     1       6.413  -0.110  18.999  1.00  0.00     0.327 S 
HETATM    8 CL   UNL     1       5.359   1.425  18.822  1.00  0.00     0.042 Cl
HETATM    9  O   UNL     1       7.766   0.262  18.800  1.00  0.00    -0.188 OA
HETATM   10  O   UNL     1       5.896  -1.063  18.082  1.00  0.00    -0.188 OA
ENDBRANCH   5   7
ENDBRANCH   4   5
ENDBRANCH   3   4
ENDBRANCH   2   3
BRANCH   2  11
HETATM   11  C   UNL     1       7.706  -3.742  23.822  1.00  0.00     0.265 C 
HETATM   12  O   UNL     1       8.577  -4.420  24.198  1.00  0.00    -0.267 OA
HETATM   13  N   UNL     1       6.425  -3.872  23.858  1.00  0.00    -0.324 N 
ATOM     14  HN  UNL     1       5.851  -3.145  23.432  1.00  0.00     0.169 HD
BRANCH  13  15
HETATM   15  C   UNL     1       5.861  -4.834  24.384  1.00  0.00     0.036 A 
HETATM   16  C   UNL     1       5.261  -6.007  24.079  1.00  0.00     0.153 A 
HETATM   17  N   UNL     1       4.702  -7.048  24.130  1.00  0.00    -0.400 N 
HETATM   18  C   UNL     1       4.699  -6.925  25.394  1.00  0.00     0.129 A 
ATOM     19  HN  UNL     1       4.370  -7.738  23.457  1.00  0.00     0.154 HD
HETATM   20  C   UNL     1       5.142  -6.078  26.162  1.00  0.00     0.002 A 
HETATM   21  C   UNL     1       5.812  -4.947  25.918  1.00  0.00     0.025 A 
ENDBRANCH  13  15
ENDBRANCH   2  11
BRANCH   1  22
HETATM   22  C   UNL     1       9.203  -0.588  24.311  1.00  0.00     0.006 C 
HETATM   23  C   UNL     1       9.451  -0.754  25.269  1.00  0.00     0.012 C 
ENDBRANCH   1  22
BRANCH   1  24
HETATM   24  C   UNL     1      10.450  -1.632  22.898  1.00  0.00     0.271 C 
HETATM   25  O   UNL     1      11.331  -1.947  22.501  1.00  0.00    -0.301 OA
ENDBRANCH   1  24
TORSDOF 8
ENDMDL
MODEL 7
REMARK VINA RESULT:    -5.921     14.814     16.832
REMARK INTER + INTRA:          -9.451
REMARK INTER:                  -8.424
REMARK INTRA:                  -1.027
REMARK UNBOUND:                -0.761
REMARK  8 active torsions:
REMARK  status: ('A' for Active; 'I' for Inactive)
REMARK    1  A    between atoms: S_2  and  N_5 
REMARK    2  A    between atoms: N_5  and  C_7 
REMARK    3  A    between atoms: C_7  and  C_8 
REMARK    4  A    between atoms: C_8  and  C_14 
REMARK    5  A    between atoms: C_9  and  C_13 
REMARK    6  A    between atoms: C_9  and  C_10 
REMARK    7  A    between atoms: C_14  and  C_15 
REMARK       I    between atoms: C_15  and  N_17 
REMARK    8  A    between atoms: N_17  and  C_19 
ROOT
HETATM    1  C   UNL     1      22.573  -1.870  25.000  1.00  0.00     0.025 C 
HETATM    2  C   UNL     1      23.256  -2.465  25.941  1.00  0.00     0.100 C 
ENDROOT
BRANCH   2   3
HETATM    3  C   UNL     1      23.470  -3.517  25.324  1.00  0.00    -0.036 C 
BRANCH   3   4
HETATM    4  C   UNL     1      23.767  -4.569  24.715  1.00  0.00     0.027 C 
BRANCH   4   5
HETATM    5  N   UNL     1      23.979  -5.672  24.407  1.00  0.00    -0.229 N 
ATOM      6  HN  UNL     1      23.881  -5.805  23.401  1.00  0.00     0.190 HD
BRANCH   5   7
HETATM    7  S   UNL     1      24.381  -7.021  25.134  1.00  0.00     0.327 S 
HETATM    8 CL   UNL     1      26.230  -7.143  24.875  1.00  0.00     0.042 Cl
HETATM    9  O   UNL     1      24.143  -6.864  26.523  1.00  0.00    -0.188 OA
HETATM   10  O   UNL     1      23.812  -8.178  24.541  1.00  0.00    -0.188 OA
ENDBRANCH   5   7
ENDBRANCH   4   5
ENDBRANCH   3   4
ENDBRANCH   2   3
BRANCH   2  11
HETATM   11  C   UNL     1      23.664  -1.842  27.384  1.00  0.00     0.265 C 
HETATM   12  O   UNL     1      23.888  -0.703  27.489  1.00  0.00    -0.267 OA
HETATM   13  N   UNL     1      23.658  -2.809  28.234  1.00  0.00    -0.324 N 
ATOM     14  HN  UNL     1      23.454  -3.751  27.898  1.00  0.00     0.169 HD
BRANCH  13  15
HETATM   15  C   UNL     1      23.887  -2.651  29.435  1.00  0.00     0.036 A 
HETATM   16  C   UNL     1      23.260  -2.500  30.623  1.00  0.00     0.153 A 
HETATM   17  N   UNL     1      23.011  -2.356  31.770  1.00  0.00    -0.400 N 
HETATM   18  C   UNL     1      24.262  -2.362  31.988  1.00  0.00     0.129 A 
ATOM     19  HN  UNL     1      22.166  -2.266  32.334  1.00  0.00     0.154 HD
HETATM   20  C   UNL     1      25.245  -2.502  31.269  1.00  0.00     0.002 A 
HETATM   21  C   UNL     1      25.336  -2.710  29.951  1.00  0.00     0.025 A 
ENDBRANCH  13  15
ENDBRANCH   2  11
BRANCH   1  22
HETATM   22  C   UNL     1      21.171  -1.838  24.892  1.00  0.00     0.006 C 
HETATM   23  C   UNL     1      20.539  -1.379  25.522  1.00  0.00     0.012 C 
ENDBRANCH   1  22
BRANCH   1  24
HETATM   24  C   UNL     1      22.882  -0.853  24.030  1.00  0.00     0.271 C 
HETATM   25  O   UNL     1      23.351  -0.304  23.316  1.00  0.00    -0.301 OA
ENDBRANCH   1  24
TORSDOF 8
ENDMDL
MODEL 8
REMARK VINA RESULT:    -5.818     20.704     23.138
REMARK INTER + INTRA:          -9.299
REMARK INTER:                  -8.278
REMARK INTRA:                  -1.021
REMARK UNBOUND:                -0.761
REMARK  8 active torsions:
REMARK  status: ('A' for Active; 'I' for Inactive)
REMARK    1  A    between atoms: S_2  and  N_5 
REMARK    2  A    between atoms: N_5  and  C_7 
REMARK    3  A    between atoms: C_7  and  C_8 
REMARK    4  A    between atoms: C_8  and  C_14 
REMARK    5  A    between atoms: C_9  and  C_13 
REMARK    6  A    between atoms: C_9  and  C_10 
REMARK    7  A    between atoms: C_14  and  C_15 
REMARK       I    between atoms: C_15  and  N_17 
REMARK    8  A    between atoms: N_17  and  C_19 
ROOT
HETATM    1  C   UNL     1       5.297  12.040   3.605  1.00  0.00     0.025 C 
HETATM    2  C   UNL     1       5.985  10.957   3.362  1.00  0.00     0.100 C 
ENDROOT
BRANCH   2   3
HETATM    3  C   UNL     1       7.106  11.483   3.400  1.00  0.00    -0.036 C 
BRANCH   3   4
HETATM    4  C   UNL     1       8.221  12.037   3.516  1.00  0.00     0.027 C 
BRANCH   4   5
HETATM    5  N   UNL     1       9.159  12.718   3.402  1.00  0.00    -0.229 N 
ATOM      6  HN  UNL     1      10.004  12.167   3.248  1.00  0.00     0.190 HD
BRANCH   5   7
HETATM    7  S   UNL     1       9.473  14.271   3.422  1.00  0.00     0.327 S 
HETATM    8 CL   UNL     1       8.379  14.972   2.077  1.00  0.00     0.042 Cl
HETATM    9  O   UNL     1       9.033  14.796   4.663  1.00  0.00    -0.188 OA
HETATM   10  O   UNL     1      10.810  14.585   3.062  1.00  0.00    -0.188 OA
ENDBRANCH   5   7
ENDBRANCH   4   5
ENDBRANCH   3   4
ENDBRANCH   2   3
BRANCH   2  11
HETATM   11  C   UNL     1       5.394   9.458   3.168  1.00  0.00     0.265 C 
HETATM   12  O   UNL     1       5.227   9.027   2.098  1.00  0.00    -0.267 OA
HETATM   13  N   UNL     1       5.205   8.965   4.343  1.00  0.00    -0.324 N 
ATOM     14  HN  UNL     1       5.400   9.552   5.154  1.00  0.00     0.169 HD
BRANCH  13  15
HETATM   15  C   UNL     1       4.800   7.816   4.534  1.00  0.00     0.036 A 
HETATM   16  C   UNL     1       5.235   6.538   4.615  1.00  0.00     0.153 A 
HETATM   17  N   UNL     1       5.306   5.365   4.742  1.00  0.00    -0.400 N 
HETATM   18  C   UNL     1       4.057   5.366   4.970  1.00  0.00     0.129 A 
ATOM     19  HN  UNL     1       6.044   4.663   4.690  1.00  0.00     0.154 HD
HETATM   20  C   UNL     1       3.213   6.252   5.048  1.00  0.00     0.002 A 
HETATM   21  C   UNL     1       3.328   7.578   4.916  1.00  0.00     0.025 A 
ENDBRANCH  13  15
ENDBRANCH   2  11
BRANCH   1  22
HETATM   22  C   UNL     1       4.702  12.873   2.640  1.00  0.00     0.006 C 
HETATM   23  C   UNL     1       4.046  12.588   1.937  1.00  0.00     0.012 C 
ENDBRANCH   1  22
BRANCH   1  24
HETATM   24  C   UNL     1       4.647  12.573   4.773  1.00  0.00     0.271 C 
HETATM   25  O   UNL     1       4.307  12.699   5.721  1.00  0.00    -0.301 OA
ENDBRANCH   1  24
TORSDOF 8
ENDMDL
MODEL 9
REMARK VINA RESULT:    -5.648      4.473      6.052
REMARK INTER + INTRA:          -9.050
REMARK INTER:                  -8.131
REMARK INTRA:                  -0.919
REMARK UNBOUND:                -0.761
REMARK  8 active torsions:
REMARK  status: ('A' for Active; 'I' for Inactive)
REMARK    1  A    between atoms: S_2  and  N_5 
REMARK    2  A    between atoms: N_5  and  C_7 
REMARK    3  A    between atoms: C_7  and  C_8 
REMARK    4  A    between atoms: C_8  and  C_14 
REMARK    5  A    between atoms: C_9  and  C_13 
REMARK    6  A    between atoms: C_9  and  C_10 
REMARK    7  A    between atoms: C_14  and  C_15 
REMARK       I    between atoms: C_15  and  N_17 
REMARK    8  A    between atoms: N_17  and  C_19 
ROOT
HETATM    1  C   UNL     1      10.537   0.517  24.017  1.00  0.00     0.025 C 
HETATM    2  C   UNL     1      10.410   1.566  23.251  1.00  0.00     0.100 C 
ENDROOT
BRANCH   2   3
HETATM    3  C   UNL     1       9.979   0.969  22.254  1.00  0.00    -0.036 C 
BRANCH   3   4
HETATM    4  C   UNL     1       9.467   0.381  21.276  1.00  0.00     0.027 C 
BRANCH   4   5
HETATM    5  N   UNL     1       8.741  -0.118  20.514  1.00  0.00    -0.229 N 
ATOM      6  HN  UNL     1       9.140  -0.971  20.122  1.00  0.00     0.190 HD
BRANCH   5   7
HETATM    7  S   UNL     1       7.300   0.175  19.923  1.00  0.00     0.327 S 
HETATM    8 CL   UNL     1       6.682   1.623  20.933  1.00  0.00     0.042 Cl
HETATM    9  O   UNL     1       7.451   0.609  18.582  1.00  0.00    -0.188 OA
HETATM   10  O   UNL     1       6.377  -0.884  20.126  1.00  0.00    -0.188 OA
ENDBRANCH   5   7
ENDBRANCH   4   5
ENDBRANCH   3   4
ENDBRANCH   2   3
BRANCH   2  11
HETATM   11  C   UNL     1      10.704   3.109  23.662  1.00  0.00     0.265 C 
HETATM   12  O   UNL     1      11.798   3.512  23.682  1.00  0.00    -0.267 OA
HETATM   13  N   UNL     1       9.569   3.663  23.908  1.00  0.00    -0.324 N 
ATOM     14  HN  UNL     1       8.726   3.091  23.852  1.00  0.00     0.169 HD
BRANCH  13  15
HETATM   15  C   UNL     1       9.452   4.853  24.209  1.00  0.00     0.036 A 
HETATM   16  C   UNL     1       9.847   5.757  25.134  1.00  0.00     0.153 A 
HETATM   17  N   UNL     1      10.017   6.744  25.762  1.00  0.00    -0.400 N 
HETATM   18  C   UNL     1       9.308   7.352  24.902  1.00  0.00     0.129 A 
ATOM     19  HN  UNL     1      10.514   6.996  26.616  1.00  0.00     0.154 HD
HETATM   20  C   UNL     1       8.751   7.003  23.866  1.00  0.00     0.002 A 
HETATM   21  C   UNL     1       8.703   5.810  23.263  1.00  0.00     0.025 A 
ENDBRANCH  13  15
ENDBRANCH   2  11
BRANCH   1  22
HETATM   22  C   UNL     1      11.718  -0.222  24.216  1.00  0.00     0.006 C 
HETATM   23  C   UNL     1      12.601   0.146  24.517  1.00  0.00     0.012 C 
ENDBRANCH   1  22
BRANCH   1  24
HETATM   24  C   UNL     1       9.758  -0.037  25.093  1.00  0.00     0.271 C 
HETATM   25  O   UNL     1       9.484  -0.509  25.950  1.00  0.00    -0.301 OA
ENDBRANCH   1  24
TORSDOF 8
ENDMDL
