MODEL 1
REMARK VINA RESULT:    -4.251      0.000      0.000
REMARK INTER + INTRA:          -6.016
REMARK INTER:                  -5.493
REMARK INTRA:                  -0.522
REMARK UNBOUND:                -0.522
REMARK  5 active torsions:
REMARK  status: ('A' for Active; 'I' for Inactive)
REMARK    1  A    between atoms: O_2  and  C_3 
REMARK    2  A    between atoms: N_7  and  C_12 
REMARK    3  A    between atoms: N_7  and  C_10 
REMARK    4  A    between atoms: C_12  and  N_13 
REMARK    5  A    between atoms: N_13  and  C_16 
ROOT
HETATM    1  C   UNL     1       7.986  16.865   2.429  1.00  0.00     0.141 C 
HETATM    2  C   UNL     1       8.802  16.312   1.485  1.00  0.00     0.054 C 
HETATM    3  N   UNL     1       7.874  16.039   3.517  1.00  0.00    -0.348 N 
ATOM      4  HN  UNL     1       7.421  16.422   4.347  1.00  0.00     0.167 HD
HETATM    5  C   UNL     1       8.279  14.859   3.582  1.00  0.00     0.092 C 
HETATM    6  C   UNL     1       9.571  14.396   2.895  1.00  0.00     0.144 C 
HETATM    7  C   UNL     1       9.338  15.187   1.647  1.00  0.00     0.008 C 
ENDROOT
BRANCH   6   8
HETATM    8  N   UNL     1      10.928  14.583   3.042  1.00  0.00    -0.374 N 
ATOM      9  HN  UNL     1      11.664  14.336   2.380  1.00  0.00     0.161 HD
BRANCH   8  10
HETATM   10  C   UNL     1      11.083  15.206   4.336  1.00  0.00     0.176 C 
BRANCH  10  11
HETATM   11  N   UNL     1      11.643  16.316   4.525  1.00  0.00    -0.366 N 
ATOM     12  HN  UNL     1      12.660  16.362   4.458  1.00  0.00     0.165 HD
BRANCH  11  13
HETATM   13  C   UNL     1      10.989  17.416   4.804  1.00  0.00     0.057 C 
HETATM   14  C   UNL     1      10.085  17.565   5.936  1.00  0.00     0.054 C 
ENDBRANCH  11  13
ENDBRANCH  10  11
ENDBRANCH   8  10
ENDBRANCH   6   8
BRANCH   1  15
HETATM   15  O   UNL     1       7.490  18.130   2.154  1.00  0.00    -0.341 OA
HETATM   16  C   UNL     1       7.512  18.970   1.022  1.00  0.00     0.211 C 
ENDBRANCH   1  15
TORSDOF 5
ENDMDL
MODEL 2
REMARK VINA RESULT:    -4.212      2.278      4.451
REMARK INTER + INTRA:          -5.966
REMARK INTER:                  -5.667
REMARK INTRA:                  -0.299
REMARK UNBOUND:                -0.522
REMARK  5 active torsions:
REMARK  status: ('A' for Active; 'I' for Inactive)
REMARK    1  A    between atoms: O_2  and  C_3 
REMARK    2  A    between atoms: N_7  and  C_12 
REMARK    3  A    between atoms: N_7  and  C_10 
REMARK    4  A    between atoms: C_12  and  N_13 
REMARK    5  A    between atoms: N_13  and  C_16 
ROOT
HETATM    1  C   UNL     1      10.949  17.260   4.593  1.00  0.00     0.141 C 
HETATM    2  C   UNL     1       9.699  17.153   4.056  1.00  0.00     0.054 C 
HETATM    3  N   UNL     1      11.604  16.057   4.537  1.00  0.00    -0.348 N 
ATOM      4  HN  UNL     1      12.599  16.057   4.763  1.00  0.00     0.167 HD
HETATM    5  C   UNL     1      11.090  14.959   4.234  1.00  0.00     0.092 C 
HETATM    6  C   UNL     1       9.991  14.834   3.171  1.00  0.00     0.144 C 
HETATM    7  C   UNL     1       9.262  16.067   3.600  1.00  0.00     0.008 C 
ENDROOT
BRANCH   6   8
HETATM    8  N   UNL     1       9.876  14.957   1.803  1.00  0.00    -0.374 N 
ATOM      9  HN  UNL     1      10.622  15.135   1.131  1.00  0.00     0.161 HD
BRANCH   8  10
HETATM   10  C   UNL     1       8.469  14.777   1.529  1.00  0.00     0.176 C 
BRANCH  10  11
HETATM   11  N   UNL     1       7.992  13.809   0.882  1.00  0.00    -0.366 N 
ATOM     12  HN  UNL     1       8.455  13.531   0.017  1.00  0.00     0.165 HD
BRANCH  11  13
HETATM   13  C   UNL     1       6.933  13.138   1.263  1.00  0.00     0.057 C 
HETATM   14  C   UNL     1       6.328  13.248   2.583  1.00  0.00     0.054 C 
ENDBRANCH  11  13
ENDBRANCH  10  11
ENDBRANCH   8  10
ENDBRANCH   6   8
BRANCH   1  15
HETATM   15  O   UNL     1      11.334  18.519   5.023  1.00  0.00    -0.341 OA
HETATM   16  C   UNL     1      12.570  19.191   5.121  1.00  0.00     0.211 C 
ENDBRANCH   1  15
TORSDOF 5
ENDMDL
MODEL 3
REMARK VINA RESULT:    -4.152     24.638     25.947
REMARK INTER + INTRA:          -5.888
REMARK INTER:                  -5.305
REMARK INTRA:                  -0.583
REMARK UNBOUND:                -0.522
REMARK  5 active torsions:
REMARK  status: ('A' for Active; 'I' for Inactive)
REMARK    1  A    between atoms: O_2  and  C_3 
REMARK    2  A    between atoms: N_7  and  C_12 
REMARK    3  A    between atoms: N_7  and  C_10 
REMARK    4  A    between atoms: C_12  and  N_13 
REMARK    5  A    between atoms: N_13  and  C_16 
ROOT
HETATM    1  C   UNL     1      10.992   2.051  24.019  1.00  0.00     0.141 C 
HETATM    2  C   UNL     1       9.918   1.580  24.718  1.00  0.00     0.054 C 
HETATM    3  N   UNL     1      11.938   1.071  23.869  1.00  0.00    -0.348 N 
ATOM      4  HN  UNL     1      12.708   1.263  23.226  1.00  0.00     0.167 HD
HETATM    5  C   UNL     1      11.942  -0.036  24.448  1.00  0.00     0.092 C 
HETATM    6  C   UNL     1      10.651  -0.809  24.746  1.00  0.00     0.144 C 
HETATM    7  C   UNL     1       9.871   0.401  25.151  1.00  0.00     0.008 C 
ENDROOT
BRANCH   6   8
HETATM    8  N   UNL     1       9.682  -1.488  24.041  1.00  0.00    -0.374 N 
ATOM      9  HN  UNL     1       8.734  -1.710  24.345  1.00  0.00     0.161 HD
BRANCH   8  10
HETATM   10  C   UNL     1      10.300  -1.816  22.777  1.00  0.00     0.176 C 
BRANCH  10  11
HETATM   11  N   UNL     1      10.074  -1.208  21.699  1.00  0.00    -0.366 N 
ATOM     12  HN  UNL     1      10.826  -1.144  21.013  1.00  0.00     0.165 HD
BRANCH  11  13
HETATM   13  C   UNL     1       8.923  -0.652  21.412  1.00  0.00     0.057 C 
HETATM   14  C   UNL     1       8.701   0.787  21.360  1.00  0.00     0.054 C 
ENDBRANCH  11  13
ENDBRANCH  10  11
ENDBRANCH   8  10
ENDBRANCH   6   8
BRANCH   1  15
HETATM   15  O   UNL     1      10.907   3.355  23.558  1.00  0.00    -0.341 OA
HETATM   16  C   UNL     1      11.717   4.502  23.697  1.00  0.00     0.211 C 
ENDBRANCH   1  15
TORSDOF 5
ENDMDL
MODEL 4
REMARK VINA RESULT:    -4.133      2.628      4.521
REMARK INTER + INTRA:          -5.864
REMARK INTER:                  -5.617
REMARK INTRA:                  -0.247
REMARK UNBOUND:                -0.522
REMARK  5 active torsions:
REMARK  status: ('A' for Active; 'I' for Inactive)
REMARK    1  A    between atoms: O_2  and  C_3 
REMARK    2  A    between atoms: N_7  and  C_12 
REMARK    3  A    between atoms: N_7  and  C_10 
REMARK    4  A    between atoms: C_12  and  N_13 
REMARK    5  A    between atoms: N_13  and  C_16 
ROOT
HETATM    1  C   UNL     1       8.787  13.337   3.516  1.00  0.00     0.141 C 
HETATM    2  C   UNL     1       7.735  14.204   3.587  1.00  0.00     0.054 C 
HETATM    3  N   UNL     1       9.805  13.872   2.770  1.00  0.00    -0.348 N 
ATOM      4  HN  UNL     1      10.700  13.382   2.785  1.00  0.00     0.167 HD
HETATM    5  C   UNL     1       9.735  14.907   2.075  1.00  0.00     0.092 C 
HETATM    6  C   UNL     1       8.906  16.126   2.500  1.00  0.00     0.144 C 
HETATM    7  C   UNL     1       7.754  15.321   3.012  1.00  0.00     0.008 C 
ENDROOT
BRANCH   6   8
HETATM    8  N   UNL     1       8.955  17.106   3.466  1.00  0.00    -0.374 N 
ATOM      9  HN  UNL     1       8.999  16.980   4.478  1.00  0.00     0.161 HD
BRANCH   8  10
HETATM   10  C   UNL     1       8.931  18.353   2.737  1.00  0.00     0.176 C 
BRANCH  10  11
HETATM   11  N   UNL     1       9.797  18.695   1.891  1.00  0.00    -0.366 N 
ATOM     12  HN  UNL     1      10.781  18.560   2.125  1.00  0.00     0.165 HD
BRANCH  11  13
HETATM   13  C   UNL     1       9.502  19.216   0.726  1.00  0.00     0.057 C 
HETATM   14  C   UNL     1       8.399  18.768  -0.113  1.00  0.00     0.054 C 
ENDBRANCH  11  13
ENDBRANCH  10  11
ENDBRANCH   8  10
ENDBRANCH   6   8
BRANCH   1  15
HETATM   15  O   UNL     1       8.665  12.154   4.228  1.00  0.00    -0.341 OA
HETATM   16  C   UNL     1       7.705  11.121   4.261  1.00  0.00     0.211 C 
ENDBRANCH   1  15
TORSDOF 5
ENDMDL
MODEL 5
REMARK VINA RESULT:    -4.083     25.650     26.720
REMARK INTER + INTRA:          -5.799
REMARK INTER:                  -5.588
REMARK INTRA:                  -0.211
REMARK UNBOUND:                -0.522
REMARK  5 active torsions:
REMARK  status: ('A' for Active; 'I' for Inactive)
REMARK    1  A    between atoms: O_2  and  C_3 
REMARK    2  A    between atoms: N_7  and  C_12 
REMARK    3  A    between atoms: N_7  and  C_10 
REMARK    4  A    between atoms: C_12  and  N_13 
REMARK    5  A    between atoms: N_13  and  C_16 
ROOT
HETATM    1  C   UNL     1       8.229  -0.212  20.454  1.00  0.00     0.141 C 
HETATM    2  C   UNL     1       7.241  -0.759  21.220  1.00  0.00     0.054 C 
HETATM    3  N   UNL     1       9.464  -0.535  20.955  1.00  0.00    -0.348 N 
ATOM      4  HN  UNL     1      10.273  -0.316  20.374  1.00  0.00     0.167 HD
HETATM    5  C   UNL     1       9.685  -1.074  22.060  1.00  0.00     0.092 C 
HETATM    6  C   UNL     1       8.754  -2.138  22.655  1.00  0.00     0.144 C 
HETATM    7  C   UNL     1       7.494  -1.445  22.242  1.00  0.00     0.008 C 
ENDROOT
BRANCH   6   8
HETATM    8  N   UNL     1       8.399  -3.444  22.396  1.00  0.00    -0.374 N 
ATOM      9  HN  UNL     1       8.613  -3.992  21.562  1.00  0.00     0.161 HD
BRANCH   8  10
HETATM   10  C   UNL     1       7.659  -3.869  23.561  1.00  0.00     0.176 C 
BRANCH  10  11
HETATM   11  N   UNL     1       8.142  -4.560  24.494  1.00  0.00    -0.366 N 
ATOM     12  HN  UNL     1       8.720  -5.365  24.250  1.00  0.00     0.165 HD
BRANCH  11  13
HETATM   13  C   UNL     1       7.944  -4.300  25.762  1.00  0.00     0.057 C 
HETATM   14  C   UNL     1       8.146  -5.265  26.835  1.00  0.00     0.054 C 
ENDBRANCH  11  13
ENDBRANCH  10  11
ENDBRANCH   8  10
ENDBRANCH   6   8
BRANCH   1  15
HETATM   15  O   UNL     1       7.825   0.487  19.328  1.00  0.00    -0.341 OA
HETATM   16  C   UNL     1       6.615   0.582  18.612  1.00  0.00     0.211 C 
ENDBRANCH   1  15
TORSDOF 5
ENDMDL
MODEL 6
REMARK VINA RESULT:    -3.984     24.073     25.336
REMARK INTER + INTRA:          -5.671
REMARK INTER:                  -5.258
REMARK INTRA:                  -0.412
REMARK UNBOUND:                -0.522
REMARK  5 active torsions:
REMARK  status: ('A' for Active; 'I' for Inactive)
REMARK    1  A    between atoms: O_2  and  C_3 
REMARK    2  A    between atoms: N_7  and  C_12 
REMARK    3  A    between atoms: N_7  and  C_10 
REMARK    4  A    between atoms: C_12  and  N_13 
REMARK    5  A    between atoms: N_13  and  C_16 
ROOT
HETATM    1  C   UNL     1      11.433   1.359  24.254  1.00  0.00     0.141 C 
HETATM    2  C   UNL     1      11.421   2.588  23.661  1.00  0.00     0.054 C 
HETATM    3  N   UNL     1      10.165   0.982  24.613  1.00  0.00    -0.348 N 
ATOM      4  HN  UNL     1      10.035   0.017  24.917  1.00  0.00     0.167 HD
HETATM    5  C   UNL     1       9.155   1.716  24.601  1.00  0.00     0.092 C 
HETATM    6  C   UNL     1       8.933   2.789  23.527  1.00  0.00     0.144 C 
HETATM    7  C   UNL     1      10.358   3.241  23.507  1.00  0.00     0.008 C 
ENDROOT
BRANCH   6   8
HETATM    8  N   UNL     1       8.651   2.840  22.179  1.00  0.00    -0.374 N 
ATOM      9  HN  UNL     1       8.969   3.537  21.505  1.00  0.00     0.161 HD
BRANCH   8  10
HETATM   10  C   UNL     1       7.809   1.694  21.929  1.00  0.00     0.176 C 
BRANCH  10  11
HETATM   11  N   UNL     1       7.832   1.016  20.869  1.00  0.00    -0.366 N 
ATOM     12  HN  UNL     1       7.244   1.316  20.091  1.00  0.00     0.165 HD
BRANCH  11  13
HETATM   13  C   UNL     1       8.571  -0.054  20.713  1.00  0.00     0.057 C 
HETATM   14  C   UNL     1       8.951  -0.950  21.796  1.00  0.00     0.054 C 
ENDBRANCH  11  13
ENDBRANCH  10  11
ENDBRANCH   8  10
ENDBRANCH   6   8
BRANCH   1  15
HETATM   15  O   UNL     1      12.660   0.719  24.328  1.00  0.00    -0.341 OA
HETATM   16  C   UNL     1      13.101  -0.596  24.069  1.00  0.00     0.211 C 
ENDBRANCH   1  15
TORSDOF 5
ENDMDL
MODEL 7
REMARK VINA RESULT:    -3.961     24.723     26.019
REMARK INTER + INTRA:          -5.641
REMARK INTER:                  -5.475
REMARK INTRA:                  -0.167
REMARK UNBOUND:                -0.522
REMARK  5 active torsions:
REMARK  status: ('A' for Active; 'I' for Inactive)
REMARK    1  A    between atoms: O_2  and  C_3 
REMARK    2  A    between atoms: N_7  and  C_12 
REMARK    3  A    between atoms: N_7  and  C_10 
REMARK    4  A    between atoms: C_12  and  N_13 
REMARK    5  A    between atoms: N_13  and  C_16 
ROOT
HETATM    1  C   UNL     1      11.065   2.664  23.313  1.00  0.00     0.141 C 
HETATM    2  C   UNL     1      11.530   1.573  23.987  1.00  0.00     0.054 C 
HETATM    3  N   UNL     1      10.382   2.283  22.187  1.00  0.00    -0.348 N 
ATOM      4  HN  UNL     1       9.855   3.005  21.696  1.00  0.00     0.167 HD
HETATM    5  C   UNL     1      10.348   1.129  21.710  1.00  0.00     0.092 C 
HETATM    6  C   UNL     1      10.335  -0.124  22.595  1.00  0.00     0.144 C 
HETATM    7  C   UNL     1      11.337   0.402  23.572  1.00  0.00     0.008 C 
ENDROOT
BRANCH   6   8
HETATM    8  N   UNL     1       9.468  -0.752  23.463  1.00  0.00    -0.374 N 
ATOM      9  HN  UNL     1       8.853  -0.314  24.150  1.00  0.00     0.161 HD
BRANCH   8  10
HETATM   10  C   UNL     1       9.620  -2.162  23.190  1.00  0.00     0.176 C 
BRANCH  10  11
HETATM   11  N   UNL     1       8.774  -2.859  22.574  1.00  0.00    -0.366 N 
ATOM     12  HN  UNL     1       8.732  -2.781  21.557  1.00  0.00     0.165 HD
BRANCH  11  13
HETATM   13  C   UNL     1       7.943  -3.679  23.168  1.00  0.00     0.057 C 
HETATM   14  C   UNL     1       8.272  -4.456  24.355  1.00  0.00     0.054 C 
ENDBRANCH  11  13
ENDBRANCH  10  11
ENDBRANCH   8  10
ENDBRANCH   6   8
BRANCH   1  15
HETATM   15  O   UNL     1      11.304   3.900  23.893  1.00  0.00    -0.341 OA
HETATM   16  C   UNL     1      12.218   4.944  23.642  1.00  0.00     0.211 C 
ENDBRANCH   1  15
TORSDOF 5
ENDMDL
MODEL 8
REMARK VINA RESULT:    -3.951     29.475     31.144
REMARK INTER + INTRA:          -5.628
REMARK INTER:                  -5.004
REMARK INTRA:                  -0.624
REMARK UNBOUND:                -0.522
REMARK  5 active torsions:
REMARK  status: ('A' for Active; 'I' for Inactive)
REMARK    1  A    between atoms: O_2  and  C_3 
REMARK    2  A    between atoms: N_7  and  C_12 
REMARK    3  A    between atoms: N_7  and  C_10 
REMARK    4  A    between atoms: C_12  and  N_13 
REMARK    5  A    between atoms: N_13  and  C_16 
ROOT
HETATM    1  C   UNL     1      22.283  -1.239  23.200  1.00  0.00     0.141 C 
HETATM    2  C   UNL     1      21.126  -1.486  23.880  1.00  0.00     0.054 C 
HETATM    3  N   UNL     1      23.046  -0.314  23.864  1.00  0.00    -0.348 N 
ATOM      4  HN  UNL     1      24.001  -0.174  23.532  1.00  0.00     0.167 HD
HETATM    5  C   UNL     1      22.676   0.373  24.840  1.00  0.00     0.092 C 
HETATM    6  C   UNL     1      21.736  -0.177  25.920  1.00  0.00     0.144 C 
HETATM    7  C   UNL     1      20.850  -0.900  24.957  1.00  0.00     0.008 C 
ENDROOT
BRANCH   6   8
HETATM    8  N   UNL     1      21.783  -1.104  26.938  1.00  0.00    -0.374 N 
ATOM      9  HN  UNL     1      20.999  -1.479  27.473  1.00  0.00     0.161 HD
BRANCH   8  10
HETATM   10  C   UNL     1      23.183  -1.430  27.083  1.00  0.00     0.176 C 
BRANCH  10  11
HETATM   11  N   UNL     1      23.644  -2.600  27.054  1.00  0.00    -0.366 N 
ATOM     12  HN  UNL     1      23.762  -3.095  27.939  1.00  0.00     0.165 HD
BRANCH  11  13
HETATM   13  C   UNL     1      23.980  -3.217  25.949  1.00  0.00     0.057 C 
HETATM   14  C   UNL     1      23.168  -4.241  25.305  1.00  0.00     0.054 C 
ENDBRANCH  11  13
ENDBRANCH  10  11
ENDBRANCH   8  10
ENDBRANCH   6   8
BRANCH   1  15
HETATM   15  O   UNL     1      22.495  -1.979  22.047  1.00  0.00    -0.341 OA
HETATM   16  C   UNL     1      23.496  -1.988  21.055  1.00  0.00     0.211 C 
ENDBRANCH   1  15
TORSDOF 5
ENDMDL
MODEL 9
REMARK VINA RESULT:    -3.948     36.499     37.937
REMARK INTER + INTRA:          -5.624
REMARK INTER:                  -5.375
REMARK INTRA:                  -0.249
REMARK UNBOUND:                -0.522
REMARK  5 active torsions:
REMARK  status: ('A' for Active; 'I' for Inactive)
REMARK    1  A    between atoms: O_2  and  C_3 
REMARK    2  A    between atoms: N_7  and  C_12 
REMARK    3  A    between atoms: N_7  and  C_10 
REMARK    4  A    between atoms: C_12  and  N_13 
REMARK    5  A    between atoms: N_13  and  C_16 
ROOT
HETATM    1  C   UNL     1       1.723 -18.240   8.580  1.00  0.00     0.141 C 
HETATM    2  C   UNL     1       1.304 -19.536   8.663  1.00  0.00     0.054 C 
HETATM    3  N   UNL     1       3.080 -18.159   8.755  1.00  0.00    -0.348 N 
ATOM      4  HN  UNL     1       3.522 -17.261   8.553  1.00  0.00     0.167 HD
HETATM    5  C   UNL     1       3.824 -19.086   9.139  1.00  0.00     0.092 C 
HETATM    6  C   UNL     1       3.589 -20.547   8.733  1.00  0.00     0.144 C 
HETATM    7  C   UNL     1       2.103 -20.481   8.885  1.00  0.00     0.008 C 
ENDROOT
BRANCH   6   8
HETATM    8  N   UNL     1       3.674 -21.316   7.593  1.00  0.00    -0.374 N 
ATOM      9  HN  UNL     1       4.173 -21.094   6.731  1.00  0.00     0.161 HD
BRANCH   8  10
HETATM   10  C   UNL     1       2.906 -22.503   7.885  1.00  0.00     0.176 C 
BRANCH  10  11
HETATM   11  N   UNL     1       3.367 -23.673   7.844  1.00  0.00    -0.366 N 
ATOM     12  HN  UNL     1       3.721 -24.022   6.954  1.00  0.00     0.165 HD
BRANCH  11  13
HETATM   13  C   UNL     1       3.417 -24.465   8.886  1.00  0.00     0.057 C 
HETATM   14  C   UNL     1       2.936 -24.103  10.212  1.00  0.00     0.054 C 
ENDBRANCH  11  13
ENDBRANCH  10  11
ENDBRANCH   8  10
ENDBRANCH   6   8
BRANCH   1  15
HETATM   15  O   UNL     1       0.755 -17.293   8.288  1.00  0.00    -0.341 OA
HETATM   16  C   UNL     1      -0.200 -17.147   7.260  1.00  0.00     0.211 C 
ENDBRANCH   1  15
TORSDOF 5
ENDMDL
