stable:False satoms:17 tatoms:24 sratio:0.7083333333333334
  -OEChem-07092417303D

 24 24  0     1  0  0  0  0  0999 V2000
    9.0381   -1.2018   25.2165 C   0  0  1  0  0  0  0  0  0  0  0  0
    8.3566   -0.7084   24.2303 O   0  0  0  0  0  0  0  0  0  0  0  0
    9.2066   -2.7844   22.2407 N   0  3  0  0  0  0  0  0  0  0  0  0
   10.2041   -3.0331   23.0186 N   0  3  0  0  0  0  0  0  0  0  0  0
    8.0709   -2.9351   26.2335 H   0  0  0  0  0  0  0  0  0  0  0  0
    8.7444   -2.6463   25.4394 C   0  3  0  0  0  0  0  0  0  0  0  0
   10.8481   -2.3390   20.9868 H   0  0  0  0  0  0  0  0  0  0  0  0
    9.2996   -3.3663   24.6391 N   0  0  0  0  0  0  0  0  0  0  0  0
    9.5134   -0.8249   26.1122 H   0  0  0  0  0  0  0  0  0  0  0  0
    9.1885   -1.7194   20.1184 N   0  0  0  0  0  0  0  0  0  0  0  0
   10.2924   -2.7688   23.9786 C   0  0  0  0  0  0  0  0  0  0  0  0
   10.2588    0.4650   24.3550 H   0  0  0  0  0  0  0  0  0  0  0  0
    9.7802   -2.2378   21.0434 C   0  0  0  0  0  0  0  0  0  0  0  0
    9.6500   -0.3314   23.9778 C   0  0  0  0  0  0  0  0  0  0  0  0
    6.6494    0.7182   20.3774 N   0  3  0  0  0  0  0  0  0  0  0  0
   10.0519   -0.5397   22.9780 H   0  0  0  0  0  0  0  0  0  0  0  0
    8.1420    0.1050   22.0138 N   0  0  0  0  0  0  0  0  0  0  0  0
    8.2847   -2.3312   22.2498 H   0  0  0  0  0  0  0  0  0  0  0  0
    7.4594   -1.1166   18.7912 O   0  0  0  0  0  0  0  0  0  0  0  0
    6.6250    1.5900   20.8325 H   0  0  0  0  0  0  0  0  0  0  0  0
    8.0691    1.2632   22.3100 O   0  0  0  0  0  0  0  0  0  0  0  0
    6.2727    0.6266   19.4598 H   0  0  0  0  0  0  0  0  0  0  0  0
    8.0135   -1.0620   19.8627 C   0  0  0  0  0  0  0  0  0  0  0  0
    7.5647   -0.1118   20.8311 C   0  0  0  0  0  0  0  0  0  0  0  0
 19 23  2  0  0  0  0
 15 22  1  0  0  0  0
 10 23  1  0  0  0  0
 23 24  1  0  0  0  0
 10 13  2  0  0  0  0
 15 24  2  0  0  0  0
 15 20  1  0  0  0  0
 17 24  1  0  0  0  0
  7 13  1  0  0  0  0
  3 13  1  0  0  0  0
 17 21  1  0  0  0  0
  3 18  1  0  0  0  0
  3  4  2  0  0  0  0
 14 16  1  0  0  0  0
  4 11  2  0  0  0  0
  2 14  1  0  0  0  0
 12 14  1  0  0  0  0
  1 14  1  0  0  0  0
  8 11  1  0  0  0  0
  1  2  1  0  0  0  0
  6  8  1  0  0  0  0
  1  6  1  0  0  0  0
  1  9  1  0  0  0  0
  5  6  1  0  0  0  0
M  CHG  4   3   1   4   1   6   1  15   1
M  END
> <Shapegauss>
-124.806061

$$$$
