stable:False satoms:17 tatoms:24 sratio:0.7083333333333334
  -OEChem-08052421553D

 27 27  0     1  0  0  0  0  0999 V2000
   -8.8774   -1.4023  -26.1082 C   0  0  1  0  0  0  0  0  0  0  0  0
   -9.0550   -0.3384  -25.3891 O   0  0  0  0  0  0  0  0  0  0  0  0
   -8.6394   -1.7116  -22.7562 N   0  0  0  0  0  0  0  0  0  0  0  0
   -8.8961   -2.8196  -23.3632 N   0  3  0  0  0  0  0  0  0  0  0  0
   -7.5921   -2.0888  -25.7934 C   0  0  0  0  0  2  0  0  0  0  0  0
  -10.3482   -2.3855  -21.7117 H   0  0  0  0  0  0  0  0  0  0  0  0
   -7.6447   -2.7363  -24.7711 N   0  0  0  0  0  0  0  0  0  0  0  0
   -9.2160   -1.7705  -27.0674 H   0  0  0  0  0  0  0  0  0  0  0  0
   -9.9559   -0.5285  -21.1732 N   0  3  0  0  0  0  0  0  0  0  0  0
   -8.8879   -2.9746  -24.3507 C   0  0  0  0  0  0  0  0  0  0  0  0
  -11.0883   -1.1313  -25.8870 H   0  0  0  0  0  0  0  0  0  0  0  0
   -9.7188   -1.5229  -21.8285 C   0  0  0  0  0  0  0  0  0  0  0  0
  -10.2249   -1.0408  -25.2597 C   0  0  0  0  0  0  0  0  0  0  0  0
  -10.0039    2.7907  -22.3720 N   0  3  0  0  0  0  0  0  0  0  0  0
  -10.5993   -1.2176  -24.2433 H   0  0  0  0  0  0  0  0  0  0  0  0
  -10.0894    0.8701  -23.6313 N   0  0  0  0  0  0  0  0  0  0  0  0
   -9.6286    1.4883  -20.2036 O   0  0  0  0  0  0  0  0  0  0  0  0
  -10.2615    3.3273  -23.1755 H   0  0  0  0  0  0  0  0  0  0  0  0
  -10.7955    1.5359  -24.3332 O   0  0  0  0  0  0  0  0  0  0  0  0
   -9.7399    0.8245  -21.2062 C   0  0  0  0  0  0  0  0  0  0  0  0
   -9.8763    1.4840  -22.4665 C   0  0  0  0  0  0  0  0  0  0  0  0
   -6.8322   -3.0617  -24.2876 H   0  0  0  0  0  0  0  0  0  0  0  0
   -9.7259   -3.2775  -24.9609 H   0  0  0  0  0  0  0  0  0  0  0  0
   -9.7125   -0.0212  -23.8833 H   0  0  0  0  0  0  0  0  0  0  0  0
  -10.9379    1.0861  -25.1577 H   0  0  0  0  0  0  0  0  0  0  0  0
  -10.4704   -0.7737  -20.3515 H   0  0  0  0  0  0  0  0  0  0  0  0
   -9.8431    3.2467  -21.4967 H   0  0  0  0  0  0  0  0  0  0  0  0
 17 20  2  0  0  0  0
  9 20  1  0  0  0  0
 20 21  1  0  0  0  0
  9 12  2  0  0  0  0
 14 21  2  0  0  0  0
 14 18  1  0  0  0  0
 16 21  1  0  0  0  0
  6 12  1  0  0  0  0
  3 12  1  0  0  0  0
 16 19  1  0  0  0  0
  3  4  2  0  0  0  0
 13 15  1  0  0  0  0
  4 10  2  0  0  0  0
  2 13  1  0  0  0  0
 11 13  1  0  0  0  0
  1 13  1  0  0  0  0
  7 10  1  0  0  0  0
  1  2  1  0  0  0  0
  5  7  1  0  0  0  0
  1  5  1  0  0  0  0
  1  8  1  0  0  0  0
  7 22  1  0  0  0  0
 10 23  1  0  0  0  0
 16 24  1  0  0  0  0
 19 25  1  0  0  0  0
  9 26  1  0  0  0  0
 14 27  1  0  0  0  0
M  CHG  3   4   1   9   1  14   1
M  END
> <Chemgauss4>
-6.379418

$$$$
