stable:False satoms:17 tatoms:24 sratio:0.7083333333333334
  -OEChem-08052421553D

 27 27  0     1  0  0  0  0  0999 V2000
    8.4665   -2.2897   25.7713 C   0  0  1  0  0  0  0  0  0  0  0  0
    8.6542   -1.1388   25.2050 O   0  0  0  0  0  0  0  0  0  0  0  0
    8.5481   -2.1906   22.3991 N   0  0  0  0  0  0  0  0  0  0  0  0
    8.8047   -3.3543   22.8910 N   0  3  0  0  0  0  0  0  0  0  0  0
    7.2513   -2.9819   25.2550 C   0  0  0  0  0  2  0  0  0  0  0  0
   10.3762   -2.6624   21.4500 H   0  0  0  0  0  0  0  0  0  0  0  0
    7.4287   -3.4952   24.1724 N   0  0  0  0  0  0  0  0  0  0  0  0
    8.7354   -2.7603   26.7075 H   0  0  0  0  0  0  0  0  0  0  0  0
    9.9405   -0.7699   21.1024 N   0  3  0  0  0  0  0  0  0  0  0  0
    8.7152   -3.6307   23.8475 C   0  0  0  0  0  0  0  0  0  0  0  0
   10.6718   -1.9069   25.7969 H   0  0  0  0  0  0  0  0  0  0  0  0
    9.6959   -1.8463   21.6083 C   0  0  0  0  0  0  0  0  0  0  0  0
    9.8651   -1.7734   25.1051 C   0  0  0  0  0  0  0  0  0  0  0  0
    9.7119    2.3746   22.6887 N   0  3  0  0  0  0  0  0  0  0  0  0
   10.3382   -1.8081   24.1155 H   0  0  0  0  0  0  0  0  0  0  0  0
    9.7806    0.3177   23.7116 N   0  0  0  0  0  0  0  0  0  0  0  0
    9.6004    1.3371   20.3542 O   0  0  0  0  0  0  0  0  0  0  0  0
    9.8685    2.8173   23.5716 H   0  0  0  0  0  0  0  0  0  0  0  0
   10.3858    0.9186   24.5525 O   0  0  0  0  0  0  0  0  0  0  0  0
    9.6542    0.5591   21.2761 C   0  0  0  0  0  0  0  0  0  0  0  0
    9.6427    1.0623   22.6136 C   0  0  0  0  0  0  0  0  0  0  0  0
    6.6807   -3.7899   23.5777 H   0  0  0  0  0  0  0  0  0  0  0  0
    9.5090   -3.9736   24.4945 H   0  0  0  0  0  0  0  0  0  0  0  0
    9.4280   -0.6120   23.8178 H   0  0  0  0  0  0  0  0  0  0  0  0
   10.4758    0.3761   25.3271 H   0  0  0  0  0  0  0  0  0  0  0  0
   10.5388   -0.8911   20.3104 H   0  0  0  0  0  0  0  0  0  0  0  0
    9.6080    2.9289   21.8629 H   0  0  0  0  0  0  0  0  0  0  0  0
 17 20  2  0  0  0  0
  9 20  1  0  0  0  0
 20 21  1  0  0  0  0
  9 12  2  0  0  0  0
 14 21  2  0  0  0  0
 14 18  1  0  0  0  0
 16 21  1  0  0  0  0
  6 12  1  0  0  0  0
  3 12  1  0  0  0  0
 16 19  1  0  0  0  0
  3  4  2  0  0  0  0
 13 15  1  0  0  0  0
  4 10  2  0  0  0  0
  2 13  1  0  0  0  0
 11 13  1  0  0  0  0
  1 13  1  0  0  0  0
  7 10  1  0  0  0  0
  1  2  1  0  0  0  0
  5  7  1  0  0  0  0
  1  5  1  0  0  0  0
  1  8  1  0  0  0  0
  7 22  1  0  0  0  0
 10 23  1  0  0  0  0
 16 24  1  0  0  0  0
 19 25  1  0  0  0  0
  9 26  1  0  0  0  0
 14 27  1  0  0  0  0
M  CHG  3   4   1   9   1  14   1
M  END
> <Chemgauss4>
-6.401073

$$$$
