MODEL 1
REMARK VINA RESULT:    -8.084      0.000      0.000
REMARK INTER + INTRA:         -10.618
REMARK INTER:                  -9.975
REMARK INTRA:                  -0.643
REMARK UNBOUND:                -0.643
REMARK  4 active torsions:
REMARK  status: ('A' for Active; 'I' for Inactive)
REMARK    1  A    between atoms: S_2  and  N_5 
REMARK    2  A    between atoms: C_7  and  C_8 
REMARK    3  A    between atoms: C_15  and  C_16 
REMARK       I    between atoms: C_16  and  N_18 
REMARK    4  A    between atoms: N_18  and  C_20 
ROOT
HETATM    1  C   UNL     1       6.690  -2.036  21.730  1.00  0.00    -0.008 A 
HETATM    2  C   UNL     1       6.756  -3.067  22.527  1.00  0.00     0.058 A 
HETATM    3  C   UNL     1       5.648  -3.428  23.659  1.00  0.00    -0.003 C 
HETATM    4  C   UNL     1       5.372  -4.471  23.954  1.00  0.00    -0.002 C 
HETATM    5  C   UNL     1       5.740  -5.701  23.389  1.00  0.00    -0.001 C 
HETATM    6  C   UNL     1       6.493  -5.539  22.283  1.00  0.00    -0.002 C 
HETATM    7  C   UNL     1       6.863  -4.598  21.830  1.00  0.00    -0.003 C 
HETATM    8  C   UNL     1       7.836  -2.710  22.924  1.00  0.00     0.040 A 
ENDROOT
BRANCH   8   9
HETATM    9  C   UNL     1       9.024  -2.456  23.527  1.00  0.00     0.254 C 
HETATM   10  O   UNL     1       9.332  -3.082  24.429  1.00  0.00    -0.268 OA
HETATM   11  N   UNL     1       9.625  -1.447  22.903  1.00  0.00    -0.321 N 
ATOM     12  HN  UNL     1       9.156  -0.931  22.159  1.00  0.00     0.169 HD
BRANCH  11  13
HETATM   13  C   UNL     1      10.774  -1.156  23.259  1.00  0.00     0.060 A 
HETATM   14  C   UNL     1      11.984  -1.539  23.124  1.00  0.00     0.117 A 
HETATM   15  N   UNL     1      13.233  -1.467  23.321  1.00  0.00    -0.373 N 
HETATM   16  C   UNL     1      13.148  -0.502  24.102  1.00  0.00     0.088 A 
ATOM     17  HN  UNL     1      14.023  -2.006  22.968  1.00  0.00     0.164 HD
HETATM   18  C   UNL     1      12.159   0.213  24.522  1.00  0.00     0.030 A 
HETATM   19  C   UNL     1      10.909   0.121  24.265  1.00  0.00    -0.016 A 
HETATM   20  C   UNL     1      10.067   0.693  24.569  1.00  0.00     0.026 C 
ENDBRANCH  11  13
ENDBRANCH   8   9
BRANCH   1  21
HETATM   21  C   UNL     1       6.180  -1.327  20.908  1.00  0.00     0.109 C 
HETATM   22  N   UNL     1       5.537  -1.044  19.930  1.00  0.00    -0.295 N 
ATOM     23  HN  UNL     1       4.678  -1.568  19.763  1.00  0.00     0.177 HD
BRANCH  22  24
HETATM   24  S   UNL     1       5.930   0.094  18.867  1.00  0.00     0.226 S 
HETATM   25  C   UNL     1       4.940   1.445  19.329  1.00  0.00     0.186 C 
HETATM   26  O   UNL     1       7.299   0.524  19.001  1.00  0.00    -0.206 OA
HETATM   27  O   UNL     1       5.594  -0.258  17.544  1.00  0.00    -0.206 OA
ENDBRANCH  22  24
ENDBRANCH   1  21
TORSDOF 4
ENDMDL
MODEL 2
REMARK VINA RESULT:    -8.070      2.322      5.540
REMARK INTER + INTRA:         -10.600
REMARK INTER:                  -9.812
REMARK INTRA:                  -0.788
REMARK UNBOUND:                -0.643
REMARK  4 active torsions:
REMARK  status: ('A' for Active; 'I' for Inactive)
REMARK    1  A    between atoms: S_2  and  N_5 
REMARK    2  A    between atoms: C_7  and  C_8 
REMARK    3  A    between atoms: C_15  and  C_16 
REMARK       I    between atoms: C_16  and  N_18 
REMARK    4  A    between atoms: N_18  and  C_20 
ROOT
HETATM    1  C   UNL     1       9.172  -0.967  22.439  1.00  0.00    -0.008 A 
HETATM    2  C   UNL     1      10.151  -1.004  23.302  1.00  0.00     0.058 A 
HETATM    3  C   UNL     1      11.621  -1.624  22.999  1.00  0.00    -0.003 C 
HETATM    4  C   UNL     1      12.571  -1.226  23.438  1.00  0.00    -0.002 C 
HETATM    5  C   UNL     1      12.804  -0.071  24.199  1.00  0.00    -0.001 C 
HETATM    6  C   UNL     1      11.687   0.670  24.339  1.00  0.00    -0.002 C 
HETATM    7  C   UNL     1      10.663   0.453  23.977  1.00  0.00    -0.003 C 
HETATM    8  C   UNL     1       9.460  -1.609  24.081  1.00  0.00     0.040 A 
ENDROOT
BRANCH   8   9
HETATM    9  C   UNL     1       8.867  -2.326  25.068  1.00  0.00     0.254 C 
HETATM   10  O   UNL     1       8.661  -1.823  26.070  1.00  0.00    -0.268 OA
HETATM   11  N   UNL     1       8.642  -3.563  24.636  1.00  0.00    -0.321 N 
ATOM     12  HN  UNL     1       8.982  -3.876  23.727  1.00  0.00     0.169 HD
BRANCH  11  13
HETATM   13  C   UNL     1       8.005  -4.322  25.377  1.00  0.00     0.060 A 
HETATM   14  C   UNL     1       8.147  -5.046  26.419  1.00  0.00     0.117 A 
HETATM   15  N   UNL     1       7.747  -5.838  27.322  1.00  0.00    -0.373 N 
HETATM   16  C   UNL     1       6.601  -5.946  26.849  1.00  0.00     0.088 A 
ATOM     17  HN  UNL     1       8.200  -6.242  28.141  1.00  0.00     0.164 HD
HETATM   18  C   UNL     1       6.006  -5.408  25.837  1.00  0.00     0.030 A 
HETATM   19  C   UNL     1       6.447  -4.581  24.967  1.00  0.00    -0.016 A 
HETATM   20  C   UNL     1       5.993  -4.099  24.136  1.00  0.00     0.026 C 
ENDBRANCH  11  13
ENDBRANCH   8   9
BRANCH   1  21
HETATM   21  C   UNL     1       8.653  -0.689  21.395  1.00  0.00     0.109 C 
HETATM   22  N   UNL     1       8.525  -0.147  20.327  1.00  0.00    -0.295 N 
ATOM     23  HN  UNL     1       9.356  -0.055  19.743  1.00  0.00     0.177 HD
BRANCH  22  24
HETATM   24  S   UNL     1       7.145   0.442  19.753  1.00  0.00     0.226 S 
HETATM   25  C   UNL     1       6.027  -0.874  19.940  1.00  0.00     0.186 C 
HETATM   26  O   UNL     1       6.636   1.530  20.550  1.00  0.00    -0.206 OA
HETATM   27  O   UNL     1       7.218   0.758  18.380  1.00  0.00    -0.206 OA
ENDBRANCH  22  24
ENDBRANCH   1  21
TORSDOF 4
ENDMDL
MODEL 3
REMARK VINA RESULT:    -7.908      3.121      6.798
REMARK INTER + INTRA:         -10.400
REMARK INTER:                  -9.803
REMARK INTRA:                  -0.597
REMARK UNBOUND:                -0.643
REMARK  4 active torsions:
REMARK  status: ('A' for Active; 'I' for Inactive)
REMARK    1  A    between atoms: S_2  and  N_5 
REMARK    2  A    between atoms: C_7  and  C_8 
REMARK    3  A    between atoms: C_15  and  C_16 
REMARK       I    between atoms: C_16  and  N_18 
REMARK    4  A    between atoms: N_18  and  C_20 
ROOT
HETATM    1  C   UNL     1       8.970  -2.392  23.564  1.00  0.00    -0.008 A 
HETATM    2  C   UNL     1       9.730  -1.336  23.467  1.00  0.00     0.058 A 
HETATM    3  C   UNL     1       9.923  -0.231  24.642  1.00  0.00    -0.003 C 
HETATM    4  C   UNL     1      10.877   0.323  24.829  1.00  0.00    -0.002 C 
HETATM    5  C   UNL     1      12.151   0.153  24.266  1.00  0.00    -0.001 C 
HETATM    6  C   UNL     1      12.188  -0.898  23.422  1.00  0.00    -0.002 C 
HETATM    7  C   UNL     1      11.362  -1.568  23.115  1.00  0.00    -0.003 C 
HETATM    8  C   UNL     1       9.133  -0.979  22.484  1.00  0.00     0.040 A 
ENDROOT
BRANCH   8   9
HETATM    9  C   UNL     1       8.565  -0.388  21.403  1.00  0.00     0.254 C 
HETATM   10  O   UNL     1       9.230   0.177  20.669  1.00  0.00    -0.268 OA
HETATM   11  N   UNL     1       7.252  -0.593  21.431  1.00  0.00    -0.321 N 
ATOM     12  HN  UNL     1       6.805  -1.049  22.226  1.00  0.00     0.169 HD
BRANCH  11  13
HETATM   13  C   UNL     1       6.592  -0.212  20.457  1.00  0.00     0.060 A 
HETATM   14  C   UNL     1       6.201  -0.602  19.306  1.00  0.00     0.117 A 
HETATM   15  N   UNL     1       5.588  -0.476  18.205  1.00  0.00    -0.373 N 
HETATM   16  C   UNL     1       5.232   0.694  18.431  1.00  0.00     0.088 A 
ATOM     17  HN  UNL     1       5.440  -1.107  17.417  1.00  0.00     0.164 HD
HETATM   18  C   UNL     1       5.378   1.485  19.440  1.00  0.00     0.030 A 
HETATM   19  C   UNL     1       5.982   1.298  20.552  1.00  0.00    -0.016 A 
HETATM   20  C   UNL     1       6.112   1.907  21.413  1.00  0.00     0.026 C 
ENDBRANCH  11  13
ENDBRANCH   8   9
BRANCH   1  21
HETATM   21  C   UNL     1       8.584  -3.414  24.061  1.00  0.00     0.109 C 
HETATM   22  N   UNL     1       7.941  -4.426  24.162  1.00  0.00    -0.295 N 
ATOM     23  HN  UNL     1       7.809  -4.987  23.320  1.00  0.00     0.177 HD
BRANCH  22  24
HETATM   24  S   UNL     1       7.273  -4.963  25.521  1.00  0.00     0.226 S 
HETATM   25  C   UNL     1       6.899  -3.509  26.395  1.00  0.00     0.186 C 
HETATM   26  O   UNL     1       6.021  -5.638  25.291  1.00  0.00    -0.206 OA
HETATM   27  O   UNL     1       8.168  -5.721  26.304  1.00  0.00    -0.206 OA
ENDBRANCH  22  24
ENDBRANCH   1  21
TORSDOF 4
ENDMDL
MODEL 4
REMARK VINA RESULT:    -7.330      3.752      5.846
REMARK INTER + INTRA:          -9.687
REMARK INTER:                  -8.973
REMARK INTRA:                  -0.715
REMARK UNBOUND:                -0.643
REMARK  4 active torsions:
REMARK  status: ('A' for Active; 'I' for Inactive)
REMARK    1  A    between atoms: S_2  and  N_5 
REMARK    2  A    between atoms: C_7  and  C_8 
REMARK    3  A    between atoms: C_15  and  C_16 
REMARK       I    between atoms: C_16  and  N_18 
REMARK    4  A    between atoms: N_18  and  C_20 
ROOT
HETATM    1  C   UNL     1       7.139  -4.564  25.368  1.00  0.00    -0.008 A 
HETATM    2  C   UNL     1       6.972  -4.577  24.074  1.00  0.00     0.058 A 
HETATM    3  C   UNL     1       7.634  -5.672  23.072  1.00  0.00    -0.003 C 
HETATM    4  C   UNL     1       7.139  -6.046  22.141  1.00  0.00    -0.002 C 
HETATM    5  C   UNL     1       5.840  -5.835  21.655  1.00  0.00    -0.001 C 
HETATM    6  C   UNL     1       5.095  -5.113  22.516  1.00  0.00    -0.002 C 
HETATM    7  C   UNL     1       5.396  -4.663  23.482  1.00  0.00    -0.003 C 
HETATM    8  C   UNL     1       7.391  -3.450  23.994  1.00  0.00     0.040 A 
ENDROOT
BRANCH   8   9
HETATM    9  C   UNL     1       7.871  -2.219  23.690  1.00  0.00     0.254 C 
HETATM   10  O   UNL     1       7.168  -1.449  23.229  1.00  0.00    -0.268 OA
HETATM   11  N   UNL     1       9.162  -2.162  24.003  1.00  0.00    -0.321 N 
ATOM     12  HN  UNL     1       9.665  -2.989  24.325  1.00  0.00     0.169 HD
BRANCH  11  13
HETATM   13  C   UNL     1       9.731  -1.070  23.891  1.00  0.00     0.060 A 
HETATM   14  C   UNL     1      10.350  -0.354  23.034  1.00  0.00     0.117 A 
HETATM   15  N   UNL     1      10.970   0.679  22.644  1.00  0.00    -0.373 N 
HETATM   16  C   UNL     1      10.957   1.223  23.763  1.00  0.00     0.088 A 
ATOM     17  HN  UNL     1      11.345   0.962  21.739  1.00  0.00     0.164 HD
HETATM   18  C   UNL     1      10.450   0.892  24.902  1.00  0.00     0.030 A 
HETATM   19  C   UNL     1       9.798  -0.155  25.240  1.00  0.00    -0.016 A 
HETATM   20  C   UNL     1       9.348  -0.460  26.153  1.00  0.00     0.026 C 
ENDBRANCH  11  13
ENDBRANCH   8   9
BRANCH   1  21
HETATM   21  C   UNL     1       7.109  -5.028  26.474  1.00  0.00     0.109 C 
HETATM   22  N   UNL     1       7.279  -5.846  27.340  1.00  0.00    -0.295 N 
ATOM     23  HN  UNL     1       8.157  -6.366  27.331  1.00  0.00     0.177 HD
BRANCH  22  24
HETATM   24  S   UNL     1       6.230  -6.183  28.509  1.00  0.00     0.226 S 
HETATM   25  C   UNL     1       4.747  -5.477  27.945  1.00  0.00     0.186 C 
HETATM   26  O   UNL     1       5.987  -7.598  28.640  1.00  0.00    -0.206 OA
HETATM   27  O   UNL     1       6.565  -5.570  29.733  1.00  0.00    -0.206 OA
ENDBRANCH  22  24
ENDBRANCH   1  21
TORSDOF 4
ENDMDL
MODEL 5
REMARK VINA RESULT:    -7.193      3.184      6.429
REMARK INTER + INTRA:          -9.518
REMARK INTER:                  -8.782
REMARK INTRA:                  -0.736
REMARK UNBOUND:                -0.643
REMARK  4 active torsions:
REMARK  status: ('A' for Active; 'I' for Inactive)
REMARK    1  A    between atoms: S_2  and  N_5 
REMARK    2  A    between atoms: C_7  and  C_8 
REMARK    3  A    between atoms: C_15  and  C_16 
REMARK       I    between atoms: C_16  and  N_18 
REMARK    4  A    between atoms: N_18  and  C_20 
ROOT
HETATM    1  C   UNL     1       8.237   0.853  21.566  1.00  0.00    -0.008 A 
HETATM    2  C   UNL     1       7.271   0.405  20.812  1.00  0.00     0.058 A 
HETATM    3  C   UNL     1       5.793   1.072  20.717  1.00  0.00    -0.003 C 
HETATM    4  C   UNL     1       5.174   1.091  19.784  1.00  0.00    -0.002 C 
HETATM    5  C   UNL     1       5.500   0.720  18.471  1.00  0.00    -0.001 C 
HETATM    6  C   UNL     1       6.792   0.351  18.361  1.00  0.00    -0.002 C 
HETATM    7  C   UNL     1       7.559   0.274  19.156  1.00  0.00    -0.003 C 
HETATM    8  C   UNL     1       7.342  -0.676  21.338  1.00  0.00     0.040 A 
ENDROOT
BRANCH   8   9
HETATM    9  C   UNL     1       7.233  -1.935  21.831  1.00  0.00     0.254 C 
HETATM   10  O   UNL     1       8.177  -2.485  22.157  1.00  0.00    -0.268 OA
HETATM   11  N   UNL     1       5.955  -2.302  21.820  1.00  0.00    -0.321 N 
ATOM     12  HN  UNL     1       5.239  -1.710  21.399  1.00  0.00     0.169 HD
BRANCH  11  13
HETATM   13  C   UNL     1       5.665  -3.386  22.340  1.00  0.00     0.060 A 
HETATM   14  C   UNL     1       5.543  -4.624  22.056  1.00  0.00     0.117 A 
HETATM   15  N   UNL     1       5.300  -5.838  22.322  1.00  0.00    -0.373 N 
HETATM   16  C   UNL     1       4.990  -5.613  23.506  1.00  0.00     0.088 A 
ATOM     17  HN  UNL     1       5.343  -6.692  21.766  1.00  0.00     0.164 HD
HETATM   18  C   UNL     1       4.972  -4.544  24.228  1.00  0.00     0.030 A 
HETATM   19  C   UNL     1       5.260  -3.337  23.919  1.00  0.00    -0.016 A 
HETATM   20  C   UNL     1       5.280  -2.435  24.481  1.00  0.00     0.026 C 
ENDBRANCH  11  13
ENDBRANCH   8   9
BRANCH   1  21
HETATM   21  C   UNL     1       9.003   1.680  21.977  1.00  0.00     0.109 C 
HETATM   22  N   UNL     1      10.046   2.272  22.084  1.00  0.00    -0.295 N 
ATOM     23  HN  UNL     1      10.575   2.452  21.231  1.00  0.00     0.177 HD
BRANCH  22  24
HETATM   24  S   UNL     1      10.667   2.799  23.469  1.00  0.00     0.226 S 
HETATM   25  C   UNL     1      11.604   1.451  24.037  1.00  0.00     0.186 C 
HETATM   26  O   UNL     1      11.591   3.889  23.278  1.00  0.00    -0.206 OA
HETATM   27  O   UNL     1       9.680   3.081  24.435  1.00  0.00    -0.206 OA
ENDBRANCH  22  24
ENDBRANCH   1  21
TORSDOF 4
ENDMDL
MODEL 6
REMARK VINA RESULT:    -7.160      4.189      6.411
REMARK INTER + INTRA:          -9.478
REMARK INTER:                  -8.733
REMARK INTRA:                  -0.745
REMARK UNBOUND:                -0.643
REMARK  4 active torsions:
REMARK  status: ('A' for Active; 'I' for Inactive)
REMARK    1  A    between atoms: S_2  and  N_5 
REMARK    2  A    between atoms: C_7  and  C_8 
REMARK    3  A    between atoms: C_15  and  C_16 
REMARK       I    between atoms: C_16  and  N_18 
REMARK    4  A    between atoms: N_18  and  C_20 
ROOT
HETATM    1  C   UNL     1       8.435  -3.388  23.937  1.00  0.00    -0.008 A 
HETATM    2  C   UNL     1       7.384  -4.162  23.954  1.00  0.00     0.058 A 
HETATM    3  C   UNL     1       5.870  -3.665  23.638  1.00  0.00    -0.003 C 
HETATM    4  C   UNL     1       5.097  -4.297  23.132  1.00  0.00    -0.002 C 
HETATM    5  C   UNL     1       5.211  -5.553  22.519  1.00  0.00    -0.001 C 
HETATM    6  C   UNL     1       6.486  -5.992  22.510  1.00  0.00    -0.002 C 
HETATM    7  C   UNL     1       7.384  -5.515  22.947  1.00  0.00    -0.003 C 
HETATM    8  C   UNL     1       7.620  -4.484  25.090  1.00  0.00     0.040 A 
ENDROOT
BRANCH   8   9
HETATM    9  C   UNL     1       7.687  -4.930  26.369  1.00  0.00     0.254 C 
HETATM   10  O   UNL     1       8.672  -4.841  26.936  1.00  0.00    -0.268 OA
HETATM   11  N   UNL     1       6.505  -5.429  26.722  1.00  0.00    -0.321 N 
ATOM     12  HN  UNL     1       5.746  -5.516  26.046  1.00  0.00     0.169 HD
BRANCH  11  13
HETATM   13  C   UNL     1       6.360  -5.782  27.898  1.00  0.00     0.060 A 
HETATM   14  C   UNL     1       6.666  -6.729  28.697  1.00  0.00     0.117 A 
HETATM   15  N   UNL     1       6.680  -7.317  29.819  1.00  0.00    -0.373 N 
HETATM   16  C   UNL     1       5.957  -6.471  30.376  1.00  0.00     0.088 A 
ATOM     17  HN  UNL     1       7.122  -8.175  30.147  1.00  0.00     0.164 HD
HETATM   18  C   UNL     1       5.427  -5.362  29.981  1.00  0.00     0.030 A 
HETATM   19  C   UNL     1       5.471  -4.789  28.839  1.00  0.00    -0.016 A 
HETATM   20  C   UNL     1       5.070  -3.874  28.476  1.00  0.00     0.026 C 
ENDBRANCH  11  13
ENDBRANCH   8   9
BRANCH   1  21
HETATM   21  C   UNL     1       9.202  -2.606  23.450  1.00  0.00     0.109 C 
HETATM   22  N   UNL     1      10.207  -2.228  22.905  1.00  0.00    -0.295 N 
ATOM     23  HN  UNL     1      10.575  -2.801  22.145  1.00  0.00     0.177 HD
BRANCH  22  24
HETATM   24  S   UNL     1      11.015  -0.892  23.284  1.00  0.00     0.226 S 
HETATM   25  C   UNL     1      10.317  -0.408  24.799  1.00  0.00     0.186 C 
HETATM   26  O   UNL     1      12.411  -1.146  23.537  1.00  0.00    -0.206 OA
HETATM   27  O   UNL     1      10.807   0.150  22.358  1.00  0.00    -0.206 OA
ENDBRANCH  22  24
ENDBRANCH   1  21
TORSDOF 4
ENDMDL
MODEL 7
REMARK VINA RESULT:    -7.039     14.500     16.734
REMARK INTER + INTRA:          -9.328
REMARK INTER:                  -8.567
REMARK INTRA:                  -0.761
REMARK UNBOUND:                -0.643
REMARK  4 active torsions:
REMARK  status: ('A' for Active; 'I' for Inactive)
REMARK    1  A    between atoms: S_2  and  N_5 
REMARK    2  A    between atoms: C_7  and  C_8 
REMARK    3  A    between atoms: C_15  and  C_16 
REMARK       I    between atoms: C_16  and  N_18 
REMARK    4  A    between atoms: N_18  and  C_20 
ROOT
HETATM    1  C   UNL     1      23.733  -3.073  23.698  1.00  0.00    -0.008 A 
HETATM    2  C   UNL     1      23.134  -1.914  23.703  1.00  0.00     0.058 A 
HETATM    3  C   UNL     1      21.545  -1.700  23.966  1.00  0.00    -0.003 C 
HETATM    4  C   UNL     1      21.112  -0.811  24.489  1.00  0.00    -0.002 C 
HETATM    5  C   UNL     1      21.745   0.241  25.168  1.00  0.00    -0.001 C 
HETATM    6  C   UNL     1      23.082   0.068  25.222  1.00  0.00    -0.002 C 
HETATM    7  C   UNL     1      23.693  -0.740  24.777  1.00  0.00    -0.003 C 
HETATM    8  C   UNL     1      23.531  -1.687  22.588  1.00  0.00     0.040 A 
ENDROOT
BRANCH   8   9
HETATM    9  C   UNL     1      23.837  -1.268  21.335  1.00  0.00     0.254 C 
HETATM   10  O   UNL     1      24.719  -0.560  21.189  1.00  0.00    -0.268 OA
HETATM   11  N   UNL     1      22.975  -1.798  20.473  1.00  0.00    -0.321 N 
ATOM     12  HN  UNL     1      22.176  -2.344  20.793  1.00  0.00     0.169 HD
BRANCH  11  13
HETATM   13  C   UNL     1      23.178  -1.604  19.268  1.00  0.00     0.060 A 
HETATM   14  C   UNL     1      22.912  -0.774  18.335  1.00  0.00     0.117 A 
HETATM   15  N   UNL     1      22.965  -0.334  17.149  1.00  0.00    -0.373 N 
HETATM   16  C   UNL     1      23.610  -1.307  16.718  1.00  0.00     0.088 A 
ATOM     17  HN  UNL     1      22.607   0.512  16.707  1.00  0.00     0.164 HD
HETATM   18  C   UNL     1      24.102  -2.361  17.278  1.00  0.00     0.030 A 
HETATM   19  C   UNL     1      24.050  -2.746  18.496  1.00  0.00    -0.016 A 
HETATM   20  C   UNL     1      24.453  -3.589  19.003  1.00  0.00     0.026 C 
ENDBRANCH  11  13
ENDBRANCH   8   9
BRANCH   1  21
HETATM   21  C   UNL     1      24.057  -4.132  24.158  1.00  0.00     0.109 C 
HETATM   22  N   UNL     1      23.920  -5.265  24.541  1.00  0.00    -0.295 N 
ATOM     23  HN  UNL     1      23.324  -5.881  23.988  1.00  0.00     0.177 HD
BRANCH  22  24
HETATM   24  S   UNL     1      24.605  -5.882  25.857  1.00  0.00     0.226 S 
HETATM   25  C   UNL     1      24.229  -4.723  27.096  1.00  0.00     0.186 C 
HETATM   26  O   UNL     1      23.999  -7.126  26.262  1.00  0.00    -0.206 OA
HETATM   27  O   UNL     1      26.008  -5.965  25.752  1.00  0.00    -0.206 OA
ENDBRANCH  22  24
ENDBRANCH   1  21
TORSDOF 4
ENDMDL
MODEL 8
REMARK VINA RESULT:    -6.844     25.036     26.946
REMARK INTER + INTRA:          -9.087
REMARK INTER:                  -8.321
REMARK INTRA:                  -0.767
REMARK UNBOUND:                -0.643
REMARK  4 active torsions:
REMARK  status: ('A' for Active; 'I' for Inactive)
REMARK    1  A    between atoms: S_2  and  N_5 
REMARK    2  A    between atoms: C_7  and  C_8 
REMARK    3  A    between atoms: C_15  and  C_16 
REMARK       I    between atoms: C_16  and  N_18 
REMARK    4  A    between atoms: N_18  and  C_20 
ROOT
HETATM    1  C   UNL     1       8.526  15.284   1.893  1.00  0.00    -0.008 A 
HETATM    2  C   UNL     1       8.665  16.582   1.879  1.00  0.00     0.058 A 
HETATM    3  C   UNL     1       9.201  17.435   0.604  1.00  0.00    -0.003 C 
HETATM    4  C   UNL     1       8.849  18.467   0.350  1.00  0.00    -0.002 C 
HETATM    5  C   UNL     1       7.812  19.233   0.901  1.00  0.00    -0.001 C 
HETATM    6  C   UNL     1       7.125  18.547   1.837  1.00  0.00    -0.002 C 
HETATM    7  C   UNL     1       7.310  17.525   2.219  1.00  0.00    -0.003 C 
HETATM    8  C   UNL     1       9.393  16.529   2.837  1.00  0.00     0.040 A 
ENDROOT
BRANCH   8   9
HETATM    9  C   UNL     1      10.260  16.677   3.870  1.00  0.00     0.254 C 
HETATM   10  O   UNL     1      10.966  15.820   4.126  1.00  0.00    -0.268 OA
HETATM   11  N   UNL     1      10.087  17.875   4.420  1.00  0.00    -0.321 N 
ATOM     12  HN  UNL     1       9.332  18.491   4.118  1.00  0.00     0.169 HD
BRANCH  11  13
HETATM   13  C   UNL     1      10.874  18.217   5.310  1.00  0.00     0.060 A 
HETATM   14  C   UNL     1      11.098  18.054   6.556  1.00  0.00     0.117 A 
HETATM   15  N   UNL     1      11.740  18.232   7.634  1.00  0.00    -0.373 N 
HETATM   16  C   UNL     1      12.549  19.031   7.129  1.00  0.00     0.088 A 
ATOM     17  HN  UNL     1      11.632  17.856   8.575  1.00  0.00     0.164 HD
HETATM   18  C   UNL     1      12.719  19.481   5.931  1.00  0.00     0.030 A 
HETATM   19  C   UNL     1      12.060  19.243   4.861  1.00  0.00    -0.016 A 
HETATM   20  C   UNL     1      12.174  19.572   3.857  1.00  0.00     0.026 C 
ENDBRANCH  11  13
ENDBRANCH   8   9
BRANCH   1  21
HETATM   21  C   UNL     1       8.112  14.230   1.500  1.00  0.00     0.109 C 
HETATM   22  N   UNL     1       7.413  13.474   0.874  1.00  0.00    -0.295 N 
ATOM     23  HN  UNL     1       7.187  13.729  -0.087  1.00  0.00     0.177 HD
BRANCH  22  24
HETATM   24  S   UNL     1       6.810  12.096   1.439  1.00  0.00     0.226 S 
HETATM   25  C   UNL     1       5.134  12.464   1.709  1.00  0.00     0.186 C 
HETATM   26  O   UNL     1       6.846  11.038   0.461  1.00  0.00    -0.206 OA
HETATM   27  O   UNL     1       7.377  11.720   2.674  1.00  0.00    -0.206 OA
ENDBRANCH  22  24
ENDBRANCH   1  21
TORSDOF 4
ENDMDL
MODEL 9
REMARK VINA RESULT:    -6.723     20.281     23.396
REMARK INTER + INTRA:          -8.938
REMARK INTER:                  -8.194
REMARK INTRA:                  -0.744
REMARK UNBOUND:                -0.643
REMARK  4 active torsions:
REMARK  status: ('A' for Active; 'I' for Inactive)
REMARK    1  A    between atoms: S_2  and  N_5 
REMARK    2  A    between atoms: C_7  and  C_8 
REMARK    3  A    between atoms: C_15  and  C_16 
REMARK       I    between atoms: C_16  and  N_18 
REMARK    4  A    between atoms: N_18  and  C_20 
ROOT
HETATM    1  C   UNL     1       6.522  12.088   3.064  1.00  0.00    -0.008 A 
HETATM    2  C   UNL     1       5.226  12.053   3.208  1.00  0.00     0.058 A 
HETATM    3  C   UNL     1       4.422  12.703   4.461  1.00  0.00    -0.003 C 
HETATM    4  C   UNL     1       3.403  13.160   4.382  1.00  0.00    -0.002 C 
HETATM    5  C   UNL     1       2.620  13.439   3.252  1.00  0.00    -0.001 C 
HETATM    6  C   UNL     1       3.272  13.151   2.107  1.00  0.00    -0.002 C 
HETATM    7  C   UNL     1       4.277  12.704   1.978  1.00  0.00    -0.003 C 
HETATM    8  C   UNL     1       5.236  10.850   3.140  1.00  0.00     0.040 A 
ENDROOT
BRANCH   8   9
HETATM    9  C   UNL     1       5.042   9.508   3.133  1.00  0.00     0.254 C 
HETATM   10  O   UNL     1       5.195   8.932   2.160  1.00  0.00    -0.268 OA
HETATM   11  N   UNL     1       4.676   9.111   4.348  1.00  0.00    -0.321 N 
ATOM     12  HN  UNL     1       4.494   9.785   5.091  1.00  0.00     0.169 HD
BRANCH  11  13
HETATM   13  C   UNL     1       4.564   7.895   4.544  1.00  0.00     0.060 A 
HETATM   14  C   UNL     1       5.266   6.833   4.637  1.00  0.00     0.117 A 
HETATM   15  N   UNL     1       5.441   5.592   4.815  1.00  0.00    -0.373 N 
HETATM   16  C   UNL     1       4.226   5.340   4.911  1.00  0.00     0.088 A 
ATOM     17  HN  UNL     1       6.276   5.009   4.863  1.00  0.00     0.164 HD
HETATM   18  C   UNL     1       3.166   6.075   4.893  1.00  0.00     0.030 A 
HETATM   19  C   UNL     1       3.043   7.339   4.742  1.00  0.00    -0.016 A 
HETATM   20  C   UNL     1       2.200   7.986   4.740  1.00  0.00     0.026 C 
ENDBRANCH  11  13
ENDBRANCH   8   9
BRANCH   1  21
HETATM   21  C   UNL     1       7.594  12.620   2.981  1.00  0.00     0.109 C 
HETATM   22  N   UNL     1       8.783  12.752   3.119  1.00  0.00    -0.295 N 
ATOM     23  HN  UNL     1       9.369  11.932   2.962  1.00  0.00     0.177 HD
BRANCH  22  24
HETATM   24  S   UNL     1       9.516  14.120   3.532  1.00  0.00     0.226 S 
HETATM   25  C   UNL     1       8.218  15.126   4.098  1.00  0.00     0.186 C 
HETATM   26  O   UNL     1      10.417  13.948   4.645  1.00  0.00    -0.206 OA
HETATM   27  O   UNL     1      10.120  14.766   2.434  1.00  0.00    -0.206 OA
ENDBRANCH  22  24
ENDBRANCH   1  21
TORSDOF 4
ENDMDL
