stable:False satoms:11 tatoms:24 sratio:0.4583333333333333
  -OEChem-08062411023D

 31 31  0     0  0  0  0  0  0999 V2000
   -6.3008   -5.3824  -25.9118 Cl  0  0  0  0  0  0  0  0  0  0  0  0
   -7.9979   -4.6716  -25.7275 S   0  0  0  0  0  0  0  0  0  0  0  0
   -8.8686   -5.7937  -25.6157 O   0  0  0  0  0  0  0  0  0  0  0  0
   -8.1803   -3.8221  -26.8561 O   0  0  0  0  0  0  0  0  0  0  0  0
   -7.8926   -3.8716  -24.3239 N   0  0  0  0  0  0  0  0  0  0  0  0
   -8.7167   -3.0391  -23.9466 C   0  0  0  0  0  0  0  0  0  0  0  0
   -9.3054   -2.1194  -23.5703 C   0  0  0  0  0  0  0  0  0  0  0  0
  -10.0722   -1.0201  -23.2737 C   0  0  0  0  0  0  0  0  0  0  0  0
  -11.1857   -0.2995  -24.0305 C   0  0  0  0  0  0  0  0  0  0  0  0
  -11.3657    0.4494  -24.8197 O   0  0  0  0  0  0  0  0  0  0  0  0
  -12.2989   -0.5850  -22.1239 H   0  0  0  0  0  0  0  0  0  0  0  0
  -12.4487   -0.8161  -23.1888 C   0  0  0  0  0  0  0  0  0  0  0  0
  -13.3594   -0.3146  -23.5482 H   0  0  0  0  0  0  0  0  0  0  0  0
   -9.6408   -0.4776  -22.3047 C   0  0  0  0  0  0  0  0  0  0  0  0
   -8.9583    0.1541  -21.3336 C   0  0  0  0  0  0  0  0  0  0  0  0
   -9.3596    1.2342  -20.9910 O   0  0  0  0  0  0  0  0  0  0  0  0
   -7.8919   -0.5919  -20.9417 N   0  0  0  0  0  0  0  0  0  0  0  0
   -7.1453   -0.0762  -20.0254 C   0  0  0  0  0  0  0  0  0  0  0  0
   -7.3143    0.1895  -18.7284 C   0  0  0  0  0  0  0  0  0  0  0  0
   -6.9089    0.5556  -17.6873 N   0  0  0  0  0  0  0  0  0  0  0  0
   -5.7742    0.9025  -17.9689 C   0  0  0  0  0  0  0  0  0  0  0  0
   -5.2796    0.8247  -19.1019 C   0  0  0  0  0  0  0  0  0  0  0  0
   -5.7279    0.3230  -20.2459 C   0  0  0  0  0  0  0  0  0  0  0  0
   -5.2191    0.1876  -21.1785 H   0  0  0  0  0  0  0  0  0  0  0  0
   -7.0148   -3.3933  -24.3488 H   0  0  0  0  0  0  0  0  0  0  0  0
  -12.5544   -1.9036  -23.3167 H   0  0  0  0  0  0  0  0  0  0  0  0
  -10.5528   -0.5685  -21.7334 H   0  0  0  0  0  0  0  0  0  0  0  0
   -7.6976   -1.4881  -21.3405 H   0  0  0  0  0  0  0  0  0  0  0  0
   -8.3486   -0.0570  -18.5391 H   0  0  0  0  0  0  0  0  0  0  0  0
   -5.1592    1.3044  -17.1773 H   0  0  0  0  0  0  0  0  0  0  0  0
   -4.2887    1.2484  -19.1727 H   0  0  0  0  0  0  0  0  0  0  0  0
 20 21  2  0  0  0  0
 19 20  1  0  0  0  0
 21 22  1  0  0  0  0
 18 19  2  0  0  0  0
 22 23  2  0  0  0  0
 18 23  1  0  0  0  0
 17 18  1  0  0  0  0
 23 24  1  0  0  0  0
 15 16  2  0  0  0  0
 15 17  1  0  0  0  0
 14 15  1  0  0  0  0
 12 13  1  0  0  0  0
  8 14  2  3  0  0  0
 11 12  1  0  0  0  0
  9 12  1  0  0  0  0
  7  8  1  0  0  0  0
  8  9  1  0  0  0  0
  6  7  3  0  0  0  0
  9 10  2  0  0  0  0
  5  6  1  0  0  0  0
  2  5  1  0  0  0  0
  2  3  2  0  0  0  0
  1  2  1  0  0  0  0
  2  4  2  0  0  0  0
  5 25  1  0  0  0  0
 12 26  1  0  0  0  0
 14 27  1  0  0  0  0
 17 28  1  0  0  0  0
 19 29  1  0  0  0  0
 21 30  1  0  0  0  0
 22 31  1  0  0  0  0
M  END
> <Chemgauss4>
-10.972290

$$$$
