stable:False satoms:11 tatoms:24 sratio:0.4583333333333333
  -OEChem-08062411023D

 31 31  0     0  0  0  0  0  0999 V2000
    6.0118   -4.6760   26.5029 Cl  0  0  0  0  0  0  0  0  0  0  0  0
    7.7860   -4.2357   26.2244 S   0  0  0  0  0  0  0  0  0  0  0  0
    8.4849   -5.4768   26.1982 O   0  0  0  0  0  0  0  0  0  0  0  0
    8.1220   -3.3269   27.2684 O   0  0  0  0  0  0  0  0  0  0  0  0
    7.7519   -3.5532   24.7567 N   0  0  0  0  0  0  0  0  0  0  0  0
    8.6736   -2.8838   24.2910 C   0  0  0  0  0  0  0  0  0  0  0  0
    9.3749   -2.0946   23.8226 C   0  0  0  0  0  0  0  0  0  0  0  0
   10.2803   -1.1470   23.4143 C   0  0  0  0  0  0  0  0  0  0  0  0
   11.5076   -0.5315   24.0827 C   0  0  0  0  0  0  0  0  0  0  0  0
   11.8164    0.2490   24.7979 O   0  0  0  0  0  0  0  0  0  0  0  0
   12.5095   -1.1381   22.1895 H   0  0  0  0  0  0  0  0  0  0  0  0
   12.6579   -1.2955   23.2680 C   0  0  0  0  0  0  0  0  0  0  0  0
   13.6412   -0.9012   23.5641 H   0  0  0  0  0  0  0  0  0  0  0  0
    9.9003   -0.6338   22.4085 C   0  0  0  0  0  0  0  0  0  0  0  0
    9.2845    0.0033   21.3971 C   0  0  0  0  0  0  0  0  0  0  0  0
    9.8242    0.9806   20.9514 O   0  0  0  0  0  0  0  0  0  0  0  0
    8.1115   -0.6124   21.0935 N   0  0  0  0  0  0  0  0  0  0  0  0
    7.4176   -0.0758   20.1484 C   0  0  0  0  0  0  0  0  0  0  0  0
    7.5823    0.0497   18.8298 C   0  0  0  0  0  0  0  0  0  0  0  0
    7.2009    0.3790   17.7676 N   0  0  0  0  0  0  0  0  0  0  0  0
    6.1361    0.9087   18.0376 C   0  0  0  0  0  0  0  0  0  0  0  0
    5.6709    1.0012   19.1818 C   0  0  0  0  0  0  0  0  0  0  0  0
    6.0787    0.5410   20.3579 C   0  0  0  0  0  0  0  0  0  0  0  0
    5.5849    0.5615   21.3081 H   0  0  0  0  0  0  0  0  0  0  0  0
    6.9520   -2.9531   24.7544 H   0  0  0  0  0  0  0  0  0  0  0  0
   12.6122   -2.3716   23.4913 H   0  0  0  0  0  0  0  0  0  0  0  0
   10.7721   -0.9041   21.8311 H   0  0  0  0  0  0  0  0  0  0  0  0
    7.8045   -1.4334   21.5749 H   0  0  0  0  0  0  0  0  0  0  0  0
    8.5648   -0.3586   18.6446 H   0  0  0  0  0  0  0  0  0  0  0  0
    5.5601    1.3251   17.2244 H   0  0  0  0  0  0  0  0  0  0  0  0
    4.7528    1.5678   19.2323 H   0  0  0  0  0  0  0  0  0  0  0  0
 20 21  2  0  0  0  0
 19 20  1  0  0  0  0
 21 22  1  0  0  0  0
 18 19  2  0  0  0  0
 22 23  2  0  0  0  0
 18 23  1  0  0  0  0
 17 18  1  0  0  0  0
 23 24  1  0  0  0  0
 15 16  2  0  0  0  0
 15 17  1  0  0  0  0
 14 15  1  0  0  0  0
 12 13  1  0  0  0  0
  8 14  2  3  0  0  0
 11 12  1  0  0  0  0
  9 12  1  0  0  0  0
  7  8  1  0  0  0  0
  8  9  1  0  0  0  0
  6  7  3  0  0  0  0
  9 10  2  0  0  0  0
  5  6  1  0  0  0  0
  2  5  1  0  0  0  0
  2  3  2  0  0  0  0
  1  2  1  0  0  0  0
  2  4  2  0  0  0  0
  5 25  1  0  0  0  0
 12 26  1  0  0  0  0
 14 27  1  0  0  0  0
 17 28  1  0  0  0  0
 19 29  1  0  0  0  0
 21 30  1  0  0  0  0
 22 31  1  0  0  0  0
M  END
> <Chemgauss4>
-11.059442

$$$$
