REMARK  1 active torsions:
REMARK  status: ('A' for Active; 'I' for Inactive)
REMARK    1  A    between atoms: C_1  and  N_11 
REMARK       I    between atoms: N_3  and  C_4 
REMARK       I    between atoms: C_4  and  N_11 
REMARK       I    between atoms: C_7  and  N_16 
REMARK       I    between atoms: C_7  and  N_21 
ROOT
HETATM    1  C   UNL     1       8.566  -1.877  21.022  1.00  0.00     0.177 C 
HETATM    2  C   UNL     1      10.645  -0.756  20.037  1.00  0.00     0.015 C 
HETATM    3  H   UNL     1       8.601  -3.228  25.740  1.00  0.00     0.160 HD
HETATM    4  C   UNL     1       9.410  -1.796  24.595  1.00  0.00     0.319 C 
HETATM    5  O   UNL     1       9.724  -0.691  25.027  1.00  0.00    -0.247 OA
HETATM    6  C   UNL     1       9.370  -1.621  22.311  1.00  0.00     0.112 C 
HETATM    7  C   UNL     1       9.468  -1.435  19.884  1.00  0.00     0.007 C 
HETATM    8  N   UNL     1      10.490  -0.911  22.390  1.00  0.00    -0.354 N 
ATOM      9  HN  UNL     1      10.886  -0.711  23.308  1.00  0.00     0.166 HD
HETATM   10  N   UNL     1       8.910  -2.177  23.393  1.00  0.00    -0.296 N 
ATOM     11  HN  UNL     1       8.183  -2.890  23.338  1.00  0.00     0.172 HD
HETATM   12  C   UNL     1      11.101  -0.460  21.319  1.00  0.00     0.089 C 
HETATM   13  H   UNL     1      10.415  -3.023  25.762  1.00  0.00     0.160 HD
HETATM   14  N   UNL     1       9.495  -2.950  25.361  1.00  0.00    -0.352 N 
ENDROOT
BRANCH   1  15
HETATM   15  N   UNL     1       7.251  -1.414  21.127  1.00  0.00    -0.331 N 
HETATM   16  C   UNL     1       6.565  -1.149  22.235  1.00  0.00     0.323 C 
HETATM   17  N   UNL     1       7.089  -0.014  22.706  1.00  0.00    -0.083 NA
HETATM   18  O   UNL     1       5.580  -1.755  22.696  1.00  0.00    -0.252 OA
HETATM   19  C   UNL     1       6.498   0.684  23.653  1.00  0.00     0.326 A 
HETATM   20  O   UNL     1       7.712   0.266  23.978  1.00  0.00    -0.276 OA
ATOM     21  HN  UNL     1       6.758  -1.261  20.247  1.00  0.00     0.165 HD
ENDBRANCH   1  15
TORSDOF 1
