MODEL 1
REMARK VINA RESULT:    -6.397      0.000      0.000
REMARK INTER + INTRA:          -6.967
REMARK INTER:                  -6.771
REMARK INTRA:                  -0.196
REMARK UNBOUND:                -0.196
REMARK  1 active torsions:
REMARK  status: ('A' for Active; 'I' for Inactive)
REMARK    1  A    between atoms: C_1  and  N_11 
REMARK       I    between atoms: N_3  and  C_4 
REMARK       I    between atoms: C_4  and  N_11 
REMARK       I    between atoms: C_7  and  N_16 
REMARK       I    between atoms: C_7  and  N_21 
ROOT
HETATM    1  C   UNL     1       9.777  14.446   2.807  1.00  0.00     0.177 C 
HETATM    2  C   UNL     1       7.437  13.749   3.573  1.00  0.00     0.015 C 
HETATM    3  H   UNL     1      10.226  18.077  -0.464  1.00  0.00     0.160 HD
HETATM    4  C   UNL     1       8.980  17.551   1.015  1.00  0.00     0.319 C 
HETATM    5  O   UNL     1       8.322  18.364   1.657  1.00  0.00    -0.247 OA
HETATM    6  C   UNL     1       8.943  15.592   2.202  1.00  0.00     0.112 C 
HETATM    7  C   UNL     1       8.771  13.490   3.422  1.00  0.00     0.007 C 
HETATM    8  N   UNL     1       7.652  15.806   2.429  1.00  0.00    -0.354 N 
ATOM      9  HN  UNL     1       7.219  16.654   2.066  1.00  0.00     0.166 HD
HETATM   10  N   UNL     1       9.569  16.386   1.384  1.00  0.00    -0.296 N 
ATOM     11  HN  UNL     1      10.491  16.136   1.026  1.00  0.00     0.172 HD
HETATM   12  C   UNL     1       6.918  14.955   3.109  1.00  0.00     0.089 C 
HETATM   13  H   UNL     1       8.447  17.926  -0.843  1.00  0.00     0.160 HD
HETATM   14  N   UNL     1       9.288  17.730  -0.327  1.00  0.00    -0.352 N 
ENDROOT
BRANCH   1  15
HETATM   15  N   UNL     1      10.866  14.925   3.542  1.00  0.00    -0.331 N 
HETATM   16  C   UNL     1      10.858  15.833   4.513  1.00  0.00     0.323 C 
HETATM   17  N   UNL     1      10.316  15.213   5.565  1.00  0.00    -0.083 NA
HETATM   18  O   UNL     1      11.339  16.982   4.500  1.00  0.00    -0.252 OA
HETATM   19  C   UNL     1      10.375  15.722   6.778  1.00  0.00     0.326 A 
HETATM   20  O   UNL     1       9.140  15.543   6.335  1.00  0.00    -0.276 OA
ATOM     21  HN  UNL     1      11.776  14.530   3.304  1.00  0.00     0.165 HD
ENDBRANCH   1  15
TORSDOF 1
ENDMDL
MODEL 2
REMARK VINA RESULT:    -6.236      2.907      4.853
REMARK INTER + INTRA:          -6.796
REMARK INTER:                  -6.363
REMARK INTRA:                  -0.433
REMARK UNBOUND:                -0.196
REMARK  1 active torsions:
REMARK  status: ('A' for Active; 'I' for Inactive)
REMARK    1  A    between atoms: C_1  and  N_11 
REMARK       I    between atoms: N_3  and  C_4 
REMARK       I    between atoms: C_4  and  N_11 
REMARK       I    between atoms: C_7  and  N_16 
REMARK       I    between atoms: C_7  and  N_21 
ROOT
HETATM    1  C   UNL     1       9.005  18.262   1.125  1.00  0.00     0.177 C 
HETATM    2  C   UNL     1       8.280  20.240  -0.327  1.00  0.00     0.015 C 
HETATM    3  H   UNL     1      12.991  18.720   3.952  1.00  0.00     0.160 HD
HETATM    4  C   UNL     1      11.531  19.890   3.236  1.00  0.00     0.319 C 
HETATM    5  O   UNL     1      11.150  20.909   3.805  1.00  0.00    -0.247 OA
HETATM    6  C   UNL     1       9.924  19.361   1.691  1.00  0.00     0.112 C 
HETATM    7  C   UNL     1       8.263  18.905  -0.032  1.00  0.00     0.007 C 
HETATM    8  N   UNL     1       9.853  20.653   1.388  1.00  0.00    -0.354 N 
ATOM      9  HN  UNL     1      10.437  21.314   1.899  1.00  0.00     0.166 HD
HETATM   10  N   UNL     1      10.854  18.966   2.509  1.00  0.00    -0.296 N 
ATOM     11  HN  UNL     1      11.072  17.974   2.603  1.00  0.00     0.172 HD
HETATM   12  C   UNL     1       9.052  21.101   0.449  1.00  0.00     0.089 C 
HETATM   13  H   UNL     1      13.460  20.212   3.010  1.00  0.00     0.160 HD
HETATM   14  N   UNL     1      12.849  19.459   3.278  1.00  0.00    -0.352 N 
ENDROOT
BRANCH   1  15
HETATM   15  N   UNL     1       8.321  17.582   2.138  1.00  0.00    -0.331 N 
HETATM   16  C   UNL     1       8.263  16.270   2.345  1.00  0.00     0.323 C 
HETATM   17  N   UNL     1       9.466  15.939   2.823  1.00  0.00    -0.083 NA
HETATM   18  O   UNL     1       7.283  15.512   2.224  1.00  0.00    -0.252 OA
HETATM   19  C   UNL     1       9.696  14.767   3.376  1.00  0.00     0.326 A 
HETATM   20  O   UNL     1      10.447  15.010   2.313  1.00  0.00    -0.276 OA
ATOM     21  HN  UNL     1       7.804  18.163   2.797  1.00  0.00     0.165 HD
ENDBRANCH   1  15
TORSDOF 1
ENDMDL
MODEL 3
REMARK VINA RESULT:    -6.067     23.677     25.987
REMARK INTER + INTRA:          -6.617
REMARK INTER:                  -6.163
REMARK INTRA:                  -0.454
REMARK UNBOUND:                -0.196
REMARK  1 active torsions:
REMARK  status: ('A' for Active; 'I' for Inactive)
REMARK    1  A    between atoms: C_1  and  N_11 
REMARK       I    between atoms: N_3  and  C_4 
REMARK       I    between atoms: C_4  and  N_11 
REMARK       I    between atoms: C_7  and  N_16 
REMARK       I    between atoms: C_7  and  N_21 
ROOT
HETATM    1  C   UNL     1       8.702  -2.094  22.746  1.00  0.00     0.177 C 
HETATM    2  C   UNL     1      11.039  -1.054  22.828  1.00  0.00     0.015 C 
HETATM    3  H   UNL     1       5.113   0.301  20.405  1.00  0.00     0.160 HD
HETATM    4  C   UNL     1       7.101   0.090  20.264  1.00  0.00     0.319 C 
HETATM    5  O   UNL     1       7.714   0.206  19.207  1.00  0.00    -0.247 OA
HETATM    6  C   UNL     1       8.521  -0.945  21.735  1.00  0.00     0.112 C 
HETATM    7  C   UNL     1      10.100  -1.924  23.310  1.00  0.00     0.007 C 
HETATM    8  N   UNL     1       9.493  -0.164  21.277  1.00  0.00    -0.354 N 
ATOM      9  HN  UNL     1       9.287   0.497  20.529  1.00  0.00     0.166 HD
HETATM   10  N   UNL     1       7.305  -0.724  21.330  1.00  0.00    -0.296 N 
ATOM     11  HN  UNL     1       6.515  -1.157  21.809  1.00  0.00     0.172 HD
HETATM   12  C   UNL     1      10.712  -0.220  21.762  1.00  0.00     0.089 C 
HETATM   13  H   UNL     1       6.147   1.806  20.408  1.00  0.00     0.160 HD
HETATM   14  N   UNL     1       5.962   0.828  20.554  1.00  0.00    -0.352 N 
ENDROOT
BRANCH   1  15
HETATM   15  N   UNL     1       8.272  -3.318  22.226  1.00  0.00    -0.331 N 
HETATM   16  C   UNL     1       7.373  -4.153  22.739  1.00  0.00     0.323 C 
HETATM   17  N   UNL     1       6.193  -3.560  22.537  1.00  0.00    -0.083 NA
HETATM   18  O   UNL     1       7.558  -5.288  23.216  1.00  0.00    -0.252 OA
HETATM   19  C   UNL     1       5.056  -4.206  22.689  1.00  0.00     0.326 A 
HETATM   20  O   UNL     1       5.181  -3.154  23.483  1.00  0.00    -0.276 OA
ATOM     21  HN  UNL     1       8.701  -3.607  21.346  1.00  0.00     0.165 HD
ENDBRANCH   1  15
TORSDOF 1
ENDMDL
MODEL 4
REMARK VINA RESULT:    -6.004     23.441     25.331
REMARK INTER + INTRA:          -6.551
REMARK INTER:                  -6.088
REMARK INTRA:                  -0.464
REMARK UNBOUND:                -0.196
REMARK  1 active torsions:
REMARK  status: ('A' for Active; 'I' for Inactive)
REMARK    1  A    between atoms: C_1  and  N_11 
REMARK       I    between atoms: N_3  and  C_4 
REMARK       I    between atoms: C_4  and  N_11 
REMARK       I    between atoms: C_7  and  N_16 
REMARK       I    between atoms: C_7  and  N_21 
ROOT
HETATM    1  C   UNL     1       7.666  -0.214  21.099  1.00  0.00     0.177 C 
HETATM    2  C   UNL     1       6.437   0.441  18.952  1.00  0.00     0.015 C 
HETATM    3  H   UNL     1       5.554  -3.407  24.170  1.00  0.00     0.160 HD
HETATM    4  C   UNL     1       5.597  -3.041  22.200  1.00  0.00     0.319 C 
HETATM    5  O   UNL     1       5.419  -3.912  21.353  1.00  0.00    -0.247 OA
HETATM    6  C   UNL     1       6.526  -1.250  21.115  1.00  0.00     0.112 C 
HETATM    7  C   UNL     1       7.387   0.682  19.906  1.00  0.00     0.007 C 
HETATM    8  N   UNL     1       5.662  -1.457  20.127  1.00  0.00    -0.354 N 
ATOM      9  HN  UNL     1       5.013  -2.241  20.193  1.00  0.00     0.166 HD
HETATM   10  N   UNL     1       6.403  -1.950  22.204  1.00  0.00    -0.296 N 
ATOM     11  HN  UNL     1       6.905  -1.681  23.050  1.00  0.00     0.172 HD
HETATM   12  C   UNL     1       5.621  -0.681  19.069  1.00  0.00     0.089 C 
HETATM   13  H   UNL     1       3.968  -3.161  23.299  1.00  0.00     0.160 HD
HETATM   14  N   UNL     1       4.960  -3.055  23.433  1.00  0.00    -0.352 N 
ENDROOT
BRANCH   1  15
HETATM   15  N   UNL     1       8.917  -0.812  21.280  1.00  0.00    -0.331 N 
HETATM   16  C   UNL     1       9.811  -0.563  22.233  1.00  0.00     0.323 C 
HETATM   17  N   UNL     1       9.299  -1.106  23.341  1.00  0.00    -0.083 NA
HETATM   18  O   UNL     1      10.931  -0.032  22.120  1.00  0.00    -0.252 OA
HETATM   19  C   UNL     1      10.020  -1.274  24.430  1.00  0.00     0.326 A 
HETATM   20  O   UNL     1       8.962  -0.497  24.606  1.00  0.00    -0.276 OA
ATOM     21  HN  UNL     1       9.175  -1.527  20.599  1.00  0.00     0.165 HD
ENDBRANCH   1  15
TORSDOF 1
ENDMDL
MODEL 5
REMARK VINA RESULT:    -5.992     21.786     23.544
REMARK INTER + INTRA:          -6.538
REMARK INTER:                  -6.280
REMARK INTRA:                  -0.258
REMARK UNBOUND:                -0.196
REMARK  1 active torsions:
REMARK  status: ('A' for Active; 'I' for Inactive)
REMARK    1  A    between atoms: C_1  and  N_11 
REMARK       I    between atoms: N_3  and  C_4 
REMARK       I    between atoms: C_4  and  N_11 
REMARK       I    between atoms: C_7  and  N_16 
REMARK       I    between atoms: C_7  and  N_21 
ROOT
HETATM    1  C   UNL     1       7.568   0.533  21.588  1.00  0.00     0.177 C 
HETATM    2  C   UNL     1       5.996   2.235  22.674  1.00  0.00     0.015 C 
HETATM    3  H   UNL     1       6.394  -1.329  17.201  1.00  0.00     0.160 HD
HETATM    4  C   UNL     1       6.137   0.384  18.209  1.00  0.00     0.319 C 
HETATM    5  O   UNL     1       6.001   1.472  17.657  1.00  0.00    -0.247 OA
HETATM    6  C   UNL     1       6.623   0.819  20.406  1.00  0.00     0.112 C 
HETATM    7  C   UNL     1       7.003   1.314  22.760  1.00  0.00     0.007 C 
HETATM    8  N   UNL     1       5.690   1.764  20.379  1.00  0.00    -0.354 N 
ATOM      9  HN  UNL     1       5.190   1.942  19.508  1.00  0.00     0.166 HD
HETATM   10  N   UNL     1       6.748   0.041  19.370  1.00  0.00    -0.296 N 
ATOM     11  HN  UNL     1       7.299  -0.815  19.432  1.00  0.00     0.172 HD
HETATM   12  C   UNL     1       5.394   2.476  21.442  1.00  0.00     0.089 C 
HETATM   13  H   UNL     1       4.696  -0.694  17.411  1.00  0.00     0.160 HD
HETATM   14  N   UNL     1       5.666  -0.798  17.657  1.00  0.00    -0.352 N 
ENDROOT
BRANCH   1  15
HETATM   15  N   UNL     1       8.912   0.647  21.220  1.00  0.00    -0.331 N 
HETATM   16  C   UNL     1       9.986   0.438  21.976  1.00  0.00     0.323 C 
HETATM   17  N   UNL     1      10.054  -0.888  22.126  1.00  0.00    -0.083 NA
HETATM   18  O   UNL     1      10.817   1.271  22.382  1.00  0.00    -0.252 OA
HETATM   19  C   UNL     1      11.129  -1.479  22.606  1.00  0.00     0.326 A 
HETATM   20  O   UNL     1      10.037  -1.691  23.325  1.00  0.00    -0.276 OA
ATOM     21  HN  UNL     1       9.091   0.924  20.254  1.00  0.00     0.165 HD
ENDBRANCH   1  15
TORSDOF 1
ENDMDL
MODEL 6
REMARK VINA RESULT:    -5.857     23.312     25.890
REMARK INTER + INTRA:          -6.396
REMARK INTER:                  -6.171
REMARK INTRA:                  -0.225
REMARK UNBOUND:                -0.196
REMARK  1 active torsions:
REMARK  status: ('A' for Active; 'I' for Inactive)
REMARK    1  A    between atoms: C_1  and  N_11 
REMARK       I    between atoms: N_3  and  C_4 
REMARK       I    between atoms: C_4  and  N_11 
REMARK       I    between atoms: C_7  and  N_16 
REMARK       I    between atoms: C_7  and  N_21 
ROOT
HETATM    1  C   UNL     1      10.662  -1.005  22.524  1.00  0.00     0.177 C 
HETATM    2  C   UNL     1      10.760  -0.279  24.976  1.00  0.00     0.015 C 
HETATM    3  H   UNL     1       7.630  -4.644  21.239  1.00  0.00     0.160 HD
HETATM    4  C   UNL     1       7.702  -3.176  22.602  1.00  0.00     0.319 C 
HETATM    5  O   UNL     1       6.698  -2.664  23.088  1.00  0.00    -0.247 OA
HETATM    6  C   UNL     1       9.451  -1.776  23.082  1.00  0.00     0.112 C 
HETATM    7  C   UNL     1      11.306  -0.334  23.724  1.00  0.00     0.007 C 
HETATM    8  N   UNL     1       8.947  -1.638  24.303  1.00  0.00    -0.354 N 
ATOM      9  HN  UNL     1       8.078  -2.116  24.538  1.00  0.00     0.166 HD
HETATM   10  N   UNL     1       8.909  -2.648  22.283  1.00  0.00    -0.296 N 
ATOM     11  HN  UNL     1       9.387  -2.930  21.427  1.00  0.00     0.172 HD
HETATM   12  C   UNL     1       9.538  -0.902  25.216  1.00  0.00     0.089 C 
HETATM   13  H   UNL     1       7.454  -5.089  23.001  1.00  0.00     0.160 HD
HETATM   14  N   UNL     1       7.755  -4.513  22.233  1.00  0.00    -0.352 N 
ENDROOT
BRANCH   1  15
HETATM   15  N   UNL     1      10.334  -0.277  21.376  1.00  0.00    -0.331 N 
HETATM   16  C   UNL     1       9.170   0.292  21.076  1.00  0.00     0.323 C 
HETATM   17  N   UNL     1       9.089   1.360  21.875  1.00  0.00    -0.083 NA
HETATM   18  O   UNL     1       8.365  -0.023  20.181  1.00  0.00    -0.252 OA
HETATM   19  C   UNL     1       8.191   2.303  21.685  1.00  0.00     0.326 A 
HETATM   20  O   UNL     1       8.096   1.708  22.864  1.00  0.00    -0.276 OA
ATOM     21  HN  UNL     1      11.077  -0.171  20.685  1.00  0.00     0.165 HD
ENDBRANCH   1  15
TORSDOF 1
ENDMDL
MODEL 7
REMARK VINA RESULT:    -5.838     24.663     26.690
REMARK INTER + INTRA:          -6.375
REMARK INTER:                  -6.113
REMARK INTRA:                  -0.263
REMARK UNBOUND:                -0.196
REMARK  1 active torsions:
REMARK  status: ('A' for Active; 'I' for Inactive)
REMARK    1  A    between atoms: C_1  and  N_11 
REMARK       I    between atoms: N_3  and  C_4 
REMARK       I    between atoms: C_4  and  N_11 
REMARK       I    between atoms: C_7  and  N_16 
REMARK       I    between atoms: C_7  and  N_21 
ROOT
HETATM    1  C   UNL     1       9.393  -1.836  22.351  1.00  0.00     0.177 C 
HETATM    2  C   UNL     1       8.840   0.412  21.261  1.00  0.00     0.015 C 
HETATM    3  H   UNL     1      14.005  -2.719  23.778  1.00  0.00     0.160 HD
HETATM    4  C   UNL     1      12.778  -1.145  23.596  1.00  0.00     0.319 C 
HETATM    5  O   UNL     1      12.879  -0.134  24.284  1.00  0.00    -0.247 OA
HETATM    6  C   UNL     1      10.703  -1.074  22.626  1.00  0.00     0.112 C 
HETATM    7  C   UNL     1       8.546  -0.900  21.508  1.00  0.00     0.007 C 
HETATM    8  N   UNL     1      10.903   0.219  22.398  1.00  0.00    -0.354 N 
ATOM      9  HN  UNL     1      11.771   0.650  22.715  1.00  0.00     0.166 HD
HETATM   10  N   UNL     1      11.689  -1.781  23.096  1.00  0.00    -0.296 N 
ATOM     11  HN  UNL     1      11.643  -2.800  23.088  1.00  0.00     0.172 HD
HETATM   12  C   UNL     1      10.014   0.957  21.775  1.00  0.00     0.089 C 
HETATM   13  H   UNL     1      14.563  -1.297  22.778  1.00  0.00     0.160 HD
HETATM   14  N   UNL     1      13.877  -1.897  23.205  1.00  0.00    -0.352 N 
ENDROOT
BRANCH   1  15
HETATM   15  N   UNL     1       8.883  -2.431  23.509  1.00  0.00    -0.331 N 
HETATM   16  C   UNL     1       7.715  -3.049  23.663  1.00  0.00     0.323 C 
HETATM   17  N   UNL     1       7.852  -4.215  23.025  1.00  0.00    -0.083 NA
HETATM   18  O   UNL     1       6.732  -2.685  24.335  1.00  0.00    -0.252 OA
HETATM   19  C   UNL     1       6.986  -5.195  23.176  1.00  0.00     0.326 A 
HETATM   20  O   UNL     1       7.096  -4.769  21.927  1.00  0.00    -0.276 OA
ATOM     21  HN  UNL     1       9.478  -2.386  24.336  1.00  0.00     0.165 HD
ENDBRANCH   1  15
TORSDOF 1
ENDMDL
MODEL 8
REMARK VINA RESULT:    -5.739     22.568     24.311
REMARK INTER + INTRA:          -6.271
REMARK INTER:                  -5.847
REMARK INTRA:                  -0.424
REMARK UNBOUND:                -0.196
REMARK  1 active torsions:
REMARK  status: ('A' for Active; 'I' for Inactive)
REMARK    1  A    between atoms: C_1  and  N_11 
REMARK       I    between atoms: N_3  and  C_4 
REMARK       I    between atoms: C_4  and  N_11 
REMARK       I    between atoms: C_7  and  N_16 
REMARK       I    between atoms: C_7  and  N_21 
ROOT
HETATM    1  C   UNL     1      25.613  -0.720  12.868  1.00  0.00     0.177 C 
HETATM    2  C   UNL     1      26.770  -1.643  10.780  1.00  0.00     0.015 C 
HETATM    3  H   UNL     1      24.473   4.050  13.044  1.00  0.00     0.160 HD
HETATM    4  C   UNL     1      24.644   2.610  11.661  1.00  0.00     0.319 C 
HETATM    5  O   UNL     1      24.015   2.615  10.608  1.00  0.00    -0.247 OA
HETATM    6  C   UNL     1      25.468   0.488  11.924  1.00  0.00     0.112 C 
HETATM    7  C   UNL     1      26.439  -1.739  12.103  1.00  0.00     0.007 C 
HETATM    8  N   UNL     1      25.772   0.494  10.631  1.00  0.00    -0.354 N 
ATOM      9  HN  UNL     1      25.538   1.313  10.070  1.00  0.00     0.166 HD
HETATM   10  N   UNL     1      25.035   1.589  12.464  1.00  0.00    -0.296 N 
ATOM     11  HN  UNL     1      24.990   1.683  13.479  1.00  0.00     0.172 HD
HETATM   12  C   UNL     1      26.367  -0.525  10.054  1.00  0.00     0.089 C 
HETATM   13  H   UNL     1      25.578   4.344  11.621  1.00  0.00     0.160 HD
HETATM   14  N   UNL     1      25.074   3.775  12.281  1.00  0.00    -0.352 N 
ENDROOT
BRANCH   1  15
HETATM   15  N   UNL     1      24.394  -1.070  13.458  1.00  0.00    -0.331 N 
HETATM   16  C   UNL     1      24.135  -1.252  14.749  1.00  0.00     0.323 C 
HETATM   17  N   UNL     1      24.134  -0.026  15.280  1.00  0.00    -0.083 NA
HETATM   18  O   UNL     1      23.852  -2.311  15.338  1.00  0.00    -0.252 OA
HETATM   19  C   UNL     1      23.667   0.208  16.489  1.00  0.00     0.326 A 
HETATM   20  O   UNL     1      24.943   0.532  16.338  1.00  0.00    -0.276 OA
ATOM     21  HN  UNL     1      23.609  -1.202  12.820  1.00  0.00     0.165 HD
ENDBRANCH   1  15
TORSDOF 1
ENDMDL
MODEL 9
REMARK VINA RESULT:    -5.542     22.447     24.252
REMARK INTER + INTRA:          -6.062
REMARK INTER:                  -5.612
REMARK INTRA:                  -0.449
REMARK UNBOUND:                -0.196
REMARK  1 active torsions:
REMARK  status: ('A' for Active; 'I' for Inactive)
REMARK    1  A    between atoms: C_1  and  N_11 
REMARK       I    between atoms: N_3  and  C_4 
REMARK       I    between atoms: C_4  and  N_11 
REMARK       I    between atoms: C_7  and  N_16 
REMARK       I    between atoms: C_7  and  N_21 
ROOT
HETATM    1  C   UNL     1       6.676  -0.315  20.651  1.00  0.00     0.177 C 
HETATM    2  C   UNL     1       4.895   0.627  19.073  1.00  0.00     0.015 C 
HETATM    3  H   UNL     1       9.552   2.800  23.123  1.00  0.00     0.160 HD
HETATM    4  C   UNL     1       7.681   2.750  22.407  1.00  0.00     0.319 C 
HETATM    5  O   UNL     1       6.758   3.389  22.902  1.00  0.00    -0.247 OA
HETATM    6  C   UNL     1       6.732   1.175  21.041  1.00  0.00     0.112 C 
HETATM    7  C   UNL     1       5.696  -0.397  19.495  1.00  0.00     0.007 C 
HETATM    8  N   UNL     1       5.889   2.111  20.621  1.00  0.00    -0.354 N 
ATOM      9  HN  UNL     1       5.947   3.047  21.023  1.00  0.00     0.166 HD
HETATM   10  N   UNL     1       7.710   1.526  21.823  1.00  0.00    -0.296 N 
ATOM     11  HN  UNL     1       8.487   0.889  21.996  1.00  0.00     0.172 HD
HETATM   12  C   UNL     1       4.981   1.866  19.705  1.00  0.00     0.089 C 
HETATM   13  H   UNL     1       9.014   4.144  22.011  1.00  0.00     0.160 HD
HETATM   14  N   UNL     1       8.989   3.214  22.394  1.00  0.00    -0.352 N 
ENDROOT
BRANCH   1  15
HETATM   15  N   UNL     1       6.548  -1.142  21.771  1.00  0.00    -0.331 N 
HETATM   16  C   UNL     1       7.326  -2.159  22.128  1.00  0.00     0.323 C 
HETATM   17  N   UNL     1       8.454  -1.596  22.571  1.00  0.00    -0.083 NA
HETATM   18  O   UNL     1       7.049  -3.372  22.150  1.00  0.00    -0.252 OA
HETATM   19  C   UNL     1       9.357  -2.281  23.240  1.00  0.00     0.326 A 
HETATM   20  O   UNL     1       9.815  -1.753  22.115  1.00  0.00    -0.276 OA
ATOM     21  HN  UNL     1       5.762  -0.940  22.390  1.00  0.00     0.165 HD
ENDBRANCH   1  15
TORSDOF 1
ENDMDL
