stable:False satoms:9 tatoms:24 sratio:0.375
  -OEChem-07092417493D

 24 25  0     1  0  0  0  0  0999 V2000
    6.5729   -4.9000   26.4452 C   0  0  0  0  0  0  0  0  0  0  0  0
    8.2054   -4.3029   26.1050 S   0  0  0  0  0  0  0  0  0  0  0  0
    9.0695   -5.4869   26.0991 O   0  0  0  0  0  0  0  0  0  0  0  0
    8.6042   -3.4108   27.1395 O   0  0  0  0  0  0  0  0  0  0  0  0
    8.1376   -3.5839   24.6944 N   0  0  0  0  0  0  0  0  0  0  0  0
    8.9732   -2.9223   24.1244 C   0  0  0  0  0  0  0  0  0  0  0  0
    9.4135   -1.9657   23.4850 C   0  0  0  0  0  0  0  0  0  0  0  0
   10.3012   -1.1251   23.2628 C   0  0  1  0  0  0  0  0  0  0  0  0
   11.0127   -0.0085   24.2854 C   0  0  0  0  0  0  0  0  0  0  0  0
   12.0749    0.3098   24.2449 C   0  0  0  0  0  0  0  0  0  0  0  0
   13.1107   -0.1713   23.4681 C   0  0  0  0  0  0  0  0  0  0  0  0
   12.7123   -1.2500   22.6667 C   0  0  0  0  0  0  0  0  0  0  0  0
   11.8130   -1.7602   22.5310 C   0  0  0  0  0  0  0  0  0  0  0  0
    9.7310   -0.5370   22.3514 C   0  0  0  0  0  0  0  0  0  0  0  0
    9.0695    0.0464   21.3957 C   0  0  0  0  0  0  0  0  0  0  0  0
    9.5405    1.0261   21.0079 O   0  0  0  0  0  0  0  0  0  0  0  0
    7.9492   -0.5766   21.0433 N   0  0  0  0  0  0  0  0  0  0  0  0
    7.1857   -0.0912   20.1572 C   0  0  0  0  0  0  0  0  0  0  0  0
    7.2435    0.0011   18.8193 C   0  0  0  0  0  0  0  0  0  0  0  0
    6.8108    0.3278   17.7474 N   0  0  0  0  0  0  0  0  0  0  0  0
    5.6284    0.9130   18.2205 C   0  0  0  0  0  0  0  0  0  0  0  0
    5.2675    0.9543   19.4092 C   0  0  0  0  0  0  0  0  0  0  0  0
    5.8467    0.5441   20.5277 C   0  0  0  0  0  0  0  0  0  0  0  0
    5.3100    0.6797   22.0656 C   0  0  0  0  0  0  0  0  0  0  0  0
 20 21  2  0  0  0  0
 19 20  1  0  0  0  0
 21 22  1  0  0  0  0
 18 19  2  0  0  0  0
 22 23  2  0  0  0  0
 18 23  1  0  0  0  0
 17 18  1  0  0  0  0
 23 24  1  0  0  0  0
 15 16  2  0  0  0  0
 15 17  1  0  0  0  0
 14 15  1  0  0  0  0
  8 14  1  0  0  0  0
 12 13  1  0  0  0  0
  8 13  1  0  0  0  0
 11 12  2  0  0  0  0
  7  8  1  0  0  0  0
  8  9  1  0  0  0  0
 10 11  1  0  0  0  0
  6  7  2  3  0  0  0
  5  6  1  0  0  0  0
  9 10  2  0  0  0  0
  2  5  1  0  0  0  0
  2  3  2  0  0  0  0
  1  2  1  0  0  0  0
  2  4  2  0  0  0  0
M  END
> <Shapegauss>
-285.657745

$$$$
