stable:False satoms:9 tatoms:24 sratio:0.375
  -OEChem-08062416213D

 45 46  0     1  0  0  0  0  0999 V2000
   -6.5211   -5.4919  -26.1401 C   0  0  0  0  0  0  0  0  0  0  0  0
   -8.1505   -4.8510  -25.8722 S   0  0  0  0  0  0  0  0  0  0  0  0
   -9.0277   -6.0212  -25.7737 O   0  0  0  0  0  0  0  0  0  0  0  0
   -8.5281   -4.0482  -26.9849 O   0  0  0  0  0  0  0  0  0  0  0  0
   -8.0900   -4.0128  -24.5287 N   0  0  0  0  0  0  0  0  0  0  0  0
   -8.9244   -3.2958  -24.0281 C   0  0  0  0  0  0  0  0  0  0  0  0
   -9.3610   -2.2829  -23.4794 C   0  0  0  0  0  0  0  0  0  0  0  0
  -10.2417   -1.4172  -23.3415 C   0  0  1  0  0  0  0  0  0  0  0  0
  -10.9296   -0.3866  -24.4654 C   0  0  0  0  0  0  0  0  0  0  0  0
  -11.9886   -0.0553  -24.4652 C   0  0  0  0  0  0  0  0  0  0  0  0
  -13.0381   -0.4566  -23.6618 C   0  0  0  0  0  0  0  0  0  0  0  0
  -12.6603   -1.4655  -22.7652 C   0  0  0  0  0  0  0  0  0  0  0  0
  -11.7683   -1.9710  -22.5751 C   0  0  0  0  0  0  0  0  0  0  0  0
   -9.6749   -0.7579  -22.4779 C   0  0  0  0  0  0  0  0  0  0  0  0
   -9.0174   -0.1003  -21.5687 C   0  0  0  0  0  0  0  0  0  0  0  0
   -9.4817    0.9141  -21.2730 O   0  0  0  0  0  0  0  0  0  0  0  0
   -7.9080   -0.7016  -21.1504 N   0  0  0  0  0  0  0  0  0  0  0  0
   -7.1488   -0.1487  -20.3009 C   0  0  0  0  0  0  0  0  0  0  0  0
   -7.2201    0.0601  -18.9768 C   0  0  0  0  0  0  0  0  0  0  0  0
   -6.7954    0.4744  -17.9323 N   0  0  0  0  0  0  0  0  0  0  0  0
   -5.6015    1.0043  -18.4405 C   0  0  0  0  0  0  0  0  0  0  0  0
   -5.2273    0.9384  -19.6240 C   0  0  0  0  0  0  0  0  0  0  0  0
   -5.7989    0.4384  -20.7094 C   0  0  0  0  0  0  0  0  0  0  0  0
   -5.2441    0.4344  -22.2468 C   0  0  0  0  0  0  0  0  0  0  0  0
   -6.5076   -6.0855  -27.0661 H   0  0  0  0  0  0  0  0  0  0  0  0
   -5.8093   -4.6580  -26.2289 H   0  0  0  0  0  0  0  0  0  0  0  0
   -6.2342   -6.1301  -25.2914 H   0  0  0  0  0  0  0  0  0  0  0  0
   -7.2941   -3.4188  -24.6456 H   0  0  0  0  0  0  0  0  0  0  0  0
   -9.8142   -3.9023  -24.1109 H   0  0  0  0  0  0  0  0  0  0  0  0
   -8.6003   -2.0133  -22.7616 H   0  0  0  0  0  0  0  0  0  0  0  0
  -10.2924   -0.0142  -25.2539 H   0  0  0  0  0  0  0  0  0  0  0  0
  -12.2358    0.6930  -25.2037 H   0  0  0  0  0  0  0  0  0  0  0  0
  -14.0335   -0.0414  -23.7180 H   0  0  0  0  0  0  0  0  0  0  0  0
  -13.4720   -1.7911  -22.1315 H   0  0  0  0  0  0  0  0  0  0  0  0
  -11.6086   -1.9354  -21.4873 H   0  0  0  0  0  0  0  0  0  0  0  0
  -11.9212   -3.0140  -22.8894 H   0  0  0  0  0  0  0  0  0  0  0  0
  -10.5082   -0.9244  -21.7794 H   0  0  0  0  0  0  0  0  0  0  0  0
   -9.8512    0.1681  -23.0448 H   0  0  0  0  0  0  0  0  0  0  0  0
   -7.6696   -1.6031  -21.5117 H   0  0  0  0  0  0  0  0  0  0  0  0
   -8.1675   -0.3810  -18.7045 H   0  0  0  0  0  0  0  0  0  0  0  0
   -4.9513    1.5132  -17.7444 H   0  0  0  0  0  0  0  0  0  0  0  0
   -4.2532    1.3700  -19.8005 H   0  0  0  0  0  0  0  0  0  0  0  0
   -4.6609   -0.4812  -22.4243 H   0  0  0  0  0  0  0  0  0  0  0  0
   -6.0946    0.4681  -22.9435 H   0  0  0  0  0  0  0  0  0  0  0  0
   -4.6034    1.3140  -22.4076 H   0  0  0  0  0  0  0  0  0  0  0  0
 20 21  2  0  0  0  0
 19 20  1  0  0  0  0
 21 22  1  0  0  0  0
 18 19  2  0  0  0  0
 22 23  2  0  0  0  0
 18 23  1  0  0  0  0
 17 18  1  0  0  0  0
 23 24  1  0  0  0  0
 15 16  2  0  0  0  0
 15 17  1  0  0  0  0
 14 15  1  0  0  0  0
  8 14  1  0  0  0  0
 12 13  1  0  0  0  0
  8 13  1  0  0  0  0
 11 12  2  0  0  0  0
  7  8  1  0  0  0  0
  8  9  1  0  0  0  0
 10 11  1  0  0  0  0
  6  7  2  3  0  0  0
  5  6  1  0  0  0  0
  9 10  2  0  0  0  0
  2  5  1  0  0  0  0
  2  3  2  0  0  0  0
  1  2  1  0  0  0  0
  2  4  2  0  0  0  0
  1 25  1  0  0  0  0
  1 26  1  0  0  0  0
  1 27  1  0  0  0  0
  5 28  1  0  0  0  0
  6 29  1  0  0  0  0
  7 30  1  0  0  0  0
  9 31  1  0  0  0  0
 10 32  1  0  0  0  0
 11 33  1  0  0  0  0
 12 34  1  0  0  0  0
 13 35  1  0  0  0  0
 13 36  1  0  0  0  0
 14 37  1  0  0  0  0
 14 38  1  0  0  0  0
 17 39  1  0  0  0  0
 19 40  1  0  0  0  0
 21 41  1  0  0  0  0
 22 42  1  0  0  0  0
 24 43  1  0  0  0  0
 24 44  1  0  0  0  0
 24 45  1  0  0  0  0
M  END
> <Chemgauss4>
-12.722122

$$$$
