stable:False satoms:9 tatoms:24 sratio:0.375
  -OEChem-08062416213D

 45 46  0     1  0  0  0  0  0999 V2000
    6.5879   -5.3656   26.1971 C   0  0  0  0  0  0  0  0  0  0  0  0
    8.2217   -4.7245   25.9581 S   0  0  0  0  0  0  0  0  0  0  0  0
    9.0998   -5.8947   25.8689 O   0  0  0  0  0  0  0  0  0  0  0  0
    8.5818   -3.9264   27.0799 O   0  0  0  0  0  0  0  0  0  0  0  0
    8.1832   -3.8807   24.6172 N   0  0  0  0  0  0  0  0  0  0  0  0
    9.0258   -3.1621   24.1330 C   0  0  0  0  0  0  0  0  0  0  0  0
    9.4716   -2.1471   23.5955 C   0  0  0  0  0  0  0  0  0  0  0  0
   10.3548   -1.2814   23.4753 C   0  0  1  0  0  0  0  0  0  0  0  0
   11.0251   -0.2557   24.6144 C   0  0  0  0  0  0  0  0  0  0  0  0
   12.0841    0.0750   24.6325 C   0  0  0  0  0  0  0  0  0  0  0  0
   13.1461   -0.3235   23.8444 C   0  0  0  0  0  0  0  0  0  0  0  0
   12.7823   -1.3285   22.9377 C   0  0  0  0  0  0  0  0  0  0  0  0
   11.8932   -1.8328   22.7313 C   0  0  0  0  0  0  0  0  0  0  0  0
    9.8022   -0.6182   22.6055 C   0  0  0  0  0  0  0  0  0  0  0  0
    9.1597    0.0434   21.6886 C   0  0  0  0  0  0  0  0  0  0  0  0
    9.6291    1.0588   21.4045 O   0  0  0  0  0  0  0  0  0  0  0  0
    8.0568   -0.5556   21.2501 N   0  0  0  0  0  0  0  0  0  0  0  0
    7.3116    0.0011   20.3907 C   0  0  0  0  0  0  0  0  0  0  0  0
    7.4043    0.2153   19.0688 C   0  0  0  0  0  0  0  0  0  0  0  0
    6.9966    0.6341   18.0194 N   0  0  0  0  0  0  0  0  0  0  0  0
    5.7950    1.1625   18.5105 C   0  0  0  0  0  0  0  0  0  0  0  0
    5.4018    1.0920   19.6875 C   0  0  0  0  0  0  0  0  0  0  0  0
    5.9556    0.5873   20.7799 C   0  0  0  0  0  0  0  0  0  0  0  0
    5.3762    0.5773   22.3082 C   0  0  0  0  0  0  0  0  0  0  0  0
    6.5593   -5.9629   27.1203 H   0  0  0  0  0  0  0  0  0  0  0  0
    5.8751   -4.5317   26.2779 H   0  0  0  0  0  0  0  0  0  0  0  0
    6.3144   -6.0002   25.3413 H   0  0  0  0  0  0  0  0  0  0  0  0
    7.3858   -3.2868   24.7237 H   0  0  0  0  0  0  0  0  0  0  0  0
    9.9139   -3.7693   24.2276 H   0  0  0  0  0  0  0  0  0  0  0  0
    8.7227   -1.8743   22.8668 H   0  0  0  0  0  0  0  0  0  0  0  0
   10.3754    0.1138   25.3940 H   0  0  0  0  0  0  0  0  0  0  0  0
   12.3197    0.8201   25.3780 H   0  0  0  0  0  0  0  0  0  0  0  0
   14.1407    0.0909   23.9183 H   0  0  0  0  0  0  0  0  0  0  0  0
   13.6039   -1.6520   22.3158 H   0  0  0  0  0  0  0  0  0  0  0  0
   11.7511   -1.7927   21.6413 H   0  0  0  0  0  0  0  0  0  0  0  0
   12.0406   -2.8772   23.0437 H   0  0  0  0  0  0  0  0  0  0  0  0
   10.6466   -0.7823   21.9198 H   0  0  0  0  0  0  0  0  0  0  0  0
    9.9698    0.3054   23.1789 H   0  0  0  0  0  0  0  0  0  0  0  0
    7.8123   -1.4584   21.6037 H   0  0  0  0  0  0  0  0  0  0  0  0
    8.3558   -0.2251   18.8100 H   0  0  0  0  0  0  0  0  0  0  0  0
    5.1562    1.6746   17.8061 H   0  0  0  0  0  0  0  0  0  0  0  0
    4.4251    1.5233   19.8502 H   0  0  0  0  0  0  0  0  0  0  0  0
    4.7899   -0.3388   22.4726 H   0  0  0  0  0  0  0  0  0  0  0  0
    6.2155    0.6077   23.0186 H   0  0  0  0  0  0  0  0  0  0  0  0
    4.7334    1.4565   22.4623 H   0  0  0  0  0  0  0  0  0  0  0  0
 20 21  2  0  0  0  0
 19 20  1  0  0  0  0
 21 22  1  0  0  0  0
 18 19  2  0  0  0  0
 22 23  2  0  0  0  0
 18 23  1  0  0  0  0
 17 18  1  0  0  0  0
 23 24  1  0  0  0  0
 15 16  2  0  0  0  0
 15 17  1  0  0  0  0
 14 15  1  0  0  0  0
  8 14  1  0  0  0  0
 12 13  1  0  0  0  0
  8 13  1  0  0  0  0
 11 12  2  0  0  0  0
  7  8  1  0  0  0  0
  8  9  1  0  0  0  0
 10 11  1  0  0  0  0
  6  7  2  3  0  0  0
  5  6  1  0  0  0  0
  9 10  2  0  0  0  0
  2  5  1  0  0  0  0
  2  3  2  0  0  0  0
  1  2  1  0  0  0  0
  2  4  2  0  0  0  0
  1 25  1  0  0  0  0
  1 26  1  0  0  0  0
  1 27  1  0  0  0  0
  5 28  1  0  0  0  0
  6 29  1  0  0  0  0
  7 30  1  0  0  0  0
  9 31  1  0  0  0  0
 10 32  1  0  0  0  0
 11 33  1  0  0  0  0
 12 34  1  0  0  0  0
 13 35  1  0  0  0  0
 13 36  1  0  0  0  0
 14 37  1  0  0  0  0
 14 38  1  0  0  0  0
 17 39  1  0  0  0  0
 19 40  1  0  0  0  0
 21 41  1  0  0  0  0
 22 42  1  0  0  0  0
 24 43  1  0  0  0  0
 24 44  1  0  0  0  0
 24 45  1  0  0  0  0
M  END
> <Chemgauss4>
-12.748900

$$$$
