stable:False satoms:18 tatoms:24 sratio:0.75
  -OEChem-07092417373D

 24 24  0     1  0  0  0  0  0999 V2000
    7.1934   -4.8200   26.1199 H   0  0  0  0  0  0  0  0  0  0  0  0
    8.2108   -4.3970   26.1199 C   0  0  0  0  0  0  0  0  0  0  0  0
    8.9621   -5.2109   26.1172 H   0  0  0  0  0  0  0  0  0  0  0  0
    8.3375   -3.7598   27.0111 H   0  0  0  0  0  0  0  0  0  0  0  0
    8.3448   -3.6023   24.9223 N   0  3  0  0  0  0  0  0  0  0  0  0
    9.1602   -2.9412   24.5677 C   0  0  0  0  0  0  0  0  0  0  0  0
    9.3786   -1.4169   23.0097 N   0  0  0  0  0  0  0  0  0  0  0  0
    9.8179   -1.8144   24.1069 C   0  0  1  0  0  0  0  0  0  0  0  0
   10.8317   -0.7628   25.0815 S   0  0  0  0  0  0  0  0  0  0  0  0
   12.0102   -0.4658   23.9137 C   0  0  0  0  0  0  0  0  0  0  0  0
   12.9971   -0.1079   24.1373 H   0  0  0  0  0  0  0  0  0  0  0  0
   12.3490   -0.9764   21.8909 H   0  0  0  0  0  0  0  0  0  0  0  0
   11.5879   -0.7543   22.6355 C   0  0  0  0  0  0  0  0  0  0  0  0
   10.1752   -0.6839   22.3299 C   0  0  0  0  0  0  0  0  0  0  0  0
    9.3486    0.1129   21.2988 C   0  0  0  0  0  0  0  0  0  0  0  0
    9.8295    1.0577   20.7127 O   0  0  0  0  0  0  0  0  0  0  0  0
    8.0734   -0.2614   21.2166 N   0  0  0  0  0  0  0  0  0  0  0  0
    7.3613   -0.0813   20.0605 C   0  0  0  0  0  0  0  0  0  0  0  0
    7.8568   -0.3578   18.9746 O   0  0  0  0  0  0  0  0  0  0  0  0
    6.1319    0.7227   18.0131 H   0  0  0  0  0  0  0  0  0  0  0  0
    5.5531    0.9000   18.9234 C   0  0  0  0  0  0  0  0  0  0  0  0
    4.6566    1.4936   18.9142 H   0  0  0  0  0  0  0  0  0  0  0  0
    5.9908    0.4276   20.1302 C   0  0  0  0  0  0  0  0  0  0  0  0
    5.4259    0.4096   21.0889 H   0  0  0  0  0  0  0  0  0  0  0  0
 20 21  1  0  0  0  0
 21 22  1  0  0  0  0
 21 23  2  0  0  0  0
 18 19  2  0  0  0  0
 18 23  1  0  0  0  0
 17 18  1  0  0  0  0
 23 24  1  0  0  0  0
 15 16  2  0  0  0  0
 15 17  1  0  0  0  0
 14 15  1  0  0  0  0
 12 13  1  0  0  0  0
 13 14  1  0  0  0  0
  7 14  2  0  0  0  0
 10 13  2  0  0  0  0
  7  8  1  0  0  0  0
 10 11  1  0  0  0  0
  9 10  1  0  0  0  0
  6  8  1  0  0  0  0
  8  9  1  0  0  0  0
  5  6  1  0  0  0  0
  2  5  1  0  0  0  0
  2  3  1  0  0  0  0
  1  2  1  0  0  0  0
  2  4  1  0  0  0  0
M  CHG  1   5   1
M  END
> <Shapegauss>
-188.153107

$$$$
