stable:False satoms:18 tatoms:24 sratio:0.75
  -OEChem-08062403323D

 30 30  0     1  0  0  0  0  0999 V2000
    5.6613   -5.7189   24.1489 H   0  0  0  0  0  0  0  0  0  0  0  0
    6.6507   -5.3307   24.4395 C   0  0  0  0  0  0  0  0  0  0  0  0
    7.3956   -6.1504   24.4438 H   0  0  0  0  0  0  0  0  0  0  0  0
    6.5793   -4.8709   25.4394 H   0  0  0  0  0  0  0  0  0  0  0  0
    7.0238   -4.3343   23.4640 N   0  3  0  0  0  0  0  0  0  0  0  0
    7.8874   -3.6418   23.4157 C   0  0  0  0  0  0  0  0  0  0  0  0
    8.4100   -1.8648   22.2462 N   0  0  0  0  0  0  0  0  0  0  0  0
    8.6135   -2.4680   23.3184 C   0  0  1  0  0  0  0  0  0  0  0  0
    9.3867   -1.6402   24.6602 S   0  0  0  0  0  0  0  0  0  0  0  0
   10.7808   -1.1666   23.8397 C   0  0  0  0  0  0  0  0  0  0  0  0
   11.6941   -0.8825   24.3266 H   0  0  0  0  0  0  0  0  0  0  0  0
   11.5436   -1.3077   21.8736 H   0  0  0  0  0  0  0  0  0  0  0  0
   10.6403   -1.2050   22.4707 C   0  0  0  0  0  0  0  0  0  0  0  0
    9.3227   -1.0417   21.8950 C   0  0  0  0  0  0  0  0  0  0  0  0
    8.7218   -0.0477   20.8791 C   0  0  0  0  0  0  0  0  0  0  0  0
    9.3036    0.9750   20.5909 O   0  0  0  0  0  0  0  0  0  0  0  0
    7.4971   -0.3660   20.4646 N   0  0  0  0  0  0  0  0  0  0  0  0
    7.0419    0.0417   19.2388 C   0  0  0  0  0  0  0  0  0  0  0  0
    7.7580   -0.0448   18.2484 O   0  0  0  0  0  0  0  0  0  0  0  0
    6.2609    1.2395   17.1640 H   0  0  0  0  0  0  0  0  0  0  0  0
    5.5015    1.2630   17.9500 C   0  0  0  0  0  0  0  0  0  0  0  0
    4.6198    1.8723   17.8633 H   0  0  0  0  0  0  0  0  0  0  0  0
    5.6813    0.5662   19.1133 C   0  0  0  0  0  0  0  0  0  0  0  0
    4.9277    0.3885   19.9126 H   0  0  0  0  0  0  0  0  0  0  0  0
    6.2303   -3.7267   23.4300 H   0  0  0  0  0  0  0  0  0  0  0  0
    8.3822   -4.1450   22.5719 H   0  0  0  0  0  0  0  0  0  0  0  0
    8.3446   -3.9736   24.3596 H   0  0  0  0  0  0  0  0  0  0  0  0
    9.5415   -2.9579   22.9885 H   0  0  0  0  0  0  0  0  0  0  0  0
    6.9018   -0.9098   21.0562 H   0  0  0  0  0  0  0  0  0  0  0  0
    7.0854   -4.8502   22.6095 H   0  0  0  0  0  0  0  0  0  0  0  0
 20 21  1  0  0  0  0
 21 22  1  0  0  0  0
 21 23  2  0  0  0  0
 18 19  2  0  0  0  0
 18 23  1  0  0  0  0
 17 18  1  0  0  0  0
 23 24  1  0  0  0  0
 15 16  2  0  0  0  0
 15 17  1  0  0  0  0
 14 15  1  0  0  0  0
 12 13  1  0  0  0  0
 13 14  1  0  0  0  0
  7 14  2  0  0  0  0
 10 13  2  0  0  0  0
  7  8  1  0  0  0  0
 10 11  1  0  0  0  0
  9 10  1  0  0  0  0
  6  8  1  0  0  0  0
  8  9  1  0  0  0  0
  5  6  1  0  0  0  0
  2  5  1  0  0  0  0
  2  3  1  0  0  0  0
  1  2  1  0  0  0  0
  2  4  1  0  0  0  0
  5 25  1  0  0  0  0
  6 26  1  0  0  0  0
  6 27  1  0  0  0  0
  8 28  1  0  0  0  0
 17 29  1  0  0  0  0
  5 30  1  0  0  0  0
M  CHG  1   5   1
M  END
> <Chemgauss4>
-6.915617

$$$$
