stable:False satoms:18 tatoms:24 sratio:0.75
  -OEChem-08062403323D

 30 30  0     1  0  0  0  0  0999 V2000
   -5.9193   -5.7782  -24.1986 H   0  0  0  0  0  0  0  0  0  0  0  0
   -6.9087   -5.3901  -24.4892 C   0  0  0  0  0  0  0  0  0  0  0  0
   -7.6537   -6.2098  -24.4934 H   0  0  0  0  0  0  0  0  0  0  0  0
   -6.8374   -4.9302  -25.4891 H   0  0  0  0  0  0  0  0  0  0  0  0
   -7.2819   -4.3937  -23.5136 N   0  3  0  0  0  0  0  0  0  0  0  0
   -8.1455   -3.7012  -23.4654 C   0  0  0  0  0  0  0  0  0  0  0  0
   -8.6681   -1.9242  -22.2959 N   0  0  0  0  0  0  0  0  0  0  0  0
   -8.8716   -2.5273  -23.3681 C   0  0  1  0  0  0  0  0  0  0  0  0
   -9.6448   -1.6995  -24.7099 S   0  0  0  0  0  0  0  0  0  0  0  0
  -11.0388   -1.2260  -23.8894 C   0  0  0  0  0  0  0  0  0  0  0  0
  -11.9522   -0.9418  -24.3763 H   0  0  0  0  0  0  0  0  0  0  0  0
  -11.8017   -1.3670  -21.9233 H   0  0  0  0  0  0  0  0  0  0  0  0
  -10.8984   -1.2643  -22.5204 C   0  0  0  0  0  0  0  0  0  0  0  0
   -9.5808   -1.1010  -21.9447 C   0  0  0  0  0  0  0  0  0  0  0  0
   -8.9799   -0.1070  -20.9287 C   0  0  0  0  0  0  0  0  0  0  0  0
   -9.5617    0.9157  -20.6406 O   0  0  0  0  0  0  0  0  0  0  0  0
   -7.7552   -0.4253  -20.5143 N   0  0  0  0  0  0  0  0  0  0  0  0
   -7.3000   -0.0177  -19.2885 C   0  0  0  0  0  0  0  0  0  0  0  0
   -8.0161   -0.1042  -18.2981 O   0  0  0  0  0  0  0  0  0  0  0  0
   -6.5190    1.1802  -17.2137 H   0  0  0  0  0  0  0  0  0  0  0  0
   -5.7595    1.2036  -17.9997 C   0  0  0  0  0  0  0  0  0  0  0  0
   -4.8778    1.8129  -17.9130 H   0  0  0  0  0  0  0  0  0  0  0  0
   -5.9394    0.5068  -19.1630 C   0  0  0  0  0  0  0  0  0  0  0  0
   -5.1857    0.3291  -19.9623 H   0  0  0  0  0  0  0  0  0  0  0  0
   -6.4884   -3.7861  -23.4797 H   0  0  0  0  0  0  0  0  0  0  0  0
   -8.6403   -4.2043  -22.6216 H   0  0  0  0  0  0  0  0  0  0  0  0
   -8.6027   -4.0330  -24.4093 H   0  0  0  0  0  0  0  0  0  0  0  0
   -9.7996   -3.0173  -23.0382 H   0  0  0  0  0  0  0  0  0  0  0  0
   -7.1599   -0.9692  -21.1058 H   0  0  0  0  0  0  0  0  0  0  0  0
   -7.3435   -4.9096  -22.6592 H   0  0  0  0  0  0  0  0  0  0  0  0
 20 21  1  0  0  0  0
 21 22  1  0  0  0  0
 21 23  2  0  0  0  0
 18 19  2  0  0  0  0
 18 23  1  0  0  0  0
 17 18  1  0  0  0  0
 23 24  1  0  0  0  0
 15 16  2  0  0  0  0
 15 17  1  0  0  0  0
 14 15  1  0  0  0  0
 12 13  1  0  0  0  0
 13 14  1  0  0  0  0
  7 14  2  0  0  0  0
 10 13  2  0  0  0  0
  7  8  1  0  0  0  0
 10 11  1  0  0  0  0
  9 10  1  0  0  0  0
  6  8  1  0  0  0  0
  8  9  1  0  0  0  0
  5  6  1  0  0  0  0
  2  5  1  0  0  0  0
  2  3  1  0  0  0  0
  1  2  1  0  0  0  0
  2  4  1  0  0  0  0
  5 25  1  0  0  0  0
  6 26  1  0  0  0  0
  6 27  1  0  0  0  0
  8 28  1  0  0  0  0
 17 29  1  0  0  0  0
  5 30  1  0  0  0  0
M  CHG  1   5   1
M  END
> <Chemgauss4>
-6.915637

$$$$
