MODEL 1
REMARK VINA RESULT:    -5.016      0.000      0.000
REMARK INTER + INTRA:          -6.249
REMARK INTER:                  -5.749
REMARK INTRA:                  -0.500
REMARK UNBOUND:                -0.500
REMARK  3 active torsions:
REMARK  status: ('A' for Active; 'I' for Inactive)
REMARK    1  A    between atoms: N_2  and  C_14 
REMARK    2  A    between atoms: N_3  and  C_9 
REMARK       I    between atoms: C_5  and  N_13 
REMARK       I    between atoms: N_13  and  C_15 
REMARK    3  A    between atoms: C_14  and  C_15 
ROOT
HETATM    1  N   UNL     1       8.448  17.277   1.871  1.00  0.00    -0.342 N 
HETATM    2  C   UNL     1       9.335  18.082   1.320  1.00  0.00     0.242 C 
HETATM    3  C   UNL     1       8.234  19.301   3.106  1.00  0.00     0.054 C 
HETATM    4  C   UNL     1       7.551  17.968   2.884  1.00  0.00     0.129 C 
HETATM    5  C   UNL     1       9.581  19.096   2.427  1.00  0.00     0.169 C 
HETATM    6  O   UNL     1       9.972  17.913   0.285  1.00  0.00    -0.271 OA
ENDROOT
BRANCH   1   7
HETATM    7  C   UNL     1       8.991  15.891   1.259  1.00  0.00     0.228 C 
BRANCH   7   8
HETATM    8  C   UNL     1       9.485  15.040   2.340  1.00  0.00     0.242 C 
HETATM    9  N   UNL     1       8.445  14.193   2.778  1.00  0.00    -0.283 N 
HETATM   10  C   UNL     1       8.686  13.063   3.479  1.00  0.00     0.317 C 
HETATM   11  H   UNL     1       7.492  14.510   2.640  1.00  0.00     0.172 HD
HETATM   12  O   UNL     1       9.738  12.980   4.110  1.00  0.00    -0.255 OA
HETATM   13  S   UNL     1       7.540  11.750   3.486  1.00  0.00    -0.015 SA
HETATM   14  O   UNL     1      10.548  15.194   2.890  1.00  0.00    -0.271 OA
ENDBRANCH   7   8
ENDBRANCH   1   7
BRANCH   5  15
HETATM   15  N   UNL     1      10.511  18.452   3.333  1.00  0.00    -0.418 N 
HETATM   16  H   UNL     1      10.811  19.097   4.046  1.00  0.00     0.150 HD
HETATM   17  H   UNL     1      10.522  17.447   3.129  1.00  0.00     0.150 HD
ENDBRANCH   5  15
TORSDOF 3
ENDMDL
MODEL 2
REMARK VINA RESULT:    -4.913      2.748      5.301
REMARK INTER + INTRA:          -6.131
REMARK INTER:                  -5.609
REMARK INTRA:                  -0.522
REMARK UNBOUND:                -0.500
REMARK  3 active torsions:
REMARK  status: ('A' for Active; 'I' for Inactive)
REMARK    1  A    between atoms: N_2  and  C_14 
REMARK    2  A    between atoms: N_3  and  C_9 
REMARK       I    between atoms: C_5  and  N_13 
REMARK       I    between atoms: N_13  and  C_15 
REMARK    3  A    between atoms: C_14  and  C_15 
ROOT
HETATM    1  N   UNL     1       7.849  14.453   3.487  1.00  0.00    -0.342 N 
HETATM    2  C   UNL     1       8.255  13.199   3.503  1.00  0.00     0.242 C 
HETATM    3  C   UNL     1       5.865  13.200   3.090  1.00  0.00     0.054 C 
HETATM    4  C   UNL     1       6.338  14.598   3.423  1.00  0.00     0.129 C 
HETATM    5  C   UNL     1       7.161  12.496   2.714  1.00  0.00     0.169 C 
HETATM    6  O   UNL     1       9.348  12.761   3.850  1.00  0.00    -0.271 OA
ENDROOT
BRANCH   1   7
HETATM    7  C   UNL     1       9.289  15.154   3.335  1.00  0.00     0.228 C 
BRANCH   7   8
HETATM    8  C   UNL     1       9.394  15.774   2.014  1.00  0.00     0.242 C 
HETATM    9  N   UNL     1       9.181  17.163   2.134  1.00  0.00    -0.283 N 
HETATM   10  C   UNL     1       9.581  18.035   1.181  1.00  0.00     0.317 C 
HETATM   11  H   UNL     1       8.623  17.487   2.915  1.00  0.00     0.172 HD
HETATM   12  O   UNL     1       9.732  17.619   0.035  1.00  0.00    -0.255 OA
HETATM   13  S   UNL     1       9.880  19.708   1.566  1.00  0.00    -0.015 SA
HETATM   14  O   UNL     1       9.450  15.155   0.980  1.00  0.00    -0.271 OA
ENDBRANCH   7   8
ENDBRANCH   1   7
BRANCH   5  15
HETATM   15  N   UNL     1       7.483  12.735   1.321  1.00  0.00    -0.418 N 
HETATM   16  H   UNL     1       6.684  13.111   0.836  1.00  0.00     0.150 HD
HETATM   17  H   UNL     1       8.493  12.616   1.195  1.00  0.00     0.150 HD
ENDBRANCH   5  15
TORSDOF 3
ENDMDL
MODEL 3
REMARK VINA RESULT:    -4.891     26.085     27.298
REMARK INTER + INTRA:          -6.105
REMARK INTER:                  -5.587
REMARK INTRA:                  -0.518
REMARK UNBOUND:                -0.500
REMARK  3 active torsions:
REMARK  status: ('A' for Active; 'I' for Inactive)
REMARK    1  A    between atoms: N_2  and  C_14 
REMARK    2  A    between atoms: N_3  and  C_9 
REMARK       I    between atoms: C_5  and  N_13 
REMARK       I    between atoms: N_13  and  C_15 
REMARK    3  A    between atoms: C_14  and  C_15 
ROOT
HETATM    1  N   UNL     1      10.765  -0.301  22.763  1.00  0.00    -0.342 N 
HETATM    2  C   UNL     1      11.721  -0.051  23.635  1.00  0.00     0.242 C 
HETATM    3  C   UNL     1      10.664   2.057  23.068  1.00  0.00     0.054 C 
HETATM    4  C   UNL     1      10.139   0.952  22.176  1.00  0.00     0.129 C 
HETATM    5  C   UNL     1      11.281   1.281  24.222  1.00  0.00     0.169 C 
HETATM    6  O   UNL     1      12.597  -0.811  24.038  1.00  0.00    -0.271 OA
ENDROOT
BRANCH   1   7
HETATM    7  C   UNL     1      10.670  -1.893  22.983  1.00  0.00     0.228 C 
BRANCH   7   8
HETATM    8  C   UNL     1       9.375  -2.228  23.574  1.00  0.00     0.242 C 
HETATM    9  N   UNL     1       8.649  -3.038  22.675  1.00  0.00    -0.283 N 
HETATM   10  C   UNL     1       7.610  -3.803  23.078  1.00  0.00     0.317 C 
HETATM   11  H   UNL     1       8.864  -2.954  21.689  1.00  0.00     0.172 HD
HETATM   12  O   UNL     1       7.014  -3.486  24.105  1.00  0.00    -0.255 OA
HETATM   13  S   UNL     1       7.127  -5.209  22.168  1.00  0.00    -0.015 SA
HETATM   14  O   UNL     1       8.937  -1.718  24.576  1.00  0.00    -0.271 OA
ENDBRANCH   7   8
ENDBRANCH   1   7
BRANCH   5  15
HETATM   15  N   UNL     1      10.270   0.947  25.206  1.00  0.00    -0.418 N 
HETATM   16  H   UNL     1      10.487   1.375  26.092  1.00  0.00     0.150 HD
HETATM   17  H   UNL     1       9.489   0.487  24.728  1.00  0.00     0.150 HD
ENDBRANCH   5  15
TORSDOF 3
ENDMDL
MODEL 4
REMARK VINA RESULT:    -4.822      3.477      5.263
REMARK INTER + INTRA:          -6.027
REMARK INTER:                  -5.582
REMARK INTRA:                  -0.445
REMARK UNBOUND:                -0.500
REMARK  3 active torsions:
REMARK  status: ('A' for Active; 'I' for Inactive)
REMARK    1  A    between atoms: N_2  and  C_14 
REMARK    2  A    between atoms: N_3  and  C_9 
REMARK       I    between atoms: C_5  and  N_13 
REMARK       I    between atoms: N_13  and  C_15 
REMARK    3  A    between atoms: C_14  and  C_15 
ROOT
HETATM    1  N   UNL     1       8.635  16.267   3.430  1.00  0.00    -0.342 N 
HETATM    2  C   UNL     1       8.872  15.158   4.101  1.00  0.00     0.242 C 
HETATM    3  C   UNL     1       8.544  14.561   1.773  1.00  0.00     0.054 C 
HETATM    4  C   UNL     1       8.225  16.025   1.988  1.00  0.00     0.129 C 
HETATM    5  C   UNL     1       9.363  14.220   3.009  1.00  0.00     0.169 C 
HETATM    6  O   UNL     1       8.919  15.003   5.318  1.00  0.00    -0.271 OA
ENDROOT
BRANCH   1   7
HETATM    7  C   UNL     1       9.140  17.316   4.542  1.00  0.00     0.228 C 
BRANCH   7   8
HETATM    8  C   UNL     1      10.454  17.833   4.163  1.00  0.00     0.242 C 
HETATM    9  N   UNL     1      10.292  18.849   3.197  1.00  0.00    -0.283 N 
HETATM   10  C   UNL     1      11.261  19.757   2.941  1.00  0.00     0.317 C 
HETATM   11  H   UNL     1       9.461  18.819   2.619  1.00  0.00     0.172 HD
HETATM   12  O   UNL     1      12.423  19.463   3.212  1.00  0.00    -0.255 OA
HETATM   13  S   UNL     1      10.874  21.309   2.248  1.00  0.00    -0.015 SA
HETATM   14  O   UNL     1      11.500  17.324   4.483  1.00  0.00    -0.271 OA
ENDBRANCH   7   8
ENDBRANCH   1   7
BRANCH   5  15
HETATM   15  N   UNL     1      10.756  14.568   2.806  1.00  0.00    -0.418 N 
HETATM   16  H   UNL     1      11.355  13.855   3.189  1.00  0.00     0.150 HD
HETATM   17  H   UNL     1      10.801  15.379   2.180  1.00  0.00     0.150 HD
ENDBRANCH   5  15
TORSDOF 3
ENDMDL
MODEL 5
REMARK VINA RESULT:    -4.679      3.184      5.830
REMARK INTER + INTRA:          -5.862
REMARK INTER:                  -5.531
REMARK INTRA:                  -0.332
REMARK UNBOUND:                -0.500
REMARK  3 active torsions:
REMARK  status: ('A' for Active; 'I' for Inactive)
REMARK    1  A    between atoms: N_2  and  C_14 
REMARK    2  A    between atoms: N_3  and  C_9 
REMARK       I    between atoms: C_5  and  N_13 
REMARK       I    between atoms: N_13  and  C_15 
REMARK    3  A    between atoms: C_14  and  C_15 
ROOT
HETATM    1  N   UNL     1       5.904  12.714   3.274  1.00  0.00    -0.342 N 
HETATM    2  C   UNL     1       6.487  12.265   4.367  1.00  0.00     0.242 C 
HETATM    3  C   UNL     1       6.007  10.358   2.946  1.00  0.00     0.054 C 
HETATM    4  C   UNL     1       5.378  11.610   2.372  1.00  0.00     0.129 C 
HETATM    5  C   UNL     1       7.041  10.924   3.909  1.00  0.00     0.169 C 
HETATM    6  O   UNL     1       6.730  12.878   5.403  1.00  0.00    -0.271 OA
ENDROOT
BRANCH   1   7
HETATM    7  C   UNL     1       6.285  14.269   3.437  1.00  0.00     0.228 C 
BRANCH   7   8
HETATM    8  C   UNL     1       7.507  14.554   2.686  1.00  0.00     0.242 C 
HETATM    9  N   UNL     1       8.474  15.095   3.560  1.00  0.00    -0.283 N 
HETATM   10  C   UNL     1       9.791  15.102   3.256  1.00  0.00     0.317 C 
HETATM   11  H   UNL     1       8.142  15.576   4.387  1.00  0.00     0.172 HD
HETATM   12  O   UNL     1      10.118  15.045   2.073  1.00  0.00    -0.255 OA
HETATM   13  S   UNL     1      10.999  15.183   4.510  1.00  0.00    -0.015 SA
HETATM   14  O   UNL     1       7.585  14.516   1.483  1.00  0.00    -0.271 OA
ENDBRANCH   7   8
ENDBRANCH   1   7
BRANCH   5  15
HETATM   15  N   UNL     1       8.269  11.239   3.208  1.00  0.00    -0.418 N 
HETATM   16  H   UNL     1       8.493  10.512   2.547  1.00  0.00     0.150 HD
HETATM   17  H   UNL     1       8.536  12.203   3.434  1.00  0.00     0.150 HD
ENDBRANCH   5  15
TORSDOF 3
ENDMDL
MODEL 6
REMARK VINA RESULT:    -4.623     24.152     25.617
REMARK INTER + INTRA:          -5.799
REMARK INTER:                  -5.416
REMARK INTRA:                  -0.383
REMARK UNBOUND:                -0.500
REMARK  3 active torsions:
REMARK  status: ('A' for Active; 'I' for Inactive)
REMARK    1  A    between atoms: N_2  and  C_14 
REMARK    2  A    between atoms: N_3  and  C_9 
REMARK       I    between atoms: C_5  and  N_13 
REMARK       I    between atoms: N_13  and  C_15 
REMARK    3  A    between atoms: C_14  and  C_15 
ROOT
HETATM    1  N   UNL     1       9.143   0.419  23.315  1.00  0.00    -0.342 N 
HETATM    2  C   UNL     1      10.033   0.557  22.354  1.00  0.00     0.242 C 
HETATM    3  C   UNL     1      10.941  -0.987  23.990  1.00  0.00     0.054 C 
HETATM    4  C   UNL     1       9.654  -0.377  24.504  1.00  0.00     0.129 C 
HETATM    5  C   UNL     1      10.859  -0.713  22.495  1.00  0.00     0.169 C 
HETATM    6  O   UNL     1      10.037   1.372  21.436  1.00  0.00    -0.271 OA
ENDROOT
BRANCH   1   7
HETATM    7  C   UNL     1       7.877   1.045  22.543  1.00  0.00     0.228 C 
BRANCH   7   8
HETATM    8  C   UNL     1       7.097  -0.031  21.931  1.00  0.00     0.242 C 
HETATM    9  N   UNL     1       6.393   0.480  20.821  1.00  0.00    -0.283 N 
HETATM   10  C   UNL     1       5.902  -0.325  19.851  1.00  0.00     0.317 C 
HETATM   11  H   UNL     1       6.171   1.468  20.820  1.00  0.00     0.172 HD
HETATM   12  O   UNL     1       5.680  -1.502  20.125  1.00  0.00    -0.255 OA
HETATM   13  S   UNL     1       5.598   0.288  18.248  1.00  0.00    -0.015 SA
HETATM   14  O   UNL     1       6.938  -1.117  22.430  1.00  0.00    -0.271 OA
ENDBRANCH   7   8
ENDBRANCH   1   7
BRANCH   5  15
HETATM   15  N   UNL     1      10.087  -1.745  21.832  1.00  0.00    -0.418 N 
HETATM   16  H   UNL     1       9.842  -1.455  20.899  1.00  0.00     0.150 HD
HETATM   17  H   UNL     1      10.109  -2.591  22.410  1.00  0.00     0.150 HD
ENDBRANCH   5  15
TORSDOF 3
ENDMDL
MODEL 7
REMARK VINA RESULT:    -4.608     27.288     28.914
REMARK INTER + INTRA:          -5.782
REMARK INTER:                  -5.301
REMARK INTRA:                  -0.481
REMARK UNBOUND:                -0.500
REMARK  3 active torsions:
REMARK  status: ('A' for Active; 'I' for Inactive)
REMARK    1  A    between atoms: N_2  and  C_14 
REMARK    2  A    between atoms: N_3  and  C_9 
REMARK       I    between atoms: C_5  and  N_13 
REMARK       I    between atoms: N_13  and  C_15 
REMARK    3  A    between atoms: C_14  and  C_15 
ROOT
HETATM    1  N   UNL     1       7.072  -3.410  24.114  1.00  0.00    -0.342 N 
HETATM    2  C   UNL     1       7.260  -4.697  24.328  1.00  0.00     0.242 C 
HETATM    3  C   UNL     1       5.396  -4.465  22.793  1.00  0.00     0.054 C 
HETATM    4  C   UNL     1       5.816  -3.107  23.316  1.00  0.00     0.129 C 
HETATM    5  C   UNL     1       6.613  -5.325  23.103  1.00  0.00     0.169 C 
HETATM    6  O   UNL     1       7.983  -5.228  25.167  1.00  0.00    -0.271 OA
ENDROOT
BRANCH   1   7
HETATM    7  C   UNL     1       8.478  -2.878  24.689  1.00  0.00     0.228 C 
BRANCH   7   8
HETATM    8  C   UNL     1       9.284  -2.343  23.592  1.00  0.00     0.242 C 
HETATM    9  N   UNL     1      10.201  -1.402  24.105  1.00  0.00    -0.283 N 
HETATM   10  C   UNL     1      11.305  -1.030  23.420  1.00  0.00     0.317 C 
HETATM   11  H   UNL     1       9.955  -0.928  24.965  1.00  0.00     0.172 HD
HETATM   12  O   UNL     1      11.307  -1.161  22.198  1.00  0.00    -0.255 OA
HETATM   13  S   UNL     1      12.698  -0.386  24.247  1.00  0.00    -0.015 SA
HETATM   14  O   UNL     1       9.049  -2.537  22.424  1.00  0.00    -0.271 OA
ENDBRANCH   7   8
ENDBRANCH   1   7
BRANCH   5  15
HETATM   15  N   UNL     1       7.600  -5.207  22.048  1.00  0.00    -0.418 N 
HETATM   16  H   UNL     1       7.565  -4.288  21.636  1.00  0.00     0.150 HD
HETATM   17  H   UNL     1       8.208  -6.031  22.076  1.00  0.00     0.150 HD
ENDBRANCH   5  15
TORSDOF 3
ENDMDL
MODEL 8
REMARK VINA RESULT:    -4.559     31.304     33.276
REMARK INTER + INTRA:          -5.725
REMARK INTER:                  -5.519
REMARK INTRA:                  -0.206
REMARK UNBOUND:                -0.500
REMARK  3 active torsions:
REMARK  status: ('A' for Active; 'I' for Inactive)
REMARK    1  A    between atoms: N_2  and  C_14 
REMARK    2  A    between atoms: N_3  and  C_9 
REMARK       I    between atoms: C_5  and  N_13 
REMARK       I    between atoms: N_13  and  C_15 
REMARK    3  A    between atoms: C_14  and  C_15 
ROOT
HETATM    1  N   UNL     1      22.975  -2.317  25.684  1.00  0.00    -0.342 N 
HETATM    2  C   UNL     1      21.960  -1.842  24.992  1.00  0.00     0.242 C 
HETATM    3  C   UNL     1      22.481  -0.240  26.737  1.00  0.00     0.054 C 
HETATM    4  C   UNL     1      23.291  -1.505  26.929  1.00  0.00     0.129 C 
HETATM    5  C   UNL     1      22.038  -0.352  25.286  1.00  0.00     0.169 C 
HETATM    6  O   UNL     1      21.286  -2.418  24.142  1.00  0.00    -0.271 OA
ENDROOT
BRANCH   1   7
HETATM    7  C   UNL     1      23.453  -3.445  24.640  1.00  0.00     0.228 C 
BRANCH   7   8
HETATM    8  C   UNL     1      23.482  -4.746  25.306  1.00  0.00     0.242 C 
HETATM    9  N   UNL     1      23.909  -5.729  24.388  1.00  0.00    -0.283 N 
HETATM   10  C   UNL     1      24.392  -6.925  24.792  1.00  0.00     0.317 C 
HETATM   11  H   UNL     1      23.748  -5.553  23.404  1.00  0.00     0.172 HD
HETATM   12  O   UNL     1      24.069  -7.342  25.902  1.00  0.00    -0.255 OA
HETATM   13  S   UNL     1      25.451  -7.856  23.767  1.00  0.00    -0.015 SA
HETATM   14  O   UNL     1      23.018  -4.956  26.400  1.00  0.00    -0.271 OA
ENDBRANCH   7   8
ENDBRANCH   1   7
BRANCH   5  15
HETATM   15  N   UNL     1      23.069   0.156  24.401  1.00  0.00    -0.418 N 
HETATM   16  H   UNL     1      22.846   1.093  24.104  1.00  0.00     0.150 HD
HETATM   17  H   UNL     1      23.860  -0.496  24.413  1.00  0.00     0.150 HD
ENDBRANCH   5  15
TORSDOF 3
ENDMDL
MODEL 9
REMARK VINA RESULT:    -4.389     23.943     25.680
REMARK INTER + INTRA:          -5.530
REMARK INTER:                  -5.343
REMARK INTRA:                  -0.187
REMARK UNBOUND:                -0.500
REMARK  3 active torsions:
REMARK  status: ('A' for Active; 'I' for Inactive)
REMARK    1  A    between atoms: N_2  and  C_14 
REMARK    2  A    between atoms: N_3  and  C_9 
REMARK       I    between atoms: C_5  and  N_13 
REMARK       I    between atoms: N_13  and  C_15 
REMARK    3  A    between atoms: C_14  and  C_15 
ROOT
HETATM    1  N   UNL     1      11.159   0.814  23.393  1.00  0.00    -0.342 N 
HETATM    2  C   UNL     1      10.702   0.344  22.250  1.00  0.00     0.242 C 
HETATM    3  C   UNL     1      12.145  -1.346  23.223  1.00  0.00     0.054 C 
HETATM    4  C   UNL     1      12.226  -0.065  24.025  1.00  0.00     0.129 C 
HETATM    5  C   UNL     1      10.857  -1.158  22.435  1.00  0.00     0.169 C 
HETATM    6  O   UNL     1      10.087   0.946  21.375  1.00  0.00    -0.271 OA
ENDROOT
BRANCH   1   7
HETATM    7  C   UNL     1      10.116   2.026  23.573  1.00  0.00     0.228 C 
BRANCH   7   8
HETATM    8  C   UNL     1      10.848   3.286  23.692  1.00  0.00     0.242 C 
HETATM    9  N   UNL     1       9.983   4.357  23.385  1.00  0.00    -0.283 N 
HETATM   10  C   UNL     1      10.249   5.627  23.767  1.00  0.00     0.317 C 
HETATM   11  H   UNL     1       9.197   4.166  22.775  1.00  0.00     0.172 HD
HETATM   12  O   UNL     1      11.417   5.937  23.992  1.00  0.00    -0.255 OA
HETATM   13  S   UNL     1       8.969   6.797  23.941  1.00  0.00    -0.015 SA
HETATM   14  O   UNL     1      12.044   3.363  23.832  1.00  0.00    -0.271 OA
ENDBRANCH   7   8
ENDBRANCH   1   7
BRANCH   5  15
HETATM   15  N   UNL     1       9.713  -1.564  23.228  1.00  0.00    -0.418 N 
HETATM   16  H   UNL     1       9.605  -0.957  24.024  1.00  0.00     0.150 HD
HETATM   17  H   UNL     1       9.189  -2.274  22.706  1.00  0.00     0.150 HD
ENDBRANCH   5  15
TORSDOF 3
ENDMDL
