REMARK  3 active torsions:
REMARK  status: ('A' for Active; 'I' for Inactive)
REMARK    1  A    between atoms: N_2  and  C_14 
REMARK    2  A    between atoms: N_3  and  C_9 
REMARK       I    between atoms: C_5  and  N_13 
REMARK       I    between atoms: N_13  and  C_15 
REMARK    3  A    between atoms: C_14  and  C_15 
ROOT
HETATM    1  N   UNL     1       8.625  -1.904  21.956  1.00  0.00    -0.342 N 
HETATM    2  C   UNL     1       7.522  -2.464  22.410  1.00  0.00     0.242 C 
HETATM    3  C   UNL     1       9.262  -2.803  24.066  1.00  0.00     0.054 C 
HETATM    4  C   UNL     1       9.848  -2.200  22.807  1.00  0.00     0.129 C 
HETATM    5  C   UNL     1       7.777  -2.509  23.909  1.00  0.00     0.169 C 
HETATM    6  O   UNL     1       6.471  -2.666  21.808  1.00  0.00    -0.271 OA
ENDROOT
BRANCH   1   7
HETATM    7  C   UNL     1       7.962  -1.008  20.795  1.00  0.00     0.228 C 
BRANCH   7   8
HETATM    8  C   UNL     1       8.804   0.160  20.539  1.00  0.00     0.242 C 
HETATM    9  N   UNL     1       9.255   0.686  21.768  1.00  0.00    -0.283 N 
HETATM   10  C   UNL     1      10.327   1.506  21.847  1.00  0.00     0.317 C 
HETATM   11  H   UNL     1       8.687   0.514  22.589  1.00  0.00     0.172 HD
HETATM   12  O   UNL     1      10.651   2.143  20.847  1.00  0.00    -0.255 OA
HETATM   13  S   UNL     1      11.234   1.655  23.328  1.00  0.00    -0.015 SA
HETATM   14  O   UNL     1       8.915   0.690  19.461  1.00  0.00    -0.271 OA
ENDBRANCH   7   8
ENDBRANCH   1   7
BRANCH   5  15
HETATM   15  N   UNL     1       7.471  -1.175  24.387  1.00  0.00    -0.418 N 
HETATM   16  H   UNL     1       6.591  -1.171  24.877  1.00  0.00     0.150 HD
HETATM   17  H   UNL     1       8.297  -0.583  24.253  1.00  0.00     0.150 HD
ENDBRANCH   5  15
TORSDOF 3
