stable:False satoms:18 tatoms:24 sratio:0.75
  -OEChem-08062401583D

 24 26  0     0  0  0  0  0  0999 V2000
  -12.2709   -2.7464  -21.1867 H   0  0  0  0  0  0  0  0  0  0  0  0
  -13.2188   -1.7516  -22.2726 H   0  0  0  0  0  0  0  0  0  0  0  0
  -12.1813   -0.9526  -21.1397 H   0  0  0  0  0  0  0  0  0  0  0  0
  -13.2903   -0.0317  -24.1549 Cl  0  0  0  0  0  0  0  0  0  0  0  0
  -12.2422   -1.8359  -21.7824 C   0  0  0  0  0  0  0  0  0  0  0  0
  -11.1209   -1.8760  -22.7793 C   0  0  0  0  0  0  0  0  0  0  0  0
  -10.2217   -2.8467  -22.9593 O   0  0  0  0  0  0  0  0  0  0  0  0
   -8.7989    0.1750  -24.2217 C   0  0  0  0  0  0  0  0  0  0  0  0
  -11.5134   -0.0437  -24.4225 C   0  0  0  0  0  0  0  0  0  0  0  0
  -11.3806    1.4570  -25.9072 H   0  0  0  0  0  0  0  0  0  0  0  0
   -9.0425    2.0212  -25.3353 H   0  0  0  0  0  0  0  0  0  0  0  0
   -9.5003    1.1220  -24.9549 C   0  0  0  0  0  0  0  0  0  0  0  0
   -7.8491    0.4423  -23.8278 H   0  0  0  0  0  0  0  0  0  0  0  0
  -10.7423   -0.9884  -23.7400 C   0  0  0  0  0  0  0  0  0  0  0  0
   -9.3305   -1.0909  -23.9723 C   0  0  0  0  0  0  0  0  0  0  0  0
  -10.8227    0.8769  -25.1895 C   0  0  0  0  0  0  0  0  0  0  0  0
   -7.9949   -3.2489  -23.8923 N   0  0  3  0  0  0  0  0  0  0  0  0
   -6.6958   -2.8233  -23.9225 C   0  0  0  0  0  2  0  0  0  0  0  0
   -5.7076   -3.7122  -24.0188 N   0  3  0  0  0  0  0  0  0  0  0  0
   -6.2342   -4.8789  -24.3001 C   0  0  0  0  0  2  0  0  0  0  0  0
   -7.9083   -4.9698  -24.1013 S   0  0  0  0  0  0  0  0  0  0  0  0
   -9.1053   -2.5548  -23.6720 C   0  0  0  0  0  0  0  0  0  0  0  0
   -5.2129   -3.7641  -23.1513 H   0  0  0  0  0  0  0  0  0  0  0  0
   -5.0774   -3.4407  -24.7462 H   0  0  0  0  0  0  0  0  0  0  0  0
 19 20  1  0  0  0  0
 18 19  1  0  0  0  0
 20 21  1  0  0  0  0
 17 18  1  0  0  0  0
 17 21  1  0  0  0  0
 17 22  1  0  0  0  0
  8 13  1  0  0  0  0
  8 15  1  0  0  0  0
  8 12  2  0  0  0  0
 15 22  2  0  0  0  0
  7 22  1  0  0  0  0
 14 15  1  0  0  0  0
 11 12  1  0  0  0  0
 12 16  1  0  0  0  0
  6  7  1  0  0  0  0
  6 14  2  0  0  0  0
  9 14  1  0  0  0  0
  5  6  1  0  0  0  0
  9 16  2  0  0  0  0
 10 16  1  0  0  0  0
  4  9  1  0  0  0  0
  1  5  1  0  0  0  0
  3  5  1  0  0  0  0
  2  5  1  0  0  0  0
 19 23  1  0  0  0  0
 19 24  1  0  0  0  0
M  CHG  1  19   1
M  END
> <Chemgauss4>
-6.761408

$$$$
