stable:False satoms:18 tatoms:24 sratio:0.75
  -OEChem-08062401583D

 24 26  0     0  0  0  0  0  0999 V2000
   12.6400   -3.4454   21.7412 H   0  0  0  0  0  0  0  0  0  0  0  0
   13.3946   -2.5504   23.0438 H   0  0  0  0  0  0  0  0  0  0  0  0
   13.2648   -1.7784   21.4994 H   0  0  0  0  0  0  0  0  0  0  0  0
   13.3807   -0.5263   24.5958 Cl  0  0  0  0  0  0  0  0  0  0  0  0
   12.7316   -2.4522   22.1766 C   0  0  0  0  0  0  0  0  0  0  0  0
   11.3887   -1.9039   22.5625 C   0  0  0  0  0  0  0  0  0  0  0  0
   10.1946   -2.4804   22.4047 O   0  0  0  0  0  0  0  0  0  0  0  0
    9.6598    1.0434   22.6182 C   0  0  0  0  0  0  0  0  0  0  0  0
   11.7797    0.0676   24.0362 C   0  0  0  0  0  0  0  0  0  0  0  0
   11.6645    1.8542   25.1625 H   0  0  0  0  0  0  0  0  0  0  0  0
   10.1357    2.9428   23.5531 H   0  0  0  0  0  0  0  0  0  0  0  0
   10.3255    1.8825   23.5009 C   0  0  0  0  0  0  0  0  0  0  0  0
    9.1157    1.4810   21.8174 H   0  0  0  0  0  0  0  0  0  0  0  0
   11.0366   -0.7357   23.1671 C   0  0  0  0  0  0  0  0  0  0  0  0
    9.7216   -0.3446   22.7482 C   0  0  0  0  0  0  0  0  0  0  0  0
   11.2527    1.3132   24.3256 C   0  0  0  0  0  0  0  0  0  0  0  0
    7.8099   -1.9456   22.2691 N   0  0  3  0  0  0  0  0  0  0  0  0
    6.8686   -1.1521   21.6742 C   0  0  0  0  0  2  0  0  0  0  0  0
    5.6632   -1.6469   21.3948 N   0  3  0  0  0  0  0  0  0  0  0  0
    5.5533   -2.8117   21.9854 C   0  0  0  0  0  2  0  0  0  0  0  0
    7.0021   -3.4522   22.5692 S   0  0  0  0  0  0  0  0  0  0  0  0
    9.0920   -1.6978   22.5105 C   0  0  0  0  0  0  0  0  0  0  0  0
    5.5633   -1.7577   20.4060 H   0  0  0  0  0  0  0  0  0  0  0  0
    4.9556   -1.0270   21.7339 H   0  0  0  0  0  0  0  0  0  0  0  0
 19 20  1  0  0  0  0
 18 19  1  0  0  0  0
 20 21  1  0  0  0  0
 17 18  1  0  0  0  0
 17 21  1  0  0  0  0
 17 22  1  0  0  0  0
  8 13  1  0  0  0  0
  8 15  1  0  0  0  0
  8 12  2  0  0  0  0
 15 22  2  0  0  0  0
  7 22  1  0  0  0  0
 14 15  1  0  0  0  0
 11 12  1  0  0  0  0
 12 16  1  0  0  0  0
  6  7  1  0  0  0  0
  6 14  2  0  0  0  0
  9 14  1  0  0  0  0
  5  6  1  0  0  0  0
  9 16  2  0  0  0  0
 10 16  1  0  0  0  0
  4  9  1  0  0  0  0
  1  5  1  0  0  0  0
  3  5  1  0  0  0  0
  2  5  1  0  0  0  0
 19 23  1  0  0  0  0
 19 24  1  0  0  0  0
M  CHG  1  19   1
M  END
> <Chemgauss4>
-6.887428

$$$$
