
 OpenBabel07202414163D

 40 42  0  0  1  0  0  0  0  0999 V2000
   -1.8264   -2.6439    0.5534 C   0  0  0  0  0  0  0  0  0  0  0  0
   -1.1705   -1.5085   -0.1891 C   0  0  0  0  0  0  0  0  0  0  0  0
   -2.0143   -0.4662   -0.6378 C   0  0  0  0  0  0  0  0  0  0  0  0
   -1.4994    0.6364   -1.3157 C   0  0  0  0  0  0  0  0  0  0  0  0
   -0.1323    0.7316   -1.5239 C   0  0  0  0  0  0  0  0  0  0  0  0
    0.7143   -0.2857   -1.0758 C   0  0  0  0  0  0  0  0  0  0  0  0
    0.2127   -1.4266   -0.4298 C   0  0  0  0  0  0  0  0  0  0  0  0
    1.0884   -2.4734   -0.0187 N   0  0  0  0  0  0  0  0  0  0  0  0
    2.3681   -2.6753   -0.5058 C   0  0  0  0  0  0  0  0  0  0  0  0
    2.8950   -2.0945   -1.4474 O   0  0  0  0  0  0  0  0  0  0  0  0
    3.1040   -3.8142    0.1908 C   0  0  0  0  0  0  0  0  0  0  0  0
    4.6188   -3.6347    0.0875 C   0  0  3  0  0  0  0  0  0  0  0  0
    5.1231   -2.4717    0.9251 C   0  0  0  0  0  0  0  0  0  0  0  0
    4.8443   -1.3073    0.6522 O   0  0  0  0  0  0  0  0  0  0  0  0
    5.9531   -2.8773    1.9559 N   0  0  0  0  0  0  0  0  0  0  0  0
    6.2706   -4.2142    2.0102 C   0  0  0  0  0  0  0  0  0  0  0  0
    6.9687   -4.8012    2.8218 O   0  0  0  0  0  0  0  0  0  0  0  0
    5.4541   -5.1043    0.7425 S   0  0  0  0  0  0  0  0  0  0  0  0
    6.5215   -1.9364    2.8665 C   0  0  0  0  0  0  0  0  0  0  0  0
    5.7618   -0.8716    3.3784 C   0  0  0  0  0  0  0  0  0  0  0  0
    6.3215    0.0332    4.2871 C   0  0  0  0  0  0  0  0  0  0  0  0
    7.6555   -0.0911    4.6659 C   0  0  0  0  0  0  0  0  0  0  0  0
    8.4279   -1.1256    4.1466 C   0  0  0  0  0  0  0  0  0  0  0  0
    7.8597   -2.0516    3.2681 C   0  0  0  0  0  0  0  0  0  0  0  0
   -2.9053   -2.6692    0.3619 H   0  0  0  0  0  0  0  0  0  0  0  0
   -1.6787   -2.5244    1.6308 H   0  0  0  0  0  0  0  0  0  0  0  0
   -1.4311   -3.6107    0.2289 H   0  0  0  0  0  0  0  0  0  0  0  0
   -3.0887   -0.5153   -0.4695 H   0  0  0  0  0  0  0  0  0  0  0  0
   -2.1607    1.4180   -1.6748 H   0  0  0  0  0  0  0  0  0  0  0  0
    0.2874    1.5931   -2.0359 H   0  0  0  0  0  0  0  0  0  0  0  0
    1.7802   -0.1446   -1.2356 H   0  0  0  0  0  0  0  0  0  0  0  0
    0.6835   -3.1926    0.5666 H   0  0  0  0  0  0  0  0  0  0  0  0
    2.7981   -4.7265   -0.3378 H   0  0  0  0  0  0  0  0  0  0  0  0
    2.7770   -3.8911    1.2334 H   0  0  0  0  0  0  0  0  0  0  0  0
    4.9569   -3.4938   -0.9451 H   0  0  0  0  0  0  0  0  0  0  0  0
    4.7165   -0.7445    3.1062 H   0  0  0  0  0  0  0  0  0  0  0  0
    5.7144    0.8365    4.6980 H   0  0  0  0  0  0  0  0  0  0  0  0
    8.0949    0.6193    5.3617 H   0  0  0  0  0  0  0  0  0  0  0  0
    9.4763   -1.2141    4.4202 H   0  0  0  0  0  0  0  0  0  0  0  0
    8.4988   -2.8365    2.8697 H   0  0  0  0  0  0  0  0  0  0  0  0
  1  2  1  0  0  0  0
  1 25  1  0  0  0  0
  1 26  1  0  0  0  0
  1 27  1  0  0  0  0
  2  3  1  0  0  0  0
  2  7  2  0  0  0  0
  3  4  2  0  0  0  0
  3 28  1  0  0  0  0
  4  5  1  0  0  0  0
  4 29  1  0  0  0  0
  5  6  2  0  0  0  0
  5 30  1  0  0  0  0
  6  7  1  0  0  0  0
  6 31  1  0  0  0  0
  7  8  1  0  0  0  0
  8  9  1  0  0  0  0
  8 32  1  0  0  0  0
  9 10  2  0  0  0  0
  9 11  1  0  0  0  0
 11 12  1  0  0  0  0
 11 33  1  0  0  0  0
 11 34  1  0  0  0  0
 12 13  1  0  0  0  0
 12 18  1  0  0  0  0
 12 35  1  0  0  0  0
 13 14  2  0  0  0  0
 13 15  1  0  0  0  0
 15 16  1  0  0  0  0
 15 19  1  0  0  0  0
 16 17  2  0  0  0  0
 16 18  1  0  0  0  0
 19 20  1  0  0  0  0
 19 24  2  0  0  0  0
 20 21  2  0  0  0  0
 20 36  1  0  0  0  0
 21 22  1  0  0  0  0
 21 37  1  0  0  0  0
 22 23  2  0  0  0  0
 22 38  1  0  0  0  0
 23 24  1  0  0  0  0
 23 39  1  0  0  0  0
 24 40  1  0  0  0  0
M  END
$$$$
