REMARK  4 active torsions:
REMARK  status: ('A' for Active; 'I' for Inactive)
REMARK    1  A    between atoms: S_2  and  N_5 
REMARK    2  A    between atoms: N_5  and  C_7 
REMARK    3  A    between atoms: C_15  and  C_16 
REMARK       I    between atoms: C_16  and  N_18 
REMARK    4  A    between atoms: N_18  and  C_20 
ROOT
HETATM    1  C   UNL     1       8.976  -2.934  24.131  1.00  0.00     0.109 C 
HETATM    2  C   UNL     1       9.410  -1.977  23.465  1.00  0.00    -0.008 A 
HETATM    3  C   UNL     1      10.346  -1.109  23.264  1.00  0.00     0.057 A 
HETATM    4  C   UNL     1      11.040  -0.001  24.329  1.00  0.00    -0.007 C 
HETATM    5  C   UNL     1      12.021   0.291  24.293  1.00  0.00    -0.025 C 
HETATM    6  C   UNL     1      13.180  -0.138  23.446  1.00  0.00     0.053 C 
HETATM    7  C   UNL     1      12.707  -1.291  22.647  1.00  0.00    -0.025 C 
HETATM    8  C   UNL     1      11.824  -1.766  22.514  1.00  0.00    -0.007 C 
HETATM    9  C   UNL     1       9.713  -0.629  22.401  1.00  0.00     0.040 A 
ENDROOT
BRANCH   9  10
HETATM   10  C   UNL     1       9.056   0.061  21.405  1.00  0.00     0.254 C 
HETATM   11  O   UNL     1       9.545   1.026  21.022  1.00  0.00    -0.268 OA
HETATM   12  N   UNL     1       7.959  -0.542  21.070  1.00  0.00    -0.321 N 
ATOM     13  HN  UNL     1       7.702  -1.409  21.541  1.00  0.00     0.169 HD
BRANCH  12  14
HETATM   14  C   UNL     1       7.192  -0.072  20.161  1.00  0.00     0.056 A 
HETATM   15  C   UNL     1       7.210   0.001  18.824  1.00  0.00     0.117 A 
HETATM   16  N   UNL     1       6.756   0.326  17.771  1.00  0.00    -0.373 N 
HETATM   17  C   UNL     1       5.617   0.916  18.171  1.00  0.00     0.088 A 
ATOM     18  HN  UNL     1       7.128   0.193  16.830  1.00  0.00     0.164 HD
HETATM   19  C   UNL     1       5.246   1.004  19.405  1.00  0.00     0.026 A 
HETATM   20  C   UNL     1       5.858   0.542  20.504  1.00  0.00    -0.033 A 
HETATM   21  C   UNL     1       5.348   0.640  21.976  1.00  0.00     0.050 C 
ENDBRANCH  12  14
ENDBRANCH   9  10
BRANCH   1  22
HETATM   22  N   UNL     1       8.149  -3.545  24.681  1.00  0.00    -0.295 N 
ATOM     23  HN  UNL     1       7.252  -3.611  24.200  1.00  0.00     0.177 HD
BRANCH  22  24
HETATM   24  S   UNL     1       8.240  -4.310  26.123  1.00  0.00     0.226 S 
HETATM   25  C   UNL     1       6.535  -4.845  26.491  1.00  0.00     0.186 C 
HETATM   26  O   UNL     1       9.045  -5.493  26.029  1.00  0.00    -0.206 OA
HETATM   27  O   UNL     1       8.611  -3.447  27.174  1.00  0.00    -0.206 OA
ENDBRANCH  22  24
ENDBRANCH   1  22
TORSDOF 4
