MODEL 1
REMARK VINA RESULT:    -7.907      0.000      0.000
REMARK INTER + INTRA:         -10.457
REMARK INTER:                  -9.756
REMARK INTRA:                  -0.701
REMARK UNBOUND:                -0.701
REMARK  4 active torsions:
REMARK  status: ('A' for Active; 'I' for Inactive)
REMARK    1  A    between atoms: S_2  and  N_5 
REMARK    2  A    between atoms: N_5  and  C_7 
REMARK    3  A    between atoms: C_15  and  C_16 
REMARK       I    between atoms: C_16  and  N_18 
REMARK    4  A    between atoms: N_18  and  C_20 
ROOT
HETATM    1  C   UNL     1       8.567  -3.333  24.021  1.00  0.00     0.109 C 
HETATM    2  C   UNL     1       8.942  -2.280  23.475  1.00  0.00    -0.008 A 
HETATM    3  C   UNL     1       9.703  -1.236  23.500  1.00  0.00     0.057 A 
HETATM    4  C   UNL     1       9.888  -0.061  24.696  1.00  0.00    -0.007 C 
HETATM    5  C   UNL     1      10.769   0.420  24.895  1.00  0.00    -0.025 C 
HETATM    6  C   UNL     1      12.157   0.268  24.351  1.00  0.00     0.053 C 
HETATM    7  C   UNL     1      12.129  -0.919  23.466  1.00  0.00    -0.025 C 
HETATM    8  C   UNL     1      11.417  -1.552  23.128  1.00  0.00    -0.007 C 
HETATM    9  C   UNL     1       9.206  -0.852  22.509  1.00  0.00     0.040 A 
ENDROOT
BRANCH   9  10
HETATM   10  C   UNL     1       8.676  -0.262  21.383  1.00  0.00     0.254 C 
HETATM   11  O   UNL     1       9.363   0.428  20.775  1.00  0.00    -0.268 OA
HETATM   12  N   UNL     1       7.441  -0.617  21.211  1.00  0.00    -0.321 N 
ATOM     13  HN  UNL     1       7.008  -1.255  21.878  1.00  0.00     0.169 HD
BRANCH  12  14
HETATM   14  C   UNL     1       6.755  -0.184  20.223  1.00  0.00     0.056 A 
HETATM   15  C   UNL     1       6.423  -0.634  19.006  1.00  0.00     0.117 A 
HETATM   16  N   UNL     1       5.892  -0.533  17.944  1.00  0.00    -0.373 N 
HETATM   17  C   UNL     1       5.321   0.676  18.073  1.00  0.00     0.088 A 
ATOM     18  HN  UNL     1       5.875  -1.184  17.157  1.00  0.00     0.164 HD
HETATM   19  C   UNL     1       5.402   1.401  19.139  1.00  0.00     0.026 A 
HETATM   20  C   UNL     1       6.016   1.128  20.299  1.00  0.00    -0.033 A 
HETATM   21  C   UNL     1       6.052   2.023  21.577  1.00  0.00     0.050 C 
ENDBRANCH  12  14
ENDBRANCH   9  10
BRANCH   1  22
HETATM   22  N   UNL     1       7.776  -4.120  24.360  1.00  0.00    -0.295 N 
ATOM     23  HN  UNL     1       7.783  -4.358  25.351  1.00  0.00     0.177 HD
BRANCH  22  24
HETATM   24  S   UNL     1       6.656  -4.891  23.452  1.00  0.00     0.226 S 
HETATM   25  C   UNL     1       5.543  -3.579  22.846  1.00  0.00     0.186 C 
HETATM   26  O   UNL     1       7.257  -5.501  22.301  1.00  0.00    -0.206 OA
HETATM   27  O   UNL     1       5.850  -5.765  24.209  1.00  0.00    -0.206 OA
ENDBRANCH  22  24
ENDBRANCH   1  22
TORSDOF 4
ENDMDL
MODEL 2
REMARK VINA RESULT:    -7.797      2.767      6.049
REMARK INTER + INTRA:         -10.321
REMARK INTER:                  -9.484
REMARK INTRA:                  -0.837
REMARK UNBOUND:                -0.701
REMARK  4 active torsions:
REMARK  status: ('A' for Active; 'I' for Inactive)
REMARK    1  A    between atoms: S_2  and  N_5 
REMARK    2  A    between atoms: N_5  and  C_7 
REMARK    3  A    between atoms: C_15  and  C_16 
REMARK       I    between atoms: C_16  and  N_18 
REMARK    4  A    between atoms: N_18  and  C_20 
ROOT
HETATM    1  C   UNL     1       8.463   0.714  22.415  1.00  0.00     0.109 C 
HETATM    2  C   UNL     1       9.010  -0.062  23.219  1.00  0.00    -0.008 A 
HETATM    3  C   UNL     1      10.094  -0.621  23.647  1.00  0.00     0.057 A 
HETATM    4  C   UNL     1      11.254  -1.512  22.809  1.00  0.00    -0.007 C 
HETATM    5  C   UNL     1      12.253  -1.511  23.037  1.00  0.00    -0.025 C 
HETATM    6  C   UNL     1      13.067  -0.747  24.037  1.00  0.00     0.053 C 
HETATM    7  C   UNL     1      12.152   0.243  24.649  1.00  0.00    -0.025 C 
HETATM    8  C   UNL     1      11.164   0.449  24.589  1.00  0.00    -0.007 C 
HETATM    9  C   UNL     1       9.467  -1.240  24.422  1.00  0.00     0.040 A 
ENDROOT
BRANCH   9  10
HETATM   10  C   UNL     1       8.850  -2.063  25.339  1.00  0.00     0.254 C 
HETATM   11  O   UNL     1       8.771  -1.682  26.419  1.00  0.00    -0.268 OA
HETATM   12  N   UNL     1       8.452  -3.162  24.781  1.00  0.00    -0.321 N 
ATOM     13  HN  UNL     1       8.621  -3.307  23.786  1.00  0.00     0.169 HD
BRANCH  12  14
HETATM   14  C   UNL     1       7.853  -4.071  25.453  1.00  0.00     0.056 A 
HETATM   15  C   UNL     1       8.181  -4.925  26.430  1.00  0.00     0.117 A 
HETATM   16  N   UNL     1       7.942  -5.806  27.196  1.00  0.00    -0.373 N 
HETATM   17  C   UNL     1       6.647  -6.028  26.913  1.00  0.00     0.088 A 
ATOM     18  HN  UNL     1       8.550  -6.264  27.876  1.00  0.00     0.164 HD
HETATM   19  C   UNL     1       5.977  -5.360  26.034  1.00  0.00     0.026 A 
HETATM   20  C   UNL     1       6.382  -4.343  25.261  1.00  0.00    -0.033 A 
HETATM   21  C   UNL     1       5.520  -3.540  24.237  1.00  0.00     0.050 C 
ENDBRANCH  12  14
ENDBRANCH   9  10
BRANCH   1  22
HETATM   22  N   UNL     1       7.619   1.049  21.684  1.00  0.00    -0.295 N 
ATOM     23  HN  UNL     1       7.099   1.883  21.958  1.00  0.00     0.177 HD
BRANCH  22  24
HETATM   24  S   UNL     1       7.159   0.356  20.276  1.00  0.00     0.226 S 
HETATM   25  C   UNL     1       6.372  -1.219  20.751  1.00  0.00     0.186 C 
HETATM   26  O   UNL     1       6.162   1.146  19.614  1.00  0.00    -0.206 OA
HETATM   27  O   UNL     1       8.253   0.011  19.457  1.00  0.00    -0.206 OA
ENDBRANCH  22  24
ENDBRANCH   1  22
TORSDOF 4
ENDMDL
MODEL 3
REMARK VINA RESULT:    -7.423      3.649      5.904
REMARK INTER + INTRA:          -9.859
REMARK INTER:                  -9.238
REMARK INTRA:                  -0.621
REMARK UNBOUND:                -0.701
REMARK  4 active torsions:
REMARK  status: ('A' for Active; 'I' for Inactive)
REMARK    1  A    between atoms: S_2  and  N_5 
REMARK    2  A    between atoms: N_5  and  C_7 
REMARK    3  A    between atoms: C_15  and  C_16 
REMARK       I    between atoms: C_16  and  N_18 
REMARK    4  A    between atoms: N_18  and  C_20 
ROOT
HETATM    1  C   UNL     1       6.331  -3.911  26.042  1.00  0.00     0.109 C 
HETATM    2  C   UNL     1       6.878  -3.727  24.941  1.00  0.00    -0.008 A 
HETATM    3  C   UNL     1       7.045  -4.106  23.716  1.00  0.00     0.057 A 
HETATM    4  C   UNL     1       7.506  -5.607  23.103  1.00  0.00    -0.007 C 
HETATM    5  C   UNL     1       7.174  -5.989  22.212  1.00  0.00    -0.025 C 
HETATM    6  C   UNL     1       6.179  -5.500  21.204  1.00  0.00     0.053 C 
HETATM    7  C   UNL     1       5.544  -4.300  21.794  1.00  0.00    -0.025 C 
HETATM    8  C   UNL     1       5.677  -3.749  22.631  1.00  0.00    -0.007 C 
HETATM    9  C   UNL     1       7.833  -3.250  23.561  1.00  0.00     0.040 A 
ENDROOT
BRANCH   9  10
HETATM   10  C   UNL     1       8.809  -2.326  23.258  1.00  0.00     0.254 C 
HETATM   11  O   UNL     1       8.987  -2.093  22.149  1.00  0.00    -0.268 OA
HETATM   12  N   UNL     1       9.365  -1.869  24.336  1.00  0.00    -0.321 N 
ATOM     13  HN  UNL     1       9.051  -2.212  25.243  1.00  0.00     0.169 HD
BRANCH  12  14
HETATM   14  C   UNL     1      10.299  -0.998  24.285  1.00  0.00     0.056 A 
HETATM   15  C   UNL     1      11.605  -0.997  23.989  1.00  0.00     0.117 A 
HETATM   16  N   UNL     1      12.666  -0.469  23.860  1.00  0.00    -0.373 N 
HETATM   17  C   UNL     1      12.343   0.799  24.167  1.00  0.00     0.088 A 
ATOM     18  HN  UNL     1      13.566  -0.867  23.591  1.00  0.00     0.164 HD
HETATM   19  C   UNL     1      11.149   1.184  24.476  1.00  0.00     0.026 A 
HETATM   20  C   UNL     1      10.021   0.462  24.540  1.00  0.00    -0.033 A 
HETATM   21  C   UNL     1       8.590   0.983  24.881  1.00  0.00     0.050 C 
ENDBRANCH  12  14
ENDBRANCH   9  10
BRANCH   1  22
HETATM   22  N   UNL     1       6.297  -3.955  27.207  1.00  0.00    -0.295 N 
ATOM     23  HN  UNL     1       6.220  -3.056  27.683  1.00  0.00     0.177 HD
BRANCH  22  24
HETATM   24  S   UNL     1       6.356  -5.269  28.178  1.00  0.00     0.226 S 
HETATM   25  C   UNL     1       5.015  -6.359  27.592  1.00  0.00     0.186 C 
HETATM   26  O   UNL     1       7.588  -5.982  28.004  1.00  0.00    -0.206 OA
HETATM   27  O   UNL     1       6.053  -4.968  29.521  1.00  0.00    -0.206 OA
ENDBRANCH  22  24
ENDBRANCH   1  22
TORSDOF 4
ENDMDL
MODEL 4
REMARK VINA RESULT:    -7.233      3.213      5.507
REMARK INTER + INTRA:          -9.625
REMARK INTER:                  -9.210
REMARK INTRA:                  -0.416
REMARK UNBOUND:                -0.701
REMARK  4 active torsions:
REMARK  status: ('A' for Active; 'I' for Inactive)
REMARK    1  A    between atoms: S_2  and  N_5 
REMARK    2  A    between atoms: N_5  and  C_7 
REMARK    3  A    between atoms: C_15  and  C_16 
REMARK       I    between atoms: C_16  and  N_18 
REMARK    4  A    between atoms: N_18  and  C_20 
ROOT
HETATM    1  C   UNL     1       7.139  -5.578  26.534  1.00  0.00     0.109 C 
HETATM    2  C   UNL     1       7.330  -4.931  25.488  1.00  0.00    -0.008 A 
HETATM    3  C   UNL     1       7.199  -4.847  24.206  1.00  0.00     0.057 A 
HETATM    4  C   UNL     1       7.663  -5.928  22.998  1.00  0.00    -0.007 C 
HETATM    5  C   UNL     1       7.150  -6.064  22.122  1.00  0.00    -0.025 C 
HETATM    6  C   UNL     1       5.859  -5.507  21.602  1.00  0.00     0.053 C 
HETATM    7  C   UNL     1       5.262  -4.734  22.714  1.00  0.00    -0.025 C 
HETATM    8  C   UNL     1       5.549  -4.468  23.647  1.00  0.00    -0.007 C 
HETATM    9  C   UNL     1       7.794  -3.836  24.213  1.00  0.00     0.040 A 
ENDROOT
BRANCH   9  10
HETATM   10  C   UNL     1       8.519  -2.672  24.072  1.00  0.00     0.254 C 
HETATM   11  O   UNL     1       9.120  -2.312  24.981  1.00  0.00    -0.268 OA
HETATM   12  N   UNL     1       8.382  -2.182  22.880  1.00  0.00    -0.321 N 
ATOM     13  HN  UNL     1       7.792  -2.669  22.206  1.00  0.00     0.169 HD
BRANCH  12  14
HETATM   14  C   UNL     1       8.971  -1.102  22.533  1.00  0.00     0.056 A 
HETATM   15  C   UNL     1      10.150  -0.519  22.786  1.00  0.00     0.117 A 
HETATM   16  N   UNL     1      10.944   0.363  22.679  1.00  0.00    -0.373 N 
HETATM   17  C   UNL     1      10.281   1.185  21.848  1.00  0.00     0.088 A 
ATOM     18  HN  UNL     1      11.868   0.465  23.100  1.00  0.00     0.164 HD
HETATM   19  C   UNL     1       9.112   0.930  21.363  1.00  0.00     0.026 A 
HETATM   20  C   UNL     1       8.341  -0.151  21.546  1.00  0.00    -0.033 A 
HETATM   21  C   UNL     1       6.945  -0.430  20.905  1.00  0.00     0.050 C 
ENDBRANCH  12  14
ENDBRANCH   9  10
BRANCH   1  22
HETATM   22  N   UNL     1       7.435  -6.002  27.579  1.00  0.00    -0.295 N 
ATOM     23  HN  UNL     1       8.429  -6.189  27.716  1.00  0.00     0.177 HD
BRANCH  22  24
HETATM   24  S   UNL     1       6.467  -6.337  28.852  1.00  0.00     0.226 S 
HETATM   25  C   UNL     1       4.791  -6.504  28.150  1.00  0.00     0.186 C 
HETATM   26  O   UNL     1       6.808  -7.598  29.442  1.00  0.00    -0.206 OA
HETATM   27  O   UNL     1       6.395  -5.274  29.776  1.00  0.00    -0.206 OA
ENDBRANCH  22  24
ENDBRANCH   1  22
TORSDOF 4
ENDMDL
MODEL 5
REMARK VINA RESULT:    -7.090     14.384     15.716
REMARK INTER + INTRA:          -9.448
REMARK INTER:                  -8.684
REMARK INTRA:                  -0.764
REMARK UNBOUND:                -0.701
REMARK  4 active torsions:
REMARK  status: ('A' for Active; 'I' for Inactive)
REMARK    1  A    between atoms: S_2  and  N_5 
REMARK    2  A    between atoms: N_5  and  C_7 
REMARK    3  A    between atoms: C_15  and  C_16 
REMARK       I    between atoms: C_16  and  N_18 
REMARK    4  A    between atoms: N_18  and  C_20 
ROOT
HETATM    1  C   UNL     1      24.147  -3.692  24.134  1.00  0.00     0.109 C 
HETATM    2  C   UNL     1      23.576  -2.768  23.528  1.00  0.00    -0.008 A 
HETATM    3  C   UNL     1      22.943  -1.642  23.579  1.00  0.00     0.057 A 
HETATM    4  C   UNL     1      21.565  -1.216  24.451  1.00  0.00    -0.007 C 
HETATM    5  C   UNL     1      21.396  -0.281  24.834  1.00  0.00    -0.025 C 
HETATM    6  C   UNL     1      22.224   0.967  24.874  1.00  0.00     0.053 C 
HETATM    7  C   UNL     1      23.556   0.600  24.342  1.00  0.00    -0.025 C 
HETATM    8  C   UNL     1      23.968  -0.226  23.929  1.00  0.00    -0.007 C 
HETATM    9  C   UNL     1      22.796  -1.674  22.415  1.00  0.00     0.040 A 
ENDROOT
BRANCH   9  10
HETATM   10  C   UNL     1      22.509  -1.611  21.069  1.00  0.00     0.254 C 
HETATM   11  O   UNL     1      21.404  -1.664  20.763  1.00  0.00    -0.268 OA
HETATM   12  N   UNL     1      23.593  -1.494  20.369  1.00  0.00    -0.321 N 
ATOM     13  HN  UNL     1      24.494  -1.462  20.845  1.00  0.00     0.169 HD
BRANCH  12  14
HETATM   14  C   UNL     1      23.557  -1.418  19.093  1.00  0.00     0.056 A 
HETATM   15  C   UNL     1      23.266  -0.474  18.189  1.00  0.00     0.117 A 
HETATM   16  N   UNL     1      23.123  -0.078  17.074  1.00  0.00    -0.373 N 
HETATM   17  C   UNL     1      23.443  -1.184  16.382  1.00  0.00     0.088 A 
ATOM     18  HN  UNL     1      22.837   0.843  16.739  1.00  0.00     0.164 HD
HETATM   19  C   UNL     1      23.812  -2.295  16.929  1.00  0.00     0.026 A 
HETATM   20  C   UNL     1      23.970  -2.582  18.228  1.00  0.00    -0.033 A 
HETATM   21  C   UNL     1      24.457  -3.933  18.839  1.00  0.00     0.050 C 
ENDBRANCH  12  14
ENDBRANCH   9  10
BRANCH   1  22
HETATM   22  N   UNL     1      24.415  -4.808  24.341  1.00  0.00    -0.295 N 
ATOM     23  HN  UNL     1      25.027  -5.252  23.656  1.00  0.00     0.177 HD
BRANCH  22  24
HETATM   24  S   UNL     1      23.938  -5.754  25.586  1.00  0.00     0.226 S 
HETATM   25  C   UNL     1      25.418  -5.949  26.635  1.00  0.00     0.186 C 
HETATM   26  O   UNL     1      22.939  -5.098  26.378  1.00  0.00    -0.206 OA
HETATM   27  O   UNL     1      23.580  -7.054  25.175  1.00  0.00    -0.206 OA
ENDBRANCH  22  24
ENDBRANCH   1  22
TORSDOF 4
ENDMDL
MODEL 6
REMARK VINA RESULT:    -7.032      2.657      5.801
REMARK INTER + INTRA:          -9.377
REMARK INTER:                  -8.707
REMARK INTRA:                  -0.669
REMARK UNBOUND:                -0.701
REMARK  4 active torsions:
REMARK  status: ('A' for Active; 'I' for Inactive)
REMARK    1  A    between atoms: S_2  and  N_5 
REMARK    2  A    between atoms: N_5  and  C_7 
REMARK    3  A    between atoms: C_15  and  C_16 
REMARK       I    between atoms: C_16  and  N_18 
REMARK    4  A    between atoms: N_18  and  C_20 
ROOT
HETATM    1  C   UNL     1       8.166  -0.060  20.345  1.00  0.00     0.109 C 
HETATM    2  C   UNL     1       8.310  -0.595  21.459  1.00  0.00    -0.008 A 
HETATM    3  C   UNL     1       9.079  -0.861  22.463  1.00  0.00     0.057 A 
HETATM    4  C   UNL     1      10.593  -1.602  22.498  1.00  0.00    -0.007 C 
HETATM    5  C   UNL     1      11.330  -1.368  23.170  1.00  0.00    -0.025 C 
HETATM    6  C   UNL     1      11.435  -0.329  24.244  1.00  0.00     0.053 C 
HETATM    7  C   UNL     1      10.235   0.528  24.113  1.00  0.00    -0.025 C 
HETATM    8  C   UNL     1       9.398   0.520  23.544  1.00  0.00    -0.007 C 
HETATM    9  C   UNL     1       8.216  -1.484  22.956  1.00  0.00     0.040 A 
ENDROOT
BRANCH   9  10
HETATM   10  C   UNL     1       7.312  -2.286  23.620  1.00  0.00     0.254 C 
HETATM   11  O   UNL     1       6.561  -1.767  24.316  1.00  0.00    -0.268 OA
HETATM   12  N   UNL     1       7.487  -3.533  23.315  1.00  0.00    -0.321 N 
ATOM     13  HN  UNL     1       8.225  -3.787  22.658  1.00  0.00     0.169 HD
BRANCH  12  14
HETATM   14  C   UNL     1       6.753  -4.451  23.819  1.00  0.00     0.056 A 
HETATM   15  C   UNL     1       6.367  -4.811  25.050  1.00  0.00     0.117 A 
HETATM   16  N   UNL     1       5.786  -5.513  25.818  1.00  0.00    -0.373 N 
HETATM   17  C   UNL     1       5.217  -6.384  24.968  1.00  0.00     0.088 A 
ATOM     18  HN  UNL     1       5.735  -5.465  26.836  1.00  0.00     0.164 HD
HETATM   19  C   UNL     1       5.345  -6.325  23.684  1.00  0.00     0.026 A 
HETATM   20  C   UNL     1       6.013  -5.430  22.944  1.00  0.00    -0.033 A 
HETATM   21  C   UNL     1       6.106  -5.379  21.386  1.00  0.00     0.050 C 
ENDBRANCH  12  14
ENDBRANCH   9  10
BRANCH   1  22
HETATM   22  N   UNL     1       7.781  -0.004  19.246  1.00  0.00    -0.295 N 
ATOM     23  HN  UNL     1       8.500   0.035  18.524  1.00  0.00     0.177 HD
BRANCH  22  24
HETATM   24  S   UNL     1       6.236   0.021  18.711  1.00  0.00     0.226 S 
HETATM   25  C   UNL     1       6.119   1.502  17.652  1.00  0.00     0.186 C 
HETATM   26  O   UNL     1       5.958  -1.116  17.883  1.00  0.00    -0.206 OA
HETATM   27  O   UNL     1       5.303   0.213  19.751  1.00  0.00    -0.206 OA
ENDBRANCH  22  24
ENDBRANCH   1  22
TORSDOF 4
ENDMDL
MODEL 7
REMARK VINA RESULT:    -6.870      4.093      8.087
REMARK INTER + INTRA:          -9.177
REMARK INTER:                  -8.523
REMARK INTRA:                  -0.654
REMARK UNBOUND:                -0.701
REMARK  4 active torsions:
REMARK  status: ('A' for Active; 'I' for Inactive)
REMARK    1  A    between atoms: S_2  and  N_5 
REMARK    2  A    between atoms: N_5  and  C_7 
REMARK    3  A    between atoms: C_15  and  C_16 
REMARK       I    between atoms: C_16  and  N_18 
REMARK    4  A    between atoms: N_18  and  C_20 
ROOT
HETATM    1  C   UNL     1       9.166  -2.654  23.854  1.00  0.00     0.109 C 
HETATM    2  C   UNL     1       8.320  -3.524  24.128  1.00  0.00    -0.008 A 
HETATM    3  C   UNL     1       7.323  -4.251  23.745  1.00  0.00     0.057 A 
HETATM    4  C   UNL     1       5.856  -3.794  23.050  1.00  0.00    -0.007 C 
HETATM    5  C   UNL     1       5.349  -4.357  22.361  1.00  0.00    -0.025 C 
HETATM    6  C   UNL     1       5.669  -5.643  21.663  1.00  0.00     0.053 C 
HETATM    7  C   UNL     1       7.060  -5.984  22.038  1.00  0.00    -0.025 C 
HETATM    8  C   UNL     1       7.756  -5.601  22.665  1.00  0.00    -0.007 C 
HETATM    9  C   UNL     1       7.235  -4.697  24.826  1.00  0.00     0.040 A 
ENDROOT
BRANCH   9  10
HETATM   10  C   UNL     1       6.988  -5.261  26.060  1.00  0.00     0.254 C 
HETATM   11  O   UNL     1       7.885  -5.689  26.633  1.00  0.00    -0.268 OA
HETATM   12  N   UNL     1       5.728  -5.195  26.355  1.00  0.00    -0.321 N 
ATOM     13  HN  UNL     1       5.082  -4.762  25.695  1.00  0.00     0.169 HD
BRANCH  12  14
HETATM   14  C   UNL     1       5.277  -5.660  27.457  1.00  0.00     0.056 A 
HETATM   15  C   UNL     1       5.166  -6.869  28.022  1.00  0.00     0.117 A 
HETATM   16  N   UNL     1       4.838  -7.607  28.899  1.00  0.00    -0.373 N 
HETATM   17  C   UNL     1       4.325  -6.727  29.776  1.00  0.00     0.088 A 
ATOM     18  HN  UNL     1       4.923  -8.622  28.966  1.00  0.00     0.164 HD
HETATM   19  C   UNL     1       4.293  -5.451  29.580  1.00  0.00     0.026 A 
HETATM   20  C   UNL     1       4.750  -4.746  28.535  1.00  0.00    -0.033 A 
HETATM   21  C   UNL     1       4.723  -3.195  28.362  1.00  0.00     0.050 C 
ENDBRANCH  12  14
ENDBRANCH   9  10
BRANCH   1  22
HETATM   22  N   UNL     1       9.811  -1.707  24.071  1.00  0.00    -0.295 N 
ATOM     23  HN  UNL     1       9.680  -1.281  24.988  1.00  0.00     0.177 HD
BRANCH  22  24
HETATM   24  S   UNL     1      10.901  -0.975  23.096  1.00  0.00     0.226 S 
HETATM   25  C   UNL     1      11.806   0.186  24.175  1.00  0.00     0.186 C 
HETATM   26  O   UNL     1      11.856  -1.917  22.590  1.00  0.00    -0.206 OA
HETATM   27  O   UNL     1      10.293  -0.184  22.099  1.00  0.00    -0.206 OA
ENDBRANCH  22  24
ENDBRANCH   1  22
TORSDOF 4
ENDMDL
MODEL 8
REMARK VINA RESULT:    -6.855      2.921      4.087
REMARK INTER + INTRA:          -9.158
REMARK INTER:                  -8.594
REMARK INTRA:                  -0.564
REMARK UNBOUND:                -0.701
REMARK  4 active torsions:
REMARK  status: ('A' for Active; 'I' for Inactive)
REMARK    1  A    between atoms: S_2  and  N_5 
REMARK    2  A    between atoms: N_5  and  C_7 
REMARK    3  A    between atoms: C_15  and  C_16 
REMARK       I    between atoms: C_16  and  N_18 
REMARK    4  A    between atoms: N_18  and  C_20 
ROOT
HETATM    1  C   UNL     1       5.213  -6.158  24.114  1.00  0.00     0.109 C 
HETATM    2  C   UNL     1       5.558  -5.012  23.775  1.00  0.00    -0.008 A 
HETATM    3  C   UNL     1       5.956  -3.832  24.122  1.00  0.00     0.057 A 
HETATM    4  C   UNL     1       5.272  -2.736  25.206  1.00  0.00    -0.007 C 
HETATM    5  C   UNL     1       5.815  -2.091  25.787  1.00  0.00    -0.025 C 
HETATM    6  C   UNL     1       7.287  -1.900  25.993  1.00  0.00     0.053 C 
HETATM    7  C   UNL     1       7.956  -2.997  25.258  1.00  0.00    -0.025 C 
HETATM    8  C   UNL     1       7.658  -3.743  24.643  1.00  0.00    -0.007 C 
HETATM    9  C   UNL     1       5.927  -3.494  22.999  1.00  0.00     0.040 A 
ENDROOT
BRANCH   9  10
HETATM   10  C   UNL     1       5.888  -2.952  21.733  1.00  0.00     0.254 C 
HETATM   11  O   UNL     1       5.510  -3.624  20.883  1.00  0.00    -0.268 OA
HETATM   12  N   UNL     1       6.303  -1.724  21.742  1.00  0.00    -0.321 N 
ATOM     13  HN  UNL     1       6.598  -1.303  22.623  1.00  0.00     0.169 HD
BRANCH  12  14
HETATM   14  C   UNL     1       6.349  -1.029  20.669  1.00  0.00     0.056 A 
HETATM   15  C   UNL     1       5.508  -0.740  19.668  1.00  0.00     0.117 A 
HETATM   16  N   UNL     1       5.226  -0.219  18.634  1.00  0.00    -0.373 N 
HETATM   17  C   UNL     1       6.377   0.419  18.363  1.00  0.00     0.088 A 
ATOM     18  HN  UNL     1       4.355  -0.250  18.103  1.00  0.00     0.164 HD
HETATM   19  C   UNL     1       7.413   0.394  19.134  1.00  0.00     0.026 A 
HETATM   20  C   UNL     1       7.570  -0.217  20.316  1.00  0.00    -0.033 A 
HETATM   21  C   UNL     1       8.834  -0.185  21.231  1.00  0.00     0.050 C 
ENDBRANCH  12  14
ENDBRANCH   9  10
BRANCH   1  22
HETATM   22  N   UNL     1       4.556  -7.120  24.059  1.00  0.00    -0.295 N 
ATOM     23  HN  UNL     1       5.038  -7.970  23.765  1.00  0.00     0.177 HD
BRANCH  22  24
HETATM   24  S   UNL     1       2.964  -7.283  24.391  1.00  0.00     0.226 S 
HETATM   25  C   UNL     1       2.098  -6.540  22.967  1.00  0.00     0.186 C 
HETATM   26  O   UNL     1       2.587  -8.666  24.442  1.00  0.00    -0.206 OA
HETATM   27  O   UNL     1       2.564  -6.539  25.519  1.00  0.00    -0.206 OA
ENDBRANCH  22  24
ENDBRANCH   1  22
TORSDOF 4
ENDMDL
MODEL 9
REMARK VINA RESULT:    -6.436      3.795      6.729
REMARK INTER + INTRA:          -8.641
REMARK INTER:                  -7.894
REMARK INTRA:                  -0.747
REMARK UNBOUND:                -0.701
REMARK  4 active torsions:
REMARK  status: ('A' for Active; 'I' for Inactive)
REMARK    1  A    between atoms: S_2  and  N_5 
REMARK    2  A    between atoms: N_5  and  C_7 
REMARK    3  A    between atoms: C_15  and  C_16 
REMARK       I    between atoms: C_16  and  N_18 
REMARK    4  A    between atoms: N_18  and  C_20 
ROOT
HETATM    1  C   UNL     1       5.898  -5.109  27.674  1.00  0.00     0.109 C 
HETATM    2  C   UNL     1       5.902  -5.040  26.432  1.00  0.00    -0.008 A 
HETATM    3  C   UNL     1       5.310  -5.298  25.312  1.00  0.00     0.057 A 
HETATM    4  C   UNL     1       4.736  -6.762  24.704  1.00  0.00    -0.007 C 
HETATM    5  C   UNL     1       3.907  -6.850  24.110  1.00  0.00    -0.025 C 
HETATM    6  C   UNL     1       2.887  -5.861  23.633  1.00  0.00     0.053 C 
HETATM    7  C   UNL     1       3.185  -4.589  24.329  1.00  0.00    -0.025 C 
HETATM    8  C   UNL     1       3.908  -4.257  24.953  1.00  0.00    -0.007 C 
HETATM    9  C   UNL     1       6.224  -4.849  24.728  1.00  0.00     0.040 A 
ENDROOT
BRANCH   9  10
HETATM   10  C   UNL     1       7.246  -4.402  23.920  1.00  0.00     0.254 C 
HETATM   11  O   UNL     1       7.770  -5.176  23.255  1.00  0.00    -0.268 OA
HETATM   12  N   UNL     1       7.429  -3.127  24.068  1.00  0.00    -0.321 N 
ATOM     13  HN  UNL     1       6.842  -2.611  24.722  1.00  0.00     0.169 HD
BRANCH  12  14
HETATM   14  C   UNL     1       8.332  -2.504  23.411  1.00  0.00     0.056 A 
HETATM   15  C   UNL     1       9.660  -2.353  23.497  1.00  0.00     0.117 A 
HETATM   16  N   UNL     1      10.705  -1.906  23.137  1.00  0.00    -0.373 N 
HETATM   17  C   UNL     1      10.307  -1.193  22.070  1.00  0.00     0.088 A 
ATOM     18  HN  UNL     1      11.638  -2.031  23.529  1.00  0.00     0.164 HD
HETATM   19  C   UNL     1       9.084  -1.131  21.660  1.00  0.00     0.026 A 
HETATM   20  C   UNL     1       7.997  -1.737  22.156  1.00  0.00    -0.033 A 
HETATM   21  C   UNL     1       6.540  -1.660  21.600  1.00  0.00     0.050 C 
ENDBRANCH  12  14
ENDBRANCH   9  10
BRANCH   1  22
HETATM   22  N   UNL     1       6.383  -5.279  28.721  1.00  0.00    -0.295 N 
ATOM     23  HN  UNL     1       7.062  -4.577  29.015  1.00  0.00     0.177 HD
BRANCH  22  24
HETATM   24  S   UNL     1       6.118  -6.498  29.778  1.00  0.00     0.226 S 
HETATM   25  C   UNL     1       4.307  -6.720  29.809  1.00  0.00     0.186 C 
HETATM   26  O   UNL     1       6.687  -7.725  29.304  1.00  0.00    -0.206 OA
HETATM   27  O   UNL     1       6.490  -6.165  31.096  1.00  0.00    -0.206 OA
ENDBRANCH  22  24
ENDBRANCH   1  22
TORSDOF 4
ENDMDL
