stable:False satoms:16 tatoms:24 sratio:0.6666666666666666
  -OEChem-08062408093D

 29 29  0     1  0  0  0  0  0999 V2000
    6.6160   -5.0068   26.0927 F   0  0  0  0  0  0  0  0  0  0  0  0
    7.9052   -4.6886   25.8734 C   0  0  0  0  0  0  0  0  0  0  0  0
    8.6233   -5.7839   26.0599 F   0  0  0  0  0  0  0  0  0  0  0  0
    8.2823   -3.7980   26.8288 F   0  0  0  0  0  0  0  0  0  0  0  0
    8.0671   -4.1548   24.5608 N   0  0  0  0  0  0  0  0  0  0  0  0
    8.7868   -3.2868   24.1650 C   0  0  0  0  0  0  0  0  0  0  0  0
    9.4328   -2.4315   23.6565 C   0  0  0  0  0  0  0  0  0  0  0  0
   10.1614   -1.5769   22.9824 C   0  0  3  0  0  0  0  0  0  0  0  0
   11.0081   -0.2885   24.9071 H   0  0  0  0  0  0  0  0  0  0  0  0
   11.9308    0.2114   24.9736 N   0  0  0  0  0  0  0  0  0  0  0  0
   12.8673   -0.2598   24.2513 N   0  0  0  0  0  0  0  0  0  0  0  0
   12.5996   -1.2268   23.4681 N   0  0  0  0  0  0  0  0  0  0  0  0
   11.4489   -1.5123   23.0180 N   0  0  0  0  0  0  0  0  0  0  0  0
    9.3441   -0.8989   21.9245 C   0  0  0  0  0  2  0  0  0  0  0  0
    8.7274    1.2280   20.1230 O   0  0  0  0  0  0  0  0  0  0  0  0
    8.0628   -1.1198   21.6264 N   0  3  0  0  0  0  0  0  0  0  0  0
    7.4948   -0.3230   20.6051 C   0  0  3  0  0  0  0  0  0  0  0  0
    7.9650    0.1167   18.6446 H   0  0  0  0  0  0  0  0  0  0  0  0
    7.8580    0.3578   19.6458 C   0  0  1  0  0  0  0  0  0  0  0  0
    5.7224    1.1979   18.3708 H   0  0  0  0  0  0  0  0  0  0  0  0
    5.6299    0.7377   19.2233 C   0  0  0  0  0  2  0  0  0  0  0  0
    6.2510    0.3189   20.3157 C   0  0  1  0  0  0  0  0  0  0  0  0
    5.6235    0.4589   21.2065 H   0  0  0  0  0  0  0  0  0  0  0  0
    7.1504   -3.8441   24.3098 H   0  0  0  0  0  0  0  0  0  0  0  0
   10.0208   -0.7634   23.7094 H   0  0  0  0  0  0  0  0  0  0  0  0
    9.5544    1.1336   19.6651 H   0  0  0  0  0  0  0  0  0  0  0  0
    7.5291   -0.9691   22.4586 H   0  0  0  0  0  0  0  0  0  0  0  0
    7.2550   -1.1952   19.9792 H   0  0  0  0  0  0  0  0  0  0  0  0
    7.9789   -2.0757   21.3451 H   0  0  0  0  0  0  0  0  0  0  0  0
 20 21  1  0  0  0  0
 18 19  1  0  0  0  0
 21 22  1  0  0  0  0
 15 19  1  0  0  0  0
 19 22  1  0  0  0  0
 17 19  1  0  0  0  0
 17 22  1  0  0  0  0
 22 23  1  0  0  0  0
 16 17  1  0  0  0  0
 14 16  1  0  0  0  0
  8 14  1  0  0  0  0
  8 13  1  0  0  0  0
 12 13  2  0  0  0  0
  7  8  1  0  0  0  0
 11 12  1  0  0  0  0
  6  7  3  0  0  0  0
 10 11  2  0  0  0  0
  5  6  1  0  0  0  0
  9 10  1  0  0  0  0
  2  5  1  0  0  0  0
  2  3  1  0  0  0  0
  1  2  1  0  0  0  0
  2  4  1  0  0  0  0
  5 24  1  0  0  0  0
  8 25  1  0  0  0  0
 15 26  1  0  0  0  0
 16 27  1  0  0  0  0
 17 28  1  0  0  0  0
 16 29  1  0  0  0  0
M  CHG  1  16   1
M  END
> <Chemgauss4>
-7.760306

$$$$
