stable:False satoms:16 tatoms:24 sratio:0.6666666666666666
  -OEChem-08062408093D

 29 29  0     1  0  0  0  0  0999 V2000
   -6.6226   -5.1741  -26.1046 F   0  0  0  0  0  0  0  0  0  0  0  0
   -7.9118   -4.8559  -25.8853 C   0  0  0  0  0  0  0  0  0  0  0  0
   -8.6300   -5.9512  -26.0718 F   0  0  0  0  0  0  0  0  0  0  0  0
   -8.2890   -3.9653  -26.8407 F   0  0  0  0  0  0  0  0  0  0  0  0
   -8.0738   -4.3222  -24.5727 N   0  0  0  0  0  0  0  0  0  0  0  0
   -8.7934   -3.4541  -24.1769 C   0  0  0  0  0  0  0  0  0  0  0  0
   -9.4395   -2.5988  -23.6685 C   0  0  0  0  0  0  0  0  0  0  0  0
  -10.1680   -1.7442  -22.9943 C   0  0  3  0  0  0  0  0  0  0  0  0
  -11.0148   -0.4558  -24.9190 H   0  0  0  0  0  0  0  0  0  0  0  0
  -11.9375    0.0441  -24.9855 N   0  0  0  0  0  0  0  0  0  0  0  0
  -12.8740   -0.4271  -24.2632 N   0  0  0  0  0  0  0  0  0  0  0  0
  -12.6062   -1.3941  -23.4801 N   0  0  0  0  0  0  0  0  0  0  0  0
  -11.4556   -1.6796  -23.0300 N   0  0  0  0  0  0  0  0  0  0  0  0
   -9.3507   -1.0663  -21.9365 C   0  0  0  0  0  2  0  0  0  0  0  0
   -8.7340    1.0607  -20.1349 O   0  0  0  0  0  0  0  0  0  0  0  0
   -8.0694   -1.2871  -21.6383 N   0  3  0  0  0  0  0  0  0  0  0  0
   -7.5015   -0.4903  -20.6170 C   0  0  3  0  0  0  0  0  0  0  0  0
   -7.9716   -0.0506  -18.6566 H   0  0  0  0  0  0  0  0  0  0  0  0
   -7.8646    0.1905  -19.6577 C   0  0  1  0  0  0  0  0  0  0  0  0
   -5.7291    1.0306  -18.3827 H   0  0  0  0  0  0  0  0  0  0  0  0
   -5.6365    0.5704  -19.2352 C   0  0  0  0  0  2  0  0  0  0  0  0
   -6.2576    0.1516  -20.3277 C   0  0  1  0  0  0  0  0  0  0  0  0
   -5.6301    0.2916  -21.2185 H   0  0  0  0  0  0  0  0  0  0  0  0
   -7.1570   -4.0114  -24.3217 H   0  0  0  0  0  0  0  0  0  0  0  0
  -10.0274   -0.9307  -23.7213 H   0  0  0  0  0  0  0  0  0  0  0  0
   -9.5611    0.9663  -19.6771 H   0  0  0  0  0  0  0  0  0  0  0  0
   -7.5357   -1.1364  -22.4705 H   0  0  0  0  0  0  0  0  0  0  0  0
   -7.2616   -1.3625  -19.9911 H   0  0  0  0  0  0  0  0  0  0  0  0
   -7.9855   -2.2430  -21.3571 H   0  0  0  0  0  0  0  0  0  0  0  0
 20 21  1  0  0  0  0
 18 19  1  0  0  0  0
 21 22  1  0  0  0  0
 15 19  1  0  0  0  0
 19 22  1  0  0  0  0
 17 19  1  0  0  0  0
 17 22  1  0  0  0  0
 22 23  1  0  0  0  0
 16 17  1  0  0  0  0
 14 16  1  0  0  0  0
  8 14  1  0  0  0  0
  8 13  1  0  0  0  0
 12 13  2  0  0  0  0
  7  8  1  0  0  0  0
 11 12  1  0  0  0  0
  6  7  3  0  0  0  0
 10 11  2  0  0  0  0
  5  6  1  0  0  0  0
  9 10  1  0  0  0  0
  2  5  1  0  0  0  0
  2  3  1  0  0  0  0
  1  2  1  0  0  0  0
  2  4  1  0  0  0  0
  5 24  1  0  0  0  0
  8 25  1  0  0  0  0
 15 26  1  0  0  0  0
 16 27  1  0  0  0  0
 17 28  1  0  0  0  0
 16 29  1  0  0  0  0
M  CHG  1  16   1
M  END
> <Chemgauss4>
-7.914194

$$$$
