stable:False satoms:21 tatoms:24 sratio:0.875
  -OEChem-07092417283D

 24 25  0     1  0  0  0  0  0999 V2000
   11.2502   -2.8892   22.9923 C   0  0  0  0  0  0  0  0  0  0  0  0
    9.6364   -3.7856   24.1561 H   0  0  0  0  0  0  0  0  0  0  0  0
    7.3318   -0.7946   22.1029 C   0  0  0  0  0  0  0  0  0  0  0  0
    6.1018   -0.7495   20.1407 C   0  3  0  0  0  0  0  0  0  0  0  0
    6.7105   -1.4515   21.0909 O   0  0  0  0  0  0  0  0  0  0  0  0
    5.8901    0.5924   20.2174 C   0  0  0  0  0  0  0  0  0  0  0  0
    9.8055   -0.9379   24.0282 N   0  0  0  0  0  0  0  0  0  0  0  0
    6.3239    2.9986   21.3560 Cl  0  0  0  0  0  0  0  0  0  0  0  0
   11.3900   -0.5892   25.3255 H   0  0  0  0  0  0  0  0  0  0  0  0
   10.9362   -1.4305   24.7887 C   0  0  0  0  0  0  0  0  0  0  0  0
    7.2543    0.6024   22.1935 C   0  0  0  0  0  0  0  0  0  0  0  0
    6.5086    1.2751   21.2560 C   0  0  0  0  0  0  0  0  0  0  0  0
    5.7785   -1.3454   19.3030 H   0  0  0  0  0  0  0  0  0  0  0  0
    9.9533   -0.1511   23.3778 H   0  0  0  0  0  0  0  0  0  0  0  0
   11.8290   -3.8167   23.0201 H   0  0  0  0  0  0  0  0  0  0  0  0
   10.6462   -2.1842   25.5441 H   0  0  0  0  0  0  0  0  0  0  0  0
    9.7540   -3.1940   23.2458 C   0  0  0  0  0  0  0  0  0  0  0  0
    9.0752   -1.8720   23.3691 C   0  0  3  0  0  0  0  0  0  0  0  0
    5.2570    1.1134   19.5199 H   0  0  0  0  0  0  0  0  0  0  0  0
   11.3416   -2.4509   21.9963 H   0  0  0  0  0  0  0  0  0  0  0  0
    7.7403    1.1234   22.9930 H   0  0  0  0  0  0  0  0  0  0  0  0
   11.8484   -2.0096   23.9071 O   0  0  0  0  0  0  0  0  0  0  0  0
    7.8934   -1.6024   22.9582 N   0  0  0  0  0  0  0  0  0  0  0  0
    9.3282   -3.7410   22.4143 H   0  0  0  0  0  0  0  0  0  0  0  0
  4 13  1  0  0  0  0
  6 19  1  0  0  0  0
  4  6  1  0  0  0  0
  4  5  1  0  0  0  0
  6 12  2  0  0  0  0
  3  5  1  0  0  0  0
  8 12  1  0  0  0  0
 11 12  1  0  0  0  0
  1 20  1  0  0  0  0
  3 11  2  0  0  0  0
  3 23  1  0  0  0  0
 11 21  1  0  0  0  0
 17 24  1  0  0  0  0
 18 23  1  0  0  0  0
  1 15  1  0  0  0  0
  1 17  1  0  0  0  0
  1 22  1  0  0  0  0
 17 18  1  0  0  0  0
  2 17  1  0  0  0  0
  7 18  1  0  0  0  0
  7 14  1  0  0  0  0
 10 22  1  0  0  0  0
  7 10  1  0  0  0  0
  9 10  1  0  0  0  0
 10 16  1  0  0  0  0
M  CHG  1   4   1
M  END
> <Shapegauss>
-117.815018

$$$$
