stable:False satoms:21 tatoms:24 sratio:0.875
  -OEChem-08052416223D

 27 28  0     1  0  0  0  0  0999 V2000
   -7.3588   -3.9831  -23.3734 C   0  0  0  0  0  0  0  0  0  0  0  0
   -8.0280   -4.0675  -21.2980 H   0  0  0  0  0  0  0  0  0  0  0  0
  -10.9029   -1.2270  -22.7607 C   0  0  0  0  0  0  0  0  0  0  0  0
  -13.0479   -1.3777  -23.6218 C   0  3  0  0  0  0  0  0  0  0  0  0
  -12.0422   -1.9377  -22.9576 O   0  0  0  0  0  0  0  0  0  0  0  0
  -13.0872   -0.0585  -23.9528 C   0  0  0  0  0  0  0  0  0  0  0  0
   -7.7852   -1.5120  -22.5490 N   0  3  0  0  0  0  0  0  0  0  0  0
  -11.9121    2.3551  -24.2140 Cl  0  0  0  0  0  0  0  0  0  0  0  0
   -5.7221   -1.2699  -22.5292 H   0  0  0  0  0  0  0  0  0  0  0  0
   -6.4580   -2.0694  -22.3837 C   0  0  0  0  0  0  0  0  0  0  0  0
  -10.8224    0.1107  -23.1727 C   0  0  0  0  0  0  0  0  0  0  0  0
  -11.9328    0.6838  -23.7439 C   0  0  0  0  0  0  0  0  0  0  0  0
  -13.8406   -2.0656  -23.8664 H   0  0  0  0  0  0  0  0  0  0  0  0
   -7.8638   -1.1850  -23.4908 H   0  0  0  0  0  0  0  0  0  0  0  0
   -6.9360   -4.9898  -23.3119 H   0  0  0  0  0  0  0  0  0  0  0  0
   -6.2937   -2.4871  -21.3731 H   0  0  0  0  0  0  0  0  0  0  0  0
   -8.4328   -3.7946  -22.2748 C   0  0  0  0  0  0  0  0  0  0  0  0
   -8.8216   -2.3556  -22.3158 C   0  0  3  0  0  0  0  0  0  0  0  0
  -13.9749    0.4079  -24.3440 H   0  0  0  0  0  0  0  0  0  0  0  0
   -7.8450   -3.8680  -24.3444 H   0  0  0  0  0  0  0  0  0  0  0  0
   -9.9262    0.6753  -23.0154 H   0  0  0  0  0  0  0  0  0  0  0  0
   -6.2812   -3.0862  -23.3216 O   0  0  0  0  0  0  0  0  0  0  0  0
   -9.9979   -1.8975  -22.1043 N   0  0  0  0  0  0  0  0  0  0  0  0
   -9.3011   -4.4080  -22.4787 H   0  0  0  0  0  0  0  0  0  0  0  0
   -9.0259   -2.4272  -23.3943 H   0  0  0  0  0  0  0  0  0  0  0  0
   -9.8562   -1.3228  -21.2984 H   0  0  0  0  0  0  0  0  0  0  0  0
   -7.8725   -0.7398  -21.9197 H   0  0  0  0  0  0  0  0  0  0  0  0
  4 13  1  0  0  0  0
  6 19  1  0  0  0  0
  4  6  1  0  0  0  0
  4  5  1  0  0  0  0
  6 12  2  0  0  0  0
  3  5  1  0  0  0  0
  8 12  1  0  0  0  0
 11 12  1  0  0  0  0
  1 20  1  0  0  0  0
  3 11  2  0  0  0  0
  3 23  1  0  0  0  0
 11 21  1  0  0  0  0
 17 24  1  0  0  0  0
 18 23  1  0  0  0  0
  1 15  1  0  0  0  0
  1 17  1  0  0  0  0
  1 22  1  0  0  0  0
 17 18  1  0  0  0  0
  2 17  1  0  0  0  0
  7 18  1  0  0  0  0
  7 14  1  0  0  0  0
 10 22  1  0  0  0  0
  7 10  1  0  0  0  0
  9 10  1  0  0  0  0
 10 16  1  0  0  0  0
 18 25  1  0  0  0  0
 23 26  1  0  0  0  0
  7 27  1  0  0  0  0
M  CHG  2   4   1   7   1
M  END
> <Chemgauss4>
-6.344245

$$$$
