stable:False satoms:21 tatoms:24 sratio:0.875
  -OEChem-08052416223D

 27 28  0     1  0  0  0  0  0999 V2000
    7.4393   -3.8732   22.9932 C   0  0  0  0  0  0  0  0  0  0  0  0
    8.2831   -3.9264   20.9814 H   0  0  0  0  0  0  0  0  0  0  0  0
   10.9711   -1.0492   22.7047 C   0  0  0  0  0  0  0  0  0  0  0  0
   13.0379   -1.1699   23.7434 C   0  3  0  0  0  0  0  0  0  0  0  0
   12.1026   -1.7414   22.9919 O   0  0  0  0  0  0  0  0  0  0  0  0
   13.0247    0.1466   24.0868 C   0  0  0  0  0  0  0  0  0  0  0  0
    7.8882   -1.3874   22.2272 N   0  3  0  0  0  0  0  0  0  0  0  0
   11.7875    2.5365   24.2661 Cl  0  0  0  0  0  0  0  0  0  0  0  0
    5.8302   -1.1816   22.0344 H   0  0  0  0  0  0  0  0  0  0  0  0
    6.5903   -1.9666   21.9457 C   0  0  0  0  0  0  0  0  0  0  0  0
   10.8314    0.2830   23.1188 C   0  0  0  0  0  0  0  0  0  0  0  0
   11.8787    0.8703   23.7865 C   0  0  0  0  0  0  0  0  0  0  0  0
   13.8196   -1.8459   24.0489 H   0  0  0  0  0  0  0  0  0  0  0  0
    7.8808   -1.0678   23.1747 H   0  0  0  0  0  0  0  0  0  0  0  0
    7.0418   -4.8866   22.8882 H   0  0  0  0  0  0  0  0  0  0  0  0
    6.5199   -2.3778   20.9216 H   0  0  0  0  0  0  0  0  0  0  0  0
    8.5986   -3.6555   21.9912 C   0  0  0  0  0  0  0  0  0  0  0  0
    8.9561   -2.2103   22.0761 C   0  0  3  0  0  0  0  0  0  0  0  0
   13.8675    0.6251   24.5554 H   0  0  0  0  0  0  0  0  0  0  0  0
    7.8393   -3.7585   24.0028 H   0  0  0  0  0  0  0  0  0  0  0  0
    9.9414    0.8331   22.8904 H   0  0  0  0  0  0  0  0  0  0  0  0
    6.3536   -2.9950   22.8572 O   0  0  0  0  0  0  0  0  0  0  0  0
   10.1374   -1.7295   21.9688 N   0  0  0  0  0  0  0  0  0  0  0  0
    9.4578   -4.2553   22.2631 H   0  0  0  0  0  0  0  0  0  0  0  0
    9.0696   -2.2883   23.1675 H   0  0  0  0  0  0  0  0  0  0  0  0
   10.0538   -1.1499   21.1582 H   0  0  0  0  0  0  0  0  0  0  0  0
    8.0143   -0.6079   21.6135 H   0  0  0  0  0  0  0  0  0  0  0  0
  4 13  1  0  0  0  0
  6 19  1  0  0  0  0
  4  6  1  0  0  0  0
  4  5  1  0  0  0  0
  6 12  2  0  0  0  0
  3  5  1  0  0  0  0
  8 12  1  0  0  0  0
 11 12  1  0  0  0  0
  1 20  1  0  0  0  0
  3 11  2  0  0  0  0
  3 23  1  0  0  0  0
 11 21  1  0  0  0  0
 17 24  1  0  0  0  0
 18 23  1  0  0  0  0
  1 15  1  0  0  0  0
  1 17  1  0  0  0  0
  1 22  1  0  0  0  0
 17 18  1  0  0  0  0
  2 17  1  0  0  0  0
  7 18  1  0  0  0  0
  7 14  1  0  0  0  0
 10 22  1  0  0  0  0
  7 10  1  0  0  0  0
  9 10  1  0  0  0  0
 10 16  1  0  0  0  0
 18 25  1  0  0  0  0
 23 26  1  0  0  0  0
  7 27  1  0  0  0  0
M  CHG  2   4   1   7   1
M  END
> <Chemgauss4>
-6.327184

$$$$
