stable:False satoms:7 tatoms:24 sratio:0.2916666666666667
  -OEChem-08062412473D

 43 44  0     1  0  0  0  0  0999 V2000
   -6.6626   -5.2969  -26.1353 C   0  0  0  0  0  0  0  0  0  0  0  0
   -8.1853   -4.6507  -25.9443 S   0  0  0  0  0  0  0  0  0  0  0  0
   -9.1201   -5.7635  -25.8369 O   0  0  0  0  0  0  0  0  0  0  0  0
   -8.4866   -3.7979  -27.0593 O   0  0  0  0  0  0  0  0  0  0  0  0
   -8.1284   -3.7872  -24.5598 N   0  0  0  0  0  0  0  0  0  0  0  0
   -8.9670   -3.0630  -24.1496 C   0  0  0  0  0  0  0  0  0  0  0  0
   -9.4690   -2.1193  -23.6594 C   0  0  0  0  0  0  0  0  0  0  0  0
  -10.3413   -1.1988  -23.5208 C   0  0  1  0  0  0  0  0  0  0  0  0
  -10.9281   -0.1433  -24.6917 C   0  0  0  0  0  0  0  0  0  0  0  0
  -12.0231    0.2011  -24.6688 C   0  0  0  0  0  0  0  0  0  0  0  0
  -12.9803   -0.1133  -24.0108 C   0  0  0  0  0  0  0  0  0  0  0  0
  -12.7857   -1.2443  -23.0628 C   0  0  0  0  0  0  0  0  0  0  0  0
  -11.8760   -1.7390  -22.8736 C   0  0  0  0  0  0  0  0  0  0  0  0
   -9.7686   -0.5823  -22.6402 C   0  0  0  0  0  0  0  0  0  0  0  0
   -9.1578    0.0893  -21.6754 C   0  0  0  0  0  0  0  0  0  0  0  0
   -9.6311    1.0730  -21.3586 O   0  0  0  0  0  0  0  0  0  0  0  0
   -8.0286   -0.5337  -21.2881 N   0  0  0  0  0  0  0  0  0  0  0  0
   -7.3502   -0.0401  -20.3634 C   0  0  0  0  0  0  0  0  0  0  0  0
   -7.4484    0.1884  -19.0638 C   0  0  0  0  0  0  0  0  0  0  0  0
   -7.1387    0.5636  -17.9626 N   0  0  0  0  0  0  0  0  0  0  0  0
   -5.9583    1.0196  -18.4289 C   0  0  0  0  0  0  0  0  0  0  0  0
   -5.4497    0.9909  -19.5408 C   0  0  0  0  0  0  0  0  0  0  0  0
   -5.8965    0.5012  -20.7245 C   0  0  0  0  0  0  0  0  0  0  0  0
   -5.4397    0.4744  -21.8069 C   0  0  0  0  0  0  0  0  0  0  0  0
   -6.6310   -5.8959  -27.0574 H   0  0  0  0  0  0  0  0  0  0  0  0
   -5.9249   -4.4836  -26.2011 H   0  0  0  0  0  0  0  0  0  0  0  0
   -6.4258   -5.9380  -25.2734 H   0  0  0  0  0  0  0  0  0  0  0  0
   -7.3103   -3.2180  -24.6416 H   0  0  0  0  0  0  0  0  0  0  0  0
  -10.2702    0.2128  -25.4706 H   0  0  0  0  0  0  0  0  0  0  0  0
  -12.2406    0.9725  -25.3928 H   0  0  0  0  0  0  0  0  0  0  0  0
  -13.9279    0.3967  -24.1030 H   0  0  0  0  0  0  0  0  0  0  0  0
  -13.6546   -1.5876  -22.5211 H   0  0  0  0  0  0  0  0  0  0  0  0
  -11.7574   -1.7465  -21.7801 H   0  0  0  0  0  0  0  0  0  0  0  0
  -12.0110   -2.7691  -23.2349 H   0  0  0  0  0  0  0  0  0  0  0  0
   -9.3967    0.1392  -23.3825 H   0  0  0  0  0  0  0  0  0  0  0  0
   -9.0444   -1.4032  -22.5319 H   0  0  0  0  0  0  0  0  0  0  0  0
   -7.7376   -1.3797  -21.7348 H   0  0  0  0  0  0  0  0  0  0  0  0
   -8.4273   -0.2219  -18.8646 H   0  0  0  0  0  0  0  0  0  0  0  0
   -5.3471    1.5007  -17.6796 H   0  0  0  0  0  0  0  0  0  0  0  0
   -4.4669    1.4361  -19.5891 H   0  0  0  0  0  0  0  0  0  0  0  0
   -4.8802   -0.4624  -21.9463 H   0  0  0  0  0  0  0  0  0  0  0  0
   -6.2503    0.5309  -22.5484 H   0  0  0  0  0  0  0  0  0  0  0  0
   -4.7611    1.3298  -21.9397 H   0  0  0  0  0  0  0  0  0  0  0  0
 20 21  2  0  0  0  0
 19 20  1  0  0  0  0
 21 22  1  0  0  0  0
 18 19  2  0  0  0  0
 22 23  2  0  0  0  0
 18 23  1  0  0  0  0
 17 18  1  0  0  0  0
 23 24  1  0  0  0  0
 15 16  2  0  0  0  0
 15 17  1  0  0  0  0
 14 15  1  0  0  0  0
  8 14  1  0  0  0  0
 12 13  1  0  0  0  0
  8 13  1  0  0  0  0
 11 12  2  0  0  0  0
  7  8  1  0  0  0  0
  8  9  1  0  0  0  0
 10 11  1  0  0  0  0
  6  7  3  0  0  0  0
  5  6  1  0  0  0  0
  9 10  2  0  0  0  0
  2  5  1  0  0  0  0
  2  3  2  0  0  0  0
  1  2  1  0  0  0  0
  2  4  2  0  0  0  0
  1 25  1  0  0  0  0
  1 26  1  0  0  0  0
  1 27  1  0  0  0  0
  5 28  1  0  0  0  0
  9 29  1  0  0  0  0
 10 30  1  0  0  0  0
 11 31  1  0  0  0  0
 12 32  1  0  0  0  0
 13 33  1  0  0  0  0
 13 34  1  0  0  0  0
 14 35  1  0  0  0  0
 14 36  1  0  0  0  0
 17 37  1  0  0  0  0
 19 38  1  0  0  0  0
 21 39  1  0  0  0  0
 22 40  1  0  0  0  0
 24 41  1  0  0  0  0
 24 42  1  0  0  0  0
 24 43  1  0  0  0  0
M  END
> <Chemgauss4>
-12.974953

$$$$
