stable:False satoms:7 tatoms:24 sratio:0.2916666666666667
  -OEChem-08062412473D

 43 44  0     1  0  0  0  0  0999 V2000
    6.6660   -5.2465   26.0856 C   0  0  0  0  0  0  0  0  0  0  0  0
    8.1887   -4.6003   25.8946 S   0  0  0  0  0  0  0  0  0  0  0  0
    9.1235   -5.7131   25.7872 O   0  0  0  0  0  0  0  0  0  0  0  0
    8.4900   -3.7476   27.0096 O   0  0  0  0  0  0  0  0  0  0  0  0
    8.1317   -3.7368   24.5101 N   0  0  0  0  0  0  0  0  0  0  0  0
    8.9703   -3.0126   24.0999 C   0  0  0  0  0  0  0  0  0  0  0  0
    9.4724   -2.0689   23.6097 C   0  0  0  0  0  0  0  0  0  0  0  0
   10.3447   -1.1484   23.4711 C   0  0  1  0  0  0  0  0  0  0  0  0
   10.9315   -0.0930   24.6421 C   0  0  0  0  0  0  0  0  0  0  0  0
   12.0265    0.2515   24.6192 C   0  0  0  0  0  0  0  0  0  0  0  0
   12.9837   -0.0629   23.9612 C   0  0  0  0  0  0  0  0  0  0  0  0
   12.7890   -1.1939   23.0131 C   0  0  0  0  0  0  0  0  0  0  0  0
   11.8794   -1.6886   22.8239 C   0  0  0  0  0  0  0  0  0  0  0  0
    9.7720   -0.5320   22.5905 C   0  0  0  0  0  0  0  0  0  0  0  0
    9.1611    0.1396   21.6257 C   0  0  0  0  0  0  0  0  0  0  0  0
    9.6345    1.1234   21.3089 O   0  0  0  0  0  0  0  0  0  0  0  0
    8.0320   -0.4833   21.2384 N   0  0  0  0  0  0  0  0  0  0  0  0
    7.3535    0.0103   20.3137 C   0  0  0  0  0  0  0  0  0  0  0  0
    7.4517    0.2388   19.0141 C   0  0  0  0  0  0  0  0  0  0  0  0
    7.1420    0.6140   17.9129 N   0  0  0  0  0  0  0  0  0  0  0  0
    5.9616    1.0700   18.3792 C   0  0  0  0  0  0  0  0  0  0  0  0
    5.4531    1.0413   19.4911 C   0  0  0  0  0  0  0  0  0  0  0  0
    5.8998    0.5516   20.6748 C   0  0  0  0  0  0  0  0  0  0  0  0
    5.4430    0.5247   21.7572 C   0  0  0  0  0  0  0  0  0  0  0  0
    6.6344   -5.8455   27.0077 H   0  0  0  0  0  0  0  0  0  0  0  0
    5.9282   -4.4333   26.1514 H   0  0  0  0  0  0  0  0  0  0  0  0
    6.4291   -5.8876   25.2237 H   0  0  0  0  0  0  0  0  0  0  0  0
    7.3136   -3.1677   24.5919 H   0  0  0  0  0  0  0  0  0  0  0  0
   10.2735    0.2632   25.4209 H   0  0  0  0  0  0  0  0  0  0  0  0
   12.2439    1.0229   25.3431 H   0  0  0  0  0  0  0  0  0  0  0  0
   13.9312    0.4470   24.0533 H   0  0  0  0  0  0  0  0  0  0  0  0
   13.6580   -1.5372   22.4714 H   0  0  0  0  0  0  0  0  0  0  0  0
   11.7608   -1.6961   21.7304 H   0  0  0  0  0  0  0  0  0  0  0  0
   12.0144   -2.7188   23.1852 H   0  0  0  0  0  0  0  0  0  0  0  0
    9.4000    0.1896   23.3328 H   0  0  0  0  0  0  0  0  0  0  0  0
    9.0478   -1.3528   22.4822 H   0  0  0  0  0  0  0  0  0  0  0  0
    7.7409   -1.3294   21.6851 H   0  0  0  0  0  0  0  0  0  0  0  0
    8.4307   -0.1715   18.8149 H   0  0  0  0  0  0  0  0  0  0  0  0
    5.3505    1.5510   17.6299 H   0  0  0  0  0  0  0  0  0  0  0  0
    4.4703    1.4865   19.5395 H   0  0  0  0  0  0  0  0  0  0  0  0
    4.8835   -0.4120   21.8966 H   0  0  0  0  0  0  0  0  0  0  0  0
    6.2537    0.5812   22.4987 H   0  0  0  0  0  0  0  0  0  0  0  0
    4.7644    1.3802   21.8900 H   0  0  0  0  0  0  0  0  0  0  0  0
 20 21  2  0  0  0  0
 19 20  1  0  0  0  0
 21 22  1  0  0  0  0
 18 19  2  0  0  0  0
 22 23  2  0  0  0  0
 18 23  1  0  0  0  0
 17 18  1  0  0  0  0
 23 24  1  0  0  0  0
 15 16  2  0  0  0  0
 15 17  1  0  0  0  0
 14 15  1  0  0  0  0
  8 14  1  0  0  0  0
 12 13  1  0  0  0  0
  8 13  1  0  0  0  0
 11 12  2  0  0  0  0
  7  8  1  0  0  0  0
  8  9  1  0  0  0  0
 10 11  1  0  0  0  0
  6  7  3  0  0  0  0
  5  6  1  0  0  0  0
  9 10  2  0  0  0  0
  2  5  1  0  0  0  0
  2  3  2  0  0  0  0
  1  2  1  0  0  0  0
  2  4  2  0  0  0  0
  1 25  1  0  0  0  0
  1 26  1  0  0  0  0
  1 27  1  0  0  0  0
  5 28  1  0  0  0  0
  9 29  1  0  0  0  0
 10 30  1  0  0  0  0
 11 31  1  0  0  0  0
 12 32  1  0  0  0  0
 13 33  1  0  0  0  0
 13 34  1  0  0  0  0
 14 35  1  0  0  0  0
 14 36  1  0  0  0  0
 17 37  1  0  0  0  0
 19 38  1  0  0  0  0
 21 39  1  0  0  0  0
 22 40  1  0  0  0  0
 24 41  1  0  0  0  0
 24 42  1  0  0  0  0
 24 43  1  0  0  0  0
M  END
> <Chemgauss4>
-12.913192

$$$$
