REMARK  4 active torsions:
REMARK  status: ('A' for Active; 'I' for Inactive)
REMARK    1  A    between atoms: N_2  and  N_5 
REMARK    2  A    between atoms: N_5  and  C_7 
REMARK    3  A    between atoms: C_13  and  C_16 
REMARK    4  A    between atoms: C_13  and  O_14 
ROOT
HETATM    1  O   UNL     2       9.393   1.664  21.692  1.00  0.00    -0.265 OA
HETATM    2  C   UNL     2       8.960   0.635  21.591  1.00  0.00     0.262 C 
ENDROOT
BRANCH   2   3
HETATM    3  C   UNL     2       7.346   0.567  20.998  1.00  0.00     0.085 A 
HETATM    4  C   UNL     2       6.558  -0.625  20.339  1.00  0.00     0.015 A 
HETATM    5  C   UNL     2       7.398   0.470  19.702  1.00  0.00     0.015 A 
ENDBRANCH   2   3
BRANCH   2   6
HETATM    6  O   UNL     2       9.707  -0.344  21.822  1.00  0.00    -0.326 OA
HETATM    7  C   UNL     2      10.941  -0.113  22.746  1.00  0.00     0.213 C 
ENDBRANCH   2   6
TORSDOF 4
