MODEL 1
REMARK VINA RESULT:    -4.414      0.000      0.000
REMARK INTER + INTRA:          -6.267
REMARK INTER:                  -5.962
REMARK INTRA:                  -0.304
REMARK UNBOUND:                -0.304
REMARK  6 active torsions:
REMARK  status: ('A' for Active; 'I' for Inactive)
REMARK    1  A    between atoms: O_2  and  C_3 
REMARK    2  A    between atoms: C_4  and  C_14 
REMARK    3  A    between atoms: C_4  and  C_9 
REMARK    4  A    between atoms: C_5  and  C_7 
REMARK    5  A    between atoms: C_8  and  C_9 
REMARK    6  A    between atoms: O_10  and  C_14 
ROOT
HETATM    1  C   UNL     1       8.255   0.362  20.960  1.00  0.00     0.145 C 
HETATM    2  C   UNL     1       7.168  -0.319  20.440  1.00  0.00    -0.014 C 
ENDROOT
BRANCH   2   3
HETATM    3  C   UNL     1       7.229   0.283  19.254  1.00  0.00     0.068 C 
BRANCH   3   4
HETATM    4  C   UNL     1       5.968   0.442  18.467  1.00  0.00     0.136 C 
HETATM    5  N   UNL     1       5.636  -0.434  17.615  1.00  0.00    -0.380 N 
HETATM    6  H   UNL     1       4.783  -0.072  17.195  1.00  0.00     0.158 HD
ATOM      7  HN  UNL     1       6.117  -1.307  17.397  1.00  0.00     0.158 HD
BRANCH   4   8
HETATM    8  O   UNL     1       5.414   1.543  18.659  1.00  0.00    -0.341 OA
HETATM    9  C   UNL     1       4.264   1.701  19.509  1.00  0.00     0.211 C 
ENDBRANCH   4   8
ENDBRANCH   3   4
ENDBRANCH   2   3
BRANCH   2  10
HETATM   10  C   UNL     1       6.258  -1.395  20.929  1.00  0.00    -0.007 C 
HETATM   11  C   UNL     1       6.577  -2.260  22.024  1.00  0.00     0.097 C 
BRANCH  11  12
HETATM   12  C   UNL     1       5.607  -3.134  22.601  1.00  0.00     0.234 C 
HETATM   13  O   UNL     1       4.981  -3.615  23.263  1.00  0.00    -0.307 OA
ENDBRANCH  11  12
ENDBRANCH   2  10
BRANCH   1  14
HETATM   14  O   UNL     1       9.074   1.093  20.981  1.00  0.00    -0.367 OA
HETATM   15  C   UNL     1      10.206   0.709  21.764  1.00  0.00     0.208 C 
ENDBRANCH   1  14
TORSDOF 6
ENDMDL
MODEL 2
REMARK VINA RESULT:    -4.236      3.330      5.718
REMARK INTER + INTRA:          -6.027
REMARK INTER:                  -5.619
REMARK INTRA:                  -0.408
REMARK UNBOUND:                -0.304
REMARK  6 active torsions:
REMARK  status: ('A' for Active; 'I' for Inactive)
REMARK    1  A    between atoms: O_2  and  C_3 
REMARK    2  A    between atoms: C_4  and  C_14 
REMARK    3  A    between atoms: C_4  and  C_9 
REMARK    4  A    between atoms: C_5  and  C_7 
REMARK    5  A    between atoms: C_8  and  C_9 
REMARK    6  A    between atoms: O_10  and  C_14 
ROOT
HETATM    1  C   UNL     1       8.788  -3.031  23.898  1.00  0.00     0.145 C 
HETATM    2  C   UNL     1       9.557  -2.217  23.084  1.00  0.00    -0.014 C 
ENDROOT
BRANCH   2   3
HETATM    3  C   UNL     1       8.582  -2.008  22.200  1.00  0.00     0.068 C 
BRANCH   3   4
HETATM    4  C   UNL     1       8.408  -0.633  21.640  1.00  0.00     0.136 C 
HETATM    5  N   UNL     1       9.002  -0.302  20.571  1.00  0.00    -0.380 N 
HETATM    6  H   UNL     1       8.758   0.676  20.436  1.00  0.00     0.158 HD
ATOM      7  HN  UNL     1       9.592  -0.886  19.979  1.00  0.00     0.158 HD
BRANCH   4   8
HETATM    8  O   UNL     1       7.759   0.118  22.396  1.00  0.00    -0.341 OA
HETATM    9  C   UNL     1       8.326   1.290  23.008  1.00  0.00     0.211 C 
ENDBRANCH   4   8
ENDBRANCH   3   4
ENDBRANCH   2   3
BRANCH   2  10
HETATM   10  C   UNL     1      10.942  -1.667  23.139  1.00  0.00    -0.007 C 
HETATM   11  C   UNL     1      11.356  -0.666  24.075  1.00  0.00     0.097 C 
BRANCH  11  12
HETATM   12  C   UNL     1      12.729  -0.313  24.243  1.00  0.00     0.234 C 
HETATM   13  O   UNL     1      13.738  -0.344  24.449  1.00  0.00    -0.307 OA
ENDBRANCH  11  12
ENDBRANCH   2  10
BRANCH   1  14
HETATM   14  O   UNL     1       7.905  -3.604  24.210  1.00  0.00    -0.367 OA
HETATM   15  C   UNL     1       8.181  -4.914  24.711  1.00  0.00     0.208 C 
ENDBRANCH   1  14
TORSDOF 6
ENDMDL
MODEL 3
REMARK VINA RESULT:    -4.232     21.675     24.079
REMARK INTER + INTRA:          -6.020
REMARK INTER:                  -5.724
REMARK INTRA:                  -0.296
REMARK UNBOUND:                -0.304
REMARK  6 active torsions:
REMARK  status: ('A' for Active; 'I' for Inactive)
REMARK    1  A    between atoms: O_2  and  C_3 
REMARK    2  A    between atoms: C_4  and  C_14 
REMARK    3  A    between atoms: C_4  and  C_9 
REMARK    4  A    between atoms: C_5  and  C_7 
REMARK    5  A    between atoms: C_8  and  C_9 
REMARK    6  A    between atoms: O_10  and  C_14 
ROOT
HETATM    1  C   UNL     1       8.867  13.094   3.315  1.00  0.00     0.145 C 
HETATM    2  C   UNL     1       9.163  14.405   2.982  1.00  0.00    -0.014 C 
ENDROOT
BRANCH   2   3
HETATM    3  C   UNL     1       9.386  14.782   4.240  1.00  0.00     0.068 C 
BRANCH   3   4
HETATM    4  C   UNL     1      10.559  15.661   4.526  1.00  0.00     0.136 C 
HETATM    5  N   UNL     1      11.734  15.192   4.470  1.00  0.00    -0.380 N 
HETATM    6  H   UNL     1      12.332  15.967   4.747  1.00  0.00     0.158 HD
ATOM      7  HN  UNL     1      12.017  14.248   4.207  1.00  0.00     0.158 HD
BRANCH   4   8
HETATM    8  O   UNL     1      10.227  16.793   4.932  1.00  0.00    -0.341 OA
HETATM    9  C   UNL     1      11.133  17.673   5.621  1.00  0.00     0.211 C 
ENDBRANCH   4   8
ENDBRANCH   3   4
ENDBRANCH   2   3
BRANCH   2  10
HETATM   10  C   UNL     1       9.285  15.175   1.710  1.00  0.00    -0.007 C 
HETATM   11  C   UNL     1       8.853  16.532   1.566  1.00  0.00     0.097 C 
BRANCH  11  12
HETATM   12  C   UNL     1       9.171  17.305   0.409  1.00  0.00     0.234 C 
HETATM   13  O   UNL     1       9.175  18.030  -0.324  1.00  0.00    -0.307 OA
ENDBRANCH  11  12
ENDBRANCH   2  10
BRANCH   1  14
HETATM   14  O   UNL     1       8.684  12.236   3.974  1.00  0.00    -0.367 OA
HETATM   15  C   UNL     1       7.382  11.656   3.861  1.00  0.00     0.208 C 
ENDBRANCH   1  14
TORSDOF 6
ENDMDL
MODEL 4
REMARK VINA RESULT:    -4.120      4.543      5.475
REMARK INTER + INTRA:          -5.870
REMARK INTER:                  -5.590
REMARK INTRA:                  -0.280
REMARK UNBOUND:                -0.304
REMARK  6 active torsions:
REMARK  status: ('A' for Active; 'I' for Inactive)
REMARK    1  A    between atoms: O_2  and  C_3 
REMARK    2  A    between atoms: C_4  and  C_14 
REMARK    3  A    between atoms: C_4  and  C_9 
REMARK    4  A    between atoms: C_5  and  C_7 
REMARK    5  A    between atoms: C_8  and  C_9 
REMARK    6  A    between atoms: O_10  and  C_14 
ROOT
HETATM    1  C   UNL     1       9.258  -2.463  23.633  1.00  0.00     0.145 C 
HETATM    2  C   UNL     1       8.428  -3.554  23.826  1.00  0.00    -0.014 C 
ENDROOT
BRANCH   2   3
HETATM    3  C   UNL     1       7.772  -3.388  22.679  1.00  0.00     0.068 C 
BRANCH   3   4
HETATM    4  C   UNL     1       6.913  -4.503  22.178  1.00  0.00     0.136 C 
HETATM    5  N   UNL     1       7.443  -5.531  21.662  1.00  0.00    -0.380 N 
HETATM    6  H   UNL     1       6.655  -6.104  21.367  1.00  0.00     0.158 HD
ATOM      7  HN  UNL     1       8.436  -5.739  21.563  1.00  0.00     0.158 HD
BRANCH   4   8
HETATM    8  O   UNL     1       5.697  -4.229  22.214  1.00  0.00    -0.341 OA
HETATM    9  C   UNL     1       4.779  -4.862  23.123  1.00  0.00     0.211 C 
ENDBRANCH   4   8
ENDBRANCH   3   4
ENDBRANCH   2   3
BRANCH   2  10
HETATM   10  C   UNL     1       8.297  -4.616  24.865  1.00  0.00    -0.007 C 
HETATM   11  C   UNL     1       7.976  -4.345  26.233  1.00  0.00     0.097 C 
BRANCH  11  12
HETATM   12  C   UNL     1       7.653  -5.388  27.152  1.00  0.00     0.234 C 
HETATM   13  O   UNL     1       7.458  -5.921  28.013  1.00  0.00    -0.307 OA
ENDBRANCH  11  12
ENDBRANCH   2  10
BRANCH   1  14
HETATM   14  O   UNL     1       9.651  -1.568  23.132  1.00  0.00    -0.367 OA
HETATM   15  C   UNL     1      11.036  -1.630  22.785  1.00  0.00     0.208 C 
ENDBRANCH   1  14
TORSDOF 6
ENDMDL
MODEL 5
REMARK VINA RESULT:    -4.073      4.098      6.351
REMARK INTER + INTRA:          -5.806
REMARK INTER:                  -5.396
REMARK INTRA:                  -0.410
REMARK UNBOUND:                -0.304
REMARK  6 active torsions:
REMARK  status: ('A' for Active; 'I' for Inactive)
REMARK    1  A    between atoms: O_2  and  C_3 
REMARK    2  A    between atoms: C_4  and  C_14 
REMARK    3  A    between atoms: C_4  and  C_9 
REMARK    4  A    between atoms: C_5  and  C_7 
REMARK    5  A    between atoms: C_8  and  C_9 
REMARK    6  A    between atoms: O_10  and  C_14 
ROOT
HETATM    1  C   UNL     1      11.245   3.149  23.295  1.00  0.00     0.145 C 
HETATM    2  C   UNL     1      10.822   1.864  23.001  1.00  0.00    -0.014 C 
ENDROOT
BRANCH   2   3
HETATM    3  C   UNL     1      11.051   1.398  24.227  1.00  0.00     0.068 C 
BRANCH   3   4
HETATM    4  C   UNL     1      11.434  -0.038  24.387  1.00  0.00     0.136 C 
HETATM    5  N   UNL     1      12.592  -0.428  24.056  1.00  0.00    -0.380 N 
HETATM    6  H   UNL     1      12.579  -1.433  24.216  1.00  0.00     0.158 HD
ATOM      7  HN  UNL     1      13.365   0.138  23.706  1.00  0.00     0.158 HD
BRANCH   4   8
HETATM    8  O   UNL     1      10.475  -0.758  24.732  1.00  0.00    -0.341 OA
HETATM    9  C   UNL     1       9.966  -1.827  23.914  1.00  0.00     0.211 C 
ENDBRANCH   4   8
ENDBRANCH   3   4
ENDBRANCH   2   3
BRANCH   2  10
HETATM   10  C   UNL     1      10.242   1.186  21.806  1.00  0.00    -0.007 C 
HETATM   11  C   UNL     1       8.856   0.852  21.684  1.00  0.00     0.097 C 
BRANCH  11  12
HETATM   12  C   UNL     1       8.295   0.398  20.453  1.00  0.00     0.234 C 
HETATM   13  O   UNL     1       8.166   0.128  19.467  1.00  0.00    -0.307 OA
ENDBRANCH  11  12
ENDBRANCH   2  10
BRANCH   1  14
HETATM   14  O   UNL     1      11.668   3.959  23.904  1.00  0.00    -0.367 OA
HETATM   15  C   UNL     1      11.065   5.240  23.706  1.00  0.00     0.208 C 
ENDBRANCH   1  14
TORSDOF 6
ENDMDL
MODEL 6
REMARK VINA RESULT:    -4.056     16.348     17.266
REMARK INTER + INTRA:          -5.783
REMARK INTER:                  -5.425
REMARK INTRA:                  -0.357
REMARK UNBOUND:                -0.304
REMARK  6 active torsions:
REMARK  status: ('A' for Active; 'I' for Inactive)
REMARK    1  A    between atoms: O_2  and  C_3 
REMARK    2  A    between atoms: C_4  and  C_14 
REMARK    3  A    between atoms: C_4  and  C_9 
REMARK    4  A    between atoms: C_5  and  C_7 
REMARK    5  A    between atoms: C_8  and  C_9 
REMARK    6  A    between atoms: O_10  and  C_14 
ROOT
HETATM    1  C   UNL     1      22.759  -1.963  23.819  1.00  0.00     0.145 C 
HETATM    2  C   UNL     1      22.569  -2.476  25.091  1.00  0.00    -0.014 C 
ENDROOT
BRANCH   2   3
HETATM    3  C   UNL     1      21.755  -1.495  25.475  1.00  0.00     0.068 C 
BRANCH   3   4
HETATM    4  C   UNL     1      22.117  -0.700  26.688  1.00  0.00     0.136 C 
HETATM    5  N   UNL     1      21.569  -0.953  27.801  1.00  0.00    -0.380 N 
HETATM    6  H   UNL     1      21.947  -0.254  28.437  1.00  0.00     0.158 HD
ATOM      7  HN  UNL     1      20.898  -1.692  28.013  1.00  0.00     0.158 HD
BRANCH   4   8
HETATM    8  O   UNL     1      22.869   0.261  26.429  1.00  0.00    -0.341 OA
HETATM    9  C   UNL     1      22.530   1.285  25.478  1.00  0.00     0.211 C 
ENDBRANCH   4   8
ENDBRANCH   3   4
ENDBRANCH   2   3
BRANCH   2  10
HETATM   10  C   UNL     1      23.012  -3.701  25.817  1.00  0.00    -0.007 C 
HETATM   11  C   UNL     1      23.223  -4.964  25.177  1.00  0.00     0.097 C 
BRANCH  11  12
HETATM   12  C   UNL     1      23.844  -6.057  25.853  1.00  0.00     0.234 C 
HETATM   13  O   UNL     1      24.074  -6.998  26.206  1.00  0.00    -0.307 OA
ENDBRANCH  11  12
ENDBRANCH   2  10
BRANCH   1  14
HETATM   14  O   UNL     1      22.666  -1.243  22.995  1.00  0.00    -0.367 OA
HETATM   15  C   UNL     1      23.275  -1.649  21.767  1.00  0.00     0.208 C 
ENDBRANCH   1  14
TORSDOF 6
ENDMDL
MODEL 7
REMARK VINA RESULT:    -3.946      2.335      5.009
REMARK INTER + INTRA:          -5.634
REMARK INTER:                  -5.262
REMARK INTRA:                  -0.372
REMARK UNBOUND:                -0.304
REMARK  6 active torsions:
REMARK  status: ('A' for Active; 'I' for Inactive)
REMARK    1  A    between atoms: O_2  and  C_3 
REMARK    2  A    between atoms: C_4  and  C_14 
REMARK    3  A    between atoms: C_4  and  C_9 
REMARK    4  A    between atoms: C_5  and  C_7 
REMARK    5  A    between atoms: C_8  and  C_9 
REMARK    6  A    between atoms: O_10  and  C_14 
ROOT
HETATM    1  C   UNL     1       7.294  -1.607  22.363  1.00  0.00     0.145 C 
HETATM    2  C   UNL     1       7.549  -0.386  21.761  1.00  0.00    -0.014 C 
ENDROOT
BRANCH   2   3
HETATM    3  C   UNL     1       8.659  -0.158  22.462  1.00  0.00     0.068 C 
BRANCH   3   4
HETATM    4  C   UNL     1       9.955  -0.033  21.728  1.00  0.00     0.136 C 
HETATM    5  N   UNL     1      10.735  -1.027  21.643  1.00  0.00    -0.380 N 
HETATM    6  H   UNL     1      11.548  -0.671  21.145  1.00  0.00     0.158 HD
ATOM      7  HN  UNL     1      10.583  -1.972  21.995  1.00  0.00     0.158 HD
BRANCH   4   8
HETATM    8  O   UNL     1      10.194   1.136  21.366  1.00  0.00    -0.341 OA
HETATM    9  C   UNL     1      10.492   2.196  22.293  1.00  0.00     0.211 C 
ENDBRANCH   4   8
ENDBRANCH   3   4
ENDBRANCH   2   3
BRANCH   2  10
HETATM   10  C   UNL     1       6.915   0.414  20.675  1.00  0.00    -0.007 C 
HETATM   11  C   UNL     1       7.096   0.136  19.282  1.00  0.00     0.097 C 
BRANCH  11  12
HETATM   12  C   UNL     1       6.316   0.782  18.277  1.00  0.00     0.234 C 
HETATM   13  O   UNL     1       5.991   1.426  17.541  1.00  0.00    -0.307 OA
ENDBRANCH  11  12
ENDBRANCH   2  10
BRANCH   1  14
HETATM   14  O   UNL     1       7.442  -2.438  23.065  1.00  0.00    -0.367 OA
HETATM   15  C   UNL     1       7.431  -3.738  22.471  1.00  0.00     0.208 C 
ENDBRANCH   1  14
TORSDOF 6
ENDMDL
MODEL 8
REMARK VINA RESULT:    -3.928      3.762      6.274
REMARK INTER + INTRA:          -5.610
REMARK INTER:                  -5.319
REMARK INTRA:                  -0.291
REMARK UNBOUND:                -0.304
REMARK  6 active torsions:
REMARK  status: ('A' for Active; 'I' for Inactive)
REMARK    1  A    between atoms: O_2  and  C_3 
REMARK    2  A    between atoms: C_4  and  C_14 
REMARK    3  A    between atoms: C_4  and  C_9 
REMARK    4  A    between atoms: C_5  and  C_7 
REMARK    5  A    between atoms: C_8  and  C_9 
REMARK    6  A    between atoms: O_10  and  C_14 
ROOT
HETATM    1  C   UNL     1      11.335   0.677  23.656  1.00  0.00     0.145 C 
HETATM    2  C   UNL     1      10.749   1.813  23.124  1.00  0.00    -0.014 C 
ENDROOT
BRANCH   2   3
HETATM    3  C   UNL     1      10.687   1.324  21.887  1.00  0.00     0.068 C 
BRANCH   3   4
HETATM    4  C   UNL     1       9.415   0.682  21.434  1.00  0.00     0.136 C 
HETATM    5  N   UNL     1       9.339  -0.579  21.339  1.00  0.00    -0.380 N 
HETATM    6  H   UNL     1       8.404  -0.751  20.974  1.00  0.00     0.158 HD
ATOM      7  HN  UNL     1      10.053  -1.267  21.574  1.00  0.00     0.158 HD
BRANCH   4   8
HETATM    8  O   UNL     1       8.561   1.511  21.062  1.00  0.00    -0.341 OA
HETATM    9  C   UNL     1       7.277   1.648  21.695  1.00  0.00     0.211 C 
ENDBRANCH   4   8
ENDBRANCH   3   4
ENDBRANCH   2   3
BRANCH   2  10
HETATM   10  C   UNL     1      10.266   3.113  23.672  1.00  0.00    -0.007 C 
HETATM   11  C   UNL     1      11.055   4.307  23.679  1.00  0.00     0.097 C 
BRANCH  11  12
HETATM   12  C   UNL     1      10.497   5.577  24.014  1.00  0.00     0.234 C 
HETATM   13  O   UNL     1      10.059   6.509  23.961  1.00  0.00    -0.307 OA
ENDBRANCH  11  12
ENDBRANCH   2  10
BRANCH   1  14
HETATM   14  O   UNL     1      11.786  -0.324  23.653  1.00  0.00    -0.367 OA
HETATM   15  C   UNL     1      13.098  -0.397  24.215  1.00  0.00     0.208 C 
ENDBRANCH   1  14
TORSDOF 6
ENDMDL
MODEL 9
REMARK VINA RESULT:    -3.899     22.902     24.391
REMARK INTER + INTRA:          -5.571
REMARK INTER:                  -5.241
REMARK INTRA:                  -0.331
REMARK UNBOUND:                -0.304
REMARK  6 active torsions:
REMARK  status: ('A' for Active; 'I' for Inactive)
REMARK    1  A    between atoms: O_2  and  C_3 
REMARK    2  A    between atoms: C_4  and  C_14 
REMARK    3  A    between atoms: C_4  and  C_9 
REMARK    4  A    between atoms: C_5  and  C_7 
REMARK    5  A    between atoms: C_8  and  C_9 
REMARK    6  A    between atoms: O_10  and  C_14 
ROOT
HETATM    1  C   UNL     1       9.865  14.673   2.620  1.00  0.00     0.145 C 
HETATM    2  C   UNL     1       8.724  14.826   1.851  1.00  0.00    -0.014 C 
ENDROOT
BRANCH   2   3
HETATM    3  C   UNL     1       8.995  16.086   1.516  1.00  0.00     0.068 C 
BRANCH   3   4
HETATM    4  C   UNL     1       7.897  17.097   1.589  1.00  0.00     0.136 C 
HETATM    5  N   UNL     1       7.279  17.288   2.678  1.00  0.00    -0.380 N 
HETATM    6  H   UNL     1       6.566  17.978   2.450  1.00  0.00     0.158 HD
ATOM      7  HN  UNL     1       7.457  16.850   3.581  1.00  0.00     0.158 HD
BRANCH   4   8
HETATM    8  O   UNL     1       7.610  17.580   0.475  1.00  0.00    -0.341 OA
HETATM    9  C   UNL     1       8.288  18.721  -0.080  1.00  0.00     0.211 C 
ENDBRANCH   4   8
ENDBRANCH   3   4
ENDBRANCH   2   3
BRANCH   2  10
HETATM   10  C   UNL     1       7.597  13.940   1.439  1.00  0.00    -0.007 C 
HETATM   11  C   UNL     1       6.657  13.380   2.362  1.00  0.00     0.097 C 
BRANCH  11  12
HETATM   12  C   UNL     1       5.474  12.713   1.921  1.00  0.00     0.234 C 
HETATM   13  O   UNL     1       4.504  12.376   1.836  1.00  0.00    -0.307 OA
ENDBRANCH  11  12
ENDBRANCH   2  10
BRANCH   1  14
HETATM   14  O   UNL     1      10.797  14.975   3.117  1.00  0.00    -0.367 OA
HETATM   15  C   UNL     1      10.742  14.986   4.545  1.00  0.00     0.208 C 
ENDBRANCH   1  14
TORSDOF 6
ENDMDL
