REMARK  6 active torsions:
REMARK  status: ('A' for Active; 'I' for Inactive)
REMARK    1  A    between atoms: S_2  and  N_5 
REMARK    2  A    between atoms: C_7  and  C_8 
REMARK    3  A    between atoms: C_8  and  C_9 
REMARK    4  A    between atoms: C_9  and  C_15 
REMARK    5  A    between atoms: C_15  and  C_16 
REMARK       I    between atoms: C_16  and  N_18 
REMARK    6  A    between atoms: N_18  and  C_20 
ROOT
HETATM    1  C   UNL     1      10.303  -1.128  23.292  1.00  0.00     0.076 C 
HETATM    2  C   UNL     1      11.004  -0.052  24.308  1.00  0.00     0.003 C 
HETATM    3  C   UNL     1      12.032   0.282  24.313  1.00  0.00    -0.002 C 
HETATM    4  C   UNL     1      13.156  -0.210  23.429  1.00  0.00    -0.001 C 
HETATM    5  C   UNL     1      12.723  -1.196  22.680  1.00  0.00    -0.002 C 
HETATM    6  C   UNL     1      11.771  -1.739  22.501  1.00  0.00     0.003 C 
ENDROOT
BRANCH   1   7
HETATM    7  C   UNL     1       9.430  -1.984  23.498  1.00  0.00     0.021 C 
BRANCH   7   8
HETATM    8  C   UNL     1       8.994  -2.899  24.111  1.00  0.00     0.098 C 
HETATM    9  N   UNL     1       8.051  -3.606  24.705  1.00  0.00    -0.296 N 
ATOM     10  HN  UNL     1       7.163  -3.701  24.212  1.00  0.00     0.177 HD
BRANCH   9  11
HETATM   11  S   UNL     1       8.172  -4.314  26.100  1.00  0.00     0.226 S 
HETATM   12  C   UNL     1       6.640  -4.829  26.475  1.00  0.00     0.186 C 
HETATM   13  O   UNL     1       9.031  -5.499  26.050  1.00  0.00    -0.206 OA
HETATM   14  O   UNL     1       8.652  -3.448  27.159  1.00  0.00    -0.206 OA
ENDBRANCH   9  11
ENDBRANCH   7   8
ENDBRANCH   1   7
BRANCH   1  15
HETATM   15  C   UNL     1       9.731  -0.543  22.327  1.00  0.00    -0.061 C 
BRANCH  15  16
HETATM   16  C   UNL     1       9.079   0.037  21.381  1.00  0.00     0.290 C 
HETATM   17  O   UNL     1       9.584   0.971  20.993  1.00  0.00    -0.259 OA
HETATM   18  N   UNL     1       7.912  -0.550  21.083  1.00  0.00    -0.315 N 
ATOM     19  HN  UNL     1       7.606  -1.366  21.614  1.00  0.00     0.170 HD
BRANCH  18  20
HETATM   20  C   UNL     1       7.197  -0.108  20.163  1.00  0.00     0.057 A 
HETATM   21  C   UNL     1       7.262  -0.015  18.856  1.00  0.00     0.117 A 
HETATM   22  N   UNL     1       6.769   0.303  17.767  1.00  0.00    -0.373 N 
HETATM   23  C   UNL     1       5.647   0.934  18.248  1.00  0.00     0.088 A 
ATOM     24  HN  UNL     1       7.093   0.146  16.813  1.00  0.00     0.164 HD
HETATM   25  C   UNL     1       5.265   1.014  19.389  1.00  0.00     0.026 A 
HETATM   26  C   UNL     1       5.808   0.576  20.559  1.00  0.00    -0.033 A 
HETATM   27  C   UNL     1       5.370   0.713  21.912  1.00  0.00     0.050 C 
ENDBRANCH  18  20
ENDBRANCH  15  16
ENDBRANCH   1  15
TORSDOF 6
