MODEL 1
REMARK VINA RESULT:    -7.469      0.000      0.000
REMARK INTER + INTRA:         -11.206
REMARK INTER:                 -10.089
REMARK INTRA:                  -1.117
REMARK UNBOUND:                -1.117
REMARK  6 active torsions:
REMARK  status: ('A' for Active; 'I' for Inactive)
REMARK    1  A    between atoms: S_2  and  N_5 
REMARK    2  A    between atoms: C_7  and  C_8 
REMARK    3  A    between atoms: C_8  and  C_9 
REMARK    4  A    between atoms: C_9  and  C_15 
REMARK    5  A    between atoms: C_15  and  C_16 
REMARK       I    between atoms: C_16  and  N_18 
REMARK    6  A    between atoms: N_18  and  C_20 
ROOT
HETATM    1  C   UNL     1       9.426  -1.597  23.342  1.00  0.00     0.076 C 
HETATM    2  C   UNL     1       9.247  -0.631  24.651  1.00  0.00     0.003 C 
HETATM    3  C   UNL     1       9.975   0.043  25.083  1.00  0.00    -0.002 C 
HETATM    4  C   UNL     1      11.412   0.232  24.651  1.00  0.00    -0.001 C 
HETATM    5  C   UNL     1      11.698  -0.623  23.698  1.00  0.00    -0.002 C 
HETATM    6  C   UNL     1      11.178  -1.412  23.115  1.00  0.00     0.003 C 
ENDROOT
BRANCH   1   7
HETATM    7  C   UNL     1       8.991  -2.735  23.111  1.00  0.00     0.021 C 
BRANCH   7   8
HETATM    8  C   UNL     1       8.095  -3.494  22.954  1.00  0.00     0.098 C 
HETATM    9  N   UNL     1       7.477  -4.525  22.410  1.00  0.00    -0.296 N 
ATOM     10  HN  UNL     1       8.027  -5.371  22.263  1.00  0.00     0.177 HD
BRANCH   9  11
HETATM   11  S   UNL     1       5.971  -4.569  21.969  1.00  0.00     0.226 S 
HETATM   12  C   UNL     1       5.093  -4.573  23.377  1.00  0.00     0.186 C 
HETATM   13  O   UNL     1       5.578  -3.378  21.213  1.00  0.00    -0.206 OA
HETATM   14  O   UNL     1       5.621  -5.740  21.190  1.00  0.00    -0.206 OA
ENDBRANCH   9  11
ENDBRANCH   7   8
ENDBRANCH   1   7
BRANCH   1  15
HETATM   15  C   UNL     1       8.984  -1.040  22.295  1.00  0.00    -0.061 C 
BRANCH  15  16
HETATM   16  C   UNL     1       8.469  -0.453  21.272  1.00  0.00     0.290 C 
HETATM   17  O   UNL     1       9.200   0.204  20.714  1.00  0.00    -0.259 OA
HETATM   18  N   UNL     1       7.162  -0.695  21.106  1.00  0.00    -0.315 N 
ATOM     19  HN  UNL     1       6.665  -1.279  21.780  1.00  0.00     0.170 HD
BRANCH  18  20
HETATM   20  C   UNL     1       6.547  -0.214  20.134  1.00  0.00     0.057 A 
HETATM   21  C   UNL     1       6.269  -0.569  18.902  1.00  0.00     0.117 A 
HETATM   22  N   UNL     1       5.721  -0.362  17.813  1.00  0.00    -0.373 N 
HETATM   23  C   UNL     1       5.281   0.915  18.066  1.00  0.00     0.088 A 
ATOM     24  HN  UNL     1       5.625  -0.953  16.987  1.00  0.00     0.164 HD
HETATM   25  C   UNL     1       5.344   1.537  19.097  1.00  0.00     0.026 A 
HETATM   26  C   UNL     1       5.894   1.234  20.306  1.00  0.00    -0.033 A 
HETATM   27  C   UNL     1       6.003   1.995  21.510  1.00  0.00     0.050 C 
ENDBRANCH  18  20
ENDBRANCH  15  16
ENDBRANCH   1  15
TORSDOF 6
ENDMDL
MODEL 2
REMARK VINA RESULT:    -7.114      2.721      5.941
REMARK INTER + INTRA:         -10.726
REMARK INTER:                  -9.748
REMARK INTRA:                  -0.978
REMARK UNBOUND:                -1.117
REMARK  6 active torsions:
REMARK  status: ('A' for Active; 'I' for Inactive)
REMARK    1  A    between atoms: S_2  and  N_5 
REMARK    2  A    between atoms: C_7  and  C_8 
REMARK    3  A    between atoms: C_8  and  C_9 
REMARK    4  A    between atoms: C_9  and  C_15 
REMARK    5  A    between atoms: C_15  and  C_16 
REMARK       I    between atoms: C_16  and  N_18 
REMARK    6  A    between atoms: N_18  and  C_20 
ROOT
HETATM    1  C   UNL     1       9.986  -0.751  23.532  1.00  0.00     0.076 C 
HETATM    2  C   UNL     1      11.218  -1.545  22.802  1.00  0.00     0.003 C 
HETATM    3  C   UNL     1      12.271  -1.500  23.044  1.00  0.00    -0.002 C 
HETATM    4  C   UNL     1      12.932  -0.623  24.083  1.00  0.00    -0.001 C 
HETATM    5  C   UNL     1      12.036   0.172  24.618  1.00  0.00    -0.002 C 
HETATM    6  C   UNL     1      10.944   0.355  24.539  1.00  0.00     0.003 C 
ENDROOT
BRANCH   1   7
HETATM    7  C   UNL     1       8.950  -0.259  23.061  1.00  0.00     0.021 C 
BRANCH   7   8
HETATM    8  C   UNL     1       8.055  -0.263  22.286  1.00  0.00     0.098 C 
HETATM    9  N   UNL     1       7.285  -0.776  21.344  1.00  0.00    -0.296 N 
ATOM     10  HN  UNL     1       7.000  -1.749  21.457  1.00  0.00     0.177 HD
BRANCH   9  11
HETATM   11  S   UNL     1       6.766  -0.024  20.068  1.00  0.00     0.226 S 
HETATM   12  C   UNL     1       6.179   1.429  20.613  1.00  0.00     0.186 C 
HETATM   13  O   UNL     1       7.842   0.269  19.119  1.00  0.00    -0.206 OA
HETATM   14  O   UNL     1       5.713  -0.724  19.361  1.00  0.00    -0.206 OA
ENDBRANCH   9  11
ENDBRANCH   7   8
ENDBRANCH   1   7
BRANCH   1  15
HETATM   15  C   UNL     1       9.436  -1.471  24.415  1.00  0.00    -0.061 C 
BRANCH  15  16
HETATM   16  C   UNL     1       8.807  -2.193  25.275  1.00  0.00     0.290 C 
HETATM   17  O   UNL     1       8.623  -1.666  26.258  1.00  0.00    -0.259 OA
HETATM   18  N   UNL     1       8.543  -3.437  24.853  1.00  0.00    -0.315 N 
ATOM     19  HN  UNL     1       8.864  -3.738  23.932  1.00  0.00     0.170 HD
BRANCH  18  20
HETATM   20  C   UNL     1       7.909  -4.231  25.576  1.00  0.00     0.057 A 
HETATM   21  C   UNL     1       8.181  -5.080  26.538  1.00  0.00     0.117 A 
HETATM   22  N   UNL     1       7.823  -5.903  27.389  1.00  0.00    -0.373 N 
HETATM   23  C   UNL     1       6.497  -5.971  27.036  1.00  0.00     0.088 A 
ATOM     24  HN  UNL     1       8.348  -6.382  28.121  1.00  0.00     0.164 HD
HETATM   25  C   UNL     1       5.907  -5.313  26.215  1.00  0.00     0.026 A 
HETATM   26  C   UNL     1       6.332  -4.353  25.348  1.00  0.00    -0.033 A 
HETATM   27  C   UNL     1       5.635  -3.609  24.347  1.00  0.00     0.050 C 
ENDBRANCH  18  20
ENDBRANCH  15  16
ENDBRANCH   1  15
TORSDOF 6
ENDMDL
MODEL 3
REMARK VINA RESULT:    -6.988      2.320      6.013
REMARK INTER + INTRA:         -10.556
REMARK INTER:                  -9.567
REMARK INTRA:                  -0.988
REMARK UNBOUND:                -1.117
REMARK  6 active torsions:
REMARK  status: ('A' for Active; 'I' for Inactive)
REMARK    1  A    between atoms: S_2  and  N_5 
REMARK    2  A    between atoms: C_7  and  C_8 
REMARK    3  A    between atoms: C_8  and  C_9 
REMARK    4  A    between atoms: C_9  and  C_15 
REMARK    5  A    between atoms: C_15  and  C_16 
REMARK       I    between atoms: C_16  and  N_18 
REMARK    6  A    between atoms: N_18  and  C_20 
ROOT
HETATM    1  C   UNL     1       7.107   0.271  20.415  1.00  0.00     0.076 C 
HETATM    2  C   UNL     1       6.138   1.460  20.988  1.00  0.00     0.003 C 
HETATM    3  C   UNL     1       5.327   1.958  20.477  1.00  0.00    -0.002 C 
HETATM    4  C   UNL     1       4.895   1.760  19.041  1.00  0.00    -0.001 C 
HETATM    5  C   UNL     1       5.720   0.932  18.447  1.00  0.00    -0.002 C 
HETATM    6  C   UNL     1       6.614   0.328  18.710  1.00  0.00     0.003 C 
ENDROOT
BRANCH   1   7
HETATM    7  C   UNL     1       8.314   0.052  20.600  1.00  0.00     0.021 C 
BRANCH   7   8
HETATM    8  C   UNL     1       9.244  -0.113  21.314  1.00  0.00     0.098 C 
HETATM    9  N   UNL     1      10.492  -0.426  21.607  1.00  0.00    -0.296 N 
ATOM     10  HN  UNL     1      11.218  -0.066  20.986  1.00  0.00     0.177 HD
BRANCH   9  11
HETATM   11  S   UNL     1      10.962  -1.299  22.823  1.00  0.00     0.226 S 
HETATM   12  C   UNL     1      10.999  -0.271  24.125  1.00  0.00     0.186 C 
HETATM   13  O   UNL     1      10.014  -2.370  23.138  1.00  0.00    -0.206 OA
HETATM   14  O   UNL     1      12.275  -1.890  22.650  1.00  0.00    -0.206 OA
ENDBRANCH   9  11
ENDBRANCH   7   8
ENDBRANCH   1   7
BRANCH   1  15
HETATM   15  C   UNL     1       6.682  -0.871  20.755  1.00  0.00    -0.061 C 
BRANCH  15  16
HETATM   16  C   UNL     1       6.194  -2.027  21.043  1.00  0.00     0.290 C 
HETATM   17  O   UNL     1       5.314  -2.318  20.396  1.00  0.00    -0.259 OA
HETATM   18  N   UNL     1       6.790  -2.627  22.082  1.00  0.00    -0.315 N 
ATOM     19  HN  UNL     1       7.541  -2.148  22.580  1.00  0.00     0.170 HD
BRANCH  18  20
HETATM   20  C   UNL     1       6.436  -3.765  22.445  1.00  0.00     0.057 A 
HETATM   21  C   UNL     1       6.589  -4.999  22.025  1.00  0.00     0.117 A 
HETATM   22  N   UNL     1       6.414  -6.216  22.154  1.00  0.00    -0.373 N 
HETATM   23  C   UNL     1       5.571  -6.169  23.238  1.00  0.00     0.088 A 
ATOM     24  HN  UNL     1       6.780  -7.006  21.623  1.00  0.00     0.164 HD
HETATM   25  C   UNL     1       5.238  -5.208  23.885  1.00  0.00     0.026 A 
HETATM   26  C   UNL     1       5.522  -3.882  23.751  1.00  0.00    -0.033 A 
HETATM   27  C   UNL     1       5.089  -2.744  24.497  1.00  0.00     0.050 C 
ENDBRANCH  18  20
ENDBRANCH  15  16
ENDBRANCH   1  15
TORSDOF 6
ENDMDL
MODEL 4
REMARK VINA RESULT:    -6.810      2.400      6.110
REMARK INTER + INTRA:         -10.316
REMARK INTER:                  -9.478
REMARK INTRA:                  -0.838
REMARK UNBOUND:                -1.117
REMARK  6 active torsions:
REMARK  status: ('A' for Active; 'I' for Inactive)
REMARK    1  A    between atoms: S_2  and  N_5 
REMARK    2  A    between atoms: C_7  and  C_8 
REMARK    3  A    between atoms: C_8  and  C_9 
REMARK    4  A    between atoms: C_9  and  C_15 
REMARK    5  A    between atoms: C_15  and  C_16 
REMARK       I    between atoms: C_16  and  N_18 
REMARK    6  A    between atoms: N_18  and  C_20 
ROOT
HETATM    1  C   UNL     1       6.100  -3.506  22.266  1.00  0.00     0.076 C 
HETATM    2  C   UNL     1       5.026  -3.749  23.478  1.00  0.00     0.003 C 
HETATM    3  C   UNL     1       4.763  -4.684  23.953  1.00  0.00    -0.002 C 
HETATM    4  C   UNL     1       5.251  -6.066  23.580  1.00  0.00    -0.001 C 
HETATM    5  C   UNL     1       6.003  -5.989  22.508  1.00  0.00    -0.002 C 
HETATM    6  C   UNL     1       6.393  -5.202  21.828  1.00  0.00     0.003 C 
ENDROOT
BRANCH   1   7
HETATM    7  C   UNL     1       6.072  -2.720  21.307  1.00  0.00     0.021 C 
BRANCH   7   8
HETATM    8  C   UNL     1       5.930  -1.634  20.855  1.00  0.00     0.098 C 
HETATM    9  N   UNL     1       5.609  -0.752  19.927  1.00  0.00    -0.296 N 
ATOM     10  HN  UNL     1       4.754  -0.926  19.400  1.00  0.00     0.177 HD
BRANCH   9  11
HETATM   11  S   UNL     1       6.424   0.538  19.562  1.00  0.00     0.226 S 
HETATM   12  C   UNL     1       5.860   1.018  18.077  1.00  0.00     0.186 C 
HETATM   13  O   UNL     1       6.177   1.636  20.499  1.00  0.00    -0.206 OA
HETATM   14  O   UNL     1       7.856   0.325  19.478  1.00  0.00    -0.206 OA
ENDBRANCH   9  11
ENDBRANCH   7   8
ENDBRANCH   1   7
BRANCH   1  15
HETATM   15  C   UNL     1       7.233  -3.170  22.717  1.00  0.00    -0.061 C 
BRANCH  15  16
HETATM   16  C   UNL     1       8.391  -2.901  23.211  1.00  0.00     0.290 C 
HETATM   17  O   UNL     1       8.726  -3.638  24.000  1.00  0.00    -0.259 OA
HETATM   18  N   UNL     1       8.940  -1.777  22.733  1.00  0.00    -0.315 N 
ATOM     19  HN  UNL     1       8.426  -1.209  22.059  1.00  0.00     0.170 HD
BRANCH  18  20
HETATM   20  C   UNL     1      10.075  -1.418  23.104  1.00  0.00     0.057 A 
HETATM   21  C   UNL     1      11.319  -1.704  22.803  1.00  0.00     0.117 A 
HETATM   22  N   UNL     1      12.535  -1.528  22.945  1.00  0.00    -0.373 N 
HETATM   23  C   UNL     1      12.475  -0.659  24.008  1.00  0.00     0.088 A 
ATOM     24  HN  UNL     1      13.331  -1.908  22.433  1.00  0.00     0.164 HD
HETATM   25  C   UNL     1      11.499  -0.170  24.520  1.00  0.00     0.026 A 
HETATM   26  C   UNL     1      10.169  -0.336  24.277  1.00  0.00    -0.033 A 
HETATM   27  C   UNL     1       9.017   0.215  24.918  1.00  0.00     0.050 C 
ENDBRANCH  18  20
ENDBRANCH  15  16
ENDBRANCH   1  15
TORSDOF 6
ENDMDL
MODEL 5
REMARK VINA RESULT:    -6.782      4.166      6.341
REMARK INTER + INTRA:         -10.278
REMARK INTER:                  -9.760
REMARK INTRA:                  -0.518
REMARK UNBOUND:                -1.117
REMARK  6 active torsions:
REMARK  status: ('A' for Active; 'I' for Inactive)
REMARK    1  A    between atoms: S_2  and  N_5 
REMARK    2  A    between atoms: C_7  and  C_8 
REMARK    3  A    between atoms: C_8  and  C_9 
REMARK    4  A    between atoms: C_9  and  C_15 
REMARK    5  A    between atoms: C_15  and  C_16 
REMARK       I    between atoms: C_16  and  N_18 
REMARK    6  A    between atoms: N_18  and  C_20 
ROOT
HETATM    1  C   UNL     1       7.512  -4.820  24.125  1.00  0.00     0.076 C 
HETATM    2  C   UNL     1       7.731  -5.732  22.783  1.00  0.00     0.003 C 
HETATM    3  C   UNL     1       7.031  -5.906  21.978  1.00  0.00    -0.002 C 
HETATM    4  C   UNL     1       5.601  -5.421  21.891  1.00  0.00    -0.001 C 
HETATM    5  C   UNL     1       5.280  -4.806  23.005  1.00  0.00    -0.002 C 
HETATM    6  C   UNL     1       5.768  -4.526  23.962  1.00  0.00     0.003 C 
ENDROOT
BRANCH   1   7
HETATM    7  C   UNL     1       7.903  -4.988  25.290  1.00  0.00     0.021 C 
BRANCH   7   8
HETATM    8  C   UNL     1       7.706  -5.270  26.423  1.00  0.00     0.098 C 
HETATM    9  N   UNL     1       7.718  -6.055  27.484  1.00  0.00    -0.296 N 
ATOM     10  HN  UNL     1       8.564  -6.602  27.646  1.00  0.00     0.177 HD
BRANCH   9  11
HETATM   11  S   UNL     1       6.551  -6.221  28.520  1.00  0.00     0.226 S 
HETATM   12  C   UNL     1       5.180  -6.454  27.615  1.00  0.00     0.186 C 
HETATM   13  O   UNL     1       6.722  -7.405  29.366  1.00  0.00    -0.206 OA
HETATM   14  O   UNL     1       6.360  -5.070  29.380  1.00  0.00    -0.206 OA
ENDBRANCH   9  11
ENDBRANCH   7   8
ENDBRANCH   1   7
BRANCH   1  15
HETATM   15  C   UNL     1       7.972  -3.652  23.967  1.00  0.00    -0.061 C 
BRANCH  15  16
HETATM   16  C   UNL     1       8.401  -2.461  23.736  1.00  0.00     0.290 C 
HETATM   17  O   UNL     1       7.993  -2.012  22.782  1.00  0.00    -0.259 OA
HETATM   18  N   UNL     1       9.282  -2.013  24.641  1.00  0.00    -0.315 N 
ATOM     19  HN  UNL     1       9.571  -2.620  25.409  1.00  0.00     0.170 HD
BRANCH  18  20
HETATM   20  C   UNL     1       9.751  -0.862  24.553  1.00  0.00     0.057 A 
HETATM   21  C   UNL     1       9.430   0.340  24.970  1.00  0.00     0.117 A 
HETATM   22  N   UNL     1       9.667   1.550  25.071  1.00  0.00    -0.373 N 
HETATM   23  C   UNL     1      10.772   1.593  24.255  1.00  0.00     0.088 A 
ATOM     24  HN  UNL     1       9.191   2.284  25.595  1.00  0.00     0.164 HD
HETATM   25  C   UNL     1      11.348   0.674  23.728  1.00  0.00     0.026 A 
HETATM   26  C   UNL     1      11.093  -0.664  23.709  1.00  0.00    -0.033 A 
HETATM   27  C   UNL     1      11.757  -1.742  23.046  1.00  0.00     0.050 C 
ENDBRANCH  18  20
ENDBRANCH  15  16
ENDBRANCH   1  15
TORSDOF 6
ENDMDL
MODEL 6
REMARK VINA RESULT:    -6.517     14.807     16.228
REMARK INTER + INTRA:          -9.921
REMARK INTER:                  -9.047
REMARK INTRA:                  -0.873
REMARK UNBOUND:                -1.117
REMARK  6 active torsions:
REMARK  status: ('A' for Active; 'I' for Inactive)
REMARK    1  A    between atoms: S_2  and  N_5 
REMARK    2  A    between atoms: C_7  and  C_8 
REMARK    3  A    between atoms: C_8  and  C_9 
REMARK    4  A    between atoms: C_9  and  C_15 
REMARK    5  A    between atoms: C_15  and  C_16 
REMARK       I    between atoms: C_16  and  N_18 
REMARK    6  A    between atoms: N_18  and  C_20 
ROOT
HETATM    1  C   UNL     1      23.209  -1.860  23.619  1.00  0.00     0.076 C 
HETATM    2  C   UNL     1      21.814  -1.611  24.439  1.00  0.00     0.003 C 
HETATM    3  C   UNL     1      21.447  -0.683  24.855  1.00  0.00    -0.002 C 
HETATM    4  C   UNL     1      22.156   0.652  24.877  1.00  0.00    -0.001 C 
HETATM    5  C   UNL     1      23.361   0.514  24.377  1.00  0.00    -0.002 C 
HETATM    6  C   UNL     1      23.981  -0.290  23.927  1.00  0.00     0.003 C 
ENDROOT
BRANCH   1   7
HETATM    7  C   UNL     1      23.984  -2.828  23.618  1.00  0.00     0.021 C 
BRANCH   7   8
HETATM    8  C   UNL     1      24.283  -3.923  23.958  1.00  0.00     0.098 C 
HETATM    9  N   UNL     1      24.267  -5.241  23.909  1.00  0.00    -0.296 N 
ATOM     10  HN  UNL     1      24.319  -5.671  22.985  1.00  0.00     0.177 HD
BRANCH   9  11
HETATM   11  S   UNL     1      24.175  -6.208  25.142  1.00  0.00     0.226 S 
HETATM   12  C   UNL     1      25.697  -6.235  25.803  1.00  0.00     0.186 C 
HETATM   13  O   UNL     1      23.261  -5.711  26.172  1.00  0.00    -0.206 OA
HETATM   14  O   UNL     1      23.784  -7.561  24.800  1.00  0.00    -0.206 OA
ENDBRANCH   9  11
ENDBRANCH   7   8
ENDBRANCH   1   7
BRANCH   1  15
HETATM   15  C   UNL     1      23.025  -1.800  22.369  1.00  0.00    -0.061 C 
BRANCH  15  16
HETATM   16  C   UNL     1      22.777  -1.688  21.111  1.00  0.00     0.290 C 
HETATM   17  O   UNL     1      21.680  -1.789  20.857  1.00  0.00    -0.259 OA
HETATM   18  N   UNL     1      23.869  -1.527  20.352  1.00  0.00    -0.315 N 
ATOM     19  HN  UNL     1      24.792  -1.530  20.786  1.00  0.00     0.170 HD
BRANCH  18  20
HETATM   20  C   UNL     1      23.767  -1.373  19.119  1.00  0.00     0.057 A 
HETATM   21  C   UNL     1      23.422  -0.411  18.297  1.00  0.00     0.117 A 
HETATM   22  N   UNL     1      23.260   0.029  17.152  1.00  0.00    -0.373 N 
HETATM   23  C   UNL     1      23.493  -1.140  16.469  1.00  0.00     0.088 A 
ATOM     24  HN  UNL     1      23.027   0.965  16.820  1.00  0.00     0.164 HD
HETATM   25  C   UNL     1      23.854  -2.204  16.907  1.00  0.00     0.026 A 
HETATM   26  C   UNL     1      24.097  -2.623  18.180  1.00  0.00    -0.033 A 
HETATM   27  C   UNL     1      24.483  -3.899  18.696  1.00  0.00     0.050 C 
ENDBRANCH  18  20
ENDBRANCH  15  16
ENDBRANCH   1  15
TORSDOF 6
ENDMDL
MODEL 7
REMARK VINA RESULT:    -6.424      2.996      6.472
REMARK INTER + INTRA:          -9.794
REMARK INTER:                  -9.022
REMARK INTRA:                  -0.772
REMARK UNBOUND:                -1.117
REMARK  6 active torsions:
REMARK  status: ('A' for Active; 'I' for Inactive)
REMARK    1  A    between atoms: S_2  and  N_5 
REMARK    2  A    between atoms: C_7  and  C_8 
REMARK    3  A    between atoms: C_8  and  C_9 
REMARK    4  A    between atoms: C_9  and  C_15 
REMARK    5  A    between atoms: C_15  and  C_16 
REMARK       I    between atoms: C_16  and  N_18 
REMARK    6  A    between atoms: N_18  and  C_20 
ROOT
HETATM    1  C   UNL     1       7.424   0.534  20.731  1.00  0.00     0.076 C 
HETATM    2  C   UNL     1       6.001   1.341  20.801  1.00  0.00     0.003 C 
HETATM    3  C   UNL     1       5.220   1.373  20.054  1.00  0.00    -0.002 C 
HETATM    4  C   UNL     1       5.245   0.745  18.679  1.00  0.00    -0.001 C 
HETATM    5  C   UNL     1       6.420   0.203  18.468  1.00  0.00    -0.002 C 
HETATM    6  C   UNL     1       7.373   0.058  19.020  1.00  0.00     0.003 C 
ENDROOT
BRANCH   1   7
HETATM    7  C   UNL     1       8.549   0.841  21.150  1.00  0.00     0.021 C 
BRANCH   7   8
HETATM    8  C   UNL     1       9.272   1.545  21.771  1.00  0.00     0.098 C 
HETATM    9  N   UNL     1      10.432   2.075  22.111  1.00  0.00    -0.296 N 
ATOM     10  HN  UNL     1      11.059   2.344  21.353  1.00  0.00     0.177 HD
BRANCH   9  11
HETATM   11  S   UNL     1      10.934   2.328  23.576  1.00  0.00     0.226 S 
HETATM   12  C   UNL     1       9.628   2.029  24.555  1.00  0.00     0.186 C 
HETATM   13  O   UNL     1      11.995   1.399  23.969  1.00  0.00    -0.206 OA
HETATM   14  O   UNL     1      11.401   3.680  23.812  1.00  0.00    -0.206 OA
ENDBRANCH   9  11
ENDBRANCH   7   8
ENDBRANCH   1   7
BRANCH   1  15
HETATM   15  C   UNL     1       7.341  -0.593  21.300  1.00  0.00    -0.061 C 
BRANCH  15  16
HETATM   16  C   UNL     1       7.221  -1.767  21.814  1.00  0.00     0.290 C 
HETATM   17  O   UNL     1       8.205  -2.218  22.141  1.00  0.00    -0.259 OA
HETATM   18  N   UNL     1       5.967  -2.239  21.810  1.00  0.00    -0.315 N 
ATOM     19  HN  UNL     1       5.219  -1.683  21.396  1.00  0.00     0.170 HD
BRANCH  18  20
HETATM   20  C   UNL     1       5.707  -3.351  22.308  1.00  0.00     0.057 A 
HETATM   21  C   UNL     1       5.628  -4.594  21.895  1.00  0.00     0.117 A 
HETATM   22  N   UNL     1       5.445  -5.798  22.112  1.00  0.00    -0.373 N 
HETATM   23  C   UNL     1       5.060  -5.693  23.427  1.00  0.00     0.088 A 
ATOM     24  HN  UNL     1       5.548  -6.611  21.505  1.00  0.00     0.164 HD
HETATM   25  C   UNL     1       5.042  -4.710  24.125  1.00  0.00     0.026 A 
HETATM   26  C   UNL     1       5.330  -3.405  23.860  1.00  0.00    -0.033 A 
HETATM   27  C   UNL     1       5.263  -2.239  24.682  1.00  0.00     0.050 C 
ENDBRANCH  18  20
ENDBRANCH  15  16
ENDBRANCH   1  15
TORSDOF 6
ENDMDL
MODEL 8
REMARK VINA RESULT:    -6.180      4.040      5.690
REMARK INTER + INTRA:          -9.465
REMARK INTER:                  -8.570
REMARK INTRA:                  -0.895
REMARK UNBOUND:                -1.117
REMARK  6 active torsions:
REMARK  status: ('A' for Active; 'I' for Inactive)
REMARK    1  A    between atoms: S_2  and  N_5 
REMARK    2  A    between atoms: C_7  and  C_8 
REMARK    3  A    between atoms: C_8  and  C_9 
REMARK    4  A    between atoms: C_9  and  C_15 
REMARK    5  A    between atoms: C_15  and  C_16 
REMARK       I    between atoms: C_16  and  N_18 
REMARK    6  A    between atoms: N_18  and  C_20 
ROOT
HETATM    1  C   UNL     1       9.637   1.464  24.184  1.00  0.00     0.076 C 
HETATM    2  C   UNL     1      11.264   1.632  24.091  1.00  0.00     0.003 C 
HETATM    3  C   UNL     1      12.013   0.853  24.121  1.00  0.00    -0.002 C 
HETATM    4  C   UNL     1      11.784  -0.626  24.340  1.00  0.00    -0.001 C 
HETATM    5  C   UNL     1      10.513  -0.840  24.584  1.00  0.00    -0.002 C 
HETATM    6  C   UNL     1       9.574  -0.249  24.645  1.00  0.00     0.003 C 
ENDROOT
BRANCH   1   7
HETATM    7  C   UNL     1       8.781   2.179  24.726  1.00  0.00     0.021 C 
BRANCH   7   8
HETATM    8  C   UNL     1       8.446   3.190  25.245  1.00  0.00     0.098 C 
HETATM    9  N   UNL     1       7.678   4.247  25.432  1.00  0.00    -0.296 N 
ATOM     10  HN  UNL     1       6.670   4.098  25.402  1.00  0.00     0.177 HD
BRANCH   9  11
HETATM   11  S   UNL     1       8.176   5.711  25.696  1.00  0.00     0.226 S 
HETATM   12  C   UNL     1       9.553   5.887  24.787  1.00  0.00     0.186 C 
HETATM   13  O   UNL     1       7.217   6.717  25.234  1.00  0.00    -0.206 OA
HETATM   14  O   UNL     1       8.489   5.984  27.085  1.00  0.00    -0.206 OA
ENDBRANCH   9  11
ENDBRANCH   7   8
ENDBRANCH   1   7
BRANCH   1  15
HETATM   15  C   UNL     1       9.113   1.428  23.034  1.00  0.00    -0.061 C 
BRANCH  15  16
HETATM   16  C   UNL     1       8.651   1.408  21.832  1.00  0.00     0.290 C 
HETATM   17  O   UNL     1       9.326   1.918  21.082  1.00  0.00    -0.259 OA
HETATM   18  N   UNL     1       7.444   0.837  21.721  1.00  0.00    -0.315 N 
ATOM     19  HN  UNL     1       6.969   0.492  22.555  1.00  0.00     0.170 HD
BRANCH  18  20
HETATM   20  C   UNL     1       6.898   0.724  20.607  1.00  0.00     0.057 A 
HETATM   21  C   UNL     1       7.094   0.038  19.506  1.00  0.00     0.117 A 
HETATM   22  N   UNL     1       6.759  -0.292  18.361  1.00  0.00    -0.373 N 
HETATM   23  C   UNL     1       5.719   0.592  18.209  1.00  0.00     0.088 A 
ATOM     24  HN  UNL     1       7.137  -0.998  17.730  1.00  0.00     0.164 HD
HETATM   25  C   UNL     1       5.255   1.349  19.025  1.00  0.00     0.026 A 
HETATM   26  C   UNL     1       5.611   1.625  20.311  1.00  0.00    -0.033 A 
HETATM   27  C   UNL     1       5.083   2.555  21.258  1.00  0.00     0.050 C 
ENDBRANCH  18  20
ENDBRANCH  15  16
ENDBRANCH   1  15
TORSDOF 6
ENDMDL
MODEL 9
REMARK VINA RESULT:    -6.034      5.698      8.480
REMARK INTER + INTRA:          -9.268
REMARK INTER:                  -8.353
REMARK INTRA:                  -0.914
REMARK UNBOUND:                -1.117
REMARK  6 active torsions:
REMARK  status: ('A' for Active; 'I' for Inactive)
REMARK    1  A    between atoms: S_2  and  N_5 
REMARK    2  A    between atoms: C_7  and  C_8 
REMARK    3  A    between atoms: C_8  and  C_9 
REMARK    4  A    between atoms: C_9  and  C_15 
REMARK    5  A    between atoms: C_15  and  C_16 
REMARK       I    between atoms: C_16  and  N_18 
REMARK    6  A    between atoms: N_18  and  C_20 
ROOT
HETATM    1  C   UNL     1       5.107  -5.278  23.671  1.00  0.00     0.076 C 
HETATM    2  C   UNL     1       5.245  -3.713  23.210  1.00  0.00     0.003 C 
HETATM    3  C   UNL     1       5.585  -3.330  22.257  1.00  0.00    -0.002 C 
HETATM    4  C   UNL     1       6.114  -4.130  21.088  1.00  0.00    -0.001 C 
HETATM    5  C   UNL     1       6.190  -5.396  21.424  1.00  0.00    -0.002 C 
HETATM    6  C   UNL     1       5.952  -6.032  22.302  1.00  0.00     0.003 C 
ENDROOT
BRANCH   1   7
HETATM    7  C   UNL     1       5.311  -5.819  24.768  1.00  0.00     0.021 C 
BRANCH   7   8
HETATM    8  C   UNL     1       5.679  -5.783  25.893  1.00  0.00     0.098 C 
HETATM    9  N   UNL     1       6.419  -6.140  26.926  1.00  0.00    -0.296 N 
ATOM     10  HN  UNL     1       7.416  -6.276  26.757  1.00  0.00     0.177 HD
BRANCH   9  11
HETATM   11  S   UNL     1       5.905  -6.371  28.390  1.00  0.00     0.226 S 
HETATM   12  C   UNL     1       4.266  -6.123  28.334  1.00  0.00     0.186 C 
HETATM   13  O   UNL     1       6.123  -7.746  28.845  1.00  0.00    -0.206 OA
HETATM   14  O   UNL     1       6.486  -5.471  29.367  1.00  0.00    -0.206 OA
ENDBRANCH   9  11
ENDBRANCH   7   8
ENDBRANCH   1   7
BRANCH   1  15
HETATM   15  C   UNL     1       3.929  -5.706  23.496  1.00  0.00    -0.061 C 
BRANCH  15  16
HETATM   16  C   UNL     1       2.705  -6.068  23.336  1.00  0.00     0.290 C 
HETATM   17  O   UNL     1       1.957  -5.293  23.681  1.00  0.00    -0.259 OA
HETATM   18  N   UNL     1       2.561  -7.305  22.843  1.00  0.00    -0.315 N 
ATOM     19  HN  UNL     1       3.387  -7.875  22.658  1.00  0.00     0.170 HD
BRANCH  18  20
HETATM   20  C   UNL     1       1.427  -7.767  22.608  1.00  0.00     0.057 A 
HETATM   21  C   UNL     1       0.514  -7.642  21.675  1.00  0.00     0.117 A 
HETATM   22  N   UNL     1      -0.580  -7.945  21.183  1.00  0.00    -0.373 N 
HETATM   23  C   UNL     1      -1.034  -8.735  22.211  1.00  0.00     0.088 A 
ATOM     24  HN  UNL     1      -1.009  -7.689  20.294  1.00  0.00     0.164 HD
HETATM   25  C   UNL     1      -0.446  -9.079  23.207  1.00  0.00     0.026 A 
HETATM   26  C   UNL     1       0.798  -8.779  23.673  1.00  0.00    -0.033 A 
HETATM   27  C   UNL     1       1.471  -9.156  24.875  1.00  0.00     0.050 C 
ENDBRANCH  18  20
ENDBRANCH  15  16
ENDBRANCH   1  15
TORSDOF 6
ENDMDL
