stable:False satoms:9 tatoms:24 sratio:0.375
  -OEChem-07092417493D

 24 25  0     1  0  0  0  0  0999 V2000
    6.6396   -4.8285   26.4746 C   0  0  0  0  0  0  0  0  0  0  0  0
    8.1719   -4.3135   26.0996 S   0  0  0  0  0  0  0  0  0  0  0  0
    9.0315   -5.4988   26.0503 O   0  0  0  0  0  0  0  0  0  0  0  0
    8.6520   -3.4482   27.1586 O   0  0  0  0  0  0  0  0  0  0  0  0
    8.0514   -3.6057   24.7046 N   0  0  0  0  0  0  0  0  0  0  0  0
    8.9944   -2.8994   24.1106 C   0  0  0  0  0  0  0  0  0  0  0  0
    9.4297   -1.9837   23.4982 C   0  0  0  0  0  0  0  0  0  0  0  0
   10.3032   -1.1277   23.2916 C   0  0  1  0  0  0  0  0  0  0  0  0
   11.0037   -0.0517   24.3077 C   0  0  0  0  0  0  0  0  0  0  0  0
   12.0324    0.2821   24.3131 C   0  0  0  0  0  0  0  0  0  0  0  0
   13.1558   -0.2105   23.4289 C   0  0  0  0  0  0  0  0  0  0  0  0
   12.7226   -1.1958   22.6796 C   0  0  0  0  0  0  0  0  0  0  0  0
   11.7715   -1.7391   22.5013 C   0  0  0  0  0  0  0  0  0  0  0  0
    9.7306   -0.5435   22.3266 C   0  0  0  0  0  0  0  0  0  0  0  0
    9.0787    0.0366   21.3812 C   0  0  0  0  0  0  0  0  0  0  0  0
    9.5841    0.9708   20.9931 O   0  0  0  0  0  0  0  0  0  0  0  0
    7.9122   -0.5500   21.0833 N   0  0  0  0  0  0  0  0  0  0  0  0
    7.1974   -0.1083   20.1625 C   0  0  0  0  0  0  0  0  0  0  0  0
    7.2619   -0.0155   18.8560 C   0  0  0  0  0  0  0  0  0  0  0  0
    6.7688    0.3035   17.7665 N   0  0  0  0  0  0  0  0  0  0  0  0
    5.6471    0.9344   18.2483 C   0  0  0  0  0  0  0  0  0  0  0  0
    5.2648    1.0136   19.3892 C   0  0  0  0  0  0  0  0  0  0  0  0
    5.8084    0.5761   20.5592 C   0  0  0  0  0  0  0  0  0  0  0  0
    5.3703    0.7126   21.9120 C   0  0  0  0  0  0  0  0  0  0  0  0
 20 21  2  0  0  0  0
 19 20  1  0  0  0  0
 21 22  1  0  0  0  0
 18 19  2  0  0  0  0
 22 23  2  0  0  0  0
 18 23  1  0  0  0  0
 17 18  1  0  0  0  0
 23 24  1  0  0  0  0
 15 16  2  0  0  0  0
 15 17  1  0  0  0  0
 14 15  1  0  0  0  0
  8 14  1  0  0  0  0
 12 13  1  0  0  0  0
  8 13  1  0  0  0  0
 11 12  2  0  0  0  0
  7  8  1  0  0  0  0
  8  9  1  0  0  0  0
 10 11  1  0  0  0  0
  6  7  2  3  0  0  0
  5  6  1  0  0  0  0
  9 10  2  0  0  0  0
  2  5  1  0  0  0  0
  2  3  2  0  0  0  0
  1  2  1  0  0  0  0
  2  4  2  0  0  0  0
M  END
> <Shapegauss>
-286.332733

$$$$
