MODEL 1
REMARK VINA RESULT:    -6.487      0.000      0.000
REMARK INTER + INTRA:         -10.611
REMARK INTER:                  -9.710
REMARK INTRA:                  -0.902
REMARK UNBOUND:                -0.902
REMARK  9 active torsions:
REMARK  status: ('A' for Active; 'I' for Inactive)
REMARK    1  A    between atoms: S_2  and  N_5 
REMARK    2  A    between atoms: N_5  and  C_7 
REMARK    3  A    between atoms: C_7  and  C_8 
REMARK    4  A    between atoms: C_8  and  C_9 
REMARK    5  A    between atoms: N_11  and  C_13 
REMARK    6  A    between atoms: C_13  and  S_14 
REMARK    7  A    between atoms: S_14  and  C_15 
REMARK    8  A    between atoms: C_16  and  C_17 
REMARK       I    between atoms: C_17  and  N_19 
REMARK    9  A    between atoms: N_19  and  C_21 
ROOT
HETATM    1  C   UNL     1       7.005  -0.954  21.093  1.00  0.00     0.054 A 
HETATM    2  C   UNL     1       6.711   0.036  20.439  1.00  0.00     0.043 A 
HETATM    3  C   UNL     1       8.024  -0.293  21.036  1.00  0.00     0.071 A 
ENDROOT
BRANCH   3   4
HETATM    4  C   UNL     1       9.364   0.107  21.490  1.00  0.00     0.260 C 
HETATM    5  O   UNL     1       9.699   1.200  21.359  1.00  0.00    -0.267 OA
HETATM    6  N   UNL     1       9.964  -0.900  22.026  1.00  0.00    -0.308 N 
ATOM      7  HN  UNL     1       9.638  -1.855  21.875  1.00  0.00     0.170 HD
BRANCH   6   8
HETATM    8  C   UNL     1      11.035  -0.639  22.791  1.00  0.00     0.122 C 
HETATM    9  N   UNL     1      11.272   0.321  23.597  1.00  0.00    -0.286 N 
HETATM   10  N   UNL     1      12.178   0.658  24.355  1.00  0.00    -0.310 N 
ATOM     11  HN  UNL     1      10.502   0.989  23.617  1.00  0.00     0.188 HD
HETATM   12  C   UNL     1      12.993  -0.199  24.157  1.00  0.00     0.107 C 
ATOM     13  HN  UNL     1      12.224   1.456  24.988  1.00  0.00     0.186 HD
HETATM   14  C   UNL     1      12.924  -1.198  23.499  1.00  0.00     0.022 C 
HETATM   15  C   UNL     1      12.066  -1.688  22.785  1.00  0.00     0.051 C 
ENDBRANCH   6   8
ENDBRANCH   3   4
BRANCH   1  16
HETATM   16  C   UNL     1       6.621  -1.949  21.827  1.00  0.00    -0.041 C 
BRANCH  16  17
HETATM   17  C   UNL     1       6.450  -2.847  22.265  1.00  0.00     0.027 C 
BRANCH  17  18
HETATM   18  N   UNL     1       6.541  -3.862  22.992  1.00  0.00    -0.229 N 
ATOM     19  HN  UNL     1       7.283  -3.912  23.691  1.00  0.00     0.190 HD
BRANCH  18  20
HETATM   20  S   UNL     1       5.519  -5.084  22.847  1.00  0.00     0.327 S 
HETATM   21 CL   UNL     1       6.216  -5.907  21.287  1.00  0.00     0.042 Cl
HETATM   22  O   UNL     1       5.623  -5.987  23.938  1.00  0.00    -0.188 OA
HETATM   23  O   UNL     1       4.210  -4.722  22.531  1.00  0.00    -0.188 OA
ENDBRANCH  18  20
ENDBRANCH  17  18
ENDBRANCH  16  17
ENDBRANCH   1  16
BRANCH   2  24
HETATM   24  S   UNL     1       5.954   1.067  19.450  1.00  0.00    -0.083 SA
BRANCH  24  25
HETATM   25  C   UNL     1       5.618  -0.145  18.667  1.00  0.00     0.131 C 
BRANCH  25  26
HETATM   26  N   UNL     1       5.719  -0.706  17.671  1.00  0.00    -0.403 N 
HETATM   27  H   UNL     1       5.156  -1.457  17.392  1.00  0.00     0.155 HD
ATOM     28  HN  UNL     1       6.451  -0.400  17.030  1.00  0.00     0.155 HD
ENDBRANCH  25  26
ENDBRANCH  24  25
ENDBRANCH   2  24
TORSDOF 9
ENDMDL
MODEL 2
REMARK VINA RESULT:    -6.229      3.701      4.813
REMARK INTER + INTRA:         -10.226
REMARK INTER:                  -8.974
REMARK INTRA:                  -1.253
REMARK UNBOUND:                -0.902
REMARK  9 active torsions:
REMARK  status: ('A' for Active; 'I' for Inactive)
REMARK    1  A    between atoms: S_2  and  N_5 
REMARK    2  A    between atoms: N_5  and  C_7 
REMARK    3  A    between atoms: C_7  and  C_8 
REMARK    4  A    between atoms: C_8  and  C_9 
REMARK    5  A    between atoms: N_11  and  C_13 
REMARK    6  A    between atoms: C_13  and  S_14 
REMARK    7  A    between atoms: S_14  and  C_15 
REMARK    8  A    between atoms: C_16  and  C_17 
REMARK       I    between atoms: C_17  and  N_19 
REMARK    9  A    between atoms: N_19  and  C_21 
ROOT
HETATM    1  C   UNL     1       7.864  -4.741  23.958  1.00  0.00     0.054 A 
HETATM    2  C   UNL     1       7.182  -4.959  22.967  1.00  0.00     0.043 A 
HETATM    3  C   UNL     1       8.055  -3.792  23.221  1.00  0.00     0.071 A 
ENDROOT
BRANCH   3   4
HETATM    4  C   UNL     1       8.474  -2.414  22.927  1.00  0.00     0.260 C 
HETATM    5  O   UNL     1       7.672  -1.612  22.730  1.00  0.00    -0.267 OA
HETATM    6  N   UNL     1       9.759  -2.326  22.978  1.00  0.00    -0.308 N 
ATOM      7  HN  UNL     1      10.350  -3.157  22.943  1.00  0.00     0.170 HD
BRANCH   6   8
HETATM    8  C   UNL     1      10.286  -1.096  23.078  1.00  0.00     0.122 C 
HETATM    9  N   UNL     1      10.215  -0.091  22.295  1.00  0.00    -0.286 N 
HETATM   10  N   UNL     1      10.621   1.068  22.280  1.00  0.00    -0.310 N 
ATOM     11  HN  UNL     1       9.677  -0.308  21.457  1.00  0.00     0.188 HD
HETATM   12  C   UNL     1      11.261   1.117  23.294  1.00  0.00     0.107 C 
ATOM     13  HN  UNL     1      10.458   1.798  21.587  1.00  0.00     0.186 HD
HETATM   14  C   UNL     1      11.385   0.311  24.171  1.00  0.00     0.022 C 
HETATM   15  C   UNL     1      10.970  -0.821  24.350  1.00  0.00     0.051 C 
ENDBRANCH   6   8
ENDBRANCH   3   4
BRANCH   1  16
HETATM   16  C   UNL     1       8.097  -4.965  25.211  1.00  0.00    -0.041 C 
BRANCH  16  17
HETATM   17  C   UNL     1       8.069  -5.210  26.194  1.00  0.00     0.027 C 
BRANCH  17  18
HETATM   18  N   UNL     1       7.921  -5.832  27.270  1.00  0.00    -0.229 N 
ATOM     19  HN  UNL     1       8.744  -6.096  27.812  1.00  0.00     0.190 HD
BRANCH  18  20
HETATM   20  S   UNL     1       6.468  -6.221  27.814  1.00  0.00     0.327 S 
HETATM   21 CL   UNL     1       5.831  -4.500  28.297  1.00  0.00     0.042 Cl
HETATM   22  O   UNL     1       5.647  -6.751  26.784  1.00  0.00    -0.188 OA
HETATM   23  O   UNL     1       6.461  -6.970  28.990  1.00  0.00    -0.188 OA
ENDBRANCH  18  20
ENDBRANCH  17  18
ENDBRANCH  16  17
ENDBRANCH   1  16
BRANCH   2  24
HETATM   24  S   UNL     1       6.283  -5.689  21.838  1.00  0.00    -0.083 SA
BRANCH  24  25
HETATM   25  C   UNL     1       5.344  -5.956  22.953  1.00  0.00     0.131 C 
BRANCH  25  26
HETATM   26  N   UNL     1       4.946  -6.716  23.715  1.00  0.00    -0.403 N 
HETATM   27  H   UNL     1       5.277  -6.818  24.631  1.00  0.00     0.155 HD
ATOM     28  HN  UNL     1       4.190  -7.331  23.415  1.00  0.00     0.155 HD
ENDBRANCH  25  26
ENDBRANCH  24  25
ENDBRANCH   2  24
TORSDOF 9
ENDMDL
MODEL 3
REMARK VINA RESULT:    -6.115      2.159      5.409
REMARK INTER + INTRA:         -10.055
REMARK INTER:                  -9.329
REMARK INTRA:                  -0.727
REMARK UNBOUND:                -0.902
REMARK  9 active torsions:
REMARK  status: ('A' for Active; 'I' for Inactive)
REMARK    1  A    between atoms: S_2  and  N_5 
REMARK    2  A    between atoms: N_5  and  C_7 
REMARK    3  A    between atoms: C_7  and  C_8 
REMARK    4  A    between atoms: C_8  and  C_9 
REMARK    5  A    between atoms: N_11  and  C_13 
REMARK    6  A    between atoms: C_13  and  S_14 
REMARK    7  A    between atoms: S_14  and  C_15 
REMARK    8  A    between atoms: C_16  and  C_17 
REMARK       I    between atoms: C_17  and  N_19 
REMARK    9  A    between atoms: N_19  and  C_21 
ROOT
HETATM    1  C   UNL     1       9.274  -1.947  22.791  1.00  0.00     0.054 A 
HETATM    2  C   UNL     1      10.434  -1.573  22.691  1.00  0.00     0.043 A 
HETATM    3  C   UNL     1       9.222  -0.897  22.178  1.00  0.00     0.071 A 
ENDROOT
BRANCH   3   4
HETATM    4  C   UNL     1       8.575   0.082  21.293  1.00  0.00     0.260 C 
HETATM    5  O   UNL     1       9.159   1.020  20.970  1.00  0.00    -0.267 OA
HETATM    6  N   UNL     1       7.393  -0.324  20.979  1.00  0.00    -0.308 N 
ATOM      7  HN  UNL     1       6.925  -1.058  21.511  1.00  0.00     0.170 HD
BRANCH   6   8
HETATM    8  C   UNL     1       6.805   0.259  19.923  1.00  0.00     0.122 C 
HETATM    9  N   UNL     1       7.118   0.260  18.687  1.00  0.00    -0.286 N 
HETATM   10  N   UNL     1       6.665   0.722  17.643  1.00  0.00    -0.310 N 
ATOM     11  HN  UNL     1       7.976  -0.266  18.520  1.00  0.00     0.188 HD
HETATM   12  C   UNL     1       5.714   1.336  18.040  1.00  0.00     0.107 C 
ATOM     13  HN  UNL     1       7.008   0.614  16.689  1.00  0.00     0.186 HD
HETATM   14  C   UNL     1       5.233   1.397  19.136  1.00  0.00     0.022 C 
HETATM   15  C   UNL     1       5.525   0.922  20.220  1.00  0.00     0.051 C 
ENDBRANCH   6   8
ENDBRANCH   3   4
BRANCH   1  16
HETATM   16  C   UNL     1       8.437  -2.915  22.986  1.00  0.00    -0.041 C 
BRANCH  16  17
HETATM   17  C   UNL     1       7.848  -3.654  23.350  1.00  0.00     0.027 C 
BRANCH  17  18
HETATM   18  N   UNL     1       6.856  -4.335  23.698  1.00  0.00    -0.229 N 
ATOM     19  HN  UNL     1       6.666  -4.470  24.691  1.00  0.00     0.190 HD
BRANCH  18  20
HETATM   20  S   UNL     1       5.881  -4.996  22.616  1.00  0.00     0.327 S 
HETATM   21 CL   UNL     1       7.139  -6.010  21.622  1.00  0.00     0.042 Cl
HETATM   22  O   UNL     1       4.946  -5.877  23.222  1.00  0.00    -0.188 OA
HETATM   23  O   UNL     1       5.315  -4.102  21.708  1.00  0.00    -0.188 OA
ENDBRANCH  18  20
ENDBRANCH  17  18
ENDBRANCH  16  17
ENDBRANCH   1  16
BRANCH   2  24
HETATM   24  S   UNL     1      12.026  -1.396  22.911  1.00  0.00    -0.083 SA
BRANCH  24  25
HETATM   25  C   UNL     1      11.639  -0.743  24.184  1.00  0.00     0.131 C 
BRANCH  25  26
HETATM   26  N   UNL     1      11.628   0.221  24.807  1.00  0.00    -0.403 N 
HETATM   27  H   UNL     1      10.985   0.422  25.517  1.00  0.00     0.155 HD
ATOM     28  HN  UNL     1      12.342   0.921  24.605  1.00  0.00     0.155 HD
ENDBRANCH  25  26
ENDBRANCH  24  25
ENDBRANCH   2  24
TORSDOF 9
ENDMDL
MODEL 4
REMARK VINA RESULT:    -6.047      3.408      6.080
REMARK INTER + INTRA:          -9.954
REMARK INTER:                  -8.961
REMARK INTRA:                  -0.993
REMARK UNBOUND:                -0.902
REMARK  9 active torsions:
REMARK  status: ('A' for Active; 'I' for Inactive)
REMARK    1  A    between atoms: S_2  and  N_5 
REMARK    2  A    between atoms: N_5  and  C_7 
REMARK    3  A    between atoms: C_7  and  C_8 
REMARK    4  A    between atoms: C_8  and  C_9 
REMARK    5  A    between atoms: N_11  and  C_13 
REMARK    6  A    between atoms: C_13  and  S_14 
REMARK    7  A    between atoms: S_14  and  C_15 
REMARK    8  A    between atoms: C_16  and  C_17 
REMARK       I    between atoms: C_17  and  N_19 
REMARK    9  A    between atoms: N_19  and  C_21 
ROOT
HETATM    1  C   UNL     1       9.450  -0.364  22.020  1.00  0.00     0.054 A 
HETATM    2  C   UNL     1      10.117  -0.005  22.979  1.00  0.00     0.043 A 
HETATM    3  C   UNL     1       9.416  -1.295  22.802  1.00  0.00     0.071 A 
ENDROOT
BRANCH   3   4
HETATM    4  C   UNL     1       8.848  -2.535  23.353  1.00  0.00     0.260 C 
HETATM    5  O   UNL     1       8.978  -2.762  24.474  1.00  0.00    -0.267 OA
HETATM    6  N   UNL     1       8.229  -3.183  22.427  1.00  0.00    -0.308 N 
ATOM      7  HN  UNL     1       8.384  -2.977  21.440  1.00  0.00     0.170 HD
BRANCH   6   8
HETATM    8  C   UNL     1       7.373  -4.140  22.817  1.00  0.00     0.122 C 
HETATM    9  N   UNL     1       6.687  -4.263  23.886  1.00  0.00    -0.286 N 
HETATM   10  N   UNL     1       5.871  -5.057  24.345  1.00  0.00    -0.310 N 
ATOM     11  HN  UNL     1       6.864  -3.494  24.532  1.00  0.00     0.188 HD
HETATM   12  C   UNL     1       5.836  -5.895  23.488  1.00  0.00     0.107 C 
ATOM     13  HN  UNL     1       5.357  -5.015  25.225  1.00  0.00     0.186 HD
HETATM   14  C   UNL     1       6.350  -5.919  22.406  1.00  0.00     0.022 C 
HETATM   15  C   UNL     1       7.095  -5.167  21.802  1.00  0.00     0.051 C 
ENDBRANCH   6   8
ENDBRANCH   3   4
BRANCH   1  16
HETATM   16  C   UNL     1       8.761  -0.047  20.971  1.00  0.00    -0.041 C 
BRANCH  16  17
HETATM   17  C   UNL     1       8.098   0.025  20.208  1.00  0.00     0.027 C 
BRANCH  17  18
HETATM   18  N   UNL     1       7.559  -0.030  19.080  1.00  0.00    -0.229 N 
ATOM     19  HN  UNL     1       8.135   0.081  18.245  1.00  0.00     0.190 HD
BRANCH  18  20
HETATM   20  S   UNL     1       5.986  -0.272  18.919  1.00  0.00     0.327 S 
HETATM   21 CL   UNL     1       5.336   1.398  19.542  1.00  0.00     0.042 Cl
HETATM   22  O   UNL     1       5.617  -0.439  17.558  1.00  0.00    -0.188 OA
HETATM   23  O   UNL     1       5.448  -1.231  19.777  1.00  0.00    -0.188 OA
ENDBRANCH  18  20
ENDBRANCH  17  18
ENDBRANCH  16  17
ENDBRANCH   1  16
BRANCH   2  24
HETATM   24  S   UNL     1      11.156   0.790  23.930  1.00  0.00    -0.083 SA
BRANCH  24  25
HETATM   25  C   UNL     1      10.877   1.941  23.040  1.00  0.00     0.131 C 
BRANCH  25  26
HETATM   26  N   UNL     1      10.593   3.051  22.960  1.00  0.00    -0.403 N 
HETATM   27  H   UNL     1       9.691   3.386  22.780  1.00  0.00     0.155 HD
ATOM     28  HN  UNL     1      11.336   3.737  23.087  1.00  0.00     0.155 HD
ENDBRANCH  25  26
ENDBRANCH  24  25
ENDBRANCH   2  24
TORSDOF 9
ENDMDL
MODEL 5
REMARK VINA RESULT:    -6.035      3.648      6.944
REMARK INTER + INTRA:          -9.935
REMARK INTER:                  -8.857
REMARK INTRA:                  -1.078
REMARK UNBOUND:                -0.902
REMARK  9 active torsions:
REMARK  status: ('A' for Active; 'I' for Inactive)
REMARK    1  A    between atoms: S_2  and  N_5 
REMARK    2  A    between atoms: N_5  and  C_7 
REMARK    3  A    between atoms: C_7  and  C_8 
REMARK    4  A    between atoms: C_8  and  C_9 
REMARK    5  A    between atoms: N_11  and  C_13 
REMARK    6  A    between atoms: C_13  and  S_14 
REMARK    7  A    between atoms: S_14  and  C_15 
REMARK    8  A    between atoms: C_16  and  C_17 
REMARK       I    between atoms: C_17  and  N_19 
REMARK    9  A    between atoms: N_19  and  C_21 
ROOT
HETATM    1  C   UNL     1       8.100  -2.332  25.078  1.00  0.00     0.054 A 
HETATM    2  C   UNL     1       7.320  -3.247  25.296  1.00  0.00     0.043 A 
HETATM    3  C   UNL     1       7.681  -2.664  23.985  1.00  0.00     0.071 A 
ENDROOT
BRANCH   3   4
HETATM    4  C   UNL     1       7.409  -2.451  22.556  1.00  0.00     0.260 C 
HETATM    5  O   UNL     1       7.062  -3.339  21.911  1.00  0.00    -0.267 OA
HETATM    6  N   UNL     1       7.586  -1.210  22.256  1.00  0.00    -0.308 N 
ATOM      7  HN  UNL     1       8.105  -0.583  22.872  1.00  0.00     0.170 HD
BRANCH   6   8
HETATM    8  C   UNL     1       7.057  -0.777  21.101  1.00  0.00     0.122 C 
HETATM    9  N   UNL     1       5.882  -0.903  20.621  1.00  0.00    -0.286 N 
HETATM   10  N   UNL     1       5.278  -0.546  19.613  1.00  0.00    -0.310 N 
ATOM     11  HN  UNL     1       5.282  -1.447  21.241  1.00  0.00     0.188 HD
HETATM   12  C   UNL     1       6.141   0.018  18.998  1.00  0.00     0.107 C 
ATOM     13  HN  UNL     1       4.300  -0.690  19.364  1.00  0.00     0.186 HD
HETATM   14  C   UNL     1       7.265   0.288  19.311  1.00  0.00     0.022 C 
HETATM   15  C   UNL     1       7.947   0.076  20.299  1.00  0.00     0.051 C 
ENDBRANCH   6   8
ENDBRANCH   3   4
BRANCH   1  16
HETATM   16  C   UNL     1       8.740  -1.295  25.516  1.00  0.00    -0.041 C 
BRANCH  16  17
HETATM   17  C   UNL     1       9.386  -0.537  25.700  1.00  0.00     0.027 C 
BRANCH  17  18
HETATM   18  N   UNL     1      10.267   0.344  25.576  1.00  0.00    -0.229 N 
ATOM     19  HN  UNL     1      10.525   0.910  26.384  1.00  0.00     0.190 HD
BRANCH  18  20
HETATM   20  S   UNL     1      10.995   0.601  24.175  1.00  0.00     0.327 S 
HETATM   21 CL   UNL     1      12.671  -0.216  24.527  1.00  0.00     0.042 Cl
HETATM   22  O   UNL     1      10.352  -0.091  23.115  1.00  0.00    -0.188 OA
HETATM   23  O   UNL     1      11.278   1.937  23.895  1.00  0.00    -0.188 OA
ENDBRANCH  18  20
ENDBRANCH  17  18
ENDBRANCH  16  17
ENDBRANCH   1  16
BRANCH   2  24
HETATM   24  S   UNL     1       6.520  -4.462  26.002  1.00  0.00    -0.083 SA
BRANCH  24  25
HETATM   25  C   UNL     1       7.868  -4.946  26.383  1.00  0.00     0.131 C 
BRANCH  25  26
HETATM   26  N   UNL     1       8.484  -5.687  27.006  1.00  0.00    -0.403 N 
HETATM   27  H   UNL     1       9.454  -5.640  27.136  1.00  0.00     0.155 HD
ATOM     28  HN  UNL     1       7.985  -6.452  27.459  1.00  0.00     0.155 HD
ENDBRANCH  25  26
ENDBRANCH  24  25
ENDBRANCH   2  24
TORSDOF 9
ENDMDL
MODEL 6
REMARK VINA RESULT:    -6.023      5.638      9.967
REMARK INTER + INTRA:          -9.917
REMARK INTER:                  -8.612
REMARK INTRA:                  -1.305
REMARK UNBOUND:                -0.902
REMARK  9 active torsions:
REMARK  status: ('A' for Active; 'I' for Inactive)
REMARK    1  A    between atoms: S_2  and  N_5 
REMARK    2  A    between atoms: N_5  and  C_7 
REMARK    3  A    between atoms: C_7  and  C_8 
REMARK    4  A    between atoms: C_8  and  C_9 
REMARK    5  A    between atoms: N_11  and  C_13 
REMARK    6  A    between atoms: C_13  and  S_14 
REMARK    7  A    between atoms: S_14  and  C_15 
REMARK    8  A    between atoms: C_16  and  C_17 
REMARK       I    between atoms: C_17  and  N_19 
REMARK    9  A    between atoms: N_19  and  C_21 
ROOT
HETATM    1  C   UNL     1       5.034  -6.352  25.865  1.00  0.00     0.054 A 
HETATM    2  C   UNL     1       4.455  -6.596  26.913  1.00  0.00     0.043 A 
HETATM    3  C   UNL     1       4.109  -7.081  25.559  1.00  0.00     0.071 A 
ENDROOT
BRANCH   3   4
HETATM    4  C   UNL     1       3.152  -7.671  24.612  1.00  0.00     0.260 C 
HETATM    5  O   UNL     1       2.621  -8.654  24.889  1.00  0.00    -0.267 OA
HETATM    6  N   UNL     1       3.037  -6.914  23.576  1.00  0.00    -0.308 N 
ATOM      7  HN  UNL     1       3.728  -6.193  23.365  1.00  0.00     0.170 HD
BRANCH   6   8
HETATM    8  C   UNL     1       1.971  -7.113  22.786  1.00  0.00     0.122 C 
HETATM    9  N   UNL     1       1.627  -8.123  22.085  1.00  0.00    -0.286 N 
HETATM   10  N   UNL     1       0.691  -8.435  21.354  1.00  0.00    -0.310 N 
ATOM     11  HN  UNL     1       2.317  -8.872  22.148  1.00  0.00     0.188 HD
HETATM   12  C   UNL     1       0.031  -7.433  21.362  1.00  0.00     0.107 C 
ATOM     13  HN  UNL     1       0.519  -9.315  20.869  1.00  0.00     0.186 HD
HETATM   14  C   UNL     1       0.156  -6.427  22.000  1.00  0.00     0.022 C 
HETATM   15  C   UNL     1       0.974  -6.032  22.813  1.00  0.00     0.051 C 
ENDBRANCH   6   8
ENDBRANCH   3   4
BRANCH   1  16
HETATM   16  C   UNL     1       5.828  -5.581  25.193  1.00  0.00    -0.041 C 
BRANCH  16  17
HETATM   17  C   UNL     1       6.261  -4.893  24.589  1.00  0.00     0.027 C 
BRANCH  17  18
HETATM   18  N   UNL     1       6.639  -4.248  23.584  1.00  0.00    -0.229 N 
ATOM     19  HN  UNL     1       7.545  -3.779  23.603  1.00  0.00     0.190 HD
BRANCH  18  20
HETATM   20  S   UNL     1       5.731  -4.146  22.272  1.00  0.00     0.327 S 
HETATM   21 CL   UNL     1       6.366  -5.658  21.318  1.00  0.00     0.042 Cl
HETATM   22  O   UNL     1       4.354  -4.327  22.571  1.00  0.00    -0.188 OA
HETATM   23  O   UNL     1       5.997  -3.046  21.456  1.00  0.00    -0.188 OA
ENDBRANCH  18  20
ENDBRANCH  17  18
ENDBRANCH  16  17
ENDBRANCH   1  16
BRANCH   2  24
HETATM   24  S   UNL     1       4.102  -6.760  28.483  1.00  0.00    -0.083 SA
BRANCH  24  25
HETATM   25  C   UNL     1       5.548  -7.044  28.638  1.00  0.00     0.131 C 
BRANCH  25  26
HETATM   26  N   UNL     1       6.363  -7.590  29.232  1.00  0.00    -0.403 N 
HETATM   27  H   UNL     1       6.469  -7.550  30.205  1.00  0.00     0.155 HD
ATOM     28  HN  UNL     1       7.027  -8.160  28.708  1.00  0.00     0.155 HD
ENDBRANCH  25  26
ENDBRANCH  24  25
ENDBRANCH   2  24
TORSDOF 9
ENDMDL
MODEL 7
REMARK VINA RESULT:    -5.957      6.452      9.623
REMARK INTER + INTRA:          -9.820
REMARK INTER:                  -8.931
REMARK INTRA:                  -0.888
REMARK UNBOUND:                -0.902
REMARK  9 active torsions:
REMARK  status: ('A' for Active; 'I' for Inactive)
REMARK    1  A    between atoms: S_2  and  N_5 
REMARK    2  A    between atoms: N_5  and  C_7 
REMARK    3  A    between atoms: C_7  and  C_8 
REMARK    4  A    between atoms: C_8  and  C_9 
REMARK    5  A    between atoms: N_11  and  C_13 
REMARK    6  A    between atoms: C_13  and  S_14 
REMARK    7  A    between atoms: S_14  and  C_15 
REMARK    8  A    between atoms: C_16  and  C_17 
REMARK       I    between atoms: C_17  and  N_19 
REMARK    9  A    between atoms: N_19  and  C_21 
ROOT
HETATM    1  C   UNL     1       5.490  -5.837  25.468  1.00  0.00     0.054 A 
HETATM    2  C   UNL     1       6.407  -5.342  24.830  1.00  0.00     0.043 A 
HETATM    3  C   UNL     1       5.035  -5.632  24.359  1.00  0.00     0.071 A 
ENDROOT
BRANCH   3   4
HETATM    4  C   UNL     1       4.067  -5.838  23.271  1.00  0.00     0.260 C 
HETATM    5  O   UNL     1       4.415  -5.721  22.180  1.00  0.00    -0.267 OA
HETATM    6  N   UNL     1       2.923  -6.171  23.761  1.00  0.00    -0.308 N 
ATOM      7  HN  UNL     1       2.701  -6.021  24.745  1.00  0.00     0.170 HD
BRANCH   6   8
HETATM    8  C   UNL     1       2.035  -6.726  22.920  1.00  0.00     0.122 C 
HETATM    9  N   UNL     1       2.009  -7.878  22.374  1.00  0.00    -0.286 N 
HETATM   10  N   UNL     1       1.264  -8.502  21.623  1.00  0.00    -0.310 N 
ATOM     11  HN  UNL     1       2.828  -8.430  22.629  1.00  0.00     0.188 HD
HETATM   12  C   UNL     1       0.410  -7.690  21.397  1.00  0.00     0.107 C 
ATOM     13  HN  UNL     1       1.348  -9.459  21.282  1.00  0.00     0.186 HD
HETATM   14  C   UNL     1       0.233  -6.600  21.862  1.00  0.00     0.022 C 
HETATM   15  C   UNL     1       0.836  -5.913  22.668  1.00  0.00     0.051 C 
ENDBRANCH   6   8
ENDBRANCH   3   4
BRANCH   1  16
HETATM   16  C   UNL     1       5.103  -6.546  26.480  1.00  0.00    -0.041 C 
BRANCH  16  17
HETATM   17  C   UNL     1       4.827  -6.911  27.384  1.00  0.00     0.027 C 
BRANCH  17  18
HETATM   18  N   UNL     1       4.793  -7.192  28.603  1.00  0.00    -0.229 N 
ATOM     19  HN  UNL     1       3.974  -7.666  28.984  1.00  0.00     0.190 HD
BRANCH  18  20
HETATM   20  S   UNL     1       6.007  -6.824  29.577  1.00  0.00     0.327 S 
HETATM   21 CL   UNL     1       5.073  -6.680  31.221  1.00  0.00     0.042 Cl
HETATM   22  O   UNL     1       6.949  -7.884  29.665  1.00  0.00    -0.188 OA
HETATM   23  O   UNL     1       6.579  -5.571  29.356  1.00  0.00    -0.188 OA
ENDBRANCH  18  20
ENDBRANCH  17  18
ENDBRANCH  16  17
ENDBRANCH   1  16
BRANCH   2  24
HETATM   24  S   UNL     1       7.795  -4.617  24.424  1.00  0.00    -0.083 SA
BRANCH  24  25
HETATM   25  C   UNL     1       8.236  -5.004  25.785  1.00  0.00     0.131 C 
BRANCH  25  26
HETATM   26  N   UNL     1       8.850  -5.729  26.428  1.00  0.00    -0.403 N 
HETATM   27  H   UNL     1       9.074  -5.589  27.371  1.00  0.00     0.155 HD
ATOM     28  HN  UNL     1       9.187  -6.583  25.984  1.00  0.00     0.155 HD
ENDBRANCH  25  26
ENDBRANCH  24  25
ENDBRANCH   2  24
TORSDOF 9
ENDMDL
MODEL 8
REMARK VINA RESULT:    -5.939      3.303      6.116
REMARK INTER + INTRA:          -9.792
REMARK INTER:                  -9.146
REMARK INTRA:                  -0.646
REMARK UNBOUND:                -0.902
REMARK  9 active torsions:
REMARK  status: ('A' for Active; 'I' for Inactive)
REMARK    1  A    between atoms: S_2  and  N_5 
REMARK    2  A    between atoms: N_5  and  C_7 
REMARK    3  A    between atoms: C_7  and  C_8 
REMARK    4  A    between atoms: C_8  and  C_9 
REMARK    5  A    between atoms: N_11  and  C_13 
REMARK    6  A    between atoms: C_13  and  S_14 
REMARK    7  A    between atoms: S_14  and  C_15 
REMARK    8  A    between atoms: C_16  and  C_17 
REMARK       I    between atoms: C_17  and  N_19 
REMARK    9  A    between atoms: N_19  and  C_21 
ROOT
HETATM    1  C   UNL     1       7.397  -0.448  21.168  1.00  0.00     0.054 A 
HETATM    2  C   UNL     1       6.590  -0.002  20.366  1.00  0.00     0.043 A 
HETATM    3  C   UNL     1       6.460  -1.224  21.189  1.00  0.00     0.071 A 
ENDROOT
BRANCH   3   4
HETATM    4  C   UNL     1       5.828  -2.522  21.470  1.00  0.00     0.260 C 
HETATM    5  O   UNL     1       5.551  -3.214  20.593  1.00  0.00    -0.267 OA
HETATM    6  N   UNL     1       5.716  -2.688  22.743  1.00  0.00    -0.308 N 
ATOM      7  HN  UNL     1       5.798  -1.904  23.391  1.00  0.00     0.170 HD
BRANCH   6   8
HETATM    8  C   UNL     1       5.486  -3.935  23.180  1.00  0.00     0.122 C 
HETATM    9  N   UNL     1       4.735  -4.857  22.719  1.00  0.00    -0.286 N 
HETATM   10  N   UNL     1       4.458  -6.020  23.003  1.00  0.00    -0.310 N 
ATOM     11  HN  UNL     1       4.226  -4.544  21.892  1.00  0.00     0.188 HD
HETATM   12  C   UNL     1       5.094  -6.184  24.007  1.00  0.00     0.107 C 
ATOM     13  HN  UNL     1       3.848  -6.674  22.514  1.00  0.00     0.186 HD
HETATM   14  C   UNL     1       5.893  -5.471  24.544  1.00  0.00     0.022 C 
HETATM   15  C   UNL     1       6.319  -4.351  24.320  1.00  0.00     0.051 C 
ENDBRANCH   6   8
ENDBRANCH   3   4
BRANCH   1  16
HETATM   16  C   UNL     1       8.618  -0.504  21.595  1.00  0.00    -0.041 C 
BRANCH  16  17
HETATM   17  C   UNL     1       9.595  -0.356  21.818  1.00  0.00     0.027 C 
BRANCH  17  18
HETATM   18  N   UNL     1      10.841  -0.465  21.877  1.00  0.00    -0.229 N 
ATOM     19  HN  UNL     1      11.409  -0.129  21.099  1.00  0.00     0.190 HD
BRANCH  18  20
HETATM   20  S   UNL     1      11.560  -1.122  23.145  1.00  0.00     0.327 S 
HETATM   21 CL   UNL     1      12.333   0.429  23.919  1.00  0.00     0.042 Cl
HETATM   22  O   UNL     1      10.620  -1.677  24.053  1.00  0.00    -0.188 OA
HETATM   23  O   UNL     1      12.629  -1.966  22.845  1.00  0.00    -0.188 OA
ENDBRANCH  18  20
ENDBRANCH  17  18
ENDBRANCH  16  17
ENDBRANCH   1  16
BRANCH   2  24
HETATM   24  S   UNL     1       5.789   0.982  19.363  1.00  0.00    -0.083 SA
BRANCH  24  25
HETATM   25  C   UNL     1       5.981  -0.100  18.369  1.00  0.00     0.131 C 
BRANCH  25  26
HETATM   26  N   UNL     1       5.592  -1.088  17.934  1.00  0.00    -0.403 N 
HETATM   27  H   UNL     1       5.446  -1.262  16.981  1.00  0.00     0.155 HD
ATOM     28  HN  UNL     1       5.384  -1.842  18.588  1.00  0.00     0.155 HD
ENDBRANCH  25  26
ENDBRANCH  24  25
ENDBRANCH   2  24
TORSDOF 9
ENDMDL
MODEL 9
REMARK VINA RESULT:    -5.821      3.926      6.453
REMARK INTER + INTRA:          -9.616
REMARK INTER:                  -9.015
REMARK INTRA:                  -0.601
REMARK UNBOUND:                -0.902
REMARK  9 active torsions:
REMARK  status: ('A' for Active; 'I' for Inactive)
REMARK    1  A    between atoms: S_2  and  N_5 
REMARK    2  A    between atoms: N_5  and  C_7 
REMARK    3  A    between atoms: C_7  and  C_8 
REMARK    4  A    between atoms: C_8  and  C_9 
REMARK    5  A    between atoms: N_11  and  C_13 
REMARK    6  A    between atoms: C_13  and  S_14 
REMARK    7  A    between atoms: S_14  and  C_15 
REMARK    8  A    between atoms: C_16  and  C_17 
REMARK       I    between atoms: C_17  and  N_19 
REMARK    9  A    between atoms: N_19  and  C_21 
ROOT
HETATM    1  C   UNL     1       6.922   1.074  21.162  1.00  0.00     0.054 A 
HETATM    2  C   UNL     1       6.056   0.913  20.315  1.00  0.00     0.043 A 
HETATM    3  C   UNL     1       6.649  -0.110  21.204  1.00  0.00     0.071 A 
ENDROOT
BRANCH   3   4
HETATM    4  C   UNL     1       6.918  -1.515  21.544  1.00  0.00     0.260 C 
HETATM    5  O   UNL     1       7.974  -1.817  21.890  1.00  0.00    -0.267 OA
HETATM    6  N   UNL     1       5.840  -2.211  21.420  1.00  0.00    -0.308 N 
ATOM      7  HN  UNL     1       5.039  -1.860  20.896  1.00  0.00     0.170 HD
BRANCH   6   8
HETATM    8  C   UNL     1       5.817  -3.415  22.012  1.00  0.00     0.122 C 
HETATM    9  N   UNL     1       6.470  -4.482  21.760  1.00  0.00    -0.286 N 
HETATM   10  N   UNL     1       6.557  -5.615  22.226  1.00  0.00    -0.310 N 
ATOM     11  HN  UNL     1       7.085  -4.361  20.955  1.00  0.00     0.188 HD
HETATM   12  C   UNL     1       5.742  -5.581  23.105  1.00  0.00     0.107 C 
ATOM     13  HN  UNL     1       7.164  -6.383  21.940  1.00  0.00     0.186 HD
HETATM   14  C   UNL     1       5.092  -4.667  23.525  1.00  0.00     0.022 C 
HETATM   15  C   UNL     1       4.980  -3.492  23.219  1.00  0.00     0.051 C 
ENDBRANCH   6   8
ENDBRANCH   3   4
BRANCH   1  16
HETATM   16  C   UNL     1       7.901   1.786  21.622  1.00  0.00    -0.041 C 
BRANCH  16  17
HETATM   17  C   UNL     1       8.760   2.145  22.020  1.00  0.00     0.027 C 
BRANCH  17  18
HETATM   18  N   UNL     1       9.968   2.387  22.244  1.00  0.00    -0.229 N 
ATOM     19  HN  UNL     1      10.651   2.256  21.497  1.00  0.00     0.190 HD
BRANCH  18  20
HETATM   20  S   UNL     1      10.463   2.896  23.677  1.00  0.00     0.327 S 
HETATM   21 CL   UNL     1      10.755   1.228  24.532  1.00  0.00     0.042 Cl
HETATM   22  O   UNL     1      11.695   3.597  23.587  1.00  0.00    -0.188 OA
HETATM   23  O   UNL     1       9.492   3.546  24.438  1.00  0.00    -0.188 OA
ENDBRANCH  18  20
ENDBRANCH  17  18
ENDBRANCH  16  17
ENDBRANCH   1  16
BRANCH   2  24
HETATM   24  S   UNL     1       4.879   1.174  19.236  1.00  0.00    -0.083 SA
BRANCH  24  25
HETATM   25  C   UNL     1       5.698   0.322  18.342  1.00  0.00     0.131 C 
BRANCH  25  26
HETATM   26  N   UNL     1       5.762  -0.644  17.726  1.00  0.00    -0.403 N 
HETATM   27  H   UNL     1       5.018  -1.043  17.230  1.00  0.00     0.155 HD
ATOM     28  HN  UNL     1       6.662  -1.122  17.692  1.00  0.00     0.155 HD
ENDBRANCH  25  26
ENDBRANCH  24  25
ENDBRANCH   2  24
TORSDOF 9
ENDMDL
