stable:False satoms:8 tatoms:24 sratio:0.3333333333333333
  -OEChem-07092417413D

 24 25  0     1  0  0  0  0  0999 V2000
    6.4423   -4.9197   26.5031 Cl  0  0  0  0  0  0  0  0  0  0  0  0
    8.2434   -4.4432   26.1451 S   0  0  0  0  0  0  0  0  0  0  0  0
    9.0304   -5.6223   26.0579 O   0  0  0  0  0  0  0  0  0  0  0  0
    8.6177   -3.5834   27.1773 O   0  0  0  0  0  0  0  0  0  0  0  0
    8.0632   -3.7459   24.7168 N   0  0  0  0  0  0  0  0  0  0  0  0
    8.9003   -2.9216   24.2839 C   0  0  0  0  0  0  0  0  0  0  0  0
    9.3446   -2.1698   23.7715 C   0  0  0  0  0  0  0  0  0  0  0  0
   10.1329   -1.3889   23.1040 C   0  0  0  0  0  0  0  0  0  0  0  0
   11.2468    0.2762   24.4437 H   0  0  0  0  0  0  0  0  0  0  0  0
   12.2072    0.3982   24.2952 N   0  5  0  0  0  0  0  0  0  0  0  0
   12.8328   -0.1886   23.5327 C   0  0  0  0  0  0  0  0  0  0  0  0
   12.8362   -1.1269   22.3862 S   0  0  0  0  0  0  0  0  0  0  0  0
   11.2367   -1.1843   22.6206 C   0  0  2  0  0  0  0  0  0  0  0  0
    9.9561   -0.5483   22.2429 C   0  0  0  0  0  0  0  0  0  0  0  0
    9.1318    0.2150   21.2936 C   0  0  0  0  0  0  0  0  0  0  0  0
    9.6023    1.0992   20.7262 O   0  0  0  0  0  0  0  0  0  0  0  0
    7.9504   -0.2950   21.2314 N   0  0  0  0  0  0  0  0  0  0  0  0
    7.1890    0.0499   20.1806 C   0  0  0  0  0  0  0  0  0  0  0  0
    7.3920   -0.0692   18.9272 N   0  0  0  0  0  0  0  0  0  0  0  0
    6.7844    0.1786   17.8891 N   0  0  0  0  0  0  0  0  0  0  0  0
    5.7848    0.6944   18.3078 C   0  0  0  0  0  0  0  0  0  0  0  0
    5.3955    0.8297   19.4327 C   0  0  0  0  0  0  0  0  0  0  0  0
    5.8505    0.5521   20.5294 C   0  0  0  0  0  0  0  0  0  0  0  0
    5.4127    0.6238   21.4978 H   0  0  0  0  0  0  0  0  0  0  0  0
 20 21  2  0  0  0  0
 19 20  1  0  0  0  0
 21 22  1  0  0  0  0
 18 19  2  0  0  0  0
 22 23  2  0  0  0  0
 18 23  1  0  0  0  0
 17 18  1  0  0  0  0
 23 24  1  0  0  0  0
 15 16  2  0  0  0  0
 15 17  1  0  0  0  0
 14 15  1  0  0  0  0
 13 14  1  0  0  0  0
  8 14  2  0  0  0  0
 12 13  1  0  0  0  0
 11 12  1  0  0  0  0
  8 13  1  0  0  0  0
  7  8  1  0  0  0  0
 10 11  1  0  0  0  0
  6  7  3  0  0  0  0
  5  6  1  0  0  0  0
  9 10  1  0  0  0  0
  2  5  1  0  0  0  0
  2  3  2  0  0  0  0
  1  2  1  0  0  0  0
  2  4  2  0  0  0  0
M  CHG  1  10  -1
M  END
> <Shapegauss>
-274.635132

$$$$
