MODEL 1
REMARK VINA RESULT:    -4.175      0.000      0.000
REMARK INTER + INTRA:          -7.227
REMARK INTER:                  -6.249
REMARK INTRA:                  -0.978
REMARK UNBOUND:                -0.978
REMARK  10 active torsions:
REMARK  status: ('A' for Active; 'I' for Inactive)
REMARK    1  A    between atoms: C_3  and  C_8 
REMARK    2  A    between atoms: C_3  and  O_14 
REMARK    3  A    between atoms: S_4  and  C_7 
REMARK    4  A    between atoms: S_4  and  O_15 
REMARK    5  A    between atoms: O_6  and  C_13 
REMARK    6  A    between atoms: C_7  and  C_10 
REMARK    7  A    between atoms: C_8  and  C_13 
REMARK    8  A    between atoms: C_10  and  C_13 
REMARK    9  A    between atoms: C_10  and  O_12 
REMARK   10  A    between atoms: C_11  and  O_15 
ROOT
HETATM    1  C   UNL     1       1.631 -18.115   9.154  1.00  0.00     0.230 C 
ENDROOT
BRANCH   1   2
HETATM    2  C   UNL     1       1.007 -19.239   8.360  1.00  0.00     0.243 C 
HETATM    3  O   UNL     1       0.501 -19.071   7.283  1.00  0.00    -0.280 OA
BRANCH   2   4
HETATM    4  S   UNL     1       1.048 -20.797   9.008  1.00  0.00     0.073 SA
BRANCH   4   5
HETATM    5  O   UNL     1       2.693 -21.131   8.983  1.00  0.00    -0.282 OA
BRANCH   5   6
HETATM    6  C   UNL     1       3.472 -21.040   7.871  1.00  0.00     0.408 C 
HETATM    7  F   UNL     1       3.844 -22.285   7.465  1.00  0.00    -0.226 F 
ENDBRANCH   5   6
ENDBRANCH   4   5
ENDBRANCH   2   4
ENDBRANCH   1   2
BRANCH   1   8
HETATM    8  C   UNL     1       0.550 -16.947   9.195  1.00  0.00     0.157 C 
BRANCH   8   9
HETATM    9  O   UNL     1       1.075 -15.712   9.569  1.00  0.00    -0.392 OA
HETATM   10  H   UNL     1       2.008 -15.765   9.801  1.00  0.00     0.210 HD
ENDBRANCH   8   9
BRANCH   8  11
HETATM   11  C   UNL     1      -0.631 -17.314  10.108  1.00  0.00     0.061 C 
BRANCH  11  12
HETATM   12  C   UNL     1      -0.614 -16.573  11.464  1.00  0.00     0.166 C 
BRANCH  12  13
HETATM   13  O   UNL     1       0.518 -16.804  12.231  1.00  0.00    -0.401 OA
HETATM   14  H   UNL     1       1.355 -16.612  11.898  1.00  0.00     0.209 HD
ENDBRANCH  12  13
ENDBRANCH  11  12
ENDBRANCH   8  11
ENDBRANCH   1   8
BRANCH   1  15
HETATM   15  O   UNL     1       2.067 -18.562  10.426  1.00  0.00    -0.384 OA
HETATM   16  H   UNL     1       1.940 -19.510  10.507  1.00  0.00     0.210 HD
ENDBRANCH   1  15
TORSDOF 10
ENDMDL
MODEL 2
REMARK VINA RESULT:    -4.029     22.963     24.610
REMARK INTER + INTRA:          -7.009
REMARK INTER:                  -6.109
REMARK INTRA:                  -0.900
REMARK UNBOUND:                -0.978
REMARK  10 active torsions:
REMARK  status: ('A' for Active; 'I' for Inactive)
REMARK    1  A    between atoms: C_3  and  C_8 
REMARK    2  A    between atoms: C_3  and  O_14 
REMARK    3  A    between atoms: S_4  and  C_7 
REMARK    4  A    between atoms: S_4  and  O_15 
REMARK    5  A    between atoms: O_6  and  C_13 
REMARK    6  A    between atoms: C_7  and  C_10 
REMARK    7  A    between atoms: C_8  and  C_13 
REMARK    8  A    between atoms: C_10  and  C_13 
REMARK    9  A    between atoms: C_10  and  O_12 
REMARK   10  A    between atoms: C_11  and  O_15 
ROOT
HETATM    1  C   UNL     1       9.881   1.059  22.426  1.00  0.00     0.230 C 
ENDROOT
BRANCH   1   2
HETATM    2  C   UNL     1       8.403   0.751  22.448  1.00  0.00     0.243 C 
HETATM    3  O   UNL     1       7.893   0.070  23.297  1.00  0.00    -0.280 OA
BRANCH   2   4
HETATM    4  S   UNL     1       7.429   1.413  21.238  1.00  0.00     0.073 SA
BRANCH   4   5
HETATM    5  O   UNL     1       8.070   0.699  19.860  1.00  0.00    -0.282 OA
BRANCH   5   6
HETATM    6  C   UNL     1       7.326   0.276  18.803  1.00  0.00     0.408 C 
HETATM    7  F   UNL     1       6.390   1.213  18.492  1.00  0.00    -0.226 F 
ENDBRANCH   5   6
ENDBRANCH   4   5
ENDBRANCH   2   4
ENDBRANCH   1   2
BRANCH   1   8
HETATM    8  C   UNL     1      10.618  -0.318  22.119  1.00  0.00     0.157 C 
BRANCH   8   9
HETATM    9  O   UNL     1       9.820  -1.242  21.448  1.00  0.00    -0.392 OA
HETATM   10  H   UNL     1       8.887  -1.008  21.474  1.00  0.00     0.210 HD
ENDBRANCH   8   9
BRANCH   8  11
HETATM   11  C   UNL     1      11.182  -0.945  23.404  1.00  0.00     0.061 C 
BRANCH  11  12
HETATM   12  C   UNL     1      12.033   0.035  24.244  1.00  0.00     0.166 C 
BRANCH  12  13
HETATM   13  O   UNL     1      13.360  -0.338  24.394  1.00  0.00    -0.401 OA
HETATM   14  H   UNL     1      13.824  -0.116  25.157  1.00  0.00     0.209 HD
ENDBRANCH  12  13
ENDBRANCH  11  12
ENDBRANCH   8  11
ENDBRANCH   1   8
BRANCH   1  15
HETATM   15  O   UNL     1      10.178   2.104  21.516  1.00  0.00    -0.384 OA
HETATM   16  H   UNL     1      10.794   1.798  20.847  1.00  0.00     0.210 HD
ENDBRANCH   1  15
TORSDOF 10
ENDMDL
MODEL 3
REMARK VINA RESULT:    -4.005     23.147     24.707
REMARK INTER + INTRA:          -6.974
REMARK INTER:                  -6.457
REMARK INTRA:                  -0.517
REMARK UNBOUND:                -0.978
REMARK  10 active torsions:
REMARK  status: ('A' for Active; 'I' for Inactive)
REMARK    1  A    between atoms: C_3  and  C_8 
REMARK    2  A    between atoms: C_3  and  O_14 
REMARK    3  A    between atoms: S_4  and  C_7 
REMARK    4  A    between atoms: S_4  and  O_15 
REMARK    5  A    between atoms: O_6  and  C_13 
REMARK    6  A    between atoms: C_7  and  C_10 
REMARK    7  A    between atoms: C_8  and  C_13 
REMARK    8  A    between atoms: C_10  and  C_13 
REMARK    9  A    between atoms: C_10  and  O_12 
REMARK   10  A    between atoms: C_11  and  O_15 
ROOT
HETATM    1  C   UNL     1      10.435   0.925  21.838  1.00  0.00     0.230 C 
ENDROOT
BRANCH   1   2
HETATM    2  C   UNL     1      10.928   0.791  23.259  1.00  0.00     0.243 C 
HETATM    3  O   UNL     1      11.280   1.733  23.917  1.00  0.00    -0.280 OA
BRANCH   2   4
HETATM    4  S   UNL     1      10.961  -0.747  23.954  1.00  0.00     0.073 SA
BRANCH   4   5
HETATM    5  O   UNL     1      11.984  -1.569  22.906  1.00  0.00    -0.282 OA
BRANCH   5   6
HETATM    6  C   UNL     1      13.307  -1.780  23.141  1.00  0.00     0.408 C 
HETATM    7  F   UNL     1      13.848  -0.690  23.750  1.00  0.00    -0.226 F 
ENDBRANCH   5   6
ENDBRANCH   4   5
ENDBRANCH   2   4
ENDBRANCH   1   2
BRANCH   1   8
HETATM    8  C   UNL     1       9.116   0.040  21.739  1.00  0.00     0.157 C 
BRANCH   8   9
HETATM    9  O   UNL     1       9.319  -1.204  21.149  1.00  0.00    -0.392 OA
HETATM   10  H   UNL     1       9.075  -1.931  21.731  1.00  0.00     0.210 HD
ENDBRANCH   8   9
BRANCH   8  11
HETATM   11  C   UNL     1       7.995   0.794  21.003  1.00  0.00     0.061 C 
BRANCH  11  12
HETATM   12  C   UNL     1       7.421   0.017  19.797  1.00  0.00     0.166 C 
BRANCH  12  13
HETATM   13  O   UNL     1       8.267  -0.052  18.701  1.00  0.00    -0.401 OA
HETATM   14  H   UNL     1       8.501   0.712  18.243  1.00  0.00     0.209 HD
ENDBRANCH  12  13
ENDBRANCH  11  12
ENDBRANCH   8  11
ENDBRANCH   1   8
BRANCH   1  15
HETATM   15  O   UNL     1      10.264   2.284  21.477  1.00  0.00    -0.384 OA
HETATM   16  H   UNL     1      10.921   2.541  20.825  1.00  0.00     0.210 HD
ENDBRANCH   1  15
TORSDOF 10
ENDMDL
MODEL 4
REMARK VINA RESULT:    -3.865     22.529     23.911
REMARK INTER + INTRA:          -6.764
REMARK INTER:                  -5.893
REMARK INTRA:                  -0.871
REMARK UNBOUND:                -0.978
REMARK  10 active torsions:
REMARK  status: ('A' for Active; 'I' for Inactive)
REMARK    1  A    between atoms: C_3  and  C_8 
REMARK    2  A    between atoms: C_3  and  O_14 
REMARK    3  A    between atoms: S_4  and  C_7 
REMARK    4  A    between atoms: S_4  and  O_15 
REMARK    5  A    between atoms: O_6  and  C_13 
REMARK    6  A    between atoms: C_7  and  C_10 
REMARK    7  A    between atoms: C_8  and  C_13 
REMARK    8  A    between atoms: C_10  and  C_13 
REMARK    9  A    between atoms: C_10  and  O_12 
REMARK   10  A    between atoms: C_11  and  O_15 
ROOT
HETATM    1  C   UNL     1       8.171   0.376  21.140  1.00  0.00     0.230 C 
ENDROOT
BRANCH   1   2
HETATM    2  C   UNL     1       8.846   1.572  21.770  1.00  0.00     0.243 C 
HETATM    3  O   UNL     1       8.273   2.609  21.974  1.00  0.00    -0.280 OA
BRANCH   2   4
HETATM    4  S   UNL     1      10.465   1.431  22.224  1.00  0.00     0.073 SA
BRANCH   4   5
HETATM    5  O   UNL     1      10.622  -0.232  22.403  1.00  0.00    -0.282 OA
BRANCH   5   6
HETATM    6  C   UNL     1      11.460  -0.827  23.293  1.00  0.00     0.408 C 
HETATM    7  F   UNL     1      11.958  -1.977  22.762  1.00  0.00    -0.226 F 
ENDBRANCH   5   6
ENDBRANCH   4   5
ENDBRANCH   2   4
ENDBRANCH   1   2
BRANCH   1   8
HETATM    8  C   UNL     1       6.701   0.849  20.752  1.00  0.00     0.157 C 
BRANCH   8   9
HETATM    9  O   UNL     1       5.861   1.022  21.850  1.00  0.00    -0.392 OA
HETATM   10  H   UNL     1       5.056   1.501  21.624  1.00  0.00     0.210 HD
ENDBRANCH   8   9
BRANCH   8  11
HETATM   11  C   UNL     1       6.055  -0.116  19.743  1.00  0.00     0.061 C 
BRANCH  11  12
HETATM   12  C   UNL     1       5.965   0.462  18.312  1.00  0.00     0.166 C 
BRANCH  12  13
HETATM   13  O   UNL     1       7.170   0.917  17.799  1.00  0.00    -0.401 OA
HETATM   14  H   UNL     1       7.308   0.951  16.890  1.00  0.00     0.209 HD
ENDBRANCH  12  13
ENDBRANCH  11  12
ENDBRANCH   8  11
ENDBRANCH   1   8
BRANCH   1  15
HETATM   15  O   UNL     1       8.931  -0.136  20.060  1.00  0.00    -0.384 OA
HETATM   16  H   UNL     1       9.628   0.479  19.822  1.00  0.00     0.210 HD
ENDBRANCH   1  15
TORSDOF 10
ENDMDL
MODEL 5
REMARK VINA RESULT:    -3.862     22.792     23.496
REMARK INTER + INTRA:          -6.760
REMARK INTER:                  -5.846
REMARK INTRA:                  -0.914
REMARK UNBOUND:                -0.978
REMARK  10 active torsions:
REMARK  status: ('A' for Active; 'I' for Inactive)
REMARK    1  A    between atoms: C_3  and  C_8 
REMARK    2  A    between atoms: C_3  and  O_14 
REMARK    3  A    between atoms: S_4  and  C_7 
REMARK    4  A    between atoms: S_4  and  O_15 
REMARK    5  A    between atoms: O_6  and  C_13 
REMARK    6  A    between atoms: C_7  and  C_10 
REMARK    7  A    between atoms: C_8  and  C_13 
REMARK    8  A    between atoms: C_10  and  C_13 
REMARK    9  A    between atoms: C_10  and  O_12 
REMARK   10  A    between atoms: C_11  and  O_15 
ROOT
HETATM    1  C   UNL     1       6.779   0.323  21.190  1.00  0.00     0.230 C 
ENDROOT
BRANCH   1   2
HETATM    2  C   UNL     1       7.972   1.033  21.785  1.00  0.00     0.243 C 
HETATM    3  O   UNL     1       8.372   2.089  21.373  1.00  0.00    -0.280 OA
BRANCH   2   4
HETATM    4  S   UNL     1       8.758   0.318  23.097  1.00  0.00     0.073 SA
BRANCH   4   5
HETATM    5  O   UNL     1       9.355  -1.091  22.406  1.00  0.00    -0.282 OA
BRANCH   5   6
HETATM    6  C   UNL     1      10.524  -1.683  22.770  1.00  0.00     0.408 C 
HETATM    7  F   UNL     1      10.852  -1.316  24.039  1.00  0.00    -0.226 F 
ENDBRANCH   5   6
ENDBRANCH   4   5
ENDBRANCH   2   4
ENDBRANCH   1   2
BRANCH   1   8
HETATM    8  C   UNL     1       7.214  -0.128  19.726  1.00  0.00     0.157 C 
BRANCH   8   9
HETATM    9  O   UNL     1       8.591  -0.101  19.519  1.00  0.00    -0.392 OA
HETATM   10  H   UNL     1       9.069   0.266  20.270  1.00  0.00     0.210 HD
ENDBRANCH   8   9
BRANCH   8  11
HETATM   11  C   UNL     1       6.504   0.713  18.652  1.00  0.00     0.061 C 
BRANCH  11  12
HETATM   12  C   UNL     1       5.016   0.984  18.968  1.00  0.00     0.166 C 
BRANCH  12  13
HETATM   13  O   UNL     1       4.615   2.296  18.764  1.00  0.00    -0.401 OA
HETATM   14  H   UNL     1       4.266   2.791  19.457  1.00  0.00     0.209 HD
ENDBRANCH  12  13
ENDBRANCH  11  12
ENDBRANCH   8  11
ENDBRANCH   1   8
BRANCH   1  15
HETATM   15  O   UNL     1       6.336  -0.731  22.026  1.00  0.00    -0.384 OA
HETATM   16  H   UNL     1       5.387  -0.849  21.939  1.00  0.00     0.210 HD
ENDBRANCH   1  15
TORSDOF 10
ENDMDL
MODEL 6
REMARK VINA RESULT:    -3.841     32.611     34.116
REMARK INTER + INTRA:          -6.727
REMARK INTER:                  -6.003
REMARK INTRA:                  -0.725
REMARK UNBOUND:                -0.978
REMARK  10 active torsions:
REMARK  status: ('A' for Active; 'I' for Inactive)
REMARK    1  A    between atoms: C_3  and  C_8 
REMARK    2  A    between atoms: C_3  and  O_14 
REMARK    3  A    between atoms: S_4  and  C_7 
REMARK    4  A    between atoms: S_4  and  O_15 
REMARK    5  A    between atoms: O_6  and  C_13 
REMARK    6  A    between atoms: C_7  and  C_10 
REMARK    7  A    between atoms: C_8  and  C_13 
REMARK    8  A    between atoms: C_10  and  C_13 
REMARK    9  A    between atoms: C_10  and  O_12 
REMARK   10  A    between atoms: C_11  and  O_15 
ROOT
HETATM    1  C   UNL     1       7.731  14.234   1.573  1.00  0.00     0.230 C 
ENDROOT
BRANCH   1   2
HETATM    2  C   UNL     1       7.548  13.564   2.914  1.00  0.00     0.243 C 
HETATM    3  O   UNL     1       7.482  14.180   3.944  1.00  0.00    -0.280 OA
BRANCH   2   4
HETATM    4  S   UNL     1       7.406  11.883   2.957  1.00  0.00     0.073 SA
BRANCH   4   5
HETATM    5  O   UNL     1       5.918  11.650   2.215  1.00  0.00    -0.282 OA
BRANCH   5   6
HETATM    6  C   UNL     1       5.338  10.433   2.034  1.00  0.00     0.408 C 
HETATM    7  F   UNL     1       6.008   9.740   1.073  1.00  0.00    -0.226 F 
ENDBRANCH   5   6
ENDBRANCH   4   5
ENDBRANCH   2   4
ENDBRANCH   1   2
BRANCH   1   8
HETATM    8  C   UNL     1       9.141  14.972   1.633  1.00  0.00     0.157 C 
BRANCH   8   9
HETATM    9  O   UNL     1      10.042  14.385   2.519  1.00  0.00    -0.392 OA
HETATM   10  H   UNL     1       9.740  14.430   3.432  1.00  0.00     0.210 HD
ENDBRANCH   8   9
BRANCH   8  11
HETATM   11  C   UNL     1       8.973  16.464   1.964  1.00  0.00     0.061 C 
BRANCH  11  12
HETATM   12  C   UNL     1       7.616  17.046   1.509  1.00  0.00     0.166 C 
BRANCH  12  13
HETATM   13  O   UNL     1       7.605  17.531   0.210  1.00  0.00    -0.401 OA
HETATM   14  H   UNL     1       7.051  18.228  -0.023  1.00  0.00     0.209 HD
ENDBRANCH  12  13
ENDBRANCH  11  12
ENDBRANCH   8  11
ENDBRANCH   1   8
BRANCH   1  15
HETATM   15  O   UNL     1       7.594  13.308   0.510  1.00  0.00    -0.384 OA
HETATM   16  H   UNL     1       7.392  12.434   0.853  1.00  0.00     0.210 HD
ENDBRANCH   1  15
TORSDOF 10
ENDMDL
MODEL 7
REMARK VINA RESULT:    -3.750     29.784     31.264
REMARK INTER + INTRA:          -6.591
REMARK INTER:                  -5.889
REMARK INTRA:                  -0.703
REMARK UNBOUND:                -0.978
REMARK  10 active torsions:
REMARK  status: ('A' for Active; 'I' for Inactive)
REMARK    1  A    between atoms: C_3  and  C_8 
REMARK    2  A    between atoms: C_3  and  O_14 
REMARK    3  A    between atoms: S_4  and  C_7 
REMARK    4  A    between atoms: S_4  and  O_15 
REMARK    5  A    between atoms: O_6  and  C_13 
REMARK    6  A    between atoms: C_7  and  C_10 
REMARK    7  A    between atoms: C_8  and  C_13 
REMARK    8  A    between atoms: C_10  and  C_13 
REMARK    9  A    between atoms: C_10  and  O_12 
REMARK   10  A    between atoms: C_11  and  O_15 
ROOT
HETATM    1  C   UNL     1       7.288  11.200   2.519  1.00  0.00     0.230 C 
ENDROOT
BRANCH   1   2
HETATM    2  C   UNL     1       6.037  10.721   3.217  1.00  0.00     0.243 C 
HETATM    3  O   UNL     1       5.938  10.673   4.414  1.00  0.00    -0.280 OA
BRANCH   2   4
HETATM    4  S   UNL     1       4.719  10.256   2.271  1.00  0.00     0.073 SA
BRANCH   4   5
HETATM    5  O   UNL     1       4.888   8.585   2.254  1.00  0.00    -0.282 OA
BRANCH   5   6
HETATM    6  C   UNL     1       4.221   7.743   3.088  1.00  0.00     0.408 C 
HETATM    7  F   UNL     1       4.965   7.512   4.204  1.00  0.00    -0.226 F 
ENDBRANCH   5   6
ENDBRANCH   4   5
ENDBRANCH   2   4
ENDBRANCH   1   2
BRANCH   1   8
HETATM    8  C   UNL     1       6.959  12.656   1.966  1.00  0.00     0.157 C 
BRANCH   8   9
HETATM    9  O   UNL     1       7.560  12.938   0.742  1.00  0.00    -0.392 OA
HETATM   10  H   UNL     1       7.117  13.652   0.272  1.00  0.00     0.210 HD
ENDBRANCH   8   9
BRANCH   8  11
HETATM   11  C   UNL     1       7.328  13.737   2.995  1.00  0.00     0.061 C 
BRANCH  11  12
HETATM   12  C   UNL     1       8.651  14.469   2.670  1.00  0.00     0.166 C 
BRANCH  12  13
HETATM   13  O   UNL     1       9.791  13.697   2.837  1.00  0.00    -0.401 OA
HETATM   14  H   UNL     1      10.257  13.719   3.630  1.00  0.00     0.209 HD
ENDBRANCH  12  13
ENDBRANCH  11  12
ENDBRANCH   8  11
ENDBRANCH   1   8
BRANCH   1  15
HETATM   15  O   UNL     1       8.415  11.133   3.376  1.00  0.00    -0.384 OA
HETATM   16  H   UNL     1       8.895  10.315   3.231  1.00  0.00     0.210 HD
ENDBRANCH   1  15
TORSDOF 10
ENDMDL
MODEL 8
REMARK VINA RESULT:    -3.746     21.899     23.551
REMARK INTER + INTRA:          -6.585
REMARK INTER:                  -5.971
REMARK INTRA:                  -0.614
REMARK UNBOUND:                -0.978
REMARK  10 active torsions:
REMARK  status: ('A' for Active; 'I' for Inactive)
REMARK    1  A    between atoms: C_3  and  C_8 
REMARK    2  A    between atoms: C_3  and  O_14 
REMARK    3  A    between atoms: S_4  and  C_7 
REMARK    4  A    between atoms: S_4  and  O_15 
REMARK    5  A    between atoms: O_6  and  C_13 
REMARK    6  A    between atoms: C_7  and  C_10 
REMARK    7  A    between atoms: C_8  and  C_13 
REMARK    8  A    between atoms: C_10  and  C_13 
REMARK    9  A    between atoms: C_10  and  O_12 
REMARK   10  A    between atoms: C_11  and  O_15 
ROOT
HETATM    1  C   UNL     1       8.426  -0.695  21.106  1.00  0.00     0.230 C 
ENDROOT
BRANCH   1   2
HETATM    2  C   UNL     1       8.618  -1.039  22.564  1.00  0.00     0.243 C 
HETATM    3  O   UNL     1       7.779  -0.828  23.398  1.00  0.00    -0.280 OA
BRANCH   2   4
HETATM    4  S   UNL     1      10.067  -1.769  23.031  1.00  0.00     0.073 SA
BRANCH   4   5
HETATM    5  O   UNL     1      11.111  -0.455  23.067  1.00  0.00    -0.282 OA
BRANCH   5   6
HETATM    6  C   UNL     1      12.145  -0.326  23.942  1.00  0.00     0.408 C 
HETATM    7  F   UNL     1      12.426   0.992  24.135  1.00  0.00    -0.226 F 
ENDBRANCH   5   6
ENDBRANCH   4   5
ENDBRANCH   2   4
ENDBRANCH   1   2
BRANCH   1   8
HETATM    8  C   UNL     1       6.909  -0.239  20.953  1.00  0.00     0.157 C 
BRANCH   8   9
HETATM    9  O   UNL     1       5.996  -1.284  21.069  1.00  0.00    -0.392 OA
HETATM   10  H   UNL     1       5.083  -0.982  21.016  1.00  0.00     0.210 HD
ENDBRANCH   8   9
BRANCH   8  11
HETATM   11  C   UNL     1       6.685   0.511  19.629  1.00  0.00     0.061 C 
BRANCH  11  12
HETATM   12  C   UNL     1       6.272  -0.414  18.461  1.00  0.00     0.166 C 
BRANCH  12  13
HETATM   13  O   UNL     1       5.138  -0.004  17.776  1.00  0.00    -0.401 OA
HETATM   14  H   UNL     1       5.211   0.537  17.035  1.00  0.00     0.209 HD
ENDBRANCH  12  13
ENDBRANCH  11  12
ENDBRANCH   8  11
ENDBRANCH   1   8
BRANCH   1  15
HETATM   15  O   UNL     1       9.377   0.261  20.671  1.00  0.00    -0.384 OA
HETATM   16  H   UNL     1       8.940   0.982  20.212  1.00  0.00     0.210 HD
ENDBRANCH   1  15
TORSDOF 10
ENDMDL
MODEL 9
REMARK VINA RESULT:    -3.728     20.123     21.706
REMARK INTER + INTRA:          -6.559
REMARK INTER:                  -5.932
REMARK INTRA:                  -0.626
REMARK UNBOUND:                -0.978
REMARK  10 active torsions:
REMARK  status: ('A' for Active; 'I' for Inactive)
REMARK    1  A    between atoms: C_3  and  C_8 
REMARK    2  A    between atoms: C_3  and  O_14 
REMARK    3  A    between atoms: S_4  and  C_7 
REMARK    4  A    between atoms: S_4  and  O_15 
REMARK    5  A    between atoms: O_6  and  C_13 
REMARK    6  A    between atoms: C_7  and  C_10 
REMARK    7  A    between atoms: C_8  and  C_13 
REMARK    8  A    between atoms: C_10  and  C_13 
REMARK    9  A    between atoms: C_10  and  O_12 
REMARK   10  A    between atoms: C_11  and  O_15 
ROOT
HETATM    1  C   UNL     1       7.271  -0.902  21.982  1.00  0.00     0.230 C 
ENDROOT
BRANCH   1   2
HETATM    2  C   UNL     1       8.412  -1.812  22.369  1.00  0.00     0.243 C 
HETATM    3  O   UNL     1       9.555  -1.584  22.076  1.00  0.00    -0.280 OA
BRANCH   2   4
HETATM    4  S   UNL     1       8.062  -3.195  23.272  1.00  0.00     0.073 SA
BRANCH   4   5
HETATM    5  O   UNL     1       7.377  -4.194  22.108  1.00  0.00    -0.282 OA
BRANCH   5   6
HETATM    6  C   UNL     1       6.723  -5.353  22.388  1.00  0.00     0.408 C 
HETATM    7  F   UNL     1       7.539  -6.414  22.144  1.00  0.00    -0.226 F 
ENDBRANCH   5   6
ENDBRANCH   4   5
ENDBRANCH   2   4
ENDBRANCH   1   2
BRANCH   1   8
HETATM    8  C   UNL     1       7.656  -0.284  20.566  1.00  0.00     0.157 C 
BRANCH   8   9
HETATM    9  O   UNL     1       8.624   0.715  20.636  1.00  0.00    -0.392 OA
HETATM   10  H   UNL     1       8.313   1.554  20.279  1.00  0.00     0.210 HD
ENDBRANCH   8   9
BRANCH   8  11
HETATM   11  C   UNL     1       6.411   0.241  19.831  1.00  0.00     0.061 C 
BRANCH  11  12
HETATM   12  C   UNL     1       5.961  -0.664  18.661  1.00  0.00     0.166 C 
BRANCH  12  13
HETATM   13  O   UNL     1       5.206  -0.019  17.693  1.00  0.00    -0.401 OA
HETATM   14  H   UNL     1       4.424   0.410  17.920  1.00  0.00     0.209 HD
ENDBRANCH  12  13
ENDBRANCH  11  12
ENDBRANCH   8  11
ENDBRANCH   1   8
BRANCH   1  15
HETATM   15  O   UNL     1       6.031  -1.587  22.010  1.00  0.00    -0.384 OA
HETATM   16  H   UNL     1       6.073  -2.327  22.620  1.00  0.00     0.210 HD
ENDBRANCH   1  15
TORSDOF 10
ENDMDL
