REMARK  10 active torsions:
REMARK  status: ('A' for Active; 'I' for Inactive)
REMARK    1  A    between atoms: C_3  and  C_8 
REMARK    2  A    between atoms: C_3  and  O_14 
REMARK    3  A    between atoms: S_4  and  C_7 
REMARK    4  A    between atoms: S_4  and  O_15 
REMARK    5  A    between atoms: O_6  and  C_13 
REMARK    6  A    between atoms: C_7  and  C_10 
REMARK    7  A    between atoms: C_8  and  C_13 
REMARK    8  A    between atoms: C_10  and  C_13 
REMARK    9  A    between atoms: C_10  and  O_12 
REMARK   10  A    between atoms: C_11  and  O_15 
ROOT
HETATM    1  C   UNL     1       8.313  -1.875  22.447  1.00  0.00     0.230 C 
ENDROOT
BRANCH   1   2
HETATM    2  C   UNL     1       7.708  -0.558  22.022  1.00  0.00     0.243 C 
HETATM    3  O   UNL     1       8.373   0.382  21.677  1.00  0.00    -0.280 OA
BRANCH   2   4
HETATM    4  S   UNL     1       6.026  -0.415  22.012  1.00  0.00     0.073 SA
BRANCH   4   5
HETATM    5  O   UNL     1       5.692  -0.245  23.649  1.00  0.00    -0.282 OA
BRANCH   5   6
HETATM    6  C   UNL     1       4.615  -0.798  24.269  1.00  0.00     0.408 C 
HETATM    7  F   UNL     1       3.504  -0.631  23.501  1.00  0.00    -0.226 F 
ENDBRANCH   5   6
ENDBRANCH   4   5
ENDBRANCH   2   4
ENDBRANCH   1   2
BRANCH   1   8
HETATM    8  C   UNL     1       9.878  -1.620  22.590  1.00  0.00     0.157 C 
BRANCH   8   9
HETATM    9  O   UNL     1      10.194  -0.424  23.230  1.00  0.00    -0.392 OA
HETATM   10  H   UNL     1      10.077   0.341  22.657  1.00  0.00     0.210 HD
ENDBRANCH   8   9
BRANCH   8  11
HETATM   11  C   UNL     1      10.579  -1.686  21.223  1.00  0.00     0.061 C 
BRANCH  11  12
HETATM   12  C   UNL     1      11.918  -0.915  21.181  1.00  0.00     0.166 C 
BRANCH  12  13
HETATM   13  O   UNL     1      12.636  -0.945  22.367  1.00  0.00    -0.401 OA
HETATM   14  H   UNL     1      12.297  -1.375  23.107  1.00  0.00     0.209 HD
ENDBRANCH  12  13
ENDBRANCH  11  12
ENDBRANCH   8  11
ENDBRANCH   1   8
BRANCH   1  15
HETATM   15  O   UNL     1       7.687  -2.378  23.614  1.00  0.00    -0.384 OA
HETATM   16  H   UNL     1       7.538  -1.669  24.244  1.00  0.00     0.210 HD
ENDBRANCH   1  15
TORSDOF 10
