stable:False satoms:18 tatoms:24 sratio:0.75
  -OEChem-07092417273D

 24 26  0     1  0  0  0  0  0999 V2000
    7.2872   -0.6716   24.6766 H   0  0  0  0  0  0  0  0  0  0  0  0
    5.9787    1.3412   23.0915 O   0  0  0  0  0  0  0  0  0  0  0  0
    8.1925    0.4656   22.0938 C   0  0  0  0  0  0  0  0  0  0  0  0
    6.6640   -1.1547   23.9115 C   0  0  0  0  0  0  0  0  0  0  0  0
   11.7939   -1.4098   19.9824 C   0  3  0  0  0  0  0  0  0  0  0  0
    7.2975   -2.4423   23.4206 C   0  0  0  0  0  0  0  0  0  0  0  0
   13.0990   -2.0161   22.3290 Cl  0  0  0  0  0  0  0  0  0  0  0  0
    8.4041    1.5156   22.3101 H   0  0  0  0  0  0  0  0  0  0  0  0
    8.2440    0.2962   21.0113 H   0  0  0  0  0  0  0  0  0  0  0  0
    8.8875   -0.2925   22.9927 N   0  0  1  0  0  0  0  0  0  0  0  0
    5.7684   -0.5696   21.5088 O   0  0  0  0  0  0  0  0  0  0  0  0
    6.6276   -3.2975   23.6643 H   0  0  0  0  0  0  0  0  0  0  0  0
   11.7913   -1.6339   21.2068 C   0  0  0  0  0  0  0  0  0  0  0  0
    8.5832   -2.6358   23.9830 N   0  0  0  0  0  0  0  0  0  0  0  0
   10.1097   -1.2093   19.7502 S   0  0  0  0  0  0  0  0  0  0  0  0
   10.4065   -1.4436   21.3843 C   0  0  0  0  0  0  0  0  0  0  0  0
   12.6190   -1.3649   19.2469 H   0  0  0  0  0  0  0  0  0  0  0  0
   10.3720   -1.2819   24.5799 O   0  0  0  0  0  0  0  0  0  0  0  0
    8.7966   -3.0068   24.8887 H   0  0  0  0  0  0  0  0  0  0  0  0
    6.4593    0.0963   22.5792 S   0  0  0  0  0  0  0  0  0  0  0  0
    7.4060   -2.4509   22.3252 H   0  0  0  0  0  0  0  0  0  0  0  0
    9.4814   -1.3893   23.6571 C   0  0  2  0  0  0  0  0  0  0  0  0
    9.6406   -1.3924   22.3826 N   0  0  1  0  0  0  0  0  0  0  0  0
    5.6740   -1.3421   24.3201 H   0  0  0  0  0  0  0  0  0  0  0  0
  5 17  1  0  0  0  0
  5 15  1  0  0  0  0
 15 16  1  0  0  0  0
  5 13  1  0  0  0  0
  3  9  1  0  0  0  0
 13 16  2  0  0  0  0
  7 13  1  0  0  0  0
 16 23  1  0  0  0  0
 11 20  2  0  0  0  0
  3  8  1  0  0  0  0
  3 20  1  0  0  0  0
  3 10  1  0  0  0  0
  6 21  1  0  0  0  0
 10 23  1  0  0  0  0
 22 23  1  0  0  0  0
  2 20  2  0  0  0  0
  4 20  1  0  0  0  0
 10 22  1  0  0  0  0
  6 12  1  0  0  0  0
  4  6  1  0  0  0  0
  6 14  1  0  0  0  0
 14 22  1  0  0  0  0
 18 22  1  0  0  0  0
  4 24  1  0  0  0  0
  1  4  1  0  0  0  0
 14 19  1  0  0  0  0
M  CHG  1   5   1
M  END
> <Shapegauss>
-106.531570

$$$$
