stable:False satoms:18 tatoms:24 sratio:0.75
  -OEChem-08052413503D

 25 27  0     1  0  0  0  0  0999 V2000
  -12.8001    1.4803  -22.4761 H   0  0  0  0  0  0  0  0  0  0  0  0
  -13.3827   -0.9739  -23.8596 O   0  0  0  0  0  0  0  0  0  0  0  0
  -11.4413    0.3914  -24.8744 C   0  0  0  0  0  0  0  0  0  0  0  0
  -12.1433    0.6830  -22.1017 C   0  0  0  0  0  0  0  0  0  0  0  0
   -7.6503    2.4487  -26.4046 C   0  0  0  0  0  2  0  0  0  0  0  0
  -10.7767    1.2267  -21.7315 C   0  0  0  0  0  0  0  0  0  0  0  0
   -8.5077    4.9716  -25.7138 Cl  0  0  0  0  0  0  0  0  0  0  0  0
  -12.2036    0.4050  -25.6573 H   0  0  0  0  0  0  0  0  0  0  0  0
  -10.5568   -0.1494  -25.2327 H   0  0  0  0  0  0  0  0  0  0  0  0
  -11.3719    1.6464  -24.3396 N   0  0  1  0  0  0  0  0  0  0  0  0
  -11.1074   -1.5500  -23.0279 O   0  0  0  0  0  0  0  0  0  0  0  0
  -10.6029    1.0732  -20.6426 H   0  0  0  0  0  0  0  0  0  0  0  0
   -8.3664    3.2122  -25.7311 C   0  0  0  0  0  0  0  0  0  0  0  0
  -10.6532    2.5964  -22.0713 N   0  0  0  0  0  0  0  0  0  0  0  0
   -8.1321    0.9596  -25.7109 S   0  0  0  0  0  0  0  0  0  0  0  0
   -9.0375    2.1939  -25.0253 C   0  0  0  0  0  0  0  0  0  0  0  0
  -11.3950    3.9699  -23.7895 O   0  0  0  0  0  0  0  0  0  0  0  0
  -10.9850    3.3815  -21.5449 H   0  0  0  0  0  0  0  0  0  0  0  0
  -12.0754   -0.5720  -23.4441 S   0  0  0  0  0  0  0  0  0  0  0  0
   -9.9691    0.6804  -22.2425 H   0  0  0  0  0  0  0  0  0  0  0  0
  -10.9510    2.7765  -23.6028 C   0  0  2  0  0  0  0  0  0  0  0  0
  -10.0057    2.1646  -24.2206 N   0  3  1  0  0  0  0  0  0  0  0  0
  -12.6128    0.2024  -21.2469 H   0  0  0  0  0  0  0  0  0  0  0  0
  -12.1015    4.1445  -23.1790 H   0  0  0  0  0  0  0  0  0  0  0  0
   -9.6539    1.5649  -23.5018 H   0  0  0  0  0  0  0  0  0  0  0  0
  5 15  1  0  0  0  0
 15 16  1  0  0  0  0
  5 13  1  0  0  0  0
  3  9  1  0  0  0  0
 13 16  2  0  0  0  0
  7 13  1  0  0  0  0
 16 22  1  0  0  0  0
 11 19  2  0  0  0  0
  3  8  1  0  0  0  0
  3 19  1  0  0  0  0
  3 10  1  0  0  0  0
  6 20  1  0  0  0  0
 10 22  1  0  0  0  0
 21 22  1  0  0  0  0
  2 19  2  0  0  0  0
  4 19  1  0  0  0  0
 10 21  1  0  0  0  0
  6 12  1  0  0  0  0
  4  6  1  0  0  0  0
  6 14  1  0  0  0  0
 14 21  1  0  0  0  0
 17 21  1  0  0  0  0
  4 23  1  0  0  0  0
  1  4  1  0  0  0  0
 14 18  1  0  0  0  0
 17 24  1  0  0  0  0
 22 25  1  0  0  0  0
M  CHG  1  22   1
M  END
> <Chemgauss4>
-5.341265

$$$$
