stable:False satoms:18 tatoms:24 sratio:0.75
  -OEChem-08052413503D

 25 27  0     1  0  0  0  0  0999 V2000
   12.5297    1.3009   22.4642 H   0  0  0  0  0  0  0  0  0  0  0  0
   13.1123   -1.1533   23.8476 O   0  0  0  0  0  0  0  0  0  0  0  0
   11.1709    0.2121   24.8625 C   0  0  0  0  0  0  0  0  0  0  0  0
   11.8729    0.5037   22.0898 C   0  0  0  0  0  0  0  0  0  0  0  0
    7.3799    2.2693   26.3926 C   0  0  0  0  0  2  0  0  0  0  0  0
   10.5063    1.0473   21.7196 C   0  0  0  0  0  0  0  0  0  0  0  0
    8.2373    4.7922   25.7018 Cl  0  0  0  0  0  0  0  0  0  0  0  0
   11.9331    0.2257   25.6453 H   0  0  0  0  0  0  0  0  0  0  0  0
   10.2864   -0.3287   25.2207 H   0  0  0  0  0  0  0  0  0  0  0  0
   11.1014    1.4670   24.3277 N   0  0  1  0  0  0  0  0  0  0  0  0
   10.8370   -1.7294   23.0160 O   0  0  0  0  0  0  0  0  0  0  0  0
   10.3325    0.8938   20.6306 H   0  0  0  0  0  0  0  0  0  0  0  0
    8.0959    3.0329   25.7191 C   0  0  0  0  0  0  0  0  0  0  0  0
   10.3828    2.4170   22.0594 N   0  0  0  0  0  0  0  0  0  0  0  0
    7.8617    0.7802   25.6989 S   0  0  0  0  0  0  0  0  0  0  0  0
    8.7670    2.0146   25.0134 C   0  0  0  0  0  0  0  0  0  0  0  0
   11.1245    3.7905   23.7776 O   0  0  0  0  0  0  0  0  0  0  0  0
   10.7145    3.2021   21.5330 H   0  0  0  0  0  0  0  0  0  0  0  0
   11.8049   -0.7514   23.4322 S   0  0  0  0  0  0  0  0  0  0  0  0
    9.6986    0.5010   22.2305 H   0  0  0  0  0  0  0  0  0  0  0  0
   10.6805    2.5971   23.5909 C   0  0  2  0  0  0  0  0  0  0  0  0
    9.7352    1.9852   24.2087 N   0  3  1  0  0  0  0  0  0  0  0  0
   12.3424    0.0230   21.2350 H   0  0  0  0  0  0  0  0  0  0  0  0
   11.8311    3.9652   23.1670 H   0  0  0  0  0  0  0  0  0  0  0  0
    9.3835    1.3855   23.4899 H   0  0  0  0  0  0  0  0  0  0  0  0
  5 15  1  0  0  0  0
 15 16  1  0  0  0  0
  5 13  1  0  0  0  0
  3  9  1  0  0  0  0
 13 16  2  0  0  0  0
  7 13  1  0  0  0  0
 16 22  1  0  0  0  0
 11 19  2  0  0  0  0
  3  8  1  0  0  0  0
  3 19  1  0  0  0  0
  3 10  1  0  0  0  0
  6 20  1  0  0  0  0
 10 22  1  0  0  0  0
 21 22  1  0  0  0  0
  2 19  2  0  0  0  0
  4 19  1  0  0  0  0
 10 21  1  0  0  0  0
  6 12  1  0  0  0  0
  4  6  1  0  0  0  0
  6 14  1  0  0  0  0
 14 21  1  0  0  0  0
 17 21  1  0  0  0  0
  4 23  1  0  0  0  0
  1  4  1  0  0  0  0
 14 18  1  0  0  0  0
 17 24  1  0  0  0  0
 22 25  1  0  0  0  0
M  CHG  1  22   1
M  END
> <Chemgauss4>
-5.556625

$$$$
