stable:False satoms:21 tatoms:24 sratio:0.875
  -OEChem-08052415333D

 24 24  0     1  0  0  0  0  0999 V2000
   12.5772    0.3319   24.5746 C   0  0  0  0  0  0  0  0  0  0  0  0
   11.3415    0.6955   24.1592 C   0  0  0  0  0  0  0  0  0  0  0  0
   12.4655   -1.6717   23.2098 C   0  0  0  0  0  0  0  0  0  0  0  0
   10.5516    2.1738   24.8944 Cl  0  0  0  0  0  0  0  0  0  0  0  0
    9.6245    0.4517   22.3798 C   0  0  0  0  0  2  0  0  0  0  0  0
    6.1599    0.2430   22.4219 N   0  0  0  0  0  0  0  0  0  0  0  0
   14.1982   -1.0111   24.2633 H   0  0  0  0  0  0  0  0  0  0  0  0
   10.7307   -0.0346   23.1197 C   0  0  0  0  0  0  0  0  0  0  0  0
    7.3721   -0.4533   22.1131 C   0  0  1  0  0  0  0  0  0  0  0  0
    6.7601   -0.8910   20.0981 H   0  0  0  0  0  0  0  0  0  0  0  0
   12.8971   -2.6106   22.8789 H   0  0  0  0  0  0  0  0  0  0  0  0
    7.6334   -0.5154   20.6062 C   0  0  0  0  0  0  0  0  0  0  0  0
    8.0762    1.0286   23.1955 H   0  0  0  0  0  0  0  0  0  0  0  0
    8.4470    0.1625   22.8604 N   0  3  0  0  0  0  0  0  0  0  0  0
    7.8491    0.4870   20.2353 H   0  0  0  0  0  0  0  0  0  0  0  0
    8.4740   -1.1667   20.3878 H   0  0  0  0  0  0  0  0  0  0  0  0
   11.2016   -1.3192   22.8219 C   0  0  0  0  0  0  0  0  0  0  0  0
    6.2166    1.1799   22.0769 H   0  0  0  0  0  0  0  0  0  0  0  0
   13.1765   -0.8079   24.0278 C   0  0  0  0  0  0  0  0  0  0  0  0
    6.0280    0.2603   23.4130 H   0  0  0  0  0  0  0  0  0  0  0  0
   13.1029    0.9220   25.3062 H   0  0  0  0  0  0  0  0  0  0  0  0
    7.2598   -1.4896   22.4616 H   0  0  0  0  0  0  0  0  0  0  0  0
   10.5606   -1.9984   22.2774 H   0  0  0  0  0  0  0  0  0  0  0  0
    8.6178   -0.4484   23.6335 H   0  0  0  0  0  0  0  0  0  0  0  0
 10 12  1  0  0  0  0
 12 16  1  0  0  0  0
 12 15  1  0  0  0  0
  9 12  1  0  0  0  0
  9 22  1  0  0  0  0
  6  9  1  0  0  0  0
  6 20  1  0  0  0  0
  6 18  1  0  0  0  0
  9 14  1  0  0  0  0
 17 23  1  0  0  0  0
  5 14  1  0  0  0  0
 13 14  1  0  0  0  0
  5  8  1  0  0  0  0
  8 17  2  0  0  0  0
  3 17  1  0  0  0  0
  3 11  1  0  0  0  0
  2  8  1  0  0  0  0
  3 19  2  0  0  0  0
  1  2  2  0  0  0  0
  2  4  1  0  0  0  0
  7 19  1  0  0  0  0
  1 19  1  0  0  0  0
  1 21  1  0  0  0  0
 14 24  1  0  0  0  0
M  CHG  1  14   1
M  END
> <Chemgauss4>
-6.246268

$$$$
