stable:False satoms:21 tatoms:24 sratio:0.875
  -OEChem-08052415323D

 24 24  0     1  0  0  0  0  0999 V2000
  -12.7897    0.6757  -24.1392 C   0  0  0  0  0  0  0  0  0  0  0  0
  -11.5636    0.9816  -23.6548 C   0  0  0  0  0  0  0  0  0  0  0  0
  -12.4466   -1.6609  -23.5804 C   0  0  0  0  0  0  0  0  0  0  0  0
  -10.9326    2.6900  -23.8365 Cl  0  0  0  0  0  0  0  0  0  0  0  0
   -9.7332    0.2857  -22.1252 C   0  0  0  0  0  2  0  0  0  0  0  0
   -6.2710    0.4247  -22.3314 N   0  0  0  0  0  0  0  0  0  0  0  0
  -14.2826   -0.8339  -24.2832 H   0  0  0  0  0  0  0  0  0  0  0  0
  -10.8398   -0.0084  -22.9599 C   0  0  0  0  0  0  0  0  0  0  0  0
   -7.4067   -0.4441  -22.2583 C   0  0  1  0  0  0  0  0  0  0  0  0
   -6.6479   -1.5051  -20.5482 H   0  0  0  0  0  0  0  0  0  0  0  0
  -12.7853   -2.6916  -23.5939 H   0  0  0  0  0  0  0  0  0  0  0  0
   -7.5751   -1.0567  -20.8658 C   0  0  0  0  0  0  0  0  0  0  0  0
   -8.2831    1.2527  -22.7233 H   0  0  0  0  0  0  0  0  0  0  0  0
   -8.5667    0.2938  -22.7086 N   0  3  0  0  0  0  0  0  0  0  0  0
   -7.8451   -0.2735  -20.1568 H   0  0  0  0  0  0  0  0  0  0  0  0
   -8.3495   -1.8176  -20.8711 H   0  0  0  0  0  0  0  0  0  0  0  0
  -11.1931   -1.3531  -23.1263 C   0  0  0  0  0  0  0  0  0  0  0  0
   -6.3793    1.1706  -21.6742 H   0  0  0  0  0  0  0  0  0  0  0  0
  -13.2676   -0.6336  -24.0181 C   0  0  0  0  0  0  0  0  0  0  0  0
   -6.1982    0.8020  -23.2546 H   0  0  0  0  0  0  0  0  0  0  0  0
  -13.4003    1.4346  -24.5986 H   0  0  0  0  0  0  0  0  0  0  0  0
   -7.2356   -1.2762  -22.9557 H   0  0  0  0  0  0  0  0  0  0  0  0
  -10.4718   -2.1185  -22.8766 H   0  0  0  0  0  0  0  0  0  0  0  0
   -8.7345   -0.0185  -23.6436 H   0  0  0  0  0  0  0  0  0  0  0  0
 10 12  1  0  0  0  0
 12 16  1  0  0  0  0
 12 15  1  0  0  0  0
  9 12  1  0  0  0  0
  9 22  1  0  0  0  0
  6  9  1  0  0  0  0
  6 20  1  0  0  0  0
  6 18  1  0  0  0  0
  9 14  1  0  0  0  0
 17 23  1  0  0  0  0
  5 14  1  0  0  0  0
 13 14  1  0  0  0  0
  5  8  1  0  0  0  0
  8 17  2  0  0  0  0
  3 17  1  0  0  0  0
  3 11  1  0  0  0  0
  2  8  1  0  0  0  0
  3 19  2  0  0  0  0
  1  2  2  0  0  0  0
  2  4  1  0  0  0  0
  7 19  1  0  0  0  0
  1 19  1  0  0  0  0
  1 21  1  0  0  0  0
 14 24  1  0  0  0  0
M  CHG  1  14   1
M  END
> <Chemgauss4>
-6.202385

$$$$
