REMARK  9 active torsions:
REMARK  status: ('A' for Active; 'I' for Inactive)
REMARK    1  A    between atoms: S_2  and  N_5 
REMARK    2  A    between atoms: C_7  and  C_8 
REMARK    3  A    between atoms: C_8  and  C_9 
REMARK    4  A    between atoms: C_9  and  C_15 
REMARK    5  A    between atoms: C_9  and  C_10 
REMARK    6  A    between atoms: C_10  and  C_11 
REMARK    7  A    between atoms: C_12  and  C_13 
REMARK    8  A    between atoms: C_15  and  C_16 
REMARK       I    between atoms: C_16  and  N_18 
REMARK    9  A    between atoms: N_18  and  C_20 
ROOT
HETATM    1  C   UNL     1      10.291  -1.057  23.306  1.00  0.00     0.109 C 
ENDROOT
BRANCH   1   2
HETATM    2  C   UNL     1       9.413  -1.982  23.529  1.00  0.00     0.011 C 
BRANCH   2   3
HETATM    3  C   UNL     1       8.979  -2.933  24.147  1.00  0.00     0.097 C 
HETATM    4  N   UNL     1       8.129  -3.596  24.664  1.00  0.00    -0.296 N 
ATOM      5  HN  UNL     1       7.253  -3.706  24.154  1.00  0.00     0.177 HD
BRANCH   4   6
HETATM    6  S   UNL     1       8.242  -4.335  26.101  1.00  0.00     0.226 S 
HETATM    7  C   UNL     1       6.606  -4.902  26.488  1.00  0.00     0.186 C 
HETATM    8  O   UNL     1       9.089  -5.491  26.026  1.00  0.00    -0.206 OA
HETATM    9  O   UNL     1       8.601  -3.419  27.150  1.00  0.00    -0.206 OA
ENDBRANCH   4   6
ENDBRANCH   2   3
ENDBRANCH   1   2
BRANCH   1  10
HETATM   10  C   UNL     1       9.732  -0.580  22.375  1.00  0.00    -0.071 C 
BRANCH  10  11
HETATM   11  C   UNL     1       9.055   0.041  21.378  1.00  0.00     0.289 C 
HETATM   12  O   UNL     1       9.535   1.001  20.980  1.00  0.00    -0.259 OA
HETATM   13  N   UNL     1       7.939  -0.560  21.070  1.00  0.00    -0.315 N 
ATOM     14  HN  UNL     1       7.651  -1.392  21.585  1.00  0.00     0.170 HD
BRANCH  13  15
HETATM   15  C   UNL     1       7.217  -0.119  20.142  1.00  0.00     0.057 A 
HETATM   16  C   UNL     1       7.236  -0.042  18.841  1.00  0.00     0.117 A 
HETATM   17  N   UNL     1       6.716   0.342  17.792  1.00  0.00    -0.373 N 
HETATM   18  C   UNL     1       5.615   0.876  18.215  1.00  0.00     0.088 A 
ATOM     19  HN  UNL     1       7.063   0.260  16.836  1.00  0.00     0.164 HD
HETATM   20  C   UNL     1       5.233   0.980  19.416  1.00  0.00     0.026 A 
HETATM   21  C   UNL     1       5.785   0.589  20.537  1.00  0.00    -0.033 A 
HETATM   22  C   UNL     1       5.360   0.704  21.929  1.00  0.00     0.050 C 
ENDBRANCH  13  15
ENDBRANCH  10  11
ENDBRANCH   1  10
BRANCH   1  23
HETATM   23  C   UNL     1      10.991  -0.011  24.278  1.00  0.00    -0.006 C 
BRANCH  23  24
HETATM   24  C   UNL     1      12.126   0.335  24.249  1.00  0.00    -0.002 C 
HETATM   25  C   UNL     1      13.113  -0.113  23.502  1.00  0.00    -0.001 C 
BRANCH  25  26
HETATM   26  C   UNL     1      12.714  -1.285  22.670  1.00  0.00    -0.010 C 
HETATM   27  C   UNL     1      11.866  -1.732  22.512  1.00  0.00     0.011 C 
ENDBRANCH  25  26
ENDBRANCH  23  24
ENDBRANCH   1  23
TORSDOF 9
