stable:False satoms:8 tatoms:24 sratio:0.3333333333333333
  -OEChem-07092417483D

 24 24  0     1  0  0  0  0  0999 V2000
    6.6059   -4.9021   26.4878 C   0  0  0  0  0  0  0  0  0  0  0  0
    8.2424   -4.3355   26.1008 S   0  0  0  0  0  0  0  0  0  0  0  0
    9.0894   -5.4907   26.0256 O   0  0  0  0  0  0  0  0  0  0  0  0
    8.6013   -3.4194   27.1500 O   0  0  0  0  0  0  0  0  0  0  0  0
    8.1289   -3.5959   24.6643 N   0  0  0  0  0  0  0  0  0  0  0  0
    8.9791   -2.9335   24.1466 C   0  0  0  0  0  0  0  0  0  0  0  0
    9.4126   -1.9819   23.5287 C   0  0  0  0  0  0  0  0  0  0  0  0
   10.2914   -1.0567   23.3064 C   0  0  2  0  0  0  0  0  0  0  0  0
   10.9906   -0.0110   24.2781 C   0  0  0  0  0  0  0  0  0  0  0  0
   12.1262    0.3346   24.2486 C   0  0  0  0  0  0  0  0  0  0  0  0
   13.1133   -0.1127   23.5020 C   0  0  0  0  0  0  0  0  0  0  0  0
   12.7139   -1.2848   22.6696 C   0  0  0  0  0  0  0  0  0  0  0  0
   11.8662   -1.7316   22.5123 C   0  0  0  0  0  0  0  0  0  0  0  0
    9.7323   -0.5798   22.3755 C   0  0  0  0  0  0  0  0  0  0  0  0
    9.0549    0.0410   21.3782 C   0  0  0  0  0  0  0  0  0  0  0  0
    9.5350    1.0011   20.9795 O   0  0  0  0  0  0  0  0  0  0  0  0
    7.9385   -0.5605   21.0700 N   0  0  0  0  0  0  0  0  0  0  0  0
    7.2168   -0.1187   20.1423 C   0  0  0  0  0  0  0  0  0  0  0  0
    7.2357   -0.0417   18.8406 C   0  0  0  0  0  0  0  0  0  0  0  0
    6.7165    0.3418   17.7923 N   0  0  0  0  0  0  0  0  0  0  0  0
    5.6150    0.8757   18.2152 C   0  0  0  0  0  0  0  0  0  0  0  0
    5.2326    0.9796   19.4165 C   0  0  0  0  0  0  0  0  0  0  0  0
    5.7855    0.5889   20.5370 C   0  0  0  0  0  0  0  0  0  0  0  0
    5.3598    0.7038   21.9288 C   0  0  0  0  0  0  0  0  0  0  0  0
 20 21  2  0  0  0  0
 19 20  1  0  0  0  0
 21 22  1  0  0  0  0
 18 19  2  0  0  0  0
 22 23  2  0  0  0  0
 18 23  1  0  0  0  0
 17 18  1  0  0  0  0
 23 24  1  0  0  0  0
 15 16  2  0  0  0  0
 15 17  1  0  0  0  0
 14 15  1  0  0  0  0
  8 14  1  0  0  0  0
 12 13  2  0  0  0  0
 11 12  1  0  0  0  0
  7  8  1  0  0  0  0
  8  9  1  0  0  0  0
 10 11  1  0  0  0  0
  6  7  2  3  0  0  0
  5  6  1  0  0  0  0
  9 10  2  0  0  0  0
  2  5  1  0  0  0  0
  2  3  2  0  0  0  0
  1  2  1  0  0  0  0
  2  4  2  0  0  0  0
M  END
> <Shapegauss>
-286.598816

$$$$
