MODEL 1
REMARK VINA RESULT:    -6.825      0.000      0.000
REMARK INTER + INTRA:         -11.409
REMARK INTER:                 -10.415
REMARK INTRA:                  -0.993
REMARK UNBOUND:                -0.993
REMARK  9 active torsions:
REMARK  status: ('A' for Active; 'I' for Inactive)
REMARK    1  A    between atoms: S_2  and  N_5 
REMARK    2  A    between atoms: C_7  and  C_8 
REMARK    3  A    between atoms: C_8  and  C_9 
REMARK    4  A    between atoms: C_9  and  C_15 
REMARK    5  A    between atoms: C_9  and  C_10 
REMARK    6  A    between atoms: C_10  and  C_11 
REMARK    7  A    between atoms: C_12  and  C_13 
REMARK    8  A    between atoms: C_15  and  C_16 
REMARK       I    between atoms: C_16  and  N_18 
REMARK    9  A    between atoms: N_18  and  C_20 
ROOT
HETATM    1  C   UNL     1       9.502  -1.223  23.558  1.00  0.00     0.109 C 
ENDROOT
BRANCH   1   2
HETATM    2  C   UNL     1       8.729  -2.253  23.688  1.00  0.00     0.011 C 
BRANCH   2   3
HETATM    3  C   UNL     1       8.075  -3.176  23.246  1.00  0.00     0.097 C 
HETATM    4  N   UNL     1       7.735  -3.967  22.417  1.00  0.00    -0.296 N 
ATOM      5  HN  UNL     1       8.473  -4.415  21.874  1.00  0.00     0.177 HD
BRANCH   4   6
HETATM    6  S   UNL     1       6.210  -4.394  22.077  1.00  0.00     0.226 S 
HETATM    7  C   UNL     1       6.312  -5.968  21.267  1.00  0.00     0.186 C 
HETATM    8  O   UNL     1       5.442  -4.579  23.276  1.00  0.00    -0.206 OA
HETATM    9  O   UNL     1       5.600  -3.500  21.130  1.00  0.00    -0.206 OA
ENDBRANCH   4   6
ENDBRANCH   2   3
ENDBRANCH   1   2
BRANCH   1  10
HETATM   10  C   UNL     1       9.036  -0.850  22.533  1.00  0.00    -0.071 C 
BRANCH  10  11
HETATM   11  C   UNL     1       8.508  -0.323  21.401  1.00  0.00     0.289 C 
HETATM   12  O   UNL     1       9.223   0.315  20.774  1.00  0.00    -0.259 OA
HETATM   13  N   UNL     1       7.246  -0.614  21.245  1.00  0.00    -0.315 N 
ATOM     14  HN  UNL     1       6.760  -1.163  21.954  1.00  0.00     0.170 HD
BRANCH  13  15
HETATM   15  C   UNL     1       6.627  -0.221  20.226  1.00  0.00     0.057 A 
HETATM   16  C   UNL     1       6.350  -0.648  19.025  1.00  0.00     0.117 A 
HETATM   17  N   UNL     1       5.840  -0.454  17.921  1.00  0.00    -0.373 N 
HETATM   18  C   UNL     1       5.293   0.710  18.075  1.00  0.00     0.088 A 
ATOM     19  HN  UNL     1       5.846  -1.055  17.097  1.00  0.00     0.164 HD
HETATM   20  C   UNL     1       5.331   1.436  19.110  1.00  0.00     0.026 A 
HETATM   21  C   UNL     1       5.883   1.246  20.282  1.00  0.00    -0.033 A 
HETATM   22  C   UNL     1       5.939   2.073  21.483  1.00  0.00     0.050 C 
ENDBRANCH  13  15
ENDBRANCH  10  11
ENDBRANCH   1  10
BRANCH   1  23
HETATM   23  C   UNL     1       9.901  -0.068  24.575  1.00  0.00    -0.006 C 
BRANCH  23  24
HETATM   24  C   UNL     1      10.554   0.894  24.336  1.00  0.00    -0.002 C 
HETATM   25  C   UNL     1      11.851   0.990  24.134  1.00  0.00    -0.001 C 
BRANCH  25  26
HETATM   26  C   UNL     1      12.560  -0.305  24.349  1.00  0.00    -0.010 C 
HETATM   27  C   UNL     1      13.471  -0.601  24.186  1.00  0.00     0.011 C 
ENDBRANCH  25  26
ENDBRANCH  23  24
ENDBRANCH   1  23
TORSDOF 9
ENDMDL
MODEL 2
REMARK VINA RESULT:    -6.681      2.118      2.504
REMARK INTER + INTRA:         -11.189
REMARK INTER:                 -10.071
REMARK INTRA:                  -1.118
REMARK UNBOUND:                -0.993
REMARK  9 active torsions:
REMARK  status: ('A' for Active; 'I' for Inactive)
REMARK    1  A    between atoms: S_2  and  N_5 
REMARK    2  A    between atoms: C_7  and  C_8 
REMARK    3  A    between atoms: C_8  and  C_9 
REMARK    4  A    between atoms: C_9  and  C_15 
REMARK    5  A    between atoms: C_9  and  C_10 
REMARK    6  A    between atoms: C_10  and  C_11 
REMARK    7  A    between atoms: C_12  and  C_13 
REMARK    8  A    between atoms: C_15  and  C_16 
REMARK       I    between atoms: C_16  and  N_18 
REMARK    9  A    between atoms: N_18  and  C_20 
ROOT
HETATM    1  C   UNL     1      10.050  -1.877  22.587  1.00  0.00     0.109 C 
ENDROOT
BRANCH   1   2
HETATM    2  C   UNL     1       9.172  -2.135  23.503  1.00  0.00     0.011 C 
BRANCH   2   3
HETATM    3  C   UNL     1       8.563  -2.891  24.233  1.00  0.00     0.097 C 
HETATM    4  N   UNL     1       8.108  -3.264  25.274  1.00  0.00    -0.296 N 
ATOM      5  HN  UNL     1       7.664  -2.560  25.864  1.00  0.00     0.177 HD
BRANCH   4   6
HETATM    6  S   UNL     1       8.133  -4.784  25.833  1.00  0.00     0.226 S 
HETATM    7  C   UNL     1       6.463  -5.372  25.722  1.00  0.00     0.186 C 
HETATM    8  O   UNL     1       8.941  -5.630  25.002  1.00  0.00    -0.206 OA
HETATM    9  O   UNL     1       8.479  -4.838  27.228  1.00  0.00    -0.206 OA
ENDBRANCH   4   6
ENDBRANCH   2   3
ENDBRANCH   1   2
BRANCH   1  10
HETATM   10  C   UNL     1       9.336  -1.206  21.919  1.00  0.00    -0.071 C 
BRANCH  10  11
HETATM   11  C   UNL     1       8.608  -0.398  21.109  1.00  0.00     0.289 C 
HETATM   12  O   UNL     1       9.183   0.472  20.636  1.00  0.00    -0.259 OA
HETATM   13  N   UNL     1       7.353  -0.744  21.040  1.00  0.00    -0.315 N 
ATOM     14  HN  UNL     1       7.013  -1.535  21.588  1.00  0.00     0.170 HD
BRANCH  13  15
HETATM   15  C   UNL     1       6.559  -0.108  20.303  1.00  0.00     0.057 A 
HETATM   16  C   UNL     1       5.996  -0.235  19.135  1.00  0.00     0.117 A 
HETATM   17  N   UNL     1       5.275   0.224  18.248  1.00  0.00    -0.373 N 
HETATM   18  C   UNL     1       4.869   1.334  18.776  1.00  0.00     0.088 A 
ATOM     19  HN  UNL     1       5.054  -0.168  17.332  1.00  0.00     0.164 HD
HETATM   20  C   UNL     1       5.188   1.798  19.909  1.00  0.00     0.026 A 
HETATM   21  C   UNL     1       5.964   1.325  20.851  1.00  0.00    -0.033 A 
HETATM   22  C   UNL     1       6.345   1.848  22.159  1.00  0.00     0.050 C 
ENDBRANCH  13  15
ENDBRANCH  10  11
ENDBRANCH   1  10
BRANCH   1  23
HETATM   23  C   UNL     1      11.554  -1.369  22.683  1.00  0.00    -0.006 C 
BRANCH  23  24
HETATM   24  C   UNL     1      12.164  -1.141  23.675  1.00  0.00    -0.002 C 
HETATM   25  C   UNL     1      12.243  -0.021  24.363  1.00  0.00    -0.001 C 
BRANCH  25  26
HETATM   26  C   UNL     1      11.529   1.109  23.701  1.00  0.00    -0.010 C 
HETATM   27  C   UNL     1      11.130   1.930  24.033  1.00  0.00     0.011 C 
ENDBRANCH  25  26
ENDBRANCH  23  24
ENDBRANCH   1  23
TORSDOF 9
ENDMDL
MODEL 3
REMARK VINA RESULT:    -6.412      2.535      4.928
REMARK INTER + INTRA:         -10.779
REMARK INTER:                  -9.676
REMARK INTRA:                  -1.103
REMARK UNBOUND:                -0.993
REMARK  9 active torsions:
REMARK  status: ('A' for Active; 'I' for Inactive)
REMARK    1  A    between atoms: S_2  and  N_5 
REMARK    2  A    between atoms: C_7  and  C_8 
REMARK    3  A    between atoms: C_8  and  C_9 
REMARK    4  A    between atoms: C_9  and  C_15 
REMARK    5  A    between atoms: C_9  and  C_10 
REMARK    6  A    between atoms: C_10  and  C_11 
REMARK    7  A    between atoms: C_12  and  C_13 
REMARK    8  A    between atoms: C_15  and  C_16 
REMARK       I    between atoms: C_16  and  N_18 
REMARK    9  A    between atoms: N_18  and  C_20 
ROOT
HETATM    1  C   UNL     1       7.424  -2.198  24.043  1.00  0.00     0.109 C 
ENDROOT
BRANCH   1   2
HETATM    2  C   UNL     1       8.710  -2.127  24.165  1.00  0.00     0.011 C 
BRANCH   2   3
HETATM    3  C   UNL     1       9.741  -1.533  24.412  1.00  0.00     0.097 C 
HETATM    4  N   UNL     1      10.399  -0.593  24.749  1.00  0.00    -0.296 N 
ATOM      5  HN  UNL     1      10.060  -0.051  25.543  1.00  0.00     0.177 HD
BRANCH   4   6
HETATM    6  S   UNL     1      11.778  -0.102  24.057  1.00  0.00     0.226 S 
HETATM    7  C   UNL     1      12.267  -1.409  22.961  1.00  0.00     0.186 C 
HETATM    8  O   UNL     1      11.570   1.071  23.257  1.00  0.00    -0.206 OA
HETATM    9  O   UNL     1      12.843   0.030  25.014  1.00  0.00    -0.206 OA
ENDBRANCH   4   6
ENDBRANCH   2   3
ENDBRANCH   1   2
BRANCH   1  10
HETATM   10  C   UNL     1       7.379  -1.737  22.951  1.00  0.00    -0.071 C 
BRANCH  10  11
HETATM   11  C   UNL     1       7.361  -1.116  21.746  1.00  0.00     0.289 C 
HETATM   12  O   UNL     1       8.382  -0.787  21.346  1.00  0.00    -0.259 OA
HETATM   13  N   UNL     1       6.156  -0.971  21.266  1.00  0.00    -0.315 N 
ATOM     14  HN  UNL     1       5.352  -1.290  21.807  1.00  0.00     0.170 HD
BRANCH  13  15
HETATM   15  C   UNL     1       5.982  -0.441  20.142  1.00  0.00     0.057 A 
HETATM   16  C   UNL     1       5.866  -0.806  18.896  1.00  0.00     0.117 A 
HETATM   17  N   UNL     1       5.739  -0.505  17.708  1.00  0.00    -0.373 N 
HETATM   18  C   UNL     1       5.627   0.784  17.766  1.00  0.00     0.088 A 
ATOM     19  HN  UNL     1       5.725  -1.114  16.889  1.00  0.00     0.164 HD
HETATM   20  C   UNL     1       5.676   1.505  18.803  1.00  0.00     0.026 A 
HETATM   21  C   UNL     1       5.825   1.195  20.067  1.00  0.00    -0.033 A 
HETATM   22  C   UNL     1       5.886   2.014  21.274  1.00  0.00     0.050 C 
ENDBRANCH  13  15
ENDBRANCH  10  11
ENDBRANCH   1  10
BRANCH   1  23
HETATM   23  C   UNL     1       6.403  -3.388  24.312  1.00  0.00    -0.006 C 
BRANCH  23  24
HETATM   24  C   UNL     1       6.675  -4.494  24.648  1.00  0.00    -0.002 C 
HETATM   25  C   UNL     1       6.969  -5.540  23.906  1.00  0.00    -0.001 C 
BRANCH  25  26
HETATM   26  C   UNL     1       6.824  -5.265  22.447  1.00  0.00    -0.010 C 
HETATM   27  C   UNL     1       6.769  -5.836  21.663  1.00  0.00     0.011 C 
ENDBRANCH  25  26
ENDBRANCH  23  24
ENDBRANCH   1  23
TORSDOF 9
ENDMDL
MODEL 4
REMARK VINA RESULT:    -6.328      2.760      5.776
REMARK INTER + INTRA:         -10.651
REMARK INTER:                  -9.576
REMARK INTRA:                  -1.074
REMARK UNBOUND:                -0.993
REMARK  9 active torsions:
REMARK  status: ('A' for Active; 'I' for Inactive)
REMARK    1  A    between atoms: S_2  and  N_5 
REMARK    2  A    between atoms: C_7  and  C_8 
REMARK    3  A    between atoms: C_8  and  C_9 
REMARK    4  A    between atoms: C_9  and  C_15 
REMARK    5  A    between atoms: C_9  and  C_10 
REMARK    6  A    between atoms: C_10  and  C_11 
REMARK    7  A    between atoms: C_12  and  C_13 
REMARK    8  A    between atoms: C_15  and  C_16 
REMARK       I    between atoms: C_16  and  N_18 
REMARK    9  A    between atoms: N_18  and  C_20 
ROOT
HETATM    1  C   UNL     1       8.103  -0.749  23.482  1.00  0.00     0.109 C 
ENDROOT
BRANCH   1   2
HETATM    2  C   UNL     1       7.809  -0.653  22.225  1.00  0.00     0.011 C 
BRANCH   2   3
HETATM    3  C   UNL     1       7.061  -0.380  21.309  1.00  0.00     0.097 C 
HETATM    4  N   UNL     1       6.257  -0.617  20.456  1.00  0.00    -0.296 N 
ATOM      5  HN  UNL     1       5.503  -1.260  20.695  1.00  0.00     0.177 HD
BRANCH   4   6
HETATM    6  S   UNL     1       6.257  -0.009  18.954  1.00  0.00     0.226 S 
HETATM    7  C   UNL     1       5.051   1.293  18.955  1.00  0.00     0.186 C 
HETATM    8  O   UNL     1       7.524   0.583  18.633  1.00  0.00    -0.206 OA
HETATM    9  O   UNL     1       5.801  -0.969  17.985  1.00  0.00    -0.206 OA
ENDBRANCH   4   6
ENDBRANCH   2   3
ENDBRANCH   1   2
BRANCH   1  10
HETATM   10  C   UNL     1       7.342  -1.627  23.719  1.00  0.00    -0.071 C 
BRANCH  10  11
HETATM   11  C   UNL     1       6.471  -2.597  24.092  1.00  0.00     0.289 C 
HETATM   12  O   UNL     1       5.424  -2.235  24.377  1.00  0.00    -0.259 OA
HETATM   13  N   UNL     1       7.005  -3.787  24.092  1.00  0.00    -0.315 N 
ATOM     14  HN  UNL     1       7.990  -3.903  23.852  1.00  0.00     0.170 HD
BRANCH  13  15
HETATM   15  C   UNL     1       6.312  -4.792  24.386  1.00  0.00     0.057 A 
HETATM   16  C   UNL     1       5.558  -5.670  23.784  1.00  0.00     0.117 A 
HETATM   17  N   UNL     1       4.804  -6.642  23.846  1.00  0.00    -0.373 N 
HETATM   18  C   UNL     1       4.830  -6.926  25.109  1.00  0.00     0.088 A 
ATOM     19  HN  UNL     1       4.291  -7.105  23.095  1.00  0.00     0.164 HD
HETATM   20  C   UNL     1       5.462  -6.308  26.014  1.00  0.00     0.026 A 
HETATM   21  C   UNL     1       6.253  -5.266  25.960  1.00  0.00    -0.033 A 
HETATM   22  C   UNL     1       6.986  -4.540  26.994  1.00  0.00     0.050 C 
ENDBRANCH  13  15
ENDBRANCH  10  11
ENDBRANCH   1  10
BRANCH   1  23
HETATM   23  C   UNL     1       9.501  -0.850  24.234  1.00  0.00    -0.006 C 
BRANCH  23  24
HETATM   24  C   UNL     1       9.928  -0.094  25.043  1.00  0.00    -0.002 C 
HETATM   25  C   UNL     1      11.140   0.408  25.154  1.00  0.00    -0.001 C 
BRANCH  25  26
HETATM   26  C   UNL     1      12.091  -0.168  24.159  1.00  0.00    -0.010 C 
HETATM   27  C   UNL     1      13.044  -0.358  24.181  1.00  0.00     0.011 C 
ENDBRANCH  25  26
ENDBRANCH  23  24
ENDBRANCH   1  23
TORSDOF 9
ENDMDL
MODEL 5
REMARK VINA RESULT:    -6.314      2.463      2.760
REMARK INTER + INTRA:         -10.629
REMARK INTER:                  -9.719
REMARK INTRA:                  -0.910
REMARK UNBOUND:                -0.993
REMARK  9 active torsions:
REMARK  status: ('A' for Active; 'I' for Inactive)
REMARK    1  A    between atoms: S_2  and  N_5 
REMARK    2  A    between atoms: C_7  and  C_8 
REMARK    3  A    between atoms: C_8  and  C_9 
REMARK    4  A    between atoms: C_9  and  C_15 
REMARK    5  A    between atoms: C_9  and  C_10 
REMARK    6  A    between atoms: C_10  and  C_11 
REMARK    7  A    between atoms: C_12  and  C_13 
REMARK    8  A    between atoms: C_15  and  C_16 
REMARK       I    between atoms: C_16  and  N_18 
REMARK    9  A    between atoms: N_18  and  C_20 
ROOT
HETATM    1  C   UNL     1       9.464  -1.406  24.858  1.00  0.00     0.109 C 
ENDROOT
BRANCH   1   2
HETATM    2  C   UNL     1       8.635  -2.200  25.456  1.00  0.00     0.011 C 
BRANCH   2   3
HETATM    3  C   UNL     1       8.361  -3.204  26.081  1.00  0.00     0.097 C 
HETATM    4  N   UNL     1       8.134  -4.370  26.218  1.00  0.00    -0.296 N 
ATOM      5  HN  UNL     1       8.726  -5.021  25.703  1.00  0.00     0.177 HD
BRANCH   4   6
HETATM    6  S   UNL     1       6.971  -5.010  27.148  1.00  0.00     0.226 S 
HETATM    7  C   UNL     1       5.915  -5.920  26.051  1.00  0.00     0.186 C 
HETATM    8  O   UNL     1       7.515  -5.944  28.091  1.00  0.00    -0.206 OA
HETATM    9  O   UNL     1       6.143  -3.997  27.745  1.00  0.00    -0.206 OA
ENDBRANCH   4   6
ENDBRANCH   2   3
ENDBRANCH   1   2
BRANCH   1  10
HETATM   10  C   UNL     1       8.898  -1.400  23.816  1.00  0.00    -0.071 C 
BRANCH  10  11
HETATM   11  C   UNL     1       8.292  -1.294  22.608  1.00  0.00     0.289 C 
HETATM   12  O   UNL     1       7.860  -2.267  22.187  1.00  0.00    -0.259 OA
HETATM   13  N   UNL     1       8.343  -0.087  22.117  1.00  0.00    -0.315 N 
ATOM     14  HN  UNL     1       8.829   0.650  22.629  1.00  0.00     0.170 HD
BRANCH  13  15
HETATM   15  C   UNL     1       7.797   0.174  21.017  1.00  0.00     0.057 A 
HETATM   16  C   UNL     1       7.926  -0.149  19.760  1.00  0.00     0.117 A 
HETATM   17  N   UNL     1       7.574  -0.014  18.587  1.00  0.00    -0.373 N 
HETATM   18  C   UNL     1       6.579   0.807  18.696  1.00  0.00     0.088 A 
ATOM     19  HN  UNL     1       7.965  -0.439  17.747  1.00  0.00     0.164 HD
HETATM   20  C   UNL     1       6.140   1.333  19.759  1.00  0.00     0.026 A 
HETATM   21  C   UNL     1       6.517   1.207  21.007  1.00  0.00    -0.033 A 
HETATM   22  C   UNL     1       6.024   1.809  22.243  1.00  0.00     0.050 C 
ENDBRANCH  13  15
ENDBRANCH  10  11
ENDBRANCH   1  10
BRANCH   1  23
HETATM   23  C   UNL     1      10.086  -0.009  25.293  1.00  0.00    -0.006 C 
BRANCH  23  24
HETATM   24  C   UNL     1      10.528   0.826  24.575  1.00  0.00    -0.002 C 
HETATM   25  C   UNL     1      11.726   0.910  24.035  1.00  0.00    -0.001 C 
BRANCH  25  26
HETATM   26  C   UNL     1      12.643  -0.166  24.510  1.00  0.00    -0.010 C 
HETATM   27  C   UNL     1      13.403  -0.619  24.108  1.00  0.00     0.011 C 
ENDBRANCH  25  26
ENDBRANCH  23  24
ENDBRANCH   1  23
TORSDOF 9
ENDMDL
MODEL 6
REMARK VINA RESULT:    -6.274     14.064     16.288
REMARK INTER + INTRA:         -10.568
REMARK INTER:                  -9.162
REMARK INTRA:                  -1.406
REMARK UNBOUND:                -0.993
REMARK  9 active torsions:
REMARK  status: ('A' for Active; 'I' for Inactive)
REMARK    1  A    between atoms: S_2  and  N_5 
REMARK    2  A    between atoms: C_7  and  C_8 
REMARK    3  A    between atoms: C_8  and  C_9 
REMARK    4  A    between atoms: C_9  and  C_15 
REMARK    5  A    between atoms: C_9  and  C_10 
REMARK    6  A    between atoms: C_10  and  C_11 
REMARK    7  A    between atoms: C_12  and  C_13 
REMARK    8  A    between atoms: C_15  and  C_16 
REMARK       I    between atoms: C_16  and  N_18 
REMARK    9  A    between atoms: N_18  and  C_20 
ROOT
HETATM    1  C   UNL     1      24.659  -2.121  23.559  1.00  0.00     0.109 C 
ENDROOT
BRANCH   1   2
HETATM    2  C   UNL     1      24.838  -3.401  23.474  1.00  0.00     0.011 C 
BRANCH   2   3
HETATM    3  C   UNL     1      24.596  -4.549  23.789  1.00  0.00     0.097 C 
HETATM    4  N   UNL     1      23.903  -5.451  24.155  1.00  0.00    -0.296 N 
ATOM      5  HN  UNL     1      22.971  -5.515  23.748  1.00  0.00     0.177 HD
BRANCH   4   6
HETATM    6  S   UNL     1      24.311  -6.583  25.241  1.00  0.00     0.226 S 
HETATM    7  C   UNL     1      26.084  -6.645  25.239  1.00  0.00     0.186 C 
HETATM    8  O   UNL     1      23.898  -6.208  26.563  1.00  0.00    -0.206 OA
HETATM    9  O   UNL     1      23.869  -7.893  24.844  1.00  0.00    -0.206 OA
ENDBRANCH   4   6
ENDBRANCH   2   3
ENDBRANCH   1   2
BRANCH   1  10
HETATM   10  C   UNL     1      24.199  -1.990  22.473  1.00  0.00    -0.071 C 
BRANCH  10  11
HETATM   11  C   UNL     1      23.578  -1.869  21.275  1.00  0.00     0.289 C 
HETATM   12  O   UNL     1      22.434  -1.921  21.305  1.00  0.00    -0.259 OA
HETATM   13  N   UNL     1      24.412  -1.748  20.279  1.00  0.00    -0.315 N 
ATOM     14  HN  UNL     1      25.417  -1.778  20.452  1.00  0.00     0.170 HD
BRANCH  13  15
HETATM   15  C   UNL     1      23.984  -1.596  19.109  1.00  0.00     0.057 A 
HETATM   16  C   UNL     1      23.438  -0.662  18.382  1.00  0.00     0.117 A 
HETATM   17  N   UNL     1      22.935  -0.304  17.315  1.00  0.00    -0.373 N 
HETATM   18  C   UNL     1      23.069  -1.363  16.583  1.00  0.00     0.088 A 
ATOM     19  HN  UNL     1      22.520   0.596  17.071  1.00  0.00     0.164 HD
HETATM   20  C   UNL     1      23.568  -2.471  16.933  1.00  0.00     0.026 A 
HETATM   21  C   UNL     1      24.091  -2.865  18.067  1.00  0.00    -0.033 A 
HETATM   22  C   UNL     1      24.667  -4.139  18.489  1.00  0.00     0.050 C 
ENDBRANCH  13  15
ENDBRANCH  10  11
ENDBRANCH   1  10
BRANCH   1  23
HETATM   23  C   UNL     1      23.988  -1.223  24.686  1.00  0.00    -0.006 C 
BRANCH  23  24
HETATM   24  C   UNL     1      23.582  -0.114  24.562  1.00  0.00    -0.002 C 
HETATM   25  C   UNL     1      22.343   0.328  24.613  1.00  0.00    -0.001 C 
BRANCH  25  26
HETATM   26  C   UNL     1      21.347  -0.774  24.746  1.00  0.00    -0.010 C 
HETATM   27  C   UNL     1      20.581  -1.047  24.215  1.00  0.00     0.011 C 
ENDBRANCH  25  26
ENDBRANCH  23  24
ENDBRANCH   1  23
TORSDOF 9
ENDMDL
MODEL 7
REMARK VINA RESULT:    -6.223      3.317      7.244
REMARK INTER + INTRA:         -10.490
REMARK INTER:                  -9.293
REMARK INTRA:                  -1.197
REMARK UNBOUND:                -0.993
REMARK  9 active torsions:
REMARK  status: ('A' for Active; 'I' for Inactive)
REMARK    1  A    between atoms: S_2  and  N_5 
REMARK    2  A    between atoms: C_7  and  C_8 
REMARK    3  A    between atoms: C_8  and  C_9 
REMARK    4  A    between atoms: C_9  and  C_15 
REMARK    5  A    between atoms: C_9  and  C_10 
REMARK    6  A    between atoms: C_10  and  C_11 
REMARK    7  A    between atoms: C_12  and  C_13 
REMARK    8  A    between atoms: C_15  and  C_16 
REMARK       I    between atoms: C_16  and  N_18 
REMARK    9  A    between atoms: N_18  and  C_20 
ROOT
HETATM    1  C   UNL     1       8.087   0.060  20.611  1.00  0.00     0.109 C 
ENDROOT
BRANCH   1   2
HETATM    2  C   UNL     1       8.273   1.100  21.360  1.00  0.00     0.011 C 
BRANCH   2   3
HETATM    3  C   UNL     1       8.976   1.905  21.935  1.00  0.00     0.097 C 
HETATM    4  N   UNL     1       9.996   2.483  22.172  1.00  0.00    -0.296 N 
ATOM      5  HN  UNL     1      10.564   2.768  21.374  1.00  0.00     0.177 HD
BRANCH   4   6
HETATM    6  S   UNL     1      10.559   2.853  23.645  1.00  0.00     0.226 S 
HETATM    7  C   UNL     1       9.137   2.936  24.704  1.00  0.00     0.186 C 
HETATM    8  O   UNL     1      11.411   1.816  24.153  1.00  0.00    -0.206 OA
HETATM    9  O   UNL     1      11.153   4.162  23.680  1.00  0.00    -0.206 OA
ENDBRANCH   4   6
ENDBRANCH   2   3
ENDBRANCH   1   2
BRANCH   1  10
HETATM   10  C   UNL     1       8.477  -0.732  21.404  1.00  0.00    -0.071 C 
BRANCH  10  11
HETATM   11  C   UNL     1       8.827  -1.625  22.362  1.00  0.00     0.289 C 
HETATM   12  O   UNL     1       9.940  -1.889  22.406  1.00  0.00    -0.259 OA
HETATM   13  N   UNL     1       7.807  -2.059  23.050  1.00  0.00    -0.315 N 
ATOM     14  HN  UNL     1       6.866  -1.739  22.821  1.00  0.00     0.170 HD
BRANCH  13  15
HETATM   15  C   UNL     1       7.978  -2.869  23.994  1.00  0.00     0.057 A 
HETATM   16  C   UNL     1       8.336  -2.849  25.247  1.00  0.00     0.117 A 
HETATM   17  N   UNL     1       8.596  -3.456  26.287  1.00  0.00    -0.373 N 
HETATM   18  C   UNL     1       8.342  -4.682  25.956  1.00  0.00     0.088 A 
ATOM     19  HN  UNL     1       8.926  -3.088  27.180  1.00  0.00     0.164 HD
HETATM   20  C   UNL     1       7.957  -5.100  24.827  1.00  0.00     0.026 A 
HETATM   21  C   UNL     1       7.693  -4.466  23.713  1.00  0.00    -0.033 A 
HETATM   22  C   UNL     1       7.252  -4.933  22.402  1.00  0.00     0.050 C 
ENDBRANCH  13  15
ENDBRANCH  10  11
ENDBRANCH   1  10
BRANCH   1  23
HETATM   23  C   UNL     1       6.836  -0.410  19.751  1.00  0.00    -0.006 C 
BRANCH  23  24
HETATM   24  C   UNL     1       6.542  -0.037  18.663  1.00  0.00    -0.002 C 
HETATM   25  C   UNL     1       5.572   0.774  18.296  1.00  0.00    -0.001 C 
BRANCH  25  26
HETATM   26  C   UNL     1       4.692   1.165  19.435  1.00  0.00    -0.010 C 
HETATM   27  C   UNL     1       4.434   2.021  19.815  1.00  0.00     0.011 C 
ENDBRANCH  25  26
ENDBRANCH  23  24
ENDBRANCH   1  23
TORSDOF 9
ENDMDL
MODEL 8
REMARK VINA RESULT:    -5.940      3.509      6.032
REMARK INTER + INTRA:         -10.058
REMARK INTER:                  -8.682
REMARK INTRA:                  -1.376
REMARK UNBOUND:                -0.993
REMARK  9 active torsions:
REMARK  status: ('A' for Active; 'I' for Inactive)
REMARK    1  A    between atoms: S_2  and  N_5 
REMARK    2  A    between atoms: C_7  and  C_8 
REMARK    3  A    between atoms: C_8  and  C_9 
REMARK    4  A    between atoms: C_9  and  C_15 
REMARK    5  A    between atoms: C_9  and  C_10 
REMARK    6  A    between atoms: C_10  and  C_11 
REMARK    7  A    between atoms: C_12  and  C_13 
REMARK    8  A    between atoms: C_15  and  C_16 
REMARK       I    between atoms: C_16  and  N_18 
REMARK    9  A    between atoms: N_18  and  C_20 
ROOT
HETATM    1  C   UNL     1      10.076   0.031  21.942  1.00  0.00     0.109 C 
ENDROOT
BRANCH   1   2
HETATM    2  C   UNL     1       9.101   0.428  21.188  1.00  0.00     0.011 C 
BRANCH   2   3
HETATM    3  C   UNL     1       8.032   0.273  20.633  1.00  0.00     0.097 C 
HETATM    4  N   UNL     1       7.180  -0.350  20.073  1.00  0.00    -0.296 N 
ATOM      5  HN  UNL     1       6.964  -1.276  20.443  1.00  0.00     0.177 HD
BRANCH   4   6
HETATM    6  S   UNL     1       6.337   0.141  18.779  1.00  0.00     0.226 S 
HETATM    7  C   UNL     1       4.880   0.927  19.416  1.00  0.00     0.186 C 
HETATM    8  O   UNL     1       7.063   1.127  18.030  1.00  0.00    -0.206 OA
HETATM    9  O   UNL     1       5.875  -0.966  17.987  1.00  0.00    -0.206 OA
ENDBRANCH   4   6
ENDBRANCH   2   3
ENDBRANCH   1   2
BRANCH   1  10
HETATM   10  C   UNL     1      10.018   0.939  22.704  1.00  0.00    -0.071 C 
BRANCH  10  11
HETATM   11  C   UNL     1       9.845   1.964  23.573  1.00  0.00     0.289 C 
HETATM   12  O   UNL     1       9.734   1.665  24.672  1.00  0.00    -0.259 OA
HETATM   13  N   UNL     1       9.801   3.128  22.985  1.00  0.00    -0.315 N 
ATOM     14  HN  UNL     1       9.869   3.187  21.969  1.00  0.00     0.170 HD
BRANCH  13  15
HETATM   15  C   UNL     1       9.677   4.177  23.665  1.00  0.00     0.057 A 
HETATM   16  C   UNL     1       8.733   4.847  24.263  1.00  0.00     0.117 A 
HETATM   17  N   UNL     1       8.376   5.836  24.906  1.00  0.00    -0.373 N 
HETATM   18  C   UNL     1       9.497   6.455  25.096  1.00  0.00     0.088 A 
ATOM     19  HN  UNL     1       7.439   6.100  25.210  1.00  0.00     0.164 HD
HETATM   20  C   UNL     1      10.639   6.106  24.678  1.00  0.00     0.026 A 
HETATM   21  C   UNL     1      11.025   5.066  23.982  1.00  0.00    -0.033 A 
HETATM   22  C   UNL     1      12.335   4.650  23.489  1.00  0.00     0.050 C 
ENDBRANCH  13  15
ENDBRANCH  10  11
ENDBRANCH   1  10
BRANCH   1  23
HETATM   23  C   UNL     1      10.390  -1.381  22.603  1.00  0.00    -0.006 C 
BRANCH  23  24
HETATM   24  C   UNL     1       9.992  -1.780  23.647  1.00  0.00    -0.002 C 
HETATM   25  C   UNL     1       8.966  -2.564  23.902  1.00  0.00    -0.001 C 
BRANCH  25  26
HETATM   26  C   UNL     1       8.172  -2.880  22.680  1.00  0.00    -0.010 C 
HETATM   27  C   UNL     1       7.280  -3.240  22.539  1.00  0.00     0.011 C 
ENDBRANCH  25  26
ENDBRANCH  23  24
ENDBRANCH   1  23
TORSDOF 9
ENDMDL
MODEL 9
REMARK VINA RESULT:    -5.847      3.162      6.044
REMARK INTER + INTRA:          -9.917
REMARK INTER:                  -8.746
REMARK INTRA:                  -1.171
REMARK UNBOUND:                -0.993
REMARK  9 active torsions:
REMARK  status: ('A' for Active; 'I' for Inactive)
REMARK    1  A    between atoms: S_2  and  N_5 
REMARK    2  A    between atoms: C_7  and  C_8 
REMARK    3  A    between atoms: C_8  and  C_9 
REMARK    4  A    between atoms: C_9  and  C_15 
REMARK    5  A    between atoms: C_9  and  C_10 
REMARK    6  A    between atoms: C_10  and  C_11 
REMARK    7  A    between atoms: C_12  and  C_13 
REMARK    8  A    between atoms: C_15  and  C_16 
REMARK       I    between atoms: C_16  and  N_18 
REMARK    9  A    between atoms: N_18  and  C_20 
ROOT
HETATM    1  C   UNL     1       6.131   3.219  22.411  1.00  0.00     0.109 C 
ENDROOT
BRANCH   1   2
HETATM    2  C   UNL     1       5.614   2.713  21.338  1.00  0.00     0.011 C 
BRANCH   2   3
HETATM    3  C   UNL     1       5.489   1.833  20.510  1.00  0.00     0.097 C 
HETATM    4  N   UNL     1       5.478   0.703  20.119  1.00  0.00    -0.296 N 
ATOM      5  HN  UNL     1       5.030   0.010  20.718  1.00  0.00     0.177 HD
BRANCH   4   6
HETATM    6  S   UNL     1       6.110   0.173  18.725  1.00  0.00     0.226 S 
HETATM    7  C   UNL     1       7.845  -0.045  19.028  1.00  0.00     0.186 C 
HETATM    8  O   UNL     1       5.574  -1.109  18.366  1.00  0.00    -0.206 OA
HETATM    9  O   UNL     1       6.012   1.157  17.681  1.00  0.00    -0.206 OA
ENDBRANCH   4   6
ENDBRANCH   2   3
ENDBRANCH   1   2
BRANCH   1  10
HETATM   10  C   UNL     1       7.126   2.574  22.383  1.00  0.00    -0.071 C 
BRANCH  10  11
HETATM   11  C   UNL     1       8.291   1.893  22.263  1.00  0.00     0.289 C 
HETATM   12  O   UNL     1       8.949   2.193  21.376  1.00  0.00    -0.259 OA
HETATM   13  N   UNL     1       8.440   0.975  23.178  1.00  0.00    -0.315 N 
ATOM     14  HN  UNL     1       7.704   0.820  23.867  1.00  0.00     0.170 HD
BRANCH  13  15
HETATM   15  C   UNL     1       9.486   0.281  23.216  1.00  0.00     0.057 A 
HETATM   16  C   UNL     1      10.735   0.413  23.565  1.00  0.00     0.117 A 
HETATM   17  N   UNL     1      11.869  -0.061  23.655  1.00  0.00    -0.373 N 
HETATM   18  C   UNL     1      11.689  -1.274  23.240  1.00  0.00     0.088 A 
ATOM     19  HN  UNL     1      12.728   0.387  23.974  1.00  0.00     0.164 HD
HETATM   20  C   UNL     1      10.607  -1.784  22.827  1.00  0.00     0.026 A 
HETATM   21  C   UNL     1       9.402  -1.284  22.714  1.00  0.00    -0.033 A 
HETATM   22  C   UNL     1       8.147  -1.856  22.238  1.00  0.00     0.050 C 
ENDBRANCH  13  15
ENDBRANCH  10  11
ENDBRANCH   1  10
BRANCH   1  23
HETATM   23  C   UNL     1       6.320   4.727  22.880  1.00  0.00    -0.006 C 
BRANCH  23  24
HETATM   24  C   UNL     1       6.543   5.664  22.186  1.00  0.00    -0.002 C 
HETATM   25  C   UNL     1       7.592   6.459  22.175  1.00  0.00    -0.001 C 
BRANCH  25  26
HETATM   26  C   UNL     1       8.552   6.156  23.275  1.00  0.00    -0.010 C 
HETATM   27  C   UNL     1       9.471   6.418  23.449  1.00  0.00     0.011 C 
ENDBRANCH  25  26
ENDBRANCH  23  24
ENDBRANCH   1  23
TORSDOF 9
ENDMDL
