stable:False satoms:9 tatoms:24 sratio:0.375
  -OEChem-07092417453D

 24 25  0     1  0  0  0  0  0999 V2000
    6.6761   -4.7812   26.4160 C   0  0  0  0  0  0  0  0  0  0  0  0
    8.1666   -4.3394   26.0726 S   0  0  0  0  0  0  0  0  0  0  0  0
    9.0307   -5.5092   26.0533 O   0  0  0  0  0  0  0  0  0  0  0  0
    8.6412   -3.4425   27.0848 O   0  0  0  0  0  0  0  0  0  0  0  0
    8.1479   -3.5956   24.6309 N   0  0  0  0  0  0  0  0  0  0  0  0
    8.9369   -2.8436   24.1360 C   0  0  0  0  0  0  0  0  0  0  0  0
    9.4291   -1.9365   23.5435 C   0  0  0  0  0  0  0  0  0  0  0  0
   10.3778   -1.0980   23.2184 C   0  0  1  0  0  0  0  0  0  0  0  0
   11.0149    0.0090   24.2947 C   0  0  0  0  0  0  0  0  0  0  0  0
   12.1310    0.2664   24.2374 C   0  0  0  0  0  0  0  0  0  0  0  0
   13.0593   -0.1193   23.6301 C   0  0  0  0  0  0  0  0  0  0  0  0
   12.7914   -1.2833   22.6940 C   0  0  0  0  0  0  0  0  0  0  0  0
   11.8215   -1.6853   22.5831 C   0  0  0  0  0  0  0  0  0  0  0  0
    9.7268   -0.5544   22.3311 C   0  0  0  0  0  0  0  0  0  0  0  0
    9.0663    0.0428   21.3568 C   0  0  0  0  0  0  0  0  0  0  0  0
    9.5528    0.9904   20.9379 O   0  0  0  0  0  0  0  0  0  0  0  0
    7.9044   -0.5800   21.0918 N   0  0  0  0  0  0  0  0  0  0  0  0
    7.1610   -0.0871   20.1873 C   0  0  0  0  0  0  0  0  0  0  0  0
    7.1881   -0.0025   18.8827 C   0  0  0  0  0  0  0  0  0  0  0  0
    6.7785    0.2705   17.7706 N   0  0  0  0  0  0  0  0  0  0  0  0
    5.6540    0.8525   18.2376 C   0  0  0  0  0  0  0  0  0  0  0  0
    5.2877    0.9582   19.3587 C   0  0  0  0  0  0  0  0  0  0  0  0
    5.8074    0.5326   20.5376 C   0  0  0  0  0  0  0  0  0  0  0  0
    5.2324    0.6453   22.0096 Cl  0  0  0  0  0  0  0  0  0  0  0  0
 20 21  2  0  0  0  0
 19 20  1  0  0  0  0
 21 22  1  0  0  0  0
 18 19  2  0  0  0  0
 22 23  2  0  0  0  0
 18 23  1  0  0  0  0
 17 18  1  0  0  0  0
 23 24  1  0  0  0  0
 15 16  2  0  0  0  0
 15 17  1  0  0  0  0
 14 15  1  0  0  0  0
  8 14  1  0  0  0  0
 12 13  1  0  0  0  0
  8 13  1  0  0  0  0
 11 12  2  0  0  0  0
  7  8  1  0  0  0  0
  8  9  1  0  0  0  0
  6  7  3  0  0  0  0
 10 11  1  0  0  0  0
  5  6  1  0  0  0  0
  9 10  2  0  0  0  0
  2  5  1  0  0  0  0
  2  3  2  0  0  0  0
  1  2  1  0  0  0  0
  2  4  2  0  0  0  0
M  END
> <Shapegauss>
-288.001617

$$$$
