stable:False satoms:9 tatoms:24 sratio:0.375
  -OEChem-08062413573D

 40 41  0     1  0  0  0  0  0999 V2000
   -6.9130   -5.4216  -26.0847 C   0  0  0  0  0  0  0  0  0  0  0  0
   -8.3873   -4.8578  -25.8767 S   0  0  0  0  0  0  0  0  0  0  0  0
   -9.3328   -5.9625  -25.8448 O   0  0  0  0  0  0  0  0  0  0  0  0
   -8.7278   -4.0019  -26.9748 O   0  0  0  0  0  0  0  0  0  0  0  0
   -8.4108   -4.0205  -24.4873 N   0  0  0  0  0  0  0  0  0  0  0  0
   -9.1747   -3.1850  -24.0982 C   0  0  0  0  0  0  0  0  0  0  0  0
   -9.6385   -2.2085  -23.6008 C   0  0  0  0  0  0  0  0  0  0  0  0
  -10.5438   -1.2876  -23.3976 C   0  0  1  0  0  0  0  0  0  0  0  0
  -11.0266   -0.2160  -24.5843 C   0  0  0  0  0  0  0  0  0  0  0  0
  -12.1226    0.1195  -24.6228 C   0  0  0  0  0  0  0  0  0  0  0  0
  -13.1145   -0.1604  -24.0598 C   0  0  0  0  0  0  0  0  0  0  0  0
  -12.9940   -1.2734  -23.0352 C   0  0  0  0  0  0  0  0  0  0  0  0
  -12.0651   -1.7315  -22.8305 C   0  0  0  0  0  0  0  0  0  0  0  0
   -9.9157   -0.7301  -22.5025 C   0  0  0  0  0  0  0  0  0  0  0  0
   -9.2800   -0.1138  -21.5235 C   0  0  0  0  0  0  0  0  0  0  0  0
   -9.7237    0.8908  -21.2011 O   0  0  0  0  0  0  0  0  0  0  0  0
   -8.1862   -0.7942  -21.1378 N   0  0  0  0  0  0  0  0  0  0  0  0
   -7.4709   -0.2921  -20.2158 C   0  0  0  0  0  0  0  0  0  0  0  0
   -7.5784   -0.1172  -18.9244 C   0  0  0  0  0  0  0  0  0  0  0  0
   -7.2250    0.2026  -17.8056 N   0  0  0  0  0  0  0  0  0  0  0  0
   -6.0329    0.6742  -18.2275 C   0  0  0  0  0  0  0  0  0  0  0  0
   -5.5863    0.6783  -19.3242 C   0  0  0  0  0  0  0  0  0  0  0  0
   -6.0559    0.2094  -20.5077 C   0  0  0  0  0  0  0  0  0  0  0  0
   -5.3778    0.1825  -21.9393 Cl  0  0  0  0  0  0  0  0  0  0  0  0
   -6.8681   -5.9952  -27.0222 H   0  0  0  0  0  0  0  0  0  0  0  0
   -6.2033   -4.5826  -26.1340 H   0  0  0  0  0  0  0  0  0  0  0  0
   -6.6486   -6.0764  -25.2414 H   0  0  0  0  0  0  0  0  0  0  0  0
   -7.5209   -3.5649  -24.4638 H   0  0  0  0  0  0  0  0  0  0  0  0
  -10.3153    0.1564  -25.3067 H   0  0  0  0  0  0  0  0  0  0  0  0
  -12.2833    0.8874  -25.3650 H   0  0  0  0  0  0  0  0  0  0  0  0
  -14.0503    0.3410  -24.2580 H   0  0  0  0  0  0  0  0  0  0  0  0
  -13.8753   -1.6032  -22.5053 H   0  0  0  0  0  0  0  0  0  0  0  0
  -11.9741   -1.6991  -21.7348 H   0  0  0  0  0  0  0  0  0  0  0  0
  -12.1908   -2.7742  -23.1574 H   0  0  0  0  0  0  0  0  0  0  0  0
   -9.2777   -0.2303  -23.2463 H   0  0  0  0  0  0  0  0  0  0  0  0
   -9.4588   -1.6874  -22.2115 H   0  0  0  0  0  0  0  0  0  0  0  0
   -7.9438   -1.6664  -21.5627 H   0  0  0  0  0  0  0  0  0  0  0  0
   -8.5842   -0.4659  -18.7420 H   0  0  0  0  0  0  0  0  0  0  0  0
   -5.4027    1.1049  -17.4635 H   0  0  0  0  0  0  0  0  0  0  0  0
   -4.6159    1.1466  -19.3965 H   0  0  0  0  0  0  0  0  0  0  0  0
 20 21  2  0  0  0  0
 19 20  1  0  0  0  0
 21 22  1  0  0  0  0
 18 19  2  0  0  0  0
 22 23  2  0  0  0  0
 18 23  1  0  0  0  0
 17 18  1  0  0  0  0
 23 24  1  0  0  0  0
 15 16  2  0  0  0  0
 15 17  1  0  0  0  0
 14 15  1  0  0  0  0
  8 14  1  0  0  0  0
 12 13  1  0  0  0  0
  8 13  1  0  0  0  0
 11 12  2  0  0  0  0
  7  8  1  0  0  0  0
  8  9  1  0  0  0  0
  6  7  3  0  0  0  0
 10 11  1  0  0  0  0
  5  6  1  0  0  0  0
  9 10  2  0  0  0  0
  2  5  1  0  0  0  0
  2  3  2  0  0  0  0
  1  2  1  0  0  0  0
  2  4  2  0  0  0  0
  1 25  1  0  0  0  0
  1 26  1  0  0  0  0
  1 27  1  0  0  0  0
  5 28  1  0  0  0  0
  9 29  1  0  0  0  0
 10 30  1  0  0  0  0
 11 31  1  0  0  0  0
 12 32  1  0  0  0  0
 13 33  1  0  0  0  0
 13 34  1  0  0  0  0
 14 35  1  0  0  0  0
 14 36  1  0  0  0  0
 17 37  1  0  0  0  0
 19 38  1  0  0  0  0
 21 39  1  0  0  0  0
 22 40  1  0  0  0  0
M  END
> <Chemgauss4>
-13.078901

$$$$
