stable:False satoms:9 tatoms:24 sratio:0.375
  -OEChem-08062413573D

 40 41  0     1  0  0  0  0  0999 V2000
    6.5717   -5.2477   26.0728 C   0  0  0  0  0  0  0  0  0  0  0  0
    8.0460   -4.6839   25.8647 S   0  0  0  0  0  0  0  0  0  0  0  0
    8.9915   -5.7887   25.8328 O   0  0  0  0  0  0  0  0  0  0  0  0
    8.3865   -3.8280   26.9628 O   0  0  0  0  0  0  0  0  0  0  0  0
    8.0695   -3.8466   24.4753 N   0  0  0  0  0  0  0  0  0  0  0  0
    8.8334   -3.0111   24.0863 C   0  0  0  0  0  0  0  0  0  0  0  0
    9.2972   -2.0346   23.5889 C   0  0  0  0  0  0  0  0  0  0  0  0
   10.2025   -1.1137   23.3857 C   0  0  1  0  0  0  0  0  0  0  0  0
   10.6853   -0.0421   24.5724 C   0  0  0  0  0  0  0  0  0  0  0  0
   11.7813    0.2934   24.6109 C   0  0  0  0  0  0  0  0  0  0  0  0
   12.7733    0.0135   24.0479 C   0  0  0  0  0  0  0  0  0  0  0  0
   12.6527   -1.0995   23.0233 C   0  0  0  0  0  0  0  0  0  0  0  0
   11.7238   -1.5576   22.8186 C   0  0  0  0  0  0  0  0  0  0  0  0
    9.5744   -0.5562   22.4906 C   0  0  0  0  0  0  0  0  0  0  0  0
    8.9388    0.0600   21.5116 C   0  0  0  0  0  0  0  0  0  0  0  0
    9.3825    1.0647   21.1891 O   0  0  0  0  0  0  0  0  0  0  0  0
    7.8449   -0.6203   21.1259 N   0  0  0  0  0  0  0  0  0  0  0  0
    7.1296   -0.1183   20.2039 C   0  0  0  0  0  0  0  0  0  0  0  0
    7.2371    0.0566   18.9125 C   0  0  0  0  0  0  0  0  0  0  0  0
    6.8837    0.3765   17.7936 N   0  0  0  0  0  0  0  0  0  0  0  0
    5.6917    0.8480   18.2155 C   0  0  0  0  0  0  0  0  0  0  0  0
    5.2451    0.8522   19.3122 C   0  0  0  0  0  0  0  0  0  0  0  0
    5.7146    0.3833   20.4957 C   0  0  0  0  0  0  0  0  0  0  0  0
    5.0365    0.3564   21.9274 Cl  0  0  0  0  0  0  0  0  0  0  0  0
    6.5268   -5.8213   27.0103 H   0  0  0  0  0  0  0  0  0  0  0  0
    5.8620   -4.4087   26.1221 H   0  0  0  0  0  0  0  0  0  0  0  0
    6.3073   -5.9025   25.2294 H   0  0  0  0  0  0  0  0  0  0  0  0
    7.1796   -3.3910   24.4519 H   0  0  0  0  0  0  0  0  0  0  0  0
    9.9740    0.3303   25.2947 H   0  0  0  0  0  0  0  0  0  0  0  0
   11.9420    1.0613   25.3531 H   0  0  0  0  0  0  0  0  0  0  0  0
   13.7091    0.5149   24.2461 H   0  0  0  0  0  0  0  0  0  0  0  0
   13.5341   -1.4293   22.4934 H   0  0  0  0  0  0  0  0  0  0  0  0
   11.6328   -1.5252   21.7228 H   0  0  0  0  0  0  0  0  0  0  0  0
   11.8495   -2.6003   23.1455 H   0  0  0  0  0  0  0  0  0  0  0  0
    8.9364   -0.0565   23.2344 H   0  0  0  0  0  0  0  0  0  0  0  0
    9.1175   -1.5135   22.1996 H   0  0  0  0  0  0  0  0  0  0  0  0
    7.6026   -1.4925   21.5507 H   0  0  0  0  0  0  0  0  0  0  0  0
    8.2429   -0.2920   18.7301 H   0  0  0  0  0  0  0  0  0  0  0  0
    5.0614    1.2788   17.4515 H   0  0  0  0  0  0  0  0  0  0  0  0
    4.2746    1.3205   19.3845 H   0  0  0  0  0  0  0  0  0  0  0  0
 20 21  2  0  0  0  0
 19 20  1  0  0  0  0
 21 22  1  0  0  0  0
 18 19  2  0  0  0  0
 22 23  2  0  0  0  0
 18 23  1  0  0  0  0
 17 18  1  0  0  0  0
 23 24  1  0  0  0  0
 15 16  2  0  0  0  0
 15 17  1  0  0  0  0
 14 15  1  0  0  0  0
  8 14  1  0  0  0  0
 12 13  1  0  0  0  0
  8 13  1  0  0  0  0
 11 12  2  0  0  0  0
  7  8  1  0  0  0  0
  8  9  1  0  0  0  0
  6  7  3  0  0  0  0
 10 11  1  0  0  0  0
  5  6  1  0  0  0  0
  9 10  2  0  0  0  0
  2  5  1  0  0  0  0
  2  3  2  0  0  0  0
  1  2  1  0  0  0  0
  2  4  2  0  0  0  0
  1 25  1  0  0  0  0
  1 26  1  0  0  0  0
  1 27  1  0  0  0  0
  5 28  1  0  0  0  0
  9 29  1  0  0  0  0
 10 30  1  0  0  0  0
 11 31  1  0  0  0  0
 12 32  1  0  0  0  0
 13 33  1  0  0  0  0
 13 34  1  0  0  0  0
 14 35  1  0  0  0  0
 14 36  1  0  0  0  0
 17 37  1  0  0  0  0
 19 38  1  0  0  0  0
 21 39  1  0  0  0  0
 22 40  1  0  0  0  0
M  END
> <Chemgauss4>
-13.307286

$$$$
