MODEL 1
REMARK VINA RESULT:    -7.426      0.000      0.000
REMARK INTER + INTRA:         -11.259
REMARK INTER:                 -10.464
REMARK INTRA:                  -0.795
REMARK UNBOUND:                -0.795
REMARK  7 active torsions:
REMARK  status: ('A' for Active; 'I' for Inactive)
REMARK    1  A    between atoms: S_2  and  N_5 
REMARK    2  A    between atoms: N_5  and  C_7 
REMARK    3  A    between atoms: C_7  and  C_8 
REMARK    4  A    between atoms: C_8  and  C_9 
REMARK    5  A    between atoms: C_9  and  C_15 
REMARK    6  A    between atoms: C_15  and  C_16 
REMARK       I    between atoms: C_16  and  N_18 
REMARK    7  A    between atoms: N_18  and  C_20 
ROOT
HETATM    1  C   UNL     1       9.466  -1.574  23.334  1.00  0.00     0.068 C 
HETATM    2  C   UNL     1       9.623  -0.505  24.549  1.00  0.00     0.000 C 
HETATM    3  C   UNL     1      10.536   0.074  24.845  1.00  0.00    -0.002 C 
HETATM    4  C   UNL     1      11.783   0.008  24.338  1.00  0.00    -0.001 C 
HETATM    5  C   UNL     1      11.917  -1.041  23.395  1.00  0.00    -0.002 C 
HETATM    6  C   UNL     1      11.163  -1.669  23.003  1.00  0.00     0.000 C 
ENDROOT
BRANCH   1   7
HETATM    7  C   UNL     1       8.763  -2.661  23.276  1.00  0.00     0.135 C 
BRANCH   7   8
HETATM    8  C   UNL     1       8.014  -3.394  22.803  1.00  0.00    -0.058 C 
BRANCH   8   9
HETATM    9  N   UNL     1       7.558  -4.416  22.335  1.00  0.00    -0.254 N 
ATOM     10  HN  UNL     1       8.162  -5.238  22.311  1.00  0.00     0.188 HD
BRANCH   9  11
HETATM   11  S   UNL     1       6.068  -4.566  21.749  1.00  0.00     0.233 S 
HETATM   12  C   UNL     1       5.114  -5.063  23.171  1.00  0.00     0.186 C 
HETATM   13  O   UNL     1       5.534  -3.305  21.352  1.00  0.00    -0.206 OA
HETATM   14  O   UNL     1       5.943  -5.564  20.747  1.00  0.00    -0.206 OA
ENDBRANCH   9  11
ENDBRANCH   8   9
ENDBRANCH   7   8
ENDBRANCH   1   7
BRANCH   1  15
HETATM   15  C   UNL     1       8.969  -1.039  22.308  1.00  0.00    -0.064 C 
BRANCH  15  16
HETATM   16  C   UNL     1       8.451  -0.442  21.266  1.00  0.00     0.290 C 
HETATM   17  O   UNL     1       9.211   0.200  20.698  1.00  0.00    -0.259 OA
HETATM   18  N   UNL     1       7.162  -0.704  21.119  1.00  0.00    -0.315 N 
ATOM     19  HN  UNL     1       6.658  -1.299  21.778  1.00  0.00     0.170 HD
BRANCH  18  20
HETATM   20  C   UNL     1       6.585  -0.182  20.120  1.00  0.00     0.060 A 
HETATM   21  C   UNL     1       6.290  -0.490  18.890  1.00  0.00     0.117 A 
HETATM   22  N   UNL     1       5.779  -0.319  17.759  1.00  0.00    -0.373 N 
HETATM   23  C   UNL     1       5.338   0.877  18.025  1.00  0.00     0.088 A 
ATOM     24  HN  UNL     1       5.728  -0.906  16.927  1.00  0.00     0.164 HD
HETATM   25  C   UNL     1       5.387   1.525  19.119  1.00  0.00     0.030 A 
HETATM   26  C   UNL     1       5.927   1.255  20.277  1.00  0.00    -0.016 A 
HETATM   27  C   UNL     1       5.987   1.826  21.207  1.00  0.00     0.026 C 
ENDBRANCH  18  20
ENDBRANCH  15  16
ENDBRANCH   1  15
TORSDOF 7
ENDMDL
MODEL 2
REMARK VINA RESULT:    -7.208      2.720      5.794
REMARK INTER + INTRA:         -10.952
REMARK INTER:                 -10.020
REMARK INTRA:                  -0.931
REMARK UNBOUND:                -0.795
REMARK  7 active torsions:
REMARK  status: ('A' for Active; 'I' for Inactive)
REMARK    1  A    between atoms: S_2  and  N_5 
REMARK    2  A    between atoms: N_5  and  C_7 
REMARK    3  A    between atoms: C_7  and  C_8 
REMARK    4  A    between atoms: C_8  and  C_9 
REMARK    5  A    between atoms: C_9  and  C_15 
REMARK    6  A    between atoms: C_15  and  C_16 
REMARK       I    between atoms: C_16  and  N_18 
REMARK    7  A    between atoms: N_18  and  C_20 
ROOT
HETATM    1  C   UNL     1      10.491  -0.775  23.214  1.00  0.00     0.068 C 
HETATM    2  C   UNL     1      11.831  -1.584  22.771  1.00  0.00     0.000 C 
HETATM    3  C   UNL     1      12.862  -1.495  23.200  1.00  0.00    -0.002 C 
HETATM    4  C   UNL     1      13.317  -0.653  24.148  1.00  0.00    -0.001 C 
HETATM    5  C   UNL     1      12.341   0.304  24.520  1.00  0.00    -0.002 C 
HETATM    6  C   UNL     1      11.329   0.356  24.221  1.00  0.00     0.000 C 
ENDROOT
BRANCH   1   7
HETATM    7  C   UNL     1       9.506  -0.347  22.488  1.00  0.00     0.135 C 
BRANCH   7   8
HETATM    8  C   UNL     1       8.817  -0.336  21.569  1.00  0.00    -0.058 C 
BRANCH   8   9
HETATM    9  N   UNL     1       8.456  -0.407  20.413  1.00  0.00    -0.254 N 
ATOM     10  HN  UNL     1       9.016  -0.971  19.775  1.00  0.00     0.188 HD
BRANCH   9  11
HETATM   11  S   UNL     1       7.153   0.325  19.817  1.00  0.00     0.233 S 
HETATM   12  C   UNL     1       5.905  -0.946  19.869  1.00  0.00     0.186 C 
HETATM   13  O   UNL     1       6.688   1.353  20.690  1.00  0.00    -0.206 OA
HETATM   14  O   UNL     1       7.304   0.760  18.475  1.00  0.00    -0.206 OA
ENDBRANCH   9  11
ENDBRANCH   8   9
ENDBRANCH   7   8
ENDBRANCH   1   7
BRANCH   1  15
HETATM   15  C   UNL     1       9.785  -1.451  24.010  1.00  0.00    -0.064 C 
BRANCH  15  16
HETATM   16  C   UNL     1       9.071  -2.192  24.818  1.00  0.00     0.290 C 
HETATM   17  O   UNL     1       8.774  -1.642  25.778  1.00  0.00    -0.259 OA
HETATM   18  N   UNL     1       8.872  -3.412  24.345  1.00  0.00    -0.315 N 
ATOM     19  HN  UNL     1       9.263  -3.711  23.451  1.00  0.00     0.170 HD
BRANCH  18  20
HETATM   20  C   UNL     1       8.171  -4.191  25.057  1.00  0.00     0.060 A 
HETATM   21  C   UNL     1       8.321  -4.977  26.084  1.00  0.00     0.117 A 
HETATM   22  N   UNL     1       7.951  -5.765  26.985  1.00  0.00    -0.373 N 
HETATM   23  C   UNL     1       6.709  -5.794  26.593  1.00  0.00     0.088 A 
ATOM     24  HN  UNL     1       8.445  -6.221  27.751  1.00  0.00     0.164 HD
HETATM   25  C   UNL     1       6.149  -5.142  25.655  1.00  0.00     0.030 A 
HETATM   26  C   UNL     1       6.614  -4.307  24.765  1.00  0.00    -0.016 A 
HETATM   27  C   UNL     1       6.132  -3.767  23.945  1.00  0.00     0.026 C 
ENDBRANCH  18  20
ENDBRANCH  15  16
ENDBRANCH   1  15
TORSDOF 7
ENDMDL
MODEL 3
REMARK VINA RESULT:    -6.878      2.236      2.304
REMARK INTER + INTRA:         -10.487
REMARK INTER:                  -9.826
REMARK INTRA:                  -0.661
REMARK UNBOUND:                -0.795
REMARK  7 active torsions:
REMARK  status: ('A' for Active; 'I' for Inactive)
REMARK    1  A    between atoms: S_2  and  N_5 
REMARK    2  A    between atoms: N_5  and  C_7 
REMARK    3  A    between atoms: C_7  and  C_8 
REMARK    4  A    between atoms: C_8  and  C_9 
REMARK    5  A    between atoms: C_9  and  C_15 
REMARK    6  A    between atoms: C_15  and  C_16 
REMARK       I    between atoms: C_16  and  N_18 
REMARK    7  A    between atoms: N_18  and  C_20 
ROOT
HETATM    1  C   UNL     1       9.747  -1.310  23.611  1.00  0.00     0.068 C 
HETATM    2  C   UNL     1       9.961  -0.157  24.739  1.00  0.00     0.000 C 
HETATM    3  C   UNL     1      10.891   0.429  24.958  1.00  0.00    -0.002 C 
HETATM    4  C   UNL     1      12.117   0.309  24.412  1.00  0.00    -0.001 C 
HETATM    5  C   UNL     1      12.204  -0.808  23.544  1.00  0.00    -0.002 C 
HETATM    6  C   UNL     1      11.429  -1.452  23.227  1.00  0.00     0.000 C 
ENDROOT
BRANCH   1   7
HETATM    7  C   UNL     1       9.030  -2.388  23.658  1.00  0.00     0.135 C 
BRANCH   7   8
HETATM    8  C   UNL     1       8.706  -3.407  24.079  1.00  0.00    -0.058 C 
BRANCH   8   9
HETATM    9  N   UNL     1       7.995  -4.287  24.517  1.00  0.00    -0.254 N 
ATOM     10  HN  UNL     1       7.567  -4.928  23.848  1.00  0.00     0.188 HD
BRANCH   9  11
HETATM   11  S   UNL     1       7.680  -4.515  26.078  1.00  0.00     0.233 S 
HETATM   12  C   UNL     1       6.639  -3.130  26.495  1.00  0.00     0.186 C 
HETATM   13  O   UNL     1       6.875  -5.674  26.284  1.00  0.00    -0.206 OA
HETATM   14  O   UNL     1       8.833  -4.483  26.906  1.00  0.00    -0.206 OA
ENDBRANCH   9  11
ENDBRANCH   8   9
ENDBRANCH   7   8
ENDBRANCH   1   7
BRANCH   1  15
HETATM   15  C   UNL     1       9.218  -0.843  22.568  1.00  0.00    -0.064 C 
BRANCH  15  16
HETATM   16  C   UNL     1       8.691  -0.318  21.492  1.00  0.00     0.290 C 
HETATM   17  O   UNL     1       9.446   0.281  20.874  1.00  0.00    -0.259 OA
HETATM   18  N   UNL     1       7.399  -0.587  21.376  1.00  0.00    -0.315 N 
ATOM     19  HN  UNL     1       6.901  -1.133  22.079  1.00  0.00     0.170 HD
BRANCH  18  20
HETATM   20  C   UNL     1       6.814  -0.133  20.350  1.00  0.00     0.060 A 
HETATM   21  C   UNL     1       6.561  -0.500  19.126  1.00  0.00     0.117 A 
HETATM   22  N   UNL     1       6.064  -0.397  17.981  1.00  0.00    -0.373 N 
HETATM   23  C   UNL     1       5.549   0.780  18.197  1.00  0.00     0.088 A 
ATOM     24  HN  UNL     1       6.062  -1.014  17.169  1.00  0.00     0.164 HD
HETATM   25  C   UNL     1       5.540   1.467  19.268  1.00  0.00     0.030 A 
HETATM   26  C   UNL     1       6.072   1.268  20.444  1.00  0.00    -0.016 A 
HETATM   27  C   UNL     1       6.081   1.874  21.355  1.00  0.00     0.026 C 
ENDBRANCH  18  20
ENDBRANCH  15  16
ENDBRANCH   1  15
TORSDOF 7
ENDMDL
MODEL 4
REMARK VINA RESULT:    -6.822      2.600      5.911
REMARK INTER + INTRA:         -10.409
REMARK INTER:                  -9.401
REMARK INTRA:                  -1.008
REMARK UNBOUND:                -0.795
REMARK  7 active torsions:
REMARK  status: ('A' for Active; 'I' for Inactive)
REMARK    1  A    between atoms: S_2  and  N_5 
REMARK    2  A    between atoms: N_5  and  C_7 
REMARK    3  A    between atoms: C_7  and  C_8 
REMARK    4  A    between atoms: C_8  and  C_9 
REMARK    5  A    between atoms: C_9  and  C_15 
REMARK    6  A    between atoms: C_15  and  C_16 
REMARK       I    between atoms: C_16  and  N_18 
REMARK    7  A    between atoms: N_18  and  C_20 
ROOT
HETATM    1  C   UNL     1       7.853   0.334  20.812  1.00  0.00     0.068 C 
HETATM    2  C   UNL     1       6.706   1.407  21.237  1.00  0.00     0.000 C 
HETATM    3  C   UNL     1       5.796   1.709  20.657  1.00  0.00    -0.002 C 
HETATM    4  C   UNL     1       5.417   1.336  19.418  1.00  0.00    -0.001 C 
HETATM    5  C   UNL     1       6.409   0.556  18.773  1.00  0.00    -0.002 C 
HETATM    6  C   UNL     1       7.310   0.181  19.176  1.00  0.00     0.000 C 
ENDROOT
BRANCH   1   7
HETATM    7  C   UNL     1       9.128   0.353  21.043  1.00  0.00     0.135 C 
BRANCH   7   8
HETATM    8  C   UNL     1      10.070   0.534  21.675  1.00  0.00    -0.058 C 
BRANCH   8   9
HETATM    9  N   UNL     1      10.812   0.565  22.635  1.00  0.00    -0.254 N 
ATOM     10  HN  UNL     1      11.086   1.480  22.993  1.00  0.00     0.188 HD
BRANCH   9  11
HETATM   11  S   UNL     1      11.394  -0.736  23.381  1.00  0.00     0.233 S 
HETATM   12  C   UNL     1      12.813  -0.108  24.257  1.00  0.00     0.186 C 
HETATM   13  O   UNL     1      10.499  -1.203  24.388  1.00  0.00    -0.206 OA
HETATM   14  O   UNL     1      11.822  -1.761  22.498  1.00  0.00    -0.206 OA
ENDBRANCH   9  11
ENDBRANCH   8   9
ENDBRANCH   7   8
ENDBRANCH   1   7
BRANCH   1  15
HETATM   15  C   UNL     1       7.641  -0.796  21.327  1.00  0.00    -0.064 C 
BRANCH  15  16
HETATM   16  C   UNL     1       7.384  -1.975  21.833  1.00  0.00     0.290 C 
HETATM   17  O   UNL     1       8.330  -2.535  22.157  1.00  0.00    -0.259 OA
HETATM   18  N   UNL     1       6.090  -2.255  21.839  1.00  0.00    -0.315 N 
ATOM     19  HN  UNL     1       5.400  -1.603  21.464  1.00  0.00     0.170 HD
BRANCH  18  20
HETATM   20  C   UNL     1       5.752  -3.371  22.332  1.00  0.00     0.060 A 
HETATM   21  C   UNL     1       5.685  -4.620  21.970  1.00  0.00     0.117 A 
HETATM   22  N   UNL     1       5.483  -5.846  22.125  1.00  0.00    -0.373 N 
HETATM   23  C   UNL     1       5.090  -5.731  23.361  1.00  0.00     0.088 A 
ATOM     24  HN  UNL     1       5.588  -6.649  21.505  1.00  0.00     0.164 HD
HETATM   25  C   UNL     1       5.045  -4.692  24.095  1.00  0.00     0.030 A 
HETATM   26  C   UNL     1       5.302  -3.435  23.854  1.00  0.00    -0.016 A 
HETATM   27  C   UNL     1       5.239  -2.541  24.481  1.00  0.00     0.026 C 
ENDBRANCH  18  20
ENDBRANCH  15  16
ENDBRANCH   1  15
TORSDOF 7
ENDMDL
MODEL 5
REMARK VINA RESULT:    -6.753      2.477      5.964
REMARK INTER + INTRA:         -10.311
REMARK INTER:                  -9.726
REMARK INTRA:                  -0.585
REMARK UNBOUND:                -0.795
REMARK  7 active torsions:
REMARK  status: ('A' for Active; 'I' for Inactive)
REMARK    1  A    between atoms: S_2  and  N_5 
REMARK    2  A    between atoms: N_5  and  C_7 
REMARK    3  A    between atoms: C_7  and  C_8 
REMARK    4  A    between atoms: C_8  and  C_9 
REMARK    5  A    between atoms: C_9  and  C_15 
REMARK    6  A    between atoms: C_15  and  C_16 
REMARK       I    between atoms: C_16  and  N_18 
REMARK    7  A    between atoms: N_18  and  C_20 
ROOT
HETATM    1  C   UNL     1       6.540  -2.758  22.203  1.00  0.00     0.068 C 
HETATM    2  C   UNL     1       5.906  -3.090  23.664  1.00  0.00     0.000 C 
HETATM    3  C   UNL     1       5.894  -4.072  24.202  1.00  0.00    -0.002 C 
HETATM    4  C   UNL     1       6.328  -5.276  23.781  1.00  0.00    -0.001 C 
HETATM    5  C   UNL     1       6.726  -5.250  22.421  1.00  0.00    -0.002 C 
HETATM    6  C   UNL     1       6.806  -4.415  21.779  1.00  0.00     0.000 C 
ENDROOT
BRANCH   1   7
HETATM    7  C   UNL     1       6.121  -1.944  21.286  1.00  0.00     0.135 C 
BRANCH   7   8
HETATM    8  C   UNL     1       5.759  -1.656  20.233  1.00  0.00    -0.058 C 
BRANCH   8   9
HETATM    9  N   UNL     1       5.578  -1.002  19.228  1.00  0.00    -0.254 N 
ATOM     10  HN  UNL     1       4.910  -1.357  18.544  1.00  0.00     0.188 HD
BRANCH   9  11
HETATM   11  S   UNL     1       6.319   0.388  18.899  1.00  0.00     0.233 S 
HETATM   12  C   UNL     1       5.928   1.407  20.307  1.00  0.00     0.186 C 
HETATM   13  O   UNL     1       7.737   0.240  18.915  1.00  0.00    -0.206 OA
HETATM   14  O   UNL     1       5.839   1.029  17.726  1.00  0.00    -0.206 OA
ENDBRANCH   9  11
ENDBRANCH   8   9
ENDBRANCH   7   8
ENDBRANCH   1   7
BRANCH   1  15
HETATM   15  C   UNL     1       7.695  -2.263  22.302  1.00  0.00    -0.064 C 
BRANCH  15  16
HETATM   16  C   UNL     1       8.875  -1.708  22.395  1.00  0.00     0.290 C 
HETATM   17  O   UNL     1       9.151  -1.092  21.469  1.00  0.00    -0.259 OA
HETATM   18  N   UNL     1       9.486  -2.001  23.533  1.00  0.00    -0.315 N 
ATOM     19  HN  UNL     1       9.057  -2.610  24.229  1.00  0.00     0.170 HD
BRANCH  18  20
HETATM   20  C   UNL     1      10.628  -1.485  23.714  1.00  0.00     0.060 A 
HETATM   21  C   UNL     1      11.854  -1.658  23.311  1.00  0.00     0.117 A 
HETATM   22  N   UNL     1      13.076  -1.397  23.219  1.00  0.00    -0.373 N 
HETATM   23  C   UNL     1      13.028  -0.390  24.044  1.00  0.00     0.088 A 
ATOM     24  HN  UNL     1      13.836  -1.821  22.689  1.00  0.00     0.164 HD
HETATM   25  C   UNL     1      12.019   0.123  24.626  1.00  0.00     0.030 A 
HETATM   26  C   UNL     1      10.755  -0.204  24.645  1.00  0.00    -0.016 A 
HETATM   27  C   UNL     1       9.895   0.226  25.165  1.00  0.00     0.026 C 
ENDBRANCH  18  20
ENDBRANCH  15  16
ENDBRANCH   1  15
TORSDOF 7
ENDMDL
MODEL 6
REMARK VINA RESULT:    -6.698      4.194      6.427
REMARK INTER + INTRA:         -10.234
REMARK INTER:                  -9.512
REMARK INTRA:                  -0.721
REMARK UNBOUND:                -0.795
REMARK  7 active torsions:
REMARK  status: ('A' for Active; 'I' for Inactive)
REMARK    1  A    between atoms: S_2  and  N_5 
REMARK    2  A    between atoms: N_5  and  C_7 
REMARK    3  A    between atoms: C_7  and  C_8 
REMARK    4  A    between atoms: C_8  and  C_9 
REMARK    5  A    between atoms: C_9  and  C_15 
REMARK    6  A    between atoms: C_15  and  C_16 
REMARK       I    between atoms: C_16  and  N_18 
REMARK    7  A    between atoms: N_18  and  C_20 
ROOT
HETATM    1  C   UNL     1       7.076  -4.818  24.041  1.00  0.00     0.068 C 
HETATM    2  C   UNL     1       7.636  -5.776  22.851  1.00  0.00     0.000 C 
HETATM    3  C   UNL     1       7.151  -6.008  21.868  1.00  0.00    -0.002 C 
HETATM    4  C   UNL     1       5.942  -5.629  21.408  1.00  0.00    -0.001 C 
HETATM    5  C   UNL     1       5.186  -4.954  22.398  1.00  0.00    -0.002 C 
HETATM    6  C   UNL     1       5.493  -4.652  23.362  1.00  0.00     0.000 C 
ENDROOT
BRANCH   1   7
HETATM    7  C   UNL     1       7.189  -4.945  25.326  1.00  0.00     0.135 C 
BRANCH   7   8
HETATM    8  C   UNL     1       7.328  -5.526  26.308  1.00  0.00    -0.058 C 
BRANCH   8   9
HETATM    9  N   UNL     1       7.485  -5.748  27.490  1.00  0.00    -0.254 N 
ATOM     10  HN  UNL     1       8.436  -5.714  27.857  1.00  0.00     0.188 HD
BRANCH   9  11
HETATM   11  S   UNL     1       6.298  -6.091  28.519  1.00  0.00     0.233 S 
HETATM   12  C   UNL     1       5.134  -4.765  28.264  1.00  0.00     0.186 C 
HETATM   13  O   UNL     1       5.609  -7.282  28.144  1.00  0.00    -0.206 OA
HETATM   14  O   UNL     1       6.699  -6.086  29.881  1.00  0.00    -0.206 OA
ENDBRANCH   9  11
ENDBRANCH   8   9
ENDBRANCH   7   8
ENDBRANCH   1   7
BRANCH   1  15
HETATM   15  C   UNL     1       7.575  -3.663  23.977  1.00  0.00    -0.064 C 
BRANCH  15  16
HETATM   16  C   UNL     1       8.060  -2.452  23.880  1.00  0.00     0.290 C 
HETATM   17  O   UNL     1       7.381  -1.748  23.285  1.00  0.00    -0.259 OA
HETATM   18  N   UNL     1       9.233  -2.325  24.481  1.00  0.00    -0.315 N 
ATOM     19  HN  UNL     1       9.686  -3.114  24.943  1.00  0.00     0.170 HD
BRANCH  18  20
HETATM   20  C   UNL     1       9.765  -1.176  24.453  1.00  0.00     0.060 A 
HETATM   21  C   UNL     1       9.612  -0.014  25.020  1.00  0.00     0.117 A 
HETATM   22  N   UNL     1       9.892   1.180  25.275  1.00  0.00    -0.373 N 
HETATM   23  C   UNL     1      10.895   1.230  24.446  1.00  0.00     0.088 A 
ATOM     24  HN  UNL     1       9.481   1.867  25.906  1.00  0.00     0.164 HD
HETATM   25  C   UNL     1      11.391   0.302  23.731  1.00  0.00     0.030 A 
HETATM   26  C   UNL     1      11.045  -0.943  23.542  1.00  0.00    -0.016 A 
HETATM   27  C   UNL     1      11.461  -1.730  22.907  1.00  0.00     0.026 C 
ENDBRANCH  18  20
ENDBRANCH  15  16
ENDBRANCH   1  15
TORSDOF 7
ENDMDL
MODEL 7
REMARK VINA RESULT:    -6.553      2.723      3.483
REMARK INTER + INTRA:         -10.029
REMARK INTER:                  -9.103
REMARK INTRA:                  -0.926
REMARK UNBOUND:                -0.795
REMARK  7 active torsions:
REMARK  status: ('A' for Active; 'I' for Inactive)
REMARK    1  A    between atoms: S_2  and  N_5 
REMARK    2  A    between atoms: N_5  and  C_7 
REMARK    3  A    between atoms: C_7  and  C_8 
REMARK    4  A    between atoms: C_8  and  C_9 
REMARK    5  A    between atoms: C_9  and  C_15 
REMARK    6  A    between atoms: C_15  and  C_16 
REMARK       I    between atoms: C_16  and  N_18 
REMARK    7  A    between atoms: N_18  and  C_20 
ROOT
HETATM    1  C   UNL     1       9.666   2.267  24.079  1.00  0.00     0.068 C 
HETATM    2  C   UNL     1       9.018   3.671  24.584  1.00  0.00     0.000 C 
HETATM    3  C   UNL     1       9.442   4.703  24.478  1.00  0.00    -0.002 C 
HETATM    4  C   UNL     1      10.632   5.083  23.972  1.00  0.00    -0.001 C 
HETATM    5  C   UNL     1      11.458   3.973  23.668  1.00  0.00    -0.002 C 
HETATM    6  C   UNL     1      11.213   2.946  23.703  1.00  0.00     0.000 C 
ENDROOT
BRANCH   1   7
HETATM    7  C   UNL     1       9.622   1.092  24.625  1.00  0.00     0.135 C 
BRANCH   7   8
HETATM    8  C   UNL     1       9.149   0.074  24.871  1.00  0.00    -0.058 C 
BRANCH   8   9
HETATM    9  N   UNL     1       8.693  -1.039  24.715  1.00  0.00    -0.254 N 
ATOM     10  HN  UNL     1       8.129  -1.430  25.470  1.00  0.00     0.188 HD
BRANCH   9  11
HETATM   11  S   UNL     1       8.914  -1.941  23.402  1.00  0.00     0.233 S 
HETATM   12  C   UNL     1       8.547  -3.591  23.968  1.00  0.00     0.186 C 
HETATM   13  O   UNL     1       7.938  -1.655  22.402  1.00  0.00    -0.206 OA
HETATM   14  O   UNL     1      10.243  -1.916  22.906  1.00  0.00    -0.206 OA
ENDBRANCH   9  11
ENDBRANCH   8   9
ENDBRANCH   7   8
ENDBRANCH   1   7
BRANCH   1  15
HETATM   15  C   UNL     1       9.192   1.913  22.966  1.00  0.00    -0.064 C 
BRANCH  15  16
HETATM   16  C   UNL     1       8.743   1.544  21.795  1.00  0.00     0.290 C 
HETATM   17  O   UNL     1       9.582   1.290  21.057  1.00  0.00    -0.259 OA
HETATM   18  N   UNL     1       7.421   1.564  21.727  1.00  0.00    -0.315 N 
ATOM     19  HN  UNL     1       6.849   1.859  22.519  1.00  0.00     0.170 HD
BRANCH  18  20
HETATM   20  C   UNL     1       6.901   1.199  20.632  1.00  0.00     0.060 A 
HETATM   21  C   UNL     1       7.184   0.419  19.628  1.00  0.00     0.117 A 
HETATM   22  N   UNL     1       6.973  -0.168  18.542  1.00  0.00    -0.373 N 
HETATM   23  C   UNL     1       5.809   0.383  18.350  1.00  0.00     0.088 A 
ATOM     24  HN  UNL     1       7.518  -0.838  18.001  1.00  0.00     0.164 HD
HETATM   25  C   UNL     1       5.160   1.172  19.109  1.00  0.00     0.030 A 
HETATM   26  C   UNL     1       5.450   1.723  20.256  1.00  0.00    -0.016 A 
HETATM   27  C   UNL     1       4.898   2.420  20.894  1.00  0.00     0.026 C 
ENDBRANCH  18  20
ENDBRANCH  15  16
ENDBRANCH   1  15
TORSDOF 7
ENDMDL
MODEL 8
REMARK VINA RESULT:    -6.525      2.804      5.703
REMARK INTER + INTRA:          -9.989
REMARK INTER:                  -9.235
REMARK INTRA:                  -0.755
REMARK UNBOUND:                -0.795
REMARK  7 active torsions:
REMARK  status: ('A' for Active; 'I' for Inactive)
REMARK    1  A    between atoms: S_2  and  N_5 
REMARK    2  A    between atoms: N_5  and  C_7 
REMARK    3  A    between atoms: C_7  and  C_8 
REMARK    4  A    between atoms: C_8  and  C_9 
REMARK    5  A    between atoms: C_9  and  C_15 
REMARK    6  A    between atoms: C_15  and  C_16 
REMARK       I    between atoms: C_16  and  N_18 
REMARK    7  A    between atoms: N_18  and  C_20 
ROOT
HETATM    1  C   UNL     1       9.283   0.639  21.988  1.00  0.00     0.068 C 
HETATM    2  C   UNL     1      10.587   1.585  22.212  1.00  0.00     0.000 C 
HETATM    3  C   UNL     1      10.701   2.444  22.923  1.00  0.00    -0.002 C 
HETATM    4  C   UNL     1       9.784   2.993  23.744  1.00  0.00    -0.001 C 
HETATM    5  C   UNL     1       8.494   2.445  23.540  1.00  0.00    -0.002 C 
HETATM    6  C   UNL     1       8.218   1.634  22.921  1.00  0.00     0.000 C 
ENDROOT
BRANCH   1   7
HETATM    7  C   UNL     1       8.831   0.099  20.900  1.00  0.00     0.135 C 
BRANCH   7   8
HETATM    8  C   UNL     1       8.130   0.010  19.994  1.00  0.00    -0.058 C 
BRANCH   8   9
HETATM    9  N   UNL     1       7.380   0.330  19.095  1.00  0.00    -0.254 N 
ATOM     10  HN  UNL     1       7.742   0.957  18.377  1.00  0.00     0.188 HD
BRANCH   9  11
HETATM   11  S   UNL     1       5.857  -0.167  18.956  1.00  0.00     0.233 S 
HETATM   12  C   UNL     1       4.911   1.257  19.461  1.00  0.00     0.186 C 
HETATM   13  O   UNL     1       5.505  -0.396  17.593  1.00  0.00    -0.206 OA
HETATM   14  O   UNL     1       5.529  -1.256  19.806  1.00  0.00    -0.206 OA
ENDBRANCH   9  11
ENDBRANCH   8   9
ENDBRANCH   7   8
ENDBRANCH   1   7
BRANCH   1  15
HETATM   15  C   UNL     1       9.374  -0.435  22.641  1.00  0.00    -0.064 C 
BRANCH  15  16
HETATM   16  C   UNL     1       9.451  -1.572  23.282  1.00  0.00     0.290 C 
HETATM   17  O   UNL     1      10.469  -2.082  23.162  1.00  0.00    -0.259 OA
HETATM   18  N   UNL     1       8.326  -1.878  23.910  1.00  0.00    -0.315 N 
ATOM     19  HN  UNL     1       7.504  -1.276  23.861  1.00  0.00     0.170 HD
BRANCH  18  20
HETATM   20  C   UNL     1       8.320  -2.956  24.574  1.00  0.00     0.060 A 
HETATM   21  C   UNL     1       8.604  -3.364  25.778  1.00  0.00     0.117 A 
HETATM   22  N   UNL     1       8.691  -4.191  26.715  1.00  0.00    -0.373 N 
HETATM   23  C   UNL     1       8.273  -5.198  26.002  1.00  0.00     0.088 A 
ATOM     24  HN  UNL     1       8.984  -4.107  27.688  1.00  0.00     0.164 HD
HETATM   25  C   UNL     1       7.862  -5.213  24.798  1.00  0.00     0.030 A 
HETATM   26  C   UNL     1       7.781  -4.282  23.886  1.00  0.00    -0.016 A 
HETATM   27  C   UNL     1       7.449  -4.305  22.844  1.00  0.00     0.026 C 
ENDBRANCH  18  20
ENDBRANCH  15  16
ENDBRANCH   1  15
TORSDOF 7
ENDMDL
MODEL 9
REMARK VINA RESULT:    -6.387      2.453      4.571
REMARK INTER + INTRA:          -9.796
REMARK INTER:                  -8.565
REMARK INTRA:                  -1.231
REMARK UNBOUND:                -0.795
REMARK  7 active torsions:
REMARK  status: ('A' for Active; 'I' for Inactive)
REMARK    1  A    between atoms: S_2  and  N_5 
REMARK    2  A    between atoms: N_5  and  C_7 
REMARK    3  A    between atoms: C_7  and  C_8 
REMARK    4  A    between atoms: C_8  and  C_9 
REMARK    5  A    between atoms: C_9  and  C_15 
REMARK    6  A    between atoms: C_15  and  C_16 
REMARK       I    between atoms: C_16  and  N_18 
REMARK    7  A    between atoms: N_18  and  C_20 
ROOT
HETATM    1  C   UNL     1       7.929  -2.246  24.223  1.00  0.00     0.068 C 
HETATM    2  C   UNL     1       8.558  -3.743  24.125  1.00  0.00     0.000 C 
HETATM    3  C   UNL     1       8.011  -4.721  24.133  1.00  0.00    -0.002 C 
HETATM    4  C   UNL     1       6.695  -4.957  24.297  1.00  0.00    -0.001 C 
HETATM    5  C   UNL     1       5.982  -3.776  24.623  1.00  0.00    -0.002 C 
HETATM    6  C   UNL     1       6.340  -2.782  24.649  1.00  0.00     0.000 C 
ENDROOT
BRANCH   1   7
HETATM    7  C   UNL     1       8.402  -1.188  24.804  1.00  0.00     0.135 C 
BRANCH   7   8
HETATM    8  C   UNL     1       9.225  -0.445  25.107  1.00  0.00    -0.058 C 
BRANCH   8   9
HETATM    9  N   UNL     1       9.930   0.542  25.100  1.00  0.00    -0.254 N 
ATOM     10  HN  UNL     1      10.045   1.049  25.978  1.00  0.00     0.188 HD
BRANCH   9  11
HETATM   11  S   UNL     1      10.696   1.107  23.804  1.00  0.00     0.233 S 
HETATM   12  C   UNL     1      11.511  -0.335  23.146  1.00  0.00     0.186 C 
HETATM   13  O   UNL     1       9.778   1.521  22.795  1.00  0.00    -0.206 OA
HETATM   14  O   UNL     1      11.678   2.088  24.100  1.00  0.00    -0.206 OA
ENDBRANCH   9  11
ENDBRANCH   8   9
ENDBRANCH   7   8
ENDBRANCH   1   7
BRANCH   1  15
HETATM   15  C   UNL     1       7.797  -1.725  23.084  1.00  0.00    -0.064 C 
BRANCH  15  16
HETATM   16  C   UNL     1       7.639  -1.223  21.887  1.00  0.00     0.290 C 
HETATM   17  O   UNL     1       8.623  -1.140  21.306  1.00  0.00    -0.259 OA
HETATM   18  N   UNL     1       6.378  -0.911  21.629  1.00  0.00    -0.315 N 
ATOM     19  HN  UNL     1       5.641  -1.046  22.321  1.00  0.00     0.170 HD
BRANCH  18  20
HETATM   20  C   UNL     1       6.133  -0.437  20.481  1.00  0.00     0.060 A 
HETATM   21  C   UNL     1       5.893  -0.868  19.275  1.00  0.00     0.117 A 
HETATM   22  N   UNL     1       5.605  -0.767  18.061  1.00  0.00    -0.373 N 
HETATM   23  C   UNL     1       5.570   0.534  18.071  1.00  0.00     0.088 A 
ATOM     24  HN  UNL     1       5.452  -1.458  17.326  1.00  0.00     0.164 HD
HETATM   25  C   UNL     1       5.713   1.333  19.051  1.00  0.00     0.030 A 
HETATM   26  C   UNL     1       5.991   1.136  20.312  1.00  0.00    -0.016 A 
HETATM   27  C   UNL     1       6.136   1.828  21.146  1.00  0.00     0.026 C 
ENDBRANCH  18  20
ENDBRANCH  15  16
ENDBRANCH   1  15
TORSDOF 7
ENDMDL
