REMARK  7 active torsions:
REMARK  status: ('A' for Active; 'I' for Inactive)
REMARK    1  A    between atoms: S_2  and  N_5 
REMARK    2  A    between atoms: N_5  and  C_7 
REMARK    3  A    between atoms: C_7  and  C_8 
REMARK    4  A    between atoms: C_8  and  C_9 
REMARK    5  A    between atoms: C_9  and  C_15 
REMARK    6  A    between atoms: C_15  and  C_16 
REMARK       I    between atoms: C_16  and  N_18 
REMARK    7  A    between atoms: N_18  and  C_20 
ROOT
HETATM    1  C   UNL     1      10.338  -1.128  23.292  1.00  0.00     0.068 C 
HETATM    2  C   UNL     1      11.061  -0.039  24.260  1.00  0.00     0.000 C 
HETATM    3  C   UNL     1      12.128   0.303  24.236  1.00  0.00    -0.002 C 
HETATM    4  C   UNL     1      13.140  -0.129  23.458  1.00  0.00    -0.001 C 
HETATM    5  C   UNL     1      12.767  -1.251  22.678  1.00  0.00    -0.002 C 
HETATM    6  C   UNL     1      11.811  -1.690  22.578  1.00  0.00     0.000 C 
ENDROOT
BRANCH   1   7
HETATM    7  C   UNL     1       9.414  -1.994  23.568  1.00  0.00     0.135 C 
BRANCH   7   8
HETATM    8  C   UNL     1       8.943  -2.866  24.150  1.00  0.00    -0.058 C 
BRANCH   8   9
HETATM    9  N   UNL     1       8.100  -3.586  24.642  1.00  0.00    -0.254 N 
ATOM     10  HN  UNL     1       7.256  -3.768  24.099  1.00  0.00     0.188 HD
BRANCH   9  11
HETATM   11  S   UNL     1       8.220  -4.274  26.091  1.00  0.00     0.233 S 
HETATM   12  C   UNL     1       6.564  -4.849  26.413  1.00  0.00     0.186 C 
HETATM   13  O   UNL     1       9.030  -5.447  26.046  1.00  0.00    -0.206 OA
HETATM   14  O   UNL     1       8.598  -3.376  27.123  1.00  0.00    -0.206 OA
ENDBRANCH   9  11
ENDBRANCH   8   9
ENDBRANCH   7   8
ENDBRANCH   1   7
BRANCH   1  15
HETATM   15  C   UNL     1       9.718  -0.568  22.349  1.00  0.00    -0.064 C 
BRANCH  15  16
HETATM   16  C   UNL     1       9.037   0.017  21.398  1.00  0.00     0.290 C 
HETATM   17  O   UNL     1       9.561   0.948  20.984  1.00  0.00    -0.259 OA
HETATM   18  N   UNL     1       7.890  -0.594  21.145  1.00  0.00    -0.315 N 
ATOM     19  HN  UNL     1       7.596  -1.419  21.668  1.00  0.00     0.170 HD
BRANCH  18  20
HETATM   20  C   UNL     1       7.176  -0.104  20.221  1.00  0.00     0.060 A 
HETATM   21  C   UNL     1       7.200   0.012  18.924  1.00  0.00     0.117 A 
HETATM   22  N   UNL     1       6.758   0.330  17.796  1.00  0.00    -0.373 N 
HETATM   23  C   UNL     1       5.671   0.876  18.261  1.00  0.00     0.088 A 
ATOM     24  HN  UNL     1       7.120   0.206  16.851  1.00  0.00     0.164 HD
HETATM   25  C   UNL     1       5.255   0.938  19.462  1.00  0.00     0.030 A 
HETATM   26  C   UNL     1       5.778   0.551  20.594  1.00  0.00    -0.016 A 
HETATM   27  C   UNL     1       5.427   0.628  21.627  1.00  0.00     0.026 C 
ENDBRANCH  18  20
ENDBRANCH  15  16
ENDBRANCH   1  15
TORSDOF 7
