stable:False satoms:17 tatoms:24 sratio:0.7083333333333334
  -OEChem-08062405383D

 34 36  0     1  0  0  0  0  0999 V2000
    5.9119   -3.8479   26.8540 F   0  0  0  0  0  0  0  0  0  0  0  0
    7.1695   -3.6520   26.8000 C   0  0  0  0  0  0  0  0  0  0  0  0
    7.7297   -4.8846   26.9587 F   0  0  0  0  0  0  0  0  0  0  0  0
    7.4579   -3.0152   27.6734 H   0  0  0  0  0  0  0  0  0  0  0  0
    7.6084   -3.1474   25.5188 N   0  0  0  0  0  0  0  0  0  0  0  0
    8.5303   -2.4799   25.3678 C   0  0  0  0  0  0  0  0  0  0  0  0
    8.9489   -1.2004   23.7625 N   0  0  0  0  0  0  0  0  0  0  0  0
    9.3864   -1.4370   24.9067 C   0  0  3  0  0  0  0  0  0  0  0  0
   10.3594   -0.6989   25.5922 N   0  3  0  0  0  0  0  0  0  0  0  0
   11.4591   -0.6006   24.8868 C   0  0  0  0  0  0  0  0  0  0  0  0
   12.4083   -0.2827   25.3335 H   0  0  0  0  0  0  0  0  0  0  0  0
   12.1457   -1.4723   23.0907 H   0  0  0  0  0  0  0  0  0  0  0  0
   11.3282   -0.9905   23.5935 C   0  0  0  0  0  0  0  0  0  0  0  0
    9.9006   -0.5607   22.9511 C   0  0  1  0  0  0  0  0  0  0  0  0
    8.9780   -0.1548   21.8520 C   0  0  3  0  0  0  0  0  0  0  0  0
   10.2276    0.7029   21.7154 S   0  0  0  0  0  0  0  0  0  0  0  0
    7.7842   -0.4525   21.4885 N   0  0  0  0  0  0  0  0  0  0  0  0
    7.5258    0.0551   20.3421 C   0  0  0  0  0  0  0  0  0  0  0  0
    8.0692   -0.1426   19.0872 N   0  0  0  0  0  0  0  0  0  0  0  0
    7.3421    0.3408   18.0953 N   0  0  0  0  0  0  0  0  0  0  0  0
    6.3140    0.9372   18.6378 C   0  0  0  0  0  0  0  0  0  0  0  0
    5.5503    1.4573   18.1186 H   0  0  0  0  0  0  0  0  0  0  0  0
    6.3178    0.8295   20.0640 C   0  0  0  0  0  0  0  0  0  0  0  0
    5.6460    1.1893   20.8414 H   0  0  0  0  0  0  0  0  0  0  0  0
    6.8360   -2.6269   25.1548 H   0  0  0  0  0  0  0  0  0  0  0  0
    9.2000   -3.2995   25.0683 H   0  0  0  0  0  0  0  0  0  0  0  0
    8.6727   -2.2619   26.4365 H   0  0  0  0  0  0  0  0  0  0  0  0
    8.1447   -0.6113   23.8409 H   0  0  0  0  0  0  0  0  0  0  0  0
   10.1306   -2.1538   24.5295 H   0  0  0  0  0  0  0  0  0  0  0  0
   10.5660   -1.1551   26.4578 H   0  0  0  0  0  0  0  0  0  0  0  0
    9.4012   -0.9185   21.1830 H   0  0  0  0  0  0  0  0  0  0  0  0
    7.1364   -0.0943   22.1608 H   0  0  0  0  0  0  0  0  0  0  0  0
    8.9400   -0.6122   18.9418 H   0  0  0  0  0  0  0  0  0  0  0  0
   10.0052    0.2182   25.7750 H   0  0  0  0  0  0  0  0  0  0  0  0
 19 20  1  0  0  0  0
 20 21  2  0  0  0  0
 21 22  1  0  0  0  0
 18 19  1  0  0  0  0
 21 23  1  0  0  0  0
 18 23  2  0  0  0  0
 17 18  1  0  0  0  0
 23 24  1  0  0  0  0
 15 16  1  0  0  0  0
 14 16  1  0  0  0  0
 15 17  1  0  0  0  0
 14 15  1  0  0  0  0
 12 13  1  0  0  0  0
 13 14  1  0  0  0  0
  7 14  1  0  0  0  0
 10 13  2  0  0  0  0
  7  8  1  0  0  0  0
 10 11  1  0  0  0  0
  9 10  1  0  0  0  0
  6  8  1  0  0  0  0
  8  9  1  0  0  0  0
  5  6  1  0  0  0  0
  2  5  1  0  0  0  0
  2  3  1  0  0  0  0
  1  2  1  0  0  0  0
  2  4  1  0  0  0  0
  5 25  1  0  0  0  0
  6 26  1  0  0  0  0
  6 27  1  0  0  0  0
  7 28  1  0  0  0  0
  8 29  1  0  0  0  0
  9 30  1  0  0  0  0
 15 31  1  0  0  0  0
 17 32  1  0  0  0  0
 19 33  1  0  0  0  0
  9 34  1  0  0  0  0
M  CHG  1   9   1
M  END
> <Chemgauss4>
-8.003273

$$$$
