stable:False satoms:17 tatoms:24 sratio:0.7083333333333334
  -OEChem-08062405383D

 34 36  0     1  0  0  0  0  0999 V2000
   -5.4910   -3.4556  -26.9855 F   0  0  0  0  0  0  0  0  0  0  0  0
   -6.7503   -3.2650  -27.0085 C   0  0  0  0  0  0  0  0  0  0  0  0
   -7.2908   -4.4849  -27.2881 F   0  0  0  0  0  0  0  0  0  0  0  0
   -6.9796   -2.5719  -27.8561 H   0  0  0  0  0  0  0  0  0  0  0  0
   -7.2822   -2.8472  -25.7312 N   0  0  0  0  0  0  0  0  0  0  0  0
   -8.2163   -2.1921  -25.6025 C   0  0  0  0  0  0  0  0  0  0  0  0
   -8.7554   -1.0226  -23.9500 N   0  0  0  0  0  0  0  0  0  0  0  0
   -9.1090   -1.1831  -25.1356 C   0  0  3  0  0  0  0  0  0  0  0  0
  -10.0350   -0.4020  -25.8384 N   0  3  0  0  0  0  0  0  0  0  0  0
  -11.1827   -0.3519  -25.2083 C   0  0  0  0  0  0  0  0  0  0  0  0
  -12.0995   -0.0060  -25.6995 H   0  0  0  0  0  0  0  0  0  0  0  0
  -11.9902   -1.3418  -23.5275 H   0  0  0  0  0  0  0  0  0  0  0  0
  -11.1419   -0.8269  -23.9376 C   0  0  0  0  0  0  0  0  0  0  0  0
   -9.7661   -0.4393  -23.1679 C   0  0  1  0  0  0  0  0  0  0  0  0
   -8.9263   -0.1064  -21.9813 C   0  0  3  0  0  0  0  0  0  0  0  0
  -10.1874    0.7391  -21.8777 S   0  0  0  0  0  0  0  0  0  0  0  0
   -7.7597   -0.4263  -21.5541 N   0  0  0  0  0  0  0  0  0  0  0  0
   -7.5864    0.0042  -20.3611 C   0  0  0  0  0  0  0  0  0  0  0  0
   -8.2165   -0.2771  -19.1640 N   0  0  0  0  0  0  0  0  0  0  0  0
   -7.5646    0.1400  -18.0929 N   0  0  0  0  0  0  0  0  0  0  0  0
   -6.5039    0.7722  -18.5201 C   0  0  0  0  0  0  0  0  0  0  0  0
   -5.7821    1.2574  -17.9144 H   0  0  0  0  0  0  0  0  0  0  0  0
   -6.4057    0.7596  -19.9469 C   0  0  0  0  0  0  0  0  0  0  0  0
   -5.6824    1.1710  -20.6489 H   0  0  0  0  0  0  0  0  0  0  0  0
   -6.5406   -2.3512  -25.2795 H   0  0  0  0  0  0  0  0  0  0  0  0
   -8.9009   -3.0306  -25.4066 H   0  0  0  0  0  0  0  0  0  0  0  0
   -8.2836   -1.9037  -26.6619 H   0  0  0  0  0  0  0  0  0  0  0  0
   -7.9510   -0.4288  -23.9316 H   0  0  0  0  0  0  0  0  0  0  0  0
   -9.8740   -1.9241  -24.8608 H   0  0  0  0  0  0  0  0  0  0  0  0
  -10.1769   -0.7999  -26.7448 H   0  0  0  0  0  0  0  0  0  0  0  0
   -9.3916   -0.9134  -21.3963 H   0  0  0  0  0  0  0  0  0  0  0  0
   -7.0677   -0.0236  -22.1533 H   0  0  0  0  0  0  0  0  0  0  0  0
   -9.0927   -0.7562  -19.1125 H   0  0  0  0  0  0  0  0  0  0  0  0
   -9.6741    0.5256  -25.9343 H   0  0  0  0  0  0  0  0  0  0  0  0
 19 20  1  0  0  0  0
 20 21  2  0  0  0  0
 21 22  1  0  0  0  0
 18 19  1  0  0  0  0
 21 23  1  0  0  0  0
 18 23  2  0  0  0  0
 17 18  1  0  0  0  0
 23 24  1  0  0  0  0
 15 16  1  0  0  0  0
 14 16  1  0  0  0  0
 15 17  1  0  0  0  0
 14 15  1  0  0  0  0
 12 13  1  0  0  0  0
 13 14  1  0  0  0  0
  7 14  1  0  0  0  0
 10 13  2  0  0  0  0
  7  8  1  0  0  0  0
 10 11  1  0  0  0  0
  9 10  1  0  0  0  0
  6  8  1  0  0  0  0
  8  9  1  0  0  0  0
  5  6  1  0  0  0  0
  2  5  1  0  0  0  0
  2  3  1  0  0  0  0
  1  2  1  0  0  0  0
  2  4  1  0  0  0  0
  5 25  1  0  0  0  0
  6 26  1  0  0  0  0
  6 27  1  0  0  0  0
  7 28  1  0  0  0  0
  8 29  1  0  0  0  0
  9 30  1  0  0  0  0
 15 31  1  0  0  0  0
 17 32  1  0  0  0  0
 19 33  1  0  0  0  0
  9 34  1  0  0  0  0
M  CHG  1   9   1
M  END
> <Chemgauss4>
-7.747311

$$$$
