REMARK  0 active torsions:
REMARK  status: ('A' for Active; 'I' for Inactive)
ROOT
HETATM    1  C   UNL     1       8.299  -4.492  25.968  1.00  0.00     0.144 C 
HETATM    2  N   UNL     1       8.338  -3.922  24.638  1.00  0.00    -0.412 N 
ATOM      3  HN  UNL     1       7.734  -4.420  23.985  1.00  0.00     0.157 HD
HETATM    4  C   UNL     1       8.876  -3.060  24.152  1.00  0.00     0.111 C 
ENDROOT
TORSDOF 0
