stable:False satoms:16 tatoms:24 sratio:0.6666666666666666
  -OEChem-07092417393D

 24 24  0     1  0  0  0  0  0999 V2000
    7.2710   -4.8277   26.1874 H   0  0  0  0  0  0  0  0  0  0  0  0
    8.2990   -4.4917   25.9676 C   0  0  0  0  0  0  0  0  0  0  0  0
    9.0144   -5.3535   26.0393 H   0  0  0  0  0  0  0  0  0  0  0  0
    8.5929   -3.7297   26.7341 H   0  0  0  0  0  0  0  0  0  0  0  0
    8.3382   -3.9222   24.6384 N   0  3  0  0  0  0  0  0  0  0  0  0
    8.8755   -3.0597   24.1517 C   0  0  0  0  0  2  0  0  0  0  0  0
    9.0191   -2.2081   23.6667 H   0  0  0  0  0  0  0  0  0  0  0  0
   11.1677   -1.4874   23.1484 C   0  5  3  0  0  0  0  0  0  0  0  0
    9.9861    0.2723   23.6392 O   0  0  0  0  0  0  0  0  0  0  0  0
   12.5666    0.1864   23.9461 H   0  0  0  0  0  0  0  0  0  0  0  0
   12.3986   -0.5354   23.2402 C   0  0  0  0  0  0  0  0  0  0  0  0
   13.1409   -0.8633   22.6004 H   0  0  0  0  0  0  0  0  0  0  0  0
   11.2765   -2.5206   22.9000 H   0  0  0  0  0  0  0  0  0  0  0  0
   10.6142   -0.5208   23.2937 C   0  0  0  0  0  0  0  0  0  0  0  0
    8.5613    0.4366   21.2047 C   0  0  0  0  0  0  0  0  0  0  0  0
    9.5177    1.1229   21.2411 O   0  0  0  0  0  0  0  0  0  0  0  0
    7.7820   -0.4789   21.5490 O   0  0  0  0  0  0  0  0  0  0  0  0
    7.3585    0.2366   20.4294 C   0  0  2  0  0  0  0  0  0  0  0  0
    7.3647    0.2619   19.0556 C   0  0  0  0  0  0  0  0  0  0  0  0
    6.6401    0.5158   18.2244 N   0  0  0  0  0  0  0  0  0  0  0  0
    4.7671    1.1592   18.5648 H   0  0  0  0  0  0  0  0  0  0  0  0
    5.6507    0.8536   19.1011 C   0  0  0  0  0  0  0  0  0  0  0  0
    5.9370    0.7477   20.4205 C   0  0  0  0  0  0  0  0  0  0  0  0
    5.4440    0.9159   21.3527 H   0  0  0  0  0  0  0  0  0  0  0  0
 19 20  1  0  0  0  0
 20 22  1  0  0  0  0
 21 22  1  0  0  0  0
 18 19  1  0  0  0  0
 22 23  2  0  0  0  0
 18 23  1  0  0  0  0
 23 24  1  0  0  0  0
 15 18  1  0  0  0  0
 17 18  1  0  0  0  0
 15 16  2  0  0  0  0
 15 17  1  0  0  0  0
 11 12  1  0  0  0  0
  8 13  1  0  0  0  0
  8 11  1  0  0  0  0
  8 14  1  0  0  0  0
 11 14  1  0  0  0  0
 10 11  1  0  0  0  0
  9 14  2  0  0  0  0
  6  7  1  0  0  0  0
  5  6  1  0  0  0  0
  2  5  1  0  0  0  0
  2  3  1  0  0  0  0
  1  2  1  0  0  0  0
  2  4  1  0  0  0  0
M  CHG  2   5   1   8  -1
M  END
> <Shapegauss>
-183.019485

$$$$
