stable:False satoms:20 tatoms:24 sratio:0.8333333333333334
  -OEChem-07092417373D

 24 24  0     1  0  0  0  0  0999 V2000
    6.9354   -4.9700   26.3646 F   0  0  0  0  0  0  0  0  0  0  0  0
    8.1647   -4.4348   26.0505 C   0  0  0  0  0  0  0  0  0  0  0  0
    9.0381   -5.4365   26.2186 F   0  0  0  0  0  0  0  0  0  0  0  0
    8.4561   -3.5672   27.0277 F   0  0  0  0  0  0  0  0  0  0  0  0
    8.1200   -3.9230   24.7608 N   0  3  0  0  0  0  0  0  0  0  0  0
    8.9374   -3.1109   24.2569 C   0  0  0  0  0  0  0  0  0  0  0  0
    9.5901   -2.3446   23.7200 C   0  0  0  0  0  0  0  0  0  0  0  0
   10.3591   -1.3667   23.0787 C   0  0  3  0  0  0  0  0  0  0  0  0
   11.2868    0.6621   24.1276 H   0  0  0  0  0  0  0  0  0  0  0  0
   12.0988    0.0597   23.7648 C   0  0  0  0  0  0  0  0  0  0  0  0
   13.0995    0.3755   23.8349 H   0  0  0  0  0  0  0  0  0  0  0  0
   12.5072   -1.7146   22.7253 H   0  0  0  0  0  0  0  0  0  0  0  0
   11.7764   -1.0972   23.1771 C   0  0  0  0  0  0  0  0  0  0  0  0
    9.7703   -0.6303   22.3072 N   0  0  0  0  0  0  0  0  0  0  0  0
    9.0456    0.0406   21.3795 C   0  0  0  0  0  0  0  0  0  0  0  0
    9.4661    1.1051   20.9994 O   0  0  0  0  0  0  0  0  0  0  0  0
    7.9437   -0.5410   20.8960 N   0  0  0  0  0  0  0  0  0  0  0  0
    7.1558    0.0733   20.2715 C   0  0  0  0  0  0  0  0  0  0  0  0
    6.7916    0.2717   18.7075 C   0  0  0  0  0  0  0  0  0  0  0  0
    7.2713    0.0499   17.7879 H   0  0  0  0  0  0  0  0  0  0  0  0
    5.6612    0.7646   19.0616 C   0  0  0  0  0  0  0  0  0  0  0  0
    4.7682    1.1655   18.7397 H   0  0  0  0  0  0  0  0  0  0  0  0
    5.9194    0.5711   20.5469 C   0  0  0  0  0  0  0  0  0  0  0  0
    5.4214    0.7077   21.4922 H   0  0  0  0  0  0  0  0  0  0  0  0
 19 20  1  0  0  0  0
 19 21  2  0  0  0  0
 18 19  1  0  0  0  0
 21 22  1  0  0  0  0
 21 23  1  0  0  0  0
 18 23  2  0  0  0  0
 17 18  1  0  0  0  0
 23 24  1  0  0  0  0
 15 17  1  0  0  0  0
 15 16  2  0  0  0  0
 14 15  1  0  0  0  0
  8 14  1  0  0  0  0
 12 13  1  0  0  0  0
  8 13  1  0  0  0  0
  7  8  1  0  0  0  0
 10 13  2  0  0  0  0
  6  7  3  0  0  0  0
 10 11  1  0  0  0  0
  9 10  1  0  0  0  0
  5  6  1  0  0  0  0
  2  5  1  0  0  0  0
  2  3  1  0  0  0  0
  1  2  1  0  0  0  0
  2  4  1  0  0  0  0
M  CHG  1   5   1
M  END
> <Shapegauss>
-203.360077

$$$$
