MODEL 1
REMARK VINA RESULT:    -5.522      0.000      0.000
REMARK INTER + INTRA:          -5.522
REMARK INTER:                  -5.522
REMARK INTRA:                   0.000
REMARK UNBOUND:                 0.000
REMARK  0 active torsions:
REMARK  status: ('A' for Active; 'I' for Inactive)
ROOT
HETATM    1 BR   UNL     1       5.764  -5.674  23.108  1.00  0.00    -0.048 Br
HETATM    2  C   UNL     1      11.693  -1.149  22.990  1.00  0.00     0.240 C 
HETATM    3  S   UNL     1       9.358   0.694  23.828  1.00  0.00    -0.107 SA
HETATM    4  C   UNL     1       8.059  -0.396  21.583  1.00  0.00     0.071 C 
HETATM    5  C   UNL     1      10.651  -0.037  24.923  1.00  0.00     0.195 C 
HETATM    6  C   UNL     1       5.596  -3.064  21.895  1.00  0.00     0.110 C 
HETATM    7  C   UNL     1       6.444  -4.024  22.478  1.00  0.00     0.042 C 
HETATM    8  C   UNL     1       7.766  -3.748  22.579  1.00  0.00     0.120 C 
HETATM    9  C   UNL     1       7.321  -1.572  21.721  1.00  0.00     0.114 C 
HETATM   10  N   UNL     1      10.619  -2.152  23.017  1.00  0.00    -0.359 N 
HETATM   11  N   UNL     1       6.044  -1.916  21.412  1.00  0.00    -0.350 N 
ATOM     12  HN  UNL     1       5.456  -1.316  20.833  1.00  0.00     0.166 HD
HETATM   13  N   UNL     1       8.178  -2.469  22.361  1.00  0.00    -0.292 N 
HETATM   14  H   UNL     1      10.842  -2.942  23.609  1.00  0.00     0.162 HD
HETATM   15  C   UNL     1       8.980  -0.474  22.617  1.00  0.00     0.050 C 
HETATM   16  N   UNL     1      11.814  -0.500  24.233  1.00  0.00    -0.398 N 
HETATM   17  H   UNL     1      12.588  -0.665  24.848  1.00  0.00     0.155 HD
HETATM   18  C   UNL     1       9.359  -1.802  22.717  1.00  0.00     0.127 C 
ENDROOT
TORSDOF 0
ENDMDL
MODEL 2
REMARK VINA RESULT:    -5.434      3.613      5.731
REMARK INTER + INTRA:          -5.434
REMARK INTER:                  -5.434
REMARK INTRA:                   0.000
REMARK UNBOUND:                 0.000
REMARK  0 active torsions:
REMARK  status: ('A' for Active; 'I' for Inactive)
ROOT
HETATM    1 BR   UNL     1       8.743   0.900  24.025  1.00  0.00    -0.048 Br
HETATM    2  C   UNL     1       7.146  -6.026  21.762  1.00  0.00     0.240 C 
HETATM    3  S   UNL     1       5.491  -5.681  24.349  1.00  0.00    -0.107 SA
HETATM    4  C   UNL     1       7.928  -4.821  25.462  1.00  0.00     0.071 C 
HETATM    5  C   UNL     1       4.879  -5.583  22.611  1.00  0.00     0.195 C 
HETATM    6  C   UNL     1       8.696  -1.286  25.906  1.00  0.00     0.110 C 
HETATM    7  C   UNL     1       8.624  -0.916  24.549  1.00  0.00     0.042 C 
HETATM    8  C   UNL     1       8.472  -1.885  23.617  1.00  0.00     0.120 C 
HETATM    9  C   UNL     1       8.281  -3.473  25.381  1.00  0.00     0.114 C 
HETATM   10  N   UNL     1       7.510  -4.636  22.073  1.00  0.00    -0.359 N 
HETATM   11  N   UNL     1       8.652  -2.547  26.302  1.00  0.00    -0.350 N 
ATOM     12  HN  UNL     1       8.888  -2.813  27.259  1.00  0.00     0.166 HD
HETATM   13  N   UNL     1       8.131  -3.136  24.035  1.00  0.00    -0.292 N 
HETATM   14  H   UNL     1       7.329  -4.007  21.301  1.00  0.00     0.162 HD
HETATM   15  C   UNL     1       7.070  -4.991  24.385  1.00  0.00     0.050 C 
HETATM   16  N   UNL     1       5.751  -6.173  21.645  1.00  0.00    -0.398 N 
HETATM   17  H   UNL     1       5.303  -6.325  20.761  1.00  0.00     0.155 HD
HETATM   18  C   UNL     1       7.573  -4.223  23.348  1.00  0.00     0.127 C 
ENDROOT
TORSDOF 0
ENDMDL
MODEL 3
REMARK VINA RESULT:    -5.228      2.140      2.336
REMARK INTER + INTRA:          -5.228
REMARK INTER:                  -5.228
REMARK INTRA:                   0.000
REMARK UNBOUND:                 0.000
REMARK  0 active torsions:
REMARK  status: ('A' for Active; 'I' for Inactive)
ROOT
HETATM    1 BR   UNL     1       7.287  -4.669  23.416  1.00  0.00    -0.048 Br
HETATM    2  C   UNL     1      10.535   1.832  21.733  1.00  0.00     0.240 C 
HETATM    3  S   UNL     1       7.602   2.593  22.339  1.00  0.00    -0.107 SA
HETATM    4  C   UNL     1       6.985   0.530  20.528  1.00  0.00     0.071 C 
HETATM    5  C   UNL     1       9.062   2.802  23.449  1.00  0.00     0.195 C 
HETATM    6  C   UNL     1       5.985  -2.786  21.662  1.00  0.00     0.110 C 
HETATM    7  C   UNL     1       7.163  -3.097  22.368  1.00  0.00     0.042 C 
HETATM    8  C   UNL     1       8.215  -2.249  22.283  1.00  0.00     0.120 C 
HETATM    9  C   UNL     1       6.854  -0.778  20.997  1.00  0.00     0.114 C 
HETATM   10  N   UNL     1      10.030   0.498  22.085  1.00  0.00    -0.359 N 
HETATM   11  N   UNL     1       5.878  -1.715  20.892  1.00  0.00    -0.350 N 
ATOM     12  HN  UNL     1       5.095  -1.599  20.248  1.00  0.00     0.166 HD
HETATM   13  N   UNL     1       8.009  -1.016  21.744  1.00  0.00    -0.292 N 
HETATM   14  H   UNL     1      10.572   0.060  22.818  1.00  0.00     0.162 HD
HETATM   15  C   UNL     1       7.819   1.123  21.465  1.00  0.00     0.050 C 
HETATM   16  N   UNL     1      10.323   2.749  22.779  1.00  0.00    -0.398 N 
HETATM   17  H   UNL     1      11.075   3.099  23.342  1.00  0.00     0.155 HD
HETATM   18  C   UNL     1       8.754   0.169  21.830  1.00  0.00     0.127 C 
ENDROOT
TORSDOF 0
ENDMDL
MODEL 4
REMARK VINA RESULT:    -5.077      4.332      5.844
REMARK INTER + INTRA:          -5.077
REMARK INTER:                  -5.077
REMARK INTRA:                   0.000
REMARK UNBOUND:                 0.000
REMARK  0 active torsions:
REMARK  status: ('A' for Active; 'I' for Inactive)
ROOT
HETATM    1 BR   UNL     1       4.414  -4.895  29.592  1.00  0.00    -0.048 Br
HETATM    2  C   UNL     1       6.624  -1.898  23.128  1.00  0.00     0.240 C 
HETATM    3  S   UNL     1       6.822  -4.944  22.650  1.00  0.00    -0.107 SA
HETATM    4  C   UNL     1       8.275  -4.947  25.059  1.00  0.00     0.071 C 
HETATM    5  C   UNL     1       5.490  -3.807  22.067  1.00  0.00     0.195 C 
HETATM    6  C   UNL     1       6.744  -5.904  28.225  1.00  0.00     0.110 C 
HETATM    7  C   UNL     1       5.756  -4.902  28.256  1.00  0.00     0.042 C 
HETATM    8  C   UNL     1       5.781  -3.933  27.310  1.00  0.00     0.120 C 
HETATM    9  C   UNL     1       7.594  -5.074  26.271  1.00  0.00     0.114 C 
HETATM   10  N   UNL     1       6.129  -2.358  24.433  1.00  0.00    -0.359 N 
HETATM   11  N   UNL     1       7.716  -5.917  27.327  1.00  0.00    -0.350 N 
ATOM     12  HN  UNL     1       8.523  -6.534  27.426  1.00  0.00     0.166 HD
HETATM   13  N   UNL     1       6.586  -4.109  26.226  1.00  0.00    -0.292 N 
HETATM   14  H   UNL     1       5.225  -1.968  24.665  1.00  0.00     0.162 HD
HETATM   15  C   UNL     1       7.318  -4.408  24.210  1.00  0.00     0.050 C 
HETATM   16  N   UNL     1       5.850  -2.424  22.077  1.00  0.00    -0.398 N 
HETATM   17  H   UNL     1       5.221  -1.857  21.541  1.00  0.00     0.155 HD
HETATM   18  C   UNL     1       6.581  -3.507  24.960  1.00  0.00     0.127 C 
ENDROOT
TORSDOF 0
ENDMDL
MODEL 5
REMARK VINA RESULT:    -5.001      2.911      4.244
REMARK INTER + INTRA:          -5.001
REMARK INTER:                  -5.001
REMARK INTRA:                   0.000
REMARK UNBOUND:                 0.000
REMARK  0 active torsions:
REMARK  status: ('A' for Active; 'I' for Inactive)
ROOT
HETATM    1 BR   UNL     1       5.327   0.756  19.517  1.00  0.00    -0.048 Br
HETATM    2  C   UNL     1       7.273  -4.994  23.853  1.00  0.00     0.240 C 
HETATM    3  S   UNL     1       8.606  -2.552  25.200  1.00  0.00    -0.107 SA
HETATM    4  C   UNL     1       9.588  -2.016  22.618  1.00  0.00     0.071 C 
HETATM    5  C   UNL     1       7.060  -3.414  25.728  1.00  0.00     0.195 C 
HETATM    6  C   UNL     1       8.040   0.474  20.453  1.00  0.00     0.110 C 
HETATM    7  C   UNL     1       6.768  -0.125  20.373  1.00  0.00     0.042 C 
HETATM    8  C   UNL     1       6.590  -1.351  20.920  1.00  0.00     0.120 C 
HETATM    9  C   UNL     1       8.823  -1.247  21.739  1.00  0.00     0.114 C 
HETATM   10  N   UNL     1       6.784  -3.947  22.944  1.00  0.00    -0.359 N 
HETATM   11  N   UNL     1       9.076  -0.129  21.012  1.00  0.00    -0.350 N 
ATOM     12  HN  UNL     1      10.024   0.230  20.902  1.00  0.00     0.166 HD
HETATM   13  N   UNL     1       7.557  -1.837  21.745  1.00  0.00    -0.292 N 
HETATM   14  H   UNL     1       5.776  -3.952  22.854  1.00  0.00     0.162 HD
HETATM   15  C   UNL     1       8.641  -2.557  23.476  1.00  0.00     0.050 C 
HETATM   16  N   UNL     1       6.903  -4.726  25.184  1.00  0.00    -0.398 N 
HETATM   17  H   UNL     1       6.201  -5.260  25.660  1.00  0.00     0.155 HD
HETATM   18  C   UNL     1       7.529  -2.856  22.708  1.00  0.00     0.127 C 
ENDROOT
TORSDOF 0
ENDMDL
MODEL 6
REMARK VINA RESULT:    -4.985      1.891      2.355
REMARK INTER + INTRA:          -4.985
REMARK INTER:                  -4.985
REMARK INTRA:                   0.000
REMARK UNBOUND:                 0.000
REMARK  0 active torsions:
REMARK  status: ('A' for Active; 'I' for Inactive)
ROOT
HETATM    1 BR   UNL     1       6.414  -5.170  25.983  1.00  0.00    -0.048 Br
HETATM    2  C   UNL     1      10.988   0.618  24.876  1.00  0.00     0.240 C 
HETATM    3  S   UNL     1       8.807   0.960  22.713  1.00  0.00    -0.107 SA
HETATM    4  C   UNL     1       9.366  -1.733  22.119  1.00  0.00     0.071 C 
HETATM    5  C   UNL     1       8.953   1.880  24.307  1.00  0.00     0.195 C 
HETATM    6  C   UNL     1       7.248  -4.445  23.319  1.00  0.00     0.110 C 
HETATM    7  C   UNL     1       7.416  -4.207  24.696  1.00  0.00     0.042 C 
HETATM    8  C   UNL     1       8.314  -3.274  25.092  1.00  0.00     0.120 C 
HETATM    9  C   UNL     1       8.683  -2.742  22.800  1.00  0.00     0.114 C 
HETATM   10  N   UNL     1      10.147  -0.535  25.227  1.00  0.00    -0.359 N 
HETATM   11  N   UNL     1       7.958  -3.816  22.396  1.00  0.00    -0.350 N 
ATOM     12  HN  UNL     1       7.960  -4.125  21.424  1.00  0.00     0.166 HD
HETATM   13  N   UNL     1       8.820  -2.427  24.153  1.00  0.00    -0.292 N 
HETATM   14  H   UNL     1       9.863  -0.527  26.198  1.00  0.00     0.162 HD
HETATM   15  C   UNL     1       9.315  -0.662  23.000  1.00  0.00     0.050 C 
HETATM   16  N   UNL     1      10.248   1.815  24.907  1.00  0.00    -0.398 N 
HETATM   17  H   UNL     1      10.376   2.502  25.626  1.00  0.00     0.155 HD
HETATM   18  C   UNL     1       9.459  -1.185  24.274  1.00  0.00     0.127 C 
ENDROOT
TORSDOF 0
ENDMDL
MODEL 7
REMARK VINA RESULT:    -4.947     25.623     26.978
REMARK INTER + INTRA:          -4.947
REMARK INTER:                  -4.947
REMARK INTRA:                   0.000
REMARK UNBOUND:                 0.000
REMARK  0 active torsions:
REMARK  status: ('A' for Active; 'I' for Inactive)
ROOT
HETATM    1 BR   UNL     1       8.884  19.275   1.023  1.00  0.00    -0.048 Br
HETATM    2  C   UNL     1       6.880  12.091   0.861  1.00  0.00     0.240 C 
HETATM    3  S   UNL     1       6.503  12.910   3.817  1.00  0.00    -0.107 SA
HETATM    4  C   UNL     1       9.124  13.905   3.586  1.00  0.00     0.071 C 
HETATM    5  C   UNL     1       5.188  12.716   2.536  1.00  0.00     0.195 C 
HETATM    6  C   UNL     1       9.794  17.449   3.061  1.00  0.00     0.110 C 
HETATM    7  C   UNL     1       9.115  17.580   1.835  1.00  0.00     0.042 C 
HETATM    8  C   UNL     1       8.630  16.466   1.237  1.00  0.00     0.120 C 
HETATM    9  C   UNL     1       9.325  15.212   3.139  1.00  0.00     0.114 C 
HETATM   10  N   UNL     1       7.258  13.507   0.748  1.00  0.00    -0.359 N 
HETATM   11  N   UNL     1      10.004  16.276   3.637  1.00  0.00    -0.350 N 
ATOM     12  HN  UNL     1      10.649  16.176   4.421  1.00  0.00     0.166 HD
HETATM   13  N   UNL     1       8.581  15.314   1.962  1.00  0.00    -0.292 N 
HETATM   14  H   UNL     1       6.721  13.996   0.044  1.00  0.00     0.162 HD
HETATM   15  C   UNL     1       7.894  13.566   3.040  1.00  0.00     0.050 C 
HETATM   16  N   UNL     1       5.585  11.952   1.396  1.00  0.00    -0.398 N 
HETATM   17  H   UNL     1       4.806  11.657   0.838  1.00  0.00     0.155 HD
HETATM   18  C   UNL     1       7.846  14.134   1.778  1.00  0.00     0.127 C 
ENDROOT
TORSDOF 0
ENDMDL
MODEL 8
REMARK VINA RESULT:    -4.904      4.031      6.102
REMARK INTER + INTRA:          -4.904
REMARK INTER:                  -4.904
REMARK INTRA:                   0.000
REMARK UNBOUND:                 0.000
REMARK  0 active torsions:
REMARK  status: ('A' for Active; 'I' for Inactive)
ROOT
HETATM    1 BR   UNL     1       8.296   5.195  24.815  1.00  0.00    -0.048 Br
HETATM    2  C   UNL     1       6.421  -0.416  20.272  1.00  0.00     0.240 C 
HETATM    3  S   UNL     1       8.579  -1.634  22.118  1.00  0.00    -0.107 SA
HETATM    4  C   UNL     1      10.072   0.644  21.412  1.00  0.00     0.071 C 
HETATM    5  C   UNL     1       6.752  -1.869  22.231  1.00  0.00     0.195 C 
HETATM    6  C   UNL     1      10.326   3.535  23.616  1.00  0.00     0.110 C 
HETATM    7  C   UNL     1       8.954   3.848  23.659  1.00  0.00     0.042 C 
HETATM    8  C   UNL     1       8.106   3.169  22.851  1.00  0.00     0.120 C 
HETATM    9  C   UNL     1       9.937   1.813  22.162  1.00  0.00     0.114 C 
HETATM   10  N   UNL     1       6.666   0.754  21.126  1.00  0.00    -0.359 N 
HETATM   11  N   UNL     1      10.823   2.625  22.794  1.00  0.00    -0.350 N 
ATOM     12  HN  UNL     1      11.828   2.538  22.641  1.00  0.00     0.166 HD
HETATM   13  N   UNL     1       8.563   2.044  22.234  1.00  0.00    -0.292 N 
HETATM   14  H   UNL     1       5.818   1.108  21.550  1.00  0.00     0.162 HD
HETATM   15  C   UNL     1       8.866  -0.010  21.618  1.00  0.00     0.050 C 
HETATM   16  N   UNL     1       6.041  -1.534  21.037  1.00  0.00    -0.398 N 
HETATM   17  H   UNL     1       5.104  -1.890  21.033  1.00  0.00     0.155 HD
HETATM   18  C   UNL     1       7.883   0.966  21.651  1.00  0.00     0.127 C 
ENDROOT
TORSDOF 0
ENDMDL
MODEL 9
REMARK VINA RESULT:    -4.892      2.774      3.521
REMARK INTER + INTRA:          -4.892
REMARK INTER:                  -4.892
REMARK INTRA:                   0.000
REMARK UNBOUND:                 0.000
REMARK  0 active torsions:
REMARK  status: ('A' for Active; 'I' for Inactive)
ROOT
HETATM    1 BR   UNL     1       6.401  -5.638  27.980  1.00  0.00    -0.048 Br
HETATM    2  C   UNL     1       9.887  -1.850  22.582  1.00  0.00     0.240 C 
HETATM    3  S   UNL     1       6.890  -1.559  21.888  1.00  0.00    -0.107 SA
HETATM    4  C   UNL     1       6.836  -4.356  22.181  1.00  0.00     0.071 C 
HETATM    5  C   UNL     1       7.978  -0.301  22.690  1.00  0.00     0.195 C 
HETATM    6  C   UNL     1       5.611  -5.946  25.224  1.00  0.00     0.110 C 
HETATM    7  C   UNL     1       6.549  -5.384  26.109  1.00  0.00     0.042 C 
HETATM    8  C   UNL     1       7.570  -4.655  25.600  1.00  0.00     0.120 C 
HETATM    9  C   UNL     1       6.600  -4.910  23.441  1.00  0.00     0.114 C 
HETATM   10  N   UNL     1       9.324  -2.587  23.722  1.00  0.00    -0.359 N 
HETATM   11  N   UNL     1       5.706  -5.818  23.910  1.00  0.00    -0.350 N 
ATOM     12  HN  UNL     1       5.133  -6.377  23.278  1.00  0.00     0.166 HD
HETATM   13  N   UNL     1       7.504  -4.275  24.294  1.00  0.00    -0.292 N 
HETATM   14  H   UNL     1       9.646  -2.229  24.612  1.00  0.00     0.162 HD
HETATM   15  C   UNL     1       7.365  -3.108  22.475  1.00  0.00     0.050 C 
HETATM   16  N   UNL     1       9.376  -0.540  22.521  1.00  0.00    -0.398 N 
HETATM   17  H   UNL     1       9.935   0.261  22.746  1.00  0.00     0.155 HD
HETATM   18  C   UNL     1       8.176  -3.269  23.586  1.00  0.00     0.127 C 
ENDROOT
TORSDOF 0
ENDMDL
