REMARK  0 active torsions:
REMARK  status: ('A' for Active; 'I' for Inactive)
ROOT
HETATM    1 BR   UNL     1      12.887   1.882  22.849  1.00  0.00    -0.048 Br
HETATM    2  C   UNL     1       6.055  -1.112  22.895  1.00  0.00     0.240 C 
HETATM    3  S   UNL     1       7.946  -3.554  23.002  1.00  0.00    -0.107 SA
HETATM    4  C   UNL     1       9.203  -2.326  20.805  1.00  0.00     0.071 C 
HETATM    5  C   UNL     1       7.008  -2.806  24.405  1.00  0.00     0.195 C 
HETATM    6  C   UNL     1      12.266  -0.387  21.181  1.00  0.00     0.110 C 
HETATM    7  C   UNL     1      11.753   0.590  22.055  1.00  0.00     0.042 C 
HETATM    8  C   UNL     1      10.425   0.595  22.319  1.00  0.00     0.120 C 
HETATM    9  C   UNL     1      10.219  -1.395  21.028  1.00  0.00     0.114 C 
HETATM   10  N   UNL     1       7.338  -0.396  22.925  1.00  0.00    -0.359 N 
HETATM   11  N   UNL     1      11.496  -1.281  20.582  1.00  0.00    -0.350 N 
ATOM     12  HN  UNL     1      11.847  -1.859  19.818  1.00  0.00     0.166 HD
HETATM   13  N   UNL     1       9.689  -0.489  21.948  1.00  0.00    -0.292 N 
HETATM   14  H   UNL     1       7.387   0.280  23.676  1.00  0.00     0.162 HD
HETATM   15  C   UNL     1       8.456  -2.269  21.973  1.00  0.00     0.050 C 
HETATM   16  N   UNL     1       5.923  -1.966  24.006  1.00  0.00    -0.398 N 
HETATM   17  H   UNL     1       5.290  -1.769  24.758  1.00  0.00     0.155 HD
HETATM   18  C   UNL     1       8.430  -0.942  22.367  1.00  0.00     0.127 C 
ENDROOT
TORSDOF 0
