stable:False satoms:21 tatoms:24 sratio:0.875
  -OEChem-08052418053D

 26 25  0     1  0  0  0  0  0999 V2000
   11.4016   -0.3218   21.5840 H   0  0  0  0  0  0  0  0  0  0  0  0
   10.6713   -0.8394   22.2233 C   0  0  0  0  0  0  0  0  0  0  0  0
   11.6403    0.3144   24.9211 C   0  0  0  0  0  2  0  0  0  0  0  0
    9.2100   -0.3223   23.6425 H   0  0  0  0  0  0  0  0  0  0  0  0
    6.8009    0.4963   19.1901 C   0  0  0  0  0  0  0  0  0  0  0  0
   11.4454    1.7046   23.3245 H   0  0  0  0  0  0  0  0  0  0  0  0
   10.1134    1.6938   21.2146 O   0  0  0  0  0  0  0  0  0  0  0  0
    4.6372    1.0066   18.7100 H   0  0  0  0  0  0  0  0  0  0  0  0
    7.0574    0.2693   18.0405 O   0  0  0  0  0  0  0  0  0  0  0  0
   13.1299   -0.7719   25.4033 H   0  0  0  0  0  0  0  0  0  0  0  0
   12.6200   -0.5068   24.5849 N   0  3  0  0  0  0  0  0  0  0  0  0
    8.4362    1.5820   19.7489 H   0  0  0  0  0  0  0  0  0  0  0  0
   11.1947   -1.5619   22.8668 H   0  0  0  0  0  0  0  0  0  0  0  0
    5.4202    0.4788   19.5986 N   0  0  0  0  0  0  0  0  0  0  0  0
    8.5812   -0.0033   20.9647 N   0  0  0  0  0  0  0  0  0  0  0  0
   10.0872    1.6982   24.4773 H   0  0  0  0  0  0  0  0  0  0  0  0
   10.8266    1.0679   23.9631 C   0  0  0  0  0  0  0  0  0  0  0  0
   10.0159    0.0786   23.0043 C   0  0  1  0  0  0  0  0  0  0  0  0
    9.5999    0.6455   21.6119 C   0  0  0  0  0  0  0  0  0  0  0  0
    4.6372    1.0066   18.7100 C   0  0  0  0  0  2  0  0  0  0  0  0
    7.8989    0.7617   20.0485 N   0  0  0  0  0  0  0  0  0  0  0  0
   12.2327   -1.3216   24.1536 H   0  0  0  0  0  0  0  0  0  0  0  0
    9.9432   -1.3705   21.5926 H   0  0  0  0  0  0  0  0  0  0  0  0
    5.1015    0.1024   20.4685 H   0  0  0  0  0  0  0  0  0  0  0  0
    8.3517   -0.9598   21.1450 H   0  0  0  0  0  0  0  0  0  0  0  0
   13.2348   -0.0487   23.9429 H   0  0  0  0  0  0  0  0  0  0  0  0
 14 20  1  0  0  0  0
  8 20  1  0  0  0  0
  5  9  2  0  0  0  0
  5 14  1  0  0  0  0
  5 21  1  0  0  0  0
  2 13  1  0  0  0  0
 15 21  1  0  0  0  0
 15 19  1  0  0  0  0
 12 21  1  0  0  0  0
  1  2  1  0  0  0  0
  2 18  1  0  0  0  0
  4 18  1  0  0  0  0
 18 19  1  0  0  0  0
  7 19  2  0  0  0  0
 11 22  1  0  0  0  0
 17 18  1  0  0  0  0
 10 11  1  0  0  0  0
  3 11  1  0  0  0  0
  3 17  1  0  0  0  0
 16 17  1  0  0  0  0
  6 17  1  0  0  0  0
  2 23  1  0  0  0  0
 14 24  1  0  0  0  0
 15 25  1  0  0  0  0
 11 26  1  0  0  0  0
M  CHG  1  11   1
M  END
> <Chemgauss4>
-5.635318

$$$$
