stable:False satoms:21 tatoms:24 sratio:0.875
  -OEChem-08052418053D

 26 25  0     1  0  0  0  0  0999 V2000
  -11.4465   -0.3817  -21.5720 H   0  0  0  0  0  0  0  0  0  0  0  0
  -10.7163   -0.8993  -22.2114 C   0  0  0  0  0  0  0  0  0  0  0  0
  -11.6852    0.2544  -24.9092 C   0  0  0  0  0  2  0  0  0  0  0  0
   -9.2550   -0.3822  -23.6306 H   0  0  0  0  0  0  0  0  0  0  0  0
   -6.8459    0.4364  -19.1782 C   0  0  0  0  0  0  0  0  0  0  0  0
  -11.4903    1.6447  -23.3125 H   0  0  0  0  0  0  0  0  0  0  0  0
  -10.1583    1.6338  -21.2027 O   0  0  0  0  0  0  0  0  0  0  0  0
   -4.6822    0.9467  -18.6981 H   0  0  0  0  0  0  0  0  0  0  0  0
   -7.1024    0.2093  -18.0286 O   0  0  0  0  0  0  0  0  0  0  0  0
  -13.1749   -0.8318  -25.3913 H   0  0  0  0  0  0  0  0  0  0  0  0
  -12.6650   -0.5667  -24.5730 N   0  3  0  0  0  0  0  0  0  0  0  0
   -8.4812    1.5220  -19.7370 H   0  0  0  0  0  0  0  0  0  0  0  0
  -11.2397   -1.6218  -22.8549 H   0  0  0  0  0  0  0  0  0  0  0  0
   -5.4652    0.4189  -19.5867 N   0  0  0  0  0  0  0  0  0  0  0  0
   -8.6262   -0.0632  -20.9528 N   0  0  0  0  0  0  0  0  0  0  0  0
  -10.1322    1.6383  -24.4654 H   0  0  0  0  0  0  0  0  0  0  0  0
  -10.8716    1.0080  -23.9511 C   0  0  0  0  0  0  0  0  0  0  0  0
  -10.0608    0.0187  -22.9923 C   0  0  1  0  0  0  0  0  0  0  0  0
   -9.6449    0.5856  -21.6000 C   0  0  0  0  0  0  0  0  0  0  0  0
   -4.6822    0.9467  -18.6981 C   0  0  0  0  0  2  0  0  0  0  0  0
   -7.9438    0.7018  -20.0365 N   0  0  0  0  0  0  0  0  0  0  0  0
  -12.2777   -1.3815  -24.1416 H   0  0  0  0  0  0  0  0  0  0  0  0
   -9.9882   -1.4304  -21.5807 H   0  0  0  0  0  0  0  0  0  0  0  0
   -5.1465    0.0425  -20.4566 H   0  0  0  0  0  0  0  0  0  0  0  0
   -8.3967   -1.0197  -21.1330 H   0  0  0  0  0  0  0  0  0  0  0  0
  -13.2798   -0.1086  -23.9310 H   0  0  0  0  0  0  0  0  0  0  0  0
 14 20  1  0  0  0  0
  8 20  1  0  0  0  0
  5  9  2  0  0  0  0
  5 14  1  0  0  0  0
  5 21  1  0  0  0  0
  2 13  1  0  0  0  0
 15 21  1  0  0  0  0
 15 19  1  0  0  0  0
 12 21  1  0  0  0  0
  1  2  1  0  0  0  0
  2 18  1  0  0  0  0
  4 18  1  0  0  0  0
 18 19  1  0  0  0  0
  7 19  2  0  0  0  0
 11 22  1  0  0  0  0
 17 18  1  0  0  0  0
 10 11  1  0  0  0  0
  3 11  1  0  0  0  0
  3 17  1  0  0  0  0
 16 17  1  0  0  0  0
  6 17  1  0  0  0  0
  2 23  1  0  0  0  0
 14 24  1  0  0  0  0
 15 25  1  0  0  0  0
 11 26  1  0  0  0  0
M  CHG  1  11   1
M  END
> <Chemgauss4>
-5.601319

$$$$
