stable:False satoms:18 tatoms:24 sratio:0.75
  -OEChem-07092417323D

 24 24  0     1  0  0  0  0  0999 V2000
    6.3177   -3.4781   23.6244 O   0  0  0  0  0  0  0  0  0  0  0  0
   11.2027   -0.8034   24.3934 O   0  0  0  0  0  0  0  0  0  0  0  0
    7.3679   -3.0946   23.2284 C   0  0  0  0  0  0  0  0  0  0  0  0
    8.5094   -3.4267   23.7870 O   0  0  0  0  0  0  0  0  0  0  0  0
    8.0368   -1.5981   25.1129 H   0  0  0  0  0  0  0  0  0  0  0  0
    7.3793   -2.3353   22.0953 O   0  0  0  0  0  0  0  0  0  0  0  0
    8.1923   -0.7445   20.4715 O   0  0  0  0  0  0  0  0  0  0  0  0
    9.2476   -2.3545   21.2180 H   0  0  0  0  0  0  0  0  0  0  0  0
   10.4393   -0.2821   24.6777 H   0  0  0  0  0  0  0  0  0  0  0  0
    9.2139   -2.7643   23.8071 H   0  0  0  0  0  0  0  0  0  0  0  0
    8.4835   -1.6264   21.5049 C   0  0  1  0  0  0  0  0  0  0  0  0
   13.2477    0.1303   23.0987 H   0  0  0  0  0  0  0  0  0  0  0  0
    8.3249   -0.7071   24.5127 C   0  3  0  0  0  0  0  0  0  0  0  0
   12.2963    0.1459   22.7479 C   0  5  0  0  0  0  0  0  0  0  0  0
    8.1552   -0.2076   23.4430 C   0  0  1  0  0  0  0  0  0  0  0  0
    8.8182    0.4518   24.5123 O   0  0  0  0  0  0  0  0  0  0  0  0
    6.7560   -1.8472   19.5584 H   0  0  0  0  0  0  0  0  0  0  0  0
    8.9792   -0.6168   22.2569 N   0  3  0  0  0  0  0  0  0  0  0  0
   10.2074   -0.4331   22.1088 N   0  0  0  0  0  0  0  0  0  0  0  0
    7.0123   -0.2391   18.8707 H   0  0  0  0  0  0  0  0  0  0  0  0
    6.9492   -0.8089   19.7887 C   0  0  0  0  0  0  0  0  0  0  0  0
    6.1507   -0.4317   20.4166 H   0  0  0  0  0  0  0  0  0  0  0  0
    7.1749    0.0873   22.9855 H   0  0  0  0  0  0  0  0  0  0  0  0
   11.1218   -0.3059   23.0761 C   0  0  0  0  0  0  0  0  0  0  0  0
 20 21  1  0  0  0  0
 17 21  1  0  0  0  0
 21 22  1  0  0  0  0
  7 21  1  0  0  0  0
  7 11  1  0  0  0  0
  8 11  1  0  0  0  0
  6 11  1  0  0  0  0
 11 18  1  0  0  0  0
  3  6  1  0  0  0  0
 18 19  2  3  0  0  0
 19 24  1  0  0  0  0
 15 18  1  0  0  0  0
 14 24  2  0  0  0  0
 12 14  1  0  0  0  0
 15 23  1  0  0  0  0
  2 24  1  0  0  0  0
  1  3  2  0  0  0  0
  3  4  1  0  0  0  0
 15 16  1  0  0  0  0
 13 15  1  0  0  0  0
  4 10  1  0  0  0  0
  2  9  1  0  0  0  0
 13 16  1  0  0  0  0
  5 13  1  0  0  0  0
M  CHG  3  13   1  14  -1  18   1
M  END
> <Shapegauss>
-129.149551

$$$$
