MODEL 1
REMARK VINA RESULT:    -3.198      0.000      0.000
REMARK INTER + INTRA:          -4.252
REMARK INTER:                  -4.132
REMARK INTRA:                  -0.120
REMARK UNBOUND:                -0.120
REMARK  5 active torsions:
REMARK  status: ('A' for Active; 'I' for Inactive)
REMARK    1  A    between atoms: C_3  and  C_4 
REMARK    2  A    between atoms: C_4  and  C_5 
REMARK    3  A    between atoms: C_5  and  O_9 
REMARK    4  A    between atoms: N_6  and  C_7 
REMARK    5  A    between atoms: C_7  and  O_9 
ROOT
HETATM    1  O   UNL     1       9.785  -2.254  23.138  1.00  0.00    -0.371 OA
ENDROOT
BRANCH   1   2
HETATM    2  C   UNL     1      10.951  -1.361  22.999  1.00  0.00     0.170 C 
BRANCH   2   3
HETATM    3  C   UNL     1      12.521  -1.588  23.007  1.00  0.00     0.026 C 
BRANCH   3   4
HETATM    4  C   UNL     1      13.200  -0.678  23.998  1.00  0.00    -0.002 C 
HETATM    5  C   UNL     1      12.167   0.458  24.251  1.00  0.00     0.005 C 
ENDBRANCH   3   4
ENDBRANCH   2   3
ENDBRANCH   1   2
BRANCH   1   6
HETATM    6  C   UNL     1       9.001  -2.640  24.202  1.00  0.00     0.299 C 
BRANCH   6   7
HETATM    7  N   UNL     1       8.109  -3.672  23.656  1.00  0.00    -0.343 N 
HETATM    8  C   UNL     1       7.730  -3.379  22.580  1.00  0.00     0.057 C 
HETATM    9  C   UNL     1       8.156  -4.827  24.556  1.00  0.00     0.160 C 
ENDBRANCH   6   7
ENDBRANCH   1   6
TORSDOF 5
ENDMDL
MODEL 2
REMARK VINA RESULT:    -3.136      4.619      6.377
REMARK INTER + INTRA:          -4.173
REMARK INTER:                  -4.101
REMARK INTRA:                  -0.072
REMARK UNBOUND:                -0.120
REMARK  5 active torsions:
REMARK  status: ('A' for Active; 'I' for Inactive)
REMARK    1  A    between atoms: C_3  and  C_4 
REMARK    2  A    between atoms: C_4  and  C_5 
REMARK    3  A    between atoms: C_5  and  O_9 
REMARK    4  A    between atoms: N_6  and  C_7 
REMARK    5  A    between atoms: C_7  and  O_9 
ROOT
HETATM    1  O   UNL     1       8.638   0.703  20.847  1.00  0.00    -0.371 OA
ENDROOT
BRANCH   1   2
HETATM    2  C   UNL     1       7.347   0.715  20.133  1.00  0.00     0.170 C 
BRANCH   2   3
HETATM    3  C   UNL     1       6.816   0.035  18.802  1.00  0.00     0.026 C 
BRANCH   3   4
HETATM    4  C   UNL     1       5.858   0.939  18.070  1.00  0.00    -0.002 C 
HETATM    5  C   UNL     1       4.893   1.457  19.176  1.00  0.00     0.005 C 
ENDBRANCH   3   4
ENDBRANCH   2   3
ENDBRANCH   1   2
BRANCH   1   6
HETATM    6  C   UNL     1       9.350  -0.268  21.514  1.00  0.00     0.299 C 
BRANCH   6   7
HETATM    7  N   UNL     1      10.481   0.446  22.121  1.00  0.00    -0.343 N 
HETATM    8  C   UNL     1      10.404   1.606  21.928  1.00  0.00     0.057 C 
HETATM    9  C   UNL     1      11.223  -0.510  22.947  1.00  0.00     0.160 C 
ENDBRANCH   6   7
ENDBRANCH   1   6
TORSDOF 5
ENDMDL
MODEL 3
REMARK VINA RESULT:    -3.130     23.794     25.813
REMARK INTER + INTRA:          -4.166
REMARK INTER:                  -3.988
REMARK INTRA:                  -0.178
REMARK UNBOUND:                -0.120
REMARK  5 active torsions:
REMARK  status: ('A' for Active; 'I' for Inactive)
REMARK    1  A    between atoms: C_3  and  C_4 
REMARK    2  A    between atoms: C_4  and  C_5 
REMARK    3  A    between atoms: C_5  and  O_9 
REMARK    4  A    between atoms: N_6  and  C_7 
REMARK    5  A    between atoms: C_7  and  O_9 
ROOT
HETATM    1  O   UNL     1       1.479 -21.155   8.295  1.00  0.00    -0.371 OA
ENDROOT
BRANCH   1   2
HETATM    2  C   UNL     1       1.932 -22.550   8.134  1.00  0.00     0.170 C 
BRANCH   2   3
HETATM    3  C   UNL     1       3.349 -23.234   7.937  1.00  0.00     0.026 C 
BRANCH   3   4
HETATM    4  C   UNL     1       3.464 -24.499   8.747  1.00  0.00    -0.002 C 
HETATM    5  C   UNL     1       2.952 -24.101  10.162  1.00  0.00     0.005 C 
ENDBRANCH   3   4
ENDBRANCH   2   3
ENDBRANCH   1   2
BRANCH   1   6
HETATM    6  C   UNL     1       1.570 -20.234   9.313  1.00  0.00     0.299 C 
BRANCH   6   7
HETATM    7  N   UNL     1       2.522 -19.226   8.824  1.00  0.00    -0.343 N 
HETATM    8  C   UNL     1       3.595 -19.402   9.275  1.00  0.00     0.057 C 
HETATM    9  C   UNL     1       1.856 -18.459   7.767  1.00  0.00     0.160 C 
ENDBRANCH   6   7
ENDBRANCH   1   6
TORSDOF 5
ENDMDL
MODEL 4
REMARK VINA RESULT:    -3.125      3.391      3.955
REMARK INTER + INTRA:          -4.159
REMARK INTER:                  -4.046
REMARK INTRA:                  -0.113
REMARK UNBOUND:                -0.120
REMARK  5 active torsions:
REMARK  status: ('A' for Active; 'I' for Inactive)
REMARK    1  A    between atoms: C_3  and  C_4 
REMARK    2  A    between atoms: C_4  and  C_5 
REMARK    3  A    between atoms: C_5  and  O_9 
REMARK    4  A    between atoms: N_6  and  C_7 
REMARK    5  A    between atoms: C_7  and  O_9 
ROOT
HETATM    1  O   UNL     1       9.467   1.324  21.455  1.00  0.00    -0.371 OA
ENDROOT
BRANCH   1   2
HETATM    2  C   UNL     1      10.597   1.955  22.164  1.00  0.00     0.170 C 
BRANCH   2   3
HETATM    3  C   UNL     1      10.952   2.181  23.693  1.00  0.00     0.026 C 
BRANCH   3   4
HETATM    4  C   UNL     1      10.847   0.897  24.475  1.00  0.00    -0.002 C 
HETATM    5  C   UNL     1      12.262   0.260  24.366  1.00  0.00     0.005 C 
ENDBRANCH   3   4
ENDBRANCH   2   3
ENDBRANCH   1   2
BRANCH   1   6
HETATM    6  C   UNL     1       9.163   0.026  21.110  1.00  0.00     0.299 C 
BRANCH   6   7
HETATM    7  N   UNL     1       7.722   0.043  20.821  1.00  0.00    -0.343 N 
HETATM    8  C   UNL     1       7.522   0.160  19.666  1.00  0.00     0.057 C 
HETATM    9  C   UNL     1       7.014  -0.303  22.056  1.00  0.00     0.160 C 
ENDBRANCH   6   7
ENDBRANCH   1   6
TORSDOF 5
ENDMDL
MODEL 5
REMARK VINA RESULT:    -3.104      3.821      5.287
REMARK INTER + INTRA:          -4.132
REMARK INTER:                  -4.079
REMARK INTRA:                  -0.053
REMARK UNBOUND:                -0.120
REMARK  5 active torsions:
REMARK  status: ('A' for Active; 'I' for Inactive)
REMARK    1  A    between atoms: C_3  and  C_4 
REMARK    2  A    between atoms: C_4  and  C_5 
REMARK    3  A    between atoms: C_5  and  O_9 
REMARK    4  A    between atoms: N_6  and  C_7 
REMARK    5  A    between atoms: C_7  and  O_9 
ROOT
HETATM    1  O   UNL     1      11.447   1.698  23.760  1.00  0.00    -0.371 OA
ENDROOT
BRANCH   1   2
HETATM    2  C   UNL     1      11.227   3.157  23.745  1.00  0.00     0.170 C 
BRANCH   2   3
HETATM    3  C   UNL     1      12.151   4.409  23.439  1.00  0.00     0.026 C 
BRANCH   3   4
HETATM    4  C   UNL     1      11.816   5.570  24.340  1.00  0.00    -0.002 C 
HETATM    5  C   UNL     1      10.449   6.090  23.807  1.00  0.00     0.005 C 
ENDBRANCH   3   4
ENDBRANCH   2   3
ENDBRANCH   1   2
BRANCH   1   6
HETATM    6  C   UNL     1      10.896   0.642  23.070  1.00  0.00     0.299 C 
BRANCH   6   7
HETATM    7  N   UNL     1      11.701  -0.523  23.460  1.00  0.00    -0.343 N 
HETATM    8  C   UNL     1      11.424  -1.467  22.812  1.00  0.00     0.057 C 
HETATM    9  C   UNL     1      12.733  -0.061  24.392  1.00  0.00     0.160 C 
ENDBRANCH   6   7
ENDBRANCH   1   6
TORSDOF 5
ENDMDL
MODEL 6
REMARK VINA RESULT:    -3.090     22.573     23.323
REMARK INTER + INTRA:          -4.113
REMARK INTER:                  -3.904
REMARK INTRA:                  -0.209
REMARK UNBOUND:                -0.120
REMARK  5 active torsions:
REMARK  status: ('A' for Active; 'I' for Inactive)
REMARK    1  A    between atoms: C_3  and  C_4 
REMARK    2  A    between atoms: C_4  and  C_5 
REMARK    3  A    between atoms: C_5  and  O_9 
REMARK    4  A    between atoms: N_6  and  C_7 
REMARK    5  A    between atoms: C_7  and  O_9 
ROOT
HETATM    1  O   UNL     1      20.993 -20.601  17.492  1.00  0.00    -0.371 OA
ENDROOT
BRANCH   1   2
HETATM    2  C   UNL     1      19.832 -20.609  16.582  1.00  0.00     0.170 C 
BRANCH   2   3
HETATM    3  C   UNL     1      19.618 -20.201  15.064  1.00  0.00     0.026 C 
BRANCH   3   4
HETATM    4  C   UNL     1      20.927 -19.858  14.400  1.00  0.00    -0.002 C 
HETATM    5  C   UNL     1      20.524 -19.388  12.973  1.00  0.00     0.005 C 
ENDBRANCH   3   4
ENDBRANCH   2   3
ENDBRANCH   1   2
BRANCH   1   6
HETATM    6  C   UNL     1      21.749 -21.589  18.083  1.00  0.00     0.299 C 
BRANCH   6   7
HETATM    7  N   UNL     1      22.782 -21.916  17.090  1.00  0.00    -0.343 N 
HETATM    8  C   UNL     1      22.590 -22.974  16.611  1.00  0.00     0.057 C 
HETATM    9  C   UNL     1      23.594 -20.715  16.879  1.00  0.00     0.160 C 
ENDBRANCH   6   7
ENDBRANCH   1   6
TORSDOF 5
ENDMDL
MODEL 7
REMARK VINA RESULT:    -3.051     22.896     24.369
REMARK INTER + INTRA:          -4.063
REMARK INTER:                  -3.934
REMARK INTRA:                  -0.129
REMARK UNBOUND:                -0.120
REMARK  5 active torsions:
REMARK  status: ('A' for Active; 'I' for Inactive)
REMARK    1  A    between atoms: C_3  and  C_4 
REMARK    2  A    between atoms: C_4  and  C_5 
REMARK    3  A    between atoms: C_5  and  O_9 
REMARK    4  A    between atoms: N_6  and  C_7 
REMARK    5  A    between atoms: C_7  and  O_9 
ROOT
HETATM    1  O   UNL     1       1.118 -18.563  10.275  1.00  0.00    -0.371 OA
ENDROOT
BRANCH   1   2
HETATM    2  C   UNL     1       2.177 -19.295   9.554  1.00  0.00     0.170 C 
BRANCH   2   3
HETATM    3  C   UNL     1       2.306 -20.769   8.982  1.00  0.00     0.026 C 
BRANCH   3   4
HETATM    4  C   UNL     1       3.483 -20.893   8.049  1.00  0.00    -0.002 C 
HETATM    5  C   UNL     1       3.524 -22.403   7.676  1.00  0.00     0.005 C 
ENDBRANCH   3   4
ENDBRANCH   2   3
ENDBRANCH   1   2
BRANCH   1   6
HETATM    6  C   UNL     1       0.432 -17.394  10.032  1.00  0.00     0.299 C 
BRANCH   6   7
HETATM    7  N   UNL     1      -0.587 -17.757   9.037  1.00  0.00    -0.343 N 
HETATM    8  C   UNL     1      -1.458 -18.378   9.528  1.00  0.00     0.057 C 
HETATM    9  C   UNL     1      -0.275 -17.040   7.797  1.00  0.00     0.160 C 
ENDBRANCH   6   7
ENDBRANCH   1   6
TORSDOF 5
ENDMDL
MODEL 8
REMARK VINA RESULT:    -3.033      3.035      3.423
REMARK INTER + INTRA:          -4.039
REMARK INTER:                  -3.828
REMARK INTRA:                  -0.212
REMARK UNBOUND:                -0.120
REMARK  5 active torsions:
REMARK  status: ('A' for Active; 'I' for Inactive)
REMARK    1  A    between atoms: C_3  and  C_4 
REMARK    2  A    between atoms: C_4  and  C_5 
REMARK    3  A    between atoms: C_5  and  O_9 
REMARK    4  A    between atoms: N_6  and  C_7 
REMARK    5  A    between atoms: C_7  and  O_9 
ROOT
HETATM    1  O   UNL     1      10.508  -0.257  21.617  1.00  0.00    -0.371 OA
ENDROOT
BRANCH   1   2
HETATM    2  C   UNL     1      11.101  -1.143  22.636  1.00  0.00     0.170 C 
BRANCH   2   3
HETATM    3  C   UNL     1      12.330  -1.013  23.631  1.00  0.00     0.026 C 
BRANCH   3   4
HETATM    4  C   UNL     1      12.310   0.310  24.354  1.00  0.00    -0.002 C 
HETATM    5  C   UNL     1      10.965   0.303  25.135  1.00  0.00     0.005 C 
ENDBRANCH   3   4
ENDBRANCH   2   3
ENDBRANCH   1   2
BRANCH   1   6
HETATM    6  C   UNL     1       9.795   0.919  21.674  1.00  0.00     0.299 C 
BRANCH   6   7
HETATM    7  N   UNL     1       8.400   0.525  21.433  1.00  0.00    -0.343 N 
HETATM    8  C   UNL     1       8.281   0.006  20.382  1.00  0.00     0.057 C 
HETATM    9  C   UNL     1       7.656   0.725  22.679  1.00  0.00     0.160 C 
ENDBRANCH   6   7
ENDBRANCH   1   6
TORSDOF 5
ENDMDL
MODEL 9
REMARK VINA RESULT:    -3.024      2.057      5.330
REMARK INTER + INTRA:          -4.028
REMARK INTER:                  -3.943
REMARK INTRA:                  -0.085
REMARK UNBOUND:                -0.120
REMARK  5 active torsions:
REMARK  status: ('A' for Active; 'I' for Inactive)
REMARK    1  A    between atoms: C_3  and  C_4 
REMARK    2  A    between atoms: C_4  and  C_5 
REMARK    3  A    between atoms: C_5  and  O_9 
REMARK    4  A    between atoms: N_6  and  C_7 
REMARK    5  A    between atoms: C_7  and  O_9 
ROOT
HETATM    1  O   UNL     1       9.375  -2.537  23.742  1.00  0.00    -0.371 OA
ENDROOT
BRANCH   1   2
HETATM    2  C   UNL     1       8.234  -3.397  23.378  1.00  0.00     0.170 C 
BRANCH   2   3
HETATM    3  C   UNL     1       7.795  -4.871  23.768  1.00  0.00     0.026 C 
BRANCH   3   4
HETATM    4  C   UNL     1       6.530  -5.272  23.053  1.00  0.00    -0.002 C 
HETATM    5  C   UNL     1       7.025  -5.966  21.752  1.00  0.00     0.005 C 
ENDBRANCH   3   4
ENDBRANCH   2   3
ENDBRANCH   1   2
BRANCH   1   6
HETATM    6  C   UNL     1      10.315  -1.841  23.016  1.00  0.00     0.299 C 
BRANCH   6   7
HETATM    7  N   UNL     1      11.013  -1.007  24.005  1.00  0.00    -0.343 N 
HETATM    8  C   UNL     1      12.148  -0.874  23.723  1.00  0.00     0.057 C 
HETATM    9  C   UNL     1      10.004  -0.446  24.907  1.00  0.00     0.160 C 
ENDBRANCH   6   7
ENDBRANCH   1   6
TORSDOF 5
ENDMDL
