REMARK  5 active torsions:
REMARK  status: ('A' for Active; 'I' for Inactive)
REMARK    1  A    between atoms: C_3  and  C_4 
REMARK    2  A    between atoms: C_4  and  C_5 
REMARK    3  A    between atoms: C_5  and  O_9 
REMARK    4  A    between atoms: N_6  and  C_7 
REMARK    5  A    between atoms: C_7  and  O_9 
ROOT
HETATM    1  O   UNL     1       7.425  -1.202  22.716  1.00  0.00    -0.371 OA
ENDROOT
BRANCH   1   2
HETATM    2  C   UNL     1       8.415  -2.289  22.838  1.00  0.00     0.170 C 
BRANCH   2   3
HETATM    3  C   UNL     1       9.908  -2.367  23.368  1.00  0.00     0.026 C 
BRANCH   3   4
HETATM    4  C   UNL     1      10.300  -1.102  24.087  1.00  0.00    -0.002 C 
HETATM    5  C   UNL     1       9.091  -0.795  25.017  1.00  0.00     0.005 C 
ENDBRANCH   3   4
ENDBRANCH   2   3
ENDBRANCH   1   2
BRANCH   1   6
HETATM    6  C   UNL     1       7.216  -0.201  21.794  1.00  0.00     0.299 C 
BRANCH   6   7
HETATM    7  N   UNL     1       8.332  -0.325  20.846  1.00  0.00    -0.343 N 
HETATM    8  C   UNL     1       9.303   0.195  21.263  1.00  0.00     0.057 C 
HETATM    9  C   UNL     1       7.915  -1.242  19.782  1.00  0.00     0.160 C 
ENDBRANCH   6   7
ENDBRANCH   1   6
TORSDOF 5
