stable:False satoms:23 tatoms:24 sratio:0.9583333333333334
  -OEChem-07092417333D

 24 23  0     1  0  0  0  0  0999 V2000
    8.1677   -1.4256   25.1223 H   0  0  0  0  0  0  0  0  0  0  0  0
   10.4171   -0.2552   23.4377 H   0  0  0  0  0  0  0  0  0  0  0  0
    9.9774   -3.2183   24.0447 H   0  0  0  0  0  0  0  0  0  0  0  0
    9.4517   -0.8003   26.0183 H   0  0  0  0  0  0  0  0  0  0  0  0
   10.5347   -2.5468   22.5394 H   0  0  0  0  0  0  0  0  0  0  0  0
    7.8741   -2.9279   23.5220 H   0  0  0  0  0  0  0  0  0  0  0  0
    8.4647   -2.7247   21.8686 H   0  0  0  0  0  0  0  0  0  0  0  0
    9.0910   -0.7949   25.0175 C   0  0  0  0  0  0  0  0  0  0  0  0
    9.3030    0.1945   21.2627 C   0  0  0  0  0  2  0  0  0  0  0  0
   10.3002   -1.1021   24.0872 C   0  0  0  0  0  0  0  0  0  0  0  0
    9.9082   -2.3666   23.3678 C   0  0  0  0  0  0  0  0  0  0  0  0
   11.2619   -1.2194   24.5803 H   0  0  0  0  0  0  0  0  0  0  0  0
    8.7100    0.1229   24.6122 H   0  0  0  0  0  0  0  0  0  0  0  0
    8.4152   -2.2892   22.8381 C   0  0  0  0  0  0  0  0  0  0  0  0
    7.1564   -1.9113   20.1405 H   0  0  0  0  0  0  0  0  0  0  0  0
    9.8788    0.8503   21.7157 H   0  0  0  0  0  0  0  0  0  0  0  0
    8.3324   -0.3250   20.8465 N   0  3  3  0  0  0  0  0  0  0  0  0
    7.5236   -0.6419   18.9653 H   0  0  0  0  0  0  0  0  0  0  0  0
    7.2158   -0.2013   21.7939 C   0  0  0  0  0  0  0  0  0  0  0  0
    8.7594   -1.8060   19.4491 H   0  0  0  0  0  0  0  0  0  0  0  0
    7.2246    0.7320   22.3446 H   0  0  0  0  0  0  0  0  0  0  0  0
    6.2759   -0.1891   21.2242 H   0  0  0  0  0  0  0  0  0  0  0  0
    7.9151   -1.2423   19.7821 C   0  0  0  0  0  0  0  0  0  0  0  0
    7.4253   -1.2019   22.7163 O   0  0  0  0  0  0  0  0  0  0  0  0
 18 23  1  0  0  0  0
 20 23  1  0  0  0  0
 15 23  1  0  0  0  0
 17 23  1  0  0  0  0
  9 17  1  0  0  0  0
 17 19  1  0  0  0  0
 19 22  1  0  0  0  0
  9 16  1  0  0  0  0
 19 21  1  0  0  0  0
 19 24  1  0  0  0  0
  7 14  1  0  0  0  0
  5 11  1  0  0  0  0
 14 24  1  0  0  0  0
 11 14  1  0  0  0  0
  6 14  1  0  0  0  0
  3 11  1  0  0  0  0
 10 11  1  0  0  0  0
  2 10  1  0  0  0  0
 10 12  1  0  0  0  0
  8 10  1  0  0  0  0
  8 13  1  0  0  0  0
  1  8  1  0  0  0  0
  4  8  1  0  0  0  0
M  CHG  1  17   1
M  END
> <Shapegauss>
-80.822906

$$$$
