stable:False satoms:22 tatoms:24 sratio:0.9166666666666666
  -OEChem-08052418163D

 30 31  0     1  0  0  0  0  0999 V2000
  -13.6298   -0.7257  -23.9921 N   0  0  0  0  0  0  0  0  0  0  0  0
  -12.8687   -1.6127  -23.1298 O   0  0  0  0  0  0  0  0  0  0  0  0
  -11.3315    1.3589  -25.2608 H   0  0  0  0  0  0  0  0  0  0  0  0
  -12.3819   -0.8518  -24.0237 C   0  0  3  0  0  0  0  0  0  0  0  0
   -7.6444   -0.5330  -22.6671 C   0  0  1  0  0  0  0  0  0  0  0  0
   -8.6877   -3.4696  -23.3277 H   0  0  0  0  0  0  0  0  0  0  0  0
   -6.9343   -1.9039  -23.9258 H   0  0  0  0  0  0  0  0  0  0  0  0
   -9.2167   -1.4544  -24.7094 H   0  0  0  0  0  0  0  0  0  0  0  0
  -11.0347   -0.5528  -24.4574 C   0  0  3  0  0  0  0  0  0  0  0  0
  -10.3116    0.2765  -26.2633 H   0  0  0  0  0  0  0  0  0  0  0  0
   -9.6203    1.0035  -24.8629 H   0  0  0  0  0  0  0  0  0  0  0  0
   -6.4004    1.1035  -22.3475 H   0  0  0  0  0  0  0  0  0  0  0  0
   -8.2326    0.2866  -23.1203 N   0  3  0  0  0  0  0  0  0  0  0  0
  -10.0259   -1.3486  -23.9888 C   0  0  0  0  0  0  0  0  0  0  0  0
  -10.5348    0.5850  -25.2423 C   0  0  0  0  0  0  0  0  0  0  0  0
   -8.5855   -2.6713  -22.5833 C   0  0  0  0  0  0  0  0  0  0  0  0
   -7.2446   -2.0057  -22.9050 C   0  0  0  0  0  0  0  0  0  0  0  0
   -6.4588   -2.4745  -22.3418 H   0  0  0  0  0  0  0  0  0  0  0  0
   -6.7861    0.1486  -22.0882 C   0  0  1  0  0  0  0  0  0  0  0  0
   -5.1172   -0.7160  -21.1996 H   0  0  0  0  0  0  0  0  0  0  0  0
   -5.9983   -0.4778  -20.9894 O   0  0  0  0  0  0  0  0  0  0  0  0
   -9.8639   -1.9739  -22.7826 C   0  0  0  0  0  0  0  0  0  0  0  0
  -10.6374   -2.0866  -22.0629 H   0  0  0  0  0  0  0  0  0  0  0  0
   -8.5350   -2.9476  -21.5212 H   0  0  0  0  0  0  0  0  0  0  0  0
  -14.0506    0.1048  -23.6273 H   0  0  0  0  0  0  0  0  0  0  0  0
  -12.4633   -1.6515  -24.7745 H   0  0  0  0  0  0  0  0  0  0  0  0
   -8.2854   -0.7273  -21.7947 H   0  0  0  0  0  0  0  0  0  0  0  0
  -11.1513   -1.1692  -25.3610 H   0  0  0  0  0  0  0  0  0  0  0  0
   -9.1221    0.5700  -22.7620 H   0  0  0  0  0  0  0  0  0  0  0  0
   -8.1779    0.5117  -24.0931 H   0  0  0  0  0  0  0  0  0  0  0  0
 20 21  1  0  0  0  0
 19 21  1  0  0  0  0
 12 19  1  0  0  0  0
  5 19  1  0  0  0  0
 13 19  1  0  0  0  0
 17 18  1  0  0  0  0
  5 13  1  0  0  0  0
  5 17  1  0  0  0  0
  7 17  1  0  0  0  0
 16 17  1  0  0  0  0
 16 24  1  0  0  0  0
  6 16  1  0  0  0  0
 16 22  1  0  0  0  0
 11 15  1  0  0  0  0
  8 14  1  0  0  0  0
 14 22  2  0  0  0  0
 22 23  1  0  0  0  0
 10 15  1  0  0  0  0
  3 15  1  0  0  0  0
  9 15  1  0  0  0  0
  9 14  1  0  0  0  0
  4  9  1  0  0  0  0
  2  4  1  0  0  0  0
  1  4  1  0  0  0  0
  1  2  1  0  0  0  0
  1 25  1  0  0  0  0
  4 26  1  0  0  0  0
  5 27  1  0  0  0  0
  9 28  1  0  0  0  0
 13 29  1  0  0  0  0
 13 30  1  0  0  0  0
M  CHG  1  13   1
M  END
> <Chemgauss4>
-6.469509

$$$$
