stable:False satoms:22 tatoms:24 sratio:0.9166666666666666
  -OEChem-08052418163D

 30 31  0     1  0  0  0  0  0999 V2000
   13.8404   -0.6818   23.9792 N   0  0  0  0  0  0  0  0  0  0  0  0
   13.0009   -1.7702   23.5101 O   0  0  0  0  0  0  0  0  0  0  0  0
   11.6946    1.8355   24.5233 H   0  0  0  0  0  0  0  0  0  0  0  0
   12.5921   -0.7209   24.0990 C   0  0  3  0  0  0  0  0  0  0  0  0
    7.8042   -0.6358   22.8930 C   0  0  1  0  0  0  0  0  0  0  0  0
    8.7688   -3.2122   24.4992 H   0  0  0  0  0  0  0  0  0  0  0  0
    7.1110   -1.4434   24.5768 H   0  0  0  0  0  0  0  0  0  0  0  0
    9.4476   -0.8746   25.0688 H   0  0  0  0  0  0  0  0  0  0  0  0
   11.2825   -0.2170   24.4505 C   0  0  3  0  0  0  0  0  0  0  0  0
   10.6895    1.2260   25.8780 H   0  0  0  0  0  0  0  0  0  0  0  0
    9.9522    1.4578   24.3385 H   0  0  0  0  0  0  0  0  0  0  0  0
    6.6080    0.8528   22.0678 H   0  0  0  0  0  0  0  0  0  0  0  0
    8.4466    0.2568   23.0090 N   0  3  0  0  0  0  0  0  0  0  0  0
   10.2204   -1.0699   24.3272 C   0  0  0  0  0  0  0  0  0  0  0  0
   10.8692    1.1480   24.8060 C   0  0  0  0  0  0  0  0  0  0  0  0
    8.6573   -2.7180   23.5271 C   0  0  0  0  0  0  0  0  0  0  0  0
    7.3620   -1.9101   23.6452 C   0  0  0  0  0  0  0  0  0  0  0  0
    6.5298   -2.5018   23.3110 H   0  0  0  0  0  0  0  0  0  0  0  0
    6.9426   -0.1522   22.1445 C   0  0  1  0  0  0  0  0  0  0  0  0
    5.1968   -1.1794   21.6766 H   0  0  0  0  0  0  0  0  0  0  0  0
    6.0737   -1.0774   21.3639 O   0  0  0  0  0  0  0  0  0  0  0  0
    9.9702   -2.0654   23.4226 C   0  0  0  0  0  0  0  0  0  0  0  0
   10.6991   -2.4631   22.7596 H   0  0  0  0  0  0  0  0  0  0  0  0
    8.5393   -3.3428   22.6311 H   0  0  0  0  0  0  0  0  0  0  0  0
   14.2724   -0.0539   23.3318 H   0  0  0  0  0  0  0  0  0  0  0  0
   12.6831   -1.2132   25.0785 H   0  0  0  0  0  0  0  0  0  0  0  0
    8.3896   -1.1557   22.1204 H   0  0  0  0  0  0  0  0  0  0  0  0
   11.4239   -0.4866   25.5075 H   0  0  0  0  0  0  0  0  0  0  0  0
    9.3258    0.3493   22.5415 H   0  0  0  0  0  0  0  0  0  0  0  0
    8.4529    0.8085   23.8430 H   0  0  0  0  0  0  0  0  0  0  0  0
 20 21  1  0  0  0  0
 19 21  1  0  0  0  0
 12 19  1  0  0  0  0
  5 19  1  0  0  0  0
 13 19  1  0  0  0  0
 17 18  1  0  0  0  0
  5 13  1  0  0  0  0
  5 17  1  0  0  0  0
  7 17  1  0  0  0  0
 16 17  1  0  0  0  0
 16 24  1  0  0  0  0
  6 16  1  0  0  0  0
 16 22  1  0  0  0  0
 11 15  1  0  0  0  0
  8 14  1  0  0  0  0
 14 22  2  0  0  0  0
 22 23  1  0  0  0  0
 10 15  1  0  0  0  0
  3 15  1  0  0  0  0
  9 15  1  0  0  0  0
  9 14  1  0  0  0  0
  4  9  1  0  0  0  0
  2  4  1  0  0  0  0
  1  4  1  0  0  0  0
  1  2  1  0  0  0  0
  1 25  1  0  0  0  0
  4 26  1  0  0  0  0
  5 27  1  0  0  0  0
  9 28  1  0  0  0  0
 13 29  1  0  0  0  0
 13 30  1  0  0  0  0
M  CHG  1  13   1
M  END
> <Chemgauss4>
-6.531367

$$$$
