stable:False satoms:22 tatoms:24 sratio:0.9166666666666666
  -OEChem-07092417273D

 24 23  0     1  0  0  0  0  0999 V2000
    8.0802   -4.8116   20.8697 N   0  0  0  0  0  0  0  0  0  0  0  0
    8.6767   -3.8392   21.5994 C   0  0  3  0  0  0  0  0  0  0  0  0
    8.1651   -5.7568   21.2162 H   0  0  0  0  0  0  0  0  0  0  0  0
    9.2639   -1.9815   22.6638 C   0  0  0  0  0  0  0  0  0  0  0  0
    9.5367   -3.0826   24.4464 H   0  0  0  0  0  0  0  0  0  0  0  0
    7.4775    0.3554   19.8914 F   0  0  0  0  0  0  0  0  0  0  0  0
    7.2244    1.4078   20.6987 C   0  0  0  0  0  0  0  0  0  0  0  0
    9.8379   -3.0985   23.3902 C   0  0  0  0  0  0  0  0  0  0  0  0
    9.2732   -4.2561   22.7226 O   0  0  0  0  0  0  0  0  0  0  0  0
   10.3207   -1.1334   25.0761 O   0  0  0  0  0  0  0  0  0  0  0  0
    5.9149    1.3883   20.9009 F   0  0  0  0  0  0  0  0  0  0  0  0
    8.7866   -2.4735   21.4274 C   0  0  0  0  0  0  0  0  0  0  0  0
    8.5654   -1.9154   20.5380 H   0  0  0  0  0  0  0  0  0  0  0  0
    9.6854   -0.3484   24.5019 C   0  0  0  0  0  0  0  0  0  0  0  0
    9.2337   -0.7348   23.1966 O   0  0  0  0  0  0  0  0  0  0  0  0
    8.2294    1.2597   24.7279 H   0  0  0  0  0  0  0  0  0  0  0  0
    7.7325   -4.6722   19.9515 H   0  0  0  0  0  0  0  0  0  0  0  0
    9.2594    1.0366   24.9775 C   0  0  0  0  0  0  0  0  0  0  0  0
    9.3718    1.0616   26.0604 H   0  0  0  0  0  0  0  0  0  0  0  0
    7.5178    2.5504   20.0737 F   0  0  0  0  0  0  0  0  0  0  0  0
    9.8718    1.8028   24.5094 H   0  0  0  0  0  0  0  0  0  0  0  0
    8.6448    1.6880   22.6774 O   0  0  0  0  0  0  0  0  0  0  0  0
   10.9213   -3.1437   23.3105 H   0  0  0  0  0  0  0  0  0  0  0  0
    7.9928    1.4071   21.8689 C   0  0  0  0  0  0  0  0  0  0  0  0
  6  7  1  0  0  0  0
  1 17  1  0  0  0  0
  7 20  1  0  0  0  0
 12 13  1  0  0  0  0
  7 11  1  0  0  0  0
  7 24  1  0  0  0  0
  1  3  1  0  0  0  0
  1  2  1  0  0  0  0
  2 12  1  0  0  0  0
  4 12  2  0  0  0  0
  2  9  1  0  0  0  0
 22 24  1  0  0  0  0
  4 15  1  0  0  0  0
  4  8  1  0  0  0  0
  8  9  1  0  0  0  0
 14 15  1  0  0  0  0
  8 23  1  0  0  0  0
  5  8  1  0  0  0  0
 14 18  1  0  0  0  0
 10 14  2  0  0  0  0
 18 21  1  0  0  0  0
 16 18  1  0  0  0  0
 18 19  1  0  0  0  0
M  END
> <Shapegauss>
-106.368332

$$$$
