stable:False satoms:14 tatoms:24 sratio:0.5833333333333334
  -OEChem-07092417373D

 24 24  0     0  0  0  0  0  0999 V2000
    6.9944   -4.7146   26.1419 H   0  0  0  0  0  0  0  0  0  0  0  0
    8.0344   -4.4031   25.9499 C   0  0  0  0  0  0  0  0  0  0  0  0
    8.6904   -5.2791   26.0135 H   0  0  0  0  0  0  0  0  0  0  0  0
    8.3633   -3.6864   26.7155 H   0  0  0  0  0  0  0  0  0  0  0  0
    8.0514   -3.8759   24.6629 N   0  3  0  0  0  0  0  0  0  0  0  0
    8.9047   -3.0904   24.3238 C   0  0  0  0  0  0  0  0  0  0  0  0
    9.7130   -2.4241   23.9267 C   0  0  0  0  0  0  0  0  0  0  0  0
   10.8145   -0.8321   23.1776 C   0  0  0  0  0  0  0  0  0  0  0  0
   12.1149   -0.2282   23.5731 C   0  0  0  0  0  0  0  0  0  0  0  0
   12.1951   -0.1681   24.6282 H   0  0  0  0  0  0  0  0  0  0  0  0
   12.3331    0.7366   23.1897 H   0  0  0  0  0  0  0  0  0  0  0  0
   12.8425   -0.8926   23.1024 H   0  0  0  0  0  0  0  0  0  0  0  0
   10.7841   -2.0691   23.4885 N   0  0  0  0  0  0  0  0  0  0  0  0
    9.8378   -0.3043   22.5228 N   0  0  0  0  0  0  0  0  0  0  0  0
    9.2036    0.2035   21.5183 C   0  0  0  0  0  0  0  0  0  0  0  0
    9.5196    1.2148   20.9436 O   0  0  0  0  0  0  0  0  0  0  0  0
    8.0630   -0.4724   21.0672 N   0  0  0  0  0  0  0  0  0  0  0  0
    7.1864    0.0051   20.3892 C   0  0  0  0  0  0  0  0  0  0  0  0
    7.2479    0.1307   19.0409 N   0  0  0  0  0  0  0  0  0  0  0  0
    6.2315    0.4585   18.3610 N   0  0  0  0  0  0  0  0  0  0  0  0
    6.0644    0.6783   17.4174 H   0  0  0  0  0  0  0  0  0  0  0  0
    5.3684    0.6731   19.1968 C   0  0  0  0  0  0  0  0  0  0  0  0
    5.2102    0.6006   20.3432 C   0  0  0  0  0  0  0  0  0  0  0  0
    5.8157    0.4491   21.6026 S   0  0  0  0  0  0  0  0  0  0  0  0
 20 21  1  0  0  0  0
 19 20  1  0  0  0  0
 20 22  1  0  0  0  0
 18 19  2  0  0  0  0
 22 23  2  0  0  0  0
 23 24  1  0  0  0  0
 17 18  1  0  0  0  0
 18 24  1  0  0  0  0
 15 16  2  0  0  0  0
 15 17  1  0  0  0  0
 14 15  1  0  0  0  0
  8 14  1  0  0  0  0
  9 12  1  0  0  0  0
  8 13  2  3  0  0  0
  8  9  1  0  0  0  0
  9 11  1  0  0  0  0
  7 13  1  0  0  0  0
  9 10  1  0  0  0  0
  6  7  3  0  0  0  0
  5  6  1  0  0  0  0
  2  5  1  0  0  0  0
  2  3  1  0  0  0  0
  1  2  1  0  0  0  0
  2  4  1  0  0  0  0
M  CHG  1   5   1
M  END
> <Shapegauss>
-199.373138

$$$$
