MODEL 1
REMARK VINA RESULT:    -5.705      0.000      0.000
REMARK INTER + INTRA:          -8.307
REMARK INTER:                  -7.706
REMARK INTRA:                  -0.601
REMARK UNBOUND:                -0.601
REMARK  6 active torsions:
REMARK  status: ('A' for Active; 'I' for Inactive)
REMARK    1  A    between atoms: N_2  and  C_4 
REMARK    2  A    between atoms: C_4  and  C_5 
REMARK    3  A    between atoms: C_5  and  N_8 
REMARK    4  A    between atoms: C_6  and  N_10 
REMARK    5  A    between atoms: C_6  and  N_8 
REMARK       I    between atoms: N_10  and  C_12 
REMARK       I    between atoms: C_12  and  N_14 
REMARK    6  A    between atoms: N_14  and  C_16 
ROOT
HETATM    1  N   UNL     1       9.076  13.463   3.148  1.00  0.00    -0.298 N 
ATOM      2  HN  UNL     1       9.808  12.753   3.120  1.00  0.00     0.172 HD
HETATM    3  C   UNL     1       8.089  12.779   3.624  1.00  0.00     0.327 C 
HETATM    4  O   UNL     1       7.535  13.007   4.671  1.00  0.00    -0.247 OA
HETATM    5  N   UNL     1       7.633  11.691   2.870  1.00  0.00    -0.287 N 
ATOM      6  HN  UNL     1       7.880  11.674   1.881  1.00  0.00     0.172 HD
ENDROOT
BRANCH   1   7
HETATM    7  C   UNL     1       9.710  14.486   2.685  1.00  0.00     0.088 C 
HETATM    8  C   UNL     1       9.263  15.495   1.688  1.00  0.00     0.089 C 
BRANCH   7   9
HETATM    9  N   UNL     1      10.929  14.683   3.004  1.00  0.00    -0.303 N 
ATOM     10  HN  UNL     1      11.706  14.566   2.353  1.00  0.00     0.177 HD
BRANCH   9  11
HETATM   11  C   UNL     1      11.072  15.021   4.158  1.00  0.00     0.035 C 
BRANCH  11  12
HETATM   12  C   UNL     1      10.826  15.389   5.186  1.00  0.00     0.029 C 
BRANCH  12  13
HETATM   13  N   UNL     1      10.630  15.707   6.336  1.00  0.00    -0.353 N 
HETATM   14  C   UNL     1       9.381  16.160   6.750  1.00  0.00     0.157 C 
ATOM     15  HN  UNL     1      11.390  15.641   7.013  1.00  0.00     0.169 HD
ENDBRANCH  12  13
ENDBRANCH  11  12
ENDBRANCH   9  11
ENDBRANCH   7   9
ENDBRANCH   1   7
BRANCH   5  16
HETATM   16  C   UNL     1       6.975  10.771   3.291  1.00  0.00     0.167 C 
HETATM   17  N   UNL     1       7.136  10.216   4.516  1.00  0.00    -0.280 N 
HETATM   18  N   UNL     1       6.299   9.386   4.981  1.00  0.00    -0.309 N 
ATOM     19  HN  UNL     1       7.949  10.472   5.077  1.00  0.00     0.189 HD
HETATM   20  H   UNL     1       6.251   8.818   5.782  1.00  0.00     0.186 HD
HETATM   21  C   UNL     1       5.502   9.223   4.071  1.00  0.00     0.114 C 
HETATM   22  C   UNL     1       5.276   9.633   3.010  1.00  0.00     0.071 C 
HETATM   23  S   UNL     1       5.747  10.381   1.917  1.00  0.00    -0.063 SA
ENDBRANCH   5  16
TORSDOF 6
ENDMDL
MODEL 2
REMARK VINA RESULT:    -5.515      3.804      5.437
REMARK INTER + INTRA:          -8.050
REMARK INTER:                  -7.292
REMARK INTRA:                  -0.759
REMARK UNBOUND:                -0.601
REMARK  6 active torsions:
REMARK  status: ('A' for Active; 'I' for Inactive)
REMARK    1  A    between atoms: N_2  and  C_4 
REMARK    2  A    between atoms: C_4  and  C_5 
REMARK    3  A    between atoms: C_5  and  N_8 
REMARK    4  A    between atoms: C_6  and  N_10 
REMARK    5  A    between atoms: C_6  and  N_8 
REMARK       I    between atoms: N_10  and  C_12 
REMARK       I    between atoms: C_12  and  N_14 
REMARK    6  A    between atoms: N_14  and  C_16 
ROOT
HETATM    1  N   UNL     1      11.828  17.354   4.446  1.00  0.00    -0.298 N 
ATOM      2  HN  UNL     1      12.476  16.854   3.838  1.00  0.00     0.172 HD
HETATM    3  C   UNL     1      10.880  16.484   4.564  1.00  0.00     0.327 C 
HETATM    4  O   UNL     1      10.540  15.973   5.601  1.00  0.00    -0.247 OA
HETATM    5  N   UNL     1      10.204  16.103   3.398  1.00  0.00    -0.287 N 
ATOM      6  HN  UNL     1      10.273  16.729   2.595  1.00  0.00     0.172 HD
ENDROOT
BRANCH   1   7
HETATM    7  C   UNL     1      12.461  18.463   4.620  1.00  0.00     0.088 C 
HETATM    8  C   UNL     1      12.758  19.186   5.886  1.00  0.00     0.089 C 
BRANCH   7   9
HETATM    9  N   UNL     1      12.839  19.150   3.614  1.00  0.00    -0.303 N 
ATOM     10  HN  UNL     1      13.771  19.080   3.204  1.00  0.00     0.177 HD
BRANCH   9  11
HETATM   11  C   UNL     1      11.981  19.894   3.195  1.00  0.00     0.035 C 
BRANCH  11  12
HETATM   12  C   UNL     1      11.092  20.260   2.622  1.00  0.00     0.029 C 
BRANCH  12  13
HETATM   13  N   UNL     1      10.068  20.585   2.065  1.00  0.00    -0.353 N 
HETATM   14  C   UNL     1      10.080  21.025   0.746  1.00  0.00     0.157 C 
ATOM     15  HN  UNL     1       9.184  20.534   2.570  1.00  0.00     0.169 HD
ENDBRANCH  12  13
ENDBRANCH  11  12
ENDBRANCH   9  11
ENDBRANCH   7   9
ENDBRANCH   1   7
BRANCH   5  16
HETATM   16  C   UNL     1       9.548  15.100   3.261  1.00  0.00     0.167 C 
HETATM   17  N   UNL     1      10.059  13.845   3.293  1.00  0.00    -0.280 N 
HETATM   18  N   UNL     1       9.307  12.827   3.336  1.00  0.00    -0.309 N 
ATOM     19  HN  UNL     1      11.071  13.718   3.281  1.00  0.00     0.189 HD
HETATM   20  H   UNL     1       9.446  11.854   3.290  1.00  0.00     0.186 HD
HETATM   21  C   UNL     1       8.178  13.285   3.258  1.00  0.00     0.114 C 
HETATM   22  C   UNL     1       7.641  14.311   3.226  1.00  0.00     0.071 C 
HETATM   23  S   UNL     1       7.775  15.700   3.052  1.00  0.00    -0.063 SA
ENDBRANCH   5  16
TORSDOF 6
ENDMDL
MODEL 3
REMARK VINA RESULT:    -5.451     22.447     24.257
REMARK INTER + INTRA:          -7.964
REMARK INTER:                  -7.331
REMARK INTRA:                  -0.633
REMARK UNBOUND:                -0.601
REMARK  6 active torsions:
REMARK  status: ('A' for Active; 'I' for Inactive)
REMARK    1  A    between atoms: N_2  and  C_4 
REMARK    2  A    between atoms: C_4  and  C_5 
REMARK    3  A    between atoms: C_5  and  N_8 
REMARK    4  A    between atoms: C_6  and  N_10 
REMARK    5  A    between atoms: C_6  and  N_8 
REMARK       I    between atoms: N_10  and  C_12 
REMARK       I    between atoms: C_12  and  N_14 
REMARK    6  A    between atoms: N_14  and  C_16 
ROOT
HETATM    1  N   UNL     1       9.421  -2.155  22.689  1.00  0.00    -0.298 N 
ATOM      2  HN  UNL     1       9.538  -2.311  23.690  1.00  0.00     0.172 HD
HETATM    3  C   UNL     1       8.267  -2.701  22.489  1.00  0.00     0.327 C 
HETATM    4  O   UNL     1       7.287  -2.117  22.100  1.00  0.00    -0.247 OA
HETATM    5  N   UNL     1       8.147  -4.072  22.750  1.00  0.00    -0.287 N 
ATOM      6  HN  UNL     1       9.009  -4.616  22.784  1.00  0.00     0.172 HD
ENDROOT
BRANCH   1   7
HETATM    7  C   UNL     1      10.516  -1.536  22.406  1.00  0.00     0.088 C 
HETATM    8  C   UNL     1      11.818  -1.558  23.124  1.00  0.00     0.089 C 
BRANCH   7   9
HETATM    9  N   UNL     1      10.547  -0.694  21.448  1.00  0.00    -0.303 N 
ATOM     10  HN  UNL     1      10.818  -0.938  20.496  1.00  0.00     0.177 HD
BRANCH   9  11
HETATM   11  C   UNL     1      10.222   0.423  21.784  1.00  0.00     0.035 C 
BRANCH  11  12
HETATM   12  C   UNL     1      10.290   1.518  22.006  1.00  0.00     0.029 C 
BRANCH  12  13
HETATM   13  N   UNL     1      10.465   2.680  22.292  1.00  0.00    -0.353 N 
HETATM   14  C   UNL     1      11.051   3.039  23.501  1.00  0.00     0.157 C 
ATOM     15  HN  UNL     1      10.178   3.407  21.636  1.00  0.00     0.169 HD
ENDBRANCH  12  13
ENDBRANCH  11  12
ENDBRANCH   9  11
ENDBRANCH   7   9
ENDBRANCH   1   7
BRANCH   5  16
HETATM   16  C   UNL     1       7.112  -4.664  22.939  1.00  0.00     0.167 C 
HETATM   17  N   UNL     1       6.378  -5.246  21.960  1.00  0.00    -0.280 N 
HETATM   18  N   UNL     1       5.408  -6.014  22.231  1.00  0.00    -0.309 N 
ATOM     19  HN  UNL     1       6.612  -5.061  20.985  1.00  0.00     0.189 HD
HETATM   20  H   UNL     1       4.712  -6.470  21.707  1.00  0.00     0.186 HD
HETATM   21  C   UNL     1       5.325  -5.975  23.448  1.00  0.00     0.114 C 
HETATM   22  C   UNL     1       5.883  -5.523  24.358  1.00  0.00     0.071 C 
HETATM   23  S   UNL     1       6.844  -4.597  24.802  1.00  0.00    -0.063 SA
ENDBRANCH   5  16
TORSDOF 6
ENDMDL
MODEL 4
REMARK VINA RESULT:    -5.430      2.265      6.444
REMARK INTER + INTRA:          -7.935
REMARK INTER:                  -7.248
REMARK INTRA:                  -0.687
REMARK UNBOUND:                -0.601
REMARK  6 active torsions:
REMARK  status: ('A' for Active; 'I' for Inactive)
REMARK    1  A    between atoms: N_2  and  C_4 
REMARK    2  A    between atoms: C_4  and  C_5 
REMARK    3  A    between atoms: C_5  and  N_8 
REMARK    4  A    between atoms: C_6  and  N_10 
REMARK    5  A    between atoms: C_6  and  N_8 
REMARK       I    between atoms: N_10  and  C_12 
REMARK       I    between atoms: C_12  and  N_14 
REMARK    6  A    between atoms: N_14  and  C_16 
ROOT
HETATM    1  N   UNL     1       6.618  10.843   4.254  1.00  0.00    -0.298 N 
ATOM      2  HN  UNL     1       6.039  11.526   4.743  1.00  0.00     0.172 HD
HETATM    3  C   UNL     1       7.710  11.515   4.099  1.00  0.00     0.327 C 
HETATM    4  O   UNL     1       8.778  11.211   4.569  1.00  0.00    -0.247 OA
HETATM    5  N   UNL     1       7.646  12.684   3.332  1.00  0.00    -0.287 N 
ATOM      6  HN  UNL     1       6.851  12.784   2.700  1.00  0.00     0.172 HD
ENDROOT
BRANCH   1   7
HETATM    7  C   UNL     1       5.806   9.845   4.174  1.00  0.00     0.088 C 
HETATM    8  C   UNL     1       5.129   9.096   5.266  1.00  0.00     0.089 C 
BRANCH   7   9
HETATM    9  N   UNL     1       5.567   9.302   3.045  1.00  0.00    -0.303 N 
ATOM     10  HN  UNL     1       6.045   8.464   2.713  1.00  0.00     0.177 HD
BRANCH   9  11
HETATM   11  C   UNL     1       4.717   9.881   2.407  1.00  0.00     0.035 C 
BRANCH  11  12
HETATM   12  C   UNL     1       4.124  10.718   1.956  1.00  0.00     0.029 C 
BRANCH  12  13
HETATM   13  N   UNL     1       3.445  11.642   1.573  1.00  0.00    -0.353 N 
HETATM   14  C   UNL     1       3.380  12.829   2.295  1.00  0.00     0.157 C 
ATOM     15  HN  UNL     1       2.912  11.549   0.709  1.00  0.00     0.169 HD
ENDBRANCH  12  13
ENDBRANCH  11  12
ENDBRANCH   9  11
ENDBRANCH   7   9
ENDBRANCH   1   7
BRANCH   5  16
HETATM   16  C   UNL     1       8.450  13.584   3.353  1.00  0.00     0.167 C 
HETATM   17  N   UNL     1       9.765  13.439   3.061  1.00  0.00    -0.280 N 
HETATM   18  N   UNL     1      10.524  14.442   2.912  1.00  0.00    -0.309 N 
ATOM     19  HN  UNL     1      10.153  12.500   2.960  1.00  0.00     0.189 HD
HETATM   20  H   UNL     1      11.489  14.573   2.779  1.00  0.00     0.186 HD
HETATM   21  C   UNL     1       9.810  15.398   3.169  1.00  0.00     0.114 C 
HETATM   22  C   UNL     1       8.704  15.632   3.424  1.00  0.00     0.071 C 
HETATM   23  S   UNL     1       7.457  15.115   3.821  1.00  0.00    -0.063 SA
ENDBRANCH   5  16
TORSDOF 6
ENDMDL
MODEL 5
REMARK VINA RESULT:    -5.342     22.037     24.098
REMARK INTER + INTRA:          -7.816
REMARK INTER:                  -7.152
REMARK INTRA:                  -0.664
REMARK UNBOUND:                -0.601
REMARK  6 active torsions:
REMARK  status: ('A' for Active; 'I' for Inactive)
REMARK    1  A    between atoms: N_2  and  C_4 
REMARK    2  A    between atoms: C_4  and  C_5 
REMARK    3  A    between atoms: C_5  and  N_8 
REMARK    4  A    between atoms: C_6  and  N_10 
REMARK    5  A    between atoms: C_6  and  N_8 
REMARK       I    between atoms: N_10  and  C_12 
REMARK       I    between atoms: C_12  and  N_14 
REMARK    6  A    between atoms: N_14  and  C_16 
ROOT
HETATM    1  N   UNL     1       9.741  -2.305  22.800  1.00  0.00    -0.298 N 
ATOM      2  HN  UNL     1      10.188  -2.864  22.073  1.00  0.00     0.172 HD
HETATM    3  C   UNL     1       8.766  -3.082  23.140  1.00  0.00     0.327 C 
HETATM    4  O   UNL     1       8.618  -3.561  24.237  1.00  0.00    -0.247 OA
HETATM    5  N   UNL     1       7.816  -3.393  22.160  1.00  0.00    -0.287 N 
ATOM      6  HN  UNL     1       7.762  -2.775  21.351  1.00  0.00     0.172 HD
ENDROOT
BRANCH   1   7
HETATM    7  C   UNL     1      10.498  -1.262  22.810  1.00  0.00     0.088 C 
HETATM    8  C   UNL     1      11.309  -0.701  23.923  1.00  0.00     0.089 C 
BRANCH   7   9
HETATM    9  N   UNL     1      10.544  -0.494  21.793  1.00  0.00    -0.303 N 
ATOM     10  HN  UNL     1      11.392  -0.328  21.252  1.00  0.00     0.177 HD
BRANCH   9  11
HETATM   11  C   UNL     1       9.478   0.018  21.534  1.00  0.00     0.035 C 
BRANCH  11  12
HETATM   12  C   UNL     1       8.584   0.355  20.948  1.00  0.00     0.029 C 
BRANCH  12  13
HETATM   13  N   UNL     1       7.556   0.666  20.393  1.00  0.00    -0.353 N 
HETATM   14  C   UNL     1       7.262   0.197  19.117  1.00  0.00     0.157 C 
ATOM     15  HN  UNL     1       6.895   1.281  20.868  1.00  0.00     0.169 HD
ENDBRANCH  12  13
ENDBRANCH  11  12
ENDBRANCH   9  11
ENDBRANCH   7   9
ENDBRANCH   1   7
BRANCH   5  16
HETATM   16  C   UNL     1       7.055  -4.329  22.191  1.00  0.00     0.167 C 
HETATM   17  N   UNL     1       7.418  -5.614  21.962  1.00  0.00    -0.280 N 
HETATM   18  N   UNL     1       6.626  -6.576  22.193  1.00  0.00    -0.309 N 
ATOM     19  HN  UNL     1       8.349  -5.812  21.595  1.00  0.00     0.189 HD
HETATM   20  H   UNL     1       6.643  -7.546  22.037  1.00  0.00     0.186 HD
HETATM   21  C   UNL     1       5.589  -6.033  22.537  1.00  0.00     0.114 C 
HETATM   22  C   UNL     1       5.177  -4.972  22.760  1.00  0.00     0.071 C 
HETATM   23  S   UNL     1       5.384  -3.586  22.643  1.00  0.00    -0.063 SA
ENDBRANCH   5  16
TORSDOF 6
ENDMDL
MODEL 6
REMARK VINA RESULT:    -5.318      2.940      4.566
REMARK INTER + INTRA:          -7.785
REMARK INTER:                  -7.376
REMARK INTRA:                  -0.409
REMARK UNBOUND:                -0.601
REMARK  6 active torsions:
REMARK  status: ('A' for Active; 'I' for Inactive)
REMARK    1  A    between atoms: N_2  and  C_4 
REMARK    2  A    between atoms: C_4  and  C_5 
REMARK    3  A    between atoms: C_5  and  N_8 
REMARK    4  A    between atoms: C_6  and  N_10 
REMARK    5  A    between atoms: C_6  and  N_8 
REMARK       I    between atoms: N_10  and  C_12 
REMARK       I    between atoms: C_12  and  N_14 
REMARK    6  A    between atoms: N_14  and  C_16 
ROOT
HETATM    1  N   UNL     1       6.310   9.731   3.796  1.00  0.00    -0.298 N 
ATOM      2  HN  UNL     1       6.998   9.123   3.352  1.00  0.00     0.172 HD
HETATM    3  C   UNL     1       5.616   8.870   4.464  1.00  0.00     0.327 C 
HETATM    4  O   UNL     1       5.510   8.853   5.665  1.00  0.00    -0.247 OA
HETATM    5  N   UNL     1       4.943   7.880   3.737  1.00  0.00    -0.287 N 
ATOM      6  HN  UNL     1       4.781   8.059   2.746  1.00  0.00     0.172 HD
ENDROOT
BRANCH   1   7
HETATM    7  C   UNL     1       6.671  10.883   3.343  1.00  0.00     0.088 C 
HETATM    8  C   UNL     1       5.829  12.046   2.959  1.00  0.00     0.089 C 
BRANCH   7   9
HETATM    9  N   UNL     1       7.896  11.107   3.068  1.00  0.00    -0.303 N 
ATOM     10  HN  UNL     1       8.481  10.460   2.539  1.00  0.00     0.177 HD
BRANCH   9  11
HETATM   11  C   UNL     1       8.295  12.166   3.497  1.00  0.00     0.035 C 
BRANCH  11  12
HETATM   12  C   UNL     1       8.945  13.067   3.645  1.00  0.00     0.029 C 
BRANCH  12  13
HETATM   13  N   UNL     1       9.734  13.967   3.814  1.00  0.00    -0.353 N 
HETATM   14  C   UNL     1      10.016  14.872   2.797  1.00  0.00     0.157 C 
ATOM     15  HN  UNL     1      10.199  14.064   4.717  1.00  0.00     0.169 HD
ENDBRANCH  12  13
ENDBRANCH  11  12
ENDBRANCH   9  11
ENDBRANCH   7   9
ENDBRANCH   1   7
BRANCH   5  16
HETATM   16  C   UNL     1       4.538   6.834   4.182  1.00  0.00     0.167 C 
HETATM   17  N   UNL     1       5.337   5.818   4.588  1.00  0.00    -0.280 N 
HETATM   18  N   UNL     1       4.873   4.825   5.222  1.00  0.00    -0.309 N 
ATOM     19  HN  UNL     1       6.335   5.854   4.379  1.00  0.00     0.189 HD
HETATM   20  H   UNL     1       5.235   3.967   5.537  1.00  0.00     0.186 HD
HETATM   21  C   UNL     1       3.668   5.022   5.248  1.00  0.00     0.114 C 
HETATM   22  C   UNL     1       2.899   5.832   4.939  1.00  0.00     0.071 C 
HETATM   23  S   UNL     1       2.661   7.001   4.194  1.00  0.00    -0.063 SA
ENDBRANCH   5  16
TORSDOF 6
ENDMDL
MODEL 7
REMARK VINA RESULT:    -5.256     21.352     23.755
REMARK INTER + INTRA:          -7.701
REMARK INTER:                  -7.042
REMARK INTRA:                  -0.659
REMARK UNBOUND:                -0.601
REMARK  6 active torsions:
REMARK  status: ('A' for Active; 'I' for Inactive)
REMARK    1  A    between atoms: N_2  and  C_4 
REMARK    2  A    between atoms: C_4  and  C_5 
REMARK    3  A    between atoms: C_5  and  N_8 
REMARK    4  A    between atoms: C_6  and  N_10 
REMARK    5  A    between atoms: C_6  and  N_8 
REMARK       I    between atoms: N_10  and  C_12 
REMARK       I    between atoms: C_12  and  N_14 
REMARK    6  A    between atoms: N_14  and  C_16 
ROOT
HETATM    1  N   UNL     1       8.415  -0.447  20.968  1.00  0.00    -0.298 N 
ATOM      2  HN  UNL     1       8.629  -1.423  20.763  1.00  0.00     0.172 HD
HETATM    3  C   UNL     1       9.494  -0.084  21.579  1.00  0.00     0.327 C 
HETATM    4  O   UNL     1      10.250   0.773  21.193  1.00  0.00    -0.247 OA
HETATM    5  N   UNL     1       9.811  -0.739  22.776  1.00  0.00    -0.287 N 
ATOM      6  HN  UNL     1       9.054  -1.229  23.252  1.00  0.00     0.172 HD
ENDROOT
BRANCH   1   7
HETATM    7  C   UNL     1       7.236  -0.340  20.458  1.00  0.00     0.088 C 
HETATM    8  C   UNL     1       6.820   0.308  19.186  1.00  0.00     0.089 C 
BRANCH   7   9
HETATM    9  N   UNL     1       6.216  -0.736  21.113  1.00  0.00    -0.303 N 
ATOM     10  HN  UNL     1       5.401  -0.149  21.291  1.00  0.00     0.177 HD
BRANCH   9  11
HETATM   11  C   UNL     1       6.313  -1.878  21.503  1.00  0.00     0.035 C 
BRANCH  11  12
HETATM   12  C   UNL     1       6.021  -2.905  21.839  1.00  0.00     0.029 C 
BRANCH  12  13
HETATM   13  N   UNL     1       5.664  -4.031  22.097  1.00  0.00    -0.353 N 
HETATM   14  C   UNL     1       6.155  -5.119  21.382  1.00  0.00     0.157 C 
ATOM     15  HN  UNL     1       4.993  -4.186  22.849  1.00  0.00     0.169 HD
ENDBRANCH  12  13
ENDBRANCH  11  12
ENDBRANCH   9  11
ENDBRANCH   7   9
ENDBRANCH   1   7
BRANCH   5  16
HETATM   16  C   UNL     1      10.901  -0.773  23.292  1.00  0.00     0.167 C 
HETATM   17  N   UNL     1      11.929  -1.538  22.850  1.00  0.00    -0.280 N 
HETATM   18  N   UNL     1      13.102  -1.394  23.307  1.00  0.00    -0.309 N 
ATOM     19  HN  UNL     1      11.755  -2.244  22.135  1.00  0.00     0.189 HD
HETATM   20  H   UNL     1      13.956  -1.869  23.197  1.00  0.00     0.186 HD
HETATM   21  C   UNL     1      12.982  -0.553  24.183  1.00  0.00     0.114 C 
HETATM   22  C   UNL     1      12.174   0.145  24.633  1.00  0.00     0.071 C 
HETATM   23  S   UNL     1      10.803   0.447  24.724  1.00  0.00    -0.063 SA
ENDBRANCH   5  16
TORSDOF 6
ENDMDL
MODEL 8
REMARK VINA RESULT:    -5.248     22.369     23.954
REMARK INTER + INTRA:          -7.690
REMARK INTER:                  -6.991
REMARK INTRA:                  -0.699
REMARK UNBOUND:                -0.601
REMARK  6 active torsions:
REMARK  status: ('A' for Active; 'I' for Inactive)
REMARK    1  A    between atoms: N_2  and  C_4 
REMARK    2  A    between atoms: C_4  and  C_5 
REMARK    3  A    between atoms: C_5  and  N_8 
REMARK    4  A    between atoms: C_6  and  N_10 
REMARK    5  A    between atoms: C_6  and  N_8 
REMARK       I    between atoms: N_10  and  C_12 
REMARK       I    between atoms: C_12  and  N_14 
REMARK    6  A    between atoms: N_14  and  C_16 
ROOT
HETATM    1  N   UNL     1      10.742  -1.222  24.028  1.00  0.00    -0.298 N 
ATOM      2  HN  UNL     1      11.289  -1.913  23.515  1.00  0.00     0.172 HD
HETATM    3  C   UNL     1       9.575  -1.776  24.018  1.00  0.00     0.327 C 
HETATM    4  O   UNL     1       8.969  -2.123  25.001  1.00  0.00    -0.247 OA
HETATM    5  N   UNL     1       8.974  -1.992  22.772  1.00  0.00    -0.287 N 
ATOM      6  HN  UNL     1       9.325  -1.448  21.985  1.00  0.00     0.172 HD
ENDROOT
BRANCH   1   7
HETATM    7  C   UNL     1      11.644  -0.337  24.285  1.00  0.00     0.088 C 
HETATM    8  C   UNL     1      13.122  -0.439  24.158  1.00  0.00     0.089 C 
BRANCH   7   9
HETATM    9  N   UNL     1      11.317   0.777  24.813  1.00  0.00    -0.303 N 
ATOM     10  HN  UNL     1      11.035   0.875  25.788  1.00  0.00     0.177 HD
BRANCH   9  11
HETATM   11  C   UNL     1      11.374   1.707  24.039  1.00  0.00     0.035 C 
BRANCH  11  12
HETATM   12  C   UNL     1      11.263   2.741  23.623  1.00  0.00     0.029 C 
BRANCH  12  13
HETATM   13  N   UNL     1      11.255   3.859  23.163  1.00  0.00    -0.353 N 
HETATM   14  C   UNL     1      12.168   4.816  23.595  1.00  0.00     0.157 C 
ATOM     15  HN  UNL     1      10.570   4.104  22.449  1.00  0.00     0.169 HD
ENDBRANCH  12  13
ENDBRANCH  11  12
ENDBRANCH   9  11
ENDBRANCH   7   9
ENDBRANCH   1   7
BRANCH   5  16
HETATM   16  C   UNL     1       8.077  -2.768  22.550  1.00  0.00     0.167 C 
HETATM   17  N   UNL     1       8.125  -4.092  22.837  1.00  0.00    -0.280 N 
HETATM   18  N   UNL     1       7.093  -4.822  22.762  1.00  0.00    -0.309 N 
ATOM     19  HN  UNL     1       9.012  -4.509  23.120  1.00  0.00     0.189 HD
HETATM   20  H   UNL     1       6.912  -5.785  22.844  1.00  0.00     0.186 HD
HETATM   21  C   UNL     1       6.229  -4.076  22.330  1.00  0.00     0.114 C 
HETATM   22  C   UNL     1       6.081  -2.959  22.056  1.00  0.00     0.071 C 
HETATM   23  S   UNL     1       6.701  -1.723  21.801  1.00  0.00    -0.063 SA
ENDBRANCH   5  16
TORSDOF 6
ENDMDL
MODEL 9
REMARK VINA RESULT:    -5.176     24.419     26.350
REMARK INTER + INTRA:          -7.592
REMARK INTER:                  -6.951
REMARK INTRA:                  -0.641
REMARK UNBOUND:                -0.601
REMARK  6 active torsions:
REMARK  status: ('A' for Active; 'I' for Inactive)
REMARK    1  A    between atoms: N_2  and  C_4 
REMARK    2  A    between atoms: C_4  and  C_5 
REMARK    3  A    between atoms: C_5  and  N_8 
REMARK    4  A    between atoms: C_6  and  N_10 
REMARK    5  A    between atoms: C_6  and  N_8 
REMARK       I    between atoms: N_10  and  C_12 
REMARK       I    between atoms: C_12  and  N_14 
REMARK    6  A    between atoms: N_14  and  C_16 
ROOT
HETATM    1  N   UNL     1       7.968  -3.604  22.775  1.00  0.00    -0.298 N 
ATOM      2  HN  UNL     1       8.833  -4.003  22.412  1.00  0.00     0.172 HD
HETATM    3  C   UNL     1       8.349  -2.399  23.045  1.00  0.00     0.327 C 
HETATM    4  O   UNL     1       7.903  -1.404  22.529  1.00  0.00    -0.247 OA
HETATM    5  N   UNL     1       9.356  -2.240  24.004  1.00  0.00    -0.287 N 
ATOM      6  HN  UNL     1       9.518  -3.018  24.642  1.00  0.00     0.172 HD
ENDROOT
BRANCH   1   7
HETATM    7  C   UNL     1       7.172  -4.614  22.680  1.00  0.00     0.088 C 
HETATM    8  C   UNL     1       7.140  -5.689  21.654  1.00  0.00     0.089 C 
BRANCH   7   9
HETATM    9  N   UNL     1       6.189  -4.732  23.483  1.00  0.00    -0.303 N 
ATOM     10  HN  UNL     1       5.227  -4.503  23.232  1.00  0.00     0.177 HD
BRANCH   9  11
HETATM   11  C   UNL     1       6.512  -5.145  24.575  1.00  0.00     0.035 C 
BRANCH  11  12
HETATM   12  C   UNL     1       6.430  -5.569  25.608  1.00  0.00     0.029 C 
BRANCH  12  13
HETATM   13  N   UNL     1       6.353  -6.130  26.676  1.00  0.00    -0.353 N 
HETATM   14  C   UNL     1       6.951  -5.593  27.811  1.00  0.00     0.157 C 
ATOM     15  HN  UNL     1       5.841  -7.010  26.746  1.00  0.00     0.169 HD
ENDBRANCH  12  13
ENDBRANCH  11  12
ENDBRANCH   9  11
ENDBRANCH   7   9
ENDBRANCH   1   7
BRANCH   5  16
HETATM   16  C   UNL     1      10.050  -1.261  24.139  1.00  0.00     0.167 C 
HETATM   17  N   UNL     1       9.782  -0.252  25.003  1.00  0.00    -0.280 N 
HETATM   18  N   UNL     1      10.634   0.654  25.245  1.00  0.00    -0.309 N 
ATOM     19  HN  UNL     1       8.875  -0.221  25.469  1.00  0.00     0.189 HD
HETATM   20  H   UNL     1      10.634   1.494  25.756  1.00  0.00     0.186 HD
HETATM   21  C   UNL     1      11.564   0.398  24.496  1.00  0.00     0.114 C 
HETATM   22  C   UNL     1      11.889  -0.415  23.736  1.00  0.00     0.071 C 
HETATM   23  S   UNL     1      11.494  -1.517  22.958  1.00  0.00    -0.063 SA
ENDBRANCH   5  16
TORSDOF 6
ENDMDL
