REMARK  6 active torsions:
REMARK  status: ('A' for Active; 'I' for Inactive)
REMARK    1  A    between atoms: N_2  and  C_4 
REMARK    2  A    between atoms: C_4  and  C_5 
REMARK    3  A    between atoms: C_5  and  N_8 
REMARK    4  A    between atoms: C_6  and  N_10 
REMARK    5  A    between atoms: C_6  and  N_8 
REMARK       I    between atoms: N_10  and  C_12 
REMARK       I    between atoms: C_12  and  N_14 
REMARK    6  A    between atoms: N_14  and  C_16 
ROOT
HETATM    1  N   UNL     1       9.838  -0.304  22.523  1.00  0.00    -0.298 N 
ATOM      2  HN  UNL     1       9.121  -0.258  23.247  1.00  0.00     0.172 HD
HETATM    3  C   UNL     1       9.204   0.203  21.518  1.00  0.00     0.327 C 
HETATM    4  O   UNL     1       9.520   1.215  20.944  1.00  0.00    -0.247 OA
HETATM    5  N   UNL     1       8.063  -0.472  21.067  1.00  0.00    -0.287 N 
ATOM      6  HN  UNL     1       7.965  -1.451  21.335  1.00  0.00     0.172 HD
ENDROOT
BRANCH   1   7
HETATM    7  C   UNL     1      10.815  -0.832  23.178  1.00  0.00     0.088 C 
HETATM    8  C   UNL     1      12.115  -0.228  23.573  1.00  0.00     0.089 C 
BRANCH   7   9
HETATM    9  N   UNL     1      10.784  -2.069  23.488  1.00  0.00    -0.303 N 
ATOM     10  HN  UNL     1      11.581  -2.696  23.377  1.00  0.00     0.177 HD
BRANCH   9  11
HETATM   11  C   UNL     1       9.713  -2.424  23.927  1.00  0.00     0.035 C 
BRANCH  11  12
HETATM   12  C   UNL     1       8.905  -3.090  24.324  1.00  0.00     0.029 C 
BRANCH  12  13
HETATM   13  N   UNL     1       8.051  -3.876  24.663  1.00  0.00    -0.353 N 
HETATM   14  C   UNL     1       8.034  -4.403  25.950  1.00  0.00     0.157 C 
ATOM     15  HN  UNL     1       7.333  -4.157  23.995  1.00  0.00     0.169 HD
ENDBRANCH  12  13
ENDBRANCH  11  12
ENDBRANCH   9  11
ENDBRANCH   7   9
ENDBRANCH   1   7
BRANCH   5  16
HETATM   16  C   UNL     1       7.186   0.005  20.389  1.00  0.00     0.167 C 
HETATM   17  N   UNL     1       7.248   0.131  19.041  1.00  0.00    -0.280 N 
HETATM   18  N   UNL     1       6.231   0.459  18.361  1.00  0.00    -0.309 N 
ATOM     19  HN  UNL     1       8.133  -0.042  18.564  1.00  0.00     0.189 HD
HETATM   20  H   UNL     1       6.064   0.678  17.417  1.00  0.00     0.186 HD
HETATM   21  C   UNL     1       5.368   0.673  19.197  1.00  0.00     0.114 C 
HETATM   22  C   UNL     1       5.210   0.601  20.343  1.00  0.00     0.071 C 
HETATM   23  S   UNL     1       5.816   0.449  21.603  1.00  0.00    -0.063 SA
ENDBRANCH   5  16
TORSDOF 6
