REMARK  8 active torsions:
REMARK  status: ('A' for Active; 'I' for Inactive)
REMARK    1  A    between atoms: S_2  and  N_5 
REMARK    2  A    between atoms: N_5  and  C_7 
REMARK    3  A    between atoms: C_8  and  C_9 
REMARK    4  A    between atoms: C_9  and  C_14 
REMARK    5  A    between atoms: C_9  and  S_13 
REMARK    6  A    between atoms: C_12  and  S_13 
REMARK    7  A    between atoms: C_14  and  C_15 
REMARK       I    between atoms: C_15  and  N_17 
REMARK    8  A    between atoms: N_17  and  C_19 
ROOT
HETATM    1  C   UNL     1      10.302  -1.431  22.949  1.00  0.00     0.208 C 
ENDROOT
BRANCH   1   2
HETATM    2  C   UNL     1       9.520  -2.182  23.585  1.00  0.00    -0.055 C 
HETATM    3  C   UNL     1       8.948  -2.981  24.184  1.00  0.00     0.023 C 
BRANCH   3   4
HETATM    4  N   UNL     1       8.078  -3.629  24.637  1.00  0.00    -0.230 N 
ATOM      5  HN  UNL     1       7.213  -3.771  24.115  1.00  0.00     0.190 HD
BRANCH   4   6
HETATM    6  S   UNL     1       8.271  -4.290  26.096  1.00  0.00     0.327 S 
HETATM    7 CL   UNL     1       6.573  -4.909  26.480  1.00  0.00     0.042 Cl
HETATM    8  O   UNL     1       9.177  -5.387  26.010  1.00  0.00    -0.188 OA
HETATM    9  O   UNL     1       8.556  -3.313  27.085  1.00  0.00    -0.188 OA
ENDBRANCH   4   6
ENDBRANCH   3   4
ENDBRANCH   1   2
BRANCH   1  10
HETATM   10  C   UNL     1       9.707  -0.582  22.283  1.00  0.00    -0.055 C 
BRANCH  10  11
HETATM   11  C   UNL     1       9.038   0.081  21.297  1.00  0.00     0.290 C 
HETATM   12  O   UNL     1       9.496   1.052  20.782  1.00  0.00    -0.259 OA
HETATM   13  N   UNL     1       7.865  -0.558  21.056  1.00  0.00    -0.314 N 
ATOM     14  HN  UNL     1       7.609  -1.414  21.548  1.00  0.00     0.170 HD
BRANCH  13  15
HETATM   15  C   UNL     1       7.099  -0.032  20.182  1.00  0.00     0.072 A 
HETATM   16  C   UNL     1       7.098   0.087  18.856  1.00  0.00     0.119 A 
HETATM   17  N   UNL     1       6.699   0.400  17.796  1.00  0.00    -0.373 N 
HETATM   18  C   UNL     1       5.601   0.934  18.254  1.00  0.00     0.089 A 
ATOM     19  HN  UNL     1       7.076   0.292  16.855  1.00  0.00     0.164 HD
HETATM   20  C   UNL     1       5.227   1.009  19.386  1.00  0.00     0.043 A 
HETATM   21  C   UNL     1       5.758   0.618  20.525  1.00  0.00     0.063 A 
HETATM   22 CL   UNL     1       5.185   0.774  21.985  1.00  0.00    -0.082 Cl
ENDBRANCH  13  15
ENDBRANCH  10  11
ENDBRANCH   1  10
BRANCH   1  23
HETATM   23  S   UNL     1      11.930  -1.945  22.535  1.00  0.00    -0.112 SA
BRANCH  23  24
HETATM   24  C   UNL     1      12.712  -0.715  23.297  1.00  0.00     0.046 C 
HETATM   25  C   UNL     1      11.914   0.019  24.073  1.00  0.00    -0.004 C 
HETATM   26  C   UNL     1      11.186   0.150  24.548  1.00  0.00     0.011 C 
ENDBRANCH  23  24
ENDBRANCH   1  23
TORSDOF 8
