MODEL 1
REMARK VINA RESULT:    -6.818      0.000      0.000
REMARK INTER + INTRA:         -10.803
REMARK INTER:                 -10.006
REMARK INTRA:                  -0.797
REMARK UNBOUND:                -0.797
REMARK  8 active torsions:
REMARK  status: ('A' for Active; 'I' for Inactive)
REMARK    1  A    between atoms: S_2  and  N_5 
REMARK    2  A    between atoms: N_5  and  C_7 
REMARK    3  A    between atoms: C_8  and  C_9 
REMARK    4  A    between atoms: C_9  and  C_14 
REMARK    5  A    between atoms: C_9  and  S_13 
REMARK    6  A    between atoms: C_12  and  S_13 
REMARK    7  A    between atoms: C_14  and  C_15 
REMARK       I    between atoms: C_15  and  N_17 
REMARK    8  A    between atoms: N_17  and  C_19 
ROOT
HETATM    1  C   UNL     1       9.129  -1.312  22.024  1.00  0.00     0.208 C 
ENDROOT
BRANCH   1   2
HETATM    2  C   UNL     1       8.078  -0.895  21.474  1.00  0.00    -0.055 C 
HETATM    3  C   UNL     1       7.042  -0.525  21.138  1.00  0.00     0.023 C 
BRANCH   3   4
HETATM    4  N   UNL     1       6.112  -0.259  20.469  1.00  0.00    -0.230 N 
ATOM      5  HN  UNL     1       5.172  -0.259  20.865  1.00  0.00     0.190 HD
BRANCH   4   6
HETATM    6  S   UNL     1       6.345   0.107  18.914  1.00  0.00     0.327 S 
HETATM    7 CL   UNL     1       5.199   1.535  18.666  1.00  0.00     0.042 Cl
HETATM    8  O   UNL     1       7.692   0.528  18.717  1.00  0.00    -0.188 OA
HETATM    9  O   UNL     1       5.872  -0.918  18.054  1.00  0.00    -0.188 OA
ENDBRANCH   4   6
ENDBRANCH   3   4
ENDBRANCH   1   2
BRANCH   1  10
HETATM   10  C   UNL     1       8.930  -2.289  22.747  1.00  0.00    -0.055 C 
BRANCH  10  11
HETATM   11  C   UNL     1       8.357  -3.254  23.522  1.00  0.00     0.290 C 
HETATM   12  O   UNL     1       7.777  -4.174  23.039  1.00  0.00    -0.259 OA
HETATM   13  N   UNL     1       8.588  -2.962  24.828  1.00  0.00    -0.314 N 
ATOM     14  HN  UNL     1       9.141  -2.152  25.107  1.00  0.00     0.170 HD
BRANCH  13  15
HETATM   15  C   UNL     1       8.075  -3.753  25.687  1.00  0.00     0.072 A 
HETATM   16  C   UNL     1       8.465  -4.853  26.328  1.00  0.00     0.119 A 
HETATM   17  N   UNL     1       8.387  -5.758  27.074  1.00  0.00    -0.373 N 
HETATM   18  C   UNL     1       7.199  -5.435  27.503  1.00  0.00     0.089 A 
ATOM     19  HN  UNL     1       9.021  -6.523  27.303  1.00  0.00     0.164 HD
HETATM   20  C   UNL     1       6.521  -4.504  27.185  1.00  0.00     0.043 A 
HETATM   21  C   UNL     1       6.704  -3.525  26.324  1.00  0.00     0.063 A 
HETATM   22 CL   UNL     1       5.735  -2.336  25.963  1.00  0.00    -0.082 Cl
ENDBRANCH  13  15
ENDBRANCH  10  11
ENDBRANCH   1  10
BRANCH   1  23
HETATM   23  S   UNL     1      10.514  -0.259  22.267  1.00  0.00    -0.112 SA
BRANCH  23  24
HETATM   24  C   UNL     1      11.427  -1.344  23.101  1.00  0.00     0.046 C 
HETATM   25  C   UNL     1      12.371  -0.775  23.851  1.00  0.00    -0.004 C 
HETATM   26  C   UNL     1      12.724  -0.099  24.289  1.00  0.00     0.011 C 
ENDBRANCH  23  24
ENDBRANCH   1  23
TORSDOF 8
ENDMDL
MODEL 2
REMARK VINA RESULT:    -6.548      3.810      7.406
REMARK INTER + INTRA:         -10.408
REMARK INTER:                  -9.450
REMARK INTRA:                  -0.957
REMARK UNBOUND:                -0.797
REMARK  8 active torsions:
REMARK  status: ('A' for Active; 'I' for Inactive)
REMARK    1  A    between atoms: S_2  and  N_5 
REMARK    2  A    between atoms: N_5  and  C_7 
REMARK    3  A    between atoms: C_8  and  C_9 
REMARK    4  A    between atoms: C_9  and  C_14 
REMARK    5  A    between atoms: C_9  and  S_13 
REMARK    6  A    between atoms: C_12  and  S_13 
REMARK    7  A    between atoms: C_14  and  C_15 
REMARK       I    between atoms: C_15  and  N_17 
REMARK    8  A    between atoms: N_17  and  C_19 
ROOT
HETATM    1  C   UNL     1       7.468  -4.086  24.123  1.00  0.00     0.208 C 
ENDROOT
BRANCH   1   2
HETATM    2  C   UNL     1       7.652  -4.691  25.209  1.00  0.00    -0.055 C 
HETATM    3  C   UNL     1       7.994  -5.188  26.189  1.00  0.00     0.023 C 
BRANCH   3   4
HETATM    4  N   UNL     1       8.044  -5.898  27.125  1.00  0.00    -0.230 N 
ATOM      5  HN  UNL     1       8.895  -6.420  27.333  1.00  0.00     0.190 HD
BRANCH   4   6
HETATM    6  S   UNL     1       6.747  -6.035  28.074  1.00  0.00     0.327 S 
HETATM    7 CL   UNL     1       5.447  -6.605  26.892  1.00  0.00     0.042 Cl
HETATM    8  O   UNL     1       6.977  -7.039  29.060  1.00  0.00    -0.188 OA
HETATM    9  O   UNL     1       6.305  -4.773  28.551  1.00  0.00    -0.188 OA
ENDBRANCH   4   6
ENDBRANCH   3   4
ENDBRANCH   1   2
BRANCH   1  10
HETATM   10  C   UNL     1       8.423  -3.372  23.810  1.00  0.00    -0.055 C 
BRANCH  10  11
HETATM   11  C   UNL     1       9.219  -2.317  23.474  1.00  0.00     0.290 C 
HETATM   12  O   UNL     1       9.460  -2.060  22.337  1.00  0.00    -0.259 OA
HETATM   13  N   UNL     1       9.618  -1.689  24.610  1.00  0.00    -0.314 N 
ATOM     14  HN  UNL     1       9.302  -1.994  25.531  1.00  0.00     0.170 HD
BRANCH  13  15
HETATM   15  C   UNL     1      10.409  -0.699  24.465  1.00  0.00     0.072 A 
HETATM   16  C   UNL     1      11.718  -0.537  24.291  1.00  0.00     0.119 A 
HETATM   17  N   UNL     1      12.726   0.045  24.123  1.00  0.00    -0.373 N 
HETATM   18  C   UNL     1      12.161   1.219  24.086  1.00  0.00     0.089 A 
ATOM     19  HN  UNL     1      13.695  -0.260  24.037  1.00  0.00     0.164 HD
HETATM   20  C   UNL     1      11.001   1.490  24.185  1.00  0.00     0.043 A 
HETATM   21  C   UNL     1       9.929   0.750  24.373  1.00  0.00     0.063 A 
HETATM   22 CL   UNL     1       8.426   1.207  24.503  1.00  0.00    -0.082 Cl
ENDBRANCH  13  15
ENDBRANCH  10  11
ENDBRANCH   1  10
BRANCH   1  23
HETATM   23  S   UNL     1       5.851  -3.772  23.513  1.00  0.00    -0.112 SA
BRANCH  23  24
HETATM   24  C   UNL     1       6.238  -3.842  21.916  1.00  0.00     0.046 C 
HETATM   25  C   UNL     1       6.257  -5.083  21.431  1.00  0.00    -0.004 C 
HETATM   26  C   UNL     1       6.036  -5.934  21.443  1.00  0.00     0.011 C 
ENDBRANCH  23  24
ENDBRANCH   1  23
TORSDOF 8
ENDMDL
MODEL 3
REMARK VINA RESULT:    -6.437      2.731      6.988
REMARK INTER + INTRA:         -10.244
REMARK INTER:                  -9.235
REMARK INTRA:                  -1.009
REMARK UNBOUND:                -0.797
REMARK  8 active torsions:
REMARK  status: ('A' for Active; 'I' for Inactive)
REMARK    1  A    between atoms: S_2  and  N_5 
REMARK    2  A    between atoms: N_5  and  C_7 
REMARK    3  A    between atoms: C_8  and  C_9 
REMARK    4  A    between atoms: C_9  and  C_14 
REMARK    5  A    between atoms: C_9  and  S_13 
REMARK    6  A    between atoms: C_12  and  S_13 
REMARK    7  A    between atoms: C_14  and  C_15 
REMARK       I    between atoms: C_15  and  N_17 
REMARK    8  A    between atoms: N_17  and  C_19 
ROOT
HETATM    1  C   UNL     1       9.496  -1.645  23.251  1.00  0.00     0.208 C 
ENDROOT
BRANCH   1   2
HETATM    2  C   UNL     1       8.994  -2.650  23.815  1.00  0.00    -0.055 C 
HETATM    3  C   UNL     1       8.705  -3.606  24.388  1.00  0.00     0.023 C 
BRANCH   3   4
HETATM    4  N   UNL     1       8.122  -4.561  24.746  1.00  0.00    -0.230 N 
ATOM      5  HN  UNL     1       7.798  -5.253  24.069  1.00  0.00     0.190 HD
BRANCH   4   6
HETATM    6  S   UNL     1       7.840  -4.763  26.321  1.00  0.00     0.327 S 
HETATM    7 CL   UNL     1       6.753  -3.323  26.719  1.00  0.00     0.042 Cl
HETATM    8  O   UNL     1       7.126  -5.979  26.529  1.00  0.00    -0.188 OA
HETATM    9  O   UNL     1       9.015  -4.582  27.096  1.00  0.00    -0.188 OA
ENDBRANCH   4   6
ENDBRANCH   3   4
ENDBRANCH   1   2
BRANCH   1  10
HETATM   10  C   UNL     1       8.719  -1.110  22.457  1.00  0.00    -0.055 C 
BRANCH  10  11
HETATM   11  C   UNL     1       7.688  -0.847  21.605  1.00  0.00     0.290 C 
HETATM   12  O   UNL     1       6.744  -1.570  21.533  1.00  0.00    -0.259 OA
HETATM   13  N   UNL     1       7.951   0.307  20.940  1.00  0.00    -0.314 N 
ATOM     14  HN  UNL     1       8.790   0.855  21.128  1.00  0.00     0.170 HD
BRANCH  13  15
HETATM   15  C   UNL     1       7.094   0.669  20.068  1.00  0.00     0.072 A 
HETATM   16  C   UNL     1       6.867   0.410  18.782  1.00  0.00     0.119 A 
HETATM   17  N   UNL     1       6.316   0.466  17.746  1.00  0.00    -0.373 N 
HETATM   18  C   UNL     1       5.372   1.258  18.174  1.00  0.00     0.089 A 
ATOM     19  HN  UNL     1       6.507   0.046  16.837  1.00  0.00     0.164 HD
HETATM   20  C   UNL     1       5.216   1.700  19.273  1.00  0.00     0.043 A 
HETATM   21  C   UNL     1       5.903   1.573  20.388  1.00  0.00     0.063 A 
HETATM   22 CL   UNL     1       5.617   2.213  21.800  1.00  0.00    -0.082 Cl
ENDBRANCH  13  15
ENDBRANCH  10  11
ENDBRANCH   1  10
BRANCH   1  23
HETATM   23  S   UNL     1      11.235  -1.453  23.101  1.00  0.00    -0.112 SA
BRANCH  23  24
HETATM   24  C   UNL     1      11.446  -0.591  24.486  1.00  0.00     0.046 C 
HETATM   25  C   UNL     1      11.509   0.725  24.286  1.00  0.00    -0.004 C 
HETATM   26  C   UNL     1      11.359   1.456  23.821  1.00  0.00     0.011 C 
ENDBRANCH  23  24
ENDBRANCH   1  23
TORSDOF 8
ENDMDL
MODEL 4
REMARK VINA RESULT:    -6.239      1.848      1.977
REMARK INTER + INTRA:          -9.954
REMARK INTER:                  -9.113
REMARK INTRA:                  -0.841
REMARK UNBOUND:                -0.797
REMARK  8 active torsions:
REMARK  status: ('A' for Active; 'I' for Inactive)
REMARK    1  A    between atoms: S_2  and  N_5 
REMARK    2  A    between atoms: N_5  and  C_7 
REMARK    3  A    between atoms: C_8  and  C_9 
REMARK    4  A    between atoms: C_9  and  C_14 
REMARK    5  A    between atoms: C_9  and  S_13 
REMARK    6  A    between atoms: C_12  and  S_13 
REMARK    7  A    between atoms: C_14  and  C_15 
REMARK       I    between atoms: C_15  and  N_17 
REMARK    8  A    between atoms: N_17  and  C_19 
ROOT
HETATM    1  C   UNL     1       8.391  -2.006  22.896  1.00  0.00     0.208 C 
ENDROOT
BRANCH   1   2
HETATM    2  C   UNL     1       7.580  -1.590  22.031  1.00  0.00    -0.055 C 
HETATM    3  C   UNL     1       6.968  -1.090  21.194  1.00  0.00     0.023 C 
BRANCH   3   4
HETATM    4  N   UNL     1       6.067  -0.725  20.533  1.00  0.00    -0.230 N 
ATOM      5  HN  UNL     1       5.108  -0.818  20.868  1.00  0.00     0.190 HD
BRANCH   4   6
HETATM    6  S   UNL     1       6.369  -0.077  19.086  1.00  0.00     0.327 S 
HETATM    7 CL   UNL     1       5.335   1.454  19.113  1.00  0.00     0.042 Cl
HETATM    8  O   UNL     1       7.748   0.272  18.995  1.00  0.00    -0.188 OA
HETATM    9  O   UNL     1       5.849  -0.873  18.032  1.00  0.00    -0.188 OA
ENDBRANCH   4   6
ENDBRANCH   3   4
ENDBRANCH   1   2
BRANCH   1  10
HETATM   10  C   UNL     1       7.951  -2.961  23.539  1.00  0.00    -0.055 C 
BRANCH  10  11
HETATM   11  C   UNL     1       7.392  -4.148  23.909  1.00  0.00     0.290 C 
HETATM   12  O   UNL     1       7.708  -5.171  23.389  1.00  0.00    -0.259 OA
HETATM   13  N   UNL     1       6.499  -3.921  24.907  1.00  0.00    -0.314 N 
ATOM     14  HN  UNL     1       6.351  -2.988  25.292  1.00  0.00     0.170 HD
BRANCH  13  15
HETATM   15  C   UNL     1       5.856  -4.935  25.337  1.00  0.00     0.072 A 
HETATM   16  C   UNL     1       5.988  -5.797  26.343  1.00  0.00     0.119 A 
HETATM   17  N   UNL     1       5.712  -6.706  27.035  1.00  0.00    -0.373 N 
HETATM   18  C   UNL     1       4.615  -6.994  26.393  1.00  0.00     0.089 A 
ATOM     19  HN  UNL     1       6.168  -7.120  27.847  1.00  0.00     0.164 HD
HETATM   20  C   UNL     1       4.142  -6.442  25.445  1.00  0.00     0.043 A 
HETATM   21  C   UNL     1       4.536  -5.410  24.730  1.00  0.00     0.063 A 
HETATM   22 CL   UNL     1       3.839  -4.756  23.476  1.00  0.00    -0.082 Cl
ENDBRANCH  13  15
ENDBRANCH  10  11
ENDBRANCH   1  10
BRANCH   1  23
HETATM   23  S   UNL     1       9.651  -0.968  23.544  1.00  0.00    -0.112 SA
BRANCH  23  24
HETATM   24  C   UNL     1      10.909  -1.703  22.780  1.00  0.00     0.046 C 
HETATM   25  C   UNL     1      12.102  -1.271  23.189  1.00  0.00    -0.004 C 
HETATM   26  C   UNL     1      12.641  -0.888  23.769  1.00  0.00     0.011 C 
ENDBRANCH  23  24
ENDBRANCH   1  23
TORSDOF 8
ENDMDL
MODEL 5
REMARK VINA RESULT:    -6.176      4.384      6.509
REMARK INTER + INTRA:          -9.862
REMARK INTER:                  -8.725
REMARK INTRA:                  -1.137
REMARK UNBOUND:                -0.797
REMARK  8 active torsions:
REMARK  status: ('A' for Active; 'I' for Inactive)
REMARK    1  A    between atoms: S_2  and  N_5 
REMARK    2  A    between atoms: N_5  and  C_7 
REMARK    3  A    between atoms: C_8  and  C_9 
REMARK    4  A    between atoms: C_9  and  C_14 
REMARK    5  A    between atoms: C_9  and  S_13 
REMARK    6  A    between atoms: C_12  and  S_13 
REMARK    7  A    between atoms: C_14  and  C_15 
REMARK       I    between atoms: C_15  and  N_17 
REMARK    8  A    between atoms: N_17  and  C_19 
ROOT
HETATM    1  C   UNL     1       8.442   0.133  22.671  1.00  0.00     0.208 C 
ENDROOT
BRANCH   1   2
HETATM    2  C   UNL     1       8.125   0.197  21.456  1.00  0.00    -0.055 C 
HETATM    3  C   UNL     1       7.834   0.438  20.369  1.00  0.00     0.023 C 
BRANCH   3   4
HETATM    4  N   UNL     1       7.420   0.335  19.274  1.00  0.00    -0.230 N 
ATOM      5  HN  UNL     1       8.049   0.405  18.474  1.00  0.00     0.190 HD
BRANCH   4   6
HETATM    6  S   UNL     1       5.842   0.083  19.053  1.00  0.00     0.327 S 
HETATM    7 CL   UNL     1       5.571  -1.528  19.916  1.00  0.00     0.042 Cl
HETATM    8  O   UNL     1       5.096   1.110  19.703  1.00  0.00    -0.188 OA
HETATM    9  O   UNL     1       5.530  -0.155  17.689  1.00  0.00    -0.188 OA
ENDBRANCH   4   6
ENDBRANCH   3   4
ENDBRANCH   1   2
BRANCH   1  10
HETATM   10  C   UNL     1       8.969   1.169  23.079  1.00  0.00    -0.055 C 
BRANCH  10  11
HETATM   11  C   UNL     1       9.745   2.074  23.741  1.00  0.00     0.290 C 
HETATM   12  O   UNL     1      10.150   1.858  24.840  1.00  0.00    -0.259 OA
HETATM   13  N   UNL     1       9.938   3.154  22.941  1.00  0.00    -0.314 N 
ATOM     14  HN  UNL     1       9.563   3.194  21.994  1.00  0.00     0.170 HD
BRANCH  13  15
HETATM   15  C   UNL     1      10.614   4.116  23.437  1.00  0.00     0.072 A 
HETATM   16  C   UNL     1      11.888   4.501  23.418  1.00  0.00     0.119 A 
HETATM   17  N   UNL     1      12.820   5.178  23.652  1.00  0.00    -0.373 N 
HETATM   18  C   UNL     1      12.136   6.064  24.321  1.00  0.00     0.089 A 
ATOM     19  HN  UNL     1      13.809   5.100  23.416  1.00  0.00     0.164 HD
HETATM   20  C   UNL     1      10.963   6.084  24.543  1.00  0.00     0.043 A 
HETATM   21  C   UNL     1       9.984   5.262  24.229  1.00  0.00     0.063 A 
HETATM   22 CL   UNL     1       8.452   5.372  24.582  1.00  0.00    -0.082 Cl
ENDBRANCH  13  15
ENDBRANCH  10  11
ENDBRANCH   1  10
BRANCH   1  23
HETATM   23  S   UNL     1       8.717  -1.411  23.464  1.00  0.00    -0.112 SA
BRANCH  23  24
HETATM   24  C   UNL     1       9.920  -1.920  22.465  1.00  0.00     0.046 C 
HETATM   25  C   UNL     1      11.137  -1.561  22.876  1.00  0.00    -0.004 C 
HETATM   26  C   UNL     1      11.714  -1.306  23.487  1.00  0.00     0.011 C 
ENDBRANCH  23  24
ENDBRANCH   1  23
TORSDOF 8
ENDMDL
MODEL 6
REMARK VINA RESULT:    -6.159      3.886      5.505
REMARK INTER + INTRA:          -9.836
REMARK INTER:                  -8.690
REMARK INTRA:                  -1.146
REMARK UNBOUND:                -0.797
REMARK  8 active torsions:
REMARK  status: ('A' for Active; 'I' for Inactive)
REMARK    1  A    between atoms: S_2  and  N_5 
REMARK    2  A    between atoms: N_5  and  C_7 
REMARK    3  A    between atoms: C_8  and  C_9 
REMARK    4  A    between atoms: C_9  and  C_14 
REMARK    5  A    between atoms: C_9  and  S_13 
REMARK    6  A    between atoms: C_12  and  S_13 
REMARK    7  A    between atoms: C_14  and  C_15 
REMARK       I    between atoms: C_15  and  N_17 
REMARK    8  A    between atoms: N_17  and  C_19 
ROOT
HETATM    1  C   UNL     1       7.622  -0.193  20.913  1.00  0.00     0.208 C 
ENDROOT
BRANCH   1   2
HETATM    2  C   UNL     1       8.677   0.204  21.470  1.00  0.00    -0.055 C 
HETATM    3  C   UNL     1       9.570   0.735  21.965  1.00  0.00     0.023 C 
BRANCH   3   4
HETATM    4  N   UNL     1      10.650   0.966  22.367  1.00  0.00    -0.230 N 
ATOM      5  HN  UNL     1      11.208   1.712  21.951  1.00  0.00     0.190 HD
BRANCH   4   6
HETATM    6  S   UNL     1      11.238   0.087  23.585  1.00  0.00     0.327 S 
HETATM    7 CL   UNL     1      11.584  -1.536  22.774  1.00  0.00     0.042 Cl
HETATM    8  O   UNL     1      12.456   0.664  24.050  1.00  0.00    -0.188 OA
HETATM    9  O   UNL     1      10.250  -0.179  24.569  1.00  0.00    -0.188 OA
ENDBRANCH   4   6
ENDBRANCH   3   4
ENDBRANCH   1   2
BRANCH   1  10
HETATM   10  C   UNL     1       7.151  -1.197  21.451  1.00  0.00    -0.055 C 
BRANCH  10  11
HETATM   11  C   UNL     1       6.868  -2.213  22.315  1.00  0.00     0.290 C 
HETATM   12  O   UNL     1       7.646  -2.548  23.153  1.00  0.00    -0.259 OA
HETATM   13  N   UNL     1       5.629  -2.692  22.040  1.00  0.00    -0.314 N 
ATOM     14  HN  UNL     1       5.045  -2.282  21.310  1.00  0.00     0.170 HD
BRANCH  13  15
HETATM   15  C   UNL     1       5.232  -3.682  22.740  1.00  0.00     0.072 A 
HETATM   16  C   UNL     1       4.491  -3.846  23.833  1.00  0.00     0.119 A 
HETATM   17  N   UNL     1       3.935  -4.429  24.689  1.00  0.00    -0.373 N 
HETATM   18  C   UNL     1       4.275  -5.607  24.246  1.00  0.00     0.089 A 
ATOM     19  HN  UNL     1       3.385  -4.123  25.491  1.00  0.00     0.164 HD
HETATM   20  C   UNL     1       4.921  -5.880  23.279  1.00  0.00     0.043 A 
HETATM   21  C   UNL     1       5.510  -5.138  22.366  1.00  0.00     0.063 A 
HETATM   22 CL   UNL     1       6.360  -5.597  21.120  1.00  0.00    -0.082 Cl
ENDBRANCH  13  15
ENDBRANCH  10  11
ENDBRANCH   1  10
BRANCH   1  23
HETATM   23  S   UNL     1       7.266   0.202  19.239  1.00  0.00    -0.112 SA
BRANCH  23  24
HETATM   24  C   UNL     1       5.655  -0.118  19.311  1.00  0.00     0.046 C 
HETATM   25  C   UNL     1       4.901   0.978  19.397  1.00  0.00    -0.004 C 
HETATM   26  C   UNL     1       4.753   1.838  19.295  1.00  0.00     0.011 C 
ENDBRANCH  23  24
ENDBRANCH   1  23
TORSDOF 8
ENDMDL
MODEL 7
REMARK VINA RESULT:    -6.063      2.538      2.758
REMARK INTER + INTRA:          -9.696
REMARK INTER:                  -8.553
REMARK INTRA:                  -1.143
REMARK UNBOUND:                -0.797
REMARK  8 active torsions:
REMARK  status: ('A' for Active; 'I' for Inactive)
REMARK    1  A    between atoms: S_2  and  N_5 
REMARK    2  A    between atoms: N_5  and  C_7 
REMARK    3  A    between atoms: C_8  and  C_9 
REMARK    4  A    between atoms: C_9  and  C_14 
REMARK    5  A    between atoms: C_9  and  S_13 
REMARK    6  A    between atoms: C_12  and  S_13 
REMARK    7  A    between atoms: C_14  and  C_15 
REMARK       I    between atoms: C_15  and  N_17 
REMARK    8  A    between atoms: N_17  and  C_19 
ROOT
HETATM    1  C   UNL     1       8.880  -0.158  22.331  1.00  0.00     0.208 C 
ENDROOT
BRANCH   1   2
HETATM    2  C   UNL     1       8.458  -0.091  21.149  1.00  0.00    -0.055 C 
HETATM    3  C   UNL     1       8.097   0.150  20.083  1.00  0.00     0.023 C 
BRANCH   3   4
HETATM    4  N   UNL     1       7.568   0.069  19.037  1.00  0.00    -0.230 N 
ATOM      5  HN  UNL     1       8.087   0.257  18.179  1.00  0.00     0.190 HD
BRANCH   4   6
HETATM    6  S   UNL     1       6.009  -0.343  18.976  1.00  0.00     0.327 S 
HETATM    7 CL   UNL     1       5.166   1.205  19.529  1.00  0.00     0.042 Cl
HETATM    8  O   UNL     1       5.643  -0.639  17.631  1.00  0.00    -0.188 OA
HETATM    9  O   UNL     1       5.684  -1.325  19.949  1.00  0.00    -0.188 OA
ENDBRANCH   4   6
ENDBRANCH   3   4
ENDBRANCH   1   2
BRANCH   1  10
HETATM   10  C   UNL     1       8.559  -1.208  22.890  1.00  0.00    -0.055 C 
BRANCH  10  11
HETATM   11  C   UNL     1       8.128  -2.474  23.159  1.00  0.00     0.290 C 
HETATM   12  O   UNL     1       8.685  -3.162  23.957  1.00  0.00    -0.259 OA
HETATM   13  N   UNL     1       7.033  -2.735  22.402  1.00  0.00    -0.314 N 
ATOM     14  HN  UNL     1       6.630  -2.034  21.780  1.00  0.00     0.170 HD
BRANCH  13  15
HETATM   15  C   UNL     1       6.532  -3.904  22.508  1.00  0.00     0.072 A 
HETATM   16  C   UNL     1       6.775  -5.102  21.981  1.00  0.00     0.119 A 
HETATM   17  N   UNL     1       6.639  -6.255  21.801  1.00  0.00    -0.373 N 
HETATM   18  C   UNL     1       5.669  -6.379  22.663  1.00  0.00     0.089 A 
ATOM     19  HN  UNL     1       7.111  -6.921  21.191  1.00  0.00     0.164 HD
HETATM   20  C   UNL     1       5.177  -5.538  23.354  1.00  0.00     0.043 A 
HETATM   21  C   UNL     1       5.406  -4.248  23.484  1.00  0.00     0.063 A 
HETATM   22 CL   UNL     1       4.688  -3.209  24.426  1.00  0.00    -0.082 Cl
ENDBRANCH  13  15
ENDBRANCH  10  11
ENDBRANCH   1  10
BRANCH   1  23
HETATM   23  S   UNL     1       9.262   1.289  23.250  1.00  0.00    -0.112 SA
BRANCH  23  24
HETATM   24  C   UNL     1      10.871   1.306  22.909  1.00  0.00     0.046 C 
HETATM   25  C   UNL     1      11.625   0.819  23.895  1.00  0.00    -0.004 C 
HETATM   26  C   UNL     1      11.755   0.337  24.619  1.00  0.00     0.011 C 
ENDBRANCH  23  24
ENDBRANCH   1  23
TORSDOF 8
ENDMDL
MODEL 8
REMARK VINA RESULT:    -6.037      3.468      5.778
REMARK INTER + INTRA:          -9.657
REMARK INTER:                  -8.620
REMARK INTRA:                  -1.037
REMARK UNBOUND:                -0.797
REMARK  8 active torsions:
REMARK  status: ('A' for Active; 'I' for Inactive)
REMARK    1  A    between atoms: S_2  and  N_5 
REMARK    2  A    between atoms: N_5  and  C_7 
REMARK    3  A    between atoms: C_8  and  C_9 
REMARK    4  A    between atoms: C_9  and  C_14 
REMARK    5  A    between atoms: C_9  and  S_13 
REMARK    6  A    between atoms: C_12  and  S_13 
REMARK    7  A    between atoms: C_14  and  C_15 
REMARK       I    between atoms: C_15  and  N_17 
REMARK    8  A    between atoms: N_17  and  C_19 
ROOT
HETATM    1  C   UNL     1       6.953  -2.186  22.871  1.00  0.00     0.208 C 
ENDROOT
BRANCH   1   2
HETATM    2  C   UNL     1       6.379  -1.906  21.788  1.00  0.00    -0.055 C 
HETATM    3  C   UNL     1       5.999  -1.727  20.717  1.00  0.00     0.023 C 
BRANCH   3   4
HETATM    4  N   UNL     1       5.411  -1.289  19.798  1.00  0.00    -0.230 N 
ATOM      5  HN  UNL     1       4.507  -1.679  19.528  1.00  0.00     0.190 HD
BRANCH   4   6
HETATM    6  S   UNL     1       6.053  -0.063  18.968  1.00  0.00     0.327 S 
HETATM    7 CL   UNL     1       5.395   1.412  19.864  1.00  0.00     0.042 Cl
HETATM    8  O   UNL     1       7.474  -0.101  19.079  1.00  0.00    -0.188 OA
HETATM    9  O   UNL     1       5.525   0.019  17.654  1.00  0.00    -0.188 OA
ENDBRANCH   4   6
ENDBRANCH   3   4
ENDBRANCH   1   2
BRANCH   1  10
HETATM   10  C   UNL     1       7.365  -1.186  23.461  1.00  0.00    -0.055 C 
BRANCH  10  11
HETATM   11  C   UNL     1       8.056  -0.068  23.825  1.00  0.00     0.290 C 
HETATM   12  O   UNL     1       7.760   0.555  24.796  1.00  0.00    -0.259 OA
HETATM   13  N   UNL     1       9.056   0.141  22.932  1.00  0.00    -0.314 N 
ATOM     14  HN  UNL     1       9.226  -0.500  22.157  1.00  0.00     0.170 HD
BRANCH  13  15
HETATM   15  C   UNL     1       9.773   1.181  23.112  1.00  0.00     0.072 A 
HETATM   16  C   UNL     1       9.652   2.483  22.860  1.00  0.00     0.119 A 
HETATM   17  N   UNL     1       9.958   3.617  22.848  1.00  0.00    -0.373 N 
HETATM   18  C   UNL     1      11.088   3.425  23.470  1.00  0.00     0.089 A 
ATOM     19  HN  UNL     1       9.503   4.453  22.483  1.00  0.00     0.164 HD
HETATM   20  C   UNL     1      11.546   2.401  23.879  1.00  0.00     0.043 A 
HETATM   21  C   UNL     1      11.115   1.157  23.843  1.00  0.00     0.063 A 
HETATM   22 CL   UNL     1      11.806  -0.142  24.408  1.00  0.00    -0.082 Cl
ENDBRANCH  13  15
ENDBRANCH  10  11
ENDBRANCH   1  10
BRANCH   1  23
HETATM   23  S   UNL     1       7.658  -3.770  23.150  1.00  0.00    -0.112 SA
BRANCH  23  24
HETATM   24  C   UNL     1       6.258  -4.623  23.013  1.00  0.00     0.046 C 
HETATM   25  C   UNL     1       6.289  -5.539  22.045  1.00  0.00    -0.004 C 
HETATM   26  C   UNL     1       6.704  -6.077  21.488  1.00  0.00     0.011 C 
ENDBRANCH  23  24
ENDBRANCH   1  23
TORSDOF 8
ENDMDL
MODEL 9
REMARK VINA RESULT:    -5.909     14.955     17.276
REMARK INTER + INTRA:          -9.470
REMARK INTER:                  -8.564
REMARK INTRA:                  -0.906
REMARK UNBOUND:                -0.797
REMARK  8 active torsions:
REMARK  status: ('A' for Active; 'I' for Inactive)
REMARK    1  A    between atoms: S_2  and  N_5 
REMARK    2  A    between atoms: N_5  and  C_7 
REMARK    3  A    between atoms: C_8  and  C_9 
REMARK    4  A    between atoms: C_9  and  C_14 
REMARK    5  A    between atoms: C_9  and  S_13 
REMARK    6  A    between atoms: C_12  and  S_13 
REMARK    7  A    between atoms: C_14  and  C_15 
REMARK       I    between atoms: C_15  and  N_17 
REMARK    8  A    between atoms: N_17  and  C_19 
ROOT
HETATM    1  C   UNL     1      23.760  -2.123  23.485  1.00  0.00     0.208 C 
ENDROOT
BRANCH   1   2
HETATM    2  C   UNL     1      23.972  -3.338  23.728  1.00  0.00    -0.055 C 
HETATM    3  C   UNL     1      24.331  -4.421  23.879  1.00  0.00     0.023 C 
BRANCH   3   4
HETATM    4  N   UNL     1      24.335  -5.585  24.044  1.00  0.00    -0.230 N 
ATOM      5  HN  UNL     1      24.431  -6.219  23.251  1.00  0.00     0.190 HD
BRANCH   4   6
HETATM    6  S   UNL     1      24.187  -6.165  25.542  1.00  0.00     0.327 S 
HETATM    7 CL   UNL     1      25.883  -5.922  26.233  1.00  0.00     0.042 Cl
HETATM    8  O   UNL     1      23.251  -5.376  26.272  1.00  0.00    -0.188 OA
HETATM    9  O   UNL     1      23.968  -7.567  25.546  1.00  0.00    -0.188 OA
ENDBRANCH   4   6
ENDBRANCH   3   4
ENDBRANCH   1   2
BRANCH   1  10
HETATM   10  C   UNL     1      23.632  -1.896  22.281  1.00  0.00    -0.055 C 
BRANCH  10  11
HETATM   11  C   UNL     1      23.145  -1.764  21.014  1.00  0.00     0.290 C 
HETATM   12  O   UNL     1      21.980  -1.859  20.786  1.00  0.00    -0.259 OA
HETATM   13  N   UNL     1      24.178  -1.515  20.170  1.00  0.00    -0.314 N 
ATOM     14  HN  UNL     1      25.136  -1.419  20.507  1.00  0.00     0.170 HD
BRANCH  13  15
HETATM   15  C   UNL     1      23.888  -1.408  18.932  1.00  0.00     0.072 A 
HETATM   16  C   UNL     1      23.544  -0.418  18.111  1.00  0.00     0.119 A 
HETATM   17  N   UNL     1      23.250   0.095  17.096  1.00  0.00    -0.373 N 
HETATM   18  C   UNL     1      23.338  -1.002  16.397  1.00  0.00     0.089 A 
ATOM     19  HN  UNL     1      23.011   1.055  16.849  1.00  0.00     0.164 HD
HETATM   20  C   UNL     1      23.639  -2.097  16.768  1.00  0.00     0.043 A 
HETATM   21  C   UNL     1      23.959  -2.578  17.950  1.00  0.00     0.063 A 
HETATM   22 CL   UNL     1      24.334  -4.057  18.344  1.00  0.00    -0.082 Cl
ENDBRANCH  13  15
ENDBRANCH  10  11
ENDBRANCH   1  10
BRANCH   1  23
HETATM   23  S   UNL     1      24.254  -0.865  24.608  1.00  0.00    -0.112 SA
BRANCH  23  24
HETATM   24  C   UNL     1      23.039  -1.097  25.692  1.00  0.00     0.046 C 
HETATM   25  C   UNL     1      21.920  -0.443  25.379  1.00  0.00    -0.004 C 
HETATM   26  C   UNL     1      21.379  -0.038  24.817  1.00  0.00     0.011 C 
ENDBRANCH  23  24
ENDBRANCH   1  23
TORSDOF 8
ENDMDL
