MODEL 1
REMARK VINA RESULT:    -6.512      0.000      0.000
REMARK INTER + INTRA:          -7.144
REMARK INTER:                  -7.083
REMARK INTRA:                  -0.061
REMARK UNBOUND:                -0.061
REMARK  2 active torsions:
REMARK  status: ('A' for Active; 'I' for Inactive)
REMARK    1  A    between atoms: N_4  and  O_7 
REMARK    2  A    between atoms: O_7  and  C_11 
ROOT
HETATM    1  C   UNL     1       7.881  18.453   0.526  1.00  0.00     0.056 A 
HETATM    2  C   UNL     1       9.185  17.120   1.831  1.00  0.00     0.076 A 
HETATM    3  C   UNL     1       9.214  15.698   2.479  1.00  0.00     0.073 A 
HETATM    4  N   UNL     1       7.271  16.057   1.330  1.00  0.00    -0.353 N 
HETATM    5  C   UNL     1       7.628  13.857   2.428  1.00  0.00     0.047 C 
HETATM    6  N   UNL     1       9.825  13.562   3.347  1.00  0.00    -0.344 N 
ATOM      7  HN  UNL     1      10.530  12.917   3.705  1.00  0.00     0.167 HD
HETATM    8  C   UNL     1      10.138  14.815   3.149  1.00  0.00     0.184 C 
HETATM    9  C   UNL     1       9.693  20.335   0.309  1.00  0.00     0.068 C 
HETATM   10  C   UNL     1       9.105  19.051   0.784  1.00  0.00     0.008 A 
HETATM   11  N   UNL     1       9.872  18.253   1.597  1.00  0.00    -0.357 N 
ATOM     12  HN  UNL     1      10.799  18.480   1.960  1.00  0.00     0.166 HD
HETATM   13  H   UNL     1       6.368  15.855   0.927  1.00  0.00     0.166 HD
HETATM   14  C   UNL     1       8.591  13.116   3.088  1.00  0.00     0.092 C 
HETATM   15  C   UNL     1       7.952  17.206   1.180  1.00  0.00     0.062 A 
HETATM   16  C   UNL     1       8.005  15.161   2.090  1.00  0.00     0.051 A 
ENDROOT
BRANCH   8  17
HETATM   17  O   UNL     1      11.385  15.116   3.602  1.00  0.00    -0.226 OA
BRANCH  17  18
HETATM   18  N   UNL     1      11.878  14.610   4.749  1.00  0.00    -0.304 N 
HETATM   19  H   UNL     1      12.373  13.761   4.683  1.00  0.00     0.184 HD
HETATM   20  H   UNL     1      11.825  15.226   5.546  1.00  0.00     0.184 HD
ENDBRANCH  17  18
ENDBRANCH   8  17
TORSDOF 2
ENDMDL
MODEL 2
REMARK VINA RESULT:    -5.540     35.857     37.211
REMARK INTER + INTRA:          -6.088
REMARK INTER:                  -6.025
REMARK INTRA:                  -0.062
REMARK UNBOUND:                -0.061
REMARK  2 active torsions:
REMARK  status: ('A' for Active; 'I' for Inactive)
REMARK    1  A    between atoms: N_4  and  O_7 
REMARK    2  A    between atoms: O_7  and  C_11 
ROOT
HETATM    1  C   UNL     1      -3.757 -16.966  17.450  1.00  0.00     0.056 A 
HETATM    2  C   UNL     1      -1.986 -16.822  16.027  1.00  0.00     0.076 A 
HETATM    3  C   UNL     1      -1.642 -16.802  14.503  1.00  0.00     0.073 A 
HETATM    4  N   UNL     1      -3.887 -17.053  14.854  1.00  0.00    -0.353 N 
HETATM    5  C   UNL     1      -3.042 -16.934  12.520  1.00  0.00     0.047 C 
HETATM    6  N   UNL     1      -0.710 -16.395  12.346  1.00  0.00    -0.344 N 
ATOM      7  HN  UNL     1       0.058 -16.074  11.756  1.00  0.00     0.167 HD
HETATM    8  C   UNL     1      -0.526 -16.524  13.633  1.00  0.00     0.184 C 
HETATM    9  C   UNL     1      -2.315 -16.523  19.593  1.00  0.00     0.068 C 
HETATM   10  C   UNL     1      -2.578 -16.740  18.143  1.00  0.00     0.008 A 
HETATM   11  N   UNL     1      -1.511 -16.686  17.279  1.00  0.00    -0.357 N 
ATOM     12  HN  UNL     1      -0.532 -16.565  17.541  1.00  0.00     0.166 HD
HETATM   13  H   UNL     1      -4.867 -17.141  14.632  1.00  0.00     0.166 HD
HETATM   14  C   UNL     1      -1.895 -16.679  11.793  1.00  0.00     0.092 C 
HETATM   15  C   UNL     1      -3.371 -16.991  16.093  1.00  0.00     0.062 A 
HETATM   16  C   UNL     1      -2.879 -16.940  13.910  1.00  0.00     0.051 A 
ENDROOT
BRANCH   8  17
HETATM   17  O   UNL     1       0.772 -16.332  13.991  1.00  0.00    -0.226 OA
BRANCH  17  18
HETATM   18  N   UNL     1       1.801 -16.694  13.201  1.00  0.00    -0.304 N 
HETATM   19  H   UNL     1       2.391 -15.973  12.882  1.00  0.00     0.184 HD
HETATM   20  H   UNL     1       1.962 -17.688  13.136  1.00  0.00     0.184 HD
ENDBRANCH  17  18
ENDBRANCH   8  17
TORSDOF 2
ENDMDL
MODEL 3
REMARK VINA RESULT:    -5.497      3.102      4.758
REMARK INTER + INTRA:          -6.040
REMARK INTER:                  -5.976
REMARK INTRA:                  -0.065
REMARK UNBOUND:                -0.061
REMARK  2 active torsions:
REMARK  status: ('A' for Active; 'I' for Inactive)
REMARK    1  A    between atoms: N_4  and  O_7 
REMARK    2  A    between atoms: O_7  and  C_11 
ROOT
HETATM    1  C   UNL     1       9.832  15.116   2.482  1.00  0.00     0.056 A 
HETATM    2  C   UNL     1       7.889  13.991   2.103  1.00  0.00     0.076 A 
HETATM    3  C   UNL     1       7.106  12.717   2.560  1.00  0.00     0.073 A 
HETATM    4  N   UNL     1       9.127  12.884   3.616  1.00  0.00    -0.353 N 
HETATM    5  C   UNL     1       7.631  10.982   4.179  1.00  0.00     0.047 C 
HETATM    6  N   UNL     1       5.451  11.119   3.184  1.00  0.00    -0.344 N 
ATOM      7  HN  UNL     1       4.484  10.794   3.181  1.00  0.00     0.167 HD
HETATM    8  C   UNL     1       5.794  12.132   2.434  1.00  0.00     0.184 C 
HETATM    9  C   UNL     1       9.167  17.154   0.975  1.00  0.00     0.068 C 
HETATM   10  C   UNL     1       9.010  15.817   1.614  1.00  0.00     0.008 A 
HETATM   11  N   UNL     1       7.855  15.117   1.366  1.00  0.00    -0.357 N 
ATOM     12  HN  UNL     1       7.104  15.399   0.736  1.00  0.00     0.166 HD
HETATM   13  H   UNL     1       9.875  12.653   4.252  1.00  0.00     0.166 HD
HETATM   14  C   UNL     1       6.353  10.503   3.957  1.00  0.00     0.092 C 
HETATM   15  C   UNL     1       9.094  13.959   2.810  1.00  0.00     0.062 A 
HETATM   16  C   UNL     1       7.962  12.148   3.479  1.00  0.00     0.051 A 
ENDROOT
BRANCH   8  17
HETATM   17  O   UNL     1       4.787  12.533   1.614  1.00  0.00    -0.226 OA
BRANCH  17  18
HETATM   18  N   UNL     1       3.585  11.926   1.595  1.00  0.00    -0.304 N 
HETATM   19  H   UNL     1       2.794  12.509   1.523  1.00  0.00     0.184 HD
HETATM   20  H   UNL     1       3.614  10.922   1.501  1.00  0.00     0.184 HD
ENDBRANCH  17  18
ENDBRANCH   8  17
TORSDOF 2
ENDMDL
MODEL 4
REMARK VINA RESULT:    -5.363     25.964     28.299
REMARK INTER + INTRA:          -5.895
REMARK INTER:                  -5.810
REMARK INTRA:                  -0.084
REMARK UNBOUND:                -0.061
REMARK  2 active torsions:
REMARK  status: ('A' for Active; 'I' for Inactive)
REMARK    1  A    between atoms: N_4  and  O_7 
REMARK    2  A    between atoms: O_7  and  C_11 
ROOT
HETATM    1  C   UNL     1       7.688  -4.326  24.417  1.00  0.00     0.056 A 
HETATM    2  C   UNL     1       8.560  -2.565  23.269  1.00  0.00     0.076 A 
HETATM    3  C   UNL     1       9.304  -1.208  23.492  1.00  0.00     0.073 A 
HETATM    4  N   UNL     1       8.815  -2.235  25.476  1.00  0.00    -0.353 N 
HETATM    5  C   UNL     1      10.048  -0.078  25.512  1.00  0.00     0.047 C 
HETATM    6  N   UNL     1      10.713   0.710  23.344  1.00  0.00    -0.344 N 
ATOM      7  HN  UNL     1      11.307   1.336  22.800  1.00  0.00     0.167 HD
HETATM    8  C   UNL     1      10.007  -0.204  22.733  1.00  0.00     0.184 C 
HETATM    9  C   UNL     1       7.146  -5.710  22.259  1.00  0.00     0.068 C 
HETATM   10  C   UNL     1       7.619  -4.539  23.049  1.00  0.00     0.008 A 
HETATM   11  N   UNL     1       8.118  -3.458  22.364  1.00  0.00    -0.357 N 
ATOM     12  HN  UNL     1       8.148  -3.352  21.350  1.00  0.00     0.166 HD
HETATM   13  H   UNL     1       8.796  -2.389  26.472  1.00  0.00     0.166 HD
HETATM   14  C   UNL     1      10.665   0.834  24.675  1.00  0.00     0.092 C 
HETATM   15  C   UNL     1       8.316  -3.069  24.548  1.00  0.00     0.062 A 
HETATM   16  C   UNL     1       9.401  -1.138  24.866  1.00  0.00     0.051 A 
ENDROOT
BRANCH   8  17
HETATM   17  O   UNL     1      10.069  -0.086  21.379  1.00  0.00    -0.226 OA
BRANCH  17  18
HETATM   18  N   UNL     1       8.985  -0.226  20.591  1.00  0.00    -0.304 N 
HETATM   19  H   UNL     1       8.592   0.601  20.226  1.00  0.00     0.184 HD
HETATM   20  H   UNL     1       8.769  -1.175  20.325  1.00  0.00     0.184 HD
ENDBRANCH  17  18
ENDBRANCH   8  17
TORSDOF 2
ENDMDL
MODEL 5
REMARK VINA RESULT:    -5.350     23.115     23.771
REMARK INTER + INTRA:          -5.880
REMARK INTER:                  -5.858
REMARK INTRA:                  -0.022
REMARK UNBOUND:                -0.061
REMARK  2 active torsions:
REMARK  status: ('A' for Active; 'I' for Inactive)
REMARK    1  A    between atoms: N_4  and  O_7 
REMARK    2  A    between atoms: O_7  and  C_11 
ROOT
HETATM    1  C   UNL     1       3.280   3.168  21.150  1.00  0.00     0.056 A 
HETATM    2  C   UNL     1       4.784   1.923  19.981  1.00  0.00     0.076 A 
HETATM    3  C   UNL     1       6.214   1.303  20.103  1.00  0.00     0.073 A 
HETATM    4  N   UNL     1       5.652   2.494  21.972  1.00  0.00    -0.353 N 
HETATM    5  C   UNL     1       7.855   1.346  21.896  1.00  0.00     0.047 C 
HETATM    6  N   UNL     1       8.157  -0.075  19.985  1.00  0.00    -0.344 N 
ATOM      7  HN  UNL     1       8.684  -0.831  19.549  1.00  0.00     0.167 HD
HETATM    8  C   UNL     1       7.065   0.364  19.416  1.00  0.00     0.184 C 
HETATM    9  C   UNL     1       1.378   2.889  19.368  1.00  0.00     0.068 C 
HETATM   10  C   UNL     1       2.740   2.732  19.950  1.00  0.00     0.008 A 
HETATM   11  N   UNL     1       3.665   2.008  19.238  1.00  0.00    -0.357 N 
ATOM     12  HN  UNL     1       3.529   1.606  18.310  1.00  0.00     0.166 HD
HETATM   13  H   UNL     1       5.740   2.879  22.901  1.00  0.00     0.166 HD
HETATM   14  C   UNL     1       8.590   0.458  21.133  1.00  0.00     0.092 C 
HETATM   15  C   UNL     1       4.580   2.623  21.173  1.00  0.00     0.062 A 
HETATM   16  C   UNL     1       6.619   1.717  21.354  1.00  0.00     0.051 A 
ENDROOT
BRANCH   8  17
HETATM   17  O   UNL     1       6.861  -0.192  18.192  1.00  0.00    -0.226 OA
BRANCH  17  18
HETATM   18  N   UNL     1       5.634  -0.523  17.744  1.00  0.00    -0.304 N 
HETATM   19  H   UNL     1       5.203  -1.302  18.166  1.00  0.00     0.184 HD
HETATM   20  H   UNL     1       5.208   0.150  17.126  1.00  0.00     0.184 HD
ENDBRANCH  17  18
ENDBRANCH   8  17
TORSDOF 2
ENDMDL
MODEL 6
REMARK VINA RESULT:    -5.341      2.450      5.348
REMARK INTER + INTRA:          -5.870
REMARK INTER:                  -5.804
REMARK INTRA:                  -0.066
REMARK UNBOUND:                -0.061
REMARK  2 active torsions:
REMARK  status: ('A' for Active; 'I' for Inactive)
REMARK    1  A    between atoms: N_4  and  O_7 
REMARK    2  A    between atoms: O_7  and  C_11 
ROOT
HETATM    1  C   UNL     1       7.554  17.329   1.077  1.00  0.00     0.056 A 
HETATM    2  C   UNL     1       9.387  18.385   1.915  1.00  0.00     0.076 A 
HETATM    3  C   UNL     1      10.242  19.681   1.730  1.00  0.00     0.073 A 
HETATM    4  N   UNL     1       8.528  19.582   0.220  1.00  0.00    -0.353 N 
HETATM    5  C   UNL     1      10.031  21.560   0.203  1.00  0.00     0.047 C 
HETATM    6  N   UNL     1      11.593  21.624   2.025  1.00  0.00    -0.344 N 
ATOM      7  HN  UNL     1      12.244  22.177   2.583  1.00  0.00     0.167 HD
HETATM    8  C   UNL     1      11.290  20.410   2.401  1.00  0.00     0.184 C 
HETATM    9  C   UNL     1       7.571  15.445   2.899  1.00  0.00     0.068 C 
HETATM   10  C   UNL     1       8.058  16.655   2.178  1.00  0.00     0.008 A 
HETATM   11  N   UNL     1       9.182  17.282   2.658  1.00  0.00    -0.357 N 
ATOM     12  HN  UNL     1       9.759  16.967   3.438  1.00  0.00     0.166 HD
HETATM   13  H   UNL     1       7.917  19.878  -0.526  1.00  0.00     0.166 HD
HETATM   14  C   UNL     1      11.059  22.149   0.916  1.00  0.00     0.092 C 
HETATM   15  C   UNL     1       8.397  18.450   0.932  1.00  0.00     0.062 A 
HETATM   16  C   UNL     1       9.609  20.315   0.683  1.00  0.00     0.051 A 
ENDROOT
BRANCH   8  17
HETATM   17  O   UNL     1      12.034  19.996   3.461  1.00  0.00    -0.226 OA
BRANCH  17  18
HETATM   18  N   UNL     1      13.056  19.127   3.332  1.00  0.00    -0.304 N 
HETATM   19  H   UNL     1      13.100  18.393   3.988  1.00  0.00     0.184 HD
HETATM   20  H   UNL     1      13.593  19.221   2.483  1.00  0.00     0.184 HD
ENDBRANCH  17  18
ENDBRANCH   8  17
TORSDOF 2
ENDMDL
MODEL 7
REMARK VINA RESULT:    -5.287     25.293     27.321
REMARK INTER + INTRA:          -5.812
REMARK INTER:                  -5.750
REMARK INTRA:                  -0.062
REMARK UNBOUND:                -0.061
REMARK  2 active torsions:
REMARK  status: ('A' for Active; 'I' for Inactive)
REMARK    1  A    between atoms: N_4  and  O_7 
REMARK    2  A    between atoms: O_7  and  C_11 
ROOT
HETATM    1  C   UNL     1       5.740  -3.334  22.161  1.00  0.00     0.056 A 
HETATM    2  C   UNL     1       7.934  -2.727  22.195  1.00  0.00     0.076 A 
HETATM    3  C   UNL     1       8.857  -1.474  22.047  1.00  0.00     0.073 A 
HETATM    4  N   UNL     1       6.654  -0.931  21.766  1.00  0.00    -0.353 N 
HETATM    5  C   UNL     1       8.360   0.870  21.640  1.00  0.00     0.047 C 
HETATM    6  N   UNL     1      10.578   0.167  22.229  1.00  0.00    -0.344 N 
ATOM      7  HN  UNL     1      11.522   0.436  22.504  1.00  0.00     0.167 HD
HETATM    8  C   UNL     1      10.232  -1.093  22.257  1.00  0.00     0.184 C 
HETATM    9  C   UNL     1       6.216  -5.804  22.897  1.00  0.00     0.068 C 
HETATM   10  C   UNL     1       6.549  -4.406  22.504  1.00  0.00     0.008 A 
HETATM   11  N   UNL     1       7.872  -4.038  22.491  1.00  0.00    -0.357 N 
ATOM     12  HN  UNL     1       8.668  -4.650  22.673  1.00  0.00     0.166 HD
HETATM   13  H   UNL     1       5.842  -0.350  21.622  1.00  0.00     0.166 HD
HETATM   14  C   UNL     1       9.707   1.107  21.844  1.00  0.00     0.092 C 
HETATM   15  C   UNL     1       6.634  -2.256  21.990  1.00  0.00     0.062 A 
HETATM   16  C   UNL     1       7.956  -0.460  21.801  1.00  0.00     0.051 A 
ENDROOT
BRANCH   8  17
HETATM   17  O   UNL     1      11.282  -1.912  22.531  1.00  0.00    -0.226 OA
BRANCH  17  18
HETATM   18  N   UNL     1      12.385  -1.482  23.174  1.00  0.00    -0.304 N 
HETATM   19  H   UNL     1      12.295  -1.300  24.138  1.00  0.00     0.184 HD
HETATM   20  H   UNL     1      13.240  -1.534  22.640  1.00  0.00     0.184 HD
ENDBRANCH  17  18
ENDBRANCH   8  17
TORSDOF 2
ENDMDL
MODEL 8
REMARK VINA RESULT:    -5.212     24.504     27.069
REMARK INTER + INTRA:          -5.730
REMARK INTER:                  -5.668
REMARK INTRA:                  -0.063
REMARK UNBOUND:                -0.061
REMARK  2 active torsions:
REMARK  status: ('A' for Active; 'I' for Inactive)
REMARK    1  A    between atoms: N_4  and  O_7 
REMARK    2  A    between atoms: O_7  and  C_11 
ROOT
HETATM    1  C   UNL     1       6.921   0.796  20.858  1.00  0.00     0.056 A 
HETATM    2  C   UNL     1       6.517  -1.430  21.109  1.00  0.00     0.076 A 
HETATM    3  C   UNL     1       6.974  -2.667  21.948  1.00  0.00     0.073 A 
HETATM    4  N   UNL     1       8.153  -0.790  22.508  1.00  0.00    -0.353 N 
HETATM    5  C   UNL     1       8.625  -2.910  23.715  1.00  0.00     0.047 C 
HETATM    6  N   UNL     1       7.111  -4.697  23.191  1.00  0.00    -0.344 N 
ATOM      7  HN  UNL     1       6.731  -5.608  23.449  1.00  0.00     0.167 HD
HETATM    8  C   UNL     1       6.569  -4.026  22.210  1.00  0.00     0.184 C 
HETATM    9  C   UNL     1       4.948   1.157  19.171  1.00  0.00     0.068 C 
HETATM   10  C   UNL     1       5.859   0.389  20.065  1.00  0.00     0.008 A 
HETATM   11  N   UNL     1       5.643  -0.960  20.200  1.00  0.00    -0.357 N 
ATOM     12  HN  UNL     1       4.944  -1.510  19.699  1.00  0.00     0.166 HD
HETATM   13  H   UNL     1       8.810  -0.209  23.007  1.00  0.00     0.166 HD
HETATM   14  C   UNL     1       8.160  -4.204  23.859  1.00  0.00     0.092 C 
HETATM   15  C   UNL     1       7.319  -0.371  21.542  1.00  0.00     0.062 A 
HETATM   16  C   UNL     1       7.957  -2.139  22.757  1.00  0.00     0.051 A 
ENDROOT
BRANCH   8  17
HETATM   17  O   UNL     1       5.614  -4.742  21.558  1.00  0.00    -0.226 OA
BRANCH  17  18
HETATM   18  N   UNL     1       5.674  -6.082  21.436  1.00  0.00    -0.304 N 
HETATM   19  H   UNL     1       5.887  -6.593  22.251  1.00  0.00     0.184 HD
HETATM   20  H   UNL     1       5.343  -6.447  20.555  1.00  0.00     0.184 HD
ENDBRANCH  17  18
ENDBRANCH   8  17
TORSDOF 2
ENDMDL
MODEL 9
REMARK VINA RESULT:    -5.094     25.510     27.962
REMARK INTER + INTRA:          -5.602
REMARK INTER:                  -5.529
REMARK INTRA:                  -0.073
REMARK UNBOUND:                -0.061
REMARK  2 active torsions:
REMARK  status: ('A' for Active; 'I' for Inactive)
REMARK    1  A    between atoms: N_4  and  O_7 
REMARK    2  A    between atoms: O_7  and  C_11 
ROOT
HETATM    1  C   UNL     1       6.881  -4.917  23.821  1.00  0.00     0.056 A 
HETATM    2  C   UNL     1       7.084  -3.025  22.571  1.00  0.00     0.076 A 
HETATM    3  C   UNL     1       8.115  -1.910  22.201  1.00  0.00     0.073 A 
HETATM    4  N   UNL     1       8.995  -3.410  23.686  1.00  0.00    -0.353 N 
HETATM    5  C   UNL     1      10.423  -1.547  22.870  1.00  0.00     0.047 C 
HETATM    6  N   UNL     1       9.429  -0.241  21.119  1.00  0.00    -0.344 N 
ATOM      7  HN  UNL     1       9.563   0.435  20.366  1.00  0.00     0.167 HD
HETATM    8  C   UNL     1       8.270  -0.827  21.262  1.00  0.00     0.184 C 
HETATM    9  C   UNL     1       4.503  -5.505  22.889  1.00  0.00     0.068 C 
HETATM   10  C   UNL     1       5.745  -4.699  23.058  1.00  0.00     0.008 A 
HETATM   11  N   UNL     1       5.863  -3.539  22.332  1.00  0.00    -0.357 N 
ATOM     12  HN  UNL     1       5.152  -3.138  21.720  1.00  0.00     0.166 HD
HETATM   13  H   UNL     1       9.684  -3.852  24.275  1.00  0.00     0.166 HD
HETATM   14  C   UNL     1      10.442  -0.517  21.948  1.00  0.00     0.092 C 
HETATM   15  C   UNL     1       7.743  -3.853  23.483  1.00  0.00     0.062 A 
HETATM   16  C   UNL     1       9.226  -2.268  22.935  1.00  0.00     0.051 A 
ENDROOT
BRANCH   8  17
HETATM   17  O   UNL     1       7.326  -0.318  20.426  1.00  0.00    -0.226 OA
BRANCH  17  18
HETATM   18  N   UNL     1       6.043  -0.152  20.801  1.00  0.00    -0.304 N 
HETATM   19  H   UNL     1       5.411   0.144  20.105  1.00  0.00     0.184 HD
HETATM   20  H   UNL     1       5.818  -0.494  21.724  1.00  0.00     0.184 HD
ENDBRANCH  17  18
ENDBRANCH   8  17
TORSDOF 2
ENDMDL
