REMARK  2 active torsions:
REMARK  status: ('A' for Active; 'I' for Inactive)
REMARK    1  A    between atoms: N_4  and  O_7 
REMARK    2  A    between atoms: O_7  and  C_11 
ROOT
HETATM    1  C   UNL     1       8.760  -0.778  25.113  1.00  0.00     0.056 A 
HETATM    2  C   UNL     1       8.573  -1.381  22.926  1.00  0.00     0.076 A 
HETATM    3  C   UNL     1       8.547  -0.769  21.488  1.00  0.00     0.073 A 
HETATM    4  N   UNL     1       8.738   0.853  23.088  1.00  0.00    -0.353 N 
HETATM    5  C   UNL     1       8.723   1.522  20.695  1.00  0.00     0.047 C 
HETATM    6  N   UNL     1       8.794  -0.321  19.159  1.00  0.00    -0.344 N 
ATOM      7  HN  UNL     1       8.966  -0.642  18.206  1.00  0.00     0.167 HD
HETATM    8  C   UNL     1       8.612  -1.196  20.112  1.00  0.00     0.184 C 
HETATM    9  C   UNL     1       8.878  -3.248  25.981  1.00  0.00     0.068 C 
HETATM   10  C   UNL     1       8.739  -2.157  24.976  1.00  0.00     0.008 A 
HETATM   11  N   UNL     1       8.594  -2.511  23.657  1.00  0.00    -0.357 N 
ATOM     12  HN  UNL     1       8.516  -3.462  23.295  1.00  0.00     0.166 HD
HETATM   13  H   UNL     1       8.849   1.776  23.479  1.00  0.00     0.166 HD
HETATM   14  C   UNL     1       8.757   0.991  19.419  1.00  0.00     0.092 C 
HETATM   15  C   UNL     1       8.679  -0.290  23.792  1.00  0.00     0.062 A 
HETATM   16  C   UNL     1       8.664   0.583  21.731  1.00  0.00     0.051 A 
ENDROOT
BRANCH   8  17
HETATM   17  O   UNL     1       8.539  -2.469  19.639  1.00  0.00    -0.226 OA
BRANCH  17  18
HETATM   18  N   UNL     1       8.622  -3.545  20.445  1.00  0.00    -0.304 N 
HETATM   19  H   UNL     1       8.929  -4.386  20.033  1.00  0.00     0.184 HD
HETATM   20  H   UNL     1       8.509  -3.353  21.429  1.00  0.00     0.184 HD
ENDBRANCH  17  18
ENDBRANCH   8  17
TORSDOF 2
