stable:False satoms:19 tatoms:24 sratio:0.7916666666666666
  -OEChem-07092417353D

 24 23  0     0  0  0  0  0  0999 V2000
    7.0886   -4.2313   26.0204 H   0  0  0  0  0  0  0  0  0  0  0  0
    7.9492   -3.7243   25.6603 C   0  0  0  0  0  0  0  0  0  0  0  0
    8.1980   -4.0646   24.6758 H   0  0  0  0  0  0  0  0  0  0  0  0
    8.7922   -3.9049   26.2858 H   0  0  0  0  0  0  0  0  0  0  0  0
    7.7625   -2.6692   25.6288 H   0  0  0  0  0  0  0  0  0  0  0  0
    9.7861   -2.4449   23.9772 O   0  0  0  0  0  0  0  0  0  0  0  0
    9.1367   -1.3695   22.0564 O   0  0  0  0  0  0  0  0  0  0  0  0
   11.6245   -0.0585   24.0701 H   0  0  0  0  0  0  0  0  0  0  0  0
    9.3912   -0.0962   24.1101 O   0  0  0  0  0  0  0  0  0  0  0  0
   11.7302    0.0461   22.5410 H   0  0  0  0  0  0  0  0  0  0  0  0
   11.7024   -0.8008   23.2324 C   0  0  0  0  0  0  0  0  0  0  0  0
   11.9675   -1.5794   22.4250 H   0  0  0  0  0  0  0  0  0  0  0  0
   12.1994   -1.5813   23.8031 H   0  0  0  0  0  0  0  0  0  0  0  0
    9.8871   -1.1641   23.3914 S   0  0  0  0  0  0  0  0  0  0  0  0
    8.4624   -0.2394   20.0020 C   0  0  0  0  0  0  0  0  0  0  0  0
    8.3136   -0.5226   21.2951 C   0  0  0  0  0  0  0  0  0  0  0  0
    6.9857   -0.4546   22.9051 H   0  0  0  0  0  0  0  0  0  0  0  0
    6.1620    0.4345   19.9029 C   0  0  0  0  0  0  0  0  0  0  0  0
    7.4476    0.4483   18.2386 H   0  0  0  0  0  0  0  0  0  0  0  0
    9.3216   -0.3989   19.3927 H   0  0  0  0  0  0  0  0  0  0  0  0
    5.2751    0.7631   19.3206 H   0  0  0  0  0  0  0  0  0  0  0  0
    7.3162    0.2766   19.2752 C   0  0  0  0  0  0  0  0  0  0  0  0
    6.0317    0.2495   21.2135 N   0  0  0  0  0  0  0  0  0  0  0  0
    7.0524   -0.2038   21.8735 C   0  0  0  0  0  0  0  0  0  0  0  0
 19 22  1  0  0  0  0
 18 22  2  0  0  0  0
 15 22  1  0  0  0  0
 18 21  1  0  0  0  0
 15 20  1  0  0  0  0
 18 23  1  0  0  0  0
 15 16  2  0  0  0  0
 23 24  2  0  0  0  0
 16 24  1  0  0  0  0
  7 16  1  0  0  0  0
 17 24  1  0  0  0  0
  7 14  1  0  0  0  0
 11 12  1  0  0  0  0
 10 11  1  0  0  0  0
 11 14  1  0  0  0  0
 11 13  1  0  0  0  0
  8 11  1  0  0  0  0
  6 14  2  0  0  0  0
  9 14  2  0  0  0  0
  2  3  1  0  0  0  0
  2  5  1  0  0  0  0
  1  2  1  0  0  0  0
  2  4  1  0  0  0  0
M  END
> <Shapegauss>
-130.260635

$$$$
