stable:False satoms:9 tatoms:24 sratio:0.375
  -OEChem-08062415283D

 43 45  0     1  0  0  0  0  0999 V2000
    6.0078   -5.4214   25.9006 C   0  0  0  0  0  0  0  0  0  0  0  0
    7.6298   -4.8795   25.8028 S   0  0  0  0  0  0  0  0  0  0  0  0
    8.4885   -6.0574   25.7031 O   0  0  0  0  0  0  0  0  0  0  0  0
    7.9333   -4.1012   26.9674 O   0  0  0  0  0  0  0  0  0  0  0  0
    7.6889   -4.0354   24.4494 N   0  0  0  0  0  0  0  0  0  0  0  0
    8.6543   -3.3343   24.0998 C   0  0  0  0  0  0  0  0  0  0  0  0
    9.1464   -2.3131   23.5907 C   0  0  0  0  0  0  0  0  0  0  0  0
   10.0618   -1.4697   23.5203 C   0  0  1  0  0  0  0  0  0  0  0  0
   10.6714   -0.4428   24.7681 C   0  0  0  0  0  0  0  0  0  0  0  0
   11.7117   -0.1474   24.8105 C   0  0  0  0  0  0  0  0  0  0  0  0
   12.8437   -0.5624   24.1069 C   0  0  0  0  0  0  0  0  0  0  0  0
   12.5301   -1.6348   23.1127 C   0  0  0  0  0  0  0  0  0  0  0  0
   11.6428   -2.0498   22.8611 C   0  0  0  0  0  0  0  0  0  0  0  0
    9.5884   -0.8559   22.6250 C   0  0  2  0  0  0  0  0  0  0  0  0
    9.0339   -0.1333   21.5933 C   0  0  0  0  0  0  0  0  0  0  0  0
    9.5551    0.8690   21.3104 O   0  0  0  0  0  0  0  0  0  0  0  0
    7.9812   -0.7166   21.1073 N   0  0  0  0  0  0  0  0  0  0  0  0
    7.3513   -0.1610   20.1374 C   0  0  0  0  0  0  0  0  0  0  0  0
    7.5408    0.0393   18.8954 C   0  0  0  0  0  0  0  0  0  0  0  0
    7.1518    0.5206   17.7654 N   0  0  0  0  0  0  0  0  0  0  0  0
    6.0623    1.0234   18.1789 C   0  0  0  0  0  0  0  0  0  0  0  0
    5.4823    1.0640   19.2406 C   0  0  0  0  0  0  0  0  0  0  0  0
    5.9085    0.5048   20.4242 C   0  0  0  0  0  0  0  0  0  0  0  0
    5.2393    0.5035   21.7490 C   0  0  0  0  0  0  0  0  0  0  0  0
    5.8748   -6.0190   26.8145 H   0  0  0  0  0  0  0  0  0  0  0  0
    5.3325   -4.5536   25.9286 H   0  0  0  0  0  0  0  0  0  0  0  0
    5.7742   -6.0396   25.0212 H   0  0  0  0  0  0  0  0  0  0  0  0
    6.9048   -3.4157   24.4842 H   0  0  0  0  0  0  0  0  0  0  0  0
    9.5153   -3.9179   24.3905 H   0  0  0  0  0  0  0  0  0  0  0  0
    9.9939   -0.0846   25.5291 H   0  0  0  0  0  0  0  0  0  0  0  0
   11.9141    0.6208   25.5422 H   0  0  0  0  0  0  0  0  0  0  0  0
   13.8321   -0.1559   24.2626 H   0  0  0  0  0  0  0  0  0  0  0  0
   13.3841   -2.0270   22.5805 H   0  0  0  0  0  0  0  0  0  0  0  0
   11.5659   -1.9611   21.7674 H   0  0  0  0  0  0  0  0  0  0  0  0
   11.7154   -3.1118   23.1387 H   0  0  0  0  0  0  0  0  0  0  0  0
   10.1187   -1.4919   21.9010 H   0  0  0  0  0  0  0  0  0  0  0  0
    7.6653   -1.5876   21.4837 H   0  0  0  0  0  0  0  0  0  0  0  0
    8.4960   -0.4188   18.6852 H   0  0  0  0  0  0  0  0  0  0  0  0
    5.5241    1.5379   17.3966 H   0  0  0  0  0  0  0  0  0  0  0  0
    4.5392    1.5898   19.2614 H   0  0  0  0  0  0  0  0  0  0  0  0
    4.6029   -0.3893   21.8380 H   0  0  0  0  0  0  0  0  0  0  0  0
    5.9997    0.4924   22.5437 H   0  0  0  0  0  0  0  0  0  0  0  0
    4.6193    1.4068   21.8473 H   0  0  0  0  0  0  0  0  0  0  0  0
 20 21  2  0  0  0  0
 19 20  1  0  0  0  0
 21 22  1  0  0  0  0
 18 19  2  0  0  0  0
 22 23  2  0  0  0  0
 18 23  1  0  0  0  0
 17 18  1  0  0  0  0
 23 24  1  0  0  0  0
 15 16  2  0  0  0  0
 15 17  1  0  0  0  0
 14 15  1  0  0  0  0
  8 14  1  0  0  0  0
  7 14  1  0  0  0  0
 12 13  1  0  0  0  0
  8 13  1  0  0  0  0
 11 12  2  0  0  0  0
  7  8  1  0  0  0  0
  8  9  1  0  0  0  0
 10 11  1  0  0  0  0
  6  7  2  3  0  0  0
  5  6  1  0  0  0  0
  9 10  2  0  0  0  0
  2  5  1  0  0  0  0
  2  3  2  0  0  0  0
  1  2  1  0  0  0  0
  2  4  2  0  0  0  0
  1 25  1  0  0  0  0
  1 26  1  0  0  0  0
  1 27  1  0  0  0  0
  5 28  1  0  0  0  0
  6 29  1  0  0  0  0
  9 30  1  0  0  0  0
 10 31  1  0  0  0  0
 11 32  1  0  0  0  0
 12 33  1  0  0  0  0
 13 34  1  0  0  0  0
 13 35  1  0  0  0  0
 14 36  1  0  0  0  0
 17 37  1  0  0  0  0
 19 38  1  0  0  0  0
 21 39  1  0  0  0  0
 22 40  1  0  0  0  0
 24 41  1  0  0  0  0
 24 42  1  0  0  0  0
 24 43  1  0  0  0  0
M  END
> <Chemgauss4>
-12.670324

$$$$
