stable:False satoms:9 tatoms:24 sratio:0.375
  -OEChem-08062415273D

 43 45  0     1  0  0  0  0  0999 V2000
   -6.0006   -5.2593  -25.7176 C   0  0  0  0  0  0  0  0  0  0  0  0
   -7.6225   -4.7174  -25.6198 S   0  0  0  0  0  0  0  0  0  0  0  0
   -8.4813   -5.8953  -25.5201 O   0  0  0  0  0  0  0  0  0  0  0  0
   -7.9260   -3.9391  -26.7844 O   0  0  0  0  0  0  0  0  0  0  0  0
   -7.6816   -3.8733  -24.2664 N   0  0  0  0  0  0  0  0  0  0  0  0
   -8.6471   -3.1722  -23.9167 C   0  0  0  0  0  0  0  0  0  0  0  0
   -9.1392   -2.1510  -23.4077 C   0  0  0  0  0  0  0  0  0  0  0  0
  -10.0546   -1.3076  -23.3373 C   0  0  1  0  0  0  0  0  0  0  0  0
  -10.6642   -0.2807  -24.5851 C   0  0  0  0  0  0  0  0  0  0  0  0
  -11.7044    0.0147  -24.6275 C   0  0  0  0  0  0  0  0  0  0  0  0
  -12.8365   -0.4003  -23.9239 C   0  0  0  0  0  0  0  0  0  0  0  0
  -12.5229   -1.4727  -22.9297 C   0  0  0  0  0  0  0  0  0  0  0  0
  -11.6355   -1.8877  -22.6781 C   0  0  0  0  0  0  0  0  0  0  0  0
   -9.5812   -0.6938  -22.4420 C   0  0  2  0  0  0  0  0  0  0  0  0
   -9.0267    0.0288  -21.4103 C   0  0  0  0  0  0  0  0  0  0  0  0
   -9.5479    1.0311  -21.1274 O   0  0  0  0  0  0  0  0  0  0  0  0
   -7.9740   -0.5545  -20.9243 N   0  0  0  0  0  0  0  0  0  0  0  0
   -7.3441    0.0012  -19.9544 C   0  0  0  0  0  0  0  0  0  0  0  0
   -7.5336    0.2014  -18.7124 C   0  0  0  0  0  0  0  0  0  0  0  0
   -7.1445    0.6828  -17.5824 N   0  0  0  0  0  0  0  0  0  0  0  0
   -6.0551    1.1855  -17.9958 C   0  0  0  0  0  0  0  0  0  0  0  0
   -5.4751    1.2261  -19.0576 C   0  0  0  0  0  0  0  0  0  0  0  0
   -5.9013    0.6669  -20.2412 C   0  0  0  0  0  0  0  0  0  0  0  0
   -5.2321    0.6656  -21.5660 C   0  0  0  0  0  0  0  0  0  0  0  0
   -5.8676   -5.8569  -26.6315 H   0  0  0  0  0  0  0  0  0  0  0  0
   -5.3252   -4.3915  -25.7456 H   0  0  0  0  0  0  0  0  0  0  0  0
   -5.7670   -5.8774  -24.8382 H   0  0  0  0  0  0  0  0  0  0  0  0
   -6.8976   -3.2536  -24.3012 H   0  0  0  0  0  0  0  0  0  0  0  0
   -9.5081   -3.7558  -24.2075 H   0  0  0  0  0  0  0  0  0  0  0  0
   -9.9867    0.0775  -25.3460 H   0  0  0  0  0  0  0  0  0  0  0  0
  -11.9068    0.7829  -25.3592 H   0  0  0  0  0  0  0  0  0  0  0  0
  -13.8249    0.0062  -24.0796 H   0  0  0  0  0  0  0  0  0  0  0  0
  -13.3769   -1.8649  -22.3975 H   0  0  0  0  0  0  0  0  0  0  0  0
  -11.5587   -1.7990  -21.5844 H   0  0  0  0  0  0  0  0  0  0  0  0
  -11.7082   -2.9497  -22.9556 H   0  0  0  0  0  0  0  0  0  0  0  0
  -10.1115   -1.3298  -21.7180 H   0  0  0  0  0  0  0  0  0  0  0  0
   -7.6581   -1.4254  -21.3007 H   0  0  0  0  0  0  0  0  0  0  0  0
   -8.4888   -0.2567  -18.5022 H   0  0  0  0  0  0  0  0  0  0  0  0
   -5.5169    1.7000  -17.2136 H   0  0  0  0  0  0  0  0  0  0  0  0
   -4.5319    1.7519  -19.0784 H   0  0  0  0  0  0  0  0  0  0  0  0
   -4.5957   -0.2272  -21.6550 H   0  0  0  0  0  0  0  0  0  0  0  0
   -5.9925    0.6545  -22.3607 H   0  0  0  0  0  0  0  0  0  0  0  0
   -4.6121    1.5689  -21.6643 H   0  0  0  0  0  0  0  0  0  0  0  0
 20 21  2  0  0  0  0
 19 20  1  0  0  0  0
 21 22  1  0  0  0  0
 18 19  2  0  0  0  0
 22 23  2  0  0  0  0
 18 23  1  0  0  0  0
 17 18  1  0  0  0  0
 23 24  1  0  0  0  0
 15 16  2  0  0  0  0
 15 17  1  0  0  0  0
 14 15  1  0  0  0  0
  8 14  1  0  0  0  0
  7 14  1  0  0  0  0
 12 13  1  0  0  0  0
  8 13  1  0  0  0  0
 11 12  2  0  0  0  0
  7  8  1  0  0  0  0
  8  9  1  0  0  0  0
 10 11  1  0  0  0  0
  6  7  2  3  0  0  0
  5  6  1  0  0  0  0
  9 10  2  0  0  0  0
  2  5  1  0  0  0  0
  2  3  2  0  0  0  0
  1  2  1  0  0  0  0
  2  4  2  0  0  0  0
  1 25  1  0  0  0  0
  1 26  1  0  0  0  0
  1 27  1  0  0  0  0
  5 28  1  0  0  0  0
  6 29  1  0  0  0  0
  9 30  1  0  0  0  0
 10 31  1  0  0  0  0
 11 32  1  0  0  0  0
 12 33  1  0  0  0  0
 13 34  1  0  0  0  0
 13 35  1  0  0  0  0
 14 36  1  0  0  0  0
 17 37  1  0  0  0  0
 19 38  1  0  0  0  0
 21 39  1  0  0  0  0
 22 40  1  0  0  0  0
 24 41  1  0  0  0  0
 24 42  1  0  0  0  0
 24 43  1  0  0  0  0
M  END
> <Chemgauss4>
-12.691833

$$$$
