stable:False satoms:17 tatoms:24 sratio:0.7083333333333334
  -OEChem-07092417343D

 24 24  0     1  0  0  0  0  0999 V2000
    7.4811   -3.5002   25.9542 H   0  0  0  0  0  0  0  0  0  0  0  0
    8.3539   -3.5105   25.2922 C   0  5  3  0  0  0  0  0  0  0  0  0
    9.4483   -5.4656   26.0772 O   0  0  0  0  0  0  0  0  0  0  0  0
    9.0146   -4.6944   25.2255 C   0  0  0  0  0  0  0  0  0  0  0  0
    9.0624   -4.9566   24.1551 H   0  0  0  0  0  0  0  0  0  0  0  0
    8.7993   -2.5091   24.3500 C   0  3  0  0  0  0  0  0  0  0  0  0
    8.3022   -2.5265   23.4012 H   0  0  0  0  0  0  0  0  0  0  0  0
    9.7475   -1.5647   24.3780 N   0  0  0  0  0  0  0  0  0  0  0  0
    8.2527    0.4645   23.6433 S   0  0  0  0  0  0  0  0  0  0  0  0
    9.6243   -0.5080   23.5806 C   0  0  0  0  0  0  0  0  0  0  0  0
   12.3120    0.1169   22.8916 H   0  0  0  0  0  0  0  0  0  0  0  0
   11.6744   -0.4747   22.2280 C   0  0  0  0  0  0  0  0  0  0  0  0
   11.8618   -1.5124   22.4520 H   0  0  0  0  0  0  0  0  0  0  0  0
   10.2310   -0.2110   22.4051 C   0  0  0  0  0  0  0  0  0  0  0  0
   11.8209   -0.1950   21.2012 H   0  0  0  0  0  0  0  0  0  0  0  0
    9.4318    0.2955   21.4366 N   0  0  0  0  0  0  0  0  0  0  0  0
    8.1922    0.3195   21.8210 C   0  0  0  0  0  0  0  0  0  0  0  0
    6.9647    0.3966   21.2021 C   0  0  0  0  0  0  0  0  0  0  0  0
    7.6939    0.3976   19.0173 C   0  0  0  0  0  2  0  0  0  0  0  0
    8.2054    0.3990   18.1971 H   0  0  0  0  0  0  0  0  0  0  0  0
    6.6047    0.5638   19.6839 C   0  0  0  0  0  0  0  0  0  0  0  0
    5.4752    0.8027   19.2995 O   0  0  0  0  0  0  0  0  0  0  0  0
    5.1302    0.1350   21.4502 H   0  0  0  0  0  0  0  0  0  0  0  0
    5.8994    0.4474   21.9539 O   0  0  0  0  0  0  0  0  0  0  0  0
 19 20  1  0  0  0  0
 19 21  1  0  0  0  0
 21 22  2  0  0  0  0
 18 21  1  0  0  0  0
 12 15  1  0  0  0  0
 17 18  2  0  0  0  0
 18 24  1  0  0  0  0
 16 17  1  0  0  0  0
 14 16  1  0  0  0  0
 23 24  1  0  0  0  0
  9 17  1  0  0  0  0
 12 14  1  0  0  0  0
 12 13  1  0  0  0  0
 11 12  1  0  0  0  0
 10 14  2  0  0  0  0
  6  7  1  0  0  0  0
  9 10  1  0  0  0  0
  8 10  1  0  0  0  0
  4  5  1  0  0  0  0
  6  8  1  0  0  0  0
  2  6  1  0  0  0  0
  2  4  1  0  0  0  0
  3  4  2  0  0  0  0
  1  2  1  0  0  0  0
M  CHG  2   2  -1   6   1
M  END
> <Shapegauss>
-171.998642

$$$$
