MODEL 1
REMARK VINA RESULT:    -5.700      0.000      0.000
REMARK INTER + INTRA:          -7.137
REMARK INTER:                  -6.866
REMARK INTRA:                  -0.272
REMARK UNBOUND:                -0.272
REMARK  4 active torsions:
REMARK  status: ('A' for Active; 'I' for Inactive)
REMARK    1  A    between atoms: C_1  and  C_3 
REMARK    2  A    between atoms: C_4  and  N_5 
REMARK    3  A    between atoms: C_14  and  C_16 
REMARK    4  A    between atoms: C_14  and  O_19 
ROOT
HETATM    1  N   UNL     1       6.338  -1.468  21.844  1.00  0.00    -0.359 N 
ATOM      2  HN  UNL     1       5.409  -1.888  21.791  1.00  0.00     0.166 HD
HETATM    3  S   UNL     1       7.886  -0.760  23.843  1.00  0.00    -0.050 SA
HETATM    4  C   UNL     1       7.207  -1.862  22.769  1.00  0.00     0.098 C 
HETATM    5  C   UNL     1       7.457  -4.283  22.431  1.00  0.00     0.071 C 
HETATM    6  C   UNL     1       7.994  -2.965  22.831  1.00  0.00     0.040 C 
HETATM    7  N   UNL     1       9.268  -2.762  23.239  1.00  0.00    -0.349 N 
ATOM      8  HN  UNL     1       9.953  -3.504  23.386  1.00  0.00     0.166 HD
HETATM    9  C   UNL     1       9.505  -1.498  23.419  1.00  0.00     0.114 C 
HETATM   10  C   UNL     1      10.624  -0.701  23.493  1.00  0.00     0.149 C 
ENDROOT
BRANCH   1  11
HETATM   11  C   UNL     1       6.702  -0.509  20.984  1.00  0.00     0.092 C 
HETATM   12  C   UNL     1       6.023   0.189  19.916  1.00  0.00     0.058 C 
BRANCH  12  13
HETATM   13  C   UNL     1       6.093  -0.414  18.701  1.00  0.00     0.260 C 
HETATM   14  O   UNL     1       5.555  -0.195  17.619  1.00  0.00    -0.302 OA
ENDBRANCH  12  13
ENDBRANCH   1  11
BRANCH  10  15
HETATM   15  C   UNL     1      12.145  -1.083  23.447  1.00  0.00     0.198 C 
HETATM   16  C   UNL     1      12.763  -0.270  24.232  1.00  0.00     0.073 C 
HETATM   17  O   UNL     1      12.572  -1.998  22.768  1.00  0.00    -0.286 OA
ENDBRANCH  10  15
BRANCH  10  18
HETATM   18  O   UNL     1      10.458   0.570  23.743  1.00  0.00    -0.355 OA
HETATM   19  H   UNL     1      10.026   0.997  22.985  1.00  0.00     0.218 HD
ENDBRANCH  10  18
TORSDOF 4
ENDMDL
MODEL 2
REMARK VINA RESULT:    -5.366      2.429      5.265
REMARK INTER + INTRA:          -6.736
REMARK INTER:                  -6.063
REMARK INTRA:                  -0.673
REMARK UNBOUND:                -0.272
REMARK  4 active torsions:
REMARK  status: ('A' for Active; 'I' for Inactive)
REMARK    1  A    between atoms: C_1  and  C_3 
REMARK    2  A    between atoms: C_4  and  N_5 
REMARK    3  A    between atoms: C_14  and  C_16 
REMARK    4  A    between atoms: C_14  and  O_19 
ROOT
HETATM    1  N   UNL     1      10.452  -0.599  24.659  1.00  0.00    -0.359 N 
ATOM      2  HN  UNL     1      10.721  -1.016  25.550  1.00  0.00     0.166 HD
HETATM    3  S   UNL     1       9.463  -1.578  22.432  1.00  0.00    -0.050 SA
HETATM    4  C   UNL     1       9.367  -1.017  24.015  1.00  0.00     0.098 C 
HETATM    5  C   UNL     1       7.520  -0.726  25.609  1.00  0.00     0.071 C 
HETATM    6  C   UNL     1       8.054  -0.753  24.231  1.00  0.00     0.040 C 
HETATM    7  N   UNL     1       7.313  -0.493  23.129  1.00  0.00    -0.349 N 
ATOM      8  HN  UNL     1       6.305  -0.334  23.136  1.00  0.00     0.166 HD
HETATM    9  C   UNL     1       8.053  -0.474  22.063  1.00  0.00     0.114 C 
HETATM   10  C   UNL     1       7.942   0.036  20.789  1.00  0.00     0.149 C 
ENDROOT
BRANCH   1  11
HETATM   11  C   UNL     1      11.187   0.380  24.115  1.00  0.00     0.092 C 
HETATM   12  C   UNL     1      10.983   1.797  23.924  1.00  0.00     0.058 C 
BRANCH  12  13
HETATM   13  C   UNL     1      10.351   2.135  22.771  1.00  0.00     0.260 C 
HETATM   14  O   UNL     1      10.581   1.910  21.586  1.00  0.00    -0.302 OA
ENDBRANCH  12  13
ENDBRANCH   1  11
BRANCH  10  15
HETATM   15  C   UNL     1       6.747   0.782  20.097  1.00  0.00     0.198 C 
HETATM   16  C   UNL     1       6.759   0.443  18.855  1.00  0.00     0.073 C 
HETATM   17  O   UNL     1       5.995   1.523  20.704  1.00  0.00    -0.286 OA
ENDBRANCH  10  15
BRANCH  10  18
HETATM   18  O   UNL     1       8.912  -0.196  19.947  1.00  0.00    -0.355 OA
HETATM   19  H   UNL     1       9.766  -0.093  20.397  1.00  0.00     0.218 HD
ENDBRANCH  10  18
TORSDOF 4
ENDMDL
MODEL 3
REMARK VINA RESULT:    -5.286      2.394      5.826
REMARK INTER + INTRA:          -6.640
REMARK INTER:                  -6.346
REMARK INTRA:                  -0.294
REMARK UNBOUND:                -0.272
REMARK  4 active torsions:
REMARK  status: ('A' for Active; 'I' for Inactive)
REMARK    1  A    between atoms: C_1  and  C_3 
REMARK    2  A    between atoms: C_4  and  N_5 
REMARK    3  A    between atoms: C_14  and  C_16 
REMARK    4  A    between atoms: C_14  and  O_19 
ROOT
HETATM    1  N   UNL     1       9.319   0.352  22.697  1.00  0.00    -0.359 N 
ATOM      2  HN  UNL     1       9.419   1.367  22.726  1.00  0.00     0.166 HD
HETATM    3  S   UNL     1       7.599  -1.323  23.760  1.00  0.00    -0.050 SA
HETATM    4  C   UNL     1       8.116  -0.208  22.612  1.00  0.00     0.098 C 
HETATM    5  C   UNL     1       7.104   0.741  20.584  1.00  0.00     0.071 C 
HETATM    6  C   UNL     1       7.285  -0.362  21.551  1.00  0.00     0.040 C 
HETATM    7  N   UNL     1       6.687  -1.571  21.437  1.00  0.00    -0.349 N 
ATOM      8  HN  UNL     1       5.997  -1.808  20.724  1.00  0.00     0.166 HD
HETATM    9  C   UNL     1       7.107  -2.387  22.356  1.00  0.00     0.114 C 
HETATM   10  C   UNL     1       7.124  -3.752  22.534  1.00  0.00     0.149 C 
ENDROOT
BRANCH   1  11
HETATM   11  C   UNL     1      10.397  -0.441  22.744  1.00  0.00     0.092 C 
HETATM   12  C   UNL     1      11.243  -0.919  23.814  1.00  0.00     0.058 C 
BRANCH  12  13
HETATM   13  C   UNL     1      12.283  -0.106  24.129  1.00  0.00     0.260 C 
HETATM   14  O   UNL     1      13.419  -0.314  24.547  1.00  0.00    -0.302 OA
ENDBRANCH  12  13
ENDBRANCH   1  11
BRANCH  10  15
HETATM   15  C   UNL     1       6.531  -4.898  21.642  1.00  0.00     0.198 C 
HETATM   16  C   UNL     1       7.103  -5.993  22.005  1.00  0.00     0.073 C 
HETATM   17  O   UNL     1       5.685  -4.696  20.790  1.00  0.00    -0.286 OA
ENDBRANCH  10  15
BRANCH  10  18
HETATM   18  O   UNL     1       7.607  -4.219  23.654  1.00  0.00    -0.355 OA
HETATM   19  H   UNL     1       6.913  -4.702  24.131  1.00  0.00     0.218 HD
ENDBRANCH  10  18
TORSDOF 4
ENDMDL
MODEL 4
REMARK VINA RESULT:    -5.237      2.738      5.780
REMARK INTER + INTRA:          -6.581
REMARK INTER:                  -6.265
REMARK INTRA:                  -0.315
REMARK UNBOUND:                -0.272
REMARK  4 active torsions:
REMARK  status: ('A' for Active; 'I' for Inactive)
REMARK    1  A    between atoms: C_1  and  C_3 
REMARK    2  A    between atoms: C_4  and  N_5 
REMARK    3  A    between atoms: C_14  and  C_16 
REMARK    4  A    between atoms: C_14  and  O_19 
ROOT
HETATM    1  N   UNL     1       9.349  -2.252  24.558  1.00  0.00    -0.359 N 
ATOM      2  HN  UNL     1      10.065  -2.393  25.271  1.00  0.00     0.166 HD
HETATM    3  S   UNL     1       8.205  -0.117  23.545  1.00  0.00    -0.050 SA
HETATM    4  C   UNL     1       9.442  -1.247  23.693  1.00  0.00     0.098 C 
HETATM    5  C   UNL     1      11.611  -1.551  22.581  1.00  0.00     0.071 C 
HETATM    6  C   UNL     1      10.202  -1.107  22.579  1.00  0.00     0.040 C 
HETATM    7  N   UNL     1       9.579  -0.580  21.499  1.00  0.00    -0.349 N 
ATOM      8  HN  UNL     1      10.039  -0.366  20.614  1.00  0.00     0.166 HD
HETATM    9  C   UNL     1       8.318  -0.382  21.739  1.00  0.00     0.114 C 
HETATM   10  C   UNL     1       7.182  -0.204  20.982  1.00  0.00     0.149 C 
ENDROOT
BRANCH   1  11
HETATM   11  C   UNL     1       8.297  -3.077  24.477  1.00  0.00     0.092 C 
HETATM   12  C   UNL     1       7.462  -3.735  25.456  1.00  0.00     0.058 C 
BRANCH  12  13
HETATM   13  C   UNL     1       7.913  -4.947  25.872  1.00  0.00     0.260 C 
HETATM   14  O   UNL     1       7.429  -5.829  26.576  1.00  0.00    -0.302 OA
ENDBRANCH  12  13
ENDBRANCH   1  11
BRANCH  10  15
HETATM   15  C   UNL     1       7.008  -0.103  19.426  1.00  0.00     0.198 C 
HETATM   16  C   UNL     1       5.786  -0.415  19.161  1.00  0.00     0.073 C 
HETATM   17  O   UNL     1       7.915   0.222  18.682  1.00  0.00    -0.286 OA
ENDBRANCH  10  15
BRANCH  10  18
HETATM   18  O   UNL     1       6.058   0.024  21.604  1.00  0.00    -0.355 OA
HETATM   19  H   UNL     1       6.215   0.047  22.562  1.00  0.00     0.218 HD
ENDBRANCH  10  18
TORSDOF 4
ENDMDL
MODEL 5
REMARK VINA RESULT:    -5.210      3.342      5.129
REMARK INTER + INTRA:          -6.548
REMARK INTER:                  -6.225
REMARK INTRA:                  -0.323
REMARK UNBOUND:                -0.272
REMARK  4 active torsions:
REMARK  status: ('A' for Active; 'I' for Inactive)
REMARK    1  A    between atoms: C_1  and  C_3 
REMARK    2  A    between atoms: C_4  and  N_5 
REMARK    3  A    between atoms: C_14  and  C_16 
REMARK    4  A    between atoms: C_14  and  O_19 
ROOT
HETATM    1  N   UNL     1       7.211  -3.116  24.514  1.00  0.00    -0.359 N 
ATOM      2  HN  UNL     1       6.199  -3.248  24.510  1.00  0.00     0.166 HD
HETATM    3  S   UNL     1       8.913  -2.173  22.751  1.00  0.00    -0.050 SA
HETATM    4  C   UNL     1       7.754  -2.035  23.962  1.00  0.00     0.098 C 
HETATM    5  C   UNL     1       6.707  -0.130  25.107  1.00  0.00     0.071 C 
HETATM    6  C   UNL     1       7.853  -0.763  24.421  1.00  0.00     0.040 C 
HETATM    7  N   UNL     1       9.049  -0.158  24.237  1.00  0.00    -0.349 N 
ATOM      8  HN  UNL     1       9.249   0.813  24.480  1.00  0.00     0.166 HD
HETATM    9  C   UNL     1       9.909  -0.975  23.710  1.00  0.00     0.114 C 
HETATM   10  C   UNL     1      11.281  -1.042  23.611  1.00  0.00     0.149 C 
ENDROOT
BRANCH   1  11
HETATM   11  C   UNL     1       8.015  -4.028  25.073  1.00  0.00     0.092 C 
HETATM   12  C   UNL     1       7.786  -5.275  25.766  1.00  0.00     0.058 C 
BRANCH  12  13
HETATM   13  C   UNL     1       7.596  -5.161  27.106  1.00  0.00     0.260 C 
HETATM   14  O   UNL     1       7.544  -5.976  28.022  1.00  0.00    -0.302 OA
ENDBRANCH  12  13
ENDBRANCH   1  11
BRANCH  10  15
HETATM   15  C   UNL     1      12.381  -0.029  24.085  1.00  0.00     0.198 C 
HETATM   16  C   UNL     1      13.498  -0.668  24.109  1.00  0.00     0.073 C 
HETATM   17  O   UNL     1      12.132   1.132  24.357  1.00  0.00    -0.286 OA
ENDBRANCH  10  15
BRANCH  10  18
HETATM   18  O   UNL     1      11.801  -2.031  22.936  1.00  0.00    -0.355 OA
HETATM   19  H   UNL     1      12.269  -2.628  23.543  1.00  0.00     0.218 HD
ENDBRANCH  10  18
TORSDOF 4
ENDMDL
MODEL 6
REMARK VINA RESULT:    -5.064      2.890      4.149
REMARK INTER + INTRA:          -6.371
REMARK INTER:                  -5.672
REMARK INTRA:                  -0.700
REMARK UNBOUND:                -0.272
REMARK  4 active torsions:
REMARK  status: ('A' for Active; 'I' for Inactive)
REMARK    1  A    between atoms: C_1  and  C_3 
REMARK    2  A    between atoms: C_4  and  N_5 
REMARK    3  A    between atoms: C_14  and  C_16 
REMARK    4  A    between atoms: C_14  and  O_19 
ROOT
HETATM    1  N   UNL     1       9.308  -1.904  23.372  1.00  0.00    -0.359 N 
ATOM      2  HN  UNL     1       9.466  -2.912  23.388  1.00  0.00     0.166 HD
HETATM    3  S   UNL     1       9.644   0.005  25.143  1.00  0.00    -0.050 SA
HETATM    4  C   UNL     1      10.163  -1.075  23.963  1.00  0.00     0.098 C 
HETATM    5  C   UNL     1      12.340  -1.548  22.927  1.00  0.00     0.071 C 
HETATM    6  C   UNL     1      11.377  -0.623  23.561  1.00  0.00     0.040 C 
HETATM    7  N   UNL     1      11.610   0.696  23.750  1.00  0.00    -0.349 N 
ATOM      8  HN  UNL     1      12.496   1.161  23.549  1.00  0.00     0.166 HD
HETATM    9  C   UNL     1      10.558   1.293  24.223  1.00  0.00     0.114 C 
HETATM   10  C   UNL     1      10.103   2.590  24.292  1.00  0.00     0.149 C 
ENDROOT
BRANCH   1  11
HETATM   11  C   UNL     1       8.235  -1.393  22.755  1.00  0.00     0.092 C 
HETATM   12  C   UNL     1       8.007  -0.830  21.444  1.00  0.00     0.058 C 
BRANCH  12  13
HETATM   13  C   UNL     1       8.241   0.504  21.344  1.00  0.00     0.260 C 
HETATM   14  O   UNL     1       9.227   1.165  21.031  1.00  0.00    -0.302 OA
ENDBRANCH  12  13
ENDBRANCH   1  11
BRANCH  10  15
HETATM   15  C   UNL     1      10.788   3.929  23.844  1.00  0.00     0.198 C 
HETATM   16  C   UNL     1       9.912   4.864  23.978  1.00  0.00     0.073 C 
HETATM   17  O   UNL     1      11.941   3.981  23.458  1.00  0.00    -0.286 OA
ENDBRANCH  10  15
BRANCH  10  18
HETATM   18  O   UNL     1       8.975   2.814  24.910  1.00  0.00    -0.355 OA
HETATM   19  H   UNL     1       8.365   2.075  24.752  1.00  0.00     0.218 HD
ENDBRANCH  10  18
TORSDOF 4
ENDMDL
MODEL 7
REMARK VINA RESULT:    -5.058      2.844      3.877
REMARK INTER + INTRA:          -6.365
REMARK INTER:                  -5.694
REMARK INTRA:                  -0.671
REMARK UNBOUND:                -0.272
REMARK  4 active torsions:
REMARK  status: ('A' for Active; 'I' for Inactive)
REMARK    1  A    between atoms: C_1  and  C_3 
REMARK    2  A    between atoms: C_4  and  N_5 
REMARK    3  A    between atoms: C_14  and  C_16 
REMARK    4  A    between atoms: C_14  and  O_19 
ROOT
HETATM    1  N   UNL     1       6.730  -0.253  22.186  1.00  0.00    -0.359 N 
ATOM      2  HN  UNL     1       5.845   0.207  21.972  1.00  0.00     0.166 HD
HETATM    3  S   UNL     1       9.172   0.013  21.258  1.00  0.00    -0.050 SA
HETATM    4  C   UNL     1       7.863   0.443  22.222  1.00  0.00     0.098 C 
HETATM    5  C   UNL     1       7.478   2.218  23.876  1.00  0.00     0.071 C 
HETATM    6  C   UNL     1       8.365   1.266  23.176  1.00  0.00     0.040 C 
HETATM    7  N   UNL     1       9.684   1.126  23.445  1.00  0.00    -0.349 N 
ATOM      8  HN  UNL     1      10.206   1.714  24.095  1.00  0.00     0.166 HD
HETATM    9  C   UNL     1      10.197   0.145  22.767  1.00  0.00     0.114 C 
HETATM   10  C   UNL     1      11.321  -0.644  22.862  1.00  0.00     0.149 C 
ENDROOT
BRANCH   1  11
HETATM   11  C   UNL     1       6.773  -1.568  22.435  1.00  0.00     0.092 C 
HETATM   12  C   UNL     1       6.749  -2.359  23.644  1.00  0.00     0.058 C 
BRANCH  12  13
HETATM   13  C   UNL     1       7.965  -2.588  24.203  1.00  0.00     0.260 C 
HETATM   14  O   UNL     1       9.014  -3.060  23.775  1.00  0.00    -0.302 OA
ENDBRANCH  12  13
ENDBRANCH   1  11
BRANCH  10  15
HETATM   15  C   UNL     1      12.516  -0.586  23.877  1.00  0.00     0.198 C 
HETATM   16  C   UNL     1      13.403  -1.423  23.464  1.00  0.00     0.073 C 
HETATM   17  O   UNL     1      12.519   0.149  24.848  1.00  0.00    -0.286 OA
ENDBRANCH  10  15
BRANCH  10  18
HETATM   18  O   UNL     1      11.530  -1.532  21.928  1.00  0.00    -0.355 OA
HETATM   19  H   UNL     1      10.757  -2.116  21.855  1.00  0.00     0.218 HD
ENDBRANCH  10  18
TORSDOF 4
ENDMDL
MODEL 8
REMARK VINA RESULT:    -5.054      2.888      5.141
REMARK INTER + INTRA:          -6.359
REMARK INTER:                  -5.687
REMARK INTRA:                  -0.672
REMARK UNBOUND:                -0.272
REMARK  4 active torsions:
REMARK  status: ('A' for Active; 'I' for Inactive)
REMARK    1  A    between atoms: C_1  and  C_3 
REMARK    2  A    between atoms: C_4  and  N_5 
REMARK    3  A    between atoms: C_14  and  C_16 
REMARK    4  A    between atoms: C_14  and  O_19 
ROOT
HETATM    1  N   UNL     1      10.503   1.111  22.634  1.00  0.00    -0.359 N 
ATOM      2  HN  UNL     1      11.399   1.567  22.456  1.00  0.00     0.166 HD
HETATM    3  S   UNL     1       8.870  -0.307  21.145  1.00  0.00    -0.050 SA
HETATM    4  C   UNL     1      10.232  -0.079  22.106  1.00  0.00     0.098 C 
HETATM    5  C   UNL     1      12.035  -1.556  22.880  1.00  0.00     0.071 C 
HETATM    6  C   UNL     1      10.635  -1.321  22.471  1.00  0.00     0.040 C 
HETATM    7  N   UNL     1       9.681  -2.280  22.461  1.00  0.00    -0.349 N 
ATOM      8  HN  UNL     1       9.852  -3.267  22.657  1.00  0.00     0.166 HD
HETATM    9  C   UNL     1       8.519  -1.780  22.169  1.00  0.00     0.114 C 
HETATM   10  C   UNL     1       7.207  -2.163  22.331  1.00  0.00     0.149 C 
ENDROOT
BRANCH   1  11
HETATM   11  C   UNL     1       9.580   1.700  23.405  1.00  0.00     0.092 C 
HETATM   12  C   UNL     1       9.247   1.619  24.809  1.00  0.00     0.058 C 
BRANCH  12  13
HETATM   13  C   UNL     1       8.361   0.643  25.132  1.00  0.00     0.260 C 
HETATM   14  O   UNL     1       7.235   0.361  24.732  1.00  0.00    -0.302 OA
ENDBRANCH  12  13
ENDBRANCH   1  11
BRANCH  10  15
HETATM   15  C   UNL     1       6.603  -3.488  22.916  1.00  0.00     0.198 C 
HETATM   16  C   UNL     1       5.328  -3.429  22.748  1.00  0.00     0.073 C 
HETATM   17  O   UNL     1       7.291  -4.360  23.415  1.00  0.00    -0.286 OA
ENDBRANCH  10  15
BRANCH  10  18
HETATM   18  O   UNL     1       6.275  -1.388  21.846  1.00  0.00    -0.355 OA
HETATM   19  H   UNL     1       6.421  -1.258  20.895  1.00  0.00     0.218 HD
ENDBRANCH  10  18
TORSDOF 4
ENDMDL
MODEL 9
REMARK VINA RESULT:    -5.004     24.633     26.327
REMARK INTER + INTRA:          -6.300
REMARK INTER:                  -5.624
REMARK INTRA:                  -0.676
REMARK UNBOUND:                -0.272
REMARK  4 active torsions:
REMARK  status: ('A' for Active; 'I' for Inactive)
REMARK    1  A    between atoms: C_1  and  C_3 
REMARK    2  A    between atoms: C_4  and  N_5 
REMARK    3  A    between atoms: C_14  and  C_16 
REMARK    4  A    between atoms: C_14  and  O_19 
ROOT
HETATM    1  N   UNL     1       9.444  18.100   3.705  1.00  0.00    -0.359 N 
ATOM      2  HN  UNL     1       9.741  19.076   3.657  1.00  0.00     0.166 HD
HETATM    3  S   UNL     1       7.124  16.904   3.410  1.00  0.00    -0.050 SA
HETATM    4  C   UNL     1       8.538  17.627   2.854  1.00  0.00     0.098 C 
HETATM    5  C   UNL     1       9.461  18.061   0.619  1.00  0.00     0.071 C 
HETATM    6  C   UNL     1       8.655  17.251   1.556  1.00  0.00     0.040 C 
HETATM    7  N   UNL     1       8.026  16.103   1.213  1.00  0.00    -0.349 N 
ATOM      8  HN  UNL     1       7.982  15.731   0.264  1.00  0.00     0.166 HD
HETATM    9  C   UNL     1       7.486  15.538   2.250  1.00  0.00     0.114 C 
HETATM   10  C   UNL     1       7.043  14.276   2.570  1.00  0.00     0.149 C 
ENDROOT
BRANCH   1  11
HETATM   11  C   UNL     1       9.958  17.275   4.625  1.00  0.00     0.092 C 
HETATM   12  C   UNL     1      11.107  16.399   4.654  1.00  0.00     0.058 C 
BRANCH  12  13
HETATM   13  C   UNL     1      10.883  15.144   4.188  1.00  0.00     0.260 C 
HETATM   14  O   UNL     1      10.856  14.656   3.061  1.00  0.00    -0.302 OA
ENDBRANCH  12  13
ENDBRANCH   1  11
BRANCH  10  15
HETATM   15  C   UNL     1       6.965  12.976   1.694  1.00  0.00     0.198 C 
HETATM   16  C   UNL     1       6.758  11.991   2.498  1.00  0.00     0.073 C 
HETATM   17  O   UNL     1       7.085  12.992   0.483  1.00  0.00    -0.286 OA
ENDBRANCH  10  15
BRANCH  10  18
HETATM   18  O   UNL     1       6.494  14.096   3.741  1.00  0.00    -0.355 OA
HETATM   19  H   UNL     1       6.185  13.179   3.819  1.00  0.00     0.218 HD
ENDBRANCH  10  18
TORSDOF 4
ENDMDL
