REMARK  4 active torsions:
REMARK  status: ('A' for Active; 'I' for Inactive)
REMARK    1  A    between atoms: C_1  and  C_3 
REMARK    2  A    between atoms: C_4  and  N_5 
REMARK    3  A    between atoms: C_14  and  C_16 
REMARK    4  A    between atoms: C_14  and  O_19 
ROOT
HETATM    1  N   UNL     1       9.748  -1.565  24.378  1.00  0.00    -0.359 N 
ATOM      2  HN  UNL     1      10.552  -1.655  25.000  1.00  0.00     0.166 HD
HETATM    3  S   UNL     1       8.253   0.465  23.643  1.00  0.00    -0.050 SA
HETATM    4  C   UNL     1       9.624  -0.508  23.581  1.00  0.00     0.098 C 
HETATM    5  C   UNL     1      11.674  -0.475  22.228  1.00  0.00     0.071 C 
HETATM    6  C   UNL     1      10.231  -0.211  22.405  1.00  0.00     0.040 C 
HETATM    7  N   UNL     1       9.432   0.295  21.437  1.00  0.00    -0.349 N 
ATOM      8  HN  UNL     1       9.761   0.615  20.526  1.00  0.00     0.166 HD
HETATM    9  C   UNL     1       8.192   0.320  21.821  1.00  0.00     0.114 C 
HETATM   10  C   UNL     1       6.965   0.397  21.202  1.00  0.00     0.149 C 
ENDROOT
BRANCH   1  11
HETATM   11  C   UNL     1       8.799  -2.509  24.350  1.00  0.00     0.092 C 
HETATM   12  C   UNL     1       8.354  -3.510  25.292  1.00  0.00     0.058 C 
BRANCH  12  13
HETATM   13  C   UNL     1       9.015  -4.694  25.226  1.00  0.00     0.260 C 
HETATM   14  O   UNL     1       9.448  -5.466  26.077  1.00  0.00    -0.302 OA
ENDBRANCH  12  13
ENDBRANCH   1  11
BRANCH  10  15
HETATM   15  C   UNL     1       6.605   0.564  19.684  1.00  0.00     0.198 C 
HETATM   16  C   UNL     1       7.694   0.398  19.017  1.00  0.00     0.073 C 
HETATM   17  O   UNL     1       5.475   0.803  19.299  1.00  0.00    -0.286 OA
ENDBRANCH  10  15
BRANCH  10  18
HETATM   18  O   UNL     1       5.899   0.447  21.954  1.00  0.00    -0.355 OA
HETATM   19  H   UNL     1       5.130   0.135  21.450  1.00  0.00     0.218 HD
ENDBRANCH  10  18
TORSDOF 4
