
 OpenBabel07202414153D

 59 63  0  0  1  0  0  0  0  0999 V2000
   11.1048   -4.3818    0.2483 C   0  0  0  0  0  0  0  0  0  0  0  0
   10.5330   -5.7467    1.2268 S   0  0  0  0  0  0  0  0  0  0  0  0
    9.9400   -6.7265    0.3394 O   0  0  0  0  0  0  0  0  0  0  0  0
   11.5908   -6.1162    2.1484 O   0  0  0  0  0  0  0  0  0  0  0  0
    9.2183   -5.0365    2.1912 C   0  0  0  0  0  0  0  0  0  0  0  0
    9.5008   -4.4878    3.4394 C   0  0  0  0  0  0  0  0  0  0  0  0
    8.4692   -3.9256    4.1989 C   0  0  0  0  0  0  0  0  0  0  0  0
    7.1276   -3.9122    3.7423 C   0  0  0  0  0  0  0  0  0  0  0  0
    6.0427   -3.3148    4.4400 C   0  0  0  0  0  0  0  0  0  0  0  0
    6.2196   -2.6986    5.7168 N   0  0  0  0  0  0  0  0  0  0  0  0
    5.6064   -1.4873    6.0398 C   0  0  0  0  0  0  0  0  0  0  0  0
    4.8656   -0.8869    5.2643 O   0  0  0  0  0  0  0  0  0  0  0  0
    5.9990   -0.8984    7.4022 C   0  0  3  0  0  0  0  0  0  0  0  0
    5.3369   -1.6594    8.5527 C   0  0  0  0  0  0  0  0  0  0  0  0
    3.9439   -1.2758    8.7389 N   0  0  0  0  0  0  0  0  0  0  0  0
    2.8772   -2.2793    8.6649 C   0  0  0  0  0  0  0  0  0  0  0  0
    2.9929   -3.4722    9.6153 C   0  0  0  0  0  0  0  0  0  0  0  0
    4.0556   -3.7947   10.1568 O   0  0  0  0  0  0  0  0  0  0  0  0
    1.8263   -4.2121    9.7474 N   0  0  0  0  0  0  0  0  0  0  0  0
    1.7637   -5.3276   10.6432 C   0  0  0  0  0  0  0  0  0  0  0  0
    1.9614   -6.7293   10.1427 C   0  0  0  0  0  0  0  0  0  0  0  0
    0.6135   -6.2929   10.6380 C   0  0  0  0  0  0  0  0  0  0  0  0
    3.6184    0.0628    8.8937 C   0  0  0  0  0  0  0  0  0  0  0  0
    2.5625    0.4510    9.3794 O   0  0  0  0  0  0  0  0  0  0  0  0
    4.5851    1.0353    8.2944 C   0  0  0  0  0  0  0  0  0  0  0  0
    4.2964    2.4056    8.3752 C   0  0  0  0  0  0  0  0  0  0  0  0
    5.0516    3.3271    7.6462 C   0  0  0  0  0  0  0  0  0  0  0  0
    6.0983    2.8804    6.8430 C   0  0  0  0  0  0  0  0  0  0  0  0
    6.9763    4.0036    5.8794 Cl  0  0  0  0  0  0  0  0  0  0  0  0
    6.4255    1.5246    6.7909 C   0  0  0  0  0  0  0  0  0  0  0  0
    5.6750    0.5853    7.5193 C   0  0  0  0  0  0  0  0  0  0  0  0
    4.7832   -3.3484    3.8332 C   0  0  0  0  0  0  0  0  0  0  0  0
    4.5197   -3.9094    2.6314 N   0  0  0  0  0  0  0  0  0  0  0  0
    5.5667   -4.4502    1.9774 C   0  0  0  0  0  0  0  0  0  0  0  0
    6.8723   -4.4845    2.4680 C   0  0  0  0  0  0  0  0  0  0  0  0
    7.9116   -5.0514    1.7043 C   0  0  0  0  0  0  0  0  0  0  0  0
   11.9647   -4.7180   -0.3352 H   0  0  0  0  0  0  0  0  0  0  0  0
   11.4045   -3.5684    0.9119 H   0  0  0  0  0  0  0  0  0  0  0  0
   10.3039   -4.0617   -0.4208 H   0  0  0  0  0  0  0  0  0  0  0  0
   10.5193   -4.4820    3.8265 H   0  0  0  0  0  0  0  0  0  0  0  0
    8.7414   -3.4700    5.1485 H   0  0  0  0  0  0  0  0  0  0  0  0
    7.0223   -2.9881    6.2605 H   0  0  0  0  0  0  0  0  0  0  0  0
    7.0874   -1.0105    7.5079 H   0  0  0  0  0  0  0  0  0  0  0  0
    5.8460   -1.3841    9.4882 H   0  0  0  0  0  0  0  0  0  0  0  0
    5.4369   -2.7410    8.4311 H   0  0  0  0  0  0  0  0  0  0  0  0
    2.8825   -2.6603    7.6417 H   0  0  0  0  0  0  0  0  0  0  0  0
    1.9033   -1.7948    8.8253 H   0  0  0  0  0  0  0  0  0  0  0  0
    0.9578   -3.8325    9.3886 H   0  0  0  0  0  0  0  0  0  0  0  0
    2.1918   -5.1001   11.6192 H   0  0  0  0  0  0  0  0  0  0  0  0
    2.5437   -7.4040   10.7615 H   0  0  0  0  0  0  0  0  0  0  0  0
    2.0804   -6.8963    9.0773 H   0  0  0  0  0  0  0  0  0  0  0  0
    0.2801   -6.6801   11.5942 H   0  0  0  0  0  0  0  0  0  0  0  0
   -0.1763   -6.1865    9.9049 H   0  0  0  0  0  0  0  0  0  0  0  0
    3.4518    2.7552    8.9669 H   0  0  0  0  0  0  0  0  0  0  0  0
    4.7938    4.3827    7.6803 H   0  0  0  0  0  0  0  0  0  0  0  0
    7.2347    1.1955    6.1431 H   0  0  0  0  0  0  0  0  0  0  0  0
    3.9051   -2.9395    4.3272 H   0  0  0  0  0  0  0  0  0  0  0  0
    5.3156   -4.8617    1.0014 H   0  0  0  0  0  0  0  0  0  0  0  0
    7.6985   -5.4946    0.7313 H   0  0  0  0  0  0  0  0  0  0  0  0
  1  2  1  0  0  0  0
  1 37  1  0  0  0  0
  1 38  1  0  0  0  0
  1 39  1  0  0  0  0
  2  3  2  0  0  0  0
  2  4  2  0  0  0  0
  2  5  1  0  0  0  0
  5  6  1  0  0  0  0
  5 36  2  0  0  0  0
  6  7  2  0  0  0  0
  6 40  1  0  0  0  0
  7  8  1  0  0  0  0
  7 41  1  0  0  0  0
  8  9  1  0  0  0  0
  8 35  2  0  0  0  0
  9 10  1  0  0  0  0
  9 32  2  0  0  0  0
 10 11  1  0  0  0  0
 10 42  1  0  0  0  0
 11 12  2  0  0  0  0
 11 13  1  0  0  0  0
 13 14  1  0  0  0  0
 13 31  1  0  0  0  0
 13 43  1  0  0  0  0
 14 15  1  0  0  0  0
 14 44  1  0  0  0  0
 14 45  1  0  0  0  0
 15 16  1  0  0  0  0
 15 23  1  0  0  0  0
 16 17  1  0  0  0  0
 16 46  1  0  0  0  0
 16 47  1  0  0  0  0
 17 18  2  0  0  0  0
 17 19  1  0  0  0  0
 19 20  1  0  0  0  0
 19 48  1  0  0  0  0
 20 21  1  0  0  0  0
 20 22  1  0  0  0  0
 20 49  1  0  0  0  0
 21 22  1  0  0  0  0
 21 50  1  0  0  0  0
 21 51  1  0  0  0  0
 22 52  1  0  0  0  0
 22 53  1  0  0  0  0
 23 24  2  0  0  0  0
 23 25  1  0  0  0  0
 25 26  1  0  0  0  0
 25 31  2  0  0  0  0
 26 27  2  0  0  0  0
 26 54  1  0  0  0  0
 27 28  1  0  0  0  0
 27 55  1  0  0  0  0
 28 29  1  0  0  0  0
 28 30  2  0  0  0  0
 30 31  1  0  0  0  0
 30 56  1  0  0  0  0
 32 33  1  0  0  0  0
 32 57  1  0  0  0  0
 33 34  2  0  0  0  0
 34 35  1  0  0  0  0
 34 58  1  0  0  0  0
 35 36  1  0  0  0  0
 36 59  1  0  0  0  0
M  END
$$$$
