stable:False satoms:19 tatoms:24 sratio:0.7916666666666666
  -OEChem-07092417273D

 24 25  0     1  0  0  0  0  0999 V2000
   10.2929   -0.6221   23.1130 C   0  0  0  0  0  0  0  0  0  0  0  0
    8.2493   -4.3999   21.9915 C   0  0  0  0  0  0  0  0  0  0  0  0
    9.0002   -3.1901   22.3440 C   0  0  0  0  0  0  0  0  0  0  0  0
   11.3609   -1.3708   22.6319 C   0  0  0  0  0  0  0  0  0  0  0  0
    7.3582   -4.1455   21.4421 H   0  0  0  0  0  0  0  0  0  0  0  0
    7.8398    1.1105   24.8318 H   0  0  0  0  0  0  0  0  0  0  0  0
    8.8899   -0.8231   22.9953 C   0  0  0  0  0  0  0  0  0  0  0  0
    6.3342   -0.1369   21.4965 H   0  0  0  0  0  0  0  0  0  0  0  0
    8.8861   -5.0496   21.3986 H   0  0  0  0  0  0  0  0  0  0  0  0
   11.2795   -2.6333   22.0390 C   0  3  0  0  0  0  0  0  0  0  0  0
    7.1707    3.3799   23.6990 H   0  0  0  0  0  0  0  0  0  0  0  0
   12.3348   -0.9336   22.7095 H   0  0  0  0  0  0  0  0  0  0  0  0
    7.6914    1.2609   23.7792 C   0  0  0  0  0  0  0  0  0  0  0  0
    7.9942   -4.9133   22.9192 H   0  0  0  0  0  0  0  0  0  0  0  0
    7.2092    2.4123   23.2532 C   0  0  0  0  0  0  0  0  0  0  0  0
   10.5623    0.2394   23.6819 H   0  0  0  0  0  0  0  0  0  0  0  0
    6.8099   -2.3389   23.7191 Cl  0  0  0  0  0  0  0  0  0  0  0  0
    7.7970    0.3910   20.6552 H   0  0  0  0  0  0  0  0  0  0  0  0
    7.2131    0.5132   21.5576 C   0  0  0  0  0  0  0  0  0  0  0  0
    8.3597   -2.1014   22.9813 C   0  0  0  0  0  0  0  0  0  0  0  0
    6.5939    2.2357   21.6794 S   0  0  0  0  0  0  0  0  0  0  0  0
   12.1572   -3.0747   21.5613 H   0  0  0  0  0  0  0  0  0  0  0  0
   10.2263   -3.3719   21.9974 N   0  0  0  0  0  0  0  0  0  0  0  0
    7.9731    0.2721   22.8198 C   0  0  3  0  0  0  0  0  0  0  0  0
 18 19  1  0  0  0  0
  2  9  1  0  0  0  0
  2  5  1  0  0  0  0
  8 19  1  0  0  0  0
 19 21  1  0  0  0  0
 19 24  1  0  0  0  0
 10 22  1  0  0  0  0
 15 21  1  0  0  0  0
  2  3  1  0  0  0  0
  2 14  1  0  0  0  0
 10 23  1  0  0  0  0
  3 23  2  0  0  0  0
  4 10  1  0  0  0  0
  3 20  1  0  0  0  0
  4 12  1  0  0  0  0
  1  4  2  0  0  0  0
  7 24  1  0  0  0  0
 13 24  1  0  0  0  0
  7 20  2  0  0  0  0
 17 20  1  0  0  0  0
  1  7  1  0  0  0  0
  1 16  1  0  0  0  0
 11 15  1  0  0  0  0
 13 15  2  0  0  0  0
  6 13  1  0  0  0  0
M  CHG  1  10   1
M  END
> <Shapegauss>
-103.735168

$$$$
