stable:False satoms:19 tatoms:24 sratio:0.7916666666666666
  -OEChem-08052416283D

 25 26  0     1  0  0  0  0  0999 V2000
   11.6922   -1.9040   23.0057 C   0  0  0  0  0  0  0  0  0  0  0  0
   11.3341    2.3174   24.3314 C   0  0  0  0  0  0  0  0  0  0  0  0
   11.5376    0.9275   23.9089 C   0  0  0  0  0  0  0  0  0  0  0  0
   12.9835   -1.6552   23.4565 C   0  0  0  0  0  0  0  0  0  0  0  0
   10.4331    2.4073   24.9152 H   0  0  0  0  0  0  0  0  0  0  0  0
    8.7010   -2.4596   21.3571 H   0  0  0  0  0  0  0  0  0  0  0  0
   10.4855   -1.1758   23.1960 C   0  0  0  0  0  0  0  0  0  0  0  0
    7.9161   -0.8746   24.7949 H   0  0  0  0  0  0  0  0  0  0  0  0
   12.1938    2.6388   24.9116 H   0  0  0  0  0  0  0  0  0  0  0  0
   13.4238   -0.4896   24.0886 C   0  3  0  0  0  0  0  0  0  0  0  0
    7.2319   -4.3351   22.4550 H   0  0  0  0  0  0  0  0  0  0  0  0
   13.7044   -2.4345   23.3200 H   0  0  0  0  0  0  0  0  0  0  0  0
    8.5400   -2.5873   22.4108 C   0  0  0  0  0  0  0  0  0  0  0  0
   11.2709    2.9309   23.4320 H   0  0  0  0  0  0  0  0  0  0  0  0
    7.6619   -3.4809   22.9260 C   0  0  0  0  0  0  0  0  0  0  0  0
   11.5829   -2.7756   22.4001 H   0  0  0  0  0  0  0  0  0  0  0  0
    9.1453    1.0638   22.6161 Cl  0  0  0  0  0  0  0  0  0  0  0  0
    9.0808   -1.9699   25.5498 H   0  0  0  0  0  0  0  0  0  0  0  0
    8.4666   -1.8132   24.6732 C   0  0  0  0  0  0  0  0  0  0  0  0
   10.5006    0.2060   23.2719 C   0  0  0  0  0  0  0  0  0  0  0  0
    7.2171   -3.1489   24.5318 S   0  0  0  0  0  0  0  0  0  0  0  0
   14.4195   -0.4487   24.5363 H   0  0  0  0  0  0  0  0  0  0  0  0
   12.7472    0.5994   24.2016 N   0  0  0  0  0  0  0  0  0  0  0  0
    9.2185   -1.8319   23.3836 C   0  0  3  0  0  0  0  0  0  0  0  0
    8.6918   -0.9235   23.0557 H   0  0  0  0  0  0  0  0  0  0  0  0
 18 19  1  0  0  0  0
  2  9  1  0  0  0  0
  2  5  1  0  0  0  0
  8 19  1  0  0  0  0
 19 21  1  0  0  0  0
 19 24  1  0  0  0  0
 10 22  1  0  0  0  0
 15 21  1  0  0  0  0
  2  3  1  0  0  0  0
  2 14  1  0  0  0  0
 10 23  1  0  0  0  0
  3 23  2  0  0  0  0
  4 10  1  0  0  0  0
  3 20  1  0  0  0  0
  4 12  1  0  0  0  0
  1  4  2  0  0  0  0
  7 24  1  0  0  0  0
 13 24  1  0  0  0  0
  7 20  2  0  0  0  0
 17 20  1  0  0  0  0
  1  7  1  0  0  0  0
  1 16  1  0  0  0  0
 11 15  1  0  0  0  0
 13 15  2  0  0  0  0
  6 13  1  0  0  0  0
 24 25  1  0  0  0  0
M  CHG  1  10   1
M  END
> <Chemgauss4>
-7.470078

$$$$
