stable:False satoms:19 tatoms:24 sratio:0.7916666666666666
  -OEChem-08052416283D

 25 26  0     1  0  0  0  0  0999 V2000
  -11.8611   -2.0394  -22.8554 C   0  0  0  0  0  0  0  0  0  0  0  0
  -11.5029    2.1820  -24.1811 C   0  0  0  0  0  0  0  0  0  0  0  0
  -11.7065    0.7921  -23.7586 C   0  0  0  0  0  0  0  0  0  0  0  0
  -13.1524   -1.7906  -23.3062 C   0  0  0  0  0  0  0  0  0  0  0  0
  -10.6020    2.2719  -24.7649 H   0  0  0  0  0  0  0  0  0  0  0  0
   -8.8699   -2.5951  -21.2067 H   0  0  0  0  0  0  0  0  0  0  0  0
  -10.6544   -1.3112  -23.0457 C   0  0  0  0  0  0  0  0  0  0  0  0
   -8.0850   -1.0100  -24.6445 H   0  0  0  0  0  0  0  0  0  0  0  0
  -12.3627    2.5034  -24.7613 H   0  0  0  0  0  0  0  0  0  0  0  0
  -13.5927   -0.6250  -23.9383 C   0  3  0  0  0  0  0  0  0  0  0  0
   -7.4008   -4.4706  -22.3047 H   0  0  0  0  0  0  0  0  0  0  0  0
  -13.8733   -2.5699  -23.1696 H   0  0  0  0  0  0  0  0  0  0  0  0
   -8.7089   -2.7228  -22.2605 C   0  0  0  0  0  0  0  0  0  0  0  0
  -11.4398    2.7955  -23.2817 H   0  0  0  0  0  0  0  0  0  0  0  0
   -7.8308   -3.6163  -22.7757 C   0  0  0  0  0  0  0  0  0  0  0  0
  -11.7518   -2.9111  -22.2498 H   0  0  0  0  0  0  0  0  0  0  0  0
   -9.3142    0.9283  -22.4658 Cl  0  0  0  0  0  0  0  0  0  0  0  0
   -9.2496   -2.1054  -25.3995 H   0  0  0  0  0  0  0  0  0  0  0  0
   -8.6355   -1.9486  -24.5229 C   0  0  0  0  0  0  0  0  0  0  0  0
  -10.6695    0.0706  -23.1216 C   0  0  0  0  0  0  0  0  0  0  0  0
   -7.3860   -3.2843  -24.3815 S   0  0  0  0  0  0  0  0  0  0  0  0
  -14.5884   -0.5841  -24.3859 H   0  0  0  0  0  0  0  0  0  0  0  0
  -12.9161    0.4640  -24.0513 N   0  0  0  0  0  0  0  0  0  0  0  0
   -9.3874   -1.9673  -23.2333 C   0  0  3  0  0  0  0  0  0  0  0  0
   -8.8607   -1.0590  -22.9054 H   0  0  0  0  0  0  0  0  0  0  0  0
 18 19  1  0  0  0  0
  2  9  1  0  0  0  0
  2  5  1  0  0  0  0
  8 19  1  0  0  0  0
 19 21  1  0  0  0  0
 19 24  1  0  0  0  0
 10 22  1  0  0  0  0
 15 21  1  0  0  0  0
  2  3  1  0  0  0  0
  2 14  1  0  0  0  0
 10 23  1  0  0  0  0
  3 23  2  0  0  0  0
  4 10  1  0  0  0  0
  3 20  1  0  0  0  0
  4 12  1  0  0  0  0
  1  4  2  0  0  0  0
  7 24  1  0  0  0  0
 13 24  1  0  0  0  0
  7 20  2  0  0  0  0
 17 20  1  0  0  0  0
  1  7  1  0  0  0  0
  1 16  1  0  0  0  0
 11 15  1  0  0  0  0
 13 15  2  0  0  0  0
  6 13  1  0  0  0  0
 24 25  1  0  0  0  0
M  CHG  1  10   1
M  END
> <Chemgauss4>
-7.495143

$$$$
