stable:False satoms:10 tatoms:24 sratio:0.4166666666666667
  -OEChem-07092417483D

 24 25  0     1  0  0  0  0  0999 V2000
    6.5877   -4.9086   26.4900 C   0  0  0  0  0  0  0  0  0  0  0  0
    8.2169   -4.3233   26.1311 S   0  0  0  0  0  0  0  0  0  0  0  0
    9.0591   -5.4930   26.0325 O   0  0  0  0  0  0  0  0  0  0  0  0
    8.6090   -3.4462   27.1640 O   0  0  0  0  0  0  0  0  0  0  0  0
    8.0748   -3.5483   24.7022 N   0  0  0  0  0  0  0  0  0  0  0  0
    8.9578   -2.9257   24.1736 C   0  0  0  0  0  0  0  0  0  0  0  0
    9.4107   -1.9770   23.5117 C   0  0  0  0  0  0  0  0  0  0  0  0
   10.2974   -1.1544   23.2590 C   0  0  1  0  0  0  0  0  0  0  0  0
   11.0403    0.0106   24.3514 C   0  0  0  0  0  0  0  0  0  0  0  0
   12.0520    0.2870   24.2709 C   0  0  0  0  0  0  0  0  0  0  0  0
   13.1406   -0.1839   23.4199 C   0  0  0  0  0  0  0  0  0  0  0  0
   12.7193   -1.2787   22.6212 C   0  0  0  0  0  0  0  0  0  0  0  0
   11.8049   -1.7286   22.4945 C   0  0  0  0  0  0  0  0  0  0  0  0
    9.7474   -0.5625   22.3426 C   0  0  0  0  0  0  0  0  0  0  0  0
    9.0643    0.0378   21.3810 C   0  0  0  0  0  0  0  0  0  0  0  0
    9.5672    0.9781   20.9390 O   0  0  0  0  0  0  0  0  0  0  0  0
    7.9210   -0.5554   21.0979 N   0  0  0  0  0  0  0  0  0  0  0  0
    7.1741   -0.0807   20.1821 C   0  0  0  0  0  0  0  0  0  0  0  0
    7.2635   -0.0109   18.8511 C   0  0  0  0  0  0  0  0  0  0  0  0
    6.7809    0.3422   17.7987 N   0  0  0  0  0  0  0  0  0  0  0  0
    5.6732    0.9002   18.1814 C   0  0  0  0  0  0  0  0  0  0  0  0
    5.2505    0.9963   19.4298 C   0  0  0  0  0  0  0  0  0  0  0  0
    5.8360    0.5985   20.5049 C   0  0  0  0  0  0  0  0  0  0  0  0
    5.3356    0.7363   21.9662 C   0  0  0  0  0  0  0  0  0  0  0  0
 20 21  2  0  0  0  0
 19 20  1  0  0  0  0
 21 22  1  0  0  0  0
 18 19  2  0  0  0  0
 22 23  2  0  0  0  0
 18 23  1  0  0  0  0
 17 18  1  0  0  0  0
 23 24  1  0  0  0  0
 15 16  2  0  0  0  0
 15 17  1  0  0  0  0
 14 15  1  0  0  0  0
  8 14  1  0  0  0  0
 12 13  1  0  0  0  0
  8 13  1  0  0  0  0
 11 12  2  0  0  0  0
  7  8  1  0  0  0  0
  8  9  1  0  0  0  0
 10 11  1  0  0  0  0
  6  7  2  3  0  0  0
  5  6  1  0  0  0  0
  9 10  2  0  0  0  0
  2  5  1  0  0  0  0
  2  3  2  0  0  0  0
  1  2  1  0  0  0  0
  2  4  2  0  0  0  0
M  END
> <Shapegauss>
-286.185333

$$$$
