stable:False satoms:10 tatoms:24 sratio:0.4166666666666667
  -OEChem-08062416593D

 45 46  0     1  0  0  0  0  0999 V2000
   -5.8586   -5.4463  -25.6769 C   0  0  0  0  0  0  0  0  0  0  0  0
   -7.5215   -4.8578  -25.5580 S   0  0  0  0  0  0  0  0  0  0  0  0
   -8.3628   -6.0278  -25.4548 O   0  0  0  0  0  0  0  0  0  0  0  0
   -7.7973   -4.0786  -26.7010 O   0  0  0  0  0  0  0  0  0  0  0  0
   -7.5487   -3.9613  -24.1949 N   0  0  0  0  0  0  0  0  0  0  0  0
   -8.4900   -3.3095  -23.8264 C   0  0  0  0  0  0  0  0  0  0  0  0
   -9.0212   -2.3148  -23.3052 C   0  0  0  0  0  0  0  0  0  0  0  0
   -9.9357   -1.4874  -23.2275 C   0  0  1  0  0  0  0  0  0  0  0  0
  -10.5549   -0.4319  -24.4944 C   0  0  0  0  0  0  0  0  0  0  0  0
  -11.5706   -0.1654  -24.5539 C   0  0  0  0  0  0  0  0  0  0  0  0
  -12.7471   -0.5786  -23.7948 C   0  0  0  0  0  0  0  0  0  0  0  0
  -12.4141   -1.5943  -22.8613 C   0  0  0  0  0  0  0  0  0  0  0  0
  -11.5177   -2.0174  -22.5927 C   0  0  0  0  0  0  0  0  0  0  0  0
   -9.4979   -0.8108  -22.3093 C   0  0  0  0  0  0  0  0  0  0  0  0
   -8.9331   -0.1198  -21.3320 C   0  0  0  0  0  0  0  0  0  0  0  0
   -9.4887    0.8469  -21.0334 O   0  0  0  0  0  0  0  0  0  0  0  0
   -7.8265   -0.6688  -20.8701 N   0  0  0  0  0  0  0  0  0  0  0  0
   -7.1923   -0.1059  -19.9199 C   0  0  0  0  0  0  0  0  0  0  0  0
   -7.4343    0.0762  -18.6188 C   0  0  0  0  0  0  0  0  0  0  0  0
   -7.0777    0.5256  -17.5530 N   0  0  0  0  0  0  0  0  0  0  0  0
   -5.9366    1.0659  -17.8541 C   0  0  0  0  0  0  0  0  0  0  0  0
   -5.3739    1.0613  -19.0498 C   0  0  0  0  0  0  0  0  0  0  0  0
   -5.8299    0.5639  -20.1460 C   0  0  0  0  0  0  0  0  0  0  0  0
   -5.1658    0.5839  -21.5472 C   0  0  0  0  0  0  0  0  0  0  0  0
   -5.7522   -6.0668  -26.5789 H   0  0  0  0  0  0  0  0  0  0  0  0
   -5.1703   -4.5904  -25.7375 H   0  0  0  0  0  0  0  0  0  0  0  0
   -5.6182   -6.0478  -24.7878 H   0  0  0  0  0  0  0  0  0  0  0  0
   -6.7919   -3.3137  -24.2841 H   0  0  0  0  0  0  0  0  0  0  0  0
   -9.3351   -3.9257  -24.0956 H   0  0  0  0  0  0  0  0  0  0  0  0
   -8.3353   -2.0268  -22.5223 H   0  0  0  0  0  0  0  0  0  0  0  0
   -9.8692   -0.0458  -25.2341 H   0  0  0  0  0  0  0  0  0  0  0  0
  -11.7854    0.5555  -25.3289 H   0  0  0  0  0  0  0  0  0  0  0  0
  -13.7369   -0.1670  -23.9258 H   0  0  0  0  0  0  0  0  0  0  0  0
  -13.2647   -1.9991  -22.3331 H   0  0  0  0  0  0  0  0  0  0  0  0
  -11.4522   -1.9095  -21.5000 H   0  0  0  0  0  0  0  0  0  0  0  0
  -11.6013   -3.0833  -22.8515 H   0  0  0  0  0  0  0  0  0  0  0  0
  -10.2607   -1.2058  -21.6222 H   0  0  0  0  0  0  0  0  0  0  0  0
   -9.8700    0.1116  -22.7792 H   0  0  0  0  0  0  0  0  0  0  0  0
   -7.4870   -1.5229  -21.2641 H   0  0  0  0  0  0  0  0  0  0  0  0
   -8.3880   -0.3947  -18.4316 H   0  0  0  0  0  0  0  0  0  0  0  0
   -5.4005    1.5621  -17.0585 H   0  0  0  0  0  0  0  0  0  0  0  0
   -4.4063    1.5364  -19.1159 H   0  0  0  0  0  0  0  0  0  0  0  0
   -4.5341   -0.3087  -21.6669 H   0  0  0  0  0  0  0  0  0  0  0  0
   -5.9461    0.5874  -22.3226 H   0  0  0  0  0  0  0  0  0  0  0  0
   -4.5463    1.4874  -21.6464 H   0  0  0  0  0  0  0  0  0  0  0  0
 20 21  2  0  0  0  0
 19 20  1  0  0  0  0
 21 22  1  0  0  0  0
 18 19  2  0  0  0  0
 22 23  2  0  0  0  0
 18 23  1  0  0  0  0
 17 18  1  0  0  0  0
 23 24  1  0  0  0  0
 15 16  2  0  0  0  0
 15 17  1  0  0  0  0
 14 15  1  0  0  0  0
  8 14  1  0  0  0  0
 12 13  1  0  0  0  0
  8 13  1  0  0  0  0
 11 12  2  0  0  0  0
  7  8  1  0  0  0  0
  8  9  1  0  0  0  0
 10 11  1  0  0  0  0
  6  7  2  3  0  0  0
  5  6  1  0  0  0  0
  9 10  2  0  0  0  0
  2  5  1  0  0  0  0
  2  3  2  0  0  0  0
  1  2  1  0  0  0  0
  2  4  2  0  0  0  0
  1 25  1  0  0  0  0
  1 26  1  0  0  0  0
  1 27  1  0  0  0  0
  5 28  1  0  0  0  0
  6 29  1  0  0  0  0
  7 30  1  0  0  0  0
  9 31  1  0  0  0  0
 10 32  1  0  0  0  0
 11 33  1  0  0  0  0
 12 34  1  0  0  0  0
 13 35  1  0  0  0  0
 13 36  1  0  0  0  0
 14 37  1  0  0  0  0
 14 38  1  0  0  0  0
 17 39  1  0  0  0  0
 19 40  1  0  0  0  0
 21 41  1  0  0  0  0
 22 42  1  0  0  0  0
 24 43  1  0  0  0  0
 24 44  1  0  0  0  0
 24 45  1  0  0  0  0
M  END
> <Chemgauss4>
-12.603466

$$$$
