stable:False satoms:10 tatoms:24 sratio:0.4166666666666667
  -OEChem-08062416593D

 45 46  0     1  0  0  0  0  0999 V2000
    5.9784   -5.3201   25.9105 C   0  0  0  0  0  0  0  0  0  0  0  0
    7.6413   -4.7316   25.7916 S   0  0  0  0  0  0  0  0  0  0  0  0
    8.4827   -5.9016   25.6884 O   0  0  0  0  0  0  0  0  0  0  0  0
    7.9172   -3.9524   26.9347 O   0  0  0  0  0  0  0  0  0  0  0  0
    7.6686   -3.8351   24.4286 N   0  0  0  0  0  0  0  0  0  0  0  0
    8.6099   -3.1833   24.0600 C   0  0  0  0  0  0  0  0  0  0  0  0
    9.1411   -2.1886   23.5389 C   0  0  0  0  0  0  0  0  0  0  0  0
   10.0556   -1.3612   23.4612 C   0  0  1  0  0  0  0  0  0  0  0  0
   10.6747   -0.3057   24.7280 C   0  0  0  0  0  0  0  0  0  0  0  0
   11.6905   -0.0392   24.7876 C   0  0  0  0  0  0  0  0  0  0  0  0
   12.8670   -0.4524   24.0284 C   0  0  0  0  0  0  0  0  0  0  0  0
   12.5340   -1.4681   23.0949 C   0  0  0  0  0  0  0  0  0  0  0  0
   11.6376   -1.8912   22.8263 C   0  0  0  0  0  0  0  0  0  0  0  0
    9.6178   -0.6846   22.5430 C   0  0  0  0  0  0  0  0  0  0  0  0
    9.0529    0.0064   21.5656 C   0  0  0  0  0  0  0  0  0  0  0  0
    9.6085    0.9731   21.2671 O   0  0  0  0  0  0  0  0  0  0  0  0
    7.9464   -0.5426   21.1037 N   0  0  0  0  0  0  0  0  0  0  0  0
    7.3122    0.0203   20.1535 C   0  0  0  0  0  0  0  0  0  0  0  0
    7.5542    0.2024   18.8525 C   0  0  0  0  0  0  0  0  0  0  0  0
    7.1976    0.6518   17.7866 N   0  0  0  0  0  0  0  0  0  0  0  0
    6.0564    1.1921   18.0877 C   0  0  0  0  0  0  0  0  0  0  0  0
    5.4938    1.1875   19.2835 C   0  0  0  0  0  0  0  0  0  0  0  0
    5.9498    0.6901   20.3796 C   0  0  0  0  0  0  0  0  0  0  0  0
    5.2857    0.7101   21.7808 C   0  0  0  0  0  0  0  0  0  0  0  0
    5.8721   -5.9406   26.8126 H   0  0  0  0  0  0  0  0  0  0  0  0
    5.2902   -4.4642   25.9712 H   0  0  0  0  0  0  0  0  0  0  0  0
    5.7381   -5.9216   25.0215 H   0  0  0  0  0  0  0  0  0  0  0  0
    6.9118   -3.1875   24.5177 H   0  0  0  0  0  0  0  0  0  0  0  0
    9.4550   -3.7995   24.3292 H   0  0  0  0  0  0  0  0  0  0  0  0
    8.4551   -1.9006   22.7560 H   0  0  0  0  0  0  0  0  0  0  0  0
    9.9891    0.0804   25.4678 H   0  0  0  0  0  0  0  0  0  0  0  0
   11.9053    0.6817   25.5625 H   0  0  0  0  0  0  0  0  0  0  0  0
   13.8568   -0.0408   24.1594 H   0  0  0  0  0  0  0  0  0  0  0  0
   13.3846   -1.8729   22.5668 H   0  0  0  0  0  0  0  0  0  0  0  0
   11.5721   -1.7833   21.7336 H   0  0  0  0  0  0  0  0  0  0  0  0
   11.7212   -2.9571   23.0852 H   0  0  0  0  0  0  0  0  0  0  0  0
   10.3805   -1.0796   21.8558 H   0  0  0  0  0  0  0  0  0  0  0  0
    9.9899    0.2377   23.0129 H   0  0  0  0  0  0  0  0  0  0  0  0
    7.6069   -1.3967   21.4977 H   0  0  0  0  0  0  0  0  0  0  0  0
    8.5079   -0.2685   18.6653 H   0  0  0  0  0  0  0  0  0  0  0  0
    5.5204    1.6883   17.2922 H   0  0  0  0  0  0  0  0  0  0  0  0
    4.5262    1.6626   19.3495 H   0  0  0  0  0  0  0  0  0  0  0  0
    4.6540   -0.1825   21.9006 H   0  0  0  0  0  0  0  0  0  0  0  0
    6.0660    0.7136   22.5562 H   0  0  0  0  0  0  0  0  0  0  0  0
    4.6662    1.6136   21.8800 H   0  0  0  0  0  0  0  0  0  0  0  0
 20 21  2  0  0  0  0
 19 20  1  0  0  0  0
 21 22  1  0  0  0  0
 18 19  2  0  0  0  0
 22 23  2  0  0  0  0
 18 23  1  0  0  0  0
 17 18  1  0  0  0  0
 23 24  1  0  0  0  0
 15 16  2  0  0  0  0
 15 17  1  0  0  0  0
 14 15  1  0  0  0  0
  8 14  1  0  0  0  0
 12 13  1  0  0  0  0
  8 13  1  0  0  0  0
 11 12  2  0  0  0  0
  7  8  1  0  0  0  0
  8  9  1  0  0  0  0
 10 11  1  0  0  0  0
  6  7  2  3  0  0  0
  5  6  1  0  0  0  0
  9 10  2  0  0  0  0
  2  5  1  0  0  0  0
  2  3  2  0  0  0  0
  1  2  1  0  0  0  0
  2  4  2  0  0  0  0
  1 25  1  0  0  0  0
  1 26  1  0  0  0  0
  1 27  1  0  0  0  0
  5 28  1  0  0  0  0
  6 29  1  0  0  0  0
  7 30  1  0  0  0  0
  9 31  1  0  0  0  0
 10 32  1  0  0  0  0
 11 33  1  0  0  0  0
 12 34  1  0  0  0  0
 13 35  1  0  0  0  0
 13 36  1  0  0  0  0
 14 37  1  0  0  0  0
 14 38  1  0  0  0  0
 17 39  1  0  0  0  0
 19 40  1  0  0  0  0
 21 41  1  0  0  0  0
 22 42  1  0  0  0  0
 24 43  1  0  0  0  0
 24 44  1  0  0  0  0
 24 45  1  0  0  0  0
M  END
> <Chemgauss4>
-12.882307

$$$$
