stable:False satoms:8 tatoms:24 sratio:0.3333333333333333
  -OEChem-08062412183D

 34 36  0     1  0  0  0  0  0999 V2000
    6.6486   -5.6172   26.1652 O   0  0  0  0  0  0  0  0  0  0  0  0
    8.0343   -5.1061   25.9202 S   0  0  0  0  0  0  0  0  0  0  0  0
    8.9293   -6.2023   25.6475 O   0  0  0  0  0  0  0  0  0  0  0  0
    8.4894   -4.3012   27.0106 O   0  5  0  0  0  0  0  0  0  0  0  0
    7.9474   -4.2197   24.5586 N   0  0  0  0  0  0  0  0  0  0  0  0
    8.7957   -3.4285   24.1623 C   0  0  0  0  0  0  0  0  0  0  0  0
    9.3627   -2.6144   23.7305 C   0  0  0  0  0  0  0  0  0  0  0  0
   10.1324   -1.8130   23.1170 C   0  0  0  0  0  0  0  0  0  0  0  0
   11.6210    0.5499   24.0949 H   0  0  0  0  0  0  0  0  0  0  0  0
   12.1704   -0.3782   24.3114 C   0  0  3  0  0  0  0  0  0  0  0  0
   13.1634   -0.4924   23.9463 C   0  0  0  0  0  0  0  0  0  0  0  0
   12.3492   -1.3719   23.2457 C   0  0  1  0  0  0  0  0  0  0  0  0
   11.4483   -1.9886   22.8858 C   0  0  0  0  0  0  0  0  0  0  0  0
    9.6838   -0.7376   22.5094 C   0  0  0  0  0  0  0  0  0  0  0  0
    8.9361   -0.0720   21.6215 C   0  0  0  0  0  0  0  0  0  0  0  0
    9.3922    0.9267   21.1465 O   0  0  0  0  0  0  0  0  0  0  0  0
    7.7791   -0.6962   21.3941 N   0  0  0  0  0  0  0  0  0  0  0  0
    7.1004   -0.1641   20.4475 C   0  0  0  0  0  0  0  0  0  0  0  0
    7.1226   -0.0023   19.1540 C   0  0  0  0  0  0  0  0  0  0  0  0
    6.7721    0.3574   18.0640 N   0  0  0  0  0  0  0  0  0  0  0  0
    5.6997    0.8002   18.5516 C   0  0  0  0  0  0  0  0  0  0  0  0
    5.2028    0.8431   19.6667 C   0  0  0  0  0  0  0  0  0  0  0  0
    5.7323    0.4080   20.7610 C   0  0  0  0  0  0  0  0  0  0  0  0
    5.3481    0.4000   21.7239 H   0  0  0  0  0  0  0  0  0  0  0  0
    7.1083   -3.6830   24.6473 H   0  0  0  0  0  0  0  0  0  0  0  0
   11.9288   -0.7184   25.3292 H   0  0  0  0  0  0  0  0  0  0  0  0
   13.9144   -0.9198   24.6270 H   0  0  0  0  0  0  0  0  0  0  0  0
   13.6065    0.3485   23.3927 H   0  0  0  0  0  0  0  0  0  0  0  0
   12.1555   -0.6068   22.4795 H   0  0  0  0  0  0  0  0  0  0  0  0
   11.6530   -3.0043   23.2554 H   0  0  0  0  0  0  0  0  0  0  0  0
   11.5330   -1.9734   21.7892 H   0  0  0  0  0  0  0  0  0  0  0  0
   10.2218    0.0560   23.0066 H   0  0  0  0  0  0  0  0  0  0  0  0
    7.4736   -1.4969   21.9095 H   0  0  0  0  0  0  0  0  0  0  0  0
    4.2225    1.2895   19.7450 H   0  0  0  0  0  0  0  0  0  0  0  0
 20 21  2  0  0  0  0
 19 20  1  0  0  0  0
 19 21  1  0  0  0  0
 21 22  1  0  0  0  0
 18 19  2  0  0  0  0
 22 23  2  0  0  0  0
 18 23  1  0  0  0  0
 17 18  1  0  0  0  0
 23 24  1  0  0  0  0
 15 16  2  0  0  0  0
 15 17  1  0  0  0  0
 14 15  1  0  0  0  0
  8 14  2  3  0  0  0
  8 13  1  0  0  0  0
 12 13  1  0  0  0  0
  7  8  1  0  0  0  0
 11 12  1  0  0  0  0
 10 12  1  0  0  0  0
 10 11  1  0  0  0  0
  6  7  3  0  0  0  0
  9 10  1  0  0  0  0
  5  6  1  0  0  0  0
  2  5  1  0  0  0  0
  2  3  2  0  0  0  0
  1  2  2  0  0  0  0
  2  4  1  0  0  0  0
  5 25  1  0  0  0  0
 10 26  1  0  0  0  0
 11 27  1  0  0  0  0
 11 28  1  0  0  0  0
 12 29  1  0  0  0  0
 13 30  1  0  0  0  0
 13 31  1  0  0  0  0
 14 32  1  0  0  0  0
 17 33  1  0  0  0  0
 22 34  1  0  0  0  0
M  CHG  1   4  -1
M  END
> <Chemgauss4>
-9.184663

$$$$
