stable:False satoms:8 tatoms:24 sratio:0.3333333333333333
  -OEChem-08062412183D

 34 36  0     1  0  0  0  0  0999 V2000
   -6.7802   -5.4285  -26.1963 O   0  0  0  0  0  0  0  0  0  0  0  0
   -8.1552   -4.9127  -25.9056 S   0  0  0  0  0  0  0  0  0  0  0  0
   -9.0500   -6.0075  -25.6268 O   0  0  0  0  0  0  0  0  0  0  0  0
   -8.6339   -4.0870  -26.9699 O   0  5  0  0  0  0  0  0  0  0  0  0
   -8.0256   -4.0495  -24.5325 N   0  0  0  0  0  0  0  0  0  0  0  0
   -8.8576   -3.2595  -24.1005 C   0  0  0  0  0  0  0  0  0  0  0  0
   -9.4072   -2.4491  -23.6404 C   0  0  0  0  0  0  0  0  0  0  0  0
  -10.1546   -1.6530  -22.9933 C   0  0  0  0  0  0  0  0  0  0  0  0
  -11.6528    0.7351  -23.8919 H   0  0  0  0  0  0  0  0  0  0  0  0
  -12.2141   -0.1857  -24.1086 C   0  0  3  0  0  0  0  0  0  0  0  0
  -13.1977   -0.2996  -23.7188 C   0  0  0  0  0  0  0  0  0  0  0  0
  -12.3710   -1.1957  -23.0548 C   0  0  1  0  0  0  0  0  0  0  0  0
  -11.4650   -1.8240  -22.7296 C   0  0  0  0  0  0  0  0  0  0  0  0
   -9.6825   -0.5907  -22.3805 C   0  0  0  0  0  0  0  0  0  0  0  0
   -8.9066    0.0553  -21.5024 C   0  0  0  0  0  0  0  0  0  0  0  0
   -9.3430    1.0489  -20.9989 O   0  0  0  0  0  0  0  0  0  0  0  0
   -7.7483   -0.5799  -21.3165 N   0  0  0  0  0  0  0  0  0  0  0  0
   -7.0407   -0.0678  -20.3800 C   0  0  0  0  0  0  0  0  0  0  0  0
   -7.0271    0.0727  -19.0839 C   0  0  0  0  0  0  0  0  0  0  0  0
   -6.6449    0.4120  -17.9980 N   0  0  0  0  0  0  0  0  0  0  0  0
   -5.5830    0.8560  -18.5071 C   0  0  0  0  0  0  0  0  0  0  0  0
   -5.1159    0.9141  -19.6343 C   0  0  0  0  0  0  0  0  0  0  0  0
   -5.6776    0.5006  -20.7209 C   0  0  0  0  0  0  0  0  0  0  0  0
   -5.3196    0.5060  -21.6939 H   0  0  0  0  0  0  0  0  0  0  0  0
   -7.1856   -3.5168  -24.6351 H   0  0  0  0  0  0  0  0  0  0  0  0
  -12.0024   -0.5106  -25.1380 H   0  0  0  0  0  0  0  0  0  0  0  0
  -13.9697   -0.7108  -24.3858 H   0  0  0  0  0  0  0  0  0  0  0  0
  -13.6201    0.5349  -23.1397 H   0  0  0  0  0  0  0  0  0  0  0  0
  -12.1515   -0.4446  -22.2817 H   0  0  0  0  0  0  0  0  0  0  0  0
  -11.6864   -2.8321  -23.1100 H   0  0  0  0  0  0  0  0  0  0  0  0
  -11.5200   -1.8264  -21.6309 H   0  0  0  0  0  0  0  0  0  0  0  0
  -10.2282    0.2144  -22.8500 H   0  0  0  0  0  0  0  0  0  0  0  0
   -7.4622   -1.3739  -21.8529 H   0  0  0  0  0  0  0  0  0  0  0  0
   -4.1351    1.3555  -19.7318 H   0  0  0  0  0  0  0  0  0  0  0  0
 20 21  2  0  0  0  0
 19 20  1  0  0  0  0
 19 21  1  0  0  0  0
 21 22  1  0  0  0  0
 18 19  2  0  0  0  0
 22 23  2  0  0  0  0
 18 23  1  0  0  0  0
 17 18  1  0  0  0  0
 23 24  1  0  0  0  0
 15 16  2  0  0  0  0
 15 17  1  0  0  0  0
 14 15  1  0  0  0  0
  8 14  2  3  0  0  0
  8 13  1  0  0  0  0
 12 13  1  0  0  0  0
  7  8  1  0  0  0  0
 11 12  1  0  0  0  0
 10 12  1  0  0  0  0
 10 11  1  0  0  0  0
  6  7  3  0  0  0  0
  9 10  1  0  0  0  0
  5  6  1  0  0  0  0
  2  5  1  0  0  0  0
  2  3  2  0  0  0  0
  1  2  2  0  0  0  0
  2  4  1  0  0  0  0
  5 25  1  0  0  0  0
 10 26  1  0  0  0  0
 11 27  1  0  0  0  0
 11 28  1  0  0  0  0
 12 29  1  0  0  0  0
 13 30  1  0  0  0  0
 13 31  1  0  0  0  0
 14 32  1  0  0  0  0
 17 33  1  0  0  0  0
 22 34  1  0  0  0  0
M  CHG  1   4  -1
M  END
> <Chemgauss4>
-9.149569

$$$$
