stable:False satoms:19 tatoms:24 sratio:0.7916666666666666
  -OEChem-08052421523D

 27 26  0     1  0  0  0  0  0999 V2000
  -13.0416    0.5063  -24.4482 N   0  3  0  0  0  0  0  0  0  0  0  0
  -10.7914   -3.2827  -23.1722 H   0  0  0  0  0  0  0  0  0  0  0  0
  -13.5727   -0.3764  -23.8461 O   0  0  0  0  0  0  0  0  0  0  0  0
  -11.8494    0.7614  -24.2420 C   0  0  0  0  0  0  0  0  0  0  0  0
   -9.3677    1.0839  -24.3591 C   0  0  0  0  0  0  0  0  0  0  0  0
  -10.6164    0.4249  -24.4304 C   0  0  3  0  0  0  0  0  0  0  0  0
  -10.9101   -1.1316  -22.4104 H   0  0  0  0  0  0  0  0  0  0  0  0
   -8.9920   -3.0164  -24.2202 C   0  0  0  0  0  0  0  0  0  0  0  0
   -9.0746   -0.4574  -22.1201 C   0  0  3  0  0  0  0  0  0  0  0  0
   -9.3265    0.5742  -21.5119 N   0  0  0  0  0  0  0  0  0  0  0  0
   -9.8301    1.7996  -21.4012 O   0  5  0  0  0  0  0  0  0  0  0  0
   -8.8249    1.3694  -23.4399 H   0  0  0  0  0  0  0  0  0  0  0  0
   -8.6924    1.3427  -25.4260 N   0  3  0  0  0  0  0  0  0  0  0  0
   -9.8945   -2.6145  -23.2338 C   0  0  0  0  0  0  0  0  0  0  0  0
   -9.9091   -1.5725  -22.2935 C   0  0  3  0  0  0  0  0  0  0  0  0
   -8.4886   -1.1267  -26.2328 S   0  0  0  0  0  0  0  0  0  0  0  0
   -7.2879   -0.7608  -22.6287 Br  0  0  0  0  0  0  0  0  0  0  0  0
   -8.6828   -4.0821  -24.1167 H   0  0  0  0  0  0  0  0  0  0  0  0
   -8.3808   -2.5639  -25.3785 C   0  0  0  0  0  2  0  0  0  0  0  0
   -7.9849    0.4476  -26.0759 C   0  0  0  0  0  2  0  0  0  0  0  0
  -10.5614   -0.5758  -24.8820 H   0  0  0  0  0  0  0  0  0  0  0  0
  -11.8306    1.6587  -23.6412 H   0  0  0  0  0  0  0  0  0  0  0  0
   -9.3322   -0.0305  -23.1006 H   0  0  0  0  0  0  0  0  0  0  0  0
   -9.8216    0.1592  -20.7486 H   0  0  0  0  0  0  0  0  0  0  0  0
   -8.0501    2.0661  -25.1729 H   0  0  0  0  0  0  0  0  0  0  0  0
   -9.8489   -2.0943  -21.3270 H   0  0  0  0  0  0  0  0  0  0  0  0
   -9.3530    1.6996  -26.0865 H   0  0  0  0  0  0  0  0  0  0  0  0
  8 18  1  0  0  0  0
  9 17  1  0  0  0  0
  8 19  1  0  0  0  0
  8 14  2  3  0  0  0
 16 19  1  0  0  0  0
  2 14  1  0  0  0  0
 14 15  1  0  0  0  0
  9 15  1  0  0  0  0
  7 15  1  0  0  0  0
  9 10  1  0  0  0  0
 16 20  1  0  0  0  0
 10 11  1  0  0  0  0
 13 20  1  0  0  0  0
  5 12  1  0  0  0  0
  6 21  1  0  0  0  0
  5 13  1  0  0  0  0
  5  6  2  0  0  0  0
  4  6  1  0  0  0  0
  1  4  2  0  0  0  0
  1  3  2  0  0  0  0
  4 22  1  0  0  0  0
  9 23  1  0  0  0  0
 10 24  1  0  0  0  0
 13 25  1  0  0  0  0
 15 26  1  0  0  0  0
 13 27  1  0  0  0  0
M  CHG  3   1   1  11  -1  13   1
M  END
> <Chemgauss4>
-7.054229

$$$$
