stable:False satoms:19 tatoms:24 sratio:0.7916666666666666
  -OEChem-08052421523D

 27 26  0     1  0  0  0  0  0999 V2000
   13.1020    0.3196   24.6450 N   0  3  0  0  0  0  0  0  0  0  0  0
   10.8517   -3.4693   23.3690 H   0  0  0  0  0  0  0  0  0  0  0  0
   13.6330   -0.5631   24.0429 O   0  0  0  0  0  0  0  0  0  0  0  0
   11.9097    0.5748   24.4388 C   0  0  0  0  0  0  0  0  0  0  0  0
    9.4280    0.8973   24.5559 C   0  0  0  0  0  0  0  0  0  0  0  0
   10.6767    0.2382   24.6272 C   0  0  3  0  0  0  0  0  0  0  0  0
   10.9704   -1.3183   22.6072 H   0  0  0  0  0  0  0  0  0  0  0  0
    9.0523   -3.2031   24.4170 C   0  0  0  0  0  0  0  0  0  0  0  0
    9.1349   -0.6440   22.3169 C   0  0  3  0  0  0  0  0  0  0  0  0
    9.3868    0.3876   21.7087 N   0  0  0  0  0  0  0  0  0  0  0  0
    9.8904    1.6130   21.5980 O   0  5  0  0  0  0  0  0  0  0  0  0
    8.8852    1.1828   23.6367 H   0  0  0  0  0  0  0  0  0  0  0  0
    8.7527    1.1561   25.6228 N   0  3  0  0  0  0  0  0  0  0  0  0
    9.9548   -2.8011   23.4306 C   0  0  0  0  0  0  0  0  0  0  0  0
    9.9694   -1.7591   22.4903 C   0  0  3  0  0  0  0  0  0  0  0  0
    8.5489   -1.3133   26.4296 S   0  0  0  0  0  0  0  0  0  0  0  0
    7.3482   -0.9475   22.8255 Br  0  0  0  0  0  0  0  0  0  0  0  0
    8.7431   -4.2688   24.3135 H   0  0  0  0  0  0  0  0  0  0  0  0
    8.4411   -2.7505   25.5754 C   0  0  0  0  0  2  0  0  0  0  0  0
    8.0452    0.2610   26.2727 C   0  0  0  0  0  2  0  0  0  0  0  0
   10.6217   -0.7625   25.0788 H   0  0  0  0  0  0  0  0  0  0  0  0
   11.8909    1.4720   23.8380 H   0  0  0  0  0  0  0  0  0  0  0  0
    9.3925   -0.2172   23.2974 H   0  0  0  0  0  0  0  0  0  0  0  0
    9.8819   -0.0274   20.9454 H   0  0  0  0  0  0  0  0  0  0  0  0
    8.1104    1.8795   25.3697 H   0  0  0  0  0  0  0  0  0  0  0  0
    9.9092   -2.2810   21.5239 H   0  0  0  0  0  0  0  0  0  0  0  0
    9.4133    1.5130   26.2833 H   0  0  0  0  0  0  0  0  0  0  0  0
  8 18  1  0  0  0  0
  9 17  1  0  0  0  0
  8 19  1  0  0  0  0
  8 14  2  3  0  0  0
 16 19  1  0  0  0  0
  2 14  1  0  0  0  0
 14 15  1  0  0  0  0
  9 15  1  0  0  0  0
  7 15  1  0  0  0  0
  9 10  1  0  0  0  0
 16 20  1  0  0  0  0
 10 11  1  0  0  0  0
 13 20  1  0  0  0  0
  5 12  1  0  0  0  0
  6 21  1  0  0  0  0
  5 13  1  0  0  0  0
  5  6  2  0  0  0  0
  4  6  1  0  0  0  0
  1  4  2  0  0  0  0
  1  3  2  0  0  0  0
  4 22  1  0  0  0  0
  9 23  1  0  0  0  0
 10 24  1  0  0  0  0
 13 25  1  0  0  0  0
 15 26  1  0  0  0  0
 13 27  1  0  0  0  0
M  CHG  3   1   1  11  -1  13   1
M  END
> <Chemgauss4>
-7.092811

$$$$
