stable:False satoms:7 tatoms:24 sratio:0.2916666666666667
  -OEChem-08062414313D

 38 41  0     1  0  0  0  0  0999 V2000
   -6.5988   -5.4201  -25.8596 C   0  0  0  0  0  0  0  0  0  0  0  0
   -8.1094   -4.8881  -25.7634 S   0  0  0  0  0  0  0  0  0  0  0  0
   -8.9712   -6.0540  -25.7458 O   0  0  0  0  0  0  0  0  0  0  0  0
   -8.3961   -4.0301  -26.8841 O   0  0  0  0  0  0  0  0  0  0  0  0
   -8.2131   -4.0682  -24.3448 N   0  0  0  0  0  0  0  0  0  0  0  0
   -9.0414   -3.3188  -23.9925 C   0  0  0  0  0  0  0  0  0  0  0  0
   -9.5866   -2.3498  -23.4868 C   0  0  0  0  0  0  0  0  0  0  0  0
  -10.5839   -1.4994  -23.3754 C   0  0  1  0  0  0  0  0  0  0  0  0
  -11.1364   -0.4788  -24.5909 C   0  0  0  0  0  0  0  0  0  0  0  0
  -12.1242   -0.1831  -24.7198 C   0  0  0  0  0  0  0  0  0  0  0  0
  -13.3539   -0.5764  -23.9475 C   0  0  0  0  0  0  0  0  0  0  0  0
  -13.0127   -1.5101  -23.1480 C   0  0  0  0  0  0  0  0  0  0  0  0
  -12.0450   -2.0316  -22.8413 C   0  0  0  0  0  0  0  0  0  0  0  0
   -9.9813   -0.9188  -22.5300 C   0  0  3  0  0  0  0  0  0  0  0  0
   -9.4063   -0.1720  -21.5087 C   0  0  0  0  0  0  0  0  0  0  0  0
   -9.9047    0.8456  -21.2113 O   0  0  0  0  0  0  0  0  0  0  0  0
   -8.3367   -0.7720  -21.0901 N   0  0  0  0  0  0  0  0  0  0  0  0
   -7.6686   -0.2211  -20.1447 C   0  0  0  0  0  0  0  0  0  0  0  0
   -7.8413    0.0114  -18.9134 C   0  0  0  0  0  0  0  0  0  0  0  0
   -7.5796    0.4047  -17.6980 N   0  0  0  0  0  0  0  0  0  0  0  0
   -6.4299    0.8882  -18.2046 C   0  0  0  0  0  0  0  0  0  0  0  0
   -5.8630    0.9116  -19.2368 C   0  0  0  0  0  0  0  0  0  0  0  0
   -6.2663    0.4050  -20.4053 C   0  0  0  0  0  0  0  0  0  0  0  0
   -5.6711    0.4164  -21.8417 Cl  0  0  0  0  0  0  0  0  0  0  0  0
   -6.4662   -5.9817  -26.7961 H   0  0  0  0  0  0  0  0  0  0  0  0
   -5.9073   -4.5647  -25.8441 H   0  0  0  0  0  0  0  0  0  0  0  0
   -6.3869   -6.0784  -25.0043 H   0  0  0  0  0  0  0  0  0  0  0  0
   -7.3635   -3.5430  -24.2966 H   0  0  0  0  0  0  0  0  0  0  0  0
   -9.9132   -3.8318  -24.3710 H   0  0  0  0  0  0  0  0  0  0  0  0
  -10.4080   -0.1008  -25.2930 H   0  0  0  0  0  0  0  0  0  0  0  0
  -12.2935    0.5109  -25.5298 H   0  0  0  0  0  0  0  0  0  0  0  0
  -14.3402   -0.1486  -24.0505 H   0  0  0  0  0  0  0  0  0  0  0  0
  -13.8653   -1.9140  -22.6223 H   0  0  0  0  0  0  0  0  0  0  0  0
  -12.0068   -1.9966  -21.7426 H   0  0  0  0  0  0  0  0  0  0  0  0
  -12.1359   -3.0767  -23.1720 H   0  0  0  0  0  0  0  0  0  0  0  0
   -9.5134   -0.2710  -23.2859 H   0  0  0  0  0  0  0  0  0  0  0  0
   -8.0413   -1.6386  -21.4923 H   0  0  0  0  0  0  0  0  0  0  0  0
   -4.9006    1.4018  -19.2388 H   0  0  0  0  0  0  0  0  0  0  0  0
 20 21  2  0  0  0  0
 19 20  1  0  0  0  0
 19 21  1  0  0  0  0
 21 22  1  0  0  0  0
 18 19  2  0  0  0  0
 22 23  2  0  0  0  0
 18 23  1  0  0  0  0
 17 18  1  0  0  0  0
 23 24  1  0  0  0  0
 15 16  2  0  0  0  0
 15 17  1  0  0  0  0
 14 15  1  0  0  0  0
  8 14  1  0  0  0  0
  7 14  1  0  0  0  0
 12 13  1  0  0  0  0
  8 13  1  0  0  0  0
 11 12  2  0  0  0  0
  7  8  1  0  0  0  0
  8  9  1  0  0  0  0
 10 11  1  0  0  0  0
  6  7  2  0  0  0  0
  5  6  1  0  0  0  0
  9 10  2  0  0  0  0
  2  5  1  0  0  0  0
  2  3  2  0  0  0  0
  1  2  1  0  0  0  0
  2  4  2  0  0  0  0
  1 25  1  0  0  0  0
  1 26  1  0  0  0  0
  1 27  1  0  0  0  0
  5 28  1  0  0  0  0
  6 29  1  0  0  0  0
  9 30  1  0  0  0  0
 10 31  1  0  0  0  0
 11 32  1  0  0  0  0
 12 33  1  0  0  0  0
 13 34  1  0  0  0  0
 13 35  1  0  0  0  0
 14 36  1  0  0  0  0
 17 37  1  0  0  0  0
 22 38  1  0  0  0  0
M  END
> <Chemgauss4>
-9.046236

$$$$
