stable:False satoms:7 tatoms:24 sratio:0.2916666666666667
  -OEChem-08062414313D

 38 41  0     1  0  0  0  0  0999 V2000
    6.1627   -5.3352   25.7763 C   0  0  0  0  0  0  0  0  0  0  0  0
    7.6732   -4.8033   25.6801 S   0  0  0  0  0  0  0  0  0  0  0  0
    8.5350   -5.9691   25.6624 O   0  0  0  0  0  0  0  0  0  0  0  0
    7.9600   -3.9453   26.8007 O   0  0  0  0  0  0  0  0  0  0  0  0
    7.7770   -3.9833   24.2615 N   0  0  0  0  0  0  0  0  0  0  0  0
    8.6052   -3.2340   23.9092 C   0  0  0  0  0  0  0  0  0  0  0  0
    9.1504   -2.2649   23.4035 C   0  0  0  0  0  0  0  0  0  0  0  0
   10.1478   -1.4145   23.2920 C   0  0  1  0  0  0  0  0  0  0  0  0
   10.7003   -0.3939   24.5076 C   0  0  0  0  0  0  0  0  0  0  0  0
   11.6880   -0.0982   24.6364 C   0  0  0  0  0  0  0  0  0  0  0  0
   12.9178   -0.4915   23.8641 C   0  0  0  0  0  0  0  0  0  0  0  0
   12.5766   -1.4252   23.0647 C   0  0  0  0  0  0  0  0  0  0  0  0
   11.6089   -1.9467   22.7580 C   0  0  0  0  0  0  0  0  0  0  0  0
    9.5452   -0.8340   22.4466 C   0  0  3  0  0  0  0  0  0  0  0  0
    8.9701   -0.0871   21.4254 C   0  0  0  0  0  0  0  0  0  0  0  0
    9.4686    0.9305   21.1279 O   0  0  0  0  0  0  0  0  0  0  0  0
    7.9005   -0.6871   21.0067 N   0  0  0  0  0  0  0  0  0  0  0  0
    7.2324   -0.1362   20.0613 C   0  0  0  0  0  0  0  0  0  0  0  0
    7.4052    0.0962   18.8301 C   0  0  0  0  0  0  0  0  0  0  0  0
    7.1434    0.4895   17.6146 N   0  0  0  0  0  0  0  0  0  0  0  0
    5.9937    0.9730   18.1213 C   0  0  0  0  0  0  0  0  0  0  0  0
    5.4268    0.9964   19.1534 C   0  0  0  0  0  0  0  0  0  0  0  0
    5.8302    0.4899   20.3220 C   0  0  0  0  0  0  0  0  0  0  0  0
    5.2349    0.5012   21.7583 Cl  0  0  0  0  0  0  0  0  0  0  0  0
    6.0301   -5.8968   26.7128 H   0  0  0  0  0  0  0  0  0  0  0  0
    5.4712   -4.4798   25.7608 H   0  0  0  0  0  0  0  0  0  0  0  0
    5.9507   -5.9936   24.9209 H   0  0  0  0  0  0  0  0  0  0  0  0
    6.9274   -3.4581   24.2133 H   0  0  0  0  0  0  0  0  0  0  0  0
    9.4771   -3.7469   24.2877 H   0  0  0  0  0  0  0  0  0  0  0  0
    9.9718   -0.0159   25.2096 H   0  0  0  0  0  0  0  0  0  0  0  0
   11.8573    0.5958   25.4465 H   0  0  0  0  0  0  0  0  0  0  0  0
   13.9041   -0.0637   23.9671 H   0  0  0  0  0  0  0  0  0  0  0  0
   13.4291   -1.8292   22.5390 H   0  0  0  0  0  0  0  0  0  0  0  0
   11.5707   -1.9117   21.6592 H   0  0  0  0  0  0  0  0  0  0  0  0
   11.6997   -2.9919   23.0887 H   0  0  0  0  0  0  0  0  0  0  0  0
    9.0773   -0.1861   23.2025 H   0  0  0  0  0  0  0  0  0  0  0  0
    7.6052   -1.5537   21.4090 H   0  0  0  0  0  0  0  0  0  0  0  0
    4.4645    1.4867   19.1554 H   0  0  0  0  0  0  0  0  0  0  0  0
 20 21  2  0  0  0  0
 19 20  1  0  0  0  0
 19 21  1  0  0  0  0
 21 22  1  0  0  0  0
 18 19  2  0  0  0  0
 22 23  2  0  0  0  0
 18 23  1  0  0  0  0
 17 18  1  0  0  0  0
 23 24  1  0  0  0  0
 15 16  2  0  0  0  0
 15 17  1  0  0  0  0
 14 15  1  0  0  0  0
  8 14  1  0  0  0  0
  7 14  1  0  0  0  0
 12 13  1  0  0  0  0
  8 13  1  0  0  0  0
 11 12  2  0  0  0  0
  7  8  1  0  0  0  0
  8  9  1  0  0  0  0
 10 11  1  0  0  0  0
  6  7  2  0  0  0  0
  5  6  1  0  0  0  0
  9 10  2  0  0  0  0
  2  5  1  0  0  0  0
  2  3  2  0  0  0  0
  1  2  1  0  0  0  0
  2  4  2  0  0  0  0
  1 25  1  0  0  0  0
  1 26  1  0  0  0  0
  1 27  1  0  0  0  0
  5 28  1  0  0  0  0
  6 29  1  0  0  0  0
  9 30  1  0  0  0  0
 10 31  1  0  0  0  0
 11 32  1  0  0  0  0
 12 33  1  0  0  0  0
 13 34  1  0  0  0  0
 13 35  1  0  0  0  0
 14 36  1  0  0  0  0
 17 37  1  0  0  0  0
 22 38  1  0  0  0  0
M  END
> <Chemgauss4>
-9.132250

$$$$
