stable:False satoms:19 tatoms:24 sratio:0.7916666666666666
  -OEChem-08062400183D

 24 24  0     1  0  0  0  0  0999 V2000
    8.3739   -1.4758   22.0244 H   0  0  0  0  0  0  0  0  0  0  0  0
    9.4123   -1.1723   21.7844 C   0  0  0  0  0  0  0  0  0  0  0  0
    9.6408   -1.7535   20.8756 H   0  0  0  0  0  0  0  0  0  0  0  0
    9.5181   -2.3049   24.3433 O   0  0  0  0  0  0  0  0  0  0  0  0
   10.6329   -1.2939   22.6807 C   0  0  3  0  0  0  0  0  0  0  0  0
    9.3864   -0.0888   21.7388 H   0  0  0  0  0  0  0  0  0  0  0  0
   10.4814   -1.5589   23.9904 C   0  0  0  0  0  0  0  0  0  0  0  0
   11.6198   -1.0713   24.9628 C   0  0  0  0  0  0  0  0  0  0  0  0
   12.2899    0.1274   24.4675 C   0  0  0  0  0  0  0  0  0  0  0  0
   11.2302   -0.9129   25.9754 H   0  0  0  0  0  0  0  0  0  0  0  0
   12.3982   -1.8564   25.0685 H   0  0  0  0  0  0  0  0  0  0  0  0
   13.4929    0.1159   24.2549 O   0  0  0  0  0  0  0  0  0  0  0  0
   11.2543   -2.1000   22.2634 H   0  0  0  0  0  0  0  0  0  0  0  0
   12.0376    2.4027   23.8537 N   0  0  0  0  0  0  0  0  0  0  0  0
   11.4164    3.5636   23.8564 C   0  0  0  0  0  0  0  0  0  0  0  0
   11.5155    1.2930   24.2324 N   0  0  0  0  0  0  0  0  0  0  0  0
   10.9146    5.8557   23.6663 C   0  0  0  0  0  0  0  0  0  0  0  0
   11.8733    4.8799   23.5049 C   0  0  0  0  0  0  0  0  0  0  0  0
   12.8600    5.1432   23.1628 H   0  0  0  0  0  0  0  0  0  0  0  0
   11.0848    6.9233   23.5092 H   0  0  0  0  0  0  0  0  0  0  0  0
    9.7055    5.3952   24.0555 C   0  0  0  0  0  0  0  0  0  0  0  0
    8.8478    5.9809   24.2741 H   0  0  0  0  0  0  0  0  0  0  0  0
    9.6402    3.7060   24.2080 S   0  0  0  0  0  0  0  0  0  0  0  0
   11.1750   -0.3393   22.6104 H   0  0  0  0  0  0  0  0  0  0  0  0
 17 20  1  0  0  0  0
 18 19  1  0  0  0  0
 17 18  1  0  0  0  0
 17 21  2  0  0  0  0
 15 18  2  0  0  0  0
 21 22  1  0  0  0  0
 21 23  1  0  0  0  0
 14 15  1  0  0  0  0
 15 23  1  0  0  0  0
 14 16  2  0  0  0  0
  9 12  2  0  0  0  0
  9 16  1  0  0  0  0
  8  9  1  0  0  0  0
  5 13  1  0  0  0  0
  2  6  1  0  0  0  0
  2  5  1  0  0  0  0
  5  7  1  0  0  0  0
  8 11  1  0  0  0  0
  8 10  1  0  0  0  0
  7  8  1  0  0  0  0
  2  3  1  0  0  0  0
  1  2  1  0  0  0  0
  4  7  2  0  0  0  0
  5 24  1  0  0  0  0
M  END
> <Chemgauss4>
-6.080024

$$$$
