stable:False satoms:19 tatoms:24 sratio:0.7916666666666666
  -OEChem-08062400183D

 24 24  0     1  0  0  0  0  0999 V2000
   -8.0873   -1.7709  -22.0502 H   0  0  0  0  0  0  0  0  0  0  0  0
   -9.1257   -1.4674  -21.8102 C   0  0  0  0  0  0  0  0  0  0  0  0
   -9.3542   -2.0486  -20.9014 H   0  0  0  0  0  0  0  0  0  0  0  0
   -9.2315   -2.6001  -24.3691 O   0  0  0  0  0  0  0  0  0  0  0  0
  -10.3463   -1.5891  -22.7065 C   0  0  3  0  0  0  0  0  0  0  0  0
   -9.0998   -0.3839  -21.7646 H   0  0  0  0  0  0  0  0  0  0  0  0
  -10.1948   -1.8540  -24.0162 C   0  0  0  0  0  0  0  0  0  0  0  0
  -11.3332   -1.3664  -24.9886 C   0  0  0  0  0  0  0  0  0  0  0  0
  -12.0033   -0.1677  -24.4933 C   0  0  0  0  0  0  0  0  0  0  0  0
  -10.9436   -1.2080  -26.0012 H   0  0  0  0  0  0  0  0  0  0  0  0
  -12.1116   -2.1516  -25.0943 H   0  0  0  0  0  0  0  0  0  0  0  0
  -13.2063   -0.1792  -24.2807 O   0  0  0  0  0  0  0  0  0  0  0  0
  -10.9677   -2.3952  -22.2892 H   0  0  0  0  0  0  0  0  0  0  0  0
  -11.7510    2.1076  -23.8796 N   0  0  0  0  0  0  0  0  0  0  0  0
  -11.1298    3.2684  -23.8822 C   0  0  0  0  0  0  0  0  0  0  0  0
  -11.2289    0.9978  -24.2582 N   0  0  0  0  0  0  0  0  0  0  0  0
  -10.6280    5.5606  -23.6921 C   0  0  0  0  0  0  0  0  0  0  0  0
  -11.5867    4.5848  -23.5307 C   0  0  0  0  0  0  0  0  0  0  0  0
  -12.5734    4.8481  -23.1886 H   0  0  0  0  0  0  0  0  0  0  0  0
  -10.7982    6.6282  -23.5350 H   0  0  0  0  0  0  0  0  0  0  0  0
   -9.4189    5.1000  -24.0813 C   0  0  0  0  0  0  0  0  0  0  0  0
   -8.5612    5.6857  -24.2999 H   0  0  0  0  0  0  0  0  0  0  0  0
   -9.3536    3.4108  -24.2338 S   0  0  0  0  0  0  0  0  0  0  0  0
  -10.8884   -0.6345  -22.6362 H   0  0  0  0  0  0  0  0  0  0  0  0
 17 20  1  0  0  0  0
 18 19  1  0  0  0  0
 17 18  1  0  0  0  0
 17 21  2  0  0  0  0
 15 18  2  0  0  0  0
 21 22  1  0  0  0  0
 21 23  1  0  0  0  0
 14 15  1  0  0  0  0
 15 23  1  0  0  0  0
 14 16  2  0  0  0  0
  9 12  2  0  0  0  0
  9 16  1  0  0  0  0
  8  9  1  0  0  0  0
  5 13  1  0  0  0  0
  2  6  1  0  0  0  0
  2  5  1  0  0  0  0
  5  7  1  0  0  0  0
  8 11  1  0  0  0  0
  8 10  1  0  0  0  0
  7  8  1  0  0  0  0
  2  3  1  0  0  0  0
  1  2  1  0  0  0  0
  4  7  2  0  0  0  0
  5 24  1  0  0  0  0
M  END
> <Chemgauss4>
-6.098848

$$$$
