stable:False satoms:17 tatoms:24 sratio:0.7083333333333334
  -OEChem-07092417303D

 24 25  0     1  0  0  0  0  0999 V2000
    7.4915   -2.5679   26.2486 O   0  5  0  0  0  0  0  0  0  0  0  0
    8.3635   -2.3190   25.3779 C   0  0  0  0  0  0  0  0  0  0  0  0
    7.2116   -0.8116   24.4658 H   0  0  0  0  0  0  0  0  0  0  0  0
    8.5325   -1.4663   22.9688 C   0  0  0  0  0  0  0  0  0  0  0  0
    9.9042   -1.0803   22.7262 C   0  0  1  0  0  0  0  0  0  0  0  0
    9.5388   -2.7259   25.3716 O   0  0  0  0  0  0  0  0  0  0  0  0
    7.9976   -1.4705   24.1944 C   0  0  0  0  0  0  0  0  0  0  0  0
   11.5767   -1.5086   24.2096 H   0  0  0  0  0  0  0  0  0  0  0  0
   10.8895    0.8202   22.9277 H   0  0  0  0  0  0  0  0  0  0  0  0
   10.9559   -1.5093   23.3551 C   0  5  3  0  0  0  0  0  0  0  0  0
   11.6896   -2.6034   21.8693 H   0  0  0  0  0  0  0  0  0  0  0  0
   10.9098   -1.8390   22.0148 C   0  0  0  0  0  0  0  0  0  0  0  0
    8.7025   -2.3742   20.6941 O   0  0  0  0  0  0  0  0  0  0  0  0
    9.9943    0.4691   22.4686 C   0  0  0  0  0  0  0  0  0  0  0  0
    9.1313    0.9371   22.8943 H   0  0  0  0  0  0  0  0  0  0  0  0
    8.3999   -1.5199   21.3306 C   0  0  3  0  0  0  0  0  0  0  0  0
    9.9918    0.6097   21.4116 H   0  0  0  0  0  0  0  0  0  0  0  0
    5.9276   -0.8871   21.0112 C   0  0  0  0  0  0  0  0  0  0  0  0
   10.6119   -1.6530   20.9340 H   0  0  0  0  0  0  0  0  0  0  0  0
    8.2942   -0.8622   20.3572 N   0  0  0  0  0  0  0  0  0  0  0  0
    5.8803   -1.9795   21.1981 H   0  0  0  0  0  0  0  0  0  0  0  0
    5.1196    0.0739   21.2987 O   0  0  0  0  0  0  0  0  0  0  0  0
    6.2871   -0.9161   19.9563 H   0  0  0  0  0  0  0  0  0  0  0  0
    6.1823   -0.1067   22.0123 O   0  0  0  0  0  0  0  0  0  0  0  0
 18 23  1  0  0  0  0
 13 20  1  0  0  0  0
 16 20  1  0  0  0  0
 13 16  1  0  0  0  0
 12 19  1  0  0  0  0
 18 21  1  0  0  0  0
 18 22  1  0  0  0  0
 18 24  1  0  0  0  0
 22 24  1  0  0  0  0
  4 16  1  0  0  0  0
 14 17  1  0  0  0  0
 11 12  1  0  0  0  0
  5 12  1  0  0  0  0
 10 12  1  0  0  0  0
  5 14  1  0  0  0  0
 14 15  1  0  0  0  0
  9 14  1  0  0  0  0
  4  5  1  0  0  0  0
  5 10  1  0  0  0  0
  4  7  2  3  0  0  0
  8 10  1  0  0  0  0
  3  7  1  0  0  0  0
  2  7  1  0  0  0  0
  2  6  2  0  0  0  0
  1  2  1  0  0  0  0
M  CHG  2   1  -1  10  -1
M  END
> <Shapegauss>
-118.932419

$$$$
