REMARK  3 active torsions:
REMARK  status: ('A' for Active; 'I' for Inactive)
REMARK    1  A    between atoms: C_2  and  C_6 
REMARK    2  A    between atoms: C_3  and  C_11 
REMARK    3  A    between atoms: C_3  and  C_4 
ROOT
HETATM    1  C   UNL     1       5.928  -0.887  21.011  1.00  0.00     0.420 A 
HETATM    2  O   UNL     1       5.120   0.074  21.299  1.00  0.00    -0.210 OA
HETATM    3  O   UNL     1       6.182  -0.107  22.012  1.00  0.00    -0.210 OA
ENDROOT
TORSDOF 3
