MODEL 1
REMARK VINA RESULT:    -5.006      0.000      0.000
REMARK INTER + INTRA:          -7.260
REMARK INTER:                  -6.908
REMARK INTRA:                  -0.351
REMARK UNBOUND:                -0.351
REMARK  7 active torsions:
REMARK  status: ('A' for Active; 'I' for Inactive)
REMARK       I    between atoms: N_2  and  C_7 
REMARK    1  A    between atoms: C_5  and  C_6 
REMARK    2  A    between atoms: C_5  and  C_7 
REMARK    3  A    between atoms: C_6  and  C_12 
REMARK    4  A    between atoms: C_6  and  O_8 
REMARK    5  A    between atoms: N_10  and  C_12 
REMARK    6  A    between atoms: N_14  and  C_18 
REMARK    7  A    between atoms: C_17  and  C_18 
ROOT
HETATM    1  C   UNL     1       9.400  -1.744  23.023  1.00  0.00     0.116 C 
ENDROOT
BRANCH   1   2
HETATM    2  C   UNL     1      10.445  -1.230  23.790  1.00  0.00     0.121 C 
BRANCH   2   3
HETATM    3  C   UNL     1      11.815  -1.296  23.479  1.00  0.00     0.310 C 
HETATM    4  N   UNL     1      12.649  -0.195  24.107  1.00  0.00    -0.073 N 
HETATM    5  O   UNL     1      12.211   0.935  24.078  1.00  0.00    -0.529 OA
HETATM    6  O   UNL     1      13.738  -0.495  24.582  1.00  0.00    -0.529 OA
HETATM    7  O   UNL     1      12.458  -1.842  22.626  1.00  0.00    -0.262 OA
ENDBRANCH   2   3
ENDBRANCH   1   2
BRANCH   1   8
HETATM    8  C   UNL     1       8.774  -0.996  21.795  1.00  0.00     0.129 C 
HETATM    9  N   UNL     1       7.552  -1.022  21.535  1.00  0.00    -0.374 N 
ATOM     10  HN  UNL     1       7.137  -1.580  22.280  1.00  0.00     0.161 HD
BRANCH   8  11
HETATM   11  N   UNL     1       9.455  -0.332  21.002  1.00  0.00    -0.383 N 
HETATM   12  H   UNL     1      10.409  -0.066  21.439  1.00  0.00     0.157 HD
ATOM     13  HN  UNL     1       9.156  -0.070  20.063  1.00  0.00     0.157 HD
ENDBRANCH   8  11
BRANCH   9  14
HETATM   14  C   UNL     1       6.471  -0.656  20.715  1.00  0.00     0.132 C 
BRANCH  14  15
HETATM   15  C   UNL     1       6.171   0.783  20.170  1.00  0.00     0.104 C 
HETATM   16 BR   UNL     1       5.788   0.426  18.225  1.00  0.00    -0.095 Br
ENDBRANCH  14  15
ENDBRANCH   9  14
ENDBRANCH   1   8
BRANCH   1  17
HETATM   17  O   UNL     1       9.009  -2.961  23.233  1.00  0.00    -0.352 OA
HETATM   18  C   UNL     1       8.330  -3.530  24.356  1.00  0.00     0.210 C 
ENDBRANCH   1  17
TORSDOF 7
ENDMDL
MODEL 2
REMARK VINA RESULT:    -4.897      4.432      5.987
REMARK INTER + INTRA:          -7.109
REMARK INTER:                  -6.658
REMARK INTRA:                  -0.451
REMARK UNBOUND:                -0.351
REMARK  7 active torsions:
REMARK  status: ('A' for Active; 'I' for Inactive)
REMARK       I    between atoms: N_2  and  C_7 
REMARK    1  A    between atoms: C_5  and  C_6 
REMARK    2  A    between atoms: C_5  and  C_7 
REMARK    3  A    between atoms: C_6  and  C_12 
REMARK    4  A    between atoms: C_6  and  O_8 
REMARK    5  A    between atoms: N_10  and  C_12 
REMARK    6  A    between atoms: N_14  and  C_18 
REMARK    7  A    between atoms: C_17  and  C_18 
ROOT
HETATM    1  C   UNL     1       8.117  -4.390  23.916  1.00  0.00     0.116 C 
ENDROOT
BRANCH   1   2
HETATM    2  C   UNL     1       8.413  -5.239  24.982  1.00  0.00     0.121 C 
BRANCH   2   3
HETATM    3  C   UNL     1       8.316  -4.921  26.349  1.00  0.00     0.310 C 
HETATM    4  N   UNL     1       7.214  -5.662  27.084  1.00  0.00    -0.073 N 
HETATM    5  O   UNL     1       6.134  -5.755  26.541  1.00  0.00    -0.529 OA
HETATM    6  O   UNL     1       7.460  -6.102  28.201  1.00  0.00    -0.529 OA
HETATM    7  O   UNL     1       8.705  -4.013  27.031  1.00  0.00    -0.262 OA
ENDBRANCH   2   3
ENDBRANCH   1   2
BRANCH   1   8
HETATM    8  C   UNL     1       8.629  -2.912  23.815  1.00  0.00     0.129 C 
HETATM    9  N   UNL     1       9.612  -2.578  23.117  1.00  0.00    -0.374 N 
ATOM     10  HN  UNL     1       9.921  -3.442  22.672  1.00  0.00     0.161 HD
BRANCH   8  11
HETATM   11  N   UNL     1       8.091  -1.977  24.423  1.00  0.00    -0.383 N 
HETATM   12  H   UNL     1       7.015  -2.008  24.308  1.00  0.00     0.157 HD
ATOM     13  HN  UNL     1       8.594  -1.272  24.961  1.00  0.00     0.157 HD
ENDBRANCH   8  11
BRANCH   9  14
HETATM   14  C   UNL     1      10.498  -1.594  22.648  1.00  0.00     0.132 C 
BRANCH  14  15
HETATM   15  C   UNL     1      12.038  -1.526  22.934  1.00  0.00     0.104 C 
HETATM   16 BR   UNL     1      12.141  -0.089  24.341  1.00  0.00    -0.095 Br
ENDBRANCH  14  15
ENDBRANCH   9  14
ENDBRANCH   1   8
BRANCH   1  17
HETATM   17  O   UNL     1       7.510  -4.874  22.880  1.00  0.00    -0.352 OA
HETATM   18  C   UNL     1       6.460  -4.317  22.083  1.00  0.00     0.210 C 
ENDBRANCH   1  17
TORSDOF 7
ENDMDL
MODEL 3
REMARK VINA RESULT:    -4.799      3.210      4.632
REMARK INTER + INTRA:          -6.974
REMARK INTER:                  -6.568
REMARK INTRA:                  -0.406
REMARK UNBOUND:                -0.351
REMARK  7 active torsions:
REMARK  status: ('A' for Active; 'I' for Inactive)
REMARK       I    between atoms: N_2  and  C_7 
REMARK    1  A    between atoms: C_5  and  C_6 
REMARK    2  A    between atoms: C_5  and  C_7 
REMARK    3  A    between atoms: C_6  and  C_12 
REMARK    4  A    between atoms: C_6  and  O_8 
REMARK    5  A    between atoms: N_10  and  C_12 
REMARK    6  A    between atoms: N_14  and  C_18 
REMARK    7  A    between atoms: C_17  and  C_18 
ROOT
HETATM    1  C   UNL     1      10.488  -0.990  23.374  1.00  0.00     0.116 C 
ENDROOT
BRANCH   1   2
HETATM    2  C   UNL     1      10.606  -0.429  22.103  1.00  0.00     0.121 C 
BRANCH   2   3
HETATM    3  C   UNL     1      10.159   0.847  21.713  1.00  0.00     0.310 C 
HETATM    4  N   UNL     1       8.834   0.842  20.972  1.00  0.00    -0.073 N 
HETATM    5  O   UNL     1       8.666  -0.001  20.118  1.00  0.00    -0.529 OA
HETATM    6  O   UNL     1       8.014   1.709  21.250  1.00  0.00    -0.529 OA
HETATM    7  O   UNL     1      10.684   1.917  21.577  1.00  0.00    -0.262 OA
ENDBRANCH   2   3
ENDBRANCH   1   2
BRANCH   1   8
HETATM    8  C   UNL     1       9.376  -2.023  23.768  1.00  0.00     0.129 C 
HETATM    9  N   UNL     1       8.701  -2.650  22.923  1.00  0.00    -0.374 N 
ATOM     10  HN  UNL     1       9.063  -2.345  22.020  1.00  0.00     0.161 HD
BRANCH   8  11
HETATM   11  N   UNL     1       9.096  -2.284  24.946  1.00  0.00    -0.383 N 
HETATM   12  H   UNL     1       8.971  -3.350  25.088  1.00  0.00     0.157 HD
ATOM     13  HN  UNL     1       8.996  -1.587  25.683  1.00  0.00     0.157 HD
ENDBRANCH   8  11
BRANCH   9  14
HETATM   14  C   UNL     1       7.686  -3.570  22.611  1.00  0.00     0.132 C 
BRANCH  14  15
HETATM   15  C   UNL     1       7.507  -4.996  23.238  1.00  0.00     0.104 C 
HETATM   16 BR   UNL     1       6.479  -5.962  21.801  1.00  0.00    -0.095 Br
ENDBRANCH  14  15
ENDBRANCH   9  14
ENDBRANCH   1   8
BRANCH   1  17
HETATM   17  O   UNL     1      11.419  -0.767  24.246  1.00  0.00    -0.352 OA
HETATM   18  C   UNL     1      12.786  -0.391  24.059  1.00  0.00     0.210 C 
ENDBRANCH   1  17
TORSDOF 7
ENDMDL
MODEL 4
REMARK VINA RESULT:    -4.783      1.882      3.005
REMARK INTER + INTRA:          -6.951
REMARK INTER:                  -6.440
REMARK INTRA:                  -0.511
REMARK UNBOUND:                -0.351
REMARK  7 active torsions:
REMARK  status: ('A' for Active; 'I' for Inactive)
REMARK       I    between atoms: N_2  and  C_7 
REMARK    1  A    between atoms: C_5  and  C_6 
REMARK    2  A    between atoms: C_5  and  C_7 
REMARK    3  A    between atoms: C_6  and  C_12 
REMARK    4  A    between atoms: C_6  and  O_8 
REMARK    5  A    between atoms: N_10  and  C_12 
REMARK    6  A    between atoms: N_14  and  C_18 
REMARK    7  A    between atoms: C_17  and  C_18 
ROOT
HETATM    1  C   UNL     1       8.725  -0.130  21.451  1.00  0.00     0.116 C 
ENDROOT
BRANCH   1   2
HETATM    2  C   UNL     1       9.225  -1.389  21.784  1.00  0.00     0.121 C 
BRANCH   2   3
HETATM    3  C   UNL     1       9.756  -1.769  23.030  1.00  0.00     0.310 C 
HETATM    4  N   UNL     1      11.235  -1.474  23.193  1.00  0.00    -0.073 N 
HETATM    5  O   UNL     1      11.971  -1.735  22.265  1.00  0.00    -0.529 OA
HETATM    6  O   UNL     1      11.619  -1.018  24.264  1.00  0.00    -0.529 OA
HETATM    7  O   UNL     1       9.403  -2.514  23.903  1.00  0.00    -0.262 OA
ENDBRANCH   2   3
ENDBRANCH   1   2
BRANCH   1   8
HETATM    8  C   UNL     1       7.222   0.280  21.623  1.00  0.00     0.129 C 
HETATM    9  N   UNL     1       6.662   1.129  20.896  1.00  0.00    -0.374 N 
ATOM     10  HN  UNL     1       7.378   1.416  20.229  1.00  0.00     0.161 HD
BRANCH   8  11
HETATM   11  N   UNL     1       6.492  -0.212  22.494  1.00  0.00    -0.383 N 
HETATM   12  H   UNL     1       5.764  -0.883  22.056  1.00  0.00     0.157 HD
ATOM     13  HN  UNL     1       6.566  -0.012  23.491  1.00  0.00     0.157 HD
ENDBRANCH   8  11
BRANCH   9  14
HETATM   14  C   UNL     1       5.527   1.882  20.551  1.00  0.00     0.132 C 
BRANCH  14  15
HETATM   15  C   UNL     1       4.560   1.596  19.349  1.00  0.00     0.104 C 
HETATM   16 BR   UNL     1       5.680   0.395  18.184  1.00  0.00    -0.095 Br
ENDBRANCH  14  15
ENDBRANCH   9  14
ENDBRANCH   1   8
BRANCH   1  17
HETATM   17  O   UNL     1       9.555   0.805  21.116  1.00  0.00    -0.352 OA
HETATM   18  C   UNL     1      10.290   1.722  21.931  1.00  0.00     0.210 C 
ENDBRANCH   1  17
TORSDOF 7
ENDMDL
MODEL 5
REMARK VINA RESULT:    -4.772      2.749      3.522
REMARK INTER + INTRA:          -6.937
REMARK INTER:                  -6.169
REMARK INTRA:                  -0.768
REMARK UNBOUND:                -0.351
REMARK  7 active torsions:
REMARK  status: ('A' for Active; 'I' for Inactive)
REMARK       I    between atoms: N_2  and  C_7 
REMARK    1  A    between atoms: C_5  and  C_6 
REMARK    2  A    between atoms: C_5  and  C_7 
REMARK    3  A    between atoms: C_6  and  C_12 
REMARK    4  A    between atoms: C_6  and  O_8 
REMARK    5  A    between atoms: N_10  and  C_12 
REMARK    6  A    between atoms: N_14  and  C_18 
REMARK    7  A    between atoms: C_17  and  C_18 
ROOT
HETATM    1  C   UNL     1       9.574   0.572  21.834  1.00  0.00     0.116 C 
ENDROOT
BRANCH   1   2
HETATM    2  C   UNL     1      10.783   0.922  22.435  1.00  0.00     0.121 C 
BRANCH   2   3
HETATM    3  C   UNL     1      11.127   0.727  23.785  1.00  0.00     0.310 C 
HETATM    4  N   UNL     1      12.237  -0.283  24.005  1.00  0.00    -0.073 N 
HETATM    5  O   UNL     1      12.196  -1.317  23.372  1.00  0.00    -0.529 OA
HETATM    6  O   UNL     1      13.102  -0.021  24.832  1.00  0.00    -0.529 OA
HETATM    7  O   UNL     1      10.586   0.954  24.832  1.00  0.00    -0.262 OA
ENDBRANCH   2   3
ENDBRANCH   1   2
BRANCH   1   8
HETATM    8  C   UNL     1       8.994  -0.884  21.833  1.00  0.00     0.129 C 
HETATM    9  N   UNL     1       7.769  -1.128  21.849  1.00  0.00    -0.374 N 
ATOM     10  HN  UNL     1       7.320  -0.212  21.837  1.00  0.00     0.161 HD
BRANCH   8  11
HETATM   11  N   UNL     1       9.718  -1.890  21.817  1.00  0.00    -0.383 N 
HETATM   12  H   UNL     1       9.484  -2.523  20.971  1.00  0.00     0.157 HD
ATOM     13  HN  UNL     1      10.438  -2.094  22.510  1.00  0.00     0.157 HD
ENDBRANCH   8  11
BRANCH   9  14
HETATM   14  C   UNL     1       6.707  -2.048  21.875  1.00  0.00     0.132 C 
BRANCH  14  15
HETATM   15  C   UNL     1       6.152  -2.781  23.145  1.00  0.00     0.104 C 
HETATM   16 BR   UNL     1       7.392  -4.360  23.298  1.00  0.00    -0.095 Br
ENDBRANCH  14  15
ENDBRANCH   9  14
ENDBRANCH   1   8
BRANCH   1  17
HETATM   17  O   UNL     1       8.810   1.510  21.372  1.00  0.00    -0.352 OA
HETATM   18  C   UNL     1       8.117   2.556  22.058  1.00  0.00     0.210 C 
ENDBRANCH   1  17
TORSDOF 7
ENDMDL
MODEL 6
REMARK VINA RESULT:    -4.741      3.731      5.366
REMARK INTER + INTRA:          -6.894
REMARK INTER:                  -6.379
REMARK INTRA:                  -0.516
REMARK UNBOUND:                -0.351
REMARK  7 active torsions:
REMARK  status: ('A' for Active; 'I' for Inactive)
REMARK       I    between atoms: N_2  and  C_7 
REMARK    1  A    between atoms: C_5  and  C_6 
REMARK    2  A    between atoms: C_5  and  C_7 
REMARK    3  A    between atoms: C_6  and  C_12 
REMARK    4  A    between atoms: C_6  and  O_8 
REMARK    5  A    between atoms: N_10  and  C_12 
REMARK    6  A    between atoms: N_14  and  C_18 
REMARK    7  A    between atoms: C_17  and  C_18 
ROOT
HETATM    1  C   UNL     1       7.396  -2.251  22.208  1.00  0.00     0.116 C 
ENDROOT
BRANCH   1   2
HETATM    2  C   UNL     1       6.866  -1.010  21.855  1.00  0.00     0.121 C 
BRANCH   2   3
HETATM    3  C   UNL     1       6.625  -0.551  20.548  1.00  0.00     0.310 C 
HETATM    4  N   UNL     1       7.749   0.283  19.964  1.00  0.00    -0.073 N 
HETATM    5  O   UNL     1       8.260   1.122  20.674  1.00  0.00    -0.529 OA
HETATM    6  O   UNL     1       8.064   0.091  18.795  1.00  0.00    -0.529 OA
HETATM    7  O   UNL     1       5.643  -0.422  19.869  1.00  0.00    -0.262 OA
ENDBRANCH   2   3
ENDBRANCH   1   2
BRANCH   1   8
HETATM    8  C   UNL     1       8.820  -2.441  22.836  1.00  0.00     0.129 C 
HETATM    9  N   UNL     1       9.797  -1.723  22.533  1.00  0.00    -0.374 N 
ATOM     10  HN  UNL     1       9.429  -1.048  21.863  1.00  0.00     0.161 HD
BRANCH   8  11
HETATM   11  N   UNL     1       9.067  -3.319  23.674  1.00  0.00    -0.383 N 
HETATM   12  H   UNL     1       8.267  -3.400  24.398  1.00  0.00     0.157 HD
ATOM     13  HN  UNL     1       9.912  -3.890  23.680  1.00  0.00     0.157 HD
ENDBRANCH   8  11
BRANCH   9  14
HETATM   14  C   UNL     1      11.156  -1.392  22.667  1.00  0.00     0.132 C 
BRANCH  14  15
HETATM   15  C   UNL     1      11.839  -0.790  23.943  1.00  0.00     0.104 C 
HETATM   16 BR   UNL     1      10.386   0.393  24.682  1.00  0.00    -0.095 Br
ENDBRANCH  14  15
ENDBRANCH   9  14
ENDBRANCH   1   8
BRANCH   1  17
HETATM   17  O   UNL     1       6.633  -3.296  22.153  1.00  0.00    -0.352 OA
HETATM   18  C   UNL     1       5.267  -3.461  22.540  1.00  0.00     0.210 C 
ENDBRANCH   1  17
TORSDOF 7
ENDMDL
MODEL 7
REMARK VINA RESULT:    -4.644     25.396     27.224
REMARK INTER + INTRA:          -6.760
REMARK INTER:                  -6.322
REMARK INTRA:                  -0.439
REMARK UNBOUND:                -0.351
REMARK  7 active torsions:
REMARK  status: ('A' for Active; 'I' for Inactive)
REMARK       I    between atoms: N_2  and  C_7 
REMARK    1  A    between atoms: C_5  and  C_6 
REMARK    2  A    between atoms: C_5  and  C_7 
REMARK    3  A    between atoms: C_6  and  C_12 
REMARK    4  A    between atoms: C_6  and  O_8 
REMARK    5  A    between atoms: N_10  and  C_12 
REMARK    6  A    between atoms: N_14  and  C_18 
REMARK    7  A    between atoms: C_17  and  C_18 
ROOT
HETATM    1  C   UNL     1       8.752  16.956   2.274  1.00  0.00     0.116 C 
ENDROOT
BRANCH   1   2
HETATM    2  C   UNL     1       8.888  15.580   2.088  1.00  0.00     0.121 C 
BRANCH   2   3
HETATM    3  C   UNL     1       9.745  14.725   2.803  1.00  0.00     0.310 C 
HETATM    4  N   UNL     1       9.033  13.791   3.763  1.00  0.00    -0.073 N 
HETATM    5  O   UNL     1       8.143  14.251   4.447  1.00  0.00    -0.529 OA
HETATM    6  O   UNL     1       9.412  12.627   3.825  1.00  0.00    -0.529 OA
HETATM    7  O   UNL     1      10.920  14.727   3.051  1.00  0.00    -0.262 OA
ENDBRANCH   2   3
ENDBRANCH   1   2
BRANCH   1   8
HETATM    8  C   UNL     1       9.558  18.026   1.460  1.00  0.00     0.129 C 
HETATM    9  N   UNL     1      10.072  19.036   1.987  1.00  0.00    -0.374 N 
ATOM     10  HN  UNL     1       9.859  18.950   2.981  1.00  0.00     0.161 HD
BRANCH   8  11
HETATM   11  N   UNL     1       9.735  17.939   0.237  1.00  0.00    -0.383 N 
HETATM   12  H   UNL     1       9.945  16.917  -0.052  1.00  0.00     0.157 HD
ATOM     13  HN  UNL     1       9.690  18.725  -0.411  1.00  0.00     0.157 HD
ENDBRANCH   8  11
BRANCH   9  14
HETATM   14  C   UNL     1      10.800  20.233   1.879  1.00  0.00     0.132 C 
BRANCH  14  15
HETATM   15  C   UNL     1      10.197  21.666   1.676  1.00  0.00     0.104 C 
HETATM   16 BR   UNL     1       9.423  21.539  -0.179  1.00  0.00    -0.095 Br
ENDBRANCH  14  15
ENDBRANCH   9  14
ENDBRANCH   1   8
BRANCH   1  17
HETATM   17  O   UNL     1       7.816  17.393   3.054  1.00  0.00    -0.352 OA
HETATM   18  C   UNL     1       7.870  17.789   4.428  1.00  0.00     0.210 C 
ENDBRANCH   1  17
TORSDOF 7
ENDMDL
MODEL 8
REMARK VINA RESULT:    -4.576      4.202      6.236
REMARK INTER + INTRA:          -6.666
REMARK INTER:                  -6.309
REMARK INTRA:                  -0.357
REMARK UNBOUND:                -0.351
REMARK  7 active torsions:
REMARK  status: ('A' for Active; 'I' for Inactive)
REMARK       I    between atoms: N_2  and  C_7 
REMARK    1  A    between atoms: C_5  and  C_6 
REMARK    2  A    between atoms: C_5  and  C_7 
REMARK    3  A    between atoms: C_6  and  C_12 
REMARK    4  A    between atoms: C_6  and  O_8 
REMARK    5  A    between atoms: N_10  and  C_12 
REMARK    6  A    between atoms: N_14  and  C_18 
REMARK    7  A    between atoms: C_17  and  C_18 
ROOT
HETATM    1  C   UNL     1       8.157  -3.800  24.047  1.00  0.00     0.116 C 
ENDROOT
BRANCH   1   2
HETATM    2  C   UNL     1       7.874  -5.092  23.605  1.00  0.00     0.121 C 
BRANCH   2   3
HETATM    3  C   UNL     1       6.991  -5.442  22.568  1.00  0.00     0.310 C 
HETATM    4  N   UNL     1       5.550  -5.618  23.011  1.00  0.00    -0.073 N 
HETATM    5  O   UNL     1       5.343  -6.231  24.036  1.00  0.00    -0.529 OA
HETATM    6  O   UNL     1       4.666  -5.162  22.295  1.00  0.00    -0.529 OA
HETATM    7  O   UNL     1       7.125  -5.902  21.467  1.00  0.00    -0.262 OA
ENDBRANCH   2   3
ENDBRANCH   1   2
BRANCH   1   8
HETATM    8  C   UNL     1       8.768  -2.684  23.131  1.00  0.00     0.129 C 
HETATM    9  N   UNL     1       9.977  -2.368  23.159  1.00  0.00    -0.374 N 
ATOM     10  HN  UNL     1      10.395  -2.994  23.848  1.00  0.00     0.161 HD
BRANCH   8  11
HETATM   11  N   UNL     1       8.088  -2.041  22.319  1.00  0.00    -0.383 N 
HETATM   12  H   UNL     1       7.848  -2.643  21.452  1.00  0.00     0.157 HD
ATOM     13  HN  UNL     1       7.794  -1.073  22.451  1.00  0.00     0.157 HD
ENDBRANCH   8  11
BRANCH   9  14
HETATM   14  C   UNL     1      11.042  -1.572  22.704  1.00  0.00     0.132 C 
BRANCH  14  15
HETATM   15  C   UNL     1      12.128  -0.882  23.601  1.00  0.00     0.104 C 
HETATM   16 BR   UNL     1      11.005   0.261  24.820  1.00  0.00    -0.095 Br
ENDBRANCH  14  15
ENDBRANCH   9  14
ENDBRANCH   1   8
BRANCH   1  17
HETATM   17  O   UNL     1       7.771  -3.444  25.230  1.00  0.00    -0.352 OA
HETATM   18  C   UNL     1       8.206  -3.893  26.516  1.00  0.00     0.210 C 
ENDBRANCH   1  17
TORSDOF 7
ENDMDL
MODEL 9
REMARK VINA RESULT:    -4.485      4.384      6.586
REMARK INTER + INTRA:          -6.540
REMARK INTER:                  -6.109
REMARK INTRA:                  -0.431
REMARK UNBOUND:                -0.351
REMARK  7 active torsions:
REMARK  status: ('A' for Active; 'I' for Inactive)
REMARK       I    between atoms: N_2  and  C_7 
REMARK    1  A    between atoms: C_5  and  C_6 
REMARK    2  A    between atoms: C_5  and  C_7 
REMARK    3  A    between atoms: C_6  and  C_12 
REMARK    4  A    between atoms: C_6  and  O_8 
REMARK    5  A    between atoms: N_10  and  C_12 
REMARK    6  A    between atoms: N_14  and  C_18 
REMARK    7  A    between atoms: C_17  and  C_18 
ROOT
HETATM    1  C   UNL     1       6.926  -0.071  21.202  1.00  0.00     0.116 C 
ENDROOT
BRANCH   1   2
HETATM    2  C   UNL     1       6.093  -0.734  20.301  1.00  0.00     0.121 C 
BRANCH   2   3
HETATM    3  C   UNL     1       5.985  -0.475  18.923  1.00  0.00     0.310 C 
HETATM    4  N   UNL     1       5.419   0.893  18.589  1.00  0.00    -0.073 N 
HETATM    5  O   UNL     1       4.459   1.279  19.221  1.00  0.00    -0.529 OA
HETATM    6  O   UNL     1       5.939   1.527  17.678  1.00  0.00    -0.529 OA
HETATM    7  O   UNL     1       5.973  -1.159  17.936  1.00  0.00    -0.262 OA
ENDBRANCH   2   3
ENDBRANCH   1   2
BRANCH   1   8
HETATM    8  C   UNL     1       8.435  -0.435  21.419  1.00  0.00     0.129 C 
HETATM    9  N   UNL     1       8.881  -0.869  22.503  1.00  0.00    -0.374 N 
ATOM     10  HN  UNL     1       8.066  -0.932  23.114  1.00  0.00     0.161 HD
BRANCH   8  11
HETATM   11  N   UNL     1       9.285  -0.313  20.526  1.00  0.00    -0.383 N 
HETATM   12  H   UNL     1       8.816  -0.143  19.565  1.00  0.00     0.157 HD
ATOM     13  HN  UNL     1      10.292  -0.366  20.676  1.00  0.00     0.157 HD
ENDBRANCH   8  11
BRANCH   9  14
HETATM   14  C   UNL     1       9.956  -1.313  23.290  1.00  0.00     0.132 C 
BRANCH  14  15
HETATM   15  C   UNL     1      10.383  -0.731  24.683  1.00  0.00     0.104 C 
HETATM   16 BR   UNL     1      12.136   0.159  24.248  1.00  0.00    -0.095 Br
ENDBRANCH  14  15
ENDBRANCH   9  14
ENDBRANCH   1   8
BRANCH   1  17
HETATM   17  O   UNL     1       6.486   0.994  21.794  1.00  0.00    -0.352 OA
HETATM   18  C   UNL     1       6.979   2.336  21.763  1.00  0.00     0.210 C 
ENDBRANCH   1  17
TORSDOF 7
ENDMDL
