REMARK  7 active torsions:
REMARK  status: ('A' for Active; 'I' for Inactive)
REMARK       I    between atoms: N_2  and  C_7 
REMARK    1  A    between atoms: C_5  and  C_6 
REMARK    2  A    between atoms: C_5  and  C_7 
REMARK    3  A    between atoms: C_6  and  C_12 
REMARK    4  A    between atoms: C_6  and  O_8 
REMARK    5  A    between atoms: N_10  and  C_12 
REMARK    6  A    between atoms: N_14  and  C_18 
REMARK    7  A    between atoms: C_17  and  C_18 
ROOT
HETATM    1  C   UNL     1       9.342  -1.327  23.291  1.00  0.00     0.116 C 
ENDROOT
BRANCH   1   2
HETATM    2  C   UNL     1       8.736  -2.307  24.077  1.00  0.00     0.121 C 
BRANCH   2   3
HETATM    3  C   UNL     1       9.150  -2.720  25.356  1.00  0.00     0.310 C 
HETATM    4  N   UNL     1       8.703  -4.120  25.733  1.00  0.00    -0.073 N 
HETATM    5  O   UNL     1       7.561  -4.438  25.479  1.00  0.00    -0.529 OA
HETATM    6  O   UNL     1       9.506  -4.849  26.304  1.00  0.00    -0.529 OA
HETATM    7  O   UNL     1       9.539  -2.151  26.339  1.00  0.00    -0.262 OA
ENDBRANCH   2   3
ENDBRANCH   1   2
BRANCH   1   8
HETATM    8  C   UNL     1       8.838  -0.925  21.862  1.00  0.00     0.129 C 
HETATM    9  N   UNL     1       7.632  -0.735  21.595  1.00  0.00    -0.374 N 
ATOM     10  HN  UNL     1       7.143  -0.876  22.479  1.00  0.00     0.161 HD
BRANCH   8  11
HETATM   11  N   UNL     1       9.607  -0.771  20.903  1.00  0.00    -0.383 N 
HETATM   12  H   UNL     1       9.058  -0.540  19.999  1.00  0.00     0.157 HD
ATOM     13  HN  UNL     1      10.622  -0.851  20.958  1.00  0.00     0.157 HD
ENDBRANCH   8  11
BRANCH   9  14
HETATM   14  C   UNL     1       6.621  -0.422  20.671  1.00  0.00     0.132 C 
BRANCH  14  15
HETATM   15  C   UNL     1       6.715   0.644  19.525  1.00  0.00     0.104 C 
HETATM   16 BR   UNL     1       8.111   1.908  20.238  1.00  0.00    -0.095 Br
ENDBRANCH  14  15
ENDBRANCH   9  14
ENDBRANCH   1   8
BRANCH   1  17
HETATM   17  O   UNL     1      10.283  -0.603  23.808  1.00  0.00    -0.352 OA
HETATM   18  C   UNL     1      11.602  -0.327  23.329  1.00  0.00     0.210 C 
ENDBRANCH   1  17
TORSDOF 7
