MODEL 1
REMARK VINA RESULT:    -5.446      0.000      0.000
REMARK INTER + INTRA:          -9.374
REMARK INTER:                  -7.834
REMARK INTRA:                  -1.541
REMARK UNBOUND:                -1.541
REMARK  8 active torsions:
REMARK  status: ('A' for Active; 'I' for Inactive)
REMARK    1  A    between atoms: S_2  and  N_5 
REMARK    2  A    between atoms: N_5  and  N_7 
REMARK    3  A    between atoms: N_7  and  C_9 
REMARK    4  A    between atoms: C_9  and  C_11 
REMARK    5  A    between atoms: N_12  and  N_14 
REMARK    6  A    between atoms: N_17  and  C_18 
REMARK    7  A    between atoms: C_18  and  C_19 
REMARK    8  A    between atoms: N_20  and  O_22 
ROOT
HETATM    1  C   UNL     1       8.161  18.561   0.203  1.00  0.00     0.081 C 
HETATM    2  C   UNL     1       8.918  17.918   1.232  1.00  0.00     0.087 C 
HETATM    3  N   UNL     1       9.577  18.535   2.197  1.00  0.00    -0.282 N 
ATOM      4  HN  UNL     1       9.415  19.540   2.244  1.00  0.00     0.189 HD
ENDROOT
BRANCH   3   5
HETATM    5  N   UNL     1      10.342  18.110   3.034  1.00  0.00    -0.242 N 
HETATM    6  N   UNL     1      10.008  17.627   4.107  1.00  0.00    -0.285 N 
HETATM    7  H   UNL     1       8.830  17.755   4.167  1.00  0.00     0.188 HD
ATOM      8  HN  UNL     1      11.340  18.160   2.830  1.00  0.00     0.208 HD
BRANCH   6   9
HETATM    9  C   UNL     1      10.419  16.997   5.206  1.00  0.00     0.073 C 
HETATM   10  C   UNL     1      10.315  17.529   6.511  1.00  0.00     0.088 C 
HETATM   11 BR   UNL     1      10.014  19.295   6.828  1.00  0.00    -0.061 Br
BRANCH   9  12
HETATM   12  C   UNL     1      10.914  15.765   5.295  1.00  0.00     0.145 C 
HETATM   13  N   UNL     1      11.514  14.818   4.906  1.00  0.00    -0.278 N 
ATOM     14  HN  UNL     1      11.740  14.055   5.543  1.00  0.00     0.193 HD
BRANCH  13  15
HETATM   15  O   UNL     1      11.844  14.770   3.782  1.00  0.00    -0.290 OA
ATOM     16  HO  UNL     1      11.553  15.447   3.182  1.00  0.00     0.244 HD
ENDBRANCH  13  15
ENDBRANCH   9  12
ENDBRANCH   6   9
ENDBRANCH   3   5
BRANCH   2  17
HETATM   17  C   UNL     1       9.207  16.637   1.067  1.00  0.00     0.001 C 
BRANCH  17  18
HETATM   18  N   UNL     1       9.312  15.583   1.155  1.00  0.00    -0.252 N 
ATOM     19  HN  UNL     1       9.154  15.216   0.216  1.00  0.00     0.198 HD
BRANCH  18  20
HETATM   20  N   UNL     1       9.561  14.474   1.942  1.00  0.00    -0.201 N 
HETATM   21  H   UNL     1      10.517  14.435   1.901  1.00  0.00     0.203 HD
BRANCH  20  22
HETATM   22  S   UNL     1       8.544  13.846   2.999  1.00  0.00     0.224 S 
HETATM   23  O   UNL     1       9.370  12.931   3.818  1.00  0.00    -0.577 OA
HETATM   24  O   UNL     1       8.017  14.929   3.778  1.00  0.00    -0.577 OA
HETATM   25  O   UNL     1       7.544  13.139   2.300  1.00  0.00    -0.577 OA
ENDBRANCH  20  22
ENDBRANCH  18  20
ENDBRANCH  17  18
ENDBRANCH   2  17
TORSDOF 8
ENDMDL
MODEL 2
REMARK VINA RESULT:    -5.358      1.872      2.229
REMARK INTER + INTRA:          -9.248
REMARK INTER:                  -8.146
REMARK INTRA:                  -1.101
REMARK UNBOUND:                -1.541
REMARK  8 active torsions:
REMARK  status: ('A' for Active; 'I' for Inactive)
REMARK    1  A    between atoms: S_2  and  N_5 
REMARK    2  A    between atoms: N_5  and  N_7 
REMARK    3  A    between atoms: N_7  and  C_9 
REMARK    4  A    between atoms: C_9  and  C_11 
REMARK    5  A    between atoms: N_12  and  N_14 
REMARK    6  A    between atoms: N_17  and  C_18 
REMARK    7  A    between atoms: C_18  and  C_19 
REMARK    8  A    between atoms: N_20  and  O_22 
ROOT
HETATM    1  C   UNL     1       8.246  18.696  -0.295  1.00  0.00     0.081 C 
HETATM    2  C   UNL     1       8.891  18.195   0.879  1.00  0.00     0.087 C 
HETATM    3  N   UNL     1       9.491  18.931   1.797  1.00  0.00    -0.282 N 
ATOM      4  HN  UNL     1       9.362  19.936   1.684  1.00  0.00     0.189 HD
ENDROOT
BRANCH   3   5
HETATM    5  N   UNL     1      10.167  18.617   2.751  1.00  0.00    -0.242 N 
HETATM    6  N   UNL     1      10.489  19.369   3.660  1.00  0.00    -0.285 N 
HETATM    7  H   UNL     1      10.085  20.441   3.352  1.00  0.00     0.188 HD
ATOM      8  HN  UNL     1      10.493  17.652   2.801  1.00  0.00     0.208 HD
BRANCH   6   9
HETATM    9  C   UNL     1      11.074  19.468   4.852  1.00  0.00     0.073 C 
HETATM   10  C   UNL     1      10.434  19.959   6.012  1.00  0.00     0.088 C 
HETATM   11 BR   UNL     1       8.887  20.915   5.947  1.00  0.00    -0.061 Br
BRANCH   9  12
HETATM   12  C   UNL     1      12.299  19.069   5.188  1.00  0.00     0.145 C 
HETATM   13  N   UNL     1      13.313  18.472   5.036  1.00  0.00    -0.278 N 
ATOM     14  HN  UNL     1      14.115  18.658   5.638  1.00  0.00     0.193 HD
BRANCH  13  15
HETATM   15  O   UNL     1      13.383  17.667   4.188  1.00  0.00    -0.290 OA
ATOM     16  HO  UNL     1      12.649  17.548   3.596  1.00  0.00     0.244 HD
ENDBRANCH  13  15
ENDBRANCH   9  12
ENDBRANCH   6   9
ENDBRANCH   3   5
BRANCH   2  17
HETATM   17  C   UNL     1       9.145  16.896   0.928  1.00  0.00     0.001 C 
BRANCH  17  18
HETATM   18  N   UNL     1       9.302  15.885   1.218  1.00  0.00    -0.252 N 
ATOM     19  HN  UNL     1       8.573  15.353   0.743  1.00  0.00     0.198 HD
BRANCH  18  20
HETATM   20  N   UNL     1      10.029  14.953   1.933  1.00  0.00    -0.201 N 
HETATM   21  H   UNL     1      10.578  14.583   1.241  1.00  0.00     0.203 HD
BRANCH  20  22
HETATM   22  S   UNL     1      10.216  14.948   3.518  1.00  0.00     0.224 S 
HETATM   23  O   UNL     1      11.664  15.175   3.726  1.00  0.00    -0.577 OA
HETATM   24  O   UNL     1       9.429  16.027   4.043  1.00  0.00    -0.577 OA
HETATM   25  O   UNL     1       9.822  13.690   4.017  1.00  0.00    -0.577 OA
ENDBRANCH  20  22
ENDBRANCH  18  20
ENDBRANCH  17  18
ENDBRANCH   2  17
TORSDOF 8
ENDMDL
MODEL 3
REMARK VINA RESULT:    -5.264     23.601     25.563
REMARK INTER + INTRA:          -9.112
REMARK INTER:                  -8.671
REMARK INTRA:                  -0.442
REMARK UNBOUND:                -1.541
REMARK  8 active torsions:
REMARK  status: ('A' for Active; 'I' for Inactive)
REMARK    1  A    between atoms: S_2  and  N_5 
REMARK    2  A    between atoms: N_5  and  N_7 
REMARK    3  A    between atoms: N_7  and  C_9 
REMARK    4  A    between atoms: C_9  and  C_11 
REMARK    5  A    between atoms: N_12  and  N_14 
REMARK    6  A    between atoms: N_17  and  C_18 
REMARK    7  A    between atoms: C_18  and  C_19 
REMARK    8  A    between atoms: N_20  and  O_22 
ROOT
HETATM    1  C   UNL     1      10.893  -0.981  23.056  1.00  0.00     0.081 C 
HETATM    2  C   UNL     1       9.847  -1.223  22.111  1.00  0.00     0.087 C 
HETATM    3  N   UNL     1       9.481  -0.399  21.145  1.00  0.00    -0.282 N 
ATOM      4  HN  UNL     1      10.092   0.408  21.024  1.00  0.00     0.189 HD
ENDROOT
BRANCH   3   5
HETATM    5  N   UNL     1       8.545  -0.439  20.378  1.00  0.00    -0.242 N 
HETATM    6  N   UNL     1       7.639   0.380  20.336  1.00  0.00    -0.285 N 
HETATM    7  H   UNL     1       7.834   1.126  21.238  1.00  0.00     0.188 HD
ATOM      8  HN  UNL     1       8.510  -1.215  19.717  1.00  0.00     0.208 HD
BRANCH   6   9
HETATM    9  C   UNL     1       6.553   0.789  19.682  1.00  0.00     0.073 C 
HETATM   10  C   UNL     1       5.698   1.821  20.129  1.00  0.00     0.088 C 
HETATM   11 BR   UNL     1       5.711   2.429  21.844  1.00  0.00    -0.061 Br
BRANCH   9  12
HETATM   12  C   UNL     1       6.124   0.377  18.491  1.00  0.00     0.145 C 
HETATM   13  N   UNL     1       5.642  -0.398  17.733  1.00  0.00    -0.278 N 
ATOM     14  HN  UNL     1       5.372  -0.100  16.795  1.00  0.00     0.193 HD
BRANCH  13  15
HETATM   15  O   UNL     1       5.480  -1.508  18.072  1.00  0.00    -0.290 OA
ATOM     16  HO  UNL     1       4.680  -1.957  17.826  1.00  0.00     0.244 HD
ENDBRANCH  13  15
ENDBRANCH   9  12
ENDBRANCH   6   9
ENDBRANCH   3   5
BRANCH   2  17
HETATM   17  C   UNL     1       9.004  -2.210  22.374  1.00  0.00     0.001 C 
BRANCH  17  18
HETATM   18  N   UNL     1       8.284  -2.991  22.332  1.00  0.00    -0.252 N 
ATOM     19  HN  UNL     1       7.598  -2.688  21.640  1.00  0.00     0.198 HD
BRANCH  18  20
HETATM   20  N   UNL     1       7.839  -4.223  22.773  1.00  0.00    -0.201 N 
HETATM   21  H   UNL     1       8.344  -4.319  23.580  1.00  0.00     0.203 HD
BRANCH  20  22
HETATM   22  S   UNL     1       6.491  -4.938  22.304  1.00  0.00     0.224 S 
HETATM   23  O   UNL     1       6.939  -6.170  21.616  1.00  0.00    -0.577 OA
HETATM   24  O   UNL     1       5.733  -5.234  23.485  1.00  0.00    -0.577 OA
HETATM   25  O   UNL     1       5.809  -4.080  21.417  1.00  0.00    -0.577 OA
ENDBRANCH  20  22
ENDBRANCH  18  20
ENDBRANCH  17  18
ENDBRANCH   2  17
TORSDOF 8
ENDMDL
MODEL 4
REMARK VINA RESULT:    -5.200     27.380     29.272
REMARK INTER + INTRA:          -9.020
REMARK INTER:                  -8.608
REMARK INTRA:                  -0.412
REMARK UNBOUND:                -1.541
REMARK  8 active torsions:
REMARK  status: ('A' for Active; 'I' for Inactive)
REMARK    1  A    between atoms: S_2  and  N_5 
REMARK    2  A    between atoms: N_5  and  N_7 
REMARK    3  A    between atoms: N_7  and  C_9 
REMARK    4  A    between atoms: C_9  and  C_11 
REMARK    5  A    between atoms: N_12  and  N_14 
REMARK    6  A    between atoms: N_17  and  C_18 
REMARK    7  A    between atoms: C_18  and  C_19 
REMARK    8  A    between atoms: N_20  and  O_22 
ROOT
HETATM    1  C   UNL     1       6.852  -5.640  23.046  1.00  0.00     0.081 C 
HETATM    2  C   UNL     1       7.738  -4.693  23.650  1.00  0.00     0.087 C 
HETATM    3  N   UNL     1       8.317  -3.681  23.029  1.00  0.00    -0.282 N 
ATOM      4  HN  UNL     1       7.991  -3.529  22.075  1.00  0.00     0.189 HD
ENDROOT
BRANCH   3   5
HETATM    5  N   UNL     1       9.168  -2.903  23.399  1.00  0.00    -0.242 N 
HETATM    6  N   UNL     1       9.915  -2.278  22.660  1.00  0.00    -0.285 N 
HETATM    7  H   UNL     1       9.684  -2.667  21.562  1.00  0.00     0.188 HD
ATOM      8  HN  UNL     1       9.270  -2.758  24.404  1.00  0.00     0.208 HD
BRANCH   6   9
HETATM    9  C   UNL     1      10.847  -1.331  22.582  1.00  0.00     0.073 C 
HETATM   10  C   UNL     1      10.597  -0.003  22.166  1.00  0.00     0.088 C 
HETATM   11 BR   UNL     1       9.084   0.476  21.276  1.00  0.00    -0.061 Br
BRANCH   9  12
HETATM   12  C   UNL     1      12.125  -1.422  22.940  1.00  0.00     0.145 C 
HETATM   13  N   UNL     1      13.069  -1.189  23.620  1.00  0.00    -0.278 N 
ATOM     14  HN  UNL     1      13.932  -1.721  23.503  1.00  0.00     0.193 HD
BRANCH  13  15
HETATM   15  O   UNL     1      13.000  -0.342  24.426  1.00  0.00    -0.290 OA
ATOM     16  HO  UNL     1      13.223  -0.540  25.328  1.00  0.00     0.244 HD
ENDBRANCH  13  15
ENDBRANCH   9  12
ENDBRANCH   6   9
ENDBRANCH   3   5
BRANCH   2  17
HETATM   17  C   UNL     1       8.230  -4.993  24.842  1.00  0.00     0.001 C 
BRANCH  17  18
HETATM   18  N   UNL     1       8.385  -5.188  25.876  1.00  0.00    -0.252 N 
ATOM     19  HN  UNL     1       9.053  -4.483  26.186  1.00  0.00     0.198 HD
BRANCH  18  20
HETATM   20  N   UNL     1       8.108  -5.946  26.997  1.00  0.00    -0.201 N 
HETATM   21  H   UNL     1       8.992  -6.188  27.275  1.00  0.00     0.203 HD
BRANCH  20  22
HETATM   22  S   UNL     1       6.738  -5.915  27.816  1.00  0.00     0.224 S 
HETATM   23  O   UNL     1       5.788  -6.692  26.989  1.00  0.00    -0.577 OA
HETATM   24  O   UNL     1       6.984  -6.549  29.080  1.00  0.00    -0.577 OA
HETATM   25  O   UNL     1       6.320  -4.575  27.948  1.00  0.00    -0.577 OA
ENDBRANCH  20  22
ENDBRANCH  18  20
ENDBRANCH  17  18
ENDBRANCH   2  17
TORSDOF 8
ENDMDL
MODEL 5
REMARK VINA RESULT:    -5.122     24.404     26.307
REMARK INTER + INTRA:          -8.908
REMARK INTER:                  -8.332
REMARK INTRA:                  -0.577
REMARK UNBOUND:                -1.541
REMARK  8 active torsions:
REMARK  status: ('A' for Active; 'I' for Inactive)
REMARK    1  A    between atoms: S_2  and  N_5 
REMARK    2  A    between atoms: N_5  and  N_7 
REMARK    3  A    between atoms: N_7  and  C_9 
REMARK    4  A    between atoms: C_9  and  C_11 
REMARK    5  A    between atoms: N_12  and  N_14 
REMARK    6  A    between atoms: N_17  and  C_18 
REMARK    7  A    between atoms: C_18  and  C_19 
REMARK    8  A    between atoms: N_20  and  O_22 
ROOT
HETATM    1  C   UNL     1      10.610  -0.075  22.071  1.00  0.00     0.081 C 
HETATM    2  C   UNL     1       9.459  -0.911  21.926  1.00  0.00     0.087 C 
HETATM    3  N   UNL     1       9.343  -2.143  22.389  1.00  0.00    -0.282 N 
ATOM      4  HN  UNL     1      10.111  -2.443  22.989  1.00  0.00     0.189 HD
ENDROOT
BRANCH   3   5
HETATM    5  N   UNL     1       8.482  -2.977  22.222  1.00  0.00    -0.242 N 
HETATM    6  N   UNL     1       8.216  -3.877  23.007  1.00  0.00    -0.285 N 
HETATM    7  H   UNL     1       9.022  -3.798  23.874  1.00  0.00     0.188 HD
ATOM      8  HN  UNL     1       7.936  -2.926  21.362  1.00  0.00     0.208 HD
BRANCH   6   9
HETATM    9  C   UNL     1       7.384  -4.875  23.296  1.00  0.00     0.073 C 
HETATM   10  C   UNL     1       6.867  -5.129  24.587  1.00  0.00     0.088 C 
HETATM   11 BR   UNL     1       7.594  -4.409  26.092  1.00  0.00    -0.061 Br
BRANCH   9  12
HETATM   12  C   UNL     1       6.838  -5.745  22.450  1.00  0.00     0.145 C 
HETATM   13  N   UNL     1       6.279  -6.067  21.454  1.00  0.00    -0.278 N 
ATOM     14  HN  UNL     1       6.216  -7.052  21.195  1.00  0.00     0.193 HD
BRANCH  13  15
HETATM   15  O   UNL     1       5.802  -5.243  20.771  1.00  0.00    -0.290 OA
ATOM     16  HO  UNL     1       6.299  -4.902  20.037  1.00  0.00     0.244 HD
ENDBRANCH  13  15
ENDBRANCH   9  12
ENDBRANCH   6   9
ENDBRANCH   3   5
BRANCH   2  17
HETATM   17  C   UNL     1       8.544  -0.541  21.044  1.00  0.00     0.001 C 
BRANCH  17  18
HETATM   18  N   UNL     1       7.961  -0.038  20.311  1.00  0.00    -0.252 N 
ATOM     19  HN  UNL     1       7.494   0.720  20.811  1.00  0.00     0.198 HD
BRANCH  18  20
HETATM   20  N   UNL     1       7.537   0.074  19.000  1.00  0.00    -0.201 N 
HETATM   21  H   UNL     1       8.349  -0.115  18.531  1.00  0.00     0.203 HD
BRANCH  20  22
HETATM   22  S   UNL     1       6.019   0.002  18.513  1.00  0.00     0.224 S 
HETATM   23  O   UNL     1       5.901  -1.314  17.845  1.00  0.00    -0.577 OA
HETATM   24  O   UNL     1       5.192   0.079  19.683  1.00  0.00    -0.577 OA
HETATM   25  O   UNL     1       5.784   1.055  17.606  1.00  0.00    -0.577 OA
ENDBRANCH  20  22
ENDBRANCH  18  20
ENDBRANCH  17  18
ENDBRANCH   2  17
TORSDOF 8
ENDMDL
MODEL 6
REMARK VINA RESULT:    -5.115     20.061     21.628
REMARK INTER + INTRA:          -8.899
REMARK INTER:                  -8.414
REMARK INTRA:                  -0.485
REMARK UNBOUND:                -1.541
REMARK  8 active torsions:
REMARK  status: ('A' for Active; 'I' for Inactive)
REMARK    1  A    between atoms: S_2  and  N_5 
REMARK    2  A    between atoms: N_5  and  N_7 
REMARK    3  A    between atoms: N_7  and  C_9 
REMARK    4  A    between atoms: C_9  and  C_11 
REMARK    5  A    between atoms: N_12  and  N_14 
REMARK    6  A    between atoms: N_17  and  C_18 
REMARK    7  A    between atoms: C_18  and  C_19 
REMARK    8  A    between atoms: N_20  and  O_22 
ROOT
HETATM    1  C   UNL     1       0.505   3.308  20.421  1.00  0.00     0.081 C 
HETATM    2  C   UNL     1       1.616   2.961  19.589  1.00  0.00     0.087 C 
HETATM    3  N   UNL     1       2.672   2.266  19.972  1.00  0.00    -0.282 N 
ATOM      4  HN  UNL     1       2.599   1.865  20.906  1.00  0.00     0.189 HD
ENDROOT
BRANCH   3   5
HETATM    5  N   UNL     1       3.713   2.023  19.402  1.00  0.00    -0.242 N 
HETATM    6  N   UNL     1       4.534   1.194  19.768  1.00  0.00    -0.285 N 
HETATM    7  H   UNL     1       4.135   0.779  20.806  1.00  0.00     0.188 HD
ATOM      8  HN  UNL     1       3.920   2.549  18.554  1.00  0.00     0.208 HD
BRANCH   6   9
HETATM    9  C   UNL     1       5.662   0.555  19.466  1.00  0.00     0.073 C 
HETATM   10  C   UNL     1       6.813   0.544  20.286  1.00  0.00     0.088 C 
HETATM   11 BR   UNL     1       7.065   1.738  21.636  1.00  0.00    -0.061 Br
BRANCH   9  12
HETATM   12  C   UNL     1       5.891  -0.230  18.416  1.00  0.00     0.145 C 
HETATM   13  N   UNL     1       5.812  -1.235  17.789  1.00  0.00    -0.278 N 
ATOM     14  HN  UNL     1       6.109  -1.257  16.813  1.00  0.00     0.193 HD
BRANCH  13  15
HETATM   15  O   UNL     1       5.391  -2.200  18.302  1.00  0.00    -0.290 OA
ATOM     16  HO  UNL     1       4.512  -2.493  18.090  1.00  0.00     0.244 HD
ENDBRANCH  13  15
ENDBRANCH   9  12
ENDBRANCH   6   9
ENDBRANCH   3   5
BRANCH   2  17
HETATM   17  C   UNL     1       1.735   3.598  18.434  1.00  0.00     0.001 C 
BRANCH  17  18
HETATM   18  N   UNL     1       1.647   3.944  17.433  1.00  0.00    -0.252 N 
ATOM     19  HN  UNL     1       0.946   3.342  17.000  1.00  0.00     0.198 HD
BRANCH  18  20
HETATM   20  N   UNL     1       2.033   4.826  16.441  1.00  0.00    -0.201 N 
HETATM   21  H   UNL     1       2.834   5.187  16.823  1.00  0.00     0.203 HD
BRANCH  20  22
HETATM   22  S   UNL     1       1.537   4.783  14.925  1.00  0.00     0.224 S 
HETATM   23  O   UNL     1       2.779   4.675  14.126  1.00  0.00    -0.577 OA
HETATM   24  O   UNL     1       0.709   3.620  14.781  1.00  0.00    -0.577 OA
HETATM   25  O   UNL     1       0.852   5.982  14.639  1.00  0.00    -0.577 OA
ENDBRANCH  20  22
ENDBRANCH  18  20
ENDBRANCH  17  18
ENDBRANCH   2  17
TORSDOF 8
ENDMDL
MODEL 7
REMARK VINA RESULT:    -4.975     25.115     26.978
REMARK INTER + INTRA:          -8.696
REMARK INTER:                  -8.487
REMARK INTRA:                  -0.210
REMARK UNBOUND:                -1.541
REMARK  8 active torsions:
REMARK  status: ('A' for Active; 'I' for Inactive)
REMARK    1  A    between atoms: S_2  and  N_5 
REMARK    2  A    between atoms: N_5  and  N_7 
REMARK    3  A    between atoms: N_7  and  C_9 
REMARK    4  A    between atoms: C_9  and  C_11 
REMARK    5  A    between atoms: N_12  and  N_14 
REMARK    6  A    between atoms: N_17  and  C_18 
REMARK    7  A    between atoms: C_18  and  C_19 
REMARK    8  A    between atoms: N_20  and  O_22 
ROOT
HETATM    1  C   UNL     1       9.898  -0.280  21.961  1.00  0.00     0.081 C 
HETATM    2  C   UNL     1       8.852  -1.238  22.145  1.00  0.00     0.087 C 
HETATM    3  N   UNL     1       9.025  -2.530  22.361  1.00  0.00    -0.282 N 
ATOM      4  HN  UNL     1       9.994  -2.806  22.516  1.00  0.00     0.189 HD
ENDROOT
BRANCH   3   5
HETATM    5  N   UNL     1       8.230  -3.442  22.405  1.00  0.00    -0.242 N 
HETATM    6  N   UNL     1       7.970  -4.096  23.405  1.00  0.00    -0.285 N 
HETATM    7  H   UNL     1       8.711  -3.709  24.247  1.00  0.00     0.188 HD
ATOM      8  HN  UNL     1       7.739  -3.682  21.544  1.00  0.00     0.208 HD
BRANCH   6   9
HETATM    9  C   UNL     1       7.185  -5.032  23.935  1.00  0.00     0.073 C 
HETATM   10  C   UNL     1       6.404  -5.934  23.178  1.00  0.00     0.088 C 
HETATM   11 BR   UNL     1       6.027  -5.667  21.418  1.00  0.00    -0.061 Br
BRANCH   9  12
HETATM   12  C   UNL     1       7.048  -5.339  25.222  1.00  0.00     0.145 C 
HETATM   13  N   UNL     1       7.440  -5.612  26.309  1.00  0.00    -0.278 N 
ATOM     14  HN  UNL     1       6.799  -5.615  27.102  1.00  0.00     0.193 HD
BRANCH  13  15
HETATM   15  O   UNL     1       8.571  -5.878  26.460  1.00  0.00    -0.290 OA
ATOM     16  HO  UNL     1       9.006  -5.619  27.264  1.00  0.00     0.244 HD
ENDBRANCH  13  15
ENDBRANCH   9  12
ENDBRANCH   6   9
ENDBRANCH   3   5
BRANCH   2  17
HETATM   17  C   UNL     1       7.624  -0.870  21.815  1.00  0.00     0.001 C 
BRANCH  17  18
HETATM   18  N   UNL     1       6.729  -0.594  21.311  1.00  0.00    -0.252 N 
ATOM     19  HN  UNL     1       6.227   0.008  21.964  1.00  0.00     0.198 HD
BRANCH  18  20
HETATM   20  N   UNL     1       5.925  -0.667  20.190  1.00  0.00    -0.201 N 
HETATM   21  H   UNL     1       5.140  -1.075  20.557  1.00  0.00     0.203 HD
BRANCH  20  22
HETATM   22  S   UNL     1       6.119   0.192  18.859  1.00  0.00     0.224 S 
HETATM   23  O   UNL     1       5.308   1.411  19.076  1.00  0.00    -0.577 OA
HETATM   24  O   UNL     1       7.517   0.496  18.749  1.00  0.00    -0.577 OA
HETATM   25  O   UNL     1       5.634  -0.553  17.765  1.00  0.00    -0.577 OA
ENDBRANCH  20  22
ENDBRANCH  18  20
ENDBRANCH  17  18
ENDBRANCH   2  17
TORSDOF 8
ENDMDL
MODEL 8
REMARK VINA RESULT:    -4.884     22.750     24.055
REMARK INTER + INTRA:          -8.565
REMARK INTER:                  -7.153
REMARK INTRA:                  -1.413
REMARK UNBOUND:                -1.541
REMARK  8 active torsions:
REMARK  status: ('A' for Active; 'I' for Inactive)
REMARK    1  A    between atoms: S_2  and  N_5 
REMARK    2  A    between atoms: N_5  and  N_7 
REMARK    3  A    between atoms: N_7  and  C_9 
REMARK    4  A    between atoms: C_9  and  C_11 
REMARK    5  A    between atoms: N_12  and  N_14 
REMARK    6  A    between atoms: N_17  and  C_18 
REMARK    7  A    between atoms: C_18  and  C_19 
REMARK    8  A    between atoms: N_20  and  O_22 
ROOT
HETATM    1  C   UNL     1       4.664   3.956  22.579  1.00  0.00     0.081 C 
HETATM    2  C   UNL     1       4.991   2.690  22.001  1.00  0.00     0.087 C 
HETATM    3  N   UNL     1       5.687   1.735  22.591  1.00  0.00    -0.282 N 
ATOM      4  HN  UNL     1       5.890   1.907  23.575  1.00  0.00     0.189 HD
ENDROOT
BRANCH   3   5
HETATM    5  N   UNL     1       6.126   0.690  22.164  1.00  0.00    -0.242 N 
HETATM    6  N   UNL     1       7.262   0.280  22.350  1.00  0.00    -0.285 N 
HETATM    7  H   UNL     1       7.828   1.144  22.934  1.00  0.00     0.188 HD
ATOM      8  HN  UNL     1       5.500   0.109  21.606  1.00  0.00     0.208 HD
BRANCH   6   9
HETATM    9  C   UNL     1       8.103  -0.741  22.193  1.00  0.00     0.073 C 
HETATM   10  C   UNL     1       7.760  -2.094  22.415  1.00  0.00     0.088 C 
HETATM   11 BR   UNL     1       6.279  -2.588  23.350  1.00  0.00    -0.061 Br
BRANCH   9  12
HETATM   12  C   UNL     1       9.354  -0.696  21.741  1.00  0.00     0.145 C 
HETATM   13  N   UNL     1      10.366  -0.158  21.435  1.00  0.00    -0.278 N 
ATOM     14  HN  UNL     1      11.203  -0.708  21.242  1.00  0.00     0.193 HD
BRANCH  13  15
HETATM   15  O   UNL     1      10.395   1.011  21.358  1.00  0.00    -0.290 OA
ATOM     16  HO  UNL     1       9.733   1.459  20.845  1.00  0.00     0.244 HD
ENDBRANCH  13  15
ENDBRANCH   9  12
ENDBRANCH   6   9
ENDBRANCH   3   5
BRANCH   2  17
HETATM   17  C   UNL     1       4.822   2.554  20.694  1.00  0.00     0.001 C 
BRANCH  17  18
HETATM   18  N   UNL     1       4.631   2.202  19.709  1.00  0.00    -0.252 N 
ATOM     19  HN  UNL     1       4.054   2.923  19.274  1.00  0.00     0.198 HD
BRANCH  18  20
HETATM   20  N   UNL     1       4.795   1.231  18.741  1.00  0.00    -0.201 N 
HETATM   21  H   UNL     1       4.342   1.636  18.001  1.00  0.00     0.203 HD
BRANCH  20  22
HETATM   22  S   UNL     1       5.890   0.070  18.774  1.00  0.00     0.224 S 
HETATM   23  O   UNL     1       5.449  -0.832  19.861  1.00  0.00    -0.577 OA
HETATM   24  O   UNL     1       5.858  -0.582  17.496  1.00  0.00    -0.577 OA
HETATM   25  O   UNL     1       7.146   0.641  19.066  1.00  0.00    -0.577 OA
ENDBRANCH  20  22
ENDBRANCH  18  20
ENDBRANCH  17  18
ENDBRANCH   2  17
TORSDOF 8
ENDMDL
MODEL 9
REMARK VINA RESULT:    -4.731     23.595     25.245
REMARK INTER + INTRA:          -8.346
REMARK INTER:                  -6.785
REMARK INTRA:                  -1.561
REMARK UNBOUND:                -1.541
REMARK  8 active torsions:
REMARK  status: ('A' for Active; 'I' for Inactive)
REMARK    1  A    between atoms: S_2  and  N_5 
REMARK    2  A    between atoms: N_5  and  N_7 
REMARK    3  A    between atoms: N_7  and  C_9 
REMARK    4  A    between atoms: C_9  and  C_11 
REMARK    5  A    between atoms: N_12  and  N_14 
REMARK    6  A    between atoms: N_17  and  C_18 
REMARK    7  A    between atoms: C_18  and  C_19 
REMARK    8  A    between atoms: N_20  and  O_22 
ROOT
HETATM    1  C   UNL     1       4.770   3.162  22.097  1.00  0.00     0.081 C 
HETATM    2  C   UNL     1       5.926   2.319  22.121  1.00  0.00     0.087 C 
HETATM    3  N   UNL     1       5.945   1.056  22.509  1.00  0.00    -0.282 N 
ATOM      4  HN  UNL     1       5.024   0.654  22.686  1.00  0.00     0.189 HD
ENDROOT
BRANCH   3   5
HETATM    5  N   UNL     1       6.868   0.293  22.688  1.00  0.00    -0.242 N 
HETATM    6  N   UNL     1       6.791  -0.926  22.628  1.00  0.00    -0.285 N 
HETATM    7  H   UNL     1       5.643  -1.170  22.457  1.00  0.00     0.188 HD
ATOM      8  HN  UNL     1       7.778   0.698  22.907  1.00  0.00     0.208 HD
BRANCH   6   9
HETATM    9  C   UNL     1       7.466  -2.073  22.646  1.00  0.00     0.073 C 
HETATM   10  C   UNL     1       6.865  -3.349  22.561  1.00  0.00     0.088 C 
HETATM   11 BR   UNL     1       5.089  -3.616  22.850  1.00  0.00    -0.061 Br
BRANCH   9  12
HETATM   12  C   UNL     1       8.787  -2.235  22.668  1.00  0.00     0.145 C 
HETATM   13  N   UNL     1       9.906  -1.967  22.378  1.00  0.00    -0.278 N 
ATOM     14  HN  UNL     1      10.684  -2.411  22.866  1.00  0.00     0.193 HD
BRANCH  13  15
HETATM   15  O   UNL     1      10.108  -1.187  21.527  1.00  0.00    -0.290 OA
ATOM     16  HO  UNL     1       9.494  -0.475  21.393  1.00  0.00     0.244 HD
ENDBRANCH  13  15
ENDBRANCH   9  12
ENDBRANCH   6   9
ENDBRANCH   3   5
BRANCH   2  17
HETATM   17  C   UNL     1       7.109   2.902  22.007  1.00  0.00     0.001 C 
BRANCH  17  18
HETATM   18  N   UNL     1       8.081   3.303  22.161  1.00  0.00    -0.252 N 
ATOM     19  HN  UNL     1       8.185   4.036  21.459  1.00  0.00     0.198 HD
BRANCH  18  20
HETATM   20  N   UNL     1       9.271   3.299  22.863  1.00  0.00    -0.201 N 
HETATM   21  H   UNL     1       9.099   3.982  23.512  1.00  0.00     0.203 HD
BRANCH  20  22
HETATM   22  S   UNL     1      10.336   2.110  22.868  1.00  0.00     0.224 S 
HETATM   23  O   UNL     1       9.640   0.986  23.535  1.00  0.00    -0.577 OA
HETATM   24  O   UNL     1      10.643   1.808  21.500  1.00  0.00    -0.577 OA
HETATM   25  O   UNL     1      11.466   2.517  23.606  1.00  0.00    -0.577 OA
ENDBRANCH  20  22
ENDBRANCH  18  20
ENDBRANCH  17  18
ENDBRANCH   2  17
TORSDOF 8
ENDMDL
