stable:False satoms:15 tatoms:24 sratio:0.625
  -OEChem-07092417433D

 24 24  0     1  0  0  0  0  0999 V2000
    6.4504   -4.9922   26.3974 Cl  0  0  0  0  0  0  0  0  0  0  0  0
    8.2832   -4.3441   26.1000 S   0  0  0  0  0  0  0  0  0  0  0  0
    9.0681   -5.5300   26.0229 O   0  0  0  0  0  0  0  0  0  0  0  0
    8.5979   -3.4483   27.1529 O   0  0  0  0  0  0  0  0  0  0  0  0
    8.2511   -3.6055   24.6566 N   0  0  0  0  0  0  0  0  0  0  0  0
    8.9678   -2.8350   24.2175 C   0  0  0  0  0  0  0  0  0  0  0  0
    9.4922   -1.8504   23.6276 C   0  0  0  0  0  0  0  0  0  0  0  0
   10.4782   -0.9588   23.4805 C   0  0  1  0  0  0  0  0  0  0  0  0
   10.6596   -0.3204   24.4104 H   0  0  0  0  0  0  0  0  0  0  0  0
   12.8466    0.1501   24.0298 H   0  0  0  0  0  0  0  0  0  0  0  0
   12.8934   -0.6309   23.2998 C   0  0  0  0  0  0  0  0  0  0  0  0
   13.6130   -1.0120   22.7140 H   0  0  0  0  0  0  0  0  0  0  0  0
   11.7853   -1.1772   23.0971 C   0  0  0  0  0  0  0  0  0  0  0  0
    9.5750   -0.7543   22.5759 C   0  0  3  0  0  0  0  0  0  0  0  0
    8.9435   -0.0295   21.4357 C   0  0  0  0  0  0  0  0  0  0  0  0
    9.5141    0.9045   20.9251 O   0  0  0  0  0  0  0  0  0  0  0  0
    7.7506   -0.5406   21.1077 N   0  0  0  0  0  0  0  0  0  0  0  0
    6.9725    0.0300   20.2086 C   0  0  3  0  0  0  0  0  0  0  0  0
    7.0410    0.0339   18.7679 C   0  0  0  0  0  0  0  0  0  0  0  0
    7.0106   -0.0124   17.6584 N   0  0  0  0  0  0  0  0  0  0  0  0
    5.0573    1.2106   18.2549 H   0  0  0  0  0  0  0  0  0  0  0  0
    5.3115    0.9764   19.2578 C   0  5  0  0  0  0  0  0  0  0  0  0
    5.7384    0.6504   20.4534 C   0  0  0  0  0  0  0  0  0  0  0  0
    5.2828    0.7958   21.4448 H   0  0  0  0  0  0  0  0  0  0  0  0
 19 20  3  0  0  0  0
 21 22  1  0  0  0  0
 18 19  1  0  0  0  0
 22 23  2  0  0  0  0
 18 23  1  0  0  0  0
 17 18  1  0  0  0  0
 23 24  1  0  0  0  0
 15 16  2  0  0  0  0
 15 17  1  0  0  0  0
 14 15  1  0  0  0  0
  8 14  1  0  0  0  0
  7 14  1  0  0  0  0
 11 12  1  0  0  0  0
 11 13  2  0  0  0  0
  8 13  1  0  0  0  0
 10 11  1  0  0  0  0
  7  8  1  0  0  0  0
  8  9  1  0  0  0  0
  6  7  2  0  0  0  0
  5  6  1  0  0  0  0
  2  5  1  0  0  0  0
  2  3  2  0  0  0  0
  1  2  1  0  0  0  0
  2  4  2  0  0  0  0
M  CHG  1  22  -1
M  END
> <Shapegauss>
-227.017731

$$$$
