stable:False satoms:15 tatoms:24 sratio:0.625
  -OEChem-08062409103D

 31 31  0     1  0  0  0  0  0999 V2000
   -6.4874   -5.3829  -25.9413 Cl  0  0  0  0  0  0  0  0  0  0  0  0
   -8.3043   -4.6406  -25.8164 S   0  0  0  0  0  0  0  0  0  0  0  0
   -9.1452   -5.7845  -25.7039 O   0  0  0  0  0  0  0  0  0  0  0  0
   -8.5104   -3.8170  -26.9519 O   0  0  0  0  0  0  0  0  0  0  0  0
   -8.3309   -3.7945  -24.4332 N   0  0  0  0  0  0  0  0  0  0  0  0
   -9.0386   -2.9642  -24.1017 C   0  0  0  0  0  0  0  0  0  0  0  0
   -9.5545   -1.9167  -23.6233 C   0  0  0  0  0  0  0  0  0  0  0  0
  -10.5066   -0.9775  -23.6094 C   0  0  1  0  0  0  0  0  0  0  0  0
  -10.5994   -0.4061  -24.5944 H   0  0  0  0  0  0  0  0  0  0  0  0
  -12.7827    0.1799  -24.3973 H   0  0  0  0  0  0  0  0  0  0  0  0
  -12.9112   -0.5398  -23.6159 C   0  0  0  0  0  0  0  0  0  0  0  0
  -13.6831   -0.8452  -23.0528 H   0  0  0  0  0  0  0  0  0  0  0  0
  -11.8441   -1.1129  -23.2993 C   0  0  0  0  0  0  0  0  0  0  0  0
   -9.6546   -0.7401  -22.6641 C   0  0  3  0  0  0  0  0  0  0  0  0
   -9.0650    0.0448  -21.5414 C   0  0  0  0  0  0  0  0  0  0  0  0
   -9.6242    1.0376  -21.1412 O   0  0  0  0  0  0  0  0  0  0  0  0
   -7.9197   -0.4870  -21.0970 N   0  0  0  0  0  0  0  0  0  0  0  0
   -7.1755    0.1197  -20.1929 C   0  0  3  0  0  0  0  0  0  0  0  0
   -7.3355    0.2378  -18.7643 C   0  0  0  0  0  0  0  0  0  0  0  0
   -7.3780    0.2762  -17.6549 N   0  0  0  0  0  0  0  0  0  0  0  0
   -4.5744    1.5369  -19.0637 H   0  0  0  0  0  0  0  0  0  0  0  0
   -5.5375    1.0693  -19.2061 C   0  0  0  0  0  0  0  0  0  0  0  0
   -5.9016    0.6692  -20.4000 C   0  0  0  0  0  0  0  0  0  0  0  0
   -5.3776    0.7191  -21.3667 H   0  0  0  0  0  0  0  0  0  0  0  0
   -7.4231   -3.3783  -24.3823 H   0  0  0  0  0  0  0  0  0  0  0  0
   -9.9495   -3.4025  -24.4820 H   0  0  0  0  0  0  0  0  0  0  0  0
  -12.0144   -1.9217  -22.6041 H   0  0  0  0  0  0  0  0  0  0  0  0
  -10.2409   -1.3448  -21.9566 H   0  0  0  0  0  0  0  0  0  0  0  0
   -7.6200   -1.3689  -21.4608 H   0  0  0  0  0  0  0  0  0  0  0  0
   -7.6686    1.0870  -20.3699 H   0  0  0  0  0  0  0  0  0  0  0  0
   -6.2005    0.9314  -18.3648 H   0  0  0  0  0  0  0  0  0  0  0  0
 19 20  3  0  0  0  0
 21 22  1  0  0  0  0
 18 19  1  0  0  0  0
 22 23  2  0  0  0  0
 18 23  1  0  0  0  0
 17 18  1  0  0  0  0
 23 24  1  0  0  0  0
 15 16  2  0  0  0  0
 15 17  1  0  0  0  0
 14 15  1  0  0  0  0
  8 14  1  0  0  0  0
  7 14  1  0  0  0  0
 11 12  1  0  0  0  0
 11 13  2  0  0  0  0
  8 13  1  0  0  0  0
 10 11  1  0  0  0  0
  7  8  1  0  0  0  0
  8  9  1  0  0  0  0
  6  7  2  0  0  0  0
  5  6  1  0  0  0  0
  2  5  1  0  0  0  0
  2  3  2  0  0  0  0
  1  2  1  0  0  0  0
  2  4  2  0  0  0  0
  5 25  1  0  0  0  0
  6 26  1  0  0  0  0
 13 27  1  0  0  0  0
 14 28  1  0  0  0  0
 17 29  1  0  0  0  0
 18 30  1  0  0  0  0
 22 31  1  0  0  0  0
M  END
> <Chemgauss4>
-8.763342

$$$$
