REMARK  1 active torsions:
REMARK  status: ('A' for Active; 'I' for Inactive)
REMARK    1  A    between atoms: B_1  and  C_10 
ROOT
HETATM    1  C   UNL     1      -0.000   3.365   0.022  1.00  0.00    -0.001 A 
HETATM    2  C   UNL     1      -1.213   4.058   0.008  1.00  0.00     0.092 A 
HETATM    3  N   UNL     1      -1.228   5.407   0.190  1.00  0.00    -0.344 N 
ATOM      4  HN  UNL     1      -2.124   5.893   0.224  1.00  0.00     0.167 HD
HETATM    5  C   UNL     1      -0.068   6.132   0.329  1.00  0.00     0.188 A 
HETATM    6  N   UNL     1       1.121   5.454   0.310  1.00  0.00    -0.344 N 
ATOM      7  HN  UNL     1       1.991   5.980   0.389  1.00  0.00     0.167 HD
HETATM    8  C   UNL     1       1.179   4.098   0.189  1.00  0.00     0.092 A 
HETATM    9  C   UNL     1      -0.098   7.614   0.508  1.00  0.00     0.137 C 
HETATM   10  N   UNL     1      -0.139   8.788   0.649  1.00  0.00    -0.188 NA
ENDROOT
BRANCH   1  11
HETATM   11  B   UNL     1       0.024   1.807  -0.121  1.00  0.00     0.538 B 
HETATM   12  O   UNL     1      -1.206   1.043  -0.294  1.00  0.00    -0.411 OA
HETATM   13  C   UNL     1      -0.803  -0.261   0.025  1.00  0.00     0.066 C 
HETATM   14  C   UNL     1       0.792  -0.275  -0.016  1.00  0.00     0.066 C 
HETATM   15  C   UNL     1      -1.401  -0.574   1.419  1.00  0.00     0.047 C 
HETATM   16  C   UNL     1      -1.443  -1.237  -0.987  1.00  0.00     0.047 C 
HETATM   17  O   UNL     1       1.210   1.038   0.238  1.00  0.00    -0.411 OA
HETATM   18  C   UNL     1       1.387  -0.668  -1.393  1.00  0.00     0.047 C 
HETATM   19  C   UNL     1       1.414  -1.218   1.039  1.00  0.00     0.047 C 
ENDBRANCH   1  11
TORSDOF 1
