stable:False satoms:10 tatoms:24 sratio:0.4166666666666667
  -OEChem-08062411243D

 35 37  0     1  0  0  0  0  0999 V2000
   -5.9887   -5.0702  -25.8765 Cl  0  0  0  0  0  0  0  0  0  0  0  0
   -7.8045   -4.5844  -25.7446 S   0  0  0  0  0  0  0  0  0  0  0  0
   -8.5857   -5.7957  -25.6115 O   0  0  0  0  0  0  0  0  0  0  0  0
   -8.0942   -3.8027  -26.9005 O   0  0  0  0  0  0  0  0  0  0  0  0
   -7.8404   -3.7078  -24.3827 N   0  0  0  0  0  0  0  0  0  0  0  0
   -8.6432   -2.9736  -23.9751 C   0  0  0  0  0  0  0  0  0  0  0  0
   -9.2710   -2.0758  -23.4598 C   0  0  0  0  0  0  0  0  0  0  0  0
  -10.3839   -1.2772  -23.2026 C   0  0  1  0  0  0  0  0  0  0  0  0
  -10.9481   -0.4229  -24.2710 C   0  0  0  0  0  0  0  0  0  0  0  0
  -12.0545   -0.2172  -24.3758 C   0  0  0  0  0  0  0  0  0  0  0  0
  -12.9522   -0.6697  -23.7275 C   0  0  0  0  0  0  0  0  0  0  0  0
  -12.8353   -1.5103  -22.9466 N   0  0  0  0  0  0  0  0  0  0  0  0
  -11.6866   -1.7158  -22.7688 C   0  0  0  0  0  0  0  0  0  0  0  0
   -9.5318   -0.8103  -22.4247 C   0  0  1  0  0  0  0  0  0  0  0  0
   -8.9948   -0.0748  -21.3497 C   0  0  0  0  0  0  0  0  0  0  0  0
   -9.6288    0.8960  -20.9770 O   0  0  0  0  0  0  0  0  0  0  0  0
   -7.8415   -0.5296  -20.8084 N   0  0  0  0  0  0  0  0  0  0  0  0
   -7.1922    0.0104  -19.8425 C   0  0  0  0  0  0  0  0  0  0  0  0
   -7.5056    0.0312  -18.5491 N   0  0  0  0  0  0  0  0  0  0  0  0
   -7.0139    0.4834  -17.5546 N   0  0  0  0  0  0  0  0  0  0  0  0
   -5.9757    0.9778  -17.9266 C   0  0  0  0  0  0  0  0  0  0  0  0
   -5.4866    0.9981  -19.0220 C   0  0  0  0  0  0  0  0  0  0  0  0
   -5.8647    0.5458  -20.1554 C   0  0  0  0  0  0  0  0  0  0  0  0
   -5.3830    0.5538  -21.0898 H   0  0  0  0  0  0  0  0  0  0  0  0
   -7.0096   -3.1533  -24.4314 H   0  0  0  0  0  0  0  0  0  0  0  0
   -9.4992   -3.5176  -24.3462 H   0  0  0  0  0  0  0  0  0  0  0  0
  -10.2713    0.0248  -24.9836 H   0  0  0  0  0  0  0  0  0  0  0  0
  -12.3359    0.4728  -25.1575 H   0  0  0  0  0  0  0  0  0  0  0  0
  -13.9403   -0.2629  -23.8843 H   0  0  0  0  0  0  0  0  0  0  0  0
  -11.6106   -1.5577  -21.6828 H   0  0  0  0  0  0  0  0  0  0  0  0
  -11.6294   -2.7923  -22.9875 H   0  0  0  0  0  0  0  0  0  0  0  0
   -9.1776   -0.0782  -23.1653 H   0  0  0  0  0  0  0  0  0  0  0  0
   -7.4583   -1.3668  -21.1984 H   0  0  0  0  0  0  0  0  0  0  0  0
   -5.4027    1.4756  -17.1583 H   0  0  0  0  0  0  0  0  0  0  0  0
   -4.5317    1.5015  -19.0570 H   0  0  0  0  0  0  0  0  0  0  0  0
 20 21  2  0  0  0  0
 19 20  1  0  0  0  0
 21 22  1  0  0  0  0
 18 19  2  0  0  0  0
 22 23  2  0  0  0  0
 18 23  1  0  0  0  0
 17 18  1  0  0  0  0
 23 24  1  0  0  0  0
 15 16  2  0  0  0  0
 15 17  1  0  0  0  0
 14 15  1  0  0  0  0
  8 14  1  0  0  0  0
  7 14  1  0  0  0  0
 12 13  1  0  0  0  0
  8 13  1  0  0  0  0
 11 12  2  0  0  0  0
  7  8  1  0  0  0  0
  8  9  1  0  0  0  0
 10 11  1  0  0  0  0
  6  7  2  0  0  0  0
  9 10  2  0  0  0  0
  5  6  1  0  0  0  0
  2  5  1  0  0  0  0
  2  3  2  0  0  0  0
  1  2  1  0  0  0  0
  2  4  2  0  0  0  0
  5 25  1  0  0  0  0
  6 26  1  0  0  0  0
  9 27  1  0  0  0  0
 10 28  1  0  0  0  0
 11 29  1  0  0  0  0
 13 30  1  0  0  0  0
 13 31  1  0  0  0  0
 14 32  1  0  0  0  0
 17 33  1  0  0  0  0
 21 34  1  0  0  0  0
 22 35  1  0  0  0  0
M  END
> <Chemgauss4>
-12.612576

$$$$
