REMARK  2 active torsions:
REMARK  status: ('A' for Active; 'I' for Inactive)
REMARK    1  A    between atoms: C_5  and  N_12 
REMARK       I    between atoms: C_7  and  N_11 
REMARK    2  A    between atoms: C_7  and  C_15 
ROOT
HETATM    1  N   UNL     1      10.456  -2.006  20.110  1.00  0.00    -0.190 NA
HETATM    2  C   UNL     1       9.752  -1.788  20.961  1.00  0.00     0.123 C 
HETATM    3  N   UNL     1       9.840  -0.957  23.058  1.00  0.00    -0.338 N 
ATOM      4  HN  UNL     1      10.537  -1.536  23.527  1.00  0.00     0.167 HD
HETATM    5  C   UNL     1       9.072  -1.409  22.110  1.00  0.00     0.182 C 
ENDROOT
BRANCH   5   6
HETATM    6  C   UNL     1       7.597  -1.361  22.345  1.00  0.00     0.276 C 
HETATM    7  O   UNL     1       7.082  -1.867  23.312  1.00  0.00    -0.265 OA
HETATM    8  N   UNL     1       6.922  -0.580  21.462  1.00  0.00    -0.364 N 
HETATM    9  H   UNL     1       7.442  -0.136  20.742  1.00  0.00     0.159 HD
HETATM   10  H   UNL     1       5.940  -0.457  21.536  1.00  0.00     0.159 HD
ENDBRANCH   5   6
BRANCH   3  11
HETATM   11  C   UNL     1       9.646   0.295  23.359  1.00  0.00     0.074 C 
HETATM   12  S   UNL     1      10.911   1.474  22.952  1.00  0.00    -0.084 SA
HETATM   13  C   UNL     1      10.281   2.467  24.197  1.00  0.00     0.052 C 
HETATM   14  C   UNL     1       9.088   2.019  24.710  1.00  0.00     0.010 C 
HETATM   15  C   UNL     1       8.616   0.886  24.075  1.00  0.00     0.038 C 
ENDBRANCH   3  11
TORSDOF 2
