REMARK  10 active torsions:
REMARK  status: ('A' for Active; 'I' for Inactive)
REMARK    1  A    between atoms: N_2  and  N_5 
REMARK    2  A    between atoms: N_5  and  N_7 
REMARK    3  A    between atoms: N_7  and  C_9 
REMARK    4  A    between atoms: C_9  and  C_14 
REMARK    5  A    between atoms: C_10  and  S_13 
REMARK    6  A    between atoms: C_10  and  C_14 
REMARK    7  A    between atoms: C_12  and  S_13 
REMARK    8  A    between atoms: C_14  and  N_17 
REMARK    9  A    between atoms: C_15  and  C_19 
REMARK       I    between atoms: C_15  and  N_17 
REMARK   10  A    between atoms: C_19  and  C_23 
ROOT
ATOM      1  H   UNK     1       6.722  -4.586  26.473  1.00  0.00     0.000 HD
ENDROOT
TORSDOF 10
