
 OpenBabel07202414173D

 41 44  0  0  1  0  0  0  0  0999 V2000
   11.6381    3.0077   -2.3316 Cl  0  0  0  0  0  0  0  0  0  0  0  0
   10.2722    2.1715   -1.6843 C   0  0  0  0  0  0  0  0  0  0  0  0
   10.0803    0.8406   -2.0732 C   0  0  0  0  0  0  0  0  0  0  0  0
    9.0494    0.0703   -1.5277 C   0  0  0  0  0  0  0  0  0  0  0  0
    8.1510    0.6848   -0.6407 C   0  0  0  0  0  0  0  0  0  0  0  0
    8.3221    2.0309   -0.2739 C   0  0  0  0  0  0  0  0  0  0  0  0
    9.3903    2.7690   -0.7811 C   0  0  0  0  0  0  0  0  0  0  0  0
    9.5806    4.3920   -0.2264 Cl  0  0  0  0  0  0  0  0  0  0  0  0
    7.0660   -0.1345    0.0289 C   0  0  3  0  0  0  0  0  0  0  0  0
    7.3887   -0.5013    1.4851 C   0  0  0  0  0  0  0  0  0  0  0  0
    6.4619   -0.7550    2.2545 O   0  0  0  0  0  0  0  0  0  0  0  0
    8.7347   -0.5600    1.8212 N   0  0  0  0  0  0  0  0  0  0  0  0
    9.2692   -0.8995    3.0889 C   0  0  0  0  0  0  0  0  0  0  0  0
    8.5151   -1.5366    4.0776 C   0  0  0  0  0  0  0  0  0  0  0  0
    8.9716   -1.8513    5.3120 N   0  0  0  0  0  0  0  0  0  0  0  0
   10.2402   -1.5059    5.5826 C   0  0  0  0  0  0  0  0  0  0  0  0
   11.0804   -0.8923    4.6691 C   0  0  0  0  0  0  0  0  0  0  0  0
   10.6196   -0.5878    3.3760 C   0  0  0  0  0  0  0  0  0  0  0  0
   11.5423    0.1378    2.4021 C   0  0  0  0  0  0  0  0  0  0  0  0
   12.0932   -0.5804    1.1909 C   0  0  0  0  0  0  0  0  0  0  0  0
   13.0152   -0.2118    2.3110 C   0  0  0  0  0  0  0  0  0  0  0  0
    6.7437   -1.4059   -0.7614 C   0  0  0  0  0  0  0  0  0  0  0  0
    8.0262   -2.1212   -1.1506 C   0  0  0  0  0  0  0  0  0  0  0  0
    8.8673   -1.2443   -1.9545 N   0  0  0  0  0  0  0  0  0  0  0  0
   10.7617    0.3920   -2.7933 H   0  0  0  0  0  0  0  0  0  0  0  0
    7.6340    2.4914    0.4339 H   0  0  0  0  0  0  0  0  0  0  0  0
    6.1548    0.4798    0.0595 H   0  0  0  0  0  0  0  0  0  0  0  0
    9.4071   -0.2105    1.1498 H   0  0  0  0  0  0  0  0  0  0  0  0
    7.4890   -1.8452    3.9144 H   0  0  0  0  0  0  0  0  0  0  0  0
   10.5764   -1.7359    6.5906 H   0  0  0  0  0  0  0  0  0  0  0  0
   12.0902   -0.6333    4.9725 H   0  0  0  0  0  0  0  0  0  0  0  0
   11.3214    1.1968    2.2784 H   0  0  0  0  0  0  0  0  0  0  0  0
   12.1918   -0.0249    0.2654 H   0  0  0  0  0  0  0  0  0  0  0  0
   11.8800   -1.6350    1.0552 H   0  0  0  0  0  0  0  0  0  0  0  0
   13.7186    0.5979    2.1438 H   0  0  0  0  0  0  0  0  0  0  0  0
   13.4227   -1.0214    2.9055 H   0  0  0  0  0  0  0  0  0  0  0  0
    6.1887   -1.1385   -1.6708 H   0  0  0  0  0  0  0  0  0  0  0  0
    6.1010   -2.0788   -0.1812 H   0  0  0  0  0  0  0  0  0  0  0  0
    7.7839   -3.0139   -1.7375 H   0  0  0  0  0  0  0  0  0  0  0  0
    8.5783   -2.4614   -0.2671 H   0  0  0  0  0  0  0  0  0  0  0  0
    9.7025   -1.6926   -2.3227 H   0  0  0  0  0  0  0  0  0  0  0  0
  1  2  1  0  0  0  0
  2  3  1  0  0  0  0
  2  7  2  0  0  0  0
  3  4  2  0  0  0  0
  3 25  1  0  0  0  0
  4  5  1  0  0  0  0
  4 24  1  0  0  0  0
  5  6  2  0  0  0  0
  5  9  1  0  0  0  0
  6  7  1  0  0  0  0
  6 26  1  0  0  0  0
  7  8  1  0  0  0  0
  9 10  1  0  0  0  0
  9 22  1  0  0  0  0
  9 27  1  0  0  0  0
 10 11  2  0  0  0  0
 10 12  1  0  0  0  0
 12 13  1  0  0  0  0
 12 28  1  0  0  0  0
 13 14  1  0  0  0  0
 13 18  2  0  0  0  0
 14 15  2  0  0  0  0
 14 29  1  0  0  0  0
 15 16  1  0  0  0  0
 16 17  2  0  0  0  0
 16 30  1  0  0  0  0
 17 18  1  0  0  0  0
 17 31  1  0  0  0  0
 18 19  1  0  0  0  0
 19 20  1  0  0  0  0
 19 21  1  0  0  0  0
 19 32  1  0  0  0  0
 20 21  1  0  0  0  0
 20 33  1  0  0  0  0
 20 34  1  0  0  0  0
 21 35  1  0  0  0  0
 21 36  1  0  0  0  0
 22 23  1  0  0  0  0
 22 37  1  0  0  0  0
 22 38  1  0  0  0  0
 23 24  1  0  0  0  0
 23 39  1  0  0  0  0
 23 40  1  0  0  0  0
 24 41  1  0  0  0  0
M  END
$$$$
