stable:False satoms:9 tatoms:24 sratio:0.375
  -OEChem-07092417483D

 24 24  0     1  0  0  0  0  0999 V2000
    6.6384   -4.8674   26.4420 C   0  0  0  0  0  0  0  0  0  0  0  0
    8.1725   -4.3176   26.1271 S   0  0  0  0  0  0  0  0  0  0  0  0
    9.0383   -5.4890   26.0571 O   0  0  0  0  0  0  0  0  0  0  0  0
    8.6174   -3.4613   27.1900 O   0  0  0  0  0  0  0  0  0  0  0  0
    8.1234   -3.5735   24.7030 N   0  0  0  0  0  0  0  0  0  0  0  0
    8.9926   -2.9142   24.1393 C   0  0  0  0  0  0  0  0  0  0  0  0
    9.4294   -1.9869   23.4998 C   0  0  0  0  0  0  0  0  0  0  0  0
   10.2767   -1.1005   23.2545 C   0  0  2  0  0  0  0  0  0  0  0  0
   11.0262    0.0045   24.3400 C   0  0  0  0  0  0  0  0  0  0  0  0
   12.1321    0.2454   24.2080 C   0  0  0  0  0  0  0  0  0  0  0  0
   13.0900   -0.1259   23.5283 C   0  0  0  0  0  0  0  0  0  0  0  0
   12.6987   -1.3253   22.6224 C   0  0  0  0  0  0  0  0  0  0  0  0
   11.8410   -1.7766   22.5029 C   0  0  0  0  0  0  0  0  0  0  0  0
    9.7292   -0.4970   22.3272 C   0  0  0  0  0  0  0  0  0  0  0  0
    9.0570    0.0721   21.3886 C   0  0  0  0  0  0  0  0  0  0  0  0
    9.5201    1.0267   20.9812 O   0  0  0  0  0  0  0  0  0  0  0  0
    7.9426   -0.5779   21.0817 N   0  0  0  0  0  0  0  0  0  0  0  0
    7.1975   -0.0853   20.1644 C   0  0  0  0  0  0  0  0  0  0  0  0
    7.2314   -0.0205   18.8552 C   0  0  0  0  0  0  0  0  0  0  0  0
    6.7613    0.3194   17.7345 N   0  0  0  0  0  0  0  0  0  0  0  0
    5.6549    0.9050   18.2364 C   0  0  0  0  0  0  0  0  0  0  0  0
    5.2574    1.0136   19.3880 C   0  0  0  0  0  0  0  0  0  0  0  0
    5.8304    0.5592   20.5246 C   0  0  0  0  0  0  0  0  0  0  0  0
    5.3258    0.6829   22.0004 C   0  0  0  0  0  0  0  0  0  0  0  0
 20 21  2  0  0  0  0
 19 20  1  0  0  0  0
 21 22  1  0  0  0  0
 18 19  2  0  0  0  0
 22 23  2  0  0  0  0
 18 23  1  0  0  0  0
 17 18  1  0  0  0  0
 23 24  1  0  0  0  0
 15 16  2  0  0  0  0
 15 17  1  0  0  0  0
 14 15  1  0  0  0  0
  8 14  1  0  0  0  0
 12 13  2  0  0  0  0
 11 12  1  0  0  0  0
  7  8  1  0  0  0  0
  8  9  1  0  0  0  0
  6  7  2  3  0  0  0
 10 11  1  0  0  0  0
  5  6  1  0  0  0  0
  9 10  2  0  0  0  0
  2  5  1  0  0  0  0
  2  3  2  0  0  0  0
  1  2  1  0  0  0  0
  2  4  2  0  0  0  0
M  END
> <Shapegauss>
-286.111938

$$$$
