stable:False satoms:9 tatoms:24 sratio:0.375
  -OEChem-08062416563D

 47 47  0     1  0  0  0  0  0999 V2000
   -6.6817   -5.3719  -26.1388 C   0  0  0  0  0  0  0  0  0  0  0  0
   -8.2040   -4.7346  -25.9610 S   0  0  0  0  0  0  0  0  0  0  0  0
   -9.1269   -5.8591  -25.8596 O   0  0  0  0  0  0  0  0  0  0  0  0
   -8.5445   -3.9431  -27.1093 O   0  0  0  0  0  0  0  0  0  0  0  0
   -8.2036   -3.8874  -24.5948 N   0  0  0  0  0  0  0  0  0  0  0  0
   -9.0723   -3.1507  -24.1360 C   0  0  0  0  0  0  0  0  0  0  0  0
   -9.5016   -2.1597  -23.5944 C   0  0  0  0  0  0  0  0  0  0  0  0
  -10.3190   -1.2218  -23.4678 C   0  0  2  0  0  0  0  0  0  0  0  0
  -10.9501   -0.1712  -24.6757 C   0  0  0  0  0  0  0  0  0  0  0  0
  -12.0492    0.1262  -24.6307 C   0  0  0  0  0  0  0  0  0  0  0  0
  -13.0620   -0.1512  -23.9867 C   0  0  0  0  0  0  0  0  0  0  0  0
  -12.7819   -1.2941  -22.9729 C   0  0  0  0  0  0  0  0  0  0  0  0
  -11.9551   -1.7713  -22.7676 C   0  0  0  0  0  0  0  0  0  0  0  0
   -9.7991   -0.5737  -22.5548 C   0  0  0  0  0  0  0  0  0  0  0  0
   -9.1571    0.0356  -21.6203 C   0  0  0  0  0  0  0  0  0  0  0  0
   -9.5977    1.0373  -21.3134 O   0  0  0  0  0  0  0  0  0  0  0  0
   -8.0948   -0.6363  -21.1979 N   0  0  0  0  0  0  0  0  0  0  0  0
   -7.3825   -0.1079  -20.2745 C   0  0  0  0  0  0  0  0  0  0  0  0
   -7.4903    0.0573  -18.9782 C   0  0  0  0  0  0  0  0  0  0  0  0
   -7.0714    0.4608  -17.8582 N   0  0  0  0  0  0  0  0  0  0  0  0
   -5.9109    0.9587  -18.3318 C   0  0  0  0  0  0  0  0  0  0  0  0
   -5.4416    0.9626  -19.4612 C   0  0  0  0  0  0  0  0  0  0  0  0
   -5.9676    0.4483  -20.5950 C   0  0  0  0  0  0  0  0  0  0  0  0
   -5.3717    0.4380  -22.0417 C   0  0  0  0  0  0  0  0  0  0  0  0
   -6.6368   -5.9623  -27.0658 H   0  0  0  0  0  0  0  0  0  0  0  0
   -5.9461   -4.5555  -26.1881 H   0  0  0  0  0  0  0  0  0  0  0  0
   -6.4531   -6.0200  -25.2799 H   0  0  0  0  0  0  0  0  0  0  0  0
   -7.3961   -3.3021  -24.6672 H   0  0  0  0  0  0  0  0  0  0  0  0
   -9.9735   -3.7144  -24.3270 H   0  0  0  0  0  0  0  0  0  0  0  0
   -8.8058   -1.9959  -22.7849 H   0  0  0  0  0  0  0  0  0  0  0  0
  -11.2367   -1.6652  -23.0539 H   0  0  0  0  0  0  0  0  0  0  0  0
  -10.3138    0.2010  -25.4649 H   0  0  0  0  0  0  0  0  0  0  0  0
  -12.2689    0.8759  -25.3764 H   0  0  0  0  0  0  0  0  0  0  0  0
  -13.8530   -0.4718  -24.6806 H   0  0  0  0  0  0  0  0  0  0  0  0
  -13.3953    0.7422  -23.4383 H   0  0  0  0  0  0  0  0  0  0  0  0
  -13.6416   -1.6129  -22.4022 H   0  0  0  0  0  0  0  0  0  0  0  0
  -11.9526   -2.5499  -22.0192 H   0  0  0  0  0  0  0  0  0  0  0  0
  -11.0431   -1.5205  -23.2890 H   0  0  0  0  0  0  0  0  0  0  0  0
  -10.6189   -0.8281  -21.8669 H   0  0  0  0  0  0  0  0  0  0  0  0
  -10.0259    0.3768  -23.0599 H   0  0  0  0  0  0  0  0  0  0  0  0
   -7.8578   -1.5262  -21.5877 H   0  0  0  0  0  0  0  0  0  0  0  0
   -8.4455   -0.3893  -18.7449 H   0  0  0  0  0  0  0  0  0  0  0  0
   -5.2906    1.4351  -17.5870 H   0  0  0  0  0  0  0  0  0  0  0  0
   -4.4789    1.4405  -19.5666 H   0  0  0  0  0  0  0  0  0  0  0  0
   -4.7998   -0.4888  -22.1966 H   0  0  0  0  0  0  0  0  0  0  0  0
   -6.1895    0.4910  -22.7754 H   0  0  0  0  0  0  0  0  0  0  0  0
   -4.7068    1.3048  -22.1704 H   0  0  0  0  0  0  0  0  0  0  0  0
 20 21  2  0  0  0  0
 19 20  1  0  0  0  0
 21 22  1  0  0  0  0
 18 19  2  0  0  0  0
 22 23  2  0  0  0  0
 18 23  1  0  0  0  0
 17 18  1  0  0  0  0
 23 24  1  0  0  0  0
 15 16  2  0  0  0  0
 15 17  1  0  0  0  0
 14 15  1  0  0  0  0
  8 14  1  0  0  0  0
 12 13  2  0  0  0  0
 11 12  1  0  0  0  0
  7  8  1  0  0  0  0
  8  9  1  0  0  0  0
  6  7  2  3  0  0  0
 10 11  1  0  0  0  0
  5  6  1  0  0  0  0
  9 10  2  0  0  0  0
  2  5  1  0  0  0  0
  2  3  2  0  0  0  0
  1  2  1  0  0  0  0
  2  4  2  0  0  0  0
  1 25  1  0  0  0  0
  1 26  1  0  0  0  0
  1 27  1  0  0  0  0
  5 28  1  0  0  0  0
  6 29  1  0  0  0  0
  7 30  1  0  0  0  0
  8 31  1  0  0  0  0
  9 32  1  0  0  0  0
 10 33  1  0  0  0  0
 11 34  1  0  0  0  0
 11 35  1  0  0  0  0
 12 36  1  0  0  0  0
 13 37  1  0  0  0  0
 13 38  1  0  0  0  0
 14 39  1  0  0  0  0
 14 40  1  0  0  0  0
 17 41  1  0  0  0  0
 19 42  1  0  0  0  0
 21 43  1  0  0  0  0
 22 44  1  0  0  0  0
 24 45  1  0  0  0  0
 24 46  1  0  0  0  0
 24 47  1  0  0  0  0
M  END
> <Chemgauss4>
-13.243413

$$$$
