REMARK  8 active torsions:
REMARK  status: ('A' for Active; 'I' for Inactive)
REMARK    1  A    between atoms: N_2  and  O_5 
REMARK    2  A    between atoms: N_2  and  O_4 
REMARK    3  A    between atoms: O_5  and  C_7 
REMARK    4  A    between atoms: C_7  and  C_8 
REMARK    5  A    between atoms: C_8  and  C_12 
REMARK    6  A    between atoms: C_8  and  O_10 
REMARK    7  A    between atoms: C_12  and  C_13 
REMARK    8  A    between atoms: C_13  and  C_14 
ROOT
HETATM    1  C   UNL     1       9.936  -1.222  23.862  1.00  0.00     0.137 C 
ENDROOT
BRANCH   1   2
HETATM    2  C   UNL     1       8.976  -2.143  24.434  1.00  0.00     0.285 C 
HETATM    3  F   UNL     1       8.050  -2.852  23.828  1.00  0.00    -0.173 F 
BRANCH   2   4
HETATM    4  O   UNL     1       8.887  -2.290  25.775  1.00  0.00    -0.184 OA
BRANCH   4   5
HETATM    5  N   UNL     1       8.631  -3.391  26.403  1.00  0.00    -0.166 N 
ATOM      6  HN  UNL     1       9.055  -3.495  27.325  1.00  0.00     0.224 HD
BRANCH   5   7
HETATM    7  O   UNL     1       7.935  -4.327  26.015  1.00  0.00    -0.269 OA
HETATM    8  H   UNL     1       7.099  -3.846  25.664  1.00  0.00     0.246 HD
ENDBRANCH   5   7
ENDBRANCH   4   5
ENDBRANCH   2   4
ENDBRANCH   1   2
BRANCH   1   9
HETATM    9  C   UNL     1      10.375  -1.000  22.525  1.00  0.00    -0.024 C 
HETATM   10  C   UNL     1      11.698  -0.933  22.345  1.00  0.00     0.022 C 
BRANCH   9  11
HETATM   11  C   UNL     1       9.523  -0.846  21.200  1.00  0.00     0.086 C 
BRANCH  11  12
HETATM   12  C   UNL     1       8.075  -0.447  20.894  1.00  0.00    -0.013 A 
HETATM   13  C   UNL     1       7.475   0.113  19.772  1.00  0.00     0.015 A 
HETATM   14  C   UNL     1       6.095   0.325  19.973  1.00  0.00     0.008 A 
HETATM   15  C   UNL     1       5.723  -0.116  21.214  1.00  0.00     0.050 A 
HETATM   16  S   UNL     1       6.990  -0.795  22.081  1.00  0.00    -0.106 SA
ENDBRANCH  11  12
ENDBRANCH   9  11
ENDBRANCH   1   9
BRANCH   1  17
HETATM   17  O   UNL     1      10.499  -0.496  24.818  1.00  0.00    -0.356 OA
HETATM   18  H   UNL     1      11.355  -0.153  24.796  1.00  0.00     0.218 HD
ENDBRANCH   1  17
TORSDOF 8
