stable:False satoms:9 tatoms:24 sratio:0.375
  -OEChem-08062417403D

 47 47  0     1  0  0  0  0  0999 V2000
   -6.3329   -5.1699  -26.2907 C   0  0  0  0  0  0  0  0  0  0  0  0
   -8.0332   -4.5273  -26.0614 S   0  0  0  0  0  0  0  0  0  0  0  0
   -8.8843   -5.6948  -26.0106 O   0  0  0  0  0  0  0  0  0  0  0  0
   -8.3019   -3.7093  -27.2159 O   0  0  0  0  0  0  0  0  0  0  0  0
   -7.9424   -3.7363  -24.6849 N   0  0  0  0  0  0  0  0  0  0  0  0
   -8.8521   -3.0492  -24.2209 C   0  0  0  0  0  0  0  0  0  0  0  0
   -9.3261   -2.1021  -23.6615 C   0  0  0  0  0  0  0  0  0  0  0  0
  -10.1770   -1.1437  -23.5421 C   0  0  2  0  0  0  0  0  0  0  0  0
  -10.8327   -0.1207  -24.6226 C   0  0  0  0  0  0  0  0  0  0  0  0
  -11.8673    0.2357  -24.6956 C   0  0  0  0  0  0  0  0  0  0  0  0
  -12.9917   -0.1985  -23.9630 C   0  0  0  0  0  0  0  0  0  0  0  0
  -12.6269   -1.3112  -23.0095 C   0  0  0  0  0  0  0  0  0  0  0  0
  -11.7680   -1.7371  -22.8034 C   0  0  0  0  0  0  0  0  0  0  0  0
   -9.6757   -0.5522  -22.5991 C   0  0  0  0  0  0  0  0  0  0  0  0
   -9.0552    0.0328  -21.5946 C   0  0  0  0  0  0  0  0  0  0  0  0
   -9.5437    0.9923  -21.2626 O   0  0  0  0  0  0  0  0  0  0  0  0
   -7.9590   -0.5930  -21.1886 N   0  0  0  0  0  0  0  0  0  0  0  0
   -7.2628   -0.1235  -20.2622 C   0  0  0  0  0  0  0  0  0  0  0  0
   -7.4288    0.0044  -18.9372 C   0  0  0  0  0  0  0  0  0  0  0  0
   -6.9938    0.3609  -17.8854 N   0  0  0  0  0  0  0  0  0  0  0  0
   -5.8039    0.9361  -18.3018 C   0  0  0  0  0  0  0  0  0  0  0  0
   -5.3699    0.9795  -19.4159 C   0  0  0  0  0  0  0  0  0  0  0  0
   -5.8423    0.5380  -20.5921 C   0  0  0  0  0  0  0  0  0  0  0  0
   -5.2970    0.6058  -21.8782 C   0  0  0  0  0  0  0  0  0  0  0  0
   -6.2802   -5.7428  -27.2282 H   0  0  0  0  0  0  0  0  0  0  0  0
   -5.6259   -4.3283  -26.3351 H   0  0  0  0  0  0  0  0  0  0  0  0
   -6.0713   -5.8243  -25.4461 H   0  0  0  0  0  0  0  0  0  0  0  0
   -7.1596   -3.1211  -24.7779 H   0  0  0  0  0  0  0  0  0  0  0  0
   -9.7260   -3.6410  -24.4501 H   0  0  0  0  0  0  0  0  0  0  0  0
   -8.7048   -1.9941  -22.7848 H   0  0  0  0  0  0  0  0  0  0  0  0
  -11.0754   -1.6277  -23.1316 H   0  0  0  0  0  0  0  0  0  0  0  0
  -10.1554    0.2608  -25.3724 H   0  0  0  0  0  0  0  0  0  0  0  0
  -12.0478    1.0169  -25.4192 H   0  0  0  0  0  0  0  0  0  0  0  0
  -13.7572   -0.5632  -24.6636 H   0  0  0  0  0  0  0  0  0  0  0  0
  -13.3943    0.6487  -23.3884 H   0  0  0  0  0  0  0  0  0  0  0  0
  -13.4630   -1.7099  -22.4541 H   0  0  0  0  0  0  0  0  0  0  0  0
  -11.7208   -2.5326  -22.0745 H   0  0  0  0  0  0  0  0  0  0  0  0
  -10.8692   -1.4106  -23.3055 H   0  0  0  0  0  0  0  0  0  0  0  0
  -10.5213   -0.8228  -21.9497 H   0  0  0  0  0  0  0  0  0  0  0  0
   -9.8742    0.4203  -23.0733 H   0  0  0  0  0  0  0  0  0  0  0  0
   -7.6864   -1.4491  -21.6276 H   0  0  0  0  0  0  0  0  0  0  0  0
   -8.4064   -0.4028  -18.7253 H   0  0  0  0  0  0  0  0  0  0  0  0
   -5.2001    1.3972  -17.5342 H   0  0  0  0  0  0  0  0  0  0  0  0
   -4.4105    1.4698  -19.4896 H   0  0  0  0  0  0  0  0  0  0  0  0
   -4.6879   -0.2906  -22.0665 H   0  0  0  0  0  0  0  0  0  0  0  0
   -6.1091    0.6592  -22.6183 H   0  0  0  0  0  0  0  0  0  0  0  0
   -4.6653    1.5024  -21.9617 H   0  0  0  0  0  0  0  0  0  0  0  0
 20 21  2  0  0  0  0
 19 20  1  0  0  0  0
 21 22  1  0  0  0  0
 18 19  2  0  0  0  0
 22 23  2  0  0  0  0
 18 23  1  0  0  0  0
 17 18  1  0  0  0  0
 23 24  1  0  0  0  0
 15 16  2  0  0  0  0
 15 17  1  0  0  0  0
 14 15  1  0  0  0  0
  8 14  1  0  0  0  0
 12 13  2  0  0  0  0
 11 12  1  0  0  0  0
  7  8  1  0  0  0  0
  8  9  1  0  0  0  0
 10 11  1  0  0  0  0
  6  7  2  3  0  0  0
  5  6  1  0  0  0  0
  9 10  2  0  0  0  0
  2  5  1  0  0  0  0
  2  3  2  0  0  0  0
  1  2  1  0  0  0  0
  2  4  2  0  0  0  0
  1 25  1  0  0  0  0
  1 26  1  0  0  0  0
  1 27  1  0  0  0  0
  5 28  1  0  0  0  0
  6 29  1  0  0  0  0
  7 30  1  0  0  0  0
  8 31  1  0  0  0  0
  9 32  1  0  0  0  0
 10 33  1  0  0  0  0
 11 34  1  0  0  0  0
 11 35  1  0  0  0  0
 12 36  1  0  0  0  0
 13 37  1  0  0  0  0
 13 38  1  0  0  0  0
 14 39  1  0  0  0  0
 14 40  1  0  0  0  0
 17 41  1  0  0  0  0
 19 42  1  0  0  0  0
 21 43  1  0  0  0  0
 22 44  1  0  0  0  0
 24 45  1  0  0  0  0
 24 46  1  0  0  0  0
 24 47  1  0  0  0  0
M  END
> <Chemgauss4>
-13.204515

$$$$
