stable:False satoms:10 tatoms:24 sratio:0.4166666666666667
  -OEChem-07092417483D

 24 25  0     1  0  0  0  0  0999 V2000
    6.5788   -4.8768   26.5002 C   0  0  0  0  0  0  0  0  0  0  0  0
    8.2292   -4.2807   26.1232 S   0  0  0  0  0  0  0  0  0  0  0  0
    9.0915   -5.4510   26.0696 O   0  0  0  0  0  0  0  0  0  0  0  0
    8.6163   -3.4045   27.1855 O   0  0  0  0  0  0  0  0  0  0  0  0
    8.0829   -3.5639   24.6800 N   0  0  0  0  0  0  0  0  0  0  0  0
    8.9755   -2.9356   24.1250 C   0  0  0  0  0  0  0  0  0  0  0  0
    9.4367   -1.9543   23.4804 C   0  0  0  0  0  0  0  0  0  0  0  0
   10.3125   -1.1170   23.2631 C   0  0  1  0  0  0  0  0  0  0  0  0
   11.0557    0.0068   24.3097 C   0  0  0  0  0  0  0  0  0  0  0  0
   12.0722    0.2784   24.2554 C   0  0  0  0  0  0  0  0  0  0  0  0
   13.1602   -0.1639   23.4926 C   0  0  0  0  0  0  0  0  0  0  0  0
   12.7601   -1.3117   22.6380 C   0  0  0  0  0  0  0  0  0  0  0  0
   11.8174   -1.7532   22.5345 C   0  0  0  0  0  0  0  0  0  0  0  0
    9.7577   -0.5845   22.3242 C   0  0  0  0  0  0  0  0  0  0  0  0
    9.0684    0.0325   21.3704 C   0  0  0  0  0  0  0  0  0  0  0  0
    9.5187    0.9973   20.9569 O   0  0  0  0  0  0  0  0  0  0  0  0
    7.9276   -0.5643   21.0694 N   0  0  0  0  0  0  0  0  0  0  0  0
    7.1856   -0.0759   20.1586 C   0  0  0  0  0  0  0  0  0  0  0  0
    7.2223    0.0253   18.8580 C   0  0  0  0  0  0  0  0  0  0  0  0
    6.7025    0.3068   17.7434 N   0  0  0  0  0  0  0  0  0  0  0  0
    5.6311    0.8411   18.2382 C   0  0  0  0  0  0  0  0  0  0  0  0
    5.2244    0.9877   19.4062 C   0  0  0  0  0  0  0  0  0  0  0  0
    5.8223    0.5747   20.5482 C   0  0  0  0  0  0  0  0  0  0  0  0
    5.3343    0.6965   21.9661 C   0  0  0  0  0  0  0  0  0  0  0  0
 20 21  2  0  0  0  0
 19 20  1  0  0  0  0
 21 22  1  0  0  0  0
 18 19  2  0  0  0  0
 22 23  2  0  0  0  0
 18 23  1  0  0  0  0
 17 18  1  0  0  0  0
 23 24  1  0  0  0  0
 15 16  2  0  0  0  0
 15 17  1  0  0  0  0
 14 15  1  0  0  0  0
  8 14  1  0  0  0  0
 12 13  1  0  0  0  0
  8 13  1  0  0  0  0
 11 12  2  0  0  0  0
  7  8  1  0  0  0  0
  8  9  1  0  0  0  0
  6  7  2  3  0  0  0
 10 11  1  0  0  0  0
  5  6  1  0  0  0  0
  9 10  2  0  0  0  0
  2  5  1  0  0  0  0
  2  3  2  0  0  0  0
  1  2  1  0  0  0  0
  2  4  2  0  0  0  0
M  END
> <Shapegauss>
-286.122223

$$$$
