stable:False satoms:10 tatoms:24 sratio:0.4166666666666667
  -OEChem-08062417203D

 45 46  0     1  0  0  0  0  0999 V2000
    6.3027   -5.1985   26.3206 C   0  0  0  0  0  0  0  0  0  0  0  0
    7.9617   -4.5573   26.0801 S   0  0  0  0  0  0  0  0  0  0  0  0
    8.8495   -5.7087   26.0340 O   0  0  0  0  0  0  0  0  0  0  0  0
    8.2601   -3.7220   27.2023 O   0  0  0  0  0  0  0  0  0  0  0  0
    7.8959   -3.7803   24.6623 N   0  0  0  0  0  0  0  0  0  0  0  0
    8.8099   -3.1125   24.1954 C   0  0  0  0  0  0  0  0  0  0  0  0
    9.2922   -2.0958   23.6254 C   0  0  0  0  0  0  0  0  0  0  0  0
   10.1630   -1.2344   23.5029 C   0  0  1  0  0  0  0  0  0  0  0  0
   10.8125   -0.1448   24.6438 C   0  0  0  0  0  0  0  0  0  0  0  0
   11.8246    0.1469   24.6689 C   0  0  0  0  0  0  0  0  0  0  0  0
   12.9692   -0.2421   23.9620 C   0  0  0  0  0  0  0  0  0  0  0  0
   12.6498   -1.3580   23.0343 C   0  0  0  0  0  0  0  0  0  0  0  0
   11.7252   -1.8112   22.8495 C   0  0  0  0  0  0  0  0  0  0  0  0
    9.6602   -0.6709   22.5528 C   0  0  0  0  0  0  0  0  0  0  0  0
    9.0226   -0.0248   21.5825 C   0  0  0  0  0  0  0  0  0  0  0  0
    9.4791    0.9651   21.2416 O   0  0  0  0  0  0  0  0  0  0  0  0
    7.9165   -0.6279   21.1810 N   0  0  0  0  0  0  0  0  0  0  0  0
    7.2261   -0.1130   20.2446 C   0  0  0  0  0  0  0  0  0  0  0  0
    7.3461    0.0460   18.9549 C   0  0  0  0  0  0  0  0  0  0  0  0
    6.8950    0.3671   17.8212 N   0  0  0  0  0  0  0  0  0  0  0  0
    5.7826    0.8600   18.2660 C   0  0  0  0  0  0  0  0  0  0  0  0
    5.2971    0.9479   19.4096 C   0  0  0  0  0  0  0  0  0  0  0  0
    5.8270    0.4956   20.5701 C   0  0  0  0  0  0  0  0  0  0  0  0
    5.2445    0.5462   21.9563 C   0  0  0  0  0  0  0  0  0  0  0  0
    6.2558   -5.7479   27.2724 H   0  0  0  0  0  0  0  0  0  0  0  0
    5.5868   -4.3637   26.3436 H   0  0  0  0  0  0  0  0  0  0  0  0
    6.0484   -5.8769   25.4929 H   0  0  0  0  0  0  0  0  0  0  0  0
    7.1165   -3.1578   24.7327 H   0  0  0  0  0  0  0  0  0  0  0  0
    9.6774   -3.7336   24.3632 H   0  0  0  0  0  0  0  0  0  0  0  0
    8.5771   -1.8621   22.8505 H   0  0  0  0  0  0  0  0  0  0  0  0
   10.1461    0.2711   25.3849 H   0  0  0  0  0  0  0  0  0  0  0  0
   12.0231    0.9153   25.4014 H   0  0  0  0  0  0  0  0  0  0  0  0
   13.9456    0.2055   24.0750 H   0  0  0  0  0  0  0  0  0  0  0  0
   13.4846   -1.7548   22.4756 H   0  0  0  0  0  0  0  0  0  0  0  0
   11.6076   -1.8067   21.7558 H   0  0  0  0  0  0  0  0  0  0  0  0
   11.8285   -2.8477   23.2030 H   0  0  0  0  0  0  0  0  0  0  0  0
    9.7091   -1.5882   21.9477 H   0  0  0  0  0  0  0  0  0  0  0  0
   10.5702   -0.0750   22.3894 H   0  0  0  0  0  0  0  0  0  0  0  0
    7.6247   -1.4826   21.6104 H   0  0  0  0  0  0  0  0  0  0  0  0
    8.3634   -0.2542   18.7518 H   0  0  0  0  0  0  0  0  0  0  0  0
    5.1528    1.2765   17.4938 H   0  0  0  0  0  0  0  0  0  0  0  0
    4.3404    1.4433   19.4840 H   0  0  0  0  0  0  0  0  0  0  0  0
    4.6595   -0.3666   22.1423 H   0  0  0  0  0  0  0  0  0  0  0  0
    6.0580    0.6167   22.6934 H   0  0  0  0  0  0  0  0  0  0  0  0
    4.5902    1.4258   22.0471 H   0  0  0  0  0  0  0  0  0  0  0  0
 20 21  2  0  0  0  0
 19 20  1  0  0  0  0
 21 22  1  0  0  0  0
 18 19  2  0  0  0  0
 22 23  2  0  0  0  0
 18 23  1  0  0  0  0
 17 18  1  0  0  0  0
 23 24  1  0  0  0  0
 15 16  2  0  0  0  0
 15 17  1  0  0  0  0
 14 15  1  0  0  0  0
  8 14  1  0  0  0  0
 12 13  1  0  0  0  0
  8 13  1  0  0  0  0
 11 12  2  0  0  0  0
  7  8  1  0  0  0  0
  8  9  1  0  0  0  0
  6  7  2  3  0  0  0
 10 11  1  0  0  0  0
  5  6  1  0  0  0  0
  9 10  2  0  0  0  0
  2  5  1  0  0  0  0
  2  3  2  0  0  0  0
  1  2  1  0  0  0  0
  2  4  2  0  0  0  0
  1 25  1  0  0  0  0
  1 26  1  0  0  0  0
  1 27  1  0  0  0  0
  5 28  1  0  0  0  0
  6 29  1  0  0  0  0
  7 30  1  0  0  0  0
  9 31  1  0  0  0  0
 10 32  1  0  0  0  0
 11 33  1  0  0  0  0
 12 34  1  0  0  0  0
 13 35  1  0  0  0  0
 13 36  1  0  0  0  0
 14 37  1  0  0  0  0
 14 38  1  0  0  0  0
 17 39  1  0  0  0  0
 19 40  1  0  0  0  0
 21 41  1  0  0  0  0
 22 42  1  0  0  0  0
 24 43  1  0  0  0  0
 24 44  1  0  0  0  0
 24 45  1  0  0  0  0
M  END
> <Chemgauss4>
-13.318604

$$$$
