REMARK  5 active torsions:
REMARK  status: ('A' for Active; 'I' for Inactive)
REMARK    1  A    between atoms: C_1  and  O_3 
REMARK    2  A    between atoms: C_1  and  C_4 
REMARK    3  A    between atoms: C_4  and  N_5 
REMARK    4  A    between atoms: N_5  and  C_7 
REMARK    5  A    between atoms: C_10  and  C_14 
ROOT
HETATM    1  C   UNL     1       9.000  -1.175  22.237  1.00  0.00     0.145 C 
HETATM    2  C   UNL     1       7.110  -0.165  21.884  1.00  0.00     0.157 C 
HETATM    3  C   UNL     1       8.914  -0.739  20.914  1.00  0.00     0.071 C 
HETATM    4  O   UNL     1       7.694  -1.137  22.496  1.00  0.00    -0.305 OA
HETATM    5  C   UNL     1       7.604  -0.079  20.666  1.00  0.00     0.011 C 
ENDROOT
BRANCH   1   6
HETATM    6  N   UNL     1       9.875  -1.543  23.186  1.00  0.00    -0.364 N 
HETATM    7  C   UNL     1      11.199  -0.836  23.098  1.00  0.00     0.151 C 
BRANCH   6   8
HETATM    8  C   UNL     1       9.877  -2.265  24.432  1.00  0.00     0.150 C 
BRANCH   8   9
HETATM    9  C   UNL     1       8.734  -3.400  24.965  1.00  0.00     0.183 C 
BRANCH   9  10
HETATM   10  O   UNL     1       7.580  -2.991  24.389  1.00  0.00    -0.399 OA
HETATM   11  H   UNL     1       7.716  -2.116  24.918  1.00  0.00     0.209 HD
ENDBRANCH   9  10
ENDBRANCH   8   9
ENDBRANCH   6   8
ENDBRANCH   1   6
BRANCH   5  12
HETATM   12  C   UNL     1       6.897   0.518  19.558  1.00  0.00     0.036 C 
HETATM   13 CL   UNL     1       7.401   0.480  17.941  1.00  0.00    -0.084 Cl
HETATM   14  C   UNL     1       5.843   1.110  19.561  1.00  0.00     0.037 C 
ENDBRANCH   5  12
TORSDOF 5
