MODEL 1
REMARK VINA RESULT:    -5.075      0.000      0.000
REMARK INTER + INTRA:          -6.051
REMARK INTER:                  -5.817
REMARK INTRA:                  -0.234
REMARK UNBOUND:                -0.234
REMARK  5 active torsions:
REMARK  status: ('A' for Active; 'I' for Inactive)
REMARK    1  A    between atoms: C_1  and  O_3 
REMARK    2  A    between atoms: C_1  and  C_4 
REMARK    3  A    between atoms: C_4  and  N_5 
REMARK    4  A    between atoms: N_5  and  C_7 
REMARK    5  A    between atoms: C_10  and  C_14 
ROOT
HETATM    1  C   UNL     1       8.314   0.615  21.221  1.00  0.00     0.145 C 
HETATM    2  C   UNL     1      10.175   1.331  22.083  1.00  0.00     0.157 C 
HETATM    3  C   UNL     1       9.000  -0.427  21.847  1.00  0.00     0.071 C 
HETATM    4  O   UNL     1       9.360   1.430  21.090  1.00  0.00    -0.305 OA
HETATM    5  C   UNL     1      10.291   0.059  22.405  1.00  0.00     0.011 C 
ENDROOT
BRANCH   1   6
HETATM    6  N   UNL     1       7.097   0.990  20.797  1.00  0.00    -0.364 N 
HETATM    7  C   UNL     1       6.443   2.025  21.670  1.00  0.00     0.151 C 
BRANCH   6   8
HETATM    8  C   UNL     1       6.280   0.873  19.617  1.00  0.00     0.150 C 
BRANCH   8   9
HETATM    9  C   UNL     1       5.806  -0.554  18.832  1.00  0.00     0.183 C 
BRANCH   9  10
HETATM   10  O   UNL     1       5.241  -0.118  17.683  1.00  0.00    -0.399 OA
HETATM   11  H   UNL     1       6.025   0.550  17.641  1.00  0.00     0.209 HD
ENDBRANCH   9  10
ENDBRANCH   8   9
ENDBRANCH   6   8
ENDBRANCH   1   6
BRANCH   5  12
HETATM   12  C   UNL     1      11.434  -0.489  23.095  1.00  0.00     0.036 C 
HETATM   13 CL   UNL     1      12.318   0.301  24.306  1.00  0.00    -0.084 Cl
HETATM   14  C   UNL     1      11.946  -1.577  22.971  1.00  0.00     0.037 C 
ENDBRANCH   5  12
TORSDOF 5
ENDMDL
MODEL 2
REMARK VINA RESULT:    -4.973      3.689      5.503
REMARK INTER + INTRA:          -5.934
REMARK INTER:                  -5.666
REMARK INTRA:                  -0.268
REMARK UNBOUND:                -0.234
REMARK  5 active torsions:
REMARK  status: ('A' for Active; 'I' for Inactive)
REMARK    1  A    between atoms: C_1  and  O_3 
REMARK    2  A    between atoms: C_1  and  C_4 
REMARK    3  A    between atoms: C_4  and  N_5 
REMARK    4  A    between atoms: N_5  and  C_7 
REMARK    5  A    between atoms: C_10  and  C_14 
ROOT
HETATM    1  C   UNL     1      10.666   2.710  23.571  1.00  0.00     0.145 C 
HETATM    2  C   UNL     1      10.348   1.057  22.199  1.00  0.00     0.157 C 
HETATM    3  C   UNL     1      11.285   1.552  24.043  1.00  0.00     0.071 C 
HETATM    4  O   UNL     1       9.823   2.104  22.736  1.00  0.00    -0.305 OA
HETATM    5  C   UNL     1      11.035   0.413  23.120  1.00  0.00     0.011 C 
ENDROOT
BRANCH   1   6
HETATM    6  N   UNL     1      10.681   4.048  23.675  1.00  0.00    -0.364 N 
HETATM    7  C   UNL     1       9.326   4.654  23.917  1.00  0.00     0.151 C 
BRANCH   6   8
HETATM    8  C   UNL     1      11.641   5.108  23.849  1.00  0.00     0.150 C 
BRANCH   8   9
HETATM    9  C   UNL     1      12.912   5.526  22.806  1.00  0.00     0.183 C 
BRANCH   9  10
HETATM   10  O   UNL     1      13.980   4.874  23.320  1.00  0.00    -0.399 OA
HETATM   11  H   UNL     1      13.809   4.172  22.583  1.00  0.00     0.209 HD
ENDBRANCH   9  10
ENDBRANCH   8   9
ENDBRANCH   6   8
ENDBRANCH   1   6
BRANCH   5  12
HETATM   12  C   UNL     1      11.336  -0.998  23.052  1.00  0.00     0.036 C 
HETATM   13 CL   UNL     1      12.891  -1.669  23.076  1.00  0.00    -0.084 Cl
HETATM   14  C   UNL     1      10.573  -1.934  22.994  1.00  0.00     0.037 C 
ENDBRANCH   5  12
TORSDOF 5
ENDMDL
MODEL 3
REMARK VINA RESULT:    -4.948      4.389      5.577
REMARK INTER + INTRA:          -5.906
REMARK INTER:                  -5.653
REMARK INTRA:                  -0.253
REMARK UNBOUND:                -0.234
REMARK  5 active torsions:
REMARK  status: ('A' for Active; 'I' for Inactive)
REMARK    1  A    between atoms: C_1  and  O_3 
REMARK    2  A    between atoms: C_1  and  C_4 
REMARK    3  A    between atoms: C_4  and  N_5 
REMARK    4  A    between atoms: N_5  and  C_7 
REMARK    5  A    between atoms: C_10  and  C_14 
ROOT
HETATM    1  C   UNL     1       9.035  -2.609  23.836  1.00  0.00     0.145 C 
HETATM    2  C   UNL     1       9.834  -1.049  25.119  1.00  0.00     0.157 C 
HETATM    3  C   UNL     1      10.189  -2.055  23.279  1.00  0.00     0.071 C 
HETATM    4  O   UNL     1       8.763  -1.598  24.660  1.00  0.00    -0.305 OA
HETATM    5  C   UNL     1      10.713  -0.963  24.142  1.00  0.00     0.011 C 
ENDROOT
BRANCH   1   6
HETATM    6  N   UNL     1       8.253  -3.699  23.809  1.00  0.00    -0.364 N 
HETATM    7  C   UNL     1       7.364  -3.779  22.599  1.00  0.00     0.151 C 
BRANCH   6   8
HETATM    8  C   UNL     1       8.143  -4.967  24.483  1.00  0.00     0.150 C 
BRANCH   8   9
HETATM    9  C   UNL     1       7.731  -5.236  26.107  1.00  0.00     0.183 C 
BRANCH   9  10
HETATM   10  O   UNL     1       8.927  -5.372  26.725  1.00  0.00    -0.399 OA
HETATM   11  H   UNL     1       9.240  -4.595  26.122  1.00  0.00     0.209 HD
ENDBRANCH   9  10
ENDBRANCH   8   9
ENDBRANCH   6   8
ENDBRANCH   1   6
BRANCH   5  12
HETATM   12  C   UNL     1      11.790  -0.002  24.120  1.00  0.00     0.036 C 
HETATM   13 CL   UNL     1      11.602   1.676  23.978  1.00  0.00    -0.084 Cl
HETATM   14  C   UNL     1      12.979  -0.192  24.221  1.00  0.00     0.037 C 
ENDBRANCH   5  12
TORSDOF 5
ENDMDL
MODEL 4
REMARK VINA RESULT:    -4.921      3.184      5.534
REMARK INTER + INTRA:          -5.875
REMARK INTER:                  -5.462
REMARK INTRA:                  -0.412
REMARK UNBOUND:                -0.234
REMARK  5 active torsions:
REMARK  status: ('A' for Active; 'I' for Inactive)
REMARK    1  A    between atoms: C_1  and  O_3 
REMARK    2  A    between atoms: C_1  and  C_4 
REMARK    3  A    between atoms: C_4  and  N_5 
REMARK    4  A    between atoms: N_5  and  C_7 
REMARK    5  A    between atoms: C_10  and  C_14 
ROOT
HETATM    1  C   UNL     1       8.791   1.098  21.800  1.00  0.00     0.145 C 
HETATM    2  C   UNL     1       8.015  -0.012  20.102  1.00  0.00     0.157 C 
HETATM    3  C   UNL     1       7.547   1.598  21.412  1.00  0.00     0.071 C 
HETATM    4  O   UNL     1       9.071   0.477  20.655  1.00  0.00    -0.305 OA
HETATM    5  C   UNL     1       7.034   0.858  20.227  1.00  0.00     0.011 C 
ENDROOT
BRANCH   1   6
HETATM    6  N   UNL     1       9.647   1.047  22.833  1.00  0.00    -0.364 N 
HETATM    7  C   UNL     1       9.124   1.691  24.087  1.00  0.00     0.151 C 
BRANCH   6   8
HETATM    8  C   UNL     1      10.859   0.360  23.198  1.00  0.00     0.150 C 
BRANCH   8   9
HETATM    9  C   UNL     1      11.187  -1.298  23.050  1.00  0.00     0.183 C 
BRANCH   9  10
HETATM   10  O   UNL     1      11.313  -1.484  21.716  1.00  0.00    -0.399 OA
HETATM   11  H   UNL     1      11.076  -2.469  21.909  1.00  0.00     0.209 HD
ENDBRANCH   9  10
ENDBRANCH   8   9
ENDBRANCH   6   8
ENDBRANCH   1   6
BRANCH   5  12
HETATM   12  C   UNL     1       5.891   0.904  19.346  1.00  0.00     0.036 C 
HETATM   13 CL   UNL     1       5.704  -0.016  17.936  1.00  0.00    -0.084 Cl
HETATM   14  C   UNL     1       4.879   1.556  19.451  1.00  0.00     0.037 C 
ENDBRANCH   5  12
TORSDOF 5
ENDMDL
MODEL 5
REMARK VINA RESULT:    -4.897      3.683      4.235
REMARK INTER + INTRA:          -5.847
REMARK INTER:                  -5.565
REMARK INTRA:                  -0.283
REMARK UNBOUND:                -0.234
REMARK  5 active torsions:
REMARK  status: ('A' for Active; 'I' for Inactive)
REMARK    1  A    between atoms: C_1  and  O_3 
REMARK    2  A    between atoms: C_1  and  C_4 
REMARK    3  A    between atoms: C_4  and  N_5 
REMARK    4  A    between atoms: N_5  and  C_7 
REMARK    5  A    between atoms: C_10  and  C_14 
ROOT
HETATM    1  C   UNL     1       7.107  -1.193  21.329  1.00  0.00     0.145 C 
HETATM    2  C   UNL     1       6.140  -3.135  21.443  1.00  0.00     0.157 C 
HETATM    3  C   UNL     1       7.844  -2.065  22.132  1.00  0.00     0.071 C 
HETATM    4  O   UNL     1       5.956  -1.860  21.397  1.00  0.00    -0.305 OA
HETATM    5  C   UNL     1       7.162  -3.383  22.236  1.00  0.00     0.011 C 
ENDROOT
BRANCH   1   6
HETATM    6  N   UNL     1       7.203  -0.068  20.604  1.00  0.00    -0.364 N 
HETATM    7  C   UNL     1       7.873   1.066  21.330  1.00  0.00     0.151 C 
BRANCH   6   8
HETATM    8  C   UNL     1       7.060   0.349  19.233  1.00  0.00     0.150 C 
BRANCH   8   9
HETATM    9  C   UNL     1       5.642   0.350  18.302  1.00  0.00     0.183 C 
BRANCH   9  10
HETATM   10  O   UNL     1       5.708  -0.812  17.612  1.00  0.00    -0.399 OA
HETATM   11  H   UNL     1       4.986  -0.401  17.000  1.00  0.00     0.209 HD
ENDBRANCH   9  10
ENDBRANCH   8   9
ENDBRANCH   6   8
ENDBRANCH   1   6
BRANCH   5  12
HETATM   12  C   UNL     1       7.358  -4.641  22.916  1.00  0.00     0.036 C 
HETATM   13 CL   UNL     1       7.205  -6.171  22.205  1.00  0.00    -0.084 Cl
HETATM   14  C   UNL     1       7.682  -4.841  24.063  1.00  0.00     0.037 C 
ENDBRANCH   5  12
TORSDOF 5
ENDMDL
MODEL 6
REMARK VINA RESULT:    -4.865      3.718      4.102
REMARK INTER + INTRA:          -5.810
REMARK INTER:                  -5.560
REMARK INTRA:                  -0.250
REMARK UNBOUND:                -0.234
REMARK  5 active torsions:
REMARK  status: ('A' for Active; 'I' for Inactive)
REMARK    1  A    between atoms: C_1  and  O_3 
REMARK    2  A    between atoms: C_1  and  C_4 
REMARK    3  A    between atoms: C_4  and  N_5 
REMARK    4  A    between atoms: N_5  and  C_7 
REMARK    5  A    between atoms: C_10  and  C_14 
ROOT
HETATM    1  C   UNL     1       9.040  -2.517  23.423  1.00  0.00     0.145 C 
HETATM    2  C   UNL     1       9.686  -0.942  24.772  1.00  0.00     0.157 C 
HETATM    3  C   UNL     1      10.299  -2.040  23.056  1.00  0.00     0.071 C 
HETATM    4  O   UNL     1       8.683  -1.461  24.152  1.00  0.00    -0.305 OA
HETATM    5  C   UNL     1      10.723  -0.937  23.960  1.00  0.00     0.011 C 
ENDROOT
BRANCH   1   6
HETATM    6  N   UNL     1       8.218  -3.571  23.297  1.00  0.00    -0.364 N 
HETATM    7  C   UNL     1       8.325  -4.562  24.423  1.00  0.00     0.151 C 
BRANCH   6   8
HETATM    8  C   UNL     1       7.076  -3.962  22.513  1.00  0.00     0.150 C 
BRANCH   8   9
HETATM    9  C   UNL     1       5.549  -3.223  22.479  1.00  0.00     0.183 C 
BRANCH   9  10
HETATM   10  O   UNL     1       5.655  -2.309  21.486  1.00  0.00    -0.399 OA
HETATM   11  H   UNL     1       6.307  -1.816  22.115  1.00  0.00     0.209 HD
ENDBRANCH   9  10
ENDBRANCH   8   9
ENDBRANCH   6   8
ENDBRANCH   1   6
BRANCH   5  12
HETATM   12  C   UNL     1      11.837  -0.028  24.093  1.00  0.00     0.036 C 
HETATM   13 CL   UNL     1      11.735   1.661  24.013  1.00  0.00    -0.084 Cl
HETATM   14  C   UNL     1      13.000  -0.278  24.304  1.00  0.00     0.037 C 
ENDBRANCH   5  12
TORSDOF 5
ENDMDL
MODEL 7
REMARK VINA RESULT:    -4.807      4.692      6.188
REMARK INTER + INTRA:          -5.744
REMARK INTER:                  -5.536
REMARK INTRA:                  -0.208
REMARK UNBOUND:                -0.234
REMARK  5 active torsions:
REMARK  status: ('A' for Active; 'I' for Inactive)
REMARK    1  A    between atoms: C_1  and  O_3 
REMARK    2  A    between atoms: C_1  and  C_4 
REMARK    3  A    between atoms: C_4  and  N_5 
REMARK    4  A    between atoms: N_5  and  C_7 
REMARK    5  A    between atoms: C_10  and  C_14 
ROOT
HETATM    1  C   UNL     1       8.225  -3.218  23.429  1.00  0.00     0.145 C 
HETATM    2  C   UNL     1       9.822  -1.915  22.744  1.00  0.00     0.157 C 
HETATM    3  C   UNL     1       7.723  -2.223  22.590  1.00  0.00     0.071 C 
HETATM    4  O   UNL     1       9.364  -2.600  23.735  1.00  0.00    -0.305 OA
HETATM    5  C   UNL     1       8.813  -1.311  22.151  1.00  0.00     0.011 C 
ENDROOT
BRANCH   1   6
HETATM    6  N   UNL     1       7.953  -4.436  23.924  1.00  0.00    -0.364 N 
HETATM    7  C   UNL     1       7.405  -5.397  22.906  1.00  0.00     0.151 C 
BRANCH   6   8
HETATM    8  C   UNL     1       8.228  -5.206  25.110  1.00  0.00     0.150 C 
BRANCH   8   9
HETATM    9  C   UNL     1       8.450  -4.621  26.687  1.00  0.00     0.183 C 
BRANCH   9  10
HETATM   10  O   UNL     1       8.197  -5.697  27.469  1.00  0.00    -0.399 OA
HETATM   11  H   UNL     1       8.405  -5.072  28.263  1.00  0.00     0.209 HD
ENDBRANCH   9  10
ENDBRANCH   8   9
ENDBRANCH   6   8
ENDBRANCH   1   6
BRANCH   5  12
HETATM   12  C   UNL     1       8.955  -0.113  21.358  1.00  0.00     0.036 C 
HETATM   13 CL   UNL     1      10.094   1.111  21.629  1.00  0.00    -0.084 Cl
HETATM   14  C   UNL     1       8.337   0.224  20.375  1.00  0.00     0.037 C 
ENDBRANCH   5  12
TORSDOF 5
ENDMDL
MODEL 8
REMARK VINA RESULT:    -4.791      3.496      3.862
REMARK INTER + INTRA:          -5.725
REMARK INTER:                  -5.594
REMARK INTRA:                  -0.131
REMARK UNBOUND:                -0.234
REMARK  5 active torsions:
REMARK  status: ('A' for Active; 'I' for Inactive)
REMARK    1  A    between atoms: C_1  and  O_3 
REMARK    2  A    between atoms: C_1  and  C_4 
REMARK    3  A    between atoms: C_4  and  N_5 
REMARK    4  A    between atoms: N_5  and  C_7 
REMARK    5  A    between atoms: C_10  and  C_14 
ROOT
HETATM    1  C   UNL     1       8.645  -2.318  22.723  1.00  0.00     0.145 C 
HETATM    2  C   UNL     1      10.223  -0.944  22.139  1.00  0.00     0.157 C 
HETATM    3  C   UNL     1       9.658  -2.294  23.682  1.00  0.00     0.071 C 
HETATM    4  O   UNL     1       9.369  -1.815  21.724  1.00  0.00    -0.305 OA
HETATM    5  C   UNL     1      10.754  -1.379  23.263  1.00  0.00     0.011 C 
ENDROOT
BRANCH   1   6
HETATM    6  N   UNL     1       7.352  -2.628  22.542  1.00  0.00    -0.364 N 
HETATM    7  C   UNL     1       6.581  -1.590  21.775  1.00  0.00     0.151 C 
BRANCH   6   8
HETATM    8  C   UNL     1       6.488  -3.773  22.665  1.00  0.00     0.150 C 
BRANCH   8   9
HETATM    9  C   UNL     1       6.460  -5.151  21.675  1.00  0.00     0.183 C 
BRANCH   9  10
HETATM   10  O   UNL     1       7.682  -5.703  21.854  1.00  0.00    -0.399 OA
HETATM   11  H   UNL     1       7.579  -5.423  22.841  1.00  0.00     0.209 HD
ENDBRANCH   9  10
ENDBRANCH   8   9
ENDBRANCH   6   8
ENDBRANCH   1   6
BRANCH   5  12
HETATM   12  C   UNL     1      12.046  -0.959  23.751  1.00  0.00     0.036 C 
HETATM   13 CL   UNL     1      13.525  -1.679  23.346  1.00  0.00    -0.084 Cl
HETATM   14  C   UNL     1      12.317  -0.039  24.486  1.00  0.00     0.037 C 
ENDBRANCH   5  12
TORSDOF 5
ENDMDL
MODEL 9
REMARK VINA RESULT:    -4.645      3.312      5.845
REMARK INTER + INTRA:          -5.558
REMARK INTER:                  -5.294
REMARK INTRA:                  -0.264
REMARK UNBOUND:                -0.234
REMARK  5 active torsions:
REMARK  status: ('A' for Active; 'I' for Inactive)
REMARK    1  A    between atoms: C_1  and  O_3 
REMARK    2  A    between atoms: C_1  and  C_4 
REMARK    3  A    between atoms: C_4  and  N_5 
REMARK    4  A    between atoms: N_5  and  C_7 
REMARK    5  A    between atoms: C_10  and  C_14 
ROOT
HETATM    1  C   UNL     1       8.811   1.167  21.745  1.00  0.00     0.145 C 
HETATM    2  C   UNL     1       8.024  -0.064  20.139  1.00  0.00     0.157 C 
HETATM    3  C   UNL     1       7.578   1.654  21.310  1.00  0.00     0.071 C 
HETATM    4  O   UNL     1       9.085   0.451  20.656  1.00  0.00    -0.305 OA
HETATM    5  C   UNL     1       7.058   0.830  20.186  1.00  0.00     0.011 C 
ENDROOT
BRANCH   1   6
HETATM    6  N   UNL     1       9.661   1.185  22.784  1.00  0.00    -0.364 N 
HETATM    7  C   UNL     1       9.692  -0.099  23.565  1.00  0.00     0.151 C 
BRANCH   6   8
HETATM    8  C   UNL     1      10.746   1.993  23.278  1.00  0.00     0.150 C 
BRANCH   8   9
HETATM    9  C   UNL     1      10.698   3.638  23.692  1.00  0.00     0.183 C 
BRANCH   9  10
HETATM   10  O   UNL     1      11.503   4.225  22.776  1.00  0.00    -0.399 OA
HETATM   11  H   UNL     1      10.801   4.980  22.757  1.00  0.00     0.209 HD
ENDBRANCH   9  10
ENDBRANCH   8   9
ENDBRANCH   6   8
ENDBRANCH   1   6
BRANCH   5  12
HETATM   12  C   UNL     1       5.919   0.824  19.298  1.00  0.00     0.036 C 
HETATM   13 CL   UNL     1       4.519   1.756  19.496  1.00  0.00    -0.084 Cl
HETATM   14  C   UNL     1       5.760   0.203  18.273  1.00  0.00     0.037 C 
ENDBRANCH   5  12
TORSDOF 5
ENDMDL
