stable:False satoms:15 tatoms:24 sratio:0.625
  -OEChem-07092417423D

 24 25  0     1  0  0  0  0  0999 V2000
    6.4024   -4.7814   26.4280 Cl  0  0  0  0  0  0  0  0  0  0  0  0
    8.2056   -4.2972   26.1036 S   0  0  0  0  0  0  0  0  0  0  0  0
    8.9320   -5.5416   26.0638 O   0  0  0  0  0  0  0  0  0  0  0  0
    8.5971   -3.4126   27.1415 O   0  0  0  0  0  0  0  0  0  0  0  0
    8.0637   -3.6049   24.6624 N   0  0  0  0  0  0  0  0  0  0  0  0
    8.9247   -2.8642   24.1398 C   0  0  0  0  0  0  0  0  0  0  0  0
    9.5042   -2.0388   23.6089 C   0  0  0  0  0  0  0  0  0  0  0  0
   10.6141   -1.0997   23.2604 C   0  0  1  0  0  0  0  0  0  0  0  0
   11.3442   -0.2177   24.1512 C   0  0  0  0  0  0  0  0  0  0  0  0
   12.2710    0.2781   24.3366 N   0  5  0  0  0  0  0  0  0  0  0  0
   13.1163    0.0329   23.8617 H   0  0  0  0  0  0  0  0  0  0  0  0
   12.9453   -1.3702   22.3557 O   0  0  0  0  0  0  0  0  0  0  0  0
   11.9572   -1.4126   22.6806 C   0  0  0  0  0  0  0  0  0  0  0  0
    9.7353   -0.6711   22.4858 C   0  0  3  0  0  0  0  0  0  0  0  0
    9.0344   -0.0145   21.5219 C   0  0  0  0  0  0  0  0  0  0  0  0
    9.5452    0.9461   21.1036 O   0  0  0  0  0  0  0  0  0  0  0  0
    7.8182   -0.5259   21.1733 N   0  0  0  0  0  0  0  0  0  0  0  0
    7.1060   -0.0396   20.1893 C   0  0  0  0  0  0  0  0  0  0  0  0
    7.4532   -0.0218   18.8506 N   0  0  0  0  0  0  0  0  0  0  0  0
    6.6677    0.3970   18.0930 N   0  0  0  0  0  0  0  0  0  0  0  0
    4.8343    1.1165   18.3516 H   0  0  0  0  0  0  0  0  0  0  0  0
    5.4818    0.7878   19.0538 C   0  0  0  0  0  0  0  0  0  0  0  0
    5.7979    0.4835   20.3256 C   0  0  0  0  0  0  0  0  0  0  0  0
    5.2325    0.5818   21.3540 H   0  0  0  0  0  0  0  0  0  0  0  0
 19 20  1  0  0  0  0
 20 22  2  0  0  0  0
 21 22  1  0  0  0  0
 18 19  1  0  0  0  0
 22 23  1  0  0  0  0
 18 23  2  0  0  0  0
 17 18  1  0  0  0  0
 23 24  1  0  0  0  0
 15 16  2  0  0  0  0
 15 17  1  0  0  0  0
 14 15  1  0  0  0  0
 12 13  1  0  0  0  0
  8 14  1  0  0  0  0
  7 14  1  0  0  0  0
  8 13  1  0  0  0  0
  7  8  1  0  0  0  0
  8  9  1  0  0  0  0
  6  7  2  0  0  0  0
 10 11  1  0  0  0  0
  5  6  1  0  0  0  0
  9 10  1  0  0  0  0
  2  5  1  0  0  0  0
  2  3  2  0  0  0  0
  1  2  1  0  0  0  0
  2  4  2  0  0  0  0
M  CHG  1  10  -1
M  END
> <Shapegauss>
-254.247971

$$$$
