stable:False satoms:15 tatoms:24 sratio:0.625
  -OEChem-08062412243D

 36 37  0     1  0  0  0  0  0999 V2000
   -6.4227   -3.9437  -27.1355 Cl  0  0  0  0  0  0  0  0  0  0  0  0
   -8.2625   -3.6222  -26.8144 S   0  0  0  0  0  0  0  0  0  0  0  0
   -8.9016   -4.9075  -26.9465 O   0  0  0  0  0  0  0  0  0  0  0  0
   -8.6891   -2.6464  -27.7517 O   0  0  0  0  0  0  0  0  0  0  0  0
   -8.2038   -3.1015  -25.2972 N   0  0  0  0  0  0  0  0  0  0  0  0
   -9.1265   -2.4878  -24.7183 C   0  0  0  0  0  0  0  0  0  0  0  0
   -9.7746   -1.7727  -24.1120 C   0  0  0  0  0  0  0  0  0  0  0  0
  -10.9550   -0.9579  -23.6903 C   0  0  1  0  0  0  0  0  0  0  0  0
  -11.7227   -0.0247  -24.4930 C   0  0  0  0  0  0  0  0  0  0  0  0
  -12.6769    0.4277  -24.6480 N   0  3  0  0  0  0  0  0  0  0  0  0
  -12.6246    1.0595  -25.4213 H   0  0  0  0  0  0  0  0  0  0  0  0
  -13.2831   -1.4889  -22.9002 O   0  0  0  0  0  0  0  0  0  0  0  0
  -12.2868   -1.4264  -23.1957 C   0  0  0  0  0  0  0  0  0  0  0  0
  -10.1271   -0.5691  -22.8422 C   0  0  3  0  0  0  0  0  0  0  0  0
   -9.4969    0.0109  -21.7848 C   0  0  0  0  0  0  0  0  0  0  0  0
  -10.0831    0.8781  -21.2719 O   0  0  0  0  0  0  0  0  0  0  0  0
   -8.2570   -0.4576  -21.4603 N   0  0  0  0  0  0  0  0  0  0  0  0
   -7.6043   -0.0480  -20.4029 C   0  0  0  0  0  0  0  0  0  0  0  0
   -7.9842   -0.2152  -19.0836 N   0  0  0  0  0  0  0  0  0  0  0  0
   -7.2482    0.1598  -18.2565 N   0  0  0  0  0  0  0  0  0  0  0  0
   -5.4634    1.0246  -18.3681 H   0  0  0  0  0  0  0  0  0  0  0  0
   -6.0693    0.7413  -19.1250 C   0  0  0  0  0  0  0  0  0  0  0  0
   -6.3327    0.5728  -20.4336 C   0  0  0  0  0  0  0  0  0  0  0  0
   -5.7507    0.8318  -21.4241 H   0  0  0  0  0  0  0  0  0  0  0  0
   -7.4099   -2.4951  -25.2528 H   0  0  0  0  0  0  0  0  0  0  0  0
   -9.9280   -3.1340  -25.0445 H   0  0  0  0  0  0  0  0  0  0  0  0
  -11.1049    0.8776  -24.3734 H   0  0  0  0  0  0  0  0  0  0  0  0
  -11.5548   -0.4543  -25.4916 H   0  0  0  0  0  0  0  0  0  0  0  0
  -12.9456    0.9291  -23.8255 H   0  0  0  0  0  0  0  0  0  0  0  0
  -13.4749   -2.3752  -22.6171 H   0  0  0  0  0  0  0  0  0  0  0  0
  -11.8923   -1.8138  -22.2448 H   0  0  0  0  0  0  0  0  0  0  0  0
  -12.3628   -2.2481  -23.9230 H   0  0  0  0  0  0  0  0  0  0  0  0
   -9.8016    0.2458  -23.5055 H   0  0  0  0  0  0  0  0  0  0  0  0
   -7.8307   -1.1404  -22.0537 H   0  0  0  0  0  0  0  0  0  0  0  0
   -8.8570   -0.6414  -18.8458 H   0  0  0  0  0  0  0  0  0  0  0  0
  -13.3545   -0.2816  -24.8422 H   0  0  0  0  0  0  0  0  0  0  0  0
 19 20  1  0  0  0  0
 20 22  2  0  0  0  0
 21 22  1  0  0  0  0
 18 19  1  0  0  0  0
 22 23  1  0  0  0  0
 18 23  2  0  0  0  0
 17 18  1  0  0  0  0
 23 24  1  0  0  0  0
 15 16  2  0  0  0  0
 15 17  1  0  0  0  0
 14 15  1  0  0  0  0
 12 13  1  0  0  0  0
  8 14  1  0  0  0  0
  7 14  1  0  0  0  0
  8 13  1  0  0  0  0
  7  8  1  0  0  0  0
  8  9  1  0  0  0  0
  6  7  2  0  0  0  0
 10 11  1  0  0  0  0
  5  6  1  0  0  0  0
  9 10  1  0  0  0  0
  2  5  1  0  0  0  0
  2  3  2  0  0  0  0
  1  2  1  0  0  0  0
  2  4  2  0  0  0  0
  5 25  1  0  0  0  0
  6 26  1  0  0  0  0
  9 27  1  0  0  0  0
  9 28  1  0  0  0  0
 10 29  1  0  0  0  0
 12 30  1  0  0  0  0
 13 31  1  0  0  0  0
 13 32  1  0  0  0  0
 14 33  1  0  0  0  0
 17 34  1  0  0  0  0
 19 35  1  0  0  0  0
 10 36  1  0  0  0  0
M  CHG  1  10   1
M  END
> <Chemgauss4>
-8.414527

$$$$
