stable:False satoms:15 tatoms:24 sratio:0.625
  -OEChem-08062412243D

 36 37  0     1  0  0  0  0  0999 V2000
    6.5132   -4.0414   27.1117 Cl  0  0  0  0  0  0  0  0  0  0  0  0
    8.3529   -3.7200   26.7905 S   0  0  0  0  0  0  0  0  0  0  0  0
    8.9920   -5.0052   26.9226 O   0  0  0  0  0  0  0  0  0  0  0  0
    8.7796   -2.7441   27.7279 O   0  0  0  0  0  0  0  0  0  0  0  0
    8.2943   -3.1992   25.2733 N   0  0  0  0  0  0  0  0  0  0  0  0
    9.2170   -2.5855   24.6944 C   0  0  0  0  0  0  0  0  0  0  0  0
    9.8650   -1.8704   24.0881 C   0  0  0  0  0  0  0  0  0  0  0  0
   11.0455   -1.0556   23.6664 C   0  0  1  0  0  0  0  0  0  0  0  0
   11.8132   -0.1224   24.4691 C   0  0  0  0  0  0  0  0  0  0  0  0
   12.7674    0.3300   24.6241 N   0  3  0  0  0  0  0  0  0  0  0  0
   12.7151    0.9618   25.3975 H   0  0  0  0  0  0  0  0  0  0  0  0
   13.3735   -1.5866   22.8763 O   0  0  0  0  0  0  0  0  0  0  0  0
   12.3773   -1.5242   23.1718 C   0  0  0  0  0  0  0  0  0  0  0  0
   10.2175   -0.6668   22.8183 C   0  0  3  0  0  0  0  0  0  0  0  0
    9.5874   -0.0868   21.7609 C   0  0  0  0  0  0  0  0  0  0  0  0
   10.1735    0.7804   21.2480 O   0  0  0  0  0  0  0  0  0  0  0  0
    8.3475   -0.5553   21.4365 N   0  0  0  0  0  0  0  0  0  0  0  0
    7.6947   -0.1457   20.3790 C   0  0  0  0  0  0  0  0  0  0  0  0
    8.0746   -0.3129   19.0597 N   0  0  0  0  0  0  0  0  0  0  0  0
    7.3387    0.0621   18.2326 N   0  0  0  0  0  0  0  0  0  0  0  0
    5.5538    0.9269   18.3442 H   0  0  0  0  0  0  0  0  0  0  0  0
    6.1598    0.6435   19.1012 C   0  0  0  0  0  0  0  0  0  0  0  0
    6.4231    0.4751   20.4097 C   0  0  0  0  0  0  0  0  0  0  0  0
    5.8412    0.7341   21.4002 H   0  0  0  0  0  0  0  0  0  0  0  0
    7.5004   -2.5928   25.2289 H   0  0  0  0  0  0  0  0  0  0  0  0
   10.0185   -3.2317   25.0206 H   0  0  0  0  0  0  0  0  0  0  0  0
   11.1954    0.7798   24.3495 H   0  0  0  0  0  0  0  0  0  0  0  0
   11.6452   -0.5520   25.4677 H   0  0  0  0  0  0  0  0  0  0  0  0
   13.0361    0.8314   23.8016 H   0  0  0  0  0  0  0  0  0  0  0  0
   13.5654   -2.4729   22.5932 H   0  0  0  0  0  0  0  0  0  0  0  0
   11.9827   -1.9116   22.2209 H   0  0  0  0  0  0  0  0  0  0  0  0
   12.4533   -2.3458   23.8992 H   0  0  0  0  0  0  0  0  0  0  0  0
    9.8920    0.1481   23.4816 H   0  0  0  0  0  0  0  0  0  0  0  0
    7.9212   -1.2381   22.0298 H   0  0  0  0  0  0  0  0  0  0  0  0
    8.9475   -0.7391   18.8219 H   0  0  0  0  0  0  0  0  0  0  0  0
   13.4450   -0.3793   24.8183 H   0  0  0  0  0  0  0  0  0  0  0  0
 19 20  1  0  0  0  0
 20 22  2  0  0  0  0
 21 22  1  0  0  0  0
 18 19  1  0  0  0  0
 22 23  1  0  0  0  0
 18 23  2  0  0  0  0
 17 18  1  0  0  0  0
 23 24  1  0  0  0  0
 15 16  2  0  0  0  0
 15 17  1  0  0  0  0
 14 15  1  0  0  0  0
 12 13  1  0  0  0  0
  8 14  1  0  0  0  0
  7 14  1  0  0  0  0
  8 13  1  0  0  0  0
  7  8  1  0  0  0  0
  8  9  1  0  0  0  0
  6  7  2  0  0  0  0
 10 11  1  0  0  0  0
  5  6  1  0  0  0  0
  9 10  1  0  0  0  0
  2  5  1  0  0  0  0
  2  3  2  0  0  0  0
  1  2  1  0  0  0  0
  2  4  2  0  0  0  0
  5 25  1  0  0  0  0
  6 26  1  0  0  0  0
  9 27  1  0  0  0  0
  9 28  1  0  0  0  0
 10 29  1  0  0  0  0
 12 30  1  0  0  0  0
 13 31  1  0  0  0  0
 13 32  1  0  0  0  0
 14 33  1  0  0  0  0
 17 34  1  0  0  0  0
 19 35  1  0  0  0  0
 10 36  1  0  0  0  0
M  CHG  1  10   1
M  END
> <Chemgauss4>
-8.514524

$$$$
