stable:False satoms:7 tatoms:24 sratio:0.2916666666666667
  -OEChem-08062414403D

 38 38  0     0  0  0  0  0  0999 V2000
    5.8435   -4.9806   26.0076 C   0  0  0  0  0  0  0  0  0  0  0  0
    7.5335   -4.4342   25.9133 S   0  0  0  0  0  0  0  0  0  0  0  0
    8.3561   -5.6248   25.8697 O   0  0  0  0  0  0  0  0  0  0  0  0
    7.7993   -3.6538   27.0896 O   0  0  0  0  0  0  0  0  0  0  0  0
    7.6042   -3.6066   24.5411 N   0  0  0  0  0  0  0  0  0  0  0  0
    8.4652   -2.8995   24.1551 C   0  0  0  0  0  0  0  0  0  0  0  0
    8.9956   -1.9145   23.6921 C   0  0  0  0  0  0  0  0  0  0  0  0
    9.7124   -0.9021   23.6412 C   0  0  0  0  0  0  0  0  0  0  0  0
   10.5793   -0.0767   24.6508 C   0  0  0  0  0  0  0  0  0  0  0  0
   11.5571    0.1828   24.7869 C   0  0  0  0  0  0  0  0  0  0  0  0
   12.7637   -0.4378   23.9637 C   0  0  0  0  0  0  0  0  0  0  0  0
   12.3865   -1.2706   23.2119 C   0  0  0  0  0  0  0  0  0  0  0  0
   11.7177   -1.8290   22.7649 C   0  0  0  0  0  0  0  0  0  0  0  0
    9.3882   -0.4598   22.6041 C   0  0  0  0  0  0  0  0  0  0  0  0
    8.8961    0.2298   21.5843 C   0  0  0  0  0  0  0  0  0  0  0  0
    9.5100    1.1525   21.3177 O   0  0  0  0  0  0  0  0  0  0  0  0
    7.7902   -0.3351   21.1348 N   0  0  0  0  0  0  0  0  0  0  0  0
    7.1587    0.2141   20.1971 C   0  0  0  0  0  0  0  0  0  0  0  0
    7.3293    0.3737   18.8921 C   0  0  0  0  0  0  0  0  0  0  0  0
    7.0595    0.7146   17.8012 N   0  0  0  0  0  0  0  0  0  0  0  0
    5.8700    1.3247   18.1290 C   0  0  0  0  0  0  0  0  0  0  0  0
    5.3809    1.3684   19.1997 C   0  0  0  0  0  0  0  0  0  0  0  0
    5.7853    0.8574   20.4032 C   0  0  0  0  0  0  0  0  0  0  0  0
    5.0236    0.9017   21.7383 Cl  0  0  0  0  0  0  0  0  0  0  0  0
    5.6972   -5.5646   26.9282 H   0  0  0  0  0  0  0  0  0  0  0  0
    5.1757   -4.1066   26.0180 H   0  0  0  0  0  0  0  0  0  0  0  0
    5.6121   -5.6085   25.1345 H   0  0  0  0  0  0  0  0  0  0  0  0
    6.7902   -3.0260   24.5558 H   0  0  0  0  0  0  0  0  0  0  0  0
    9.9614    0.3403   25.4323 H   0  0  0  0  0  0  0  0  0  0  0  0
   11.7845    0.9253   25.5374 H   0  0  0  0  0  0  0  0  0  0  0  0
   13.4829   -0.8866   24.6647 H   0  0  0  0  0  0  0  0  0  0  0  0
   13.2581    0.3626   23.3936 H   0  0  0  0  0  0  0  0  0  0  0  0
   10.9938   -2.4334   22.2810 H   0  0  0  0  0  0  0  0  0  0  0  0
    9.8840   -1.2082   22.0037 H   0  0  0  0  0  0  0  0  0  0  0  0
    7.4592   -1.1894   21.5357 H   0  0  0  0  0  0  0  0  0  0  0  0
    8.2957   -0.0846   18.7427 H   0  0  0  0  0  0  0  0  0  0  0  0
    5.3335    1.8101   17.3272 H   0  0  0  0  0  0  0  0  0  0  0  0
    4.4462    1.9081   19.2386 H   0  0  0  0  0  0  0  0  0  0  0  0
 20 21  2  0  0  0  0
 19 20  1  0  0  0  0
 21 22  1  0  0  0  0
 18 19  2  0  0  0  0
 22 23  2  0  0  0  0
 18 23  1  0  0  0  0
 17 18  1  0  0  0  0
 23 24  1  0  0  0  0
 15 16  2  0  0  0  0
 15 17  1  0  0  0  0
 14 15  1  0  0  0  0
 12 13  3  0  0  0  0
  8 14  2  3  0  0  0
 11 12  1  0  0  0  0
 10 11  1  0  0  0  0
  7  8  1  0  0  0  0
  8  9  1  0  0  0  0
  6  7  3  0  0  0  0
  5  6  1  0  0  0  0
  9 10  2  0  0  0  0
  2  5  1  0  0  0  0
  2  3  2  0  0  0  0
  1  2  1  0  0  0  0
  2  4  2  0  0  0  0
  1 25  1  0  0  0  0
  1 26  1  0  0  0  0
  1 27  1  0  0  0  0
  5 28  1  0  0  0  0
  9 29  1  0  0  0  0
 10 30  1  0  0  0  0
 11 31  1  0  0  0  0
 11 32  1  0  0  0  0
 13 33  1  0  0  0  0
 14 34  1  0  0  0  0
 17 35  1  0  0  0  0
 19 36  1  0  0  0  0
 21 37  1  0  0  0  0
 22 38  1  0  0  0  0
M  END
> <Chemgauss4>
-12.417963

$$$$
