REMARK  1 active torsions:
REMARK  status: ('A' for Active; 'I' for Inactive)
REMARK    1  A    between atoms: C_10  and  C_12 
ROOT
HETATM    1  N   UNL     2       7.466  -0.369  22.287  1.00  0.00    -0.375 N 
ATOM      2  HN  UNL     2       7.751  -0.554  23.249  1.00  0.00     0.164 HD
HETATM    3  C   UNL     2       6.725   0.655  21.929  1.00  0.00     0.089 C 
HETATM    4  C   UNL     2       7.954  -0.683  19.973  1.00  0.00     0.041 C 
HETATM    5  C   UNL     2       7.205   0.404  19.639  1.00  0.00     0.036 C 
HETATM    6  C   UNL     2       6.541   1.099  20.616  1.00  0.00     0.041 C 
HETATM    7 CL   UNL     2       6.988   0.746  17.982  1.00  0.00    -0.084 Cl
HETATM    8  C   UNL     2       7.803  -1.138  21.253  1.00  0.00     0.089 C 
ENDROOT
TORSDOF 1
