stable:False satoms:16 tatoms:24 sratio:0.6666666666666666
  -OEChem-07092417323D

 24 24  0     0  0  0  0  0  0999 V2000
    7.6156   -2.3480   24.3567 C   0  0  0  0  0  0  0  0  0  0  0  0
    9.1337   -3.9149   25.1947 N   0  0  0  0  0  0  0  0  0  0  0  0
    6.5195   -1.7782   24.2376 O   0  0  0  0  0  0  0  0  0  0  0  0
    8.0933   -3.2716   25.2245 N   0  0  0  0  0  0  0  0  0  0  0  0
   11.8497   -1.9429   25.0664 H   0  0  0  0  0  0  0  0  0  0  0  0
   10.0896   -3.6470   24.3975 N   0  0  0  0  0  0  0  0  0  0  0  0
   11.0712   -0.3971   24.5964 H   0  0  0  0  0  0  0  0  0  0  0  0
    7.4665   -0.3689   22.2872 N   0  0  0  0  0  0  0  0  0  0  0  0
   11.7655   -1.1736   24.2910 C   0  0  0  0  0  0  0  0  0  0  0  0
    9.9930   -2.5382   23.6849 C   0  0  0  0  0  0  0  0  0  0  0  0
   12.7285   -0.7580   24.0386 H   0  0  0  0  0  0  0  0  0  0  0  0
    6.7252    0.6546   21.9287 C   0  3  0  0  0  0  0  0  0  0  0  0
   11.6308   -1.8604   22.0223 O   0  0  0  0  0  0  0  0  0  0  0  0
    7.9543   -0.6828   19.9728 C   0  0  0  0  0  0  0  0  0  0  0  0
    7.2049    0.4036   19.6387 C   0  0  0  0  0  0  0  0  0  0  0  0
    6.5407    1.0993   20.6158 C   0  0  0  0  0  0  0  0  0  0  0  0
   11.1560   -1.8729   23.1159 C   0  0  0  0  0  0  0  0  0  0  0  0
    8.5654   -1.1877   19.2529 H   0  0  0  0  0  0  0  0  0  0  0  0
    6.9878    0.7458   17.9821 Cl  0  0  0  0  0  0  0  0  0  0  0  0
    8.0079   -2.1746   21.4125 H   0  0  0  0  0  0  0  0  0  0  0  0
    5.8345    1.8629   20.3544 H   0  0  0  0  0  0  0  0  0  0  0  0
    7.8031   -1.1380   21.2531 C   0  0  0  0  0  0  0  0  0  0  0  0
    8.6971   -2.1647   23.6600 C   0  0  0  0  0  0  0  0  0  0  0  0
    6.1502    1.1631   22.7121 H   0  0  0  0  0  0  0  0  0  0  0  0
 15 19  1  0  0  0  0
 14 18  1  0  0  0  0
 14 15  1  0  0  0  0
 15 16  2  0  0  0  0
 14 22  2  0  0  0  0
 16 21  1  0  0  0  0
 12 16  1  0  0  0  0
 20 22  1  0  0  0  0
  8 22  1  0  0  0  0
  8 12  1  0  0  0  0
 12 24  1  0  0  0  0
 13 17  2  0  0  0  0
 10 17  1  0  0  0  0
  9 17  1  0  0  0  0
 10 23  2  0  0  0  0
  1 23  1  0  0  0  0
  6 10  1  0  0  0  0
  9 11  1  0  0  0  0
  1  3  2  0  0  0  0
  7  9  1  0  0  0  0
  5  9  1  0  0  0  0
  1  4  1  0  0  0  0
  2  6  2  0  0  0  0
  2  4  1  0  0  0  0
M  CHG  1  12   1
M  END
> <Shapegauss>
-155.200775

$$$$
