stable:False satoms:19 tatoms:24 sratio:0.7916666666666666
  -OEChem-08052422153D

 24 24  0     1  0  0  0  0  0999 V2000
  -10.3603   -1.0272  -21.9625 C   0  0  1  0  0  0  0  0  0  0  0  0
  -10.4304    1.9047  -23.0712 S   0  0  0  0  0  0  0  0  0  0  0  0
   -9.0826   -1.6706  -25.1950 H   0  0  0  0  0  0  0  0  0  0  0  0
  -12.3535    0.3600  -24.4491 C   0  0  0  0  0  0  0  0  0  0  0  0
  -11.2940    0.5454  -23.5211 C   0  0  0  0  0  0  0  0  0  0  0  0
  -10.9946   -2.1790  -24.0102 H   0  0  0  0  0  0  0  0  0  0  0  0
   -8.2615   -0.8589  -21.5950 H   0  0  0  0  0  0  0  0  0  0  0  0
   -9.3996   -0.2216  -24.2764 H   0  0  0  0  0  0  0  0  0  0  0  0
  -11.0948   -0.5771  -22.9481 N   0  0  0  0  0  0  0  0  0  0  0  0
   -8.5950   -1.9594  -23.2555 O   0  0  0  0  0  0  0  0  0  0  0  0
  -14.1534   -0.5244  -25.0297 H   0  0  0  0  0  0  0  0  0  0  0  0
  -12.3371    0.9065  -25.3541 H   0  0  0  0  0  0  0  0  0  0  0  0
   -7.7345   -0.7487  -24.5567 H   0  0  0  0  0  0  0  0  0  0  0  0
   -8.7423   -1.0884  -24.3557 C   0  0  0  0  0  0  0  0  0  0  0  0
   -8.9161   -2.4823  -21.3511 H   0  0  0  0  0  0  0  0  0  0  0  0
  -13.2566   -2.5859  -23.3553 H   0  0  0  0  0  0  0  0  0  0  0  0
  -13.7061   -1.6242  -23.1826 C   0  0  0  0  0  0  0  0  0  0  0  0
  -11.2931   -2.8477  -22.4259 H   0  0  0  0  0  0  0  0  0  0  0  0
  -13.4071   -1.2675  -22.2075 H   0  0  0  0  0  0  0  0  0  0  0  0
  -13.3760   -0.6350  -24.2483 C   0  0  0  0  0  0  0  0  0  0  0  0
  -11.0776   -1.9228  -22.9615 C   0  0  0  0  0  0  0  0  0  0  0  0
   -8.9472   -1.6027  -21.9676 C   0  0  0  0  0  0  0  0  0  0  0  0
  -14.7797   -1.7856  -23.1716 H   0  0  0  0  0  0  0  0  0  0  0  0
  -10.7355   -0.8862  -20.9682 H   0  0  0  0  0  0  0  0  0  0  0  0
 15 22  1  0  0  0  0
 18 21  1  0  0  0  0
 10 22  1  0  0  0  0
 10 14  1  0  0  0  0
 16 17  1  0  0  0  0
  7 22  1  0  0  0  0
  1 22  1  0  0  0  0
  6 21  1  0  0  0  0
  1 21  1  0  0  0  0
  9 21  1  0  0  0  0
  3 14  1  0  0  0  0
  1 24  1  0  0  0  0
  1  9  1  0  0  0  0
 17 23  1  0  0  0  0
 17 19  1  0  0  0  0
 17 20  1  0  0  0  0
 13 14  1  0  0  0  0
  8 14  1  0  0  0  0
  5  9  1  0  0  0  0
 11 20  1  0  0  0  0
  4 20  2  0  0  0  0
  4  5  1  0  0  0  0
  2  5  2  0  0  0  0
  4 12  1  0  0  0  0
M  END
> <Chemgauss4>
-6.048169

$$$$
