stable:False satoms:19 tatoms:24 sratio:0.7916666666666666
  -OEChem-08052422153D

 24 24  0     1  0  0  0  0  0999 V2000
   10.8618    0.8266   24.7523 C   0  0  1  0  0  0  0  0  0  0  0  0
    9.1646   -1.4021   23.3445 S   0  0  0  0  0  0  0  0  0  0  0  0
   11.2658    1.9081   21.4112 H   0  0  0  0  0  0  0  0  0  0  0  0
   11.8837   -1.7565   22.6634 C   0  0  0  0  0  0  0  0  0  0  0  0
   10.8028   -1.0732   23.2822 C   0  0  0  0  0  0  0  0  0  0  0  0
   12.6084    1.0354   23.0707 H   0  0  0  0  0  0  0  0  0  0  0  0
    9.2327    2.2002   24.5852 H   0  0  0  0  0  0  0  0  0  0  0  0
   10.2445    0.7311   22.1958 H   0  0  0  0  0  0  0  0  0  0  0  0
   11.2983   -0.0875   23.9232 N   0  0  0  0  0  0  0  0  0  0  0  0
   10.6419    2.6141   23.1987 O   0  0  0  0  0  0  0  0  0  0  0  0
   13.8600   -2.4292   22.6409 H   0  0  0  0  0  0  0  0  0  0  0  0
   11.7253   -2.2091   21.7211 H   0  0  0  0  0  0  0  0  0  0  0  0
    9.5543    2.2440   21.5926 H   0  0  0  0  0  0  0  0  0  0  0  0
   10.4195    1.8000   22.0680 C   0  0  0  0  0  0  0  0  0  0  0  0
   10.7356    2.9203   25.1738 H   0  0  0  0  0  0  0  0  0  0  0  0
   14.2524   -0.1973   24.2908 H   0  0  0  0  0  0  0  0  0  0  0  0
   13.8476   -1.1813   24.4475 C   0  0  0  0  0  0  0  0  0  0  0  0
   12.8692    1.4347   24.7497 H   0  0  0  0  0  0  0  0  0  0  0  0
   13.1505   -1.1463   25.2723 H   0  0  0  0  0  0  0  0  0  0  0  0
   13.2118   -1.7439   23.2218 C   0  0  0  0  0  0  0  0  0  0  0  0
   12.2203    0.8819   24.0698 C   0  0  0  0  0  0  0  0  0  0  0  0
   10.3055    2.2211   24.4803 C   0  0  0  0  0  0  0  0  0  0  0  0
   14.6823   -1.8138   24.7338 H   0  0  0  0  0  0  0  0  0  0  0  0
   10.7648    0.5469   25.7827 H   0  0  0  0  0  0  0  0  0  0  0  0
 15 22  1  0  0  0  0
 18 21  1  0  0  0  0
 10 22  1  0  0  0  0
 10 14  1  0  0  0  0
 16 17  1  0  0  0  0
  7 22  1  0  0  0  0
  1 22  1  0  0  0  0
  6 21  1  0  0  0  0
  1 21  1  0  0  0  0
  9 21  1  0  0  0  0
  3 14  1  0  0  0  0
  1 24  1  0  0  0  0
  1  9  1  0  0  0  0
 17 23  1  0  0  0  0
 17 19  1  0  0  0  0
 17 20  1  0  0  0  0
 13 14  1  0  0  0  0
  8 14  1  0  0  0  0
  5  9  1  0  0  0  0
 11 20  1  0  0  0  0
  4 20  2  0  0  0  0
  4  5  1  0  0  0  0
  2  5  2  0  0  0  0
  4 12  1  0  0  0  0
M  END
> <Chemgauss4>
-5.905879

$$$$
