stable:False satoms:8 tatoms:24 sratio:0.3333333333333333
  -OEChem-07092417413D

 24 24  0     1  0  0  0  0  0999 V2000
    6.5732   -4.9091   26.4804 Cl  0  0  0  0  0  0  0  0  0  0  0  0
    8.2711   -4.2901   26.0961 S   0  0  0  0  0  0  0  0  0  0  0  0
    9.1768   -5.3866   26.0101 O   0  0  0  0  0  0  0  0  0  0  0  0
    8.5557   -3.3129   27.0846 O   0  0  0  0  0  0  0  0  0  0  0  0
    8.0784   -3.6286   24.6373 N   0  0  0  0  0  0  0  0  0  0  0  0
    8.9478   -2.9807   24.1843 C   0  0  0  0  0  0  0  0  0  0  0  0
    9.5204   -2.1824   23.5847 C   0  0  0  0  0  0  0  0  0  0  0  0
   10.3023   -1.4306   22.9487 C   0  0  1  0  0  0  0  0  0  0  0  0
   11.1861    0.1504   24.5481 C   0  0  0  0  0  0  0  0  0  0  0  0
   11.9139    0.0192   24.0731 C   0  0  0  0  0  0  0  0  0  0  0  0
   13.6444   -0.4631   23.4152 H   0  0  0  0  0  0  0  0  0  0  0  0
   12.7117   -0.7147   23.2971 C   0  0  0  0  0  0  0  0  0  0  0  0
   11.9299   -1.9449   22.5346 S   0  0  0  0  0  0  0  0  0  0  0  0
    9.7069   -0.5816   22.2829 C   0  0  0  0  0  0  0  0  0  0  0  0
    9.0377    0.0812   21.2971 C   0  0  0  0  0  0  0  0  0  0  0  0
    9.4956    1.0525   20.7816 O   0  0  0  0  0  0  0  0  0  0  0  0
    7.8648   -0.5580   21.0562 N   0  0  0  0  0  0  0  0  0  0  0  0
    7.0995   -0.0322   20.1817 C   0  0  0  0  0  0  0  0  0  0  0  0
    7.0983    0.0869   18.8564 C   0  0  0  0  0  0  0  0  0  0  0  0
    6.6994    0.3997   17.7960 N   0  0  0  0  0  0  0  0  0  0  0  0
    5.6006    0.9343   18.2544 C   0  0  0  0  0  0  0  0  0  0  0  0
    5.2266    1.0094   19.3864 C   0  0  0  0  0  0  0  0  0  0  0  0
    5.7580    0.6179   20.5250 C   0  0  0  0  0  0  0  0  0  0  0  0
    5.1849    0.7739   21.9846 Cl  0  0  0  0  0  0  0  0  0  0  0  0
 20 21  2  0  0  0  0
 19 20  1  0  0  0  0
 21 22  1  0  0  0  0
 18 19  2  0  0  0  0
 22 23  2  0  0  0  0
 18 23  1  0  0  0  0
 17 18  1  0  0  0  0
 23 24  1  0  0  0  0
 15 16  2  0  0  0  0
 15 17  1  0  0  0  0
 14 15  1  0  0  0  0
  8 14  1  0  0  0  0
  8 13  1  0  0  0  0
 12 13  1  0  0  0  0
  7  8  1  0  0  0  0
 11 12  1  0  0  0  0
 10 12  2  0  0  0  0
  6  7  3  0  0  0  0
  9 10  1  0  0  0  0
  5  6  1  0  0  0  0
  2  5  1  0  0  0  0
  2  3  2  0  0  0  0
  1  2  1  0  0  0  0
  2  4  2  0  0  0  0
M  END
> <Shapegauss>
-279.186188

$$$$
