stable:False satoms:8 tatoms:24 sratio:0.3333333333333333
  -OEChem-08062409403D

 36 36  0     1  0  0  0  0  0999 V2000
   -6.6009   -4.9897  -26.5467 Cl  0  0  0  0  0  0  0  0  0  0  0  0
   -8.2669   -4.2485  -26.2493 S   0  0  0  0  0  0  0  0  0  0  0  0
   -9.2585   -5.2716  -26.2545 O   0  0  0  0  0  0  0  0  0  0  0  0
   -8.4107   -3.2257  -27.2221 O   0  0  0  0  0  0  0  0  0  0  0  0
   -8.1180   -3.6435  -24.7611 N   0  0  0  0  0  0  0  0  0  0  0  0
   -8.9620   -2.9410  -24.3427 C   0  0  0  0  0  0  0  0  0  0  0  0
   -9.5085   -2.1161  -23.7549 C   0  0  0  0  0  0  0  0  0  0  0  0
  -10.2692   -1.3219  -23.1452 C   0  0  1  0  0  0  0  0  0  0  0  0
  -10.9230    0.3663  -24.7456 C   0  0  0  0  0  0  0  0  0  0  0  0
  -11.6879    0.2806  -24.3211 C   0  0  0  0  0  0  0  0  0  0  0  0
  -13.4893   -0.0804  -23.7877 H   0  0  0  0  0  0  0  0  0  0  0  0
  -12.5885   -0.4082  -23.6199 C   0  0  0  0  0  0  0  0  0  0  0  0
  -11.9551   -1.7164  -22.8496 S   0  0  0  0  0  0  0  0  0  0  0  0
   -9.6540   -0.5409  -22.4172 C   0  0  0  0  0  0  0  0  0  0  0  0
   -9.0004    0.0402  -21.3712 C   0  0  0  0  0  0  0  0  0  0  0  0
   -9.4140    1.0306  -20.8546 O   0  0  0  0  0  0  0  0  0  0  0  0
   -7.8985   -0.6962  -21.0782 N   0  0  0  0  0  0  0  0  0  0  0  0
   -7.1527   -0.2563  -20.1416 C   0  0  0  0  0  0  0  0  0  0  0  0
   -7.2277   -0.1731  -18.8157 C   0  0  0  0  0  0  0  0  0  0  0  0
   -6.8750    0.0787  -17.7232 N   0  0  0  0  0  0  0  0  0  0  0  0
   -5.7108    0.5366  -18.0952 C   0  0  0  0  0  0  0  0  0  0  0  0
   -5.2600    0.6120  -19.1989 C   0  0  0  0  0  0  0  0  0  0  0  0
   -5.7456    0.2944  -20.3801 C   0  0  0  0  0  0  0  0  0  0  0  0
   -5.0693    0.4433  -21.7956 Cl  0  0  0  0  0  0  0  0  0  0  0  0
   -7.2658   -3.1206  -24.7417 H   0  0  0  0  0  0  0  0  0  0  0  0
  -10.4651   -0.6319  -23.9791 H   0  0  0  0  0  0  0  0  0  0  0  0
  -10.8353    1.3888  -25.1414 H   0  0  0  0  0  0  0  0  0  0  0  0
  -10.0938    0.1701  -24.0499 H   0  0  0  0  0  0  0  0  0  0  0  0
  -10.8824   -0.3532  -25.5767 H   0  0  0  0  0  0  0  0  0  0  0  0
  -12.1409    1.2558  -24.4215 H   0  0  0  0  0  0  0  0  0  0  0  0
  -10.3860    0.2730  -22.5250 H   0  0  0  0  0  0  0  0  0  0  0  0
   -8.8296   -0.3894  -23.1295 H   0  0  0  0  0  0  0  0  0  0  0  0
   -7.6827   -1.5393  -21.5708 H   0  0  0  0  0  0  0  0  0  0  0  0
   -8.2070   -0.5897  -18.6319 H   0  0  0  0  0  0  0  0  0  0  0  0
   -5.0715    0.8940  -17.3016 H   0  0  0  0  0  0  0  0  0  0  0  0
   -4.2605    1.0196  -19.2341 H   0  0  0  0  0  0  0  0  0  0  0  0
 20 21  2  0  0  0  0
 19 20  1  0  0  0  0
 21 22  1  0  0  0  0
 18 19  2  0  0  0  0
 22 23  2  0  0  0  0
 18 23  1  0  0  0  0
 17 18  1  0  0  0  0
 23 24  1  0  0  0  0
 15 16  2  0  0  0  0
 15 17  1  0  0  0  0
 14 15  1  0  0  0  0
  8 14  1  0  0  0  0
  8 13  1  0  0  0  0
 12 13  1  0  0  0  0
  7  8  1  0  0  0  0
 11 12  1  0  0  0  0
 10 12  2  0  0  0  0
  6  7  3  0  0  0  0
  9 10  1  0  0  0  0
  5  6  1  0  0  0  0
  2  5  1  0  0  0  0
  2  3  2  0  0  0  0
  1  2  1  0  0  0  0
  2  4  2  0  0  0  0
  5 25  1  0  0  0  0
  8 26  1  0  0  0  0
  9 27  1  0  0  0  0
  9 28  1  0  0  0  0
  9 29  1  0  0  0  0
 10 30  1  0  0  0  0
 14 31  1  0  0  0  0
 14 32  1  0  0  0  0
 17 33  1  0  0  0  0
 19 34  1  0  0  0  0
 21 35  1  0  0  0  0
 22 36  1  0  0  0  0
M  END
> <Chemgauss4>
-11.943272

$$$$
