stable:False satoms:8 tatoms:24 sratio:0.3333333333333333
  -OEChem-08062409413D

 36 36  0     1  0  0  0  0  0999 V2000
    5.9747   -5.2856   25.9020 Cl  0  0  0  0  0  0  0  0  0  0  0  0
    7.7124   -4.6761   25.7519 S   0  0  0  0  0  0  0  0  0  0  0  0
    8.6093   -5.7820   25.7014 O   0  0  0  0  0  0  0  0  0  0  0  0
    7.8933   -3.7656   26.8249 O   0  0  0  0  0  0  0  0  0  0  0  0
    7.6953   -3.9245   24.3244 N   0  0  0  0  0  0  0  0  0  0  0  0
    8.6182   -3.2667   24.0139 C   0  0  0  0  0  0  0  0  0  0  0  0
    9.2648   -2.4444   23.5338 C   0  0  0  0  0  0  0  0  0  0  0  0
   10.1228   -1.6703   23.0383 C   0  0  1  0  0  0  0  0  0  0  0  0
   10.8361   -0.2050   24.8225 C   0  0  0  0  0  0  0  0  0  0  0  0
   11.6119   -0.3208   24.4259 C   0  0  0  0  0  0  0  0  0  0  0  0
   13.4006   -0.7945   23.9399 H   0  0  0  0  0  0  0  0  0  0  0  0
   12.4847   -1.0213   23.7014 C   0  0  0  0  0  0  0  0  0  0  0  0
   11.7811   -2.1887   22.7805 S   0  0  0  0  0  0  0  0  0  0  0  0
    9.6173   -0.7718   22.3632 C   0  0  0  0  0  0  0  0  0  0  0  0
    9.0728   -0.0386   21.3508 C   0  0  0  0  0  0  0  0  0  0  0  0
    9.5978    0.9533   20.9517 O   0  0  0  0  0  0  0  0  0  0  0  0
    7.9279   -0.6404   20.9393 N   0  0  0  0  0  0  0  0  0  0  0  0
    7.2737   -0.0488   20.0179 C   0  0  0  0  0  0  0  0  0  0  0  0
    7.4254    0.1499   18.7110 C   0  0  0  0  0  0  0  0  0  0  0  0
    7.1540    0.5333   17.6336 N   0  0  0  0  0  0  0  0  0  0  0  0
    6.0162    1.0596   17.9966 C   0  0  0  0  0  0  0  0  0  0  0  0
    5.5161    1.0732   19.0814 C   0  0  0  0  0  0  0  0  0  0  0  0
    5.9093    0.6041   20.2464 C   0  0  0  0  0  0  0  0  0  0  0  0
    5.1749    0.6825   21.6385 Cl  0  0  0  0  0  0  0  0  0  0  0  0
    6.8942   -3.3261   24.3183 H   0  0  0  0  0  0  0  0  0  0  0  0
   10.3339   -1.0814   23.9432 H   0  0  0  0  0  0  0  0  0  0  0  0
   10.8171    0.7801   25.3116 H   0  0  0  0  0  0  0  0  0  0  0  0
   10.0307   -0.2588   24.0752 H   0  0  0  0  0  0  0  0  0  0  0  0
   10.6892   -0.9918   25.5771 H   0  0  0  0  0  0  0  0  0  0  0  0
   12.1422    0.5952   24.6404 H   0  0  0  0  0  0  0  0  0  0  0  0
   10.4108   -0.0421   22.5818 H   0  0  0  0  0  0  0  0  0  0  0  0
    8.7729   -0.6121   23.0498 H   0  0  0  0  0  0  0  0  0  0  0  0
    7.6138   -1.5022   21.3376 H   0  0  0  0  0  0  0  0  0  0  0  0
    8.3730   -0.3360   18.5309 H   0  0  0  0  0  0  0  0  0  0  0  0
    5.4532    1.5463   17.2140 H   0  0  0  0  0  0  0  0  0  0  0  0
    4.5555    1.5659   19.1119 H   0  0  0  0  0  0  0  0  0  0  0  0
 20 21  2  0  0  0  0
 19 20  1  0  0  0  0
 21 22  1  0  0  0  0
 18 19  2  0  0  0  0
 22 23  2  0  0  0  0
 18 23  1  0  0  0  0
 17 18  1  0  0  0  0
 23 24  1  0  0  0  0
 15 16  2  0  0  0  0
 15 17  1  0  0  0  0
 14 15  1  0  0  0  0
  8 14  1  0  0  0  0
  8 13  1  0  0  0  0
 12 13  1  0  0  0  0
  7  8  1  0  0  0  0
 11 12  1  0  0  0  0
 10 12  2  0  0  0  0
  6  7  3  0  0  0  0
  9 10  1  0  0  0  0
  5  6  1  0  0  0  0
  2  5  1  0  0  0  0
  2  3  2  0  0  0  0
  1  2  1  0  0  0  0
  2  4  2  0  0  0  0
  5 25  1  0  0  0  0
  8 26  1  0  0  0  0
  9 27  1  0  0  0  0
  9 28  1  0  0  0  0
  9 29  1  0  0  0  0
 10 30  1  0  0  0  0
 14 31  1  0  0  0  0
 14 32  1  0  0  0  0
 17 33  1  0  0  0  0
 19 34  1  0  0  0  0
 21 35  1  0  0  0  0
 22 36  1  0  0  0  0
M  END
> <Chemgauss4>
-12.052498

$$$$
