MODEL 1
REMARK VINA RESULT:    -6.227      0.000      0.000
REMARK INTER + INTRA:          -7.236
REMARK INTER:                  -6.955
REMARK INTRA:                  -0.281
REMARK UNBOUND:                -0.281
REMARK  2 active torsions:
REMARK  status: ('A' for Active; 'I' for Inactive)
REMARK    1  A    between atoms: N_3  and  C_4 
REMARK    2  A    between atoms: C_5  and  C_8 
ROOT
HETATM    1  N   UNL     1       9.373  -1.410  21.854  1.00  0.00    -0.345 N 
ATOM      2  HN  UNL     1       9.018  -2.079  21.171  1.00  0.00     0.167 HD
HETATM    3  C   UNL     1      11.391  -0.474  23.771  1.00  0.00     0.183 A 
HETATM    4  C   UNL     1      11.399   0.758  24.536  1.00  0.00     0.081 A 
HETATM    5  C   UNL     1       9.532  -1.874  23.063  1.00  0.00     0.130 C 
HETATM    6  H   UNL     1      10.316  -1.784  24.976  1.00  0.00     0.164 HD
HETATM    7  S   UNL     1       9.476   1.126  22.438  1.00  0.00    -0.115 SA
HETATM    8  N   UNL     1      10.368  -1.444  24.034  1.00  0.00    -0.342 N 
HETATM    9  C   UNL     1      11.163   0.756  23.099  1.00  0.00     0.112 A 
HETATM   10  C   UNL     1       9.600  -0.235  21.406  1.00  0.00     0.135 C 
ENDROOT
BRANCH   5  11
HETATM   11  C   UNL     1       8.633  -3.011  23.287  1.00  0.00     0.076 C 
HETATM   12  C   UNL     1       8.491  -3.653  24.555  1.00  0.00     0.035 C 
HETATM   13  C   UNL     1       7.869  -4.854  24.295  1.00  0.00     0.019 C 
HETATM   14  C   UNL     1       7.439  -4.756  22.984  1.00  0.00     0.088 C 
HETATM   15  N   UNL     1       7.934  -3.669  22.367  1.00  0.00    -0.363 N 
ATOM     16  HN  UNL     1       7.801  -3.404  21.391  1.00  0.00     0.165 HD
ENDBRANCH   5  11
BRANCH   3  17
HETATM   17  N   UNL     1      12.773  -1.020  23.644  1.00  0.00    -0.123 N 
HETATM   18  O   UNL     1      13.592  -0.452  24.314  1.00  0.00    -0.534 OA
HETATM   19  O   UNL     1      12.946  -1.901  22.853  1.00  0.00    -0.534 OA
ENDBRANCH   3  17
TORSDOF 2
ENDMDL
MODEL 2
REMARK VINA RESULT:    -5.904      0.690      1.098
REMARK INTER + INTRA:          -6.875
REMARK INTER:                  -6.583
REMARK INTRA:                  -0.292
REMARK UNBOUND:                -0.281
REMARK  2 active torsions:
REMARK  status: ('A' for Active; 'I' for Inactive)
REMARK    1  A    between atoms: N_3  and  C_4 
REMARK    2  A    between atoms: C_5  and  C_8 
ROOT
HETATM    1  N   UNL     1       9.265  -2.012  22.305  1.00  0.00    -0.345 N 
ATOM      2  HN  UNL     1       8.937  -2.849  21.822  1.00  0.00     0.167 HD
HETATM    3  C   UNL     1      11.275  -0.509  23.827  1.00  0.00     0.183 A 
HETATM    4  C   UNL     1      11.217   0.870  24.274  1.00  0.00     0.081 A 
HETATM    5  C   UNL     1       9.503  -2.158  23.578  1.00  0.00     0.130 C 
HETATM    6  H   UNL     1      10.349  -1.555  25.369  1.00  0.00     0.164 HD
HETATM    7  S   UNL     1       9.194   0.591  22.258  1.00  0.00    -0.115 SA
HETATM    8  N   UNL     1      10.340  -1.450  24.371  1.00  0.00    -0.342 N 
HETATM    9  C   UNL     1      10.928   0.503  22.895  1.00  0.00     0.112 A 
HETATM   10  C   UNL     1       9.384  -0.969  21.576  1.00  0.00     0.135 C 
ENDROOT
BRANCH   5  11
HETATM   11  C   UNL     1       8.704  -3.262  24.117  1.00  0.00     0.076 C 
HETATM   12  C   UNL     1       8.409  -3.405  25.508  1.00  0.00     0.035 C 
HETATM   13  C   UNL     1       7.972  -4.701  25.664  1.00  0.00     0.019 C 
HETATM   14  C   UNL     1       7.772  -5.167  24.377  1.00  0.00     0.088 C 
HETATM   15  N   UNL     1       8.251  -4.319  23.450  1.00  0.00    -0.363 N 
ATOM     16  HN  UNL     1       8.265  -4.459  22.439  1.00  0.00     0.165 HD
ENDBRANCH   5  11
BRANCH   3  17
HETATM   17  N   UNL     1      12.689  -0.977  23.760  1.00  0.00    -0.123 N 
HETATM   18  O   UNL     1      12.872  -1.889  23.000  1.00  0.00    -0.534 OA
HETATM   19  O   UNL     1      13.474  -0.465  24.504  1.00  0.00    -0.534 OA
ENDBRANCH   3  17
TORSDOF 2
ENDMDL
MODEL 3
REMARK VINA RESULT:    -5.865      3.080      4.324
REMARK INTER + INTRA:          -6.831
REMARK INTER:                  -6.549
REMARK INTRA:                  -0.282
REMARK UNBOUND:                -0.281
REMARK  2 active torsions:
REMARK  status: ('A' for Active; 'I' for Inactive)
REMARK    1  A    between atoms: N_3  and  C_4 
REMARK    2  A    between atoms: C_5  and  C_8 
ROOT
HETATM    1  N   UNL     1       7.333  -0.589  22.475  1.00  0.00    -0.345 N 
ATOM      2  HN  UNL     1       6.389  -0.204  22.503  1.00  0.00     0.167 HD
HETATM    3  C   UNL     1      10.245  -0.316  22.219  1.00  0.00     0.183 A 
HETATM    4  C   UNL     1      11.256  -1.349  22.325  1.00  0.00     0.081 A 
HETATM    5  C   UNL     1       7.974  -0.419  21.352  1.00  0.00     0.130 C 
HETATM    6  H   UNL     1       9.701  -0.375  20.212  1.00  0.00     0.164 HD
HETATM    7  S   UNL     1       8.865  -2.442  23.474  1.00  0.00    -0.115 SA
HETATM    8  N   UNL     1       9.308  -0.374  21.135  1.00  0.00    -0.342 N 
HETATM    9  C   UNL     1      10.221  -1.192  23.335  1.00  0.00     0.112 A 
HETATM   10  C   UNL     1       7.722  -1.169  23.545  1.00  0.00     0.135 C 
ENDROOT
BRANCH   5  11
HETATM   11  C   UNL     1       7.022  -0.267  20.247  1.00  0.00     0.076 C 
HETATM   12  C   UNL     1       7.389   0.260  18.971  1.00  0.00     0.035 C 
HETATM   13  C   UNL     1       6.203   0.580  18.347  1.00  0.00     0.019 C 
HETATM   14  C   UNL     1       5.221   0.001  19.130  1.00  0.00     0.088 C 
HETATM   15  N   UNL     1       5.709  -0.470  20.292  1.00  0.00    -0.363 N 
ATOM     16  HN  UNL     1       5.179  -0.896  21.052  1.00  0.00     0.165 HD
ENDBRANCH   5  11
BRANCH   3  17
HETATM   17  N   UNL     1      10.841   1.027  22.478  1.00  0.00    -0.123 N 
HETATM   18  O   UNL     1      11.374   1.133  23.549  1.00  0.00    -0.534 OA
HETATM   19  O   UNL     1      10.672   1.872  21.648  1.00  0.00    -0.534 OA
ENDBRANCH   3  17
TORSDOF 2
ENDMDL
MODEL 4
REMARK VINA RESULT:    -5.847      2.757      5.401
REMARK INTER + INTRA:          -6.812
REMARK INTER:                  -6.564
REMARK INTRA:                  -0.248
REMARK UNBOUND:                -0.281
REMARK  2 active torsions:
REMARK  status: ('A' for Active; 'I' for Inactive)
REMARK    1  A    between atoms: N_3  and  C_4 
REMARK    2  A    between atoms: C_5  and  C_8 
ROOT
HETATM    1  N   UNL     1       9.926   1.243  25.124  1.00  0.00    -0.345 N 
ATOM      2  HN  UNL     1       9.845   1.950  25.856  1.00  0.00     0.167 HD
HETATM    3  C   UNL     1      11.490  -0.546  23.400  1.00  0.00     0.183 A 
HETATM    4  C   UNL     1      11.005  -1.512  22.433  1.00  0.00     0.081 A 
HETATM    5  C   UNL     1      10.582   1.613  24.060  1.00  0.00     0.130 C 
HETATM    6  H   UNL     1      11.605   1.218  22.304  1.00  0.00     0.164 HD
HETATM    7  S   UNL     1       8.770  -0.858  24.110  1.00  0.00    -0.115 SA
HETATM    8  N   UNL     1      11.247   0.848  23.165  1.00  0.00    -0.342 N 
HETATM    9  C   UNL     1      10.486  -1.469  23.793  1.00  0.00     0.112 A 
HETATM   10  C   UNL     1       9.371   0.121  25.380  1.00  0.00     0.135 C 
ENDROOT
BRANCH   5  11
HETATM   11  C   UNL     1      10.521   3.070  23.912  1.00  0.00     0.076 C 
HETATM   12  C   UNL     1      11.664   3.870  23.599  1.00  0.00     0.035 C 
HETATM   13  C   UNL     1      11.303   5.165  23.897  1.00  0.00     0.019 C 
HETATM   14  C   UNL     1       9.936   5.116  24.103  1.00  0.00     0.088 C 
HETATM   15  N   UNL     1       9.475   3.854  24.154  1.00  0.00    -0.363 N 
ATOM     16  HN  UNL     1       8.517   3.558  24.341  1.00  0.00     0.165 HD
ENDBRANCH   5  11
BRANCH   3  17
HETATM   17  N   UNL     1      12.875  -0.890  23.833  1.00  0.00    -0.123 N 
HETATM   18  O   UNL     1      13.297  -0.210  24.728  1.00  0.00    -0.534 OA
HETATM   19  O   UNL     1      13.448  -1.740  23.216  1.00  0.00    -0.534 OA
ENDBRANCH   3  17
TORSDOF 2
ENDMDL
MODEL 5
REMARK VINA RESULT:    -5.548      3.625      5.956
REMARK INTER + INTRA:          -6.478
REMARK INTER:                  -6.152
REMARK INTRA:                  -0.326
REMARK UNBOUND:                -0.281
REMARK  2 active torsions:
REMARK  status: ('A' for Active; 'I' for Inactive)
REMARK    1  A    between atoms: N_3  and  C_4 
REMARK    2  A    between atoms: C_5  and  C_8 
ROOT
HETATM    1  N   UNL     1       8.612  -4.070  24.513  1.00  0.00    -0.345 N 
ATOM      2  HN  UNL     1       9.598  -4.187  24.748  1.00  0.00     0.167 HD
HETATM    3  C   UNL     1       6.322  -4.343  22.697  1.00  0.00     0.183 A 
HETATM    4  C   UNL     1       4.935  -3.999  22.943  1.00  0.00     0.081 A 
HETATM    5  C   UNL     1       8.368  -3.296  23.493  1.00  0.00     0.130 C 
HETATM    6  H   UNL     1       7.143  -2.567  21.992  1.00  0.00     0.164 HD
HETATM    7  S   UNL     1       6.208  -4.098  25.513  1.00  0.00    -0.115 SA
HETATM    8  N   UNL     1       7.299  -3.294  22.666  1.00  0.00    -0.342 N 
HETATM    9  C   UNL     1       5.697  -4.808  23.883  1.00  0.00     0.112 A 
HETATM   10  C   UNL     1       7.790  -4.702  25.260  1.00  0.00     0.135 C 
ENDROOT
BRANCH   5  11
HETATM   11  C   UNL     1       9.465  -2.339  23.314  1.00  0.00     0.076 C 
HETATM   12  C   UNL     1       9.976  -1.532  24.376  1.00  0.00     0.035 C 
HETATM   13  C   UNL     1      10.713  -0.540  23.767  1.00  0.00     0.019 C 
HETATM   14  C   UNL     1      10.831  -0.943  22.449  1.00  0.00     0.088 C 
HETATM   15  N   UNL     1      10.047  -1.998  22.168  1.00  0.00    -0.363 N 
ATOM     16  HN  UNL     1       9.924  -2.447  21.260  1.00  0.00     0.165 HD
ENDBRANCH   5  11
BRANCH   3  17
HETATM   17  N   UNL     1       6.425  -5.347  21.598  1.00  0.00    -0.123 N 
HETATM   18  O   UNL     1       7.186  -6.248  21.820  1.00  0.00    -0.534 OA
HETATM   19  O   UNL     1       5.811  -5.126  20.594  1.00  0.00    -0.534 OA
ENDBRANCH   3  17
TORSDOF 2
ENDMDL
MODEL 6
REMARK VINA RESULT:    -5.389     23.238     23.969
REMARK INTER + INTRA:          -6.300
REMARK INTER:                  -6.032
REMARK INTRA:                  -0.267
REMARK UNBOUND:                -0.281
REMARK  2 active torsions:
REMARK  status: ('A' for Active; 'I' for Inactive)
REMARK    1  A    between atoms: N_3  and  C_4 
REMARK    2  A    between atoms: C_5  and  C_8 
ROOT
HETATM    1  N   UNL     1       0.709 -17.204   7.706  1.00  0.00    -0.345 N 
ATOM      2  HN  UNL     1       1.576 -16.882   7.275  1.00  0.00     0.167 HD
HETATM    3  C   UNL     1      -1.138 -17.429   9.977  1.00  0.00     0.183 A 
HETATM    4  C   UNL     1      -2.448 -18.051  10.011  1.00  0.00     0.081 A 
HETATM    5  C   UNL     1       0.853 -18.021   8.712  1.00  0.00     0.130 C 
HETATM    6  H   UNL     1       0.156 -19.002  10.395  1.00  0.00     0.164 HD
HETATM    7  S   UNL     1      -1.811 -17.666   7.240  1.00  0.00    -0.115 SA
HETATM    8  N   UNL     1       0.012 -18.252   9.744  1.00  0.00    -0.342 N 
HETATM    9  C   UNL     1      -2.087 -17.093   8.976  1.00  0.00     0.112 A 
HETATM   10  C   UNL     1      -0.366 -16.749   7.185  1.00  0.00     0.135 C 
ENDROOT
BRANCH   5  11
HETATM   11  C   UNL     1       2.132 -18.731   8.604  1.00  0.00     0.076 C 
HETATM   12  C   UNL     1       2.232 -20.099   8.206  1.00  0.00     0.035 C 
HETATM   13  C   UNL     1       3.501 -20.498   8.565  1.00  0.00     0.019 C 
HETATM   14  C   UNL     1       4.162 -19.329   8.893  1.00  0.00     0.088 C 
HETATM   15  N   UNL     1       3.330 -18.275   8.958  1.00  0.00    -0.363 N 
ATOM     16  HN  UNL     1       3.569 -17.320   9.224  1.00  0.00     0.165 HD
ENDBRANCH   5  11
BRANCH   3  17
HETATM   17  N   UNL     1      -1.003 -16.436  11.082  1.00  0.00    -0.123 N 
HETATM   18  O   UNL     1      -1.495 -15.366  10.849  1.00  0.00    -0.534 OA
HETATM   19  O   UNL     1      -0.369 -16.766  12.042  1.00  0.00    -0.534 OA
ENDBRANCH   3  17
TORSDOF 2
ENDMDL
MODEL 7
REMARK VINA RESULT:    -5.367      2.690      3.737
REMARK INTER + INTRA:          -6.275
REMARK INTER:                  -6.011
REMARK INTRA:                  -0.264
REMARK UNBOUND:                -0.281
REMARK  2 active torsions:
REMARK  status: ('A' for Active; 'I' for Inactive)
REMARK    1  A    between atoms: N_3  and  C_4 
REMARK    2  A    between atoms: C_5  and  C_8 
ROOT
HETATM    1  N   UNL     1       9.630   1.942  21.908  1.00  0.00    -0.345 N 
ATOM      2  HN  UNL     1       9.669   2.416  21.005  1.00  0.00     0.167 HD
HETATM    3  C   UNL     1      10.354  -0.244  23.730  1.00  0.00     0.183 A 
HETATM    4  C   UNL     1       9.997  -0.404  25.126  1.00  0.00     0.081 A 
HETATM    5  C   UNL     1       9.107   0.748  21.891  1.00  0.00     0.130 C 
HETATM    6  H   UNL     1       8.758  -1.116  22.721  1.00  0.00     0.164 HD
HETATM    7  S   UNL     1       9.495   2.346  24.477  1.00  0.00    -0.115 SA
HETATM    8  N   UNL     1       9.314  -0.281  22.743  1.00  0.00    -0.342 N 
HETATM    9  C   UNL     1      10.560   0.841  24.622  1.00  0.00     0.112 A 
HETATM   10  C   UNL     1      10.101   2.601  22.896  1.00  0.00     0.135 C 
ENDROOT
BRANCH   5  11
HETATM   11  C   UNL     1       8.187   0.617  20.757  1.00  0.00     0.076 C 
HETATM   12  C   UNL     1       6.878   1.190  20.745  1.00  0.00     0.035 C 
HETATM   13  C   UNL     1       6.210   0.569  19.713  1.00  0.00     0.019 C 
HETATM   14  C   UNL     1       7.190  -0.113  19.014  1.00  0.00     0.088 C 
HETATM   15  N   UNL     1       8.367  -0.119  19.664  1.00  0.00    -0.363 N 
ATOM     16  HN  UNL     1       9.224  -0.593  19.378  1.00  0.00     0.165 HD
ENDBRANCH   5  11
BRANCH   3  17
HETATM   17  N   UNL     1      11.572  -1.041  23.407  1.00  0.00    -0.123 N 
HETATM   18  O   UNL     1      12.556  -0.706  24.008  1.00  0.00    -0.534 OA
HETATM   19  O   UNL     1      11.475  -1.869  22.548  1.00  0.00    -0.534 OA
ENDBRANCH   3  17
TORSDOF 2
ENDMDL
MODEL 8
REMARK VINA RESULT:    -5.345     11.777     13.406
REMARK INTER + INTRA:          -6.250
REMARK INTER:                  -5.932
REMARK INTRA:                  -0.318
REMARK UNBOUND:                -0.281
REMARK  2 active torsions:
REMARK  status: ('A' for Active; 'I' for Inactive)
REMARK    1  A    between atoms: N_3  and  C_4 
REMARK    2  A    between atoms: C_5  and  C_8 
ROOT
HETATM    1  N   UNL     1      24.141  -2.904  24.278  1.00  0.00    -0.345 N 
ATOM      2  HN  UNL     1      25.070  -3.318  24.346  1.00  0.00     0.167 HD
HETATM    3  C   UNL     1      21.840  -1.479  25.416  1.00  0.00     0.183 A 
HETATM    4  C   UNL     1      20.629  -1.047  24.744  1.00  0.00     0.081 A 
HETATM    5  C   UNL     1      23.232  -3.439  25.045  1.00  0.00     0.130 C 
HETATM    6  H   UNL     1      21.398  -3.424  26.005  1.00  0.00     0.164 HD
HETATM    7  S   UNL     1      22.536  -1.621  22.678  1.00  0.00    -0.115 SA
HETATM    8  N   UNL     1      22.100  -2.884  25.534  1.00  0.00    -0.342 N 
HETATM    9  C   UNL     1      21.947  -0.753  24.201  1.00  0.00     0.112 A 
HETATM   10  C   UNL     1      24.030  -1.933  23.454  1.00  0.00     0.135 C 
ENDROOT
BRANCH   5  11
HETATM   11  C   UNL     1      23.587  -4.828  25.352  1.00  0.00     0.076 C 
HETATM   12  C   UNL     1      24.118  -5.235  26.615  1.00  0.00     0.035 C 
HETATM   13  C   UNL     1      24.650  -6.489  26.407  1.00  0.00     0.019 C 
HETATM   14  C   UNL     1      24.189  -6.869  25.160  1.00  0.00     0.088 C 
HETATM   15  N   UNL     1      23.588  -5.856  24.510  1.00  0.00    -0.363 N 
ATOM     16  HN  UNL     1      23.210  -5.874  23.562  1.00  0.00     0.165 HD
ENDBRANCH   5  11
BRANCH   3  17
HETATM   17  N   UNL     1      22.063  -0.679  26.655  1.00  0.00    -0.123 N 
HETATM   18  O   UNL     1      23.144  -0.161  26.722  1.00  0.00    -0.534 OA
HETATM   19  O   UNL     1      21.195  -0.690  27.479  1.00  0.00    -0.534 OA
ENDBRANCH   3  17
TORSDOF 2
ENDMDL
MODEL 9
REMARK VINA RESULT:    -5.319      2.829      5.004
REMARK INTER + INTRA:          -6.221
REMARK INTER:                  -5.925
REMARK INTRA:                  -0.297
REMARK UNBOUND:                -0.281
REMARK  2 active torsions:
REMARK  status: ('A' for Active; 'I' for Inactive)
REMARK    1  A    between atoms: N_3  and  C_4 
REMARK    2  A    between atoms: C_5  and  C_8 
ROOT
HETATM    1  N   UNL     1       8.877  -0.466  23.846  1.00  0.00    -0.345 N 
ATOM      2  HN  UNL     1       9.291   0.273  24.415  1.00  0.00     0.167 HD
HETATM    3  C   UNL     1       7.975  -3.228  23.426  1.00  0.00     0.183 A 
HETATM    4  C   UNL     1       7.314  -3.790  22.264  1.00  0.00     0.081 A 
HETATM    5  C   UNL     1       9.657  -1.478  23.587  1.00  0.00     0.130 C 
HETATM    6  H   UNL     1       9.996  -3.426  22.977  1.00  0.00     0.164 HD
HETATM    7  S   UNL     1       7.076  -0.940  22.026  1.00  0.00    -0.115 SA
HETATM    8  N   UNL     1       9.322  -2.754  23.294  1.00  0.00    -0.342 N 
HETATM    9  C   UNL     1       6.844  -2.561  22.886  1.00  0.00     0.112 A 
HETATM   10  C   UNL     1       7.666  -0.269  23.486  1.00  0.00     0.135 C 
ENDROOT
BRANCH   5  11
HETATM   11  C   UNL     1      11.061  -1.060  23.651  1.00  0.00     0.076 C 
HETATM   12  C   UNL     1      12.092  -1.673  22.875  1.00  0.00     0.035 C 
HETATM   13  C   UNL     1      13.278  -1.278  23.455  1.00  0.00     0.019 C 
HETATM   14  C   UNL     1      12.925  -0.274  24.339  1.00  0.00     0.088 C 
HETATM   15  N   UNL     1      11.592  -0.173  24.487  1.00  0.00    -0.363 N 
ATOM     16  HN  UNL     1      11.091   0.456  25.114  1.00  0.00     0.165 HD
ENDBRANCH   5  11
BRANCH   3  17
HETATM   17  N   UNL     1       7.705  -4.060  24.634  1.00  0.00    -0.123 N 
HETATM   18  O   UNL     1       6.749  -3.711  25.272  1.00  0.00    -0.534 OA
HETATM   19  O   UNL     1       8.487  -4.929  24.889  1.00  0.00    -0.534 OA
ENDBRANCH   3  17
TORSDOF 2
ENDMDL
