REMARK  6 active torsions:
REMARK  status: ('A' for Active; 'I' for Inactive)
REMARK    1  A    between atoms: C_4  and  C_6 
REMARK    2  A    between atoms: C_6  and  C_8 
REMARK    3  A    between atoms: C_8  and  C_12 
REMARK    4  A    between atoms: C_11  and  S_17 
REMARK    5  A    between atoms: N_14  and  C_16 
REMARK    6  A    between atoms: C_16  and  S_17 
ROOT
HETATM    1  N   UNL     1       9.316  -0.132  21.058  1.00  0.00    -0.250 NA
HETATM    2  H   UNL     1       9.171  -0.098  20.117  1.00  0.00     0.134 HD
HETATM    3  C   UNL     1       8.309  -0.074  21.808  1.00  0.00     0.074 A 
HETATM    4  C   UNL     1       9.327  -0.630  22.108  1.00  0.00     0.048 A 
ENDROOT
BRANCH   4   5
HETATM    5  C   UNL     1      10.448  -1.079  23.113  1.00  0.00    -0.036 C 
HETATM    6  C   UNL     1      11.825  -0.429  23.374  1.00  0.00     0.050 C 
BRANCH   5   7
HETATM    7  C   UNL     1       9.815  -1.745  23.669  1.00  0.00     0.035 C 
BRANCH   7   8
HETATM    8  C   UNL     1       8.486  -2.275  24.130  1.00  0.00     0.028 A 
HETATM    9  N   UNL     1       7.497  -2.008  23.792  1.00  0.00    -0.382 N 
HETATM   10  C   UNL     1       8.079  -3.044  24.976  1.00  0.00     0.127 A 
ATOM     11  HN  UNL     1       6.796  -1.528  23.227  1.00  0.00     0.160 HD
HETATM   12  C   UNL     1       9.040  -3.889  25.889  1.00  0.00     0.039 C 
ENDBRANCH   7   8
ENDBRANCH   5   7
ENDBRANCH   4   5
BRANCH   3  13
HETATM   13  S   UNL     1       6.546   0.399  21.912  1.00  0.00    -0.097 SA
BRANCH  13  14
HETATM   14  C   UNL     1       6.386  -0.287  20.183  1.00  0.00     0.192 C 
BRANCH  14  15
HETATM   15  N   UNL     1       6.951   0.354  18.996  1.00  0.00    -0.422 N 
HETATM   16  H   UNL     1       7.695   0.937  19.231  1.00  0.00     0.150 HD
HETATM   17  H   UNL     1       6.281   0.602  18.352  1.00  0.00     0.150 HD
ENDBRANCH  14  15
ENDBRANCH  13  14
ENDBRANCH   3  13
TORSDOF 6
