stable:False satoms:16 tatoms:24 sratio:0.6666666666666666
  -OEChem-07092417343D

 24 25  0     1  0  0  0  0  0999 V2000
    7.1776   -3.2924   25.4371 H   0  0  0  0  0  0  0  0  0  0  0  0
    8.7849   -4.7872   26.2900 H   0  0  0  0  0  0  0  0  0  0  0  0
    9.0398   -3.8894   25.8888 C   0  5  0  0  0  0  0  0  0  0  0  0
    9.8602   -3.3615   26.1829 H   0  0  0  0  0  0  0  0  0  0  0  0
    7.4965   -2.0081   23.7924 N   0  3  0  0  0  0  0  0  0  0  0  0
    8.4858   -2.2751   24.1298 C   0  0  3  0  0  0  0  0  0  0  0  0
    8.0792   -3.0436   24.9763 C   0  0  2  0  0  0  0  0  0  0  0  0
    9.8148   -1.7446   23.6685 C   0  0  0  0  0  0  0  0  0  0  0  0
   11.7448   -0.1011   24.3824 H   0  0  0  0  0  0  0  0  0  0  0  0
   11.8255   -0.4287   23.3736 C   0  0  0  0  0  0  0  0  0  0  0  0
   12.1201    0.4008   22.7967 H   0  0  0  0  0  0  0  0  0  0  0  0
   12.5849   -1.1668   23.2153 H   0  0  0  0  0  0  0  0  0  0  0  0
   10.4481   -1.0789   23.1134 C   0  0  0  0  0  0  0  0  0  0  0  0
    9.3161   -0.1319   21.0575 N   0  0  0  0  0  0  0  0  0  0  0  0
    9.1707   -0.0983   20.1168 H   0  0  0  0  0  0  0  0  0  0  0  0
    8.3091   -0.0736   21.8084 C   0  0  0  0  0  0  0  0  0  0  0  0
    9.3266   -0.6297   22.1078 C   0  0  0  0  0  0  0  0  0  0  0  0
    6.8203   -1.2666   20.2207 H   0  0  0  0  0  0  0  0  0  0  0  0
    7.6948    0.9374   19.2309 H   0  0  0  0  0  0  0  0  0  0  0  0
    6.9509    0.3540   18.9957 N   0  0  0  0  0  0  0  0  0  0  0  0
    6.2813    0.6015   18.3516 H   0  0  0  0  0  0  0  0  0  0  0  0
    5.3204   -0.3185   20.0657 H   0  0  0  0  0  0  0  0  0  0  0  0
    6.3856   -0.2873   20.1825 C   0  0  0  0  0  0  0  0  0  0  0  0
    6.5461    0.3994   21.9119 S   0  0  0  0  0  0  0  0  0  0  0  0
 20 21  1  0  0  0  0
 19 20  1  0  0  0  0
 20 23  1  0  0  0  0
 22 23  1  0  0  0  0
 14 15  1  0  0  0  0
 18 23  1  0  0  0  0
 23 24  1  0  0  0  0
 14 16  1  0  0  0  0
 14 17  1  0  0  0  0
 16 24  1  0  0  0  0
 16 17  2  0  0  0  0
 13 17  1  0  0  0  0
 10 11  1  0  0  0  0
 10 13  1  0  0  0  0
  8 13  2  0  0  0  0
 10 12  1  0  0  0  0
  9 10  1  0  0  0  0
  6  8  1  0  0  0  0
  5  6  1  0  0  0  0
  5  7  1  0  0  0  0
  6  7  1  0  0  0  0
  1  7  1  0  0  0  0
  3  7  1  0  0  0  0
  3  4  1  0  0  0  0
  2  3  1  0  0  0  0
M  CHG  2   3  -1   5   1
M  END
> <Shapegauss>
-139.756393

$$$$
