MODEL 1
REMARK VINA RESULT:    -4.910      0.000      0.000
REMARK INTER + INTRA:          -6.804
REMARK INTER:                  -6.488
REMARK INTRA:                  -0.316
REMARK UNBOUND:                -0.316
REMARK  6 active torsions:
REMARK  status: ('A' for Active; 'I' for Inactive)
REMARK    1  A    between atoms: C_4  and  C_6 
REMARK    2  A    between atoms: C_6  and  C_8 
REMARK    3  A    between atoms: C_8  and  C_12 
REMARK    4  A    between atoms: C_11  and  S_17 
REMARK    5  A    between atoms: N_14  and  C_16 
REMARK    6  A    between atoms: C_16  and  S_17 
ROOT
HETATM    1  N   UNL     1       1.379 -18.452  10.140  1.00  0.00    -0.250 NA
HETATM    2  H   UNL     1       1.877 -17.655  10.291  1.00  0.00     0.134 HD
HETATM    3  C   UNL     1       0.232 -18.339   9.636  1.00  0.00     0.074 A 
HETATM    4  C   UNL     1       0.924 -19.308   9.499  1.00  0.00     0.048 A 
ENDROOT
BRANCH   4   5
HETATM    5  C   UNL     1       1.181 -20.852   9.365  1.00  0.00    -0.036 C 
HETATM    6  C   UNL     1       0.192 -22.017   9.593  1.00  0.00     0.050 C 
BRANCH   5   7
HETATM    7  C   UNL     1       2.107 -20.748   8.832  1.00  0.00     0.035 C 
BRANCH   7   8
HETATM    8  C   UNL     1       3.236 -21.248   7.974  1.00  0.00     0.028 A 
HETATM    9  N   UNL     1       3.969 -20.681   7.422  1.00  0.00    -0.382 N 
HETATM   10  C   UNL     1       3.651 -22.320   7.585  1.00  0.00     0.127 A 
ATOM     11  HN  UNL     1       4.451 -19.848   7.085  1.00  0.00     0.160 HD
HETATM   12  C   UNL     1       3.040 -23.690   8.057  1.00  0.00     0.039 C 
ENDBRANCH   7   8
ENDBRANCH   5   7
ENDBRANCH   4   5
BRANCH   3  13
HETATM   13  S   UNL     1      -1.155 -17.193   9.317  1.00  0.00    -0.097 SA
BRANCH  13  14
HETATM   14  C   UNL     1       0.125 -16.033   8.609  1.00  0.00     0.192 C 
BRANCH  14  15
HETATM   15  N   UNL     1       1.202 -15.430   9.394  1.00  0.00    -0.422 N 
HETATM   16  H   UNL     1       0.924 -15.279  10.315  1.00  0.00     0.150 HD
HETATM   17  H   UNL     1       1.711 -14.785   8.894  1.00  0.00     0.150 HD
ENDBRANCH  14  15
ENDBRANCH  13  14
ENDBRANCH   3  13
TORSDOF 6
ENDMDL
MODEL 2
REMARK VINA RESULT:    -4.661      1.682      2.560
REMARK INTER + INTRA:          -6.476
REMARK INTER:                  -6.134
REMARK INTRA:                  -0.342
REMARK UNBOUND:                -0.316
REMARK  6 active torsions:
REMARK  status: ('A' for Active; 'I' for Inactive)
REMARK    1  A    between atoms: C_4  and  C_6 
REMARK    2  A    between atoms: C_6  and  C_8 
REMARK    3  A    between atoms: C_8  and  C_12 
REMARK    4  A    between atoms: C_11  and  S_17 
REMARK    5  A    between atoms: N_14  and  C_16 
REMARK    6  A    between atoms: C_16  and  S_17 
ROOT
HETATM    1  N   UNL     1       2.568 -18.039   8.302  1.00  0.00    -0.250 NA
HETATM    2  H   UNL     1       2.916 -17.164   8.162  1.00  0.00     0.134 HD
HETATM    3  C   UNL     1       1.341 -18.221   8.098  1.00  0.00     0.074 A 
HETATM    4  C   UNL     1       2.167 -19.081   7.978  1.00  0.00     0.048 A 
ENDROOT
BRANCH   4   5
HETATM    5  C   UNL     1       2.695 -20.557   8.084  1.00  0.00    -0.036 C 
HETATM    6  C   UNL     1       4.024 -21.145   7.561  1.00  0.00     0.050 C 
BRANCH   5   7
HETATM    7  C   UNL     1       1.983 -20.858   8.830  1.00  0.00     0.035 C 
BRANCH   7   8
HETATM    8  C   UNL     1       1.122 -21.859   9.548  1.00  0.00     0.028 A 
HETATM    9  N   UNL     1       0.084 -21.779   9.832  1.00  0.00    -0.382 N 
HETATM   10  C   UNL     1       1.263 -22.950  10.062  1.00  0.00     0.127 A 
ATOM     11  HN  UNL     1      -0.840 -21.351   9.902  1.00  0.00     0.160 HD
HETATM   12  C   UNL     1       2.613 -23.752   9.994  1.00  0.00     0.039 C 
ENDBRANCH   7   8
ENDBRANCH   5   7
ENDBRANCH   4   5
BRANCH   3  13
HETATM   13  S   UNL     1      -0.286 -17.403   7.930  1.00  0.00    -0.097 SA
BRANCH  13  14
HETATM   14  C   UNL     1       0.228 -16.355   9.388  1.00  0.00     0.192 C 
BRANCH  14  15
HETATM   15  N   UNL     1       1.278 -15.339   9.331  1.00  0.00    -0.422 N 
HETATM   16  H   UNL     1       1.957 -15.495  10.012  1.00  0.00     0.150 HD
HETATM   17  H   UNL     1       0.937 -14.462   9.131  1.00  0.00     0.150 HD
ENDBRANCH  14  15
ENDBRANCH  13  14
ENDBRANCH   3  13
TORSDOF 6
ENDMDL
MODEL 3
REMARK VINA RESULT:    -4.629     24.646     26.822
REMARK INTER + INTRA:          -6.434
REMARK INTER:                  -5.936
REMARK INTRA:                  -0.498
REMARK UNBOUND:                -0.316
REMARK  6 active torsions:
REMARK  status: ('A' for Active; 'I' for Inactive)
REMARK    1  A    between atoms: C_4  and  C_6 
REMARK    2  A    between atoms: C_6  and  C_8 
REMARK    3  A    between atoms: C_8  and  C_12 
REMARK    4  A    between atoms: C_11  and  S_17 
REMARK    5  A    between atoms: N_14  and  C_16 
REMARK    6  A    between atoms: C_16  and  S_17 
ROOT
HETATM    1  N   UNL     1       9.806   0.988  25.403  1.00  0.00    -0.250 NA
HETATM    2  H   UNL     1       9.369   1.234  26.213  1.00  0.00     0.134 HD
HETATM    3  C   UNL     1      10.022   1.891  24.557  1.00  0.00     0.074 A 
HETATM    4  C   UNL     1      10.702   0.911  24.667  1.00  0.00     0.048 A 
ENDROOT
BRANCH   4   5
HETATM    5  C   UNL     1      11.590  -0.262  24.115  1.00  0.00    -0.036 C 
HETATM    6  C   UNL     1      13.109  -0.483  24.287  1.00  0.00     0.050 C 
BRANCH   5   7
HETATM    7  C   UNL     1      10.762  -0.899  23.870  1.00  0.00     0.035 C 
BRANCH   7   8
HETATM    8  C   UNL     1       9.842  -1.612  22.918  1.00  0.00     0.028 A 
HETATM    9  N   UNL     1       9.535  -2.647  22.921  1.00  0.00    -0.382 N 
HETATM   10  C   UNL     1       9.236  -1.349  21.900  1.00  0.00     0.127 A 
ATOM     11  HN  UNL     1       9.477  -3.607  23.259  1.00  0.00     0.160 HD
HETATM   12  C   UNL     1       9.194   0.097  21.286  1.00  0.00     0.039 C 
ENDBRANCH   7   8
ENDBRANCH   5   7
ENDBRANCH   4   5
BRANCH   3  13
HETATM   13  S   UNL     1       9.551   3.570  24.007  1.00  0.00    -0.097 SA
BRANCH  13  14
HETATM   14  C   UNL     1      11.336   3.773  23.500  1.00  0.00     0.192 C 
BRANCH  14  15
HETATM   15  N   UNL     1      11.874   4.979  22.871  1.00  0.00    -0.422 N 
HETATM   16  H   UNL     1      11.877   4.899  21.900  1.00  0.00     0.150 HD
HETATM   17  H   UNL     1      12.608   5.360  23.362  1.00  0.00     0.150 HD
ENDBRANCH  14  15
ENDBRANCH  13  14
ENDBRANCH   3  13
TORSDOF 6
ENDMDL
MODEL 4
REMARK VINA RESULT:    -4.615     22.297     24.366
REMARK INTER + INTRA:          -6.414
REMARK INTER:                  -6.054
REMARK INTRA:                  -0.360
REMARK UNBOUND:                -0.316
REMARK  6 active torsions:
REMARK  status: ('A' for Active; 'I' for Inactive)
REMARK    1  A    between atoms: C_4  and  C_6 
REMARK    2  A    between atoms: C_6  and  C_8 
REMARK    3  A    between atoms: C_8  and  C_12 
REMARK    4  A    between atoms: C_11  and  S_17 
REMARK    5  A    between atoms: N_14  and  C_16 
REMARK    6  A    between atoms: C_16  and  S_17 
ROOT
HETATM    1  N   UNL     1       8.724   0.784  20.989  1.00  0.00    -0.250 NA
HETATM    2  H   UNL     1       9.121   1.447  20.432  1.00  0.00     0.134 HD
HETATM    3  C   UNL     1       7.517   0.498  20.789  1.00  0.00     0.074 A 
HETATM    4  C   UNL     1       8.313  -0.273  21.245  1.00  0.00     0.048 A 
ENDROOT
BRANCH   4   5
HETATM    5  C   UNL     1       8.765  -1.441  22.193  1.00  0.00    -0.036 C 
HETATM    6  C   UNL     1       8.058  -2.786  22.470  1.00  0.00     0.050 C 
BRANCH   5   7
HETATM    7  C   UNL     1       9.772  -1.085  22.309  1.00  0.00     0.035 C 
BRANCH   7   8
HETATM    8  C   UNL     1      11.140  -1.080  22.932  1.00  0.00     0.028 A 
HETATM    9  N   UNL     1      12.029  -1.601  22.615  1.00  0.00    -0.382 N 
HETATM   10  C   UNL     1      11.668  -0.608  23.917  1.00  0.00     0.127 A 
ATOM     11  HN  UNL     1      12.606  -2.198  22.021  1.00  0.00     0.160 HD
HETATM   12  C   UNL     1      10.919   0.365  24.899  1.00  0.00     0.039 C 
ENDBRANCH   7   8
ENDBRANCH   5   7
ENDBRANCH   4   5
BRANCH   3  13
HETATM   13  S   UNL     1       5.951   1.062  20.032  1.00  0.00    -0.097 SA
BRANCH  13  14
HETATM   14  C   UNL     1       5.913  -0.594  19.171  1.00  0.00     0.192 C 
BRANCH  14  15
HETATM   15  N   UNL     1       5.626  -0.766  17.747  1.00  0.00    -0.422 N 
HETATM   16  H   UNL     1       6.444  -0.749  17.219  1.00  0.00     0.150 HD
HETATM   17  H   UNL     1       4.821  -0.316  17.472  1.00  0.00     0.150 HD
ENDBRANCH  14  15
ENDBRANCH  13  14
ENDBRANCH   3  13
TORSDOF 6
ENDMDL
MODEL 5
REMARK VINA RESULT:    -4.599     23.727     26.154
REMARK INTER + INTRA:          -6.394
REMARK INTER:                  -5.915
REMARK INTRA:                  -0.478
REMARK UNBOUND:                -0.316
REMARK  6 active torsions:
REMARK  status: ('A' for Active; 'I' for Inactive)
REMARK    1  A    between atoms: C_4  and  C_6 
REMARK    2  A    between atoms: C_6  and  C_8 
REMARK    3  A    between atoms: C_8  and  C_12 
REMARK    4  A    between atoms: C_11  and  S_17 
REMARK    5  A    between atoms: N_14  and  C_16 
REMARK    6  A    between atoms: C_16  and  S_17 
ROOT
HETATM    1  N   UNL     1      10.889  -1.758  21.935  1.00  0.00    -0.250 NA
HETATM    2  H   UNL     1      11.013  -2.280  21.148  1.00  0.00     0.134 HD
HETATM    3  C   UNL     1       9.827  -1.922  22.586  1.00  0.00     0.074 A 
HETATM    4  C   UNL     1      10.858  -1.564  23.080  1.00  0.00     0.048 A 
ENDROOT
BRANCH   4   5
HETATM    5  C   UNL     1      11.725  -0.730  24.091  1.00  0.00    -0.036 C 
HETATM    6  C   UNL     1      13.255  -0.512  24.096  1.00  0.00     0.050 C 
BRANCH   5   7
HETATM    7  C   UNL     1      10.892  -0.210  24.524  1.00  0.00     0.035 C 
BRANCH   7   8
HETATM    8  C   UNL     1      10.057   1.009  24.803  1.00  0.00     0.028 A 
HETATM    9  N   UNL     1       9.173   1.098  25.415  1.00  0.00    -0.382 N 
HETATM   10  C   UNL     1      10.029   2.169  24.449  1.00  0.00     0.127 A 
ATOM     11  HN  UNL     1       8.435   0.789  26.049  1.00  0.00     0.160 HD
HETATM   12  C   UNL     1      11.124   2.798  23.513  1.00  0.00     0.039 C 
ENDBRANCH   7   8
ENDBRANCH   5   7
ENDBRANCH   4   5
BRANCH   3  13
HETATM   13  S   UNL     1       8.114  -2.560  22.520  1.00  0.00    -0.097 SA
BRANCH  13  14
HETATM   14  C   UNL     1       8.559  -3.562  24.031  1.00  0.00     0.192 C 
BRANCH  14  15
HETATM   15  N   UNL     1       7.585  -4.015  25.024  1.00  0.00    -0.422 N 
HETATM   16  H   UNL     1       7.984  -4.652  25.643  1.00  0.00     0.150 HD
HETATM   17  H   UNL     1       6.704  -4.131  24.656  1.00  0.00     0.150 HD
ENDBRANCH  14  15
ENDBRANCH  13  14
ENDBRANCH   3  13
TORSDOF 6
ENDMDL
MODEL 6
REMARK VINA RESULT:    -4.587     23.395     24.618
REMARK INTER + INTRA:          -6.378
REMARK INTER:                  -5.910
REMARK INTRA:                  -0.467
REMARK UNBOUND:                -0.316
REMARK  6 active torsions:
REMARK  status: ('A' for Active; 'I' for Inactive)
REMARK    1  A    between atoms: C_4  and  C_6 
REMARK    2  A    between atoms: C_6  and  C_8 
REMARK    3  A    between atoms: C_8  and  C_12 
REMARK    4  A    between atoms: C_11  and  S_17 
REMARK    5  A    between atoms: N_14  and  C_16 
REMARK    6  A    between atoms: C_16  and  S_17 
ROOT
HETATM    1  N   UNL     1       8.586  -0.008  19.696  1.00  0.00    -0.250 NA
HETATM    2  H   UNL     1       9.053  -0.494  19.023  1.00  0.00     0.134 HD
HETATM    3  C   UNL     1       7.332   0.041  19.618  1.00  0.00     0.074 A 
HETATM    4  C   UNL     1       7.935   0.115  20.651  1.00  0.00     0.048 A 
ENDROOT
BRANCH   4   5
HETATM    5  C   UNL     1       8.185   0.657  22.104  1.00  0.00    -0.036 C 
HETATM    6  C   UNL     1       7.678   1.969  22.744  1.00  0.00     0.050 C 
BRANCH   5   7
HETATM    7  C   UNL     1       8.546  -0.277  22.492  1.00  0.00     0.035 C 
BRANCH   7   8
HETATM    8  C   UNL     1       9.591  -1.178  23.089  1.00  0.00     0.028 A 
HETATM    9  N   UNL     1       9.948  -2.130  22.729  1.00  0.00    -0.382 N 
HETATM   10  C   UNL     1      10.281  -1.203  24.087  1.00  0.00     0.127 A 
ATOM     11  HN  UNL     1      10.021  -2.927  22.096  1.00  0.00     0.160 HD
HETATM   12  C   UNL     1      10.309  -0.026  25.129  1.00  0.00     0.039 C 
ENDBRANCH   7   8
ENDBRANCH   5   7
ENDBRANCH   4   5
BRANCH   3  13
HETATM   13  S   UNL     1       5.892  -0.171  18.511  1.00  0.00    -0.097 SA
BRANCH  13  14
HETATM   14  C   UNL     1       5.084   1.189  19.502  1.00  0.00     0.192 C 
BRANCH  14  15
HETATM   15  N   UNL     1       4.337   2.297  18.908  1.00  0.00    -0.422 N 
HETATM   16  H   UNL     1       3.823   2.777  19.582  1.00  0.00     0.150 HD
HETATM   17  H   UNL     1       3.982   2.084  18.040  1.00  0.00     0.150 HD
ENDBRANCH  14  15
ENDBRANCH  13  14
ENDBRANCH   3  13
TORSDOF 6
ENDMDL
MODEL 7
REMARK VINA RESULT:    -4.484     20.354     22.486
REMARK INTER + INTRA:          -6.241
REMARK INTER:                  -5.812
REMARK INTRA:                  -0.429
REMARK UNBOUND:                -0.316
REMARK  6 active torsions:
REMARK  status: ('A' for Active; 'I' for Inactive)
REMARK    1  A    between atoms: C_4  and  C_6 
REMARK    2  A    between atoms: C_6  and  C_8 
REMARK    3  A    between atoms: C_8  and  C_12 
REMARK    4  A    between atoms: C_11  and  S_17 
REMARK    5  A    between atoms: N_14  and  C_16 
REMARK    6  A    between atoms: C_16  and  S_17 
ROOT
HETATM    1  N   UNL     1       6.137  -1.585  21.710  1.00  0.00    -0.250 NA
HETATM    2  H   UNL     1       5.212  -1.530  21.931  1.00  0.00     0.134 HD
HETATM    3  C   UNL     1       6.658  -0.602  21.124  1.00  0.00     0.074 A 
HETATM    4  C   UNL     1       7.269  -1.351  21.833  1.00  0.00     0.048 A 
ENDROOT
BRANCH   4   5
HETATM    5  C   UNL     1       8.535  -2.180  22.255  1.00  0.00    -0.036 C 
HETATM    6  C   UNL     1       9.955  -1.668  22.586  1.00  0.00     0.050 C 
BRANCH   5   7
HETATM    7  C   UNL     1       7.990  -3.078  22.477  1.00  0.00     0.035 C 
BRANCH   7   8
HETATM    8  C   UNL     1       7.677  -4.301  23.292  1.00  0.00     0.028 A 
HETATM    9  N   UNL     1       7.799  -4.457  24.353  1.00  0.00    -0.382 N 
HETATM   10  C   UNL     1       7.286  -5.432  23.088  1.00  0.00     0.127 A 
ATOM     11  HN  UNL     1       8.032  -4.214  25.316  1.00  0.00     0.160 HD
HETATM   12  C   UNL     1       6.847  -5.935  21.665  1.00  0.00     0.039 C 
ENDBRANCH   7   8
ENDBRANCH   5   7
ENDBRANCH   4   5
BRANCH   3  13
HETATM   13  S   UNL     1       6.324   0.904  20.144  1.00  0.00    -0.097 SA
BRANCH  13  14
HETATM   14  C   UNL     1       6.376  -0.208  18.645  1.00  0.00     0.192 C 
BRANCH  14  15
HETATM   15  N   UNL     1       5.454  -1.322  18.424  1.00  0.00    -0.422 N 
HETATM   16  H   UNL     1       5.137  -1.689  19.268  1.00  0.00     0.150 HD
HETATM   17  H   UNL     1       5.710  -1.876  17.680  1.00  0.00     0.150 HD
ENDBRANCH  14  15
ENDBRANCH  13  14
ENDBRANCH   3  13
TORSDOF 6
ENDMDL
MODEL 8
REMARK VINA RESULT:    -4.479     22.418     23.558
REMARK INTER + INTRA:          -6.235
REMARK INTER:                  -5.710
REMARK INTRA:                  -0.525
REMARK UNBOUND:                -0.316
REMARK  6 active torsions:
REMARK  status: ('A' for Active; 'I' for Inactive)
REMARK    1  A    between atoms: C_4  and  C_6 
REMARK    2  A    between atoms: C_6  and  C_8 
REMARK    3  A    between atoms: C_8  and  C_12 
REMARK    4  A    between atoms: C_11  and  S_17 
REMARK    5  A    between atoms: N_14  and  C_16 
REMARK    6  A    between atoms: C_16  and  S_17 
ROOT
HETATM    1  N   UNL     1       5.851  -2.294  22.036  1.00  0.00    -0.250 NA
HETATM    2  H   UNL     1       5.221  -3.007  21.985  1.00  0.00     0.134 HD
HETATM    3  C   UNL     1       6.966  -2.535  22.564  1.00  0.00     0.074 A 
HETATM    4  C   UNL     1       6.798  -1.696  21.725  1.00  0.00     0.048 A 
ENDROOT
BRANCH   4   5
HETATM    5  C   UNL     1       7.060  -0.302  21.049  1.00  0.00    -0.036 C 
HETATM    6  C   UNL     1       8.068   0.794  21.459  1.00  0.00     0.050 C 
BRANCH   5   7
HETATM    7  C   UNL     1       6.534  -0.538  20.142  1.00  0.00     0.035 C 
BRANCH   7   8
HETATM    8  C   UNL     1       5.833  -0.191  18.859  1.00  0.00     0.028 A 
HETATM    9  N   UNL     1       5.853  -0.712  17.915  1.00  0.00    -0.382 N 
HETATM   10  C   UNL     1       5.134   0.709  18.441  1.00  0.00     0.127 A 
ATOM     11  HN  UNL     1       6.101  -1.450  17.255  1.00  0.00     0.160 HD
HETATM   12  C   UNL     1       4.633   1.889  19.352  1.00  0.00     0.039 C 
ENDBRANCH   7   8
ENDBRANCH   5   7
ENDBRANCH   4   5
BRANCH   3  13
HETATM   13  S   UNL     1       7.890  -3.674  23.656  1.00  0.00    -0.097 SA
BRANCH  13  14
HETATM   14  C   UNL     1       9.335  -2.510  23.444  1.00  0.00     0.192 C 
BRANCH  14  15
HETATM   15  N   UNL     1       9.522  -1.292  24.231  1.00  0.00    -0.422 N 
HETATM   16  H   UNL     1      10.267  -0.764  23.891  1.00  0.00     0.150 HD
HETATM   17  H   UNL     1       9.370  -1.428  25.171  1.00  0.00     0.150 HD
ENDBRANCH  14  15
ENDBRANCH  13  14
ENDBRANCH   3  13
TORSDOF 6
ENDMDL
MODEL 9
REMARK VINA RESULT:    -4.426     21.845     23.255
REMARK INTER + INTRA:          -6.165
REMARK INTER:                  -5.763
REMARK INTRA:                  -0.402
REMARK UNBOUND:                -0.316
REMARK  6 active torsions:
REMARK  status: ('A' for Active; 'I' for Inactive)
REMARK    1  A    between atoms: C_4  and  C_6 
REMARK    2  A    between atoms: C_6  and  C_8 
REMARK    3  A    between atoms: C_8  and  C_12 
REMARK    4  A    between atoms: C_11  and  S_17 
REMARK    5  A    between atoms: N_14  and  C_16 
REMARK    6  A    between atoms: C_16  and  S_17 
ROOT
HETATM    1  N   UNL     1       8.401   1.257  21.009  1.00  0.00    -0.250 NA
HETATM    2  H   UNL     1       8.714   2.058  20.600  1.00  0.00     0.134 HD
HETATM    3  C   UNL     1       7.259   0.843  20.686  1.00  0.00     0.074 A 
HETATM    4  C   UNL     1       8.144   0.124  21.054  1.00  0.00     0.048 A 
ENDROOT
BRANCH   4   5
HETATM    5  C   UNL     1       8.731  -1.119  21.814  1.00  0.00    -0.036 C 
HETATM    6  C   UNL     1      10.181  -1.362  22.289  1.00  0.00     0.050 C 
BRANCH   5   7
HETATM    7  C   UNL     1       7.774  -1.522  22.088  1.00  0.00     0.035 C 
BRANCH   7   8
HETATM    8  C   UNL     1       6.628  -2.487  21.962  1.00  0.00     0.028 A 
HETATM    9  N   UNL     1       5.679  -2.350  21.468  1.00  0.00    -0.382 N 
HETATM   10  C   UNL     1       6.352  -3.599  22.363  1.00  0.00     0.127 A 
ATOM     11  HN  UNL     1       4.969  -1.866  20.918  1.00  0.00     0.160 HD
HETATM   12  C   UNL     1       7.363  -4.482  23.181  1.00  0.00     0.039 C 
ENDBRANCH   7   8
ENDBRANCH   5   7
ENDBRANCH   4   5
BRANCH   3  13
HETATM   13  S   UNL     1       5.655   1.306  19.940  1.00  0.00    -0.097 SA
BRANCH  13  14
HETATM   14  C   UNL     1       6.300   0.526  18.370  1.00  0.00     0.192 C 
BRANCH  14  15
HETATM   15  N   UNL     1       5.695  -0.644  17.734  1.00  0.00    -0.422 N 
HETATM   16  H   UNL     1       4.743  -0.700  17.931  1.00  0.00     0.150 HD
HETATM   17  H   UNL     1       6.273  -1.413  17.743  1.00  0.00     0.150 HD
ENDBRANCH  14  15
ENDBRANCH  13  14
ENDBRANCH   3  13
TORSDOF 6
ENDMDL
