REMARK  4 active torsions:
REMARK  status: ('A' for Active; 'I' for Inactive)
REMARK    1  A    between atoms: S_2  and  N_5 
REMARK    2  A    between atoms: N_5  and  C_7 
REMARK    3  A    between atoms: C_15  and  C_16 
REMARK       I    between atoms: C_16  and  N_18 
REMARK    4  A    between atoms: N_18  and  C_20 
ROOT
HETATM    1  C   UNL     1       8.935  -2.931  24.148  1.00  0.00     0.109 C 
HETATM    2  C   UNL     1       9.429  -1.947  23.477  1.00  0.00    -0.008 A 
HETATM    3  C   UNL     1      10.423  -1.140  23.245  1.00  0.00     0.058 A 
HETATM    4  C   UNL     1      11.048  -0.103  24.249  1.00  0.00    -0.003 C 
HETATM    5  C   UNL     1      12.057   0.271  24.258  1.00  0.00    -0.002 C 
HETATM    6  C   UNL     1      13.136  -0.188  23.469  1.00  0.00    -0.001 C 
HETATM    7  C   UNL     1      12.879  -1.248  22.665  1.00  0.00    -0.002 C 
HETATM    8  C   UNL     1      11.732  -1.715  22.607  1.00  0.00    -0.003 C 
HETATM    9  C   UNL     1       9.651  -0.662  22.416  1.00  0.00     0.040 A 
ENDROOT
BRANCH   9  10
HETATM   10  C   UNL     1       9.065   0.052  21.380  1.00  0.00     0.254 C 
HETATM   11  O   UNL     1       9.575   1.022  20.969  1.00  0.00    -0.268 OA
HETATM   12  N   UNL     1       7.941  -0.541  21.117  1.00  0.00    -0.320 N 
ATOM     13  HN  UNL     1       7.669  -1.377  21.634  1.00  0.00     0.169 HD
BRANCH  12  14
HETATM   14  C   UNL     1       7.169  -0.065  20.196  1.00  0.00     0.072 A 
HETATM   15  C   UNL     1       7.212   0.010  18.899  1.00  0.00     0.119 A 
HETATM   16  N   UNL     1       6.770   0.299  17.798  1.00  0.00    -0.373 N 
HETATM   17  C   UNL     1       5.676   0.876  18.255  1.00  0.00     0.089 A 
ATOM     18  HN  UNL     1       7.124   0.147  16.854  1.00  0.00     0.164 HD
HETATM   19  C   UNL     1       5.292   0.946  19.418  1.00  0.00     0.043 A 
HETATM   20  C   UNL     1       5.814   0.560  20.556  1.00  0.00     0.063 A 
HETATM   21 CL   UNL     1       5.288   0.717  22.027  1.00  0.00    -0.082 Cl
ENDBRANCH  12  14
ENDBRANCH   9  10
BRANCH   1  22
HETATM   22  N   UNL     1       8.104  -3.540  24.627  1.00  0.00    -0.295 N 
ATOM     23  HN  UNL     1       7.242  -3.624  24.089  1.00  0.00     0.177 HD
BRANCH  22  24
HETATM   24  S   UNL     1       8.124  -4.308  26.094  1.00  0.00     0.226 S 
HETATM   25  C   UNL     1       6.668  -4.793  26.340  1.00  0.00     0.186 C 
HETATM   26  O   UNL     1       9.028  -5.440  25.964  1.00  0.00    -0.206 OA
HETATM   27  O   UNL     1       8.567  -3.423  27.124  1.00  0.00    -0.206 OA
ENDBRANCH  22  24
ENDBRANCH   1  22
TORSDOF 4
