stable:False satoms:9 tatoms:24 sratio:0.375
  -OEChem-07092417473D

 24 26  0     1  0  0  0  0  0999 V2000
    6.6677   -4.7932   26.3405 C   0  0  0  0  0  0  0  0  0  0  0  0
    8.1242   -4.3076   26.0940 S   0  0  0  0  0  0  0  0  0  0  0  0
    9.0285   -5.4401   25.9641 O   0  0  0  0  0  0  0  0  0  0  0  0
    8.5667   -3.4231   27.1243 O   0  0  0  0  0  0  0  0  0  0  0  0
    8.1040   -3.5399   24.6265 N   0  0  0  0  0  0  0  0  0  0  0  0
    8.9349   -2.9311   24.1480 C   0  0  0  0  0  0  0  0  0  0  0  0
    9.4286   -1.9473   23.4770 C   0  0  0  0  0  0  0  0  0  0  0  0
   10.4230   -1.1399   23.2455 C   0  0  1  0  0  0  0  0  0  0  0  0
   11.0478   -0.1030   24.2487 C   0  0  0  0  0  0  0  0  0  0  0  0
   12.0573    0.2713   24.2582 C   0  0  0  0  0  0  0  0  0  0  0  0
   13.1360   -0.1876   23.4687 C   0  0  0  0  0  0  0  0  0  0  0  0
   12.8790   -1.2480   22.6646 C   0  0  0  0  0  0  0  0  0  0  0  0
   11.7320   -1.7150   22.6065 C   0  0  0  0  0  0  0  0  0  0  0  0
    9.6506   -0.6622   22.4157 C   0  0  3  0  0  0  0  0  0  0  0  0
    9.0652    0.0518   21.3803 C   0  0  0  0  0  0  0  0  0  0  0  0
    9.5754    1.0220   20.9689 O   0  0  0  0  0  0  0  0  0  0  0  0
    7.9411   -0.5410   21.1173 N   0  0  0  0  0  0  0  0  0  0  0  0
    7.1690   -0.0646   20.1957 C   0  0  0  0  0  0  0  0  0  0  0  0
    7.2124    0.0104   18.8987 C   0  0  0  0  0  0  0  0  0  0  0  0
    6.7702    0.2992   17.7978 N   0  0  0  0  0  0  0  0  0  0  0  0
    5.6764    0.8762   18.2554 C   0  0  0  0  0  0  0  0  0  0  0  0
    5.2921    0.9455   19.4177 C   0  0  0  0  0  0  0  0  0  0  0  0
    5.8139    0.5597   20.5557 C   0  0  0  0  0  0  0  0  0  0  0  0
    5.2880    0.7174   22.0267 Cl  0  0  0  0  0  0  0  0  0  0  0  0
 20 21  2  0  0  0  0
 19 20  1  0  0  0  0
 21 22  1  0  0  0  0
 18 19  2  0  0  0  0
 22 23  2  0  0  0  0
 18 23  1  0  0  0  0
 17 18  1  0  0  0  0
 23 24  1  0  0  0  0
 15 16  2  0  0  0  0
 15 17  1  0  0  0  0
 14 15  1  0  0  0  0
  8 14  1  0  0  0  0
  7 14  1  0  0  0  0
 12 13  1  0  0  0  0
  8 13  1  0  0  0  0
 11 12  2  0  0  0  0
  7  8  1  0  0  0  0
  8  9  1  0  0  0  0
 10 11  1  0  0  0  0
  6  7  2  0  0  0  0
  5  6  1  0  0  0  0
  9 10  2  0  0  0  0
  2  5  1  0  0  0  0
  2  3  2  0  0  0  0
  1  2  1  0  0  0  0
  2  4  2  0  0  0  0
M  END
> <Shapegauss>
-287.017731

$$$$
