REMARK  7 active torsions:
REMARK  status: ('A' for Active; 'I' for Inactive)
REMARK    1  A    between atoms: S_2  and  N_5 
REMARK    2  A    between atoms: N_5  and  C_7 
REMARK    3  A    between atoms: C_8  and  C_9 
REMARK    4  A    between atoms: C_9  and  C_12 
REMARK    5  A    between atoms: C_11  and  C_12 
REMARK    6  A    between atoms: C_13  and  C_14 
REMARK       I    between atoms: C_14  and  N_16 
REMARK    7  A    between atoms: N_16  and  C_18 
ROOT
HETATM    1  C   UNL     1      10.268  -1.392  22.926  1.00  0.00     0.021 C 
HETATM    2  C   UNL     1       9.868  -0.487  22.173  1.00  0.00     0.094 C 
ENDROOT
BRANCH   1   3
HETATM    3  C   UNL     1       9.409  -2.119  23.676  1.00  0.00    -0.043 C 
HETATM    4  C   UNL     1       8.847  -2.904  24.255  1.00  0.00     0.028 C 
BRANCH   4   5
HETATM    5  N   UNL     1       8.065  -3.708  24.686  1.00  0.00    -0.223 N 
ATOM      6  HN  UNL     1       7.294  -3.975  24.074  1.00  0.00     0.192 HD
BRANCH   5   7
HETATM    7  S   UNL     1       8.118  -4.419  26.165  1.00  0.00     0.216 S 
HETATM    8  O   UNL     1       6.736  -4.890  26.415  1.00  0.00    -0.577 OA
HETATM    9  O   UNL     1       9.038  -5.522  26.116  1.00  0.00    -0.577 OA
HETATM   10  O   UNL     1       8.544  -3.474  27.190  1.00  0.00    -0.577 OA
ENDBRANCH   5   7
ENDBRANCH   4   5
ENDBRANCH   1   3
BRANCH   1  11
HETATM   11  C   UNL     1      11.616  -1.658  22.728  1.00  0.00    -0.006 C 
BRANCH  11  12
HETATM   12  C   UNL     1      12.605  -1.223  22.814  1.00  0.00     0.024 C 
HETATM   13  C   UNL     1      12.304   0.080  23.982  1.00  0.00     0.009 C 
ENDBRANCH  11  12
ENDBRANCH   1  11
BRANCH   2  14
HETATM   14  C   UNL     1       9.071   0.176  21.303  1.00  0.00     0.246 C 
HETATM   15  O   UNL     1       9.463   1.201  20.780  1.00  0.00    -0.268 OA
HETATM   16  N   UNL     1       7.891  -0.467  21.169  1.00  0.00    -0.325 N 
ATOM     17  HN  UNL     1       7.618  -1.227  21.793  1.00  0.00     0.169 HD
BRANCH  16  18
HETATM   18  C   UNL     1       7.123  -0.065  20.203  1.00  0.00     0.036 A 
HETATM   19  C   UNL     1       7.162  -0.017  18.863  1.00  0.00     0.153 A 
HETATM   20  N   UNL     1       6.707   0.249  17.775  1.00  0.00    -0.400 N 
HETATM   21  C   UNL     1       5.677   0.795  18.237  1.00  0.00     0.129 A 
ATOM     22  HN  UNL     1       7.040   0.088  16.825  1.00  0.00     0.154 HD
HETATM   23  C   UNL     1       5.264   0.890  19.395  1.00  0.00     0.002 A 
HETATM   24  C   UNL     1       5.782   0.489  20.517  1.00  0.00     0.025 A 
ENDBRANCH  16  18
ENDBRANCH   2  14
TORSDOF 7
