stable:False satoms:17 tatoms:24 sratio:0.7083333333333334
  -OEChem-07092417313D

 24 25  0     1  0  0  0  0  0999 V2000
    4.4057   -2.5021   25.0692 H   0  0  0  0  0  0  0  0  0  0  0  0
    6.8214   -2.5896   22.8593 C   0  3  0  0  0  0  0  0  0  0  0  0
   12.0056   -3.3159   22.5594 Br  0  0  0  0  0  0  0  0  0  0  0  0
    8.9905   -0.8871   24.0501 H   0  0  0  0  0  0  0  0  0  0  0  0
   11.2322   -1.9413   21.6654 C   0  0  0  0  0  0  0  0  0  0  0  0
    7.1902   -1.5769   24.8427 H   0  0  0  0  0  0  0  0  0  0  0  0
   10.0370    0.4028   21.7075 C   0  0  0  0  0  0  0  0  0  0  0  0
    7.3552   -3.4081   22.4201 H   0  0  0  0  0  0  0  0  0  0  0  0
    6.2591   -1.6373   25.1783 N   0  5  0  0  0  0  0  0  0  0  0  0
   10.1988    2.3283   22.2922 H   0  0  0  0  0  0  0  0  0  0  0  0
   11.8725   -0.8609   21.0203 C   0  0  0  0  0  0  0  0  0  0  0  0
    9.9998   -1.9836   21.5774 N   0  0  1  0  0  0  0  0  0  0  0  0
   12.8823   -0.9587   20.6734 H   0  0  0  0  0  0  0  0  0  0  0  0
    9.7291    1.4637   22.4302 N   0  0  0  0  0  0  0  0  0  0  0  0
    7.3730   -1.4557   22.9922 N   0  0  0  0  0  0  0  0  0  0  0  0
   11.0768    0.2612   20.8258 C   0  0  0  0  0  0  0  0  0  0  0  0
    9.1462    1.3491   23.2353 H   0  0  0  0  0  0  0  0  0  0  0  0
    9.2127   -0.8756   21.7506 C   0  0  2  0  0  0  0  0  0  0  0  0
    8.6387   -1.2746   20.7452 O   0  0  0  0  0  0  0  0  0  0  0  0
   11.2069    0.9548   20.0070 H   0  0  0  0  0  0  0  0  0  0  0  0
    5.2968   -2.2294   24.4933 C   0  0  0  0  0  0  0  0  0  0  0  0
    5.4771   -2.6618   23.2179 C   0  0  0  0  0  0  0  0  0  0  0  0
    4.7248   -3.0926   22.5850 H   0  0  0  0  0  0  0  0  0  0  0  0
    8.4516   -0.7989   23.0990 N   0  3  0  0  0  0  0  0  0  0  0  0
 16 20  1  0  0  0  0
 11 13  1  0  0  0  0
 12 19  1  0  0  0  0
 18 19  1  0  0  0  0
 11 16  1  0  0  0  0
  7 16  2  0  0  0  0
  5 11  2  0  0  0  0
  5 12  1  0  0  0  0
 12 18  1  0  0  0  0
  3  5  1  0  0  0  0
  7 18  1  0  0  0  0
  7 14  1  0  0  0  0
 18 24  1  0  0  0  0
 10 14  1  0  0  0  0
  2  8  1  0  0  0  0
 14 17  1  0  0  0  0
 22 23  1  0  0  0  0
  2 15  1  0  0  0  0
  2 22  1  0  0  0  0
 15 24  2  3  0  0  0
  4 24  1  0  0  0  0
 21 22  2  0  0  0  0
  1 21  1  0  0  0  0
  9 21  1  0  0  0  0
  6  9  1  0  0  0  0
M  CHG  3   2   1   9  -1  24   1
M  END
> <Shapegauss>
-97.568802

$$$$
