stable:False satoms:18 tatoms:24 sratio:0.75
  -OEChem-07092417363D

 24 24  0     1  0  0  0  0  0999 V2000
    7.9630   -3.6637   26.6346 H   0  0  0  0  0  0  0  0  0  0  0  0
    7.0409   -4.0322   25.2396 H   0  0  0  0  0  0  0  0  0  0  0  0
    8.5400   -2.9558   24.6930 O   0  0  0  0  0  0  0  0  0  0  0  0
    8.0385   -3.8678   25.5783 C   0  0  0  0  0  0  0  0  0  0  0  0
    8.6690   -4.7302   25.4184 H   0  0  0  0  0  0  0  0  0  0  0  0
    9.6980   -2.2684   24.7353 C   0  0  3  0  0  0  0  0  0  0  0  0
   10.2139   -1.0427   22.7043 N   0  0  0  0  0  0  0  0  0  0  0  0
    8.3486   -1.2572   23.0293 H   0  0  0  0  0  0  0  0  0  0  0  0
   10.4409   -1.6873   25.3439 N   0  3  0  0  0  0  0  0  0  0  0  0
   11.3598    0.6935   23.0106 H   0  0  0  0  0  0  0  0  0  0  0  0
   11.8584   -1.6587   23.8124 H   0  0  0  0  0  0  0  0  0  0  0  0
   12.1477   -0.5764   22.0466 H   0  0  0  0  0  0  0  0  0  0  0  0
   10.7908   -1.5411   23.7505 C   0  0  1  0  0  0  0  0  0  0  0  0
   11.1719   -0.1042   22.2722 C   0  0  0  0  0  0  0  0  0  0  0  0
    8.6021   -0.1727   21.3103 N   0  0  0  0  0  0  0  0  0  0  0  0
   10.7752    0.3775   21.3382 H   0  0  0  0  0  0  0  0  0  0  0  0
    8.9255   -0.9098   22.2673 N   0  3  0  0  0  0  0  0  0  0  0  0
    7.9068    0.5757   18.9643 H   0  0  0  0  0  0  0  0  0  0  0  0
    7.0526    0.3174   19.5493 C   0  3  0  0  0  0  0  0  0  0  0  0
    5.8946    0.4849   18.9687 N   0  0  0  0  0  0  0  0  0  0  0  0
    5.6906    1.3176   18.4575 H   0  0  0  0  0  0  0  0  0  0  0  0
    5.0719    0.0143   19.3088 H   0  0  0  0  0  0  0  0  0  0  0  0
    7.2882   -0.1059   20.8932 C   0  0  0  0  0  0  0  0  0  0  0  0
    6.0951   -0.4970   21.9701 S   0  0  0  0  0  0  0  0  0  0  0  0
 20 21  1  0  0  0  0
 18 19  1  0  0  0  0
 20 22  1  0  0  0  0
 19 20  1  0  0  0  0
 19 23  1  0  0  0  0
 15 23  1  0  0  0  0
 23 24  2  0  0  0  0
 15 17  2  0  0  0  0
 14 16  1  0  0  0  0
 12 14  1  0  0  0  0
  7 17  1  0  0  0  0
  8 17  1  0  0  0  0
  7 14  1  0  0  0  0
 10 14  1  0  0  0  0
  7 13  1  0  0  0  0
 11 13  1  0  0  0  0
  6 13  1  0  0  0  0
  9 13  1  0  0  0  0
  3  6  1  0  0  0  0
  3  4  1  0  0  0  0
  6  9  1  0  0  0  0
  2  4  1  0  0  0  0
  4  5  1  0  0  0  0
  1  4  1  0  0  0  0
M  CHG  3   9   1  17   1  19   1
M  END
> <Shapegauss>
-140.142410

$$$$
