stable:False satoms:18 tatoms:24 sratio:0.75
  -OEChem-08062400043D

 26 26  0     1  0  0  0  0  0999 V2000
    7.3148   -2.1143   21.5687 H   0  0  0  0  0  0  0  0  0  0  0  0
    7.5670   -0.6140   20.7828 H   0  0  0  0  0  0  0  0  0  0  0  0
    9.1126   -0.9823   21.8692 O   0  0  0  0  0  0  0  0  0  0  0  0
    8.0744   -1.4830   21.1355 C   0  0  0  0  0  0  0  0  0  0  0  0
    8.5761   -2.0119   20.3384 H   0  0  0  0  0  0  0  0  0  0  0  0
    9.9787   -1.6248   22.6769 C   0  0  3  0  0  0  0  0  0  0  0  0
   11.8327   -0.2613   23.4498 N   0  0  0  0  0  0  0  0  0  0  0  0
   10.1486   -2.4057   23.4651 N   0  3  0  0  0  0  0  0  0  0  0  0
   12.5902   -0.8193   25.3303 H   0  0  0  0  0  0  0  0  0  0  0  0
   12.2262   -2.2948   23.3018 H   0  0  0  0  0  0  0  0  0  0  0  0
   13.7236   -0.9976   23.9715 H   0  0  0  0  0  0  0  0  0  0  0  0
   11.5008   -1.5007   23.2776 C   0  0  1  0  0  0  0  0  0  0  0  0
   12.8960   -0.3773   24.3670 C   0  0  0  0  0  0  0  0  0  0  0  0
   11.6773    2.0112   23.7807 N   0  0  0  0  0  0  0  0  0  0  0  0
   13.2811    0.6582   24.5699 H   0  0  0  0  0  0  0  0  0  0  0  0
   11.2036    0.9461   23.3279 N   0  0  0  0  0  0  0  0  0  0  0  0
   11.7884    4.4022   23.6667 C   0  0  0  0  0  2  0  0  0  0  0  0
   11.3547    5.6297   23.5601 N   0  3  0  0  0  0  0  0  0  0  0  0
   12.0668    6.1424   23.0804 H   0  0  0  0  0  0  0  0  0  0  0  0
   11.1990    6.0210   24.4670 H   0  0  0  0  0  0  0  0  0  0  0  0
   11.0110    3.2058   23.5966 C   0  0  0  0  0  0  0  0  0  0  0  0
    9.3788    3.1688   23.3304 S   0  0  0  0  0  0  0  0  0  0  0  0
   10.3119   -2.2904   21.8670 H   0  0  0  0  0  0  0  0  0  0  0  0
   10.1785   -3.3643   23.1819 H   0  0  0  0  0  0  0  0  0  0  0  0
    9.6431   -2.3275   24.3244 H   0  0  0  0  0  0  0  0  0  0  0  0
   10.5025    5.6506   23.0372 H   0  0  0  0  0  0  0  0  0  0  0  0
 18 19  1  0  0  0  0
 18 20  1  0  0  0  0
 17 18  1  0  0  0  0
 17 21  1  0  0  0  0
 14 21  1  0  0  0  0
 21 22  2  0  0  0  0
 14 16  2  0  0  0  0
 13 15  1  0  0  0  0
 11 13  1  0  0  0  0
  7 16  1  0  0  0  0
  7 13  1  0  0  0  0
  9 13  1  0  0  0  0
  7 12  1  0  0  0  0
 10 12  1  0  0  0  0
  6 12  1  0  0  0  0
  8 12  1  0  0  0  0
  3  6  1  0  0  0  0
  3  4  1  0  0  0  0
  6  8  1  0  0  0  0
  2  4  1  0  0  0  0
  4  5  1  0  0  0  0
  1  4  1  0  0  0  0
  6 23  1  0  0  0  0
  8 24  1  0  0  0  0
  8 25  1  0  0  0  0
 18 26  1  0  0  0  0
M  CHG  2   8   1  18   1
M  END
> <Chemgauss4>
-5.931002

$$$$
