stable:False satoms:18 tatoms:24 sratio:0.75
  -OEChem-08062400043D

 26 26  0     1  0  0  0  0  0999 V2000
   -6.0645   -1.1756  -23.4775 H   0  0  0  0  0  0  0  0  0  0  0  0
   -6.3567    0.0901  -22.3618 H   0  0  0  0  0  0  0  0  0  0  0  0
   -8.0413   -0.4093  -23.1477 O   0  0  0  0  0  0  0  0  0  0  0  0
   -6.7859   -0.7959  -22.7715 C   0  0  0  0  0  0  0  0  0  0  0  0
   -6.9805   -1.5408  -22.0138 H   0  0  0  0  0  0  0  0  0  0  0  0
   -8.9631   -1.0770  -23.8686 C   0  0  3  0  0  0  0  0  0  0  0  0
  -11.1486   -0.0219  -23.9297 N   0  0  0  0  0  0  0  0  0  0  0  0
   -9.1925   -1.7364  -24.7475 N   0  3  0  0  0  0  0  0  0  0  0  0
  -12.2465   -0.4100  -25.6805 H   0  0  0  0  0  0  0  0  0  0  0  0
  -11.1539   -2.0889  -24.1275 H   0  0  0  0  0  0  0  0  0  0  0  0
  -12.9624   -1.0403  -24.1795 H   0  0  0  0  0  0  0  0  0  0  0  0
  -10.5856   -1.1761  -24.0933 C   0  0  1  0  0  0  0  0  0  0  0  0
  -12.3722   -0.2051  -24.6039 C   0  0  0  0  0  0  0  0  0  0  0  0
  -11.4552    2.2560  -23.8063 N   0  0  0  0  0  0  0  0  0  0  0  0
  -12.9602    0.7464  -24.5007 H   0  0  0  0  0  0  0  0  0  0  0  0
  -10.7159    1.2535  -23.6959 N   0  0  0  0  0  0  0  0  0  0  0  0
  -11.9255    4.5198  -23.1769 C   0  0  0  0  0  2  0  0  0  0  0  0
  -11.6864    5.7763  -22.9120 N   0  3  0  0  0  0  0  0  0  0  0  0
  -12.3316    6.0439  -22.1963 H   0  0  0  0  0  0  0  0  0  0  0  0
  -11.8269    6.3345  -23.7297 H   0  0  0  0  0  0  0  0  0  0  0  0
  -10.9695    3.5165  -23.5236 C   0  0  0  0  0  0  0  0  0  0  0  0
   -9.3391    3.7772  -23.6235 S   0  0  0  0  0  0  0  0  0  0  0  0
   -8.9711   -1.9208  -23.1629 H   0  0  0  0  0  0  0  0  0  0  0  0
   -8.9935   -2.7134  -24.6700 H   0  0  0  0  0  0  0  0  0  0  0  0
   -8.9358   -1.4152  -25.6590 H   0  0  0  0  0  0  0  0  0  0  0  0
  -10.7466    5.8884  -22.5892 H   0  0  0  0  0  0  0  0  0  0  0  0
 18 19  1  0  0  0  0
 18 20  1  0  0  0  0
 17 18  1  0  0  0  0
 17 21  1  0  0  0  0
 14 21  1  0  0  0  0
 21 22  2  0  0  0  0
 14 16  2  0  0  0  0
 13 15  1  0  0  0  0
 11 13  1  0  0  0  0
  7 16  1  0  0  0  0
  7 13  1  0  0  0  0
  9 13  1  0  0  0  0
  7 12  1  0  0  0  0
 10 12  1  0  0  0  0
  6 12  1  0  0  0  0
  8 12  1  0  0  0  0
  3  6  1  0  0  0  0
  3  4  1  0  0  0  0
  6  8  1  0  0  0  0
  2  4  1  0  0  0  0
  4  5  1  0  0  0  0
  1  4  1  0  0  0  0
  6 23  1  0  0  0  0
  8 24  1  0  0  0  0
  8 25  1  0  0  0  0
 18 26  1  0  0  0  0
M  CHG  2   8   1  18   1
M  END
> <Chemgauss4>
-5.608550

$$$$
