REMARK  11 active torsions:
REMARK  status: ('A' for Active; 'I' for Inactive)
REMARK    1  A    between atoms: S_2  and  N_5 
REMARK    2  A    between atoms: N_5  and  C_7 
REMARK    3  A    between atoms: C_7  and  C_8 
REMARK    4  A    between atoms: C_8  and  C_9 
REMARK    5  A    between atoms: C_9  and  C_15 
REMARK    6  A    between atoms: C_9  and  C_10 
REMARK    7  A    between atoms: C_10  and  C_11 
REMARK    8  A    between atoms: C_11  and  C_12 
REMARK    9  A    between atoms: C_12  and  C_13 
REMARK   10  A    between atoms: C_15  and  C_16 
REMARK       I    between atoms: C_16  and  N_18 
REMARK   11  A    between atoms: N_18  and  C_20 
ROOT
HETATM    1  C   UNL     1      10.286  -1.043  23.298  1.00  0.00     0.096 C 
ENDROOT
BRANCH   1   2
HETATM    2  C   UNL     1       9.428  -1.998  23.512  1.00  0.00     0.125 C 
BRANCH   2   3
HETATM    3  C   UNL     1       8.941  -2.934  24.125  1.00  0.00    -0.059 C 
BRANCH   3   4
HETATM    4  N   UNL     1       8.178  -3.619  24.641  1.00  0.00    -0.254 N 
ATOM      5  HN  UNL     1       7.349  -3.836  24.087  1.00  0.00     0.188 HD
BRANCH   4   6
HETATM    6  S   UNL     1       8.214  -4.295  26.115  1.00  0.00     0.233 S 
HETATM    7  C   UNL     1       6.536  -4.884  26.398  1.00  0.00     0.186 C 
HETATM    8  O   UNL     1       9.043  -5.472  26.068  1.00  0.00    -0.206 OA
HETATM    9  O   UNL     1       8.566  -3.365  27.143  1.00  0.00    -0.206 OA
ENDBRANCH   4   6
ENDBRANCH   3   4
ENDBRANCH   2   3
ENDBRANCH   1   2
BRANCH   1  10
HETATM   10  C   UNL     1       9.694  -0.564  22.388  1.00  0.00    -0.074 C 
BRANCH  10  11
HETATM   11  C   UNL     1       9.075   0.074  21.382  1.00  0.00     0.289 C 
HETATM   12  O   UNL     1       9.552   1.036  20.944  1.00  0.00    -0.259 OA
HETATM   13  N   UNL     1       7.959  -0.553  21.092  1.00  0.00    -0.314 N 
ATOM     14  HN  UNL     1       7.699  -1.403  21.592  1.00  0.00     0.170 HD
BRANCH  13  15
HETATM   15  C   UNL     1       7.203  -0.084  20.175  1.00  0.00     0.072 A 
HETATM   16  C   UNL     1       7.244  -0.010  18.872  1.00  0.00     0.119 A 
HETATM   17  N   UNL     1       6.801   0.290  17.749  1.00  0.00    -0.373 N 
HETATM   18  C   UNL     1       5.695   0.871  18.245  1.00  0.00     0.089 A 
ATOM     19  HN  UNL     1       7.149   0.148  16.801  1.00  0.00     0.164 HD
HETATM   20  C   UNL     1       5.318   0.972  19.383  1.00  0.00     0.043 A 
HETATM   21  C   UNL     1       5.852   0.551  20.537  1.00  0.00     0.063 A 
HETATM   22 CL   UNL     1       5.274   0.683  21.989  1.00  0.00    -0.082 Cl
ENDBRANCH  13  15
ENDBRANCH  10  11
ENDBRANCH   1  10
BRANCH   1  23
HETATM   23  C   UNL     1      10.973  -0.012  24.274  1.00  0.00    -0.013 C 
BRANCH  23  24
HETATM   24  C   UNL     1      12.112   0.262  24.175  1.00  0.00    -0.026 C 
BRANCH  24  25
HETATM   25  C   UNL     1      13.085  -0.058  23.575  1.00  0.00     0.053 C 
BRANCH  25  26
HETATM   26  C   UNL     1      12.677  -1.353  22.666  1.00  0.00    -0.033 C 
HETATM   27  C   UNL     1      11.880  -1.784  22.551  1.00  0.00     0.007 C 
ENDBRANCH  25  26
ENDBRANCH  24  25
ENDBRANCH  23  24
ENDBRANCH   1  23
TORSDOF 11
