stable:False satoms:9 tatoms:24 sratio:0.375
  -OEChem-07092417443D

 24 24  0     1  0  0  0  0  0999 V2000
    6.5362   -4.8844   26.3975 C   0  0  0  0  0  0  0  0  0  0  0  0
    8.2142   -4.2947   26.1153 S   0  0  0  0  0  0  0  0  0  0  0  0
    9.0425   -5.4721   26.0676 O   0  0  0  0  0  0  0  0  0  0  0  0
    8.5661   -3.3645   27.1431 O   0  0  0  0  0  0  0  0  0  0  0  0
    8.1785   -3.6188   24.6412 N   0  0  0  0  0  0  0  0  0  0  0  0
    8.9409   -2.9338   24.1255 C   0  0  0  0  0  0  0  0  0  0  0  0
    9.4276   -1.9983   23.5125 C   0  0  0  0  0  0  0  0  0  0  0  0
   10.2859   -1.0429   23.2979 C   0  0  2  0  0  0  0  0  0  0  0  0
   10.9729   -0.0118   24.2738 C   0  0  0  0  0  0  0  0  0  0  0  0
   12.1124    0.2617   24.1752 C   0  0  0  0  0  0  0  0  0  0  0  0
   13.0851   -0.0582   23.5745 C   0  0  0  0  0  0  0  0  0  0  0  0
   12.6765   -1.3531   22.6662 C   0  0  0  0  0  0  0  0  0  0  0  0
   11.8800   -1.7840   22.5511 C   0  0  0  0  0  0  0  0  0  0  0  0
    9.6938   -0.5637   22.3876 C   0  0  0  0  0  0  0  0  0  0  0  0
    9.0745    0.0737   21.3821 C   0  0  0  0  0  0  0  0  0  0  0  0
    9.5518    1.0357   20.9443 O   0  0  0  0  0  0  0  0  0  0  0  0
    7.9593   -0.5530   21.0918 N   0  0  0  0  0  0  0  0  0  0  0  0
    7.2028   -0.0844   20.1752 C   0  0  0  0  0  0  0  0  0  0  0  0
    7.2435   -0.0102   18.8721 C   0  0  0  0  0  0  0  0  0  0  0  0
    6.8008    0.2898   17.7486 N   0  0  0  0  0  0  0  0  0  0  0  0
    5.6951    0.8710   18.2446 C   0  0  0  0  0  0  0  0  0  0  0  0
    5.3178    0.9718   19.3828 C   0  0  0  0  0  0  0  0  0  0  0  0
    5.8519    0.5506   20.5370 C   0  0  0  0  0  0  0  0  0  0  0  0
    5.2739    0.6833   21.9893 Cl  0  0  0  0  0  0  0  0  0  0  0  0
 20 21  2  0  0  0  0
 19 20  1  0  0  0  0
 21 22  1  0  0  0  0
 18 19  2  0  0  0  0
 22 23  2  0  0  0  0
 18 23  1  0  0  0  0
 17 18  1  0  0  0  0
 23 24  1  0  0  0  0
 15 16  2  0  0  0  0
 15 17  1  0  0  0  0
 14 15  1  0  0  0  0
  8 14  1  0  0  0  0
 12 13  2  0  0  0  0
 11 12  1  0  0  0  0
  7  8  1  0  0  0  0
  8  9  1  0  0  0  0
  6  7  3  0  0  0  0
 10 11  1  0  0  0  0
  5  6  1  0  0  0  0
  9 10  2  0  0  0  0
  2  5  1  0  0  0  0
  2  3  2  0  0  0  0
  1  2  1  0  0  0  0
  2  4  2  0  0  0  0
M  END
> <Shapegauss>
-285.862488

$$$$
