MODEL 1
REMARK VINA RESULT:    -7.892      0.000      0.000
REMARK INTER + INTRA:         -10.513
REMARK INTER:                  -9.737
REMARK INTRA:                  -0.775
REMARK UNBOUND:                -0.775
REMARK  4 active torsions:
REMARK  status: ('A' for Active; 'I' for Inactive)
REMARK    1  A    between atoms: S_2  and  N_5 
REMARK    2  A    between atoms: N_5  and  C_7 
REMARK    3  A    between atoms: C_7  and  C_8 
REMARK    4  A    between atoms: C_16  and  C_17 
REMARK       I    between atoms: C_17  and  N_19 
ROOT
HETATM    1  C   UNL     1       8.808  -2.368  22.945  1.00  0.00     0.041 A 
HETATM    2  C   UNL     1      10.023  -1.278  23.209  1.00  0.00     0.080 A 
HETATM    3  C   UNL     1      10.386  -0.616  24.380  1.00  0.00     0.085 C 
HETATM    4  N   UNL     1      11.364  -0.191  24.765  1.00  0.00    -0.377 N 
ATOM      5  HN  UNL     1      11.454   0.375  25.608  1.00  0.00     0.164 HD
HETATM    6  C   UNL     1      12.331  -0.513  24.009  1.00  0.00     0.087 C 
HETATM    7  C   UNL     1      12.332  -1.170  23.007  1.00  0.00     0.015 C 
HETATM    8  C   UNL     1      11.404  -1.506  22.653  1.00  0.00     0.000 C 
HETATM    9  C   UNL     1       9.089  -1.186  22.383  1.00  0.00     0.050 A 
ENDROOT
BRANCH   9  10
HETATM   10  C   UNL     1       8.666  -0.132  21.301  1.00  0.00     0.256 C 
HETATM   11  O   UNL     1       9.327   0.809  21.031  1.00  0.00    -0.268 OA
HETATM   12  N   UNL     1       7.497  -0.480  20.828  1.00  0.00    -0.308 N 
HETATM   13  C   UNL     1       6.860   0.130  19.893  1.00  0.00     0.122 A 
ATOM     14  HN  UNL     1       7.055  -1.303  21.235  1.00  0.00     0.170 HD
HETATM   15  N   UNL     1       7.222   0.127  18.595  1.00  0.00    -0.286 N 
HETATM   16  C   UNL     1       5.655   0.841  20.245  1.00  0.00     0.051 A 
HETATM   17  N   UNL     1       6.685   0.757  17.696  1.00  0.00    -0.310 N 
ATOM     18  HN  UNL     1       8.019  -0.455  18.338  1.00  0.00     0.188 HD
HETATM   19  C   UNL     1       5.804   1.326  18.069  1.00  0.00     0.107 A 
ATOM     20  HN  UNL     1       7.002   0.760  16.727  1.00  0.00     0.186 HD
HETATM   21  C   UNL     1       5.327   1.385  19.182  1.00  0.00     0.022 A 
ENDBRANCH   9  10
BRANCH   1  22
HETATM   22  C   UNL     1       8.302  -3.406  23.302  1.00  0.00    -0.021 C 
BRANCH  22  23
HETATM   23  N   UNL     1       7.969  -4.497  23.336  1.00  0.00    -0.236 N 
ATOM     24  HN  UNL     1       8.525  -5.102  23.940  1.00  0.00     0.189 HD
BRANCH  23  25
HETATM   25  S   UNL     1       6.738  -5.234  22.565  1.00  0.00     0.327 S 
HETATM   26 CL   UNL     1       5.559  -3.759  22.034  1.00  0.00     0.042 Cl
HETATM   27  O   UNL     1       7.206  -5.818  21.366  1.00  0.00    -0.188 OA
HETATM   28  O   UNL     1       5.993  -6.084  23.423  1.00  0.00    -0.188 OA
ENDBRANCH  23  25
ENDBRANCH  22  23
ENDBRANCH   1  22
TORSDOF 4
ENDMDL
MODEL 2
REMARK VINA RESULT:    -7.576      3.041      6.282
REMARK INTER + INTRA:         -10.123
REMARK INTER:                  -9.456
REMARK INTRA:                  -0.667
REMARK UNBOUND:                -0.775
REMARK  4 active torsions:
REMARK  status: ('A' for Active; 'I' for Inactive)
REMARK    1  A    between atoms: S_2  and  N_5 
REMARK    2  A    between atoms: N_5  and  C_7 
REMARK    3  A    between atoms: C_7  and  C_8 
REMARK    4  A    between atoms: C_16  and  C_17 
REMARK       I    between atoms: C_17  and  N_19 
ROOT
HETATM    1  C   UNL     1       6.764  -1.966  21.842  1.00  0.00     0.041 A 
HETATM    2  C   UNL     1       6.716  -3.460  22.551  1.00  0.00     0.080 A 
HETATM    3  C   UNL     1       5.765  -4.007  23.409  1.00  0.00     0.085 C 
HETATM    4  N   UNL     1       5.429  -5.068  23.625  1.00  0.00    -0.377 N 
ATOM      5  HN  UNL     1       4.788  -5.328  24.374  1.00  0.00     0.164 HD
HETATM    6  C   UNL     1       5.954  -5.889  22.812  1.00  0.00     0.087 C 
HETATM    7  C   UNL     1       6.709  -5.688  21.904  1.00  0.00     0.015 C 
HETATM    8  C   UNL     1       7.038  -4.702  21.763  1.00  0.00     0.000 C 
HETATM    9  C   UNL     1       7.621  -2.603  22.649  1.00  0.00     0.050 A 
ENDROOT
BRANCH   9  10
HETATM   10  C   UNL     1       9.005  -2.532  23.386  1.00  0.00     0.256 C 
HETATM   11  O   UNL     1       9.355  -3.342  24.171  1.00  0.00    -0.268 OA
HETATM   12  N   UNL     1       9.620  -1.446  22.993  1.00  0.00    -0.308 N 
HETATM   13  C   UNL     1      10.798  -1.084  23.357  1.00  0.00     0.122 A 
ATOM     14  HN  UNL     1       9.123  -0.836  22.345  1.00  0.00     0.170 HD
HETATM   15  N   UNL     1      11.937  -1.691  22.972  1.00  0.00    -0.286 N 
HETATM   16  C   UNL     1      10.919   0.072  24.213  1.00  0.00     0.051 A 
HETATM   17  N   UNL     1      13.065  -1.422  23.359  1.00  0.00    -0.310 N 
ATOM     18  HN  UNL     1      11.851  -2.448  22.292  1.00  0.00     0.188 HD
HETATM   19  C   UNL     1      13.056  -0.561  24.063  1.00  0.00     0.107 A 
ATOM     20  HN  UNL     1      13.906  -1.923  23.072  1.00  0.00     0.186 HD
HETATM   21  C   UNL     1      12.131   0.116  24.459  1.00  0.00     0.022 A 
ENDBRANCH   9  10
BRANCH   1  22
HETATM   22  C   UNL     1       6.166  -1.161  21.166  1.00  0.00    -0.021 C 
BRANCH  22  23
HETATM   23  N   UNL     1       5.659  -0.648  20.282  1.00  0.00    -0.236 N 
ATOM     24  HN  UNL     1       4.660  -0.478  20.395  1.00  0.00     0.189 HD
BRANCH  23  25
HETATM   25  S   UNL     1       6.290  -0.146  18.868  1.00  0.00     0.327 S 
HETATM   26 CL   UNL     1       5.393   1.563  18.526  1.00  0.00     0.042 Cl
HETATM   27  O   UNL     1       7.661   0.152  19.035  1.00  0.00    -0.188 OA
HETATM   28  O   UNL     1       5.968  -1.016  17.793  1.00  0.00    -0.188 OA
ENDBRANCH  23  25
ENDBRANCH  22  23
ENDBRANCH   1  22
TORSDOF 4
ENDMDL
MODEL 3
REMARK VINA RESULT:    -7.310      4.513      6.336
REMARK INTER + INTRA:          -9.795
REMARK INTER:                  -9.101
REMARK INTRA:                  -0.694
REMARK UNBOUND:                -0.775
REMARK  4 active torsions:
REMARK  status: ('A' for Active; 'I' for Inactive)
REMARK    1  A    between atoms: S_2  and  N_5 
REMARK    2  A    between atoms: N_5  and  C_7 
REMARK    3  A    between atoms: C_7  and  C_8 
REMARK    4  A    between atoms: C_16  and  C_17 
REMARK       I    between atoms: C_17  and  N_19 
ROOT
HETATM    1  C   UNL     1       7.449  -4.924  25.489  1.00  0.00     0.041 A 
HETATM    2  C   UNL     1       7.080  -4.866  23.878  1.00  0.00     0.080 A 
HETATM    3  C   UNL     1       7.535  -5.665  22.832  1.00  0.00     0.085 C 
HETATM    4  N   UNL     1       7.092  -5.970  21.834  1.00  0.00    -0.377 N 
ATOM      5  HN  UNL     1       7.599  -6.479  21.110  1.00  0.00     0.164 HD
HETATM    6  C   UNL     1       5.883  -5.595  21.736  1.00  0.00     0.087 C 
HETATM    7  C   UNL     1       5.203  -5.000  22.522  1.00  0.00     0.015 C 
HETATM    8  C   UNL     1       5.658  -4.691  23.414  1.00  0.00     0.000 C 
HETATM    9  C   UNL     1       7.563  -3.950  24.578  1.00  0.00     0.050 A 
ENDROOT
BRANCH   9  10
HETATM   10  C   UNL     1       7.988  -2.462  24.317  1.00  0.00     0.256 C 
HETATM   11  O   UNL     1       7.238  -1.643  23.915  1.00  0.00    -0.268 OA
HETATM   12  N   UNL     1       9.262  -2.348  24.590  1.00  0.00    -0.308 N 
HETATM   13  C   UNL     1       9.943  -1.260  24.532  1.00  0.00     0.122 A 
ATOM     14  HN  UNL     1       9.757  -3.195  24.872  1.00  0.00     0.170 HD
HETATM   15  N   UNL     1       9.818  -0.233  25.395  1.00  0.00    -0.286 N 
HETATM   16  C   UNL     1      10.934  -1.135  23.490  1.00  0.00     0.051 A 
HETATM   17  N   UNL     1      10.392   0.843  25.324  1.00  0.00    -0.310 N 
ATOM     18  HN  UNL     1       9.184  -0.367  26.184  1.00  0.00     0.188 HD
HETATM   19  C   UNL     1      11.088   0.874  24.456  1.00  0.00     0.107 A 
ATOM     20  HN  UNL     1      10.251   1.614  25.976  1.00  0.00     0.186 HD
HETATM   21  C   UNL     1      11.348   0.024  23.632  1.00  0.00     0.022 A 
ENDBRANCH   9  10
BRANCH   1  22
HETATM   22  C   UNL     1       7.506  -5.619  26.477  1.00  0.00    -0.021 C 
BRANCH  22  23
HETATM   23  N   UNL     1       7.550  -5.958  27.565  1.00  0.00    -0.236 N 
ATOM     24  HN  UNL     1       8.488  -6.122  27.931  1.00  0.00     0.189 HD
BRANCH  23  25
HETATM   25  S   UNL     1       6.340  -6.219  28.623  1.00  0.00     0.327 S 
HETATM   26 CL   UNL     1       4.713  -5.964  27.558  1.00  0.00     0.042 Cl
HETATM   27  O   UNL     1       6.341  -7.573  29.026  1.00  0.00    -0.188 OA
HETATM   28  O   UNL     1       6.317  -5.258  29.667  1.00  0.00    -0.188 OA
ENDBRANCH  23  25
ENDBRANCH  22  23
ENDBRANCH   1  22
TORSDOF 4
ENDMDL
MODEL 4
REMARK VINA RESULT:    -7.309      3.056      4.853
REMARK INTER + INTRA:          -9.793
REMARK INTER:                  -9.027
REMARK INTRA:                  -0.766
REMARK UNBOUND:                -0.775
REMARK  4 active torsions:
REMARK  status: ('A' for Active; 'I' for Inactive)
REMARK    1  A    between atoms: S_2  and  N_5 
REMARK    2  A    between atoms: N_5  and  C_7 
REMARK    3  A    between atoms: C_7  and  C_8 
REMARK    4  A    between atoms: C_16  and  C_17 
REMARK       I    between atoms: C_17  and  N_19 
ROOT
HETATM    1  C   UNL     1       9.245  -1.889  23.009  1.00  0.00     0.041 A 
HETATM    2  C   UNL     1       8.081  -2.930  23.556  1.00  0.00     0.080 A 
HETATM    3  C   UNL     1       8.119  -4.316  23.689  1.00  0.00     0.085 C 
HETATM    4  N   UNL     1       7.588  -5.048  24.373  1.00  0.00    -0.377 N 
ATOM      5  HN  UNL     1       7.634  -6.062  24.277  1.00  0.00     0.164 HD
HETATM    6  C   UNL     1       6.930  -4.440  25.271  1.00  0.00     0.087 C 
HETATM    7  C   UNL     1       6.814  -3.264  25.469  1.00  0.00     0.015 C 
HETATM    8  C   UNL     1       7.279  -2.615  24.790  1.00  0.00     0.000 C 
HETATM    9  C   UNL     1       7.991  -2.126  22.603  1.00  0.00     0.050 A 
ENDROOT
BRANCH   9  10
HETATM   10  C   UNL     1       6.862  -1.733  21.586  1.00  0.00     0.256 C 
HETATM   11  O   UNL     1       5.929  -2.423  21.369  1.00  0.00    -0.268 OA
HETATM   12  N   UNL     1       7.176  -0.581  21.053  1.00  0.00    -0.308 N 
HETATM   13  C   UNL     1       6.460   0.069  20.207  1.00  0.00     0.122 A 
ATOM     14  HN  UNL     1       8.065  -0.164  21.331  1.00  0.00     0.170 HD
HETATM   15  N   UNL     1       5.302   0.690  20.505  1.00  0.00    -0.286 N 
HETATM   16  C   UNL     1       6.938   0.172  18.850  1.00  0.00     0.051 A 
HETATM   17  N   UNL     1       4.559   1.250  19.712  1.00  0.00    -0.310 N 
ATOM     18  HN  UNL     1       5.018   0.694  21.485  1.00  0.00     0.188 HD
HETATM   19  C   UNL     1       4.976   1.226  18.681  1.00  0.00     0.107 A 
ATOM     20  HN  UNL     1       3.671   1.683  19.964  1.00  0.00     0.186 HD
HETATM   21  C   UNL     1       6.016   0.761  18.269  1.00  0.00     0.022 A 
ENDBRANCH   9  10
BRANCH   1  22
HETATM   22  C   UNL     1      10.390  -1.520  23.125  1.00  0.00    -0.021 C 
BRANCH  22  23
HETATM   23  N   UNL     1      11.328  -0.870  23.122  1.00  0.00    -0.236 N 
ATOM     24  HN  UNL     1      11.953  -1.016  22.329  1.00  0.00     0.189 HD
BRANCH  23  25
HETATM   25  S   UNL     1      11.817   0.255  24.191  1.00  0.00     0.327 S 
HETATM   26 CL   UNL     1      10.482   0.162  25.624  1.00  0.00     0.042 Cl
HETATM   27  O   UNL     1      13.046  -0.135  24.769  1.00  0.00    -0.188 OA
HETATM   28  O   UNL     1      11.771   1.569  23.654  1.00  0.00    -0.188 OA
ENDBRANCH  23  25
ENDBRANCH  22  23
ENDBRANCH   1  22
TORSDOF 4
ENDMDL
MODEL 5
REMARK VINA RESULT:    -7.206     24.311     26.202
REMARK INTER + INTRA:          -9.666
REMARK INTER:                  -8.957
REMARK INTRA:                  -0.709
REMARK UNBOUND:                -0.775
REMARK  4 active torsions:
REMARK  status: ('A' for Active; 'I' for Inactive)
REMARK    1  A    between atoms: S_2  and  N_5 
REMARK    2  A    between atoms: N_5  and  C_7 
REMARK    3  A    between atoms: C_7  and  C_8 
REMARK    4  A    between atoms: C_16  and  C_17 
REMARK       I    between atoms: C_17  and  N_19 
ROOT
HETATM    1  C   UNL     1       7.713  16.421   1.870  1.00  0.00     0.041 A 
HETATM    2  C   UNL     1       8.708  15.458   2.774  1.00  0.00     0.080 A 
HETATM    3  C   UNL     1       9.920  14.862   2.433  1.00  0.00     0.085 C 
HETATM    4  N   UNL     1      10.827  14.542   3.032  1.00  0.00    -0.377 N 
ATOM      5  HN  UNL     1      11.609  14.007   2.653  1.00  0.00     0.164 HD
HETATM    6  C   UNL     1      10.742  14.935   4.236  1.00  0.00     0.087 C 
HETATM    7  C   UNL     1       9.877  15.564   4.775  1.00  0.00     0.015 C 
HETATM    8  C   UNL     1       9.031  15.803   4.204  1.00  0.00     0.000 C 
HETATM    9  C   UNL     1       7.505  15.258   2.499  1.00  0.00     0.050 A 
ENDROOT
BRANCH   9  10
HETATM   10  C   UNL     1       6.458  14.142   2.847  1.00  0.00     0.256 C 
HETATM   11  O   UNL     1       5.722  14.219   3.768  1.00  0.00    -0.268 OA
HETATM   12  N   UNL     1       6.595  13.170   1.982  1.00  0.00    -0.308 N 
HETATM   13  C   UNL     1       5.874  12.107   1.935  1.00  0.00     0.122 A 
ATOM     14  HN  UNL     1       7.336  13.264   1.287  1.00  0.00     0.170 HD
HETATM   15  N   UNL     1       4.585  12.075   1.545  1.00  0.00    -0.286 N 
HETATM   16  C   UNL     1       6.491  10.853   2.293  1.00  0.00     0.051 A 
HETATM   17  N   UNL     1       3.851  11.099   1.562  1.00  0.00    -0.310 N 
ATOM     18  HN  UNL     1       4.184  12.949   1.203  1.00  0.00     0.188 HD
HETATM   19  C   UNL     1       4.392  10.191   1.911  1.00  0.00     0.107 A 
ATOM     20  HN  UNL     1       2.868  11.114   1.290  1.00  0.00     0.186 HD
HETATM   21  C   UNL     1       5.550  10.050   2.239  1.00  0.00     0.022 A 
ENDBRANCH   9  10
BRANCH   1  22
HETATM   22  C   UNL     1       7.636  17.415   1.186  1.00  0.00    -0.021 C 
BRANCH  22  23
HETATM   23  N   UNL     1       7.914  18.317   0.544  1.00  0.00    -0.236 N 
ATOM     24  HN  UNL     1       7.277  18.511  -0.228  1.00  0.00     0.189 HD
BRANCH  23  25
HETATM   25  S   UNL     1       9.174  19.339   0.676  1.00  0.00     0.327 S 
HETATM   26 CL   UNL     1       8.895  20.217   2.407  1.00  0.00     0.042 Cl
HETATM   27  O   UNL     1      10.376  18.604   0.794  1.00  0.00    -0.188 OA
HETATM   28  O   UNL     1       9.158  20.350  -0.320  1.00  0.00    -0.188 OA
ENDBRANCH  23  25
ENDBRANCH  22  23
ENDBRANCH   1  22
TORSDOF 4
ENDMDL
MODEL 6
REMARK VINA RESULT:    -7.132      2.194      2.365
REMARK INTER + INTRA:          -9.576
REMARK INTER:                  -8.958
REMARK INTRA:                  -0.618
REMARK UNBOUND:                -0.775
REMARK  4 active torsions:
REMARK  status: ('A' for Active; 'I' for Inactive)
REMARK    1  A    between atoms: S_2  and  N_5 
REMARK    2  A    between atoms: N_5  and  C_7 
REMARK    3  A    between atoms: C_7  and  C_8 
REMARK    4  A    between atoms: C_16  and  C_17 
REMARK       I    between atoms: C_17  and  N_19 
ROOT
HETATM    1  C   UNL     1       9.074  -1.935  24.431  1.00  0.00     0.041 A 
HETATM    2  C   UNL     1      10.385  -1.013  24.023  1.00  0.00     0.080 A 
HETATM    3  C   UNL     1      11.074  -0.065  24.777  1.00  0.00     0.085 C 
HETATM    4  N   UNL     1      12.143   0.312  24.767  1.00  0.00    -0.377 N 
ATOM      5  HN  UNL     1      12.480   1.104  25.314  1.00  0.00     0.164 HD
HETATM    6  C   UNL     1      12.864  -0.380  23.985  1.00  0.00     0.087 C 
HETATM    7  C   UNL     1      12.569  -1.322  23.306  1.00  0.00     0.015 C 
HETATM    8  C   UNL     1      11.562  -1.614  23.303  1.00  0.00     0.000 C 
HETATM    9  C   UNL     1       9.280  -1.059  23.440  1.00  0.00     0.050 A 
ENDROOT
BRANCH   9  10
HETATM   10  C   UNL     1       8.667  -0.368  22.172  1.00  0.00     0.256 C 
HETATM   11  O   UNL     1       9.264  -0.239  21.161  1.00  0.00    -0.268 OA
HETATM   12  N   UNL     1       7.457   0.031  22.470  1.00  0.00    -0.308 N 
HETATM   13  C   UNL     1       6.639   0.601  21.659  1.00  0.00     0.122 A 
ATOM     14  HN  UNL     1       7.137  -0.123  23.426  1.00  0.00     0.170 HD
HETATM   15  N   UNL     1       6.022  -0.020  20.634  1.00  0.00    -0.286 N 
HETATM   16  C   UNL     1       6.330   1.993  21.875  1.00  0.00     0.051 A 
HETATM   17  N   UNL     1       5.301   0.508  19.801  1.00  0.00    -0.310 N 
ATOM     18  HN  UNL     1       6.172  -1.025  20.546  1.00  0.00     0.188 HD
HETATM   19  C   UNL     1       5.170   1.593  20.008  1.00  0.00     0.107 A 
ATOM     20  HN  UNL     1       4.875   0.016  19.016  1.00  0.00     0.186 HD
HETATM   21  C   UNL     1       5.608   2.275  20.909  1.00  0.00     0.022 A 
ENDBRANCH   9  10
BRANCH   1  22
HETATM   22  C   UNL     1       8.608  -2.711  25.232  1.00  0.00    -0.021 C 
BRANCH  22  23
HETATM   23  N   UNL     1       8.420  -3.300  26.191  1.00  0.00    -0.236 N 
ATOM     24  HN  UNL     1       8.529  -2.768  27.055  1.00  0.00     0.189 HD
BRANCH  23  25
HETATM   25  S   UNL     1       8.004  -4.862  26.389  1.00  0.00     0.327 S 
HETATM   26 CL   UNL     1       6.300  -5.025  25.433  1.00  0.00     0.042 Cl
HETATM   27  O   UNL     1       8.922  -5.691  25.706  1.00  0.00    -0.188 OA
HETATM   28  O   UNL     1       7.760  -5.189  27.748  1.00  0.00    -0.188 OA
ENDBRANCH  23  25
ENDBRANCH  22  23
ENDBRANCH   1  22
TORSDOF 4
ENDMDL
MODEL 7
REMARK VINA RESULT:    -7.126     19.812     22.593
REMARK INTER + INTRA:          -9.568
REMARK INTER:                  -8.852
REMARK INTRA:                  -0.716
REMARK UNBOUND:                -0.775
REMARK  4 active torsions:
REMARK  status: ('A' for Active; 'I' for Inactive)
REMARK    1  A    between atoms: S_2  and  N_5 
REMARK    2  A    between atoms: N_5  and  C_7 
REMARK    3  A    between atoms: C_7  and  C_8 
REMARK    4  A    between atoms: C_16  and  C_17 
REMARK       I    between atoms: C_17  and  N_19 
ROOT
HETATM    1  C   UNL     1       6.576  10.949   3.203  1.00  0.00     0.041 A 
HETATM    2  C   UNL     1       4.968  11.317   3.318  1.00  0.00     0.080 A 
HETATM    3  C   UNL     1       4.294  12.067   4.279  1.00  0.00     0.085 C 
HETATM    4  N   UNL     1       3.344  12.685   4.259  1.00  0.00    -0.377 N 
ATOM      5  HN  UNL     1       2.905  13.094   5.084  1.00  0.00     0.164 HD
HETATM    6  C   UNL     1       2.897  12.800   3.077  1.00  0.00     0.087 C 
HETATM    7  C   UNL     1       3.333  12.364   2.050  1.00  0.00     0.015 C 
HETATM    8  C   UNL     1       4.186  11.758   2.110  1.00  0.00     0.000 C 
HETATM    9  C   UNL     1       5.484  10.179   3.274  1.00  0.00     0.050 A 
ENDROOT
BRANCH   9  10
HETATM   10  C   UNL     1       4.931   8.710   3.281  1.00  0.00     0.256 C 
HETATM   11  O   UNL     1       4.580   8.153   2.300  1.00  0.00    -0.268 OA
HETATM   12  N   UNL     1       4.916   8.286   4.518  1.00  0.00    -0.308 N 
HETATM   13  C   UNL     1       4.563   7.111   4.899  1.00  0.00     0.122 A 
ATOM     14  HN  UNL     1       5.208   8.944   5.241  1.00  0.00     0.170 HD
HETATM   15  N   UNL     1       5.278   5.990   4.680  1.00  0.00    -0.286 N 
HETATM   16  C   UNL     1       3.333   6.979   5.642  1.00  0.00     0.051 A 
HETATM   17  N   UNL     1       4.937   4.851   4.959  1.00  0.00    -0.310 N 
ATOM     18  HN  UNL     1       6.192   6.103   4.239  1.00  0.00     0.188 HD
HETATM   19  C   UNL     1       3.949   4.838   5.471  1.00  0.00     0.107 A 
ATOM     20  HN  UNL     1       5.487   4.018   4.751  1.00  0.00     0.186 HD
HETATM   21  C   UNL     1       3.219   5.754   5.785  1.00  0.00     0.022 A 
ENDBRANCH   9  10
BRANCH   1  22
HETATM   22  C   UNL     1       7.703  11.388   3.181  1.00  0.00    -0.021 C 
BRANCH  22  23
HETATM   23  N   UNL     1       8.641  11.986   3.433  1.00  0.00    -0.236 N 
ATOM     24  HN  UNL     1       9.469  11.428   3.640  1.00  0.00     0.189 HD
BRANCH  23  25
HETATM   25  S   UNL     1       8.856  13.598   3.511  1.00  0.00     0.327 S 
HETATM   26 CL   UNL     1       8.022  14.270   1.869  1.00  0.00     0.042 Cl
HETATM   27  O   UNL     1       8.105  14.130   4.584  1.00  0.00    -0.188 OA
HETATM   28  O   UNL     1      10.227  13.964   3.470  1.00  0.00    -0.188 OA
ENDBRANCH  23  25
ENDBRANCH  22  23
ENDBRANCH   1  22
TORSDOF 4
ENDMDL
MODEL 8
REMARK VINA RESULT:    -7.103     22.719     24.603
REMARK INTER + INTRA:          -9.540
REMARK INTER:                  -8.925
REMARK INTRA:                  -0.615
REMARK UNBOUND:                -0.775
REMARK  4 active torsions:
REMARK  status: ('A' for Active; 'I' for Inactive)
REMARK    1  A    between atoms: S_2  and  N_5 
REMARK    2  A    between atoms: N_5  and  C_7 
REMARK    3  A    between atoms: C_7  and  C_8 
REMARK    4  A    between atoms: C_16  and  C_17 
REMARK       I    between atoms: C_17  and  N_19 
ROOT
HETATM    1  C   UNL     1       8.671  13.363   3.341  1.00  0.00     0.041 A 
HETATM    2  C   UNL     1       8.921  14.873   2.716  1.00  0.00     0.080 A 
HETATM    3  C   UNL     1       9.377  15.249   1.454  1.00  0.00     0.085 C 
HETATM    4  N   UNL     1       9.221  16.169   0.811  1.00  0.00    -0.377 N 
ATOM      5  HN  UNL     1       9.719  16.355  -0.059  1.00  0.00     0.164 HD
HETATM    6  C   UNL     1       8.346  16.937   1.316  1.00  0.00     0.087 C 
HETATM    7  C   UNL     1       7.708  16.811   2.323  1.00  0.00     0.015 C 
HETATM    8  C   UNL     1       7.912  15.972   2.918  1.00  0.00     0.000 C 
HETATM    9  C   UNL     1       9.438  14.384   3.744  1.00  0.00     0.050 A 
ENDROOT
BRANCH   9  10
HETATM   10  C   UNL     1      10.441  14.900   4.834  1.00  0.00     0.256 C 
HETATM   11  O   UNL     1      11.577  14.578   4.862  1.00  0.00    -0.268 OA
HETATM   12  N   UNL     1       9.785  15.678   5.656  1.00  0.00    -0.308 N 
HETATM   13  C   UNL     1      10.297  16.314   6.649  1.00  0.00     0.122 A 
ATOM     14  HN  UNL     1       8.784  15.789   5.496  1.00  0.00     0.170 HD
HETATM   15  N   UNL     1      11.118  17.375   6.535  1.00  0.00    -0.286 N 
HETATM   16  C   UNL     1       9.946  15.885   7.981  1.00  0.00     0.051 A 
HETATM   17  N   UNL     1      11.682  17.952   7.452  1.00  0.00    -0.310 N 
ATOM     18  HN  UNL     1      11.286  17.731   5.593  1.00  0.00     0.188 HD
HETATM   19  C   UNL     1      11.403  17.516   8.438  1.00  0.00     0.107 A 
ATOM     20  HN  UNL     1      12.325  18.734   7.331  1.00  0.00     0.186 HD
HETATM   21  C   UNL     1      10.645  16.609   8.704  1.00  0.00     0.022 A 
ENDBRANCH   9  10
BRANCH   1  22
HETATM   22  C   UNL     1       8.129  12.293   3.185  1.00  0.00    -0.021 C 
BRANCH  22  23
HETATM   23  N   UNL     1       7.793  11.302   2.732  1.00  0.00    -0.236 N 
ATOM     24  HN  UNL     1       8.311  10.482   3.050  1.00  0.00     0.189 HD
BRANCH  23  25
HETATM   25  S   UNL     1       6.612  10.997   1.653  1.00  0.00     0.327 S 
HETATM   26 CL   UNL     1       5.475  12.593   1.731  1.00  0.00     0.042 Cl
HETATM   27  O   UNL     1       7.154  10.960   0.349  1.00  0.00    -0.188 OA
HETATM   28  O   UNL     1       5.810   9.887   2.027  1.00  0.00    -0.188 OA
ENDBRANCH  23  25
ENDBRANCH  22  23
ENDBRANCH   1  22
TORSDOF 4
ENDMDL
MODEL 9
REMARK VINA RESULT:    -7.057      3.719      6.933
REMARK INTER + INTRA:          -9.482
REMARK INTER:                  -8.785
REMARK INTRA:                  -0.697
REMARK UNBOUND:                -0.775
REMARK  4 active torsions:
REMARK  status: ('A' for Active; 'I' for Inactive)
REMARK    1  A    between atoms: S_2  and  N_5 
REMARK    2  A    between atoms: N_5  and  C_7 
REMARK    3  A    between atoms: C_7  and  C_8 
REMARK    4  A    between atoms: C_16  and  C_17 
REMARK       I    between atoms: C_17  and  N_19 
ROOT
HETATM    1  C   UNL     1       8.233   0.995  21.456  1.00  0.00     0.041 A 
HETATM    2  C   UNL     1       6.911   0.780  20.485  1.00  0.00     0.080 A 
HETATM    3  C   UNL     1       5.764   1.559  20.360  1.00  0.00     0.085 C 
HETATM    4  N   UNL     1       5.029   1.735  19.514  1.00  0.00    -0.377 N 
ATOM      5  HN  UNL     1       4.158   2.256  19.607  1.00  0.00     0.164 HD
HETATM    6  C   UNL     1       5.434   1.198  18.438  1.00  0.00     0.087 C 
HETATM    7  C   UNL     1       6.433   0.573  18.225  1.00  0.00     0.015 C 
HETATM    8  C   UNL     1       7.067   0.388  19.040  1.00  0.00     0.000 C 
HETATM    9  C   UNL     1       7.363  -0.015  21.338  1.00  0.00     0.050 A 
ENDROOT
BRANCH   9  10
HETATM   10  C   UNL     1       6.965  -1.448  21.839  1.00  0.00     0.256 C 
HETATM   11  O   UNL     1       6.072  -2.064  21.372  1.00  0.00    -0.268 OA
HETATM   12  N   UNL     1       7.756  -1.768  22.830  1.00  0.00    -0.308 N 
HETATM   13  C   UNL     1       7.748  -2.889  23.458  1.00  0.00     0.122 A 
ATOM     14  HN  UNL     1       8.436  -1.069  23.129  1.00  0.00     0.170 HD
HETATM   15  N   UNL     1       8.168  -4.059  22.938  1.00  0.00    -0.286 N 
HETATM   16  C   UNL     1       7.287  -2.897  24.825  1.00  0.00     0.051 A 
HETATM   17  N   UNL     1       8.102  -5.153  23.479  1.00  0.00    -0.310 N 
ATOM     18  HN  UNL     1       8.581  -4.029  22.005  1.00  0.00     0.188 HD
HETATM   19  C   UNL     1       7.677  -5.073  24.504  1.00  0.00     0.107 A 
ATOM     20  HN  UNL     1       8.400  -6.027  23.046  1.00  0.00     0.186 HD
HETATM   21  C   UNL     1       7.309  -4.099  25.124  1.00  0.00     0.022 A 
ENDBRANCH   9  10
BRANCH   1  22
HETATM   22  C   UNL     1       9.107   1.757  21.800  1.00  0.00    -0.021 C 
BRANCH  22  23
HETATM   23  N   UNL     1      10.103   2.170  22.172  1.00  0.00    -0.236 N 
ATOM     24  HN  UNL     1      10.783   2.384  21.442  1.00  0.00     0.189 HD
BRANCH  23  25
HETATM   25  S   UNL     1      10.603   2.469  23.692  1.00  0.00     0.327 S 
HETATM   26 CL   UNL     1      11.920   1.060  24.046  1.00  0.00     0.042 Cl
HETATM   27  O   UNL     1      11.310   3.692  23.732  1.00  0.00    -0.188 OA
HETATM   28  O   UNL     1       9.560   2.322  24.644  1.00  0.00    -0.188 OA
ENDBRANCH  23  25
ENDBRANCH  22  23
ENDBRANCH   1  22
TORSDOF 4
ENDMDL
