REMARK  4 active torsions:
REMARK  status: ('A' for Active; 'I' for Inactive)
REMARK    1  A    between atoms: S_2  and  N_5 
REMARK    2  A    between atoms: N_5  and  C_7 
REMARK    3  A    between atoms: C_7  and  C_8 
REMARK    4  A    between atoms: C_16  and  C_17 
REMARK       I    between atoms: C_17  and  N_19 
ROOT
HETATM    1  C   UNL     1       9.303  -1.891  23.499  1.00  0.00     0.041 A 
HETATM    2  C   UNL     1      10.594  -0.874  23.312  1.00  0.00     0.080 A 
HETATM    3  C   UNL     1      11.200  -0.027  24.237  1.00  0.00     0.085 C 
HETATM    4  N   UNL     1      12.251   0.383  24.347  1.00  0.00    -0.377 N 
ATOM      5  HN  UNL     1      12.524   1.095  25.024  1.00  0.00     0.164 HD
HETATM    6  C   UNL     1      13.043  -0.160  23.517  1.00  0.00     0.087 C 
HETATM    7  C   UNL     1      12.825  -0.999  22.690  1.00  0.00     0.015 C 
HETATM    8  C   UNL     1      11.833  -1.321  22.583  1.00  0.00     0.000 C 
HETATM    9  C   UNL     1       9.526  -0.870  22.662  1.00  0.00     0.050 A 
ENDROOT
BRANCH   9  10
HETATM   10  C   UNL     1       8.954  -0.018  21.475  1.00  0.00     0.256 C 
HETATM   11  O   UNL     1       9.515   0.923  21.034  1.00  0.00    -0.268 OA
HETATM   12  N   UNL     1       7.796  -0.521  21.133  1.00  0.00    -0.308 N 
HETATM   13  C   UNL     1       7.058  -0.104  20.167  1.00  0.00     0.122 A 
ATOM     14  HN  UNL     1       7.450  -1.310  21.679  1.00  0.00     0.170 HD
HETATM   15  N   UNL     1       7.347  -0.264  18.861  1.00  0.00    -0.286 N 
HETATM   16  C   UNL     1       5.817   0.554  20.497  1.00  0.00     0.051 A 
HETATM   17  N   UNL     1       6.709   0.186  17.921  1.00  0.00    -0.310 N 
ATOM     18  HN  UNL     1       8.177  -0.813  18.635  1.00  0.00     0.188 HD
HETATM   19  C   UNL     1       5.804   0.732  18.270  1.00  0.00     0.107 A 
ATOM     20  HN  UNL     1       6.972   0.075  16.942  1.00  0.00     0.186 HD
HETATM   21  C   UNL     1       5.385   0.912  19.393  1.00  0.00     0.022 A 
ENDBRANCH   9  10
BRANCH   1  22
HETATM   22  C   UNL     1       8.827  -2.793  24.148  1.00  0.00    -0.021 C 
BRANCH  22  23
HETATM   23  N   UNL     1       8.079  -3.480  24.668  1.00  0.00    -0.236 N 
ATOM     24  HN  UNL     1       7.176  -3.569  24.202  1.00  0.00     0.189 HD
BRANCH  23  25
HETATM   25  S   UNL     1       8.236  -4.339  26.042  1.00  0.00     0.327 S 
HETATM   26 CL   UNL     1       6.413  -4.945  26.435  1.00  0.00     0.042 Cl
HETATM   27  O   UNL     1       8.996  -5.504  25.794  1.00  0.00    -0.188 OA
HETATM   28  O   UNL     1       8.661  -3.539  27.135  1.00  0.00    -0.188 OA
ENDBRANCH  23  25
ENDBRANCH  22  23
ENDBRANCH   1  22
TORSDOF 4
