REMARK  0 active torsions:
REMARK  status: ('A' for Active; 'I' for Inactive)
ROOT
HETATM    1 CL   UNL     1       9.956  -1.629  26.389  1.00  0.00    -0.083 Cl
HETATM    2  C   UNL     1       7.830  -3.392  24.854  1.00  0.00     0.077 C 
HETATM    3  C   UNL     1       8.095  -2.255  23.911  1.00  0.00     0.064 C 
HETATM    4  O   UNL     1       7.269  -1.745  22.993  1.00  0.00    -0.296 OA
HETATM    5  C   UNL     1      10.603  -0.948  21.992  1.00  0.00     0.017 C 
HETATM    6  C   UNL     1      10.168  -1.107  24.683  1.00  0.00     0.047 C 
HETATM    7  C   UNL     1      11.603  -0.540  22.863  1.00  0.00     0.003 C 
HETATM    8  C   UNL     1       9.186  -1.456  23.752  1.00  0.00     0.030 C 
HETATM    9  C   UNL     1       9.267  -1.002  22.393  1.00  0.00     0.031 C 
HETATM   10  C   UNL     1      11.283  -0.456  24.187  1.00  0.00     0.025 C 
HETATM   11  N   UNL     1       7.274  -0.432  20.927  1.00  0.00    -0.255 N 
HETATM   12  C   UNL     1       7.820  -0.301  19.680  1.00  0.00     0.198 C 
HETATM   13  N   UNL     1       7.067   0.123  18.666  1.00  0.00    -0.354 N 
ATOM     14  HN  UNL     1       7.327   0.109  17.680  1.00  0.00     0.166 HD
HETATM   15  C   UNL     1       5.933   0.562  19.156  1.00  0.00     0.158 C 
HETATM   16  S   UNL     1       5.644   0.143  20.766  1.00  0.00     0.001 SA
HETATM   17  C   UNL     1       7.801  -0.953  22.029  1.00  0.00     0.172 C 
ENDROOT
TORSDOF 0
