MODEL 1
REMARK VINA RESULT:    -5.744      0.000      0.000
REMARK INTER + INTRA:          -5.744
REMARK INTER:                  -5.744
REMARK INTRA:                   0.000
REMARK UNBOUND:                 0.000
REMARK  0 active torsions:
REMARK  status: ('A' for Active; 'I' for Inactive)
ROOT
HETATM    1 CL   UNL     1       3.696   2.464  19.712  1.00  0.00    -0.083 Cl
HETATM    2  C   UNL     1       5.771   3.450  21.882  1.00  0.00     0.077 C 
HETATM    3  C   UNL     1       6.173   2.026  21.628  1.00  0.00     0.064 C 
HETATM    4  O   UNL     1       6.785   1.187  22.469  1.00  0.00    -0.296 OA
HETATM    5  C   UNL     1       7.444   0.046  19.150  1.00  0.00     0.017 C 
HETATM    6  C   UNL     1       5.044   1.291  19.531  1.00  0.00     0.047 C 
HETATM    7  C   UNL     1       6.505   0.027  18.129  1.00  0.00     0.003 C 
HETATM    8  C   UNL     1       6.015   1.231  20.535  1.00  0.00     0.030 C 
HETATM    9  C   UNL     1       7.072   0.261  20.478  1.00  0.00     0.031 C 
HETATM   10  C   UNL     1       5.255   0.492  18.422  1.00  0.00     0.025 C 
HETATM   11  N   UNL     1       8.134  -0.855  22.496  1.00  0.00    -0.255 N 
HETATM   12  C   UNL     1       9.230  -1.485  21.975  1.00  0.00     0.198 C 
HETATM   13  N   UNL     1       9.966  -2.285  22.745  1.00  0.00    -0.354 N 
ATOM     14  HN  UNL     1      10.877  -2.675  22.505  1.00  0.00     0.166 HD
HETATM   15  C   UNL     1       9.315  -2.484  23.865  1.00  0.00     0.158 C 
HETATM   16  S   UNL     1       8.011  -1.443  24.125  1.00  0.00     0.001 SA
HETATM   17  C   UNL     1       7.352   0.070  21.951  1.00  0.00     0.172 C 
ENDROOT
TORSDOF 0
ENDMDL
MODEL 2
REMARK VINA RESULT:    -5.733      4.958      6.909
REMARK INTER + INTRA:          -5.733
REMARK INTER:                  -5.733
REMARK INTRA:                   0.000
REMARK UNBOUND:                 0.000
REMARK  0 active torsions:
REMARK  status: ('A' for Active; 'I' for Inactive)
ROOT
HETATM    1 CL   UNL     1       4.851  -6.694  24.209  1.00  0.00    -0.083 Cl
HETATM    2  C   UNL     1       6.841  -6.066  21.837  1.00  0.00     0.077 C 
HETATM    3  C   UNL     1       7.147  -5.000  22.848  1.00  0.00     0.064 C 
HETATM    4  O   UNL     1       7.631  -3.775  22.623  1.00  0.00    -0.296 OA
HETATM    5  C   UNL     1       8.428  -4.637  25.995  1.00  0.00     0.017 C 
HETATM    6  C   UNL     1       6.112  -5.693  25.006  1.00  0.00     0.047 C 
HETATM    7  C   UNL     1       7.563  -5.294  26.858  1.00  0.00     0.003 C 
HETATM    8  C   UNL     1       7.003  -4.978  24.201  1.00  0.00     0.030 C 
HETATM    9  C   UNL     1       7.982  -4.105  24.784  1.00  0.00     0.031 C 
HETATM   10  C   UNL     1       6.336  -5.640  26.370  1.00  0.00     0.025 C 
HETATM   11  N   UNL     1       8.811  -1.944  23.740  1.00  0.00    -0.255 N 
HETATM   12  C   UNL     1       9.888  -1.607  24.513  1.00  0.00     0.198 C 
HETATM   13  N   UNL     1      10.503  -0.441  24.322  1.00  0.00    -0.354 N 
ATOM     14  HN  UNL     1      11.396  -0.161  24.729  1.00  0.00     0.166 HD
HETATM   15  C   UNL     1       9.763   0.284  23.520  1.00  0.00     0.158 C 
HETATM   16  S   UNL     1       8.529  -0.559  22.733  1.00  0.00     0.001 SA
HETATM   17  C   UNL     1       8.144  -3.091  23.676  1.00  0.00     0.172 C 
ENDROOT
TORSDOF 0
ENDMDL
MODEL 3
REMARK VINA RESULT:    -5.717     16.861     18.507
REMARK INTER + INTRA:          -5.717
REMARK INTER:                  -5.717
REMARK INTRA:                   0.000
REMARK UNBOUND:                 0.000
REMARK  0 active torsions:
REMARK  status: ('A' for Active; 'I' for Inactive)
ROOT
HETATM    1 CL   UNL     1      -0.442   3.634   4.282  1.00  0.00    -0.083 Cl
HETATM    2  C   UNL     1       1.764   3.990   2.048  1.00  0.00     0.077 C 
HETATM    3  C   UNL     1       2.215   4.914   3.142  1.00  0.00     0.064 C 
HETATM    4  O   UNL     1       2.941   6.029   3.023  1.00  0.00    -0.296 OA
HETATM    5  C   UNL     1       3.361   4.831   6.360  1.00  0.00     0.017 C 
HETATM    6  C   UNL     1       0.944   4.316   5.200  1.00  0.00     0.047 C 
HETATM    7  C   UNL     1       2.337   4.310   7.138  1.00  0.00     0.003 C 
HETATM    8  C   UNL     1       2.002   4.884   4.486  1.00  0.00     0.030 C 
HETATM    9  C   UNL     1       3.098   5.510   5.170  1.00  0.00     0.031 C 
HETATM   10  C   UNL     1       1.096   4.243   6.573  1.00  0.00     0.025 C 
HETATM   11  N   UNL     1       4.391   7.520   4.313  1.00  0.00    -0.255 N 
HETATM   12  C   UNL     1       5.468   7.591   5.154  1.00  0.00     0.198 C 
HETATM   13  N   UNL     1       6.309   8.620   5.070  1.00  0.00    -0.354 N 
ATOM     14  HN  UNL     1       7.214   8.693   5.535  1.00  0.00     0.166 HD
HETATM   15  C   UNL     1       5.772   9.524   4.288  1.00  0.00     0.158 C 
HETATM   16  S   UNL     1       4.444   8.990   3.392  1.00  0.00     0.001 SA
HETATM   17  C   UNL     1       3.517   6.535   4.141  1.00  0.00     0.172 C 
ENDROOT
TORSDOF 0
ENDMDL
MODEL 4
REMARK VINA RESULT:    -5.705      4.566      5.501
REMARK INTER + INTRA:          -5.705
REMARK INTER:                  -5.705
REMARK INTRA:                   0.000
REMARK UNBOUND:                 0.000
REMARK  0 active torsions:
REMARK  status: ('A' for Active; 'I' for Inactive)
ROOT
HETATM    1 CL   UNL     1       9.444   6.360  25.348  1.00  0.00    -0.083 Cl
HETATM    2  C   UNL     1      12.101   5.603  23.814  1.00  0.00     0.077 C 
HETATM    3  C   UNL     1      11.315   4.324  23.816  1.00  0.00     0.064 C 
HETATM    4  O   UNL     1      11.787   3.075  23.773  1.00  0.00    -0.296 OA
HETATM    5  C   UNL     1       8.435   2.994  22.544  1.00  0.00     0.017 C 
HETATM    6  C   UNL     1       8.969   4.885  24.440  1.00  0.00     0.047 C 
HETATM    7  C   UNL     1       7.384   3.712  23.096  1.00  0.00     0.003 C 
HETATM    8  C   UNL     1       9.975   4.093  23.880  1.00  0.00     0.030 C 
HETATM    9  C   UNL     1       9.656   2.865  23.209  1.00  0.00     0.031 C 
HETATM   10  C   UNL     1       7.666   4.509  24.167  1.00  0.00     0.025 C 
HETATM   11  N   UNL     1      11.120   0.791  23.195  1.00  0.00    -0.255 N 
HETATM   12  C   UNL     1      10.541  -0.004  22.245  1.00  0.00     0.198 C 
HETATM   13  N   UNL     1      10.986  -1.246  22.057  1.00  0.00    -0.354 N 
ATOM     14  HN  UNL     1      10.734  -1.861  21.283  1.00  0.00     0.166 HD
HETATM   15  C   UNL     1      11.802  -1.540  23.039  1.00  0.00     0.158 C 
HETATM   16  S   UNL     1      12.296  -0.222  23.972  1.00  0.00     0.001 SA
HETATM   17  C   UNL     1      10.924   2.079  23.452  1.00  0.00     0.172 C 
ENDROOT
TORSDOF 0
ENDMDL
MODEL 5
REMARK VINA RESULT:    -5.490      3.504      4.807
REMARK INTER + INTRA:          -5.490
REMARK INTER:                  -5.490
REMARK INTRA:                   0.000
REMARK UNBOUND:                 0.000
REMARK  0 active torsions:
REMARK  status: ('A' for Active; 'I' for Inactive)
ROOT
HETATM    1 CL   UNL     1      10.905   2.739  23.908  1.00  0.00    -0.083 Cl
HETATM    2  C   UNL     1      12.412  -0.006  24.330  1.00  0.00     0.077 C 
HETATM    3  C   UNL     1      10.999  -0.418  24.041  1.00  0.00     0.064 C 
HETATM    4  O   UNL     1      10.371  -1.526  24.447  1.00  0.00    -0.296 OA
HETATM    5  C   UNL     1       8.697  -0.363  21.516  1.00  0.00     0.017 C 
HETATM    6  C   UNL     1       9.817   1.562  23.096  1.00  0.00     0.047 C 
HETATM    7  C   UNL     1       8.427   0.972  21.249  1.00  0.00     0.003 C 
HETATM    8  C   UNL     1      10.008   0.199  23.340  1.00  0.00     0.030 C 
HETATM    9  C   UNL     1       9.122  -0.780  22.778  1.00  0.00     0.031 C 
HETATM   10  C   UNL     1       8.847   1.890  22.166  1.00  0.00     0.025 C 
HETATM   11  N   UNL     1       8.469  -2.964  23.895  1.00  0.00    -0.255 N 
HETATM   12  C   UNL     1       7.835  -3.656  22.901  1.00  0.00     0.198 C 
HETATM   13  N   UNL     1       7.242  -4.818  23.173  1.00  0.00    -0.354 N 
ATOM     14  HN  UNL     1       6.880  -5.481  22.488  1.00  0.00     0.166 HD
HETATM   15  C   UNL     1       7.204  -4.961  24.476  1.00  0.00     0.158 C 
HETATM   16  S   UNL     1       8.179  -3.885  25.338  1.00  0.00     0.001 SA
HETATM   17  C   UNL     1       9.222  -1.873  23.817  1.00  0.00     0.172 C 
ENDROOT
TORSDOF 0
ENDMDL
MODEL 6
REMARK VINA RESULT:    -5.356     25.545     26.611
REMARK INTER + INTRA:          -5.356
REMARK INTER:                  -5.356
REMARK INTRA:                   0.000
REMARK UNBOUND:                 0.000
REMARK  0 active torsions:
REMARK  status: ('A' for Active; 'I' for Inactive)
ROOT
HETATM    1 CL   UNL     1       3.886 -21.036   7.326  1.00  0.00    -0.083 Cl
HETATM    2  C   UNL     1       2.285 -19.410   9.513  1.00  0.00     0.077 C 
HETATM    3  C   UNL     1       1.569 -20.728   9.455  1.00  0.00     0.064 C 
HETATM    4  O   UNL     1       0.285 -20.973   9.734  1.00  0.00    -0.296 OA
HETATM    5  C   UNL     1       2.072 -24.038  10.139  1.00  0.00     0.017 C 
HETATM    6  C   UNL     1       3.042 -22.331   8.241  1.00  0.00     0.047 C 
HETATM    7  C   UNL     1       3.075 -24.476   9.285  1.00  0.00     0.003 C 
HETATM    8  C   UNL     1       2.000 -21.970   9.100  1.00  0.00     0.030 C 
HETATM    9  C   UNL     1       1.242 -22.969   9.797  1.00  0.00     0.031 C 
HETATM   10  C   UNL     1       3.400 -23.667   8.236  1.00  0.00     0.025 C 
HETATM   11  N   UNL     1      -1.226 -22.792  10.366  1.00  0.00    -0.255 N 
HETATM   12  C   UNL     1      -1.432 -23.833  11.228  1.00  0.00     0.198 C 
HETATM   13  N   UNL     1      -2.666 -24.121  11.640  1.00  0.00    -0.354 N 
ATOM     14  HN  UNL     1      -2.912 -24.766  12.391  1.00  0.00     0.166 HD
HETATM   15  C   UNL     1      -3.510 -23.430  10.913  1.00  0.00     0.158 C 
HETATM   16  S   UNL     1      -2.813 -22.196   9.995  1.00  0.00     0.001 SA
HETATM   17  C   UNL     1      -0.085 -22.261   9.941  1.00  0.00     0.172 C 
ENDROOT
TORSDOF 0
ENDMDL
MODEL 7
REMARK VINA RESULT:    -5.177     15.761     18.073
REMARK INTER + INTRA:          -5.177
REMARK INTER:                  -5.177
REMARK INTRA:                   0.000
REMARK UNBOUND:                 0.000
REMARK  0 active torsions:
REMARK  status: ('A' for Active; 'I' for Inactive)
ROOT
HETATM    1 CL   UNL     1      22.504   0.006  27.160  1.00  0.00    -0.083 Cl
HETATM    2  C   UNL     1      20.859  -1.571  24.972  1.00  0.00     0.077 C 
HETATM    3  C   UNL     1      22.171  -2.297  25.020  1.00  0.00     0.064 C 
HETATM    4  O   UNL     1      22.760  -2.988  24.039  1.00  0.00    -0.296 OA
HETATM    5  C   UNL     1      24.049  -4.217  27.134  1.00  0.00     0.017 C 
HETATM    6  C   UNL     1      23.352  -1.577  27.093  1.00  0.00     0.047 C 
HETATM    7  C   UNL     1      24.384  -3.413  28.215  1.00  0.00     0.003 C 
HETATM    8  C   UNL     1      23.088  -2.430  26.018  1.00  0.00     0.030 C 
HETATM    9  C   UNL     1      23.792  -3.672  25.875  1.00  0.00     0.031 C 
HETATM   10  C   UNL     1      24.189  -2.069  28.078  1.00  0.00     0.025 C 
HETATM   11  N   UNL     1      24.428  -4.739  23.661  1.00  0.00    -0.255 N 
HETATM   12  C   UNL     1      24.840  -5.994  24.016  1.00  0.00     0.198 C 
HETATM   13  N   UNL     1      25.370  -6.804  23.100  1.00  0.00    -0.354 N 
ATOM     14  HN  UNL     1      25.564  -7.797  23.219  1.00  0.00     0.166 HD
HETATM   15  C   UNL     1      25.598  -6.100  22.017  1.00  0.00     0.158 C 
HETATM   16  S   UNL     1      24.861  -4.581  21.987  1.00  0.00     0.001 SA
HETATM   17  C   UNL     1      23.765  -3.835  24.373  1.00  0.00     0.172 C 
ENDROOT
TORSDOF 0
ENDMDL
MODEL 8
REMARK VINA RESULT:    -5.169     15.921     18.522
REMARK INTER + INTRA:          -5.169
REMARK INTER:                  -5.169
REMARK INTRA:                   0.000
REMARK UNBOUND:                 0.000
REMARK  0 active torsions:
REMARK  status: ('A' for Active; 'I' for Inactive)
ROOT
HETATM    1 CL   UNL     1      25.237  -7.735  22.871  1.00  0.00    -0.083 Cl
HETATM    2  C   UNL     1      25.564  -4.754  21.878  1.00  0.00     0.077 C 
HETATM    3  C   UNL     1      24.705  -4.628  23.103  1.00  0.00     0.064 C 
HETATM    4  O   UNL     1      23.806  -3.678  23.376  1.00  0.00    -0.296 OA
HETATM    5  C   UNL     1      24.850  -5.090  26.486  1.00  0.00     0.017 C 
HETATM    6  C   UNL     1      24.847  -6.784  24.344  1.00  0.00     0.047 C 
HETATM    7  C   UNL     1      25.059  -6.445  26.697  1.00  0.00     0.003 C 
HETATM    8  C   UNL     1      24.595  -5.416  24.207  1.00  0.00     0.030 C 
HETATM    9  C   UNL     1      24.206  -4.623  25.339  1.00  0.00     0.031 C 
HETATM   10  C   UNL     1      24.864  -7.280  25.635  1.00  0.00     0.025 C 
HETATM   11  N   UNL     1      22.623  -2.641  25.252  1.00  0.00    -0.255 N 
HETATM   12  C   UNL     1      22.757  -2.069  26.487  1.00  0.00     0.198 C 
HETATM   13  N   UNL     1      21.966  -1.056  26.840  1.00  0.00    -0.354 N 
ATOM     14  HN  UNL     1      22.081  -0.465  27.662  1.00  0.00     0.166 HD
HETATM   15  C   UNL     1      21.012  -0.953  25.945  1.00  0.00     0.158 C 
HETATM   16  S   UNL     1      21.271  -1.829  24.525  1.00  0.00     0.001 SA
HETATM   17  C   UNL     1      23.380  -3.556  24.658  1.00  0.00     0.172 C 
ENDROOT
TORSDOF 0
ENDMDL
MODEL 9
REMARK VINA RESULT:    -5.088     15.615     16.860
REMARK INTER + INTRA:          -5.088
REMARK INTER:                  -5.088
REMARK INTRA:                   0.000
REMARK UNBOUND:                 0.000
REMARK  0 active torsions:
REMARK  status: ('A' for Active; 'I' for Inactive)
ROOT
HETATM    1 CL   UNL     1      22.864   0.767  27.467  1.00  0.00    -0.083 Cl
HETATM    2  C   UNL     1      23.899   2.390  24.961  1.00  0.00     0.077 C 
HETATM    3  C   UNL     1      23.660   1.012  24.417  1.00  0.00     0.064 C 
HETATM    4  O   UNL     1      24.270   0.424  23.384  1.00  0.00    -0.296 OA
HETATM    5  C   UNL     1      21.110  -1.182  23.814  1.00  0.00     0.017 C 
HETATM    6  C   UNL     1      22.285  -0.227  26.086  1.00  0.00     0.047 C 
HETATM    7  C   UNL     1      20.561  -1.506  25.046  1.00  0.00     0.003 C 
HETATM    8  C   UNL     1      22.815   0.023  24.817  1.00  0.00     0.030 C 
HETATM    9  C   UNL     1      22.444  -0.790  23.694  1.00  0.00     0.031 C 
HETATM   10  C   UNL     1      21.278  -1.171  26.158  1.00  0.00     0.025 C 
HETATM   11  N   UNL     1      23.975  -1.379  21.756  1.00  0.00    -0.255 N 
HETATM   12  C   UNL     1      23.128  -1.936  20.837  1.00  0.00     0.198 C 
HETATM   13  N   UNL     1      23.620  -2.481  19.725  1.00  0.00    -0.354 N 
ATOM     14  HN  UNL     1      23.079  -2.780  18.914  1.00  0.00     0.166 HD
HETATM   15  C   UNL     1      24.922  -2.567  19.854  1.00  0.00     0.158 C 
HETATM   16  S   UNL     1      25.569  -1.683  21.140  1.00  0.00     0.001 SA
HETATM   17  C   UNL     1      23.692  -0.679  22.848  1.00  0.00     0.172 C 
ENDROOT
TORSDOF 0
ENDMDL
