stable:False satoms:18 tatoms:24 sratio:0.75
  -OEChem-07092417343D

 24 26  0     0  0  0  0  0  0999 V2000
    6.8220   -3.7812   24.7266 H   0  0  0  0  0  0  0  0  0  0  0  0
    7.9150   -3.0787   25.9010 H   0  0  0  0  0  0  0  0  0  0  0  0
    8.5717   -4.1886   24.7456 H   0  0  0  0  0  0  0  0  0  0  0  0
    9.9562   -1.6292   26.3893 Cl  0  0  0  0  0  0  0  0  0  0  0  0
    7.8302   -3.3915   24.8540 C   0  0  0  0  0  0  0  0  0  0  0  0
    8.0947   -2.2545   23.9106 C   0  0  0  0  0  0  0  0  0  0  0  0
    7.2693   -1.7454   22.9926 O   0  0  0  0  0  0  0  0  0  0  0  0
   10.6026   -0.9478   21.9918 C   0  0  0  0  0  0  0  0  0  0  0  0
   10.1678   -1.1068   24.6830 C   0  0  0  0  0  0  0  0  0  0  0  0
   11.9366    0.0342   24.8911 H   0  0  0  0  0  0  0  0  0  0  0  0
   12.5995   -0.2931   22.5319 H   0  0  0  0  0  0  0  0  0  0  0  0
   11.6033   -0.5400   22.8628 C   0  0  0  0  0  0  0  0  0  0  0  0
   10.8773   -1.2449   21.0095 H   0  0  0  0  0  0  0  0  0  0  0  0
    9.1860   -1.4558   23.7518 C   0  0  0  0  0  0  0  0  0  0  0  0
    9.2673   -1.0023   22.3933 C   0  0  0  0  0  0  0  0  0  0  0  0
   11.2832   -0.4563   24.1874 C   0  0  0  0  0  0  0  0  0  0  0  0
    7.2741   -0.4320   20.9272 N   0  0  0  0  0  0  0  0  0  0  0  0
    8.8550   -0.5133   19.6206 H   0  0  0  0  0  0  0  0  0  0  0  0
    7.8202   -0.3009   19.6805 C   0  3  0  0  0  0  0  0  0  0  0  0
    7.0667    0.1233   18.6665 N   0  3  0  0  0  0  0  0  0  0  0  0
    5.9329    0.5619   19.1562 C   0  3  0  0  0  0  0  0  0  0  0  0
    5.2068    1.1636   18.6289 H   0  0  0  0  0  0  0  0  0  0  0  0
    5.6443    0.1427   20.7659 S   0  0  0  0  0  0  0  0  0  0  0  0
    7.8014   -0.9533   22.0288 C   0  0  0  0  0  0  0  0  0  0  0  0
 21 22  1  0  0  0  0
 20 21  1  0  0  0  0
 19 20  1  0  0  0  0
 21 23  1  0  0  0  0
 18 19  1  0  0  0  0
 17 19  1  0  0  0  0
 17 23  1  0  0  0  0
 17 24  1  0  0  0  0
  8 13  1  0  0  0  0
  8 15  1  0  0  0  0
  8 12  2  0  0  0  0
 15 24  2  0  0  0  0
  7 24  1  0  0  0  0
 14 15  1  0  0  0  0
 11 12  1  0  0  0  0
 12 16  1  0  0  0  0
  6  7  1  0  0  0  0
  6 14  2  0  0  0  0
  9 14  1  0  0  0  0
  5  6  1  0  0  0  0
  9 16  2  0  0  0  0
 10 16  1  0  0  0  0
  4  9  1  0  0  0  0
  1  5  1  0  0  0  0
  3  5  1  0  0  0  0
  2  5  1  0  0  0  0
M  CHG  3  19   1  20   1  21   1
M  END
> <Shapegauss>
-172.764587

$$$$
