stable:False satoms:22 tatoms:24 sratio:0.9166666666666666
  -OEChem-08052417523D

 24 23  0     0  0  0  0  0  0999 V2000
    7.7571   -2.6422   22.4550 H   0  0  0  0  0  0  0  0  0  0  0  0
    5.8512   -5.5689   23.4490 H   0  0  0  0  0  0  0  0  0  0  0  0
    7.1227   -1.8258   23.8632 H   0  0  0  0  0  0  0  0  0  0  0  0
   10.0971   -1.6956   22.1180 C   0  0  0  0  0  2  0  0  0  0  0  0
    7.7039   -4.4738   21.0114 O   0  5  0  0  0  0  0  0  0  0  0  0
    9.2803   -2.6865   25.1874 H   0  0  0  0  0  0  0  0  0  0  0  0
   11.1264   -2.0629   21.3643 N   0  3  0  0  0  0  0  0  0  0  0  0
   11.1303   -0.9155   24.2923 C   0  0  0  0  0  0  0  0  0  0  0  0
    8.0116   -4.4853   24.6660 H   0  0  0  0  0  0  0  0  0  0  0  0
   11.2206   -3.0584   21.3746 H   0  0  0  0  0  0  0  0  0  0  0  0
   10.0749   -1.6423   23.5168 C   0  0  0  0  0  0  0  0  0  0  0  0
   11.9438   -1.6373   21.7528 H   0  0  0  0  0  0  0  0  0  0  0  0
    7.7995   -2.6473   23.5495 C   0  0  0  0  0  0  0  0  0  0  0  0
   11.2156   -1.3020   25.3045 H   0  0  0  0  0  0  0  0  0  0  0  0
   10.9072    0.1466   24.3548 H   0  0  0  0  0  0  0  0  0  0  0  0
    6.6792   -4.8823   21.5918 C   0  0  0  0  0  0  0  0  0  0  0  0
    7.2635   -4.0396   24.0069 C   0  0  0  0  0  0  0  0  0  0  0  0
    6.3889   -3.8014   24.6080 H   0  0  0  0  0  0  0  0  0  0  0  0
    5.5815   -5.0584   21.0327 O   0  0  0  0  0  0  0  0  0  0  0  0
   12.1078   -1.0467   23.8080 H   0  0  0  0  0  0  0  0  0  0  0  0
    7.5122   -6.0443   23.1506 H   0  0  0  0  0  0  0  0  0  0  0  0
    6.8175   -5.2059   23.0800 C   0  0  0  0  0  0  0  0  0  0  0  0
    9.1008   -2.3414   24.1801 C   0  0  0  0  0  0  0  0  0  0  0  0
   10.9914   -1.7505   20.4240 H   0  0  0  0  0  0  0  0  0  0  0  0
  2 22  1  0  0  0  0
 17 18  1  0  0  0  0
  9 17  1  0  0  0  0
 17 22  1  0  0  0  0
 21 22  1  0  0  0  0
 16 22  1  0  0  0  0
 13 17  1  0  0  0  0
 16 19  2  0  0  0  0
  3 13  1  0  0  0  0
  5 16  1  0  0  0  0
  6 23  1  0  0  0  0
 13 23  1  0  0  0  0
  1 13  1  0  0  0  0
 11 23  2  0  0  0  0
  8 14  1  0  0  0  0
  8 11  1  0  0  0  0
  4 11  1  0  0  0  0
  8 15  1  0  0  0  0
  8 20  1  0  0  0  0
  4  7  1  0  0  0  0
  7 12  1  0  0  0  0
  7 10  1  0  0  0  0
  7 24  1  0  0  0  0
M  CHG  2   5  -1   7   1
M  END
> <Chemgauss4>
-5.715045

$$$$
