stable:False satoms:22 tatoms:24 sratio:0.9166666666666666
  -OEChem-08052417523D

 24 23  0     0  0  0  0  0  0999 V2000
  -10.2787    0.5890  -24.3177 H   0  0  0  0  0  0  0  0  0  0  0  0
  -11.5460   -2.5346  -22.9672 H   0  0  0  0  0  0  0  0  0  0  0  0
  -11.6719    0.6286  -25.3709 H   0  0  0  0  0  0  0  0  0  0  0  0
   -9.7547    3.0252  -23.7930 C   0  0  0  0  0  2  0  0  0  0  0  0
   -8.9476   -0.5862  -22.8048 O   0  5  0  0  0  0  0  0  0  0  0  0
  -12.9175    2.0426  -23.4740 H   0  0  0  0  0  0  0  0  0  0  0  0
   -8.9656    3.6139  -22.9024 N   0  3  0  0  0  0  0  0  0  0  0  0
  -11.8182    4.4864  -23.8980 C   0  0  0  0  0  0  0  0  0  0  0  0
  -12.5733   -0.0476  -22.6805 H   0  0  0  0  0  0  0  0  0  0  0  0
   -9.0273    3.1402  -22.0238 H   0  0  0  0  0  0  0  0  0  0  0  0
  -11.1472    3.1475  -23.8713 C   0  0  0  0  0  0  0  0  0  0  0  0
   -9.2816    4.5577  -22.8058 H   0  0  0  0  0  0  0  0  0  0  0  0
  -11.3675    0.7082  -24.3068 C   0  0  0  0  0  0  0  0  0  0  0  0
  -12.8442    4.4229  -23.5454 H   0  0  0  0  0  0  0  0  0  0  0  0
  -11.8325    4.8960  -24.9049 H   0  0  0  0  0  0  0  0  0  0  0  0
   -9.6081   -1.6154  -23.0463 C   0  0  0  0  0  0  0  0  0  0  0  0
  -11.9337   -0.4720  -23.4574 C   0  0  0  0  0  0  0  0  0  0  0  0
  -12.5693   -1.0164  -24.1522 H   0  0  0  0  0  0  0  0  0  0  0  0
   -9.1238   -2.6664  -23.5036 O   0  0  0  0  0  0  0  0  0  0  0  0
  -11.2870    5.1845  -23.2364 H   0  0  0  0  0  0  0  0  0  0  0  0
  -11.1806   -1.4467  -21.6417 H   0  0  0  0  0  0  0  0  0  0  0  0
  -11.1021   -1.5622  -22.7238 C   0  0  0  0  0  0  0  0  0  0  0  0
  -11.9040    2.0056  -23.8448 C   0  0  0  0  0  0  0  0  0  0  0  0
   -8.0182    3.6008  -23.2223 H   0  0  0  0  0  0  0  0  0  0  0  0
  2 22  1  0  0  0  0
 17 18  1  0  0  0  0
  9 17  1  0  0  0  0
 17 22  1  0  0  0  0
 21 22  1  0  0  0  0
 16 22  1  0  0  0  0
 13 17  1  0  0  0  0
 16 19  2  0  0  0  0
  3 13  1  0  0  0  0
  5 16  1  0  0  0  0
  6 23  1  0  0  0  0
 13 23  1  0  0  0  0
  1 13  1  0  0  0  0
 11 23  2  0  0  0  0
  8 14  1  0  0  0  0
  8 11  1  0  0  0  0
  4 11  1  0  0  0  0
  8 15  1  0  0  0  0
  8 20  1  0  0  0  0
  4  7  1  0  0  0  0
  7 12  1  0  0  0  0
  7 10  1  0  0  0  0
  7 24  1  0  0  0  0
M  CHG  2   5  -1   7   1
M  END
> <Chemgauss4>
-5.829707

$$$$
