lig_206
     RDKit          3D

 27 29  0  0  1  0  0  0  0  0999 V2000
   27.6212    1.6980  -11.2172 O   0  0  0  0  0  0  0  0  0  0  0  0
   27.2791    0.4232  -11.6980 C   0  0  1  0  0  0  0  0  0  0  0  0
   26.1568   -0.1220  -10.8615 C   0  0  0  0  0  0  0  0  0  0  0  0
   24.9419    0.0356  -11.5217 C   0  0  0  0  0  0  0  0  0  0  0  0
   23.7282   -0.3628  -10.9460 C   0  0  0  0  0  0  0  0  0  0  0  0
   22.5957   -0.2211  -11.7067 O   0  0  0  0  0  0  0  0  0  0  0  0
   21.3745   -0.5030  -11.1696 C   0  0  0  0  0  0  0  0  0  0  0  0
   20.7873   -1.7641  -11.3863 C   0  0  0  0  0  0  0  0  0  0  0  0
   19.5103   -2.0337  -10.8650 C   0  0  0  0  0  0  0  0  0  0  0  0
   18.9306   -3.2346  -11.0760 F   0  0  0  0  0  0  0  0  0  0  0  0
   18.8210   -1.0451  -10.1422 C   0  0  0  0  0  0  0  0  0  0  0  0
   19.3977    0.2248   -9.9495 C   0  0  0  0  0  0  0  0  0  0  0  0
   18.6744    1.2643   -9.2452 C   0  0  0  0  0  0  0  0  0  0  0  0
   18.0994    2.0888   -8.6766 N   0  0  0  0  0  0  0  0  0  0  0  0
   20.6847    0.4882  -10.4467 C   0  0  0  0  0  0  0  0  0  0  0  0
   23.7628   -0.8997   -9.6331 C   0  0  0  0  0  0  0  0  0  0  0  0
   24.9956   -1.0597   -8.9555 C   0  0  0  0  0  0  0  0  0  0  0  0
   26.2138   -0.6943   -9.5737 C   0  0  0  0  0  0  0  0  0  0  0  0
   27.7672   -0.9363   -8.6878 S   0  0  0  0  0  0  0  0  0  0  0  0
   27.4994   -1.8899   -7.6004 O   0  0  0  0  0  0  0  0  0  0  0  0
   28.8211   -1.2577   -9.6494 O   0  0  0  0  0  0  0  0  0  0  0  0
   28.1713    0.7112   -7.9444 C   0  0  0  0  0  0  0  0  0  0  0  0
   27.3355    0.9005   -6.7231 C   0  0  0  0  0  0  0  0  0  0  0  0
   25.1176    0.6338  -12.8920 C   0  0  0  0  0  0  0  0  0  0  0  0
   26.6407    0.5539  -13.1020 C   0  0  0  0  0  0  0  0  0  0  0  0
   27.1319    1.5595  -13.8296 F   0  0  0  0  0  0  0  0  0  0  0  0
   26.8879   -0.5880  -13.7456 F   0  0  0  0  0  0  0  0  0  0  0  0
  2  1  1  1
  2 25  1  0
  2  3  1  0
  3 18  1  0
  3  4  2  0
  4  5  1  0
  4 24  1  0
  5  6  1  0
  5 16  2  0
  6  7  1  0
  7 15  1  0
  7  8  2  0
  8  9  1  0
  9 10  1  0
  9 11  2  0
 11 12  1  0
 12 13  1  0
 12 15  2  0
 13 14  3  0
 16 17  1  0
 17 18  2  0
 18 19  1  0
 19 20  2  0
 19 21  2  0
 19 22  1  0
 22 23  1  0
 24 25  1  0
 25 26  1  0
 25 27  1  0
M  END
>  <s_m_source_file>  (1) 
ligprep_hif2a.smi

>  <i_m_source_file_index>  (1) 
10

>  <i_lp_mmshare_version>  (1) 
53161

>  <i_f3d_flags>  (1) 
0

>  <s_epik_input>  (1) 
W0NIM11bQ0gyXVMoPU8pKD1PKWMxW2NIXVtjSF1jKGMoYzEyKVtDSDJdQyhGKShGKVtDQEhdMltPSF0pT2MzW2NIXWMoRilbY0hdYyhDI04pW2NIXTM=

>  <s_epik_cmdline>  (1) 
J2VwaWtfcHl0aG9uJywgJy1waHQnLCAnMC4wJywgJy1waCcsICc3LjQnLCAnLXRuJywgJzgnLCAnLW1hJywgJzUwMCcsICctaW1hZScsICc8aW5maWxlLm1hZT4nLCAnLW9tYWUnLCAnPG91dGZpbGUubWFlPic=

>  <r_lp_tautomer_probability>  (1) 
1

>  <r_epik_Ionization_Penalty>  (1) 
  0.0012

>  <r_epik_Ionization_Penalty_Charging>  (1) 
  0.0000

>  <r_epik_Ionization_Penalty_Neutral>  (1) 
  0.0012

>  <r_epik_State_Penalty>  (1) 
 -0.0000

>  <r_epik_Charging_Adjusted_Penalty>  (1) 
0

>  <i_epik_Tot_Q>  (1) 
0

>  <i_epik_Tot_abs_Q>  (1) 
0

>  <s_lp_Force_Field>  (1) 
S-OPLS

>  <r_lp_Energy>  (1) 
27.9323

>  <b_lp_Chiralities_Consistent>  (1) 
1

>  <s_lp_Variant>  (1) 
lig_206-1

>  <s_i_glide_gridfile>  (1) 
glide-grid_HIF2a-5TBM

>  <i_i_glide_lignum>  (1) 
10

>  <i_i_glide_rotatable_bonds>  (1) 
5

>  <r_i_docking_score>  (1) 
-11.321859035384

>  <r_i_glide_ligand_efficiency>  (1) 
-0.419328112421629

>  <r_i_glide_ligand_efficiency_sa>  (1) 
-1.25798433588285

>  <r_i_glide_ligand_efficiency_ln>  (1) 
-2.63554212800328

>  <r_i_glide_gscore>  (1) 
-11.321859035384

>  <r_i_glide_lipo>  (1) 
-4.92167139453968

>  <r_i_glide_hbond>  (1) 
-0.32

>  <r_i_glide_metal>  (1) 
-0

>  <r_i_glide_rewards>  (1) 
-3.33346842567938

>  <r_i_glide_evdw>  (1) 
-48.4112968444824

>  <r_i_glide_ecoul>  (1) 
-6.30646991729736

>  <r_i_glide_erotb>  (1) 
0.619816114653813

>  <r_i_glide_esite>  (1) 
0

>  <r_i_glide_emodel>  (1) 
-91.3956637138423

>  <r_i_glide_energy>  (1) 
-54.7177667617798

>  <r_i_glide_einternal>  (1) 
3.41366100311279

>  <i_i_glide_confnum>  (1) 
3

>  <i_i_glide_posenum>  (1) 
25

>  <r_i_glide_eff_state_penalty>  (1) 
-0

>  <r_i_glide_rmsd>  (1) 
0.0852472326088581

>  <s_glide_core_constrain_type>  (1) 
snapped_core_restrain

$$$$
