lig_336
     RDKit          3D

 26 28  0  0  1  0  0  0  0  0999 V2000
   27.6354    1.6842  -11.0949 O   0  0  0  0  0  0  0  0  0  0  0  0
   27.2969    0.4012  -11.5812 C   0  0  1  0  0  0  0  0  0  0  0  0
   26.1546   -0.1621  -10.7733 C   0  0  0  0  0  0  0  0  0  0  0  0
   24.9567   -0.0264  -11.4650 C   0  0  0  0  0  0  0  0  0  0  0  0
   23.7278   -0.4056  -10.9118 C   0  0  0  0  0  0  0  0  0  0  0  0
   22.6133   -0.2473  -11.6942 O   0  0  0  0  0  0  0  0  0  0  0  0
   21.3806   -0.5092  -11.1745 C   0  0  0  0  0  0  0  0  0  0  0  0
   20.7892   -1.7667  -11.3931 C   0  0  0  0  0  0  0  0  0  0  0  0
   19.5138   -2.0367  -10.8729 C   0  0  0  0  0  0  0  0  0  0  0  0
   18.9455   -3.2442  -11.0759 F   0  0  0  0  0  0  0  0  0  0  0  0
   18.8214   -1.0450  -10.1573 C   0  0  0  0  0  0  0  0  0  0  0  0
   19.4034    0.2218   -9.9594 C   0  0  0  0  0  0  0  0  0  0  0  0
   18.6872    1.2624   -9.2503 C   0  0  0  0  0  0  0  0  0  0  0  0
   18.1208    2.0897   -8.6769 N   0  0  0  0  0  0  0  0  0  0  0  0
   20.6916    0.4846  -10.4544 C   0  0  0  0  0  0  0  0  0  0  0  0
   23.7289   -0.9283   -9.5941 C   0  0  0  0  0  0  0  0  0  0  0  0
   24.9421   -1.0788   -8.8848 C   0  0  0  0  0  0  0  0  0  0  0  0
   26.1692   -0.7155   -9.4782 C   0  0  0  0  0  0  0  0  0  0  0  0
   27.6883   -0.9801   -8.5703 S   0  0  0  0  0  0  0  0  0  0  0  0
   27.4397   -1.9278   -7.4759 O   0  0  0  0  0  0  0  0  0  0  0  0
   28.7853   -1.2380   -9.5063 O   0  0  0  0  0  0  0  0  0  0  0  0
   27.9723    0.5635   -7.8837 N   0  0  0  0  0  0  0  0  0  0  0  0
   25.1640    0.6012  -12.8113 C   0  0  1  0  0  0  0  0  0  0  0  0
   24.8267    1.8779  -12.6622 F   0  0  0  0  0  0  0  0  0  0  0  0
   26.6814    0.4795  -12.9963 C   0  0  1  0  0  0  0  0  0  0  0  0
   27.2207    1.3710  -13.8227 F   0  0  0  0  0  0  0  0  0  0  0  0
  2  1  1  1
  2 25  1  0
  2  3  1  0
  3 18  1  0
  3  4  2  0
  4  5  1  0
  4 23  1  0
  5  6  1  0
  5 16  2  0
  6  7  1  0
  7 15  1  0
  7  8  2  0
  8  9  1  0
  9 10  1  0
  9 11  2  0
 11 12  1  0
 12 13  1  0
 12 15  2  0
 13 14  3  0
 16 17  1  0
 17 18  2  0
 18 19  1  0
 19 20  2  0
 19 21  2  0
 19 22  1  0
 23 24  1  1
 23 25  1  0
 25 26  1  1
M  END
>  <s_m_source_file>  (1) 
ligprep_hif2a.smi

>  <i_m_source_file_index>  (1) 
29

>  <i_lp_mmshare_version>  (1) 
53161

>  <i_f3d_flags>  (1) 
0

>  <s_epik_input>  (1) 
W09IXVtDQEBIXTFbQ0BIXShGKVtDQEhdKEYpYyhjMTIpYyhbY0hdW2NIXWMyUyg9TykoPU8pW05IMl0pT2MzW2NIXWMoRilbY0hdYyhDI04pW2NIXTM=

>  <s_epik_cmdline>  (1) 
J2VwaWtfcHl0aG9uJywgJy1waHQnLCAnMC4wJywgJy1waCcsICc3LjQnLCAnLXRuJywgJzgnLCAnLW1hJywgJzUwMCcsICctaW1hZScsICc8aW5maWxlLm1hZT4nLCAnLW9tYWUnLCAnPG91dGZpbGUubWFlPic=

>  <r_lp_tautomer_probability>  (1) 
1

>  <r_epik_Ionization_Penalty>  (1) 
  0.0071

>  <r_epik_Ionization_Penalty_Charging>  (1) 
  0.0000

>  <r_epik_Ionization_Penalty_Neutral>  (1) 
  0.0071

>  <r_epik_State_Penalty>  (1) 
 -0.0000

>  <r_epik_Charging_Adjusted_Penalty>  (1) 
0

>  <i_epik_Tot_Q>  (1) 
0

>  <i_epik_Tot_abs_Q>  (1) 
0

>  <s_lp_Force_Field>  (1) 
S-OPLS

>  <r_lp_Energy>  (1) 
20.7547

>  <b_lp_Chiralities_Consistent>  (1) 
1

>  <s_lp_Variant>  (1) 
lig_336-1

>  <s_i_glide_gridfile>  (1) 
glide-grid_HIF2a-5TBM

>  <i_i_glide_lignum>  (1) 
29

>  <i_i_glide_rotatable_bonds>  (1) 
4

>  <r_i_docking_score>  (1) 
-11.3007769399553

>  <r_i_glide_ligand_efficiency>  (1) 
-0.434645266921358

>  <r_i_glide_ligand_efficiency_sa>  (1) 
-1.28763489300798

>  <r_i_glide_ligand_efficiency_ln>  (1) 
-2.65395038347491

>  <r_i_glide_gscore>  (1) 
-11.3007769399553

>  <r_i_glide_lipo>  (1) 
-4.47621248172795

>  <r_i_glide_hbond>  (1) 
-0.32

>  <r_i_glide_metal>  (1) 
-0

>  <r_i_glide_rewards>  (1) 
-3.41543356428587

>  <r_i_glide_evdw>  (1) 
-54.4600791931152

>  <r_i_glide_ecoul>  (1) 
-5.95068883895874

>  <r_i_glide_erotb>  (1) 
0.526476391558088

>  <r_i_glide_esite>  (1) 
0

>  <r_i_glide_emodel>  (1) 
-98.0887090776491

>  <r_i_glide_energy>  (1) 
-60.410768032074

>  <r_i_glide_einternal>  (1) 
0.0122294249013066

>  <i_i_glide_confnum>  (1) 
1

>  <i_i_glide_posenum>  (1) 
1

>  <r_i_glide_eff_state_penalty>  (1) 
-0

>  <r_i_glide_rmsd>  (1) 
0.0859283773278825

>  <s_glide_core_constrain_type>  (1) 
snapped_core_restrain

$$$$
