lig_155
     RDKit          3D

 26 28  0  0  1  0  0  0  0  0999 V2000
   27.6259    1.7026  -11.1588 O   0  0  0  0  0  0  0  0  0  0  0  0
   27.2656    0.4428  -11.6619 C   0  0  1  0  0  0  0  0  0  0  0  0
   26.1218   -0.1041  -10.8563 C   0  0  0  0  0  0  0  0  0  0  0  0
   24.9245    0.0593  -11.5457 C   0  0  0  0  0  0  0  0  0  0  0  0
   23.6926   -0.3149  -10.9874 C   0  0  0  0  0  0  0  0  0  0  0  0
   22.5701   -0.1920  -11.7670 O   0  0  0  0  0  0  0  0  0  0  0  0
   21.3483   -0.4871  -11.2344 C   0  0  0  0  0  0  0  0  0  0  0  0
   20.7687   -1.7543  -11.4401 C   0  0  0  0  0  0  0  0  0  0  0  0
   19.5054   -2.0360  -10.8886 C   0  0  0  0  0  0  0  0  0  0  0  0
   18.9356   -3.2446  -11.0779 F   0  0  0  0  0  0  0  0  0  0  0  0
   18.8211   -1.0535  -10.1522 C   0  0  0  0  0  0  0  0  0  0  0  0
   19.3887    0.2215   -9.9721 C   0  0  0  0  0  0  0  0  0  0  0  0
   18.6780    1.2621   -9.2542 C   0  0  0  0  0  0  0  0  0  0  0  0
   18.1151    2.0891   -8.6764 N   0  0  0  0  0  0  0  0  0  0  0  0
   20.6626    0.4919  -10.4938 C   0  0  0  0  0  0  0  0  0  0  0  0
   23.6954   -0.8271   -9.6632 C   0  0  0  0  0  0  0  0  0  0  0  0
   24.9083   -0.9919   -8.9568 C   0  0  0  0  0  0  0  0  0  0  0  0
   26.1417   -0.6600   -9.5583 C   0  0  0  0  0  0  0  0  0  0  0  0
   27.6565   -0.8982   -8.6133 S   0  0  0  0  0  0  0  0  0  0  0  0
   27.3792   -1.8897   -7.5634 O   0  0  0  0  0  0  0  0  0  0  0  0
   28.7718   -1.1663   -9.5276 O   0  0  0  0  0  0  0  0  0  0  0  0
   27.9782    0.7257   -7.8054 C   0  0  0  0  0  0  0  0  0  0  0  0
   27.2793    1.6924   -8.3959 F   0  0  0  0  0  0  0  0  0  0  0  0
   27.6212    0.6464   -6.5232 F   0  0  0  0  0  0  0  0  0  0  0  0
   25.1390    0.6613  -12.9080 C   0  0  0  0  0  0  0  0  0  0  0  0
   26.6696    0.6271  -13.0756 C   0  0  0  0  0  0  0  0  0  0  0  0
  2  1  1  1
  2 26  1  0
  2  3  1  0
  3 18  1  0
  3  4  2  0
  4  5  1  0
  4 25  1  0
  5  6  1  0
  5 16  2  0
  6  7  1  0
  7 15  1  0
  7  8  2  0
  8  9  1  0
  9 10  1  0
  9 11  2  0
 11 12  1  0
 12 13  1  0
 12 15  2  0
 13 14  3  0
 16 17  1  0
 17 18  2  0
 18 19  1  0
 19 20  2  0
 19 21  2  0
 19 22  1  0
 22 23  1  0
 22 24  1  0
 25 26  1  0
M  END
>  <s_m_source_file>  (1) 
ligprep_hif2a.smi

>  <i_m_source_file_index>  (1) 
4

>  <i_lp_mmshare_version>  (1) 
53161

>  <i_f3d_flags>  (1) 
0

>  <s_epik_input>  (1) 
RltDSF0oRilTKD1PKSg9TyljMVtjSF1bY0hdYyhjKGMxMilbQ0gyXVtDSDJdW0NASF0yW09IXSlPYzNbY0hdYyhGKVtjSF1jKEMjTilbY0hdMw==

>  <s_epik_cmdline>  (1) 
J2VwaWtfcHl0aG9uJywgJy1waHQnLCAnMC4wJywgJy1waCcsICc3LjQnLCAnLXRuJywgJzgnLCAnLW1hJywgJzUwMCcsICctaW1hZScsICc8aW5maWxlLm1hZT4nLCAnLW9tYWUnLCAnPG91dGZpbGUubWFlPic=

>  <r_lp_tautomer_probability>  (1) 
1

>  <r_epik_Ionization_Penalty>  (1) 
  0.0000

>  <r_epik_Ionization_Penalty_Charging>  (1) 
  0.0000

>  <r_epik_Ionization_Penalty_Neutral>  (1) 
  0.0000

>  <r_epik_State_Penalty>  (1) 
 -0.0000

>  <r_epik_Charging_Adjusted_Penalty>  (1) 
0

>  <i_epik_Tot_Q>  (1) 
0

>  <i_epik_Tot_abs_Q>  (1) 
0

>  <s_lp_Force_Field>  (1) 
S-OPLS

>  <r_lp_Energy>  (1) 
32.17

>  <b_lp_Chiralities_Consistent>  (1) 
1

>  <s_lp_Variant>  (1) 
lig_155-1

>  <s_i_glide_gridfile>  (1) 
glide-grid_HIF2a-5TBM

>  <i_i_glide_lignum>  (1) 
4

>  <i_i_glide_rotatable_bonds>  (1) 
5

>  <r_i_docking_score>  (1) 
-11.2286125055538

>  <r_i_glide_ligand_efficiency>  (1) 
-0.43186971175207

>  <r_i_glide_ligand_efficiency_sa>  (1) 
-1.27941232174025

>  <r_i_glide_ligand_efficiency_ln>  (1) 
-2.63700280284655

>  <r_i_glide_gscore>  (1) 
-11.2286125055538

>  <r_i_glide_lipo>  (1) 
-4.7706409159739

>  <r_i_glide_hbond>  (1) 
0

>  <r_i_glide_metal>  (1) 
-0

>  <r_i_glide_rewards>  (1) 
-3.43347860267999

>  <r_i_glide_evdw>  (1) 
-54.890251159668

>  <r_i_glide_ecoul>  (1) 
-6.27413940429688

>  <r_i_glide_erotb>  (1) 
0.661140481728

>  <r_i_glide_esite>  (1) 
0

>  <r_i_glide_emodel>  (1) 
-100.513254031992

>  <r_i_glide_energy>  (1) 
-61.1643905639648

>  <r_i_glide_einternal>  (1) 
1.6548330783844

>  <i_i_glide_confnum>  (1) 
3

>  <i_i_glide_posenum>  (1) 
10

>  <r_i_glide_eff_state_penalty>  (1) 
-0

>  <r_i_glide_rmsd>  (1) 
0.0775708314233452

>  <s_glide_core_constrain_type>  (1) 
snapped_core_restrain

$$$$
