lig_167
     RDKit          3D

 27 29  0  0  1  0  0  0  0  0999 V2000
   27.6188    1.6871  -11.1476 O   0  0  0  0  0  0  0  0  0  0  0  0
   27.3074    0.4003  -11.6333 C   0  0  1  0  0  0  0  0  0  0  0  0
   26.1737   -0.1443  -10.8132 C   0  0  0  0  0  0  0  0  0  0  0  0
   24.9742    0.0433  -11.4870 C   0  0  0  0  0  0  0  0  0  0  0  0
   23.7478   -0.3237  -10.9274 C   0  0  0  0  0  0  0  0  0  0  0  0
   22.6333   -0.0953  -11.6850 O   0  0  0  0  0  0  0  0  0  0  0  0
   21.4158   -0.3917  -11.1639 C   0  0  0  0  0  0  0  0  0  0  0  0
   20.8585   -1.6516  -11.3983 C   0  0  0  0  0  0  0  0  0  0  0  0
   19.5884   -1.9297  -10.8858 C   0  0  0  0  0  0  0  0  0  0  0  0
   18.8216   -3.3249  -11.3945 Cl  0  0  0  0  0  0  0  0  0  0  0  0
   18.8741   -0.9785  -10.1404 C   0  0  0  0  0  0  0  0  0  0  0  0
   19.4351    0.2896   -9.9337 C   0  0  0  0  0  0  0  0  0  0  0  0
   18.6885    1.3106   -9.2350 C   0  0  0  0  0  0  0  0  0  0  0  0
   18.0957    2.1243   -8.6758 N   0  0  0  0  0  0  0  0  0  0  0  0
   20.7097    0.5809  -10.4374 C   0  0  0  0  0  0  0  0  0  0  0  0
   23.7467   -0.8625   -9.6148 C   0  0  0  0  0  0  0  0  0  0  0  0
   24.9645   -1.0490   -8.9172 C   0  0  0  0  0  0  0  0  0  0  0  0
   26.1950   -0.7121   -9.5221 C   0  0  0  0  0  0  0  0  0  0  0  0
   27.7108   -0.9333   -8.5834 S   0  0  0  0  0  0  0  0  0  0  0  0
   27.4513   -1.8875   -7.4951 O   0  0  0  0  0  0  0  0  0  0  0  0
   28.8089   -1.2125   -9.5117 O   0  0  0  0  0  0  0  0  0  0  0  0
   28.0164    0.7172   -7.8584 C   0  0  0  0  0  0  0  0  0  0  0  0
   27.4176    0.7990   -6.6758 F   0  0  0  0  0  0  0  0  0  0  0  0
   25.1703    0.6455  -12.8516 C   0  0  0  0  0  0  0  0  0  0  0  0
   26.6951    0.5321  -13.0560 C   0  0  0  0  0  0  0  0  0  0  0  0
   27.2037    1.5416  -13.7675 F   0  0  0  0  0  0  0  0  0  0  0  0
   26.9126   -0.6002  -13.7259 F   0  0  0  0  0  0  0  0  0  0  0  0
  2  1  1  1
  2 25  1  0
  2  3  1  0
  3 18  1  0
  3  4  2  0
  4  5  1  0
  4 24  1  0
  5  6  1  0
  5 16  2  0
  6  7  1  0
  7 15  1  0
  7  8  2  0
  8  9  1  0
  9 10  1  0
  9 11  2  0
 11 12  1  0
 12 13  1  0
 12 15  2  0
 13 14  3  0
 16 17  1  0
 17 18  2  0
 18 19  1  0
 19 20  2  0
 19 21  2  0
 19 22  1  0
 22 23  1  0
 24 25  1  0
 25 26  1  0
 25 27  1  0
M  END
>  <s_m_source_file>  (1) 
ligprep_hif2a.smi

>  <i_m_source_file_index>  (1) 
9

>  <i_lp_mmshare_version>  (1) 
53161

>  <i_f3d_flags>  (1) 
0

>  <s_epik_input>  (1) 
RltDSDJdUyg9TykoPU8pYzFbY0hdW2NIXWMoYyhjMTIpW0NIMl1DKEYpKEYpW0NASF0yW09IXSlPYzNbY0hdYyhDbClbY0hdYyhDI04pW2NIXTM=

>  <s_epik_cmdline>  (1) 
J2VwaWtfcHl0aG9uJywgJy1waHQnLCAnMC4wJywgJy1waCcsICc3LjQnLCAnLXRuJywgJzgnLCAnLW1hJywgJzUwMCcsICctaW1hZScsICc8aW5maWxlLm1hZT4nLCAnLW9tYWUnLCAnPG91dGZpbGUubWFlPic=

>  <r_lp_tautomer_probability>  (1) 
1

>  <r_epik_Ionization_Penalty>  (1) 
  0.0012

>  <r_epik_Ionization_Penalty_Charging>  (1) 
  0.0000

>  <r_epik_Ionization_Penalty_Neutral>  (1) 
  0.0012

>  <r_epik_State_Penalty>  (1) 
 -0.0000

>  <r_epik_Charging_Adjusted_Penalty>  (1) 
0

>  <i_epik_Tot_Q>  (1) 
0

>  <i_epik_Tot_abs_Q>  (1) 
0

>  <s_lp_Force_Field>  (1) 
S-OPLS

>  <r_lp_Energy>  (1) 
27.8189

>  <b_lp_Chiralities_Consistent>  (1) 
1

>  <s_lp_Variant>  (1) 
lig_167-1

>  <s_i_glide_gridfile>  (1) 
glide-grid_HIF2a-5TBM

>  <i_i_glide_lignum>  (1) 
9

>  <i_i_glide_rotatable_bonds>  (1) 
5

>  <r_i_docking_score>  (1) 
-11.367760241085

>  <r_i_glide_ligand_efficiency>  (1) 
-0.421028157077224

>  <r_i_glide_ligand_efficiency_sa>  (1) 
-1.26308446984403

>  <r_i_glide_ligand_efficiency_ln>  (1) 
-2.64622717194997

>  <r_i_glide_gscore>  (1) 
-11.367760241085

>  <r_i_glide_lipo>  (1) 
-5.08385447910974

>  <r_i_glide_hbond>  (1) 
-0.32

>  <r_i_glide_metal>  (1) 
-0

>  <r_i_glide_rewards>  (1) 
-3.04215075748335

>  <r_i_glide_evdw>  (1) 
-47.2625122070312

>  <r_i_glide_ecoul>  (1) 
-7.4993782043457

>  <r_i_glide_erotb>  (1) 
0.566277336511474

>  <r_i_glide_esite>  (1) 
0

>  <r_i_glide_emodel>  (1) 
-78.6680599878334

>  <r_i_glide_energy>  (1) 
-54.761890411377

>  <r_i_glide_einternal>  (1) 
0.401834845542908

>  <i_i_glide_confnum>  (1) 
8

>  <i_i_glide_posenum>  (1) 
26

>  <r_i_glide_eff_state_penalty>  (1) 
-0

>  <r_i_glide_rmsd>  (1) 
0.0898039905398213

>  <s_glide_core_constrain_type>  (1) 
snapped_core_restrain

$$$$
