lig_15
     RDKit          3D

 28 30  0  0  1  0  0  0  0  0999 V2000
   27.6215    1.6999  -11.2081 O   0  0  0  0  0  0  0  0  0  0  0  0
   27.2681    0.4237  -11.6741 C   0  0  1  0  0  0  0  0  0  0  0  0
   26.1298   -0.1027  -10.8394 C   0  0  0  0  0  0  0  0  0  0  0  0
   24.9253    0.0553  -11.5172 C   0  0  0  0  0  0  0  0  0  0  0  0
   23.7021   -0.3265  -10.9534 C   0  0  0  0  0  0  0  0  0  0  0  0
   22.5819   -0.2028  -11.7334 O   0  0  0  0  0  0  0  0  0  0  0  0
   21.3594   -0.4959  -11.2047 C   0  0  0  0  0  0  0  0  0  0  0  0
   20.7861   -1.7649  -11.4099 C   0  0  0  0  0  0  0  0  0  0  0  0
   19.5164   -2.0465  -10.8754 C   0  0  0  0  0  0  0  0  0  0  0  0
   18.9529   -3.2565  -11.0760 F   0  0  0  0  0  0  0  0  0  0  0  0
   18.8208   -1.0615  -10.1515 C   0  0  0  0  0  0  0  0  0  0  0  0
   19.3857    0.2157   -9.9679 C   0  0  0  0  0  0  0  0  0  0  0  0
   18.6750    1.2590   -9.2526 C   0  0  0  0  0  0  0  0  0  0  0  0
   18.1146    2.0894   -8.6778 N   0  0  0  0  0  0  0  0  0  0  0  0
   20.6639    0.4886  -10.4796 C   0  0  0  0  0  0  0  0  0  0  0  0
   23.7117   -0.8309   -9.6271 C   0  0  0  0  0  0  0  0  0  0  0  0
   24.9291   -0.9757   -8.9233 C   0  0  0  0  0  0  0  0  0  0  0  0
   26.1570   -0.6482   -9.5360 C   0  0  0  0  0  0  0  0  0  0  0  0
   27.6733   -0.8902   -8.6062 S   0  0  0  0  0  0  0  0  0  0  0  0
   27.4061   -1.8712   -7.5433 O   0  0  0  0  0  0  0  0  0  0  0  0
   28.7619   -1.1771   -9.5451 O   0  0  0  0  0  0  0  0  0  0  0  0
   28.0035    0.7440   -7.8107 C   0  0  0  0  0  0  0  0  0  0  0  0
   27.3400    1.7150   -8.4347 F   0  0  0  0  0  0  0  0  0  0  0  0
   27.6223    0.6959   -6.5342 F   0  0  0  0  0  0  0  0  0  0  0  0
   25.1240    0.6513  -12.8858 C   0  0  0  0  0  0  0  0  0  0  0  0
   26.6474    0.5529  -13.0885 C   0  0  0  0  0  0  0  0  0  0  0  0
   27.1466    1.5575  -13.8141 F   0  0  0  0  0  0  0  0  0  0  0  0
   26.8820   -0.5836  -13.7456 F   0  0  0  0  0  0  0  0  0  0  0  0
  2  1  1  1
  2 26  1  0
  2  3  1  0
  3 18  1  0
  3  4  2  0
  4  5  1  0
  4 25  1  0
  5  6  1  0
  5 16  2  0
  6  7  1  0
  7 15  1  0
  7  8  2  0
  8  9  1  0
  9 10  1  0
  9 11  2  0
 11 12  1  0
 12 13  1  0
 12 15  2  0
 13 14  3  0
 16 17  1  0
 17 18  2  0
 18 19  1  0
 19 20  2  0
 19 21  2  0
 19 22  1  0
 22 23  1  0
 22 24  1  0
 25 26  1  0
 26 27  1  0
 26 28  1  0
M  END
>  <s_m_source_file>  (1) 
ligprep_hif2a.smi

>  <i_m_source_file_index>  (1) 
3

>  <i_lp_mmshare_version>  (1) 
53161

>  <i_f3d_flags>  (1) 
0

>  <s_epik_input>  (1) 
RltDSF0oRilTKD1PKSg9TyljMVtjSF1bY0hdYyhjKGMxMilbQ0gyXUMoRikoRilbQ0BIXTJbT0hdKU9jM1tjSF1jKEYpW2NIXWMoQyNOKVtjSF0z

>  <s_epik_cmdline>  (1) 
J2VwaWtfcHl0aG9uJywgJy1waHQnLCAnMC4wJywgJy1waCcsICc3LjQnLCAnLXRuJywgJzgnLCAnLW1hJywgJzUwMCcsICctaW1hZScsICc8aW5maWxlLm1hZT4nLCAnLW9tYWUnLCAnPG91dGZpbGUubWFlPic=

>  <r_lp_tautomer_probability>  (1) 
1

>  <r_epik_Ionization_Penalty>  (1) 
  0.0012

>  <r_epik_Ionization_Penalty_Charging>  (1) 
  0.0000

>  <r_epik_Ionization_Penalty_Neutral>  (1) 
  0.0012

>  <r_epik_State_Penalty>  (1) 
 -0.0000

>  <r_epik_Charging_Adjusted_Penalty>  (1) 
0

>  <i_epik_Tot_Q>  (1) 
0

>  <i_epik_Tot_abs_Q>  (1) 
0

>  <s_lp_Force_Field>  (1) 
S-OPLS

>  <r_lp_Energy>  (1) 
30.619

>  <b_lp_Chiralities_Consistent>  (1) 
1

>  <s_lp_Variant>  (1) 
lig_15-1

>  <s_i_glide_gridfile>  (1) 
glide-grid_HIF2a-5TBM

>  <i_i_glide_lignum>  (1) 
3

>  <i_i_glide_rotatable_bonds>  (1) 
5

>  <r_i_docking_score>  (1) 
-11.4889910158896

>  <r_i_glide_ligand_efficiency>  (1) 
-0.410321107710345

>  <r_i_glide_ligand_efficiency_sa>  (1) 
-1.24597654921709

>  <r_i_glide_ligand_efficiency_ln>  (1) 
-2.65199645790152

>  <r_i_glide_gscore>  (1) 
-11.4889910158896

>  <r_i_glide_lipo>  (1) 
-4.76689890857705

>  <r_i_glide_hbond>  (1) 
-0.32

>  <r_i_glide_metal>  (1) 
-0

>  <r_i_glide_rewards>  (1) 
-3.19300344033522

>  <r_i_glide_evdw>  (1) 
-55.2592926025391

>  <r_i_glide_ecoul>  (1) 
-6.72438621520996

>  <r_i_glide_erotb>  (1) 
0.562533895431074

>  <r_i_glide_esite>  (1) 
0

>  <r_i_glide_emodel>  (1) 
-103.025445987754

>  <r_i_glide_energy>  (1) 
-61.983678817749

>  <r_i_glide_einternal>  (1) 
2.0244472026825

>  <i_i_glide_confnum>  (1) 
4

>  <i_i_glide_posenum>  (1) 
13

>  <r_i_glide_eff_state_penalty>  (1) 
-0

>  <r_i_glide_rmsd>  (1) 
0.0671147919311194

>  <s_glide_core_constrain_type>  (1) 
snapped_core_restrain

$$$$
