lig_156
     RDKit          3D

 25 27  0  0  1  0  0  0  0  0999 V2000
   27.6904    1.6707  -11.0758 O   0  0  0  0  0  0  0  0  0  0  0  0
   27.2834    0.4276  -11.6020 C   0  0  1  0  0  0  0  0  0  0  0  0
   26.1180   -0.1139  -10.8122 C   0  0  0  0  0  0  0  0  0  0  0  0
   24.9268    0.0422  -11.5148 C   0  0  0  0  0  0  0  0  0  0  0  0
   23.6914   -0.3662  -10.9825 C   0  0  0  0  0  0  0  0  0  0  0  0
   22.5710   -0.2235  -11.7603 O   0  0  0  0  0  0  0  0  0  0  0  0
   21.3412   -0.5047  -11.2370 C   0  0  0  0  0  0  0  0  0  0  0  0
   20.7734   -1.7844  -11.4126 C   0  0  0  0  0  0  0  0  0  0  0  0
   19.5152   -2.0752  -10.8494 C   0  0  0  0  0  0  0  0  0  0  0  0
   18.8208   -1.0775  -10.1374 C   0  0  0  0  0  0  0  0  0  0  0  0
   19.3797    0.2084   -9.9782 C   0  0  0  0  0  0  0  0  0  0  0  0
   18.6784    1.2554   -9.2573 C   0  0  0  0  0  0  0  0  0  0  0  0
   18.1258    2.0887   -8.6773 N   0  0  0  0  0  0  0  0  0  0  0  0
   20.6424    0.4877  -10.5250 C   0  0  0  0  0  0  0  0  0  0  0  0
   23.6806   -0.8964   -9.6677 C   0  0  0  0  0  0  0  0  0  0  0  0
   24.8844   -1.0580   -8.9453 C   0  0  0  0  0  0  0  0  0  0  0  0
   26.1212   -0.7123   -9.5311 C   0  0  0  0  0  0  0  0  0  0  0  0
   27.6211   -0.9601   -8.5763 S   0  0  0  0  0  0  0  0  0  0  0  0
   27.3223   -1.8918   -7.4799 O   0  0  0  0  0  0  0  0  0  0  0  0
   28.7334   -1.2853   -9.4773 O   0  0  0  0  0  0  0  0  0  0  0  0
   27.9574    0.7007   -7.8667 C   0  0  0  0  0  0  0  0  0  0  0  0
   27.4822    0.7545   -6.6193 F   0  0  0  0  0  0  0  0  0  0  0  0
   29.2655    0.8886   -7.8751 F   0  0  0  0  0  0  0  0  0  0  0  0
   25.1599    0.6520  -12.8711 C   0  0  0  0  0  0  0  0  0  0  0  0
   26.6936    0.6126  -13.0280 C   0  0  0  0  0  0  0  0  0  0  0  0
  2  1  1  1
  2 25  1  0
  2  3  1  0
  3 17  1  0
  3  4  2  0
  4  5  1  0
  4 24  1  0
  5  6  1  0
  5 15  2  0
  6  7  1  0
  7 14  1  0
  7  8  2  0
  8  9  1  0
  9 10  2  0
 10 11  1  0
 11 12  1  0
 11 14  2  0
 12 13  3  0
 15 16  1  0
 16 17  2  0
 17 18  1  0
 18 19  2  0
 18 20  2  0
 18 21  1  0
 21 22  1  0
 21 23  1  0
 24 25  1  0
M  END
>  <s_m_source_file>  (1) 
ligprep_hif2a.smi

>  <i_m_source_file_index>  (1) 
5

>  <i_lp_mmshare_version>  (1) 
53161

>  <i_f3d_flags>  (1) 
0

>  <s_epik_input>  (1) 
RltDSF0oRilTKD1PKSg9TyljMVtjSF1bY0hdYyhjKGMxMilbQ0gyXVtDSDJdW0NASF0yW09IXSlPYzNbY0hdW2NIXVtjSF1jKEMjTilbY0hdMw==

>  <s_epik_cmdline>  (1) 
J2VwaWtfcHl0aG9uJywgJy1waHQnLCAnMC4wJywgJy1waCcsICc3LjQnLCAnLXRuJywgJzgnLCAnLW1hJywgJzUwMCcsICctaW1hZScsICc8aW5maWxlLm1hZT4nLCAnLW9tYWUnLCAnPG91dGZpbGUubWFlPic=

>  <r_lp_tautomer_probability>  (1) 
1

>  <r_epik_Ionization_Penalty>  (1) 
  0.0000

>  <r_epik_Ionization_Penalty_Charging>  (1) 
  0.0000

>  <r_epik_Ionization_Penalty_Neutral>  (1) 
  0.0000

>  <r_epik_State_Penalty>  (1) 
 -0.0000

>  <r_epik_Charging_Adjusted_Penalty>  (1) 
0

>  <i_epik_Tot_Q>  (1) 
0

>  <i_epik_Tot_abs_Q>  (1) 
0

>  <s_lp_Force_Field>  (1) 
S-OPLS

>  <r_lp_Energy>  (1) 
33.9668

>  <b_lp_Chiralities_Consistent>  (1) 
1

>  <s_lp_Variant>  (1) 
lig_156-1

>  <s_i_glide_gridfile>  (1) 
glide-grid_HIF2a-5TBM

>  <i_i_glide_lignum>  (1) 
5

>  <i_i_glide_rotatable_bonds>  (1) 
5

>  <r_i_docking_score>  (1) 
-10.9374296630619

>  <r_i_glide_ligand_efficiency>  (1) 
-0.437497186522475

>  <r_i_glide_ligand_efficiency_sa>  (1) 
-1.27924953243736

>  <r_i_glide_ligand_efficiency_ln>  (1) 
-2.59249859846339

>  <r_i_glide_gscore>  (1) 
-10.9374296630619

>  <r_i_glide_lipo>  (1) 
-4.80062442123086

>  <r_i_glide_hbond>  (1) 
-0.32

>  <r_i_glide_metal>  (1) 
-0

>  <r_i_glide_rewards>  (1) 
-2.90543609161911

>  <r_i_glide_evdw>  (1) 
-53.3212013244629

>  <r_i_glide_ecoul>  (1) 
-6.43882179260254

>  <r_i_glide_erotb>  (1) 
0.720514184901607

>  <r_i_glide_esite>  (1) 
0

>  <r_i_glide_emodel>  (1) 
-97.9239200396318

>  <r_i_glide_energy>  (1) 
-59.7600231170654

>  <r_i_glide_einternal>  (1) 
1.45257163047791

>  <i_i_glide_confnum>  (1) 
2

>  <i_i_glide_posenum>  (1) 
9

>  <r_i_glide_eff_state_penalty>  (1) 
-0

>  <r_i_glide_rmsd>  (1) 
0.0863550012553479

>  <s_glide_core_constrain_type>  (1) 
snapped_core_restrain

$$$$
