lig_231
                    3D
 Schrodinger Suite 2022-3.
 38 40  0  0  1  0            999 V2000
   28.2629    2.0693  -11.7871 H   0  0  0  0  0  0
   27.6211    1.6889  -11.1947 O   0  0  0  0  0  0
   27.2903    0.3967  -11.6456 C   0  0  1  0  0  0
   28.1628   -0.2528  -11.6478 H   0  0  0  0  0  0
   26.1489   -0.1357  -10.8218 C   0  0  0  0  0  0
   24.9476    0.0207  -11.5069 C   0  0  0  0  0  0
   23.7203   -0.3657  -10.9475 C   0  0  0  0  0  0
   22.5971   -0.2279  -11.7235 O   0  0  0  0  0  0
   21.3698   -0.5032  -11.1936 C   0  0  0  0  0  0
   20.7810   -1.7638  -11.4079 C   0  0  0  0  0  0
   21.3039   -2.5227  -11.9717 H   0  0  0  0  0  0
   19.5067   -2.0334  -10.8801 C   0  0  0  0  0  0
   18.9305   -3.2372  -11.0817 F   0  0  0  0  0  0
   18.8211   -1.0445  -10.1542 C   0  0  0  0  0  0
   17.8460   -1.2718   -9.7523 H   0  0  0  0  0  0
   19.3984    0.2256   -9.9646 C   0  0  0  0  0  0
   18.6833    1.2643   -9.2518 C   0  0  0  0  0  0
   18.1154    2.0885   -8.6758 N   0  0  0  0  0  0
   20.6828    0.4881  -10.4676 C   0  0  0  0  0  0
   21.1395    1.4521  -10.2958 H   0  0  0  0  0  0
   23.7295   -0.8915   -9.6294 C   0  0  0  0  0  0
   22.8133   -1.2021   -9.1489 H   0  0  0  0  0  0
   24.9460   -1.0415   -8.9228 C   0  0  0  0  0  0
   24.9331   -1.4480   -7.9227 H   0  0  0  0  0  0
   26.1749   -0.6894   -9.5234 C   0  0  0  0  0  0
   27.6961   -0.8963   -8.5856 S   0  0  0  0  0  0
   27.4405   -1.8262   -7.4781 O   0  0  0  0  0  0
   28.7962   -1.2103   -9.5019 O   0  0  0  0  0  0
   28.0211    0.7634   -7.8793 C   0  0  0  0  0  0
   29.0305    0.7709   -7.4757 H   0  0  0  0  0  0
   27.9576    1.5156   -8.6653 H   0  0  0  0  0  0
   27.2892    0.9857   -7.1030 H   0  0  0  0  0  0
   25.1566    0.6117  -12.8766 C   0  0  0  0  0  0
   24.5923    0.0886  -13.6475 H   0  0  0  0  0  0
   24.8437    1.6565  -12.8612 H   0  0  0  0  0  0
   26.6774    0.4860  -13.0641 C   0  0  1  0  0  0
   26.8616   -0.4671  -13.5637 H   0  0  0  0  0  0
   27.2203    1.4210  -13.8433 F   0  0  0  0  0  0
  1  2  1  0  0  0
  2  3  1  0  0  0
  3 36  1  0  0  0
  3  4  1  0  0  0
  3  5  1  0  0  0
  5 25  1  0  0  0
  5  6  2  0  0  0
  6  7  1  0  0  0
  6 33  1  0  0  0
  7  8  1  0  0  0
  7 21  2  0  0  0
  8  9  1  0  0  0
  9 19  1  0  0  0
  9 10  2  0  0  0
 10 11  1  0  0  0
 10 12  1  0  0  0
 12 13  1  0  0  0
 12 14  2  0  0  0
 14 15  1  0  0  0
 14 16  1  0  0  0
 16 17  1  0  0  0
 16 19  2  0  0  0
 17 18  3  0  0  0
 19 20  1  0  0  0
 21 22  1  0  0  0
 21 23  1  0  0  0
 23 24  1  0  0  0
 23 25  2  0  0  0
 25 26  1  0  0  0
 26 27  2  0  0  0
 26 28  2  0  0  0
 26 29  1  0  0  0
 29 30  1  0  0  0
 29 31  1  0  0  0
 29 32  1  0  0  0
 33 34  1  0  0  0
 33 35  1  0  0  0
 33 36  1  0  0  0
 36 37  1  0  0  0
 36 38  1  0  0  0
M  END
> <s_m_source_file>
ligprep_hif2a.smi

> <i_m_source_file_index>
15

> <i_lp_mmshare_version>
53161

> <i_f3d_flags>
0

> <s_epik_input>
W09IXVtDQEBIXTFbQ0BIXShGKVtDSDJdYyhjMTIpYyhbY0hdW2NIXWMyUyg9TykoPU8pW0NIM10pT2MzW2NIXWMoRilbY0hdYyhDI04pW2NIXTM=

> <s_epik_cmdline>
J2VwaWtfcHl0aG9uJywgJy1waHQnLCAnMC4wJywgJy1waCcsICc3LjQnLCAnLXRuJywgJzgnLCAnLW1hJywgJzUwMCcsICctaW1hZScsICc8aW5maWxlLm1hZT4nLCAnLW9tYWUnLCAnPG91dGZpbGUubWFlPic=

> <r_lp_tautomer_probability>
1

> <r_epik_Ionization_Penalty>
  0.0000

> <r_epik_Ionization_Penalty_Charging>
  0.0000

> <r_epik_Ionization_Penalty_Neutral>
  0.0000

> <r_epik_State_Penalty>
 -0.0000

> <r_epik_Charging_Adjusted_Penalty>
0

> <i_epik_Tot_Q>
0

> <i_epik_Tot_abs_Q>
0

> <s_lp_Force_Field>
S-OPLS

> <r_lp_Energy>
22.2482

> <b_lp_Chiralities_Consistent>
1

> <s_lp_Variant>
lig_231-1

> <s_i_glide_gridfile>
glide-grid_HIF2a-5TBM

> <i_i_glide_lignum>
15

> <i_i_glide_rotatable_bonds>
4

> <r_i_docking_score>
-11.7068294452068

> <r_i_glide_ligand_efficiency>
-0.468273177808273

> <r_i_glide_ligand_efficiency_sa>
-1.36923907677156

> <r_i_glide_ligand_efficiency_ln>
-2.77486940388262

> <r_i_glide_gscore>
-11.7068294452068

> <r_i_glide_lipo>
-4.79663279299418

> <r_i_glide_hbond>
-0.32

> <r_i_glide_metal>
-0

> <r_i_glide_rewards>
-3.48962912592739

> <r_i_glide_evdw>
-54.9381675720215

> <r_i_glide_ecoul>
-6.20046997070312

> <r_i_glide_erotb>
0.576411347921285

> <r_i_glide_esite>
0

> <r_i_glide_emodel>
-102.548867421008

> <r_i_glide_energy>
-61.1386375427246

> <r_i_glide_einternal>
0.00639106146991253

> <i_i_glide_confnum>
1

> <i_i_glide_posenum>
1

> <r_i_glide_eff_state_penalty>
-0

> <r_i_glide_rmsd>
0.068934951076553

> <s_glide_core_constrain_type>
snapped_core_restrain

$$$$
lig_163
                    3D
 Schrodinger Suite 2022-3.
 38 40  0  0  1  0            999 V2000
   28.2836    2.0617  -11.7670 H   0  0  0  0  0  0
   27.6215    1.6907  -11.1916 O   0  0  0  0  0  0
   27.2823    0.4079  -11.6600 C   0  0  1  0  0  0
   28.1507   -0.2521  -11.6788 H   0  0  0  0  0  0
   26.1422   -0.1137  -10.8272 C   0  0  0  0  0  0
   24.9396    0.0537  -11.5072 C   0  0  0  0  0  0
   23.7129   -0.3222  -10.9427 C   0  0  0  0  0  0
   22.5915   -0.2001  -11.7241 O   0  0  0  0  0  0
   21.3669   -0.4931  -11.1973 C   0  0  0  0  0  0
   20.7904   -1.7605  -11.4108 C   0  0  0  0  0  0
   21.3230   -2.5151  -11.9731 H   0  0  0  0  0  0
   19.5174   -2.0426  -10.8823 C   0  0  0  0  0  0
   18.9479   -3.2494  -11.0909 F   0  0  0  0  0  0
   18.8209   -1.0592  -10.1556 C   0  0  0  0  0  0
   17.8462   -1.2946   -9.7538 H   0  0  0  0  0  0
   19.3888    0.2167   -9.9639 C   0  0  0  0  0  0
   18.6794    1.2595   -9.2500 C   0  0  0  0  0  0
   18.1191    2.0900   -8.6754 N   0  0  0  0  0  0
   20.6682    0.4891  -10.4724 C   0  0  0  0  0  0
   21.1180    1.4569  -10.3002 H   0  0  0  0  0  0
   23.7214   -0.8261   -9.6149 C   0  0  0  0  0  0
   22.8058   -1.1303   -9.1268 H   0  0  0  0  0  0
   24.9387   -0.9834   -8.9130 C   0  0  0  0  0  0
   24.9231   -1.3788   -7.9106 H   0  0  0  0  0  0
   26.1674   -0.6594   -9.5242 C   0  0  0  0  0  0
   27.6821   -0.8863   -8.5928 S   0  0  0  0  0  0
   27.4226   -1.8111   -7.4810 O   0  0  0  0  0  0
   28.7713   -1.2109   -9.5165 O   0  0  0  0  0  0
   28.0219    0.7680   -7.8820 C   0  0  0  0  0  0
   28.9862    0.7213   -7.3879 H   0  0  0  0  0  0
   28.0845    1.5125   -8.6725 H   0  0  0  0  0  0
   27.2368    1.0442   -7.1790 H   0  0  0  0  0  0
   25.1433    0.6440  -12.8770 C   0  0  0  0  0  0
   24.5766    0.1261  -13.6500 H   0  0  0  0  0  0
   24.8201    1.6841  -12.8443 H   0  0  0  0  0  0
   26.6645    0.5419  -13.0751 C   0  0  0  0  0  0
   27.1708    1.5412  -13.7983 F   0  0  0  0  0  0
   26.8991   -0.5961  -13.7288 F   0  0  0  0  0  0
  1  2  1  0  0  0
  2  3  1  0  0  0
  3 36  1  0  0  0
  3  4  1  0  0  0
  3  5  1  0  0  0
  5 25  1  0  0  0
  5  6  2  0  0  0
  6  7  1  0  0  0
  6 33  1  0  0  0
  7  8  1  0  0  0
  7 21  2  0  0  0
  8  9  1  0  0  0
  9 19  1  0  0  0
  9 10  2  0  0  0
 10 11  1  0  0  0
 10 12  1  0  0  0
 12 13  1  0  0  0
 12 14  2  0  0  0
 14 15  1  0  0  0
 14 16  1  0  0  0
 16 17  1  0  0  0
 16 19  2  0  0  0
 17 18  3  0  0  0
 19 20  1  0  0  0
 21 22  1  0  0  0
 21 23  1  0  0  0
 23 24  1  0  0  0
 23 25  2  0  0  0
 25 26  1  0  0  0
 26 27  2  0  0  0
 26 28  2  0  0  0
 26 29  1  0  0  0
 29 30  1  0  0  0
 29 31  1  0  0  0
 29 32  1  0  0  0
 33 34  1  0  0  0
 33 35  1  0  0  0
 33 36  1  0  0  0
 36 37  1  0  0  0
 36 38  1  0  0  0
M  END
> <s_m_source_file>
ligprep_hif2a.smi

> <i_m_source_file_index>
6

> <i_lp_mmshare_version>
53161

> <i_f3d_flags>
0

> <s_epik_input>
W09IXVtDQEBIXTFDKEYpKEYpW0NIMl1jKGMxMiljKFtjSF1bY0hdYzJTKD1PKSg9TylbQ0gzXSlPYzNbY0hdYyhGKVtjSF1jKEMjTilbY0hdMw==

> <s_epik_cmdline>
J2VwaWtfcHl0aG9uJywgJy1waHQnLCAnMC4wJywgJy1waCcsICc3LjQnLCAnLXRuJywgJzgnLCAnLW1hJywgJzUwMCcsICctaW1hZScsICc8aW5maWxlLm1hZT4nLCAnLW9tYWUnLCAnPG91dGZpbGUubWFlPic=

> <r_lp_tautomer_probability>
1

> <r_epik_Ionization_Penalty>
  0.0012

> <r_epik_Ionization_Penalty_Charging>
  0.0000

> <r_epik_Ionization_Penalty_Neutral>
  0.0012

> <r_epik_State_Penalty>
 -0.0000

> <r_epik_Charging_Adjusted_Penalty>
0

> <i_epik_Tot_Q>
0

> <i_epik_Tot_abs_Q>
0

> <s_lp_Force_Field>
S-OPLS

> <r_lp_Energy>
26.0446

> <b_lp_Chiralities_Consistent>
1

> <s_lp_Variant>
lig_163-1

> <s_i_glide_gridfile>
glide-grid_HIF2a-5TBM

> <i_i_glide_lignum>
6

> <i_i_glide_rotatable_bonds>
4

> <r_i_docking_score>
-11.6659309603248

> <r_i_glide_ligand_efficiency>
-0.448689652320183

> <r_i_glide_ligand_efficiency_sa>
-1.32924132949001

> <r_i_glide_ligand_efficiency_ln>
-2.73970560699061

> <r_i_glide_gscore>
-11.6659309603248

> <r_i_glide_lipo>
-4.75862042484576

> <r_i_glide_hbond>
-0.32

> <r_i_glide_metal>
-0

> <r_i_glide_rewards>
-3.44254902884021

> <r_i_glide_evdw>
-54.3606872558594

> <r_i_glide_ecoul>
-6.37093019485474

> <r_i_glide_erotb>
0.5289123853824

> <r_i_glide_esite>
0

> <r_i_glide_emodel>
-101.903127994196

> <r_i_glide_energy>
-60.7316174507141

> <r_i_glide_einternal>
0.00623124511912465

> <i_i_glide_confnum>
1

> <i_i_glide_posenum>
1

> <r_i_glide_eff_state_penalty>
-0

> <r_i_glide_rmsd>
0.0640791469618792

> <s_glide_core_constrain_type>
snapped_core_restrain

$$$$
lig_289
                    3D
 Schrodinger Suite 2022-3.
 38 40  0  0  1  0            999 V2000
   28.2592    2.0698  -11.7691 H   0  0  0  0  0  0
   27.6210    1.6878  -11.1735 O   0  0  0  0  0  0
   27.3049    0.3877  -11.6193 C   0  0  1  0  0  0
   28.1931   -0.2409  -11.6299 H   0  0  0  0  0  0
   26.1684   -0.1681  -10.7964 C   0  0  0  0  0  0
   24.9637   -0.0333  -11.4774 C   0  0  0  0  0  0
   23.7379   -0.4161  -10.9168 C   0  0  0  0  0  0
   22.6185   -0.2578  -11.6928 O   0  0  0  0  0  0
   21.3884   -0.5202  -11.1683 C   0  0  0  0  0  0
   20.7983   -1.7807  -11.3832 C   0  0  0  0  0  0
   21.3227   -2.5439  -11.9424 H   0  0  0  0  0  0
   19.5152   -2.0404  -10.8792 C   0  0  0  0  0  0
   18.9370   -3.2406  -11.1022 F   0  0  0  0  0  0
   18.8211   -1.0427  -10.1689 C   0  0  0  0  0  0
   17.8346   -1.2556   -9.7853 H   0  0  0  0  0  0
   19.4099    0.2211   -9.9608 C   0  0  0  0  0  0
   18.6966    1.2622   -9.2506 C   0  0  0  0  0  0
   18.1293    2.0886   -8.6760 N   0  0  0  0  0  0
   20.7024    0.4778  -10.4489 C   0  0  0  0  0  0
   21.1598    1.4406  -10.2758 H   0  0  0  0  0  0
   23.7447   -0.9387   -9.5968 C   0  0  0  0  0  0
   22.8308   -1.2500   -9.1165 H   0  0  0  0  0  0
   24.9660   -1.0831   -8.8946 C   0  0  0  0  0  0
   24.9565   -1.4839   -7.8917 H   0  0  0  0  0  0
   26.1924   -0.7227   -9.4992 C   0  0  0  0  0  0
   27.7155   -0.9178   -8.5769 S   0  0  0  0  0  0
   27.4721   -1.8563   -7.4758 O   0  0  0  0  0  0
   28.8066   -1.2156   -9.5079 O   0  0  0  0  0  0
   28.0210    0.7422   -7.8720 C   0  0  0  0  0  0
   29.0338    0.7641   -7.4758 H   0  0  0  0  0  0
   27.9426    1.4995   -8.6517 H   0  0  0  0  0  0
   27.2908    0.9456   -7.0914 H   0  0  0  0  0  0
   25.1596    0.5879  -12.8283 C   0  0  1  0  0  0
   24.5550    0.1382  -13.6141 H   0  0  0  0  0  0
   24.8215    1.8609  -12.6758 F   0  0  0  0  0  0
   26.6773    0.4578  -13.0293 C   0  0  1  0  0  0
   26.8423   -0.5166  -13.4949 H   0  0  0  0  0  0
   27.2207    1.3461  -13.8648 F   0  0  0  0  0  0
  1  2  1  0  0  0
  2  3  1  0  0  0
  3 36  1  0  0  0
  3  4  1  0  0  0
  3  5  1  0  0  0
  5 25  1  0  0  0
  5  6  2  0  0  0
  6  7  1  0  0  0
  6 33  1  0  0  0
  7  8  1  0  0  0
  7 21  2  0  0  0
  8  9  1  0  0  0
  9 19  1  0  0  0
  9 10  2  0  0  0
 10 11  1  0  0  0
 10 12  1  0  0  0
 12 13  1  0  0  0
 12 14  2  0  0  0
 14 15  1  0  0  0
 14 16  1  0  0  0
 16 17  1  0  0  0
 16 19  2  0  0  0
 17 18  3  0  0  0
 19 20  1  0  0  0
 21 22  1  0  0  0
 21 23  1  0  0  0
 23 24  1  0  0  0
 23 25  2  0  0  0
 25 26  1  0  0  0
 26 27  2  0  0  0
 26 28  2  0  0  0
 26 29  1  0  0  0
 29 30  1  0  0  0
 29 31  1  0  0  0
 29 32  1  0  0  0
 33 34  1  0  0  0
 33 35  1  0  0  0
 33 36  1  0  0  0
 36 37  1  0  0  0
 36 38  1  0  0  0
M  END
> <s_m_source_file>
ligprep_hif2a.smi

> <i_m_source_file_index>
25

> <i_lp_mmshare_version>
53161

> <i_f3d_flags>
0

> <s_epik_input>
W09IXVtDQEBIXTFbQ0BIXShGKVtDQEhdKEYpYyhjMTIpYyhbY0hdW2NIXWMyUyg9TykoPU8pW0NIM10pT2MzW2NIXWMoRilbY0hdYyhDI04pW2NIXTM=

> <s_epik_cmdline>
J2VwaWtfcHl0aG9uJywgJy1waHQnLCAnMC4wJywgJy1waCcsICc3LjQnLCAnLXRuJywgJzgnLCAnLW1hJywgJzUwMCcsICctaW1hZScsICc8aW5maWxlLm1hZT4nLCAnLW9tYWUnLCAnPG91dGZpbGUubWFlPic=

> <r_lp_tautomer_probability>
1

> <r_epik_Ionization_Penalty>
  0.0001

> <r_epik_Ionization_Penalty_Charging>
  0.0000

> <r_epik_Ionization_Penalty_Neutral>
  0.0001

> <r_epik_State_Penalty>
 -0.0000

> <r_epik_Charging_Adjusted_Penalty>
0

> <i_epik_Tot_Q>
0

> <i_epik_Tot_abs_Q>
0

> <s_lp_Force_Field>
S-OPLS

> <r_lp_Energy>
21.8949

> <b_lp_Chiralities_Consistent>
1

> <s_lp_Variant>
lig_289-1

> <s_i_glide_gridfile>
glide-grid_HIF2a-5TBM

> <i_i_glide_lignum>
25

> <i_i_glide_rotatable_bonds>
4

> <r_i_docking_score>
-11.6654856335111

> <r_i_glide_ligand_efficiency>
-0.448672524365812

> <r_i_glide_ligand_efficiency_sa>
-1.32919058799258

> <r_i_glide_ligand_efficiency_ln>
-2.73960102344966

> <r_i_glide_gscore>
-11.6654856335111

> <r_i_glide_lipo>
-4.81635113873159

> <r_i_glide_hbond>
-0.32

> <r_i_glide_metal>
-0

> <r_i_glide_rewards>
-3.41211246529833

> <r_i_glide_evdw>
-54.8286476135254

> <r_i_glide_ecoul>
-6.03001356124878

> <r_i_glide_erotb>
0.5289123853824

> <r_i_glide_esite>
0

> <r_i_glide_emodel>
-99.8799870541715

> <r_i_glide_energy>
-60.8586611747742

> <r_i_glide_einternal>
0.00634645530954003

> <i_i_glide_confnum>
1

> <i_i_glide_posenum>
1

> <r_i_glide_eff_state_penalty>
-0

> <r_i_glide_rmsd>
0.0852515785993602

> <s_glide_core_constrain_type>
snapped_core_restrain

$$$$
lig_57
                    3D
 Schrodinger Suite 2022-3.
 38 40  0  0  1  0            999 V2000
   28.3127    2.0540  -11.7307 H   0  0  0  0  0  0
   27.6223    1.6890  -11.1816 O   0  0  0  0  0  0
   27.2581    0.4237  -11.6704 C   0  0  1  0  0  0
   28.1150   -0.2439  -11.6961 H   0  0  0  0  0  0
   26.1095   -0.1165  -10.8657 C   0  0  0  0  0  0
   24.9177    0.0393  -11.5606 C   0  0  0  0  0  0
   23.6836   -0.3434  -11.0139 C   0  0  0  0  0  0
   22.5667   -0.2154  -11.7986 O   0  0  0  0  0  0
   21.3430   -0.4995  -11.2626 C   0  0  0  0  0  0
   20.7619   -1.7680  -11.4576 C   0  0  0  0  0  0
   21.2869   -2.5190  -12.0312 H   0  0  0  0  0  0
   19.5001   -2.0391  -10.9051 C   0  0  0  0  0  0
   18.9325   -3.2530  -11.0955 F   0  0  0  0  0  0
   18.8211   -1.0563  -10.1681 C   0  0  0  0  0  0
   17.8578   -1.2888   -9.7472 H   0  0  0  0  0  0
   19.3915    0.2199   -9.9968 C   0  0  0  0  0  0
   18.6876    1.2566   -9.2728 C   0  0  0  0  0  0
   18.1309    2.0883   -8.6968 N   0  0  0  0  0  0
   20.6597    0.4885  -10.5277 C   0  0  0  0  0  0
   21.1180    1.4526  -10.3682 H   0  0  0  0  0  0
   23.6768   -0.8525   -9.6902 C   0  0  0  0  0  0
   22.7587   -1.1484   -9.2065 H   0  0  0  0  0  0
   24.8835   -1.0001   -8.9716 C   0  0  0  0  0  0
   24.8592   -1.4027   -7.9682 H   0  0  0  0  0  0
   26.1189   -0.6663   -9.5639 C   0  0  0  0  0  0
   27.6234   -0.9241   -8.6188 S   0  0  0  0  0  0
   27.3278   -1.9087   -7.5699 O   0  0  0  0  0  0
   28.7269   -1.2208   -9.5351 O   0  0  0  0  0  0
   27.9904    0.6948   -7.8075 C   0  0  0  0  0  0
   27.6201    0.6193   -6.5360 F   0  0  0  0  0  0
   29.2951    0.8886   -7.8911 F   0  0  0  0  0  0
   27.3217    1.6742   -8.4095 F   0  0  0  0  0  0
   25.1336    0.6400  -12.9241 C   0  0  0  0  0  0
   24.6141    0.0886  -13.7072 H   0  0  0  0  0  0
   24.7679    1.6666  -12.9208 H   0  0  0  0  0  0
   26.6653    0.5904  -13.0905 C   0  0  0  0  0  0
   26.8955   -0.3209  -13.6496 H   0  0  0  0  0  0
   27.0805    1.4198  -13.6668 H   0  0  0  0  0  0
  1  2  1  0  0  0
  2  3  1  0  0  0
  3 36  1  0  0  0
  3  4  1  0  0  0
  3  5  1  0  0  0
  5 25  1  0  0  0
  5  6  2  0  0  0
  6  7  1  0  0  0
  6 33  1  0  0  0
  7  8  1  0  0  0
  7 21  2  0  0  0
  8  9  1  0  0  0
  9 19  1  0  0  0
  9 10  2  0  0  0
 10 11  1  0  0  0
 10 12  1  0  0  0
 12 13  1  0  0  0
 12 14  2  0  0  0
 14 15  1  0  0  0
 14 16  1  0  0  0
 16 17  1  0  0  0
 16 19  2  0  0  0
 17 18  3  0  0  0
 19 20  1  0  0  0
 21 22  1  0  0  0
 21 23  1  0  0  0
 23 24  1  0  0  0
 23 25  2  0  0  0
 25 26  1  0  0  0
 26 27  2  0  0  0
 26 28  2  0  0  0
 26 29  1  0  0  0
 29 30  1  0  0  0
 29 31  1  0  0  0
 29 32  1  0  0  0
 33 34  1  0  0  0
 33 35  1  0  0  0
 33 36  1  0  0  0
 36 37  1  0  0  0
 36 38  1  0  0  0
M  END
> <s_m_source_file>
ligprep_hif2a.smi

> <i_m_source_file_index>
37

> <i_lp_mmshare_version>
53161

> <i_f3d_flags>
0

> <s_epik_input>
RkMoRikoRilTKD1PKSg9TyljMVtjSF1bY0hdYyhjKGMxMilbQ0gyXVtDSDJdW0NASF0yW09IXSlPYzNbY0hdYyhGKVtjSF1jKEMjTilbY0hdMw==

> <s_epik_cmdline>
J2VwaWtfcHl0aG9uJywgJy1waHQnLCAnMC4wJywgJy1waCcsICc3LjQnLCAnLXRuJywgJzgnLCAnLW1hJywgJzUwMCcsICctaW1hZScsICc8aW5maWxlLm1hZT4nLCAnLW9tYWUnLCAnPG91dGZpbGUubWFlPic=

> <r_lp_tautomer_probability>
1

> <r_epik_Ionization_Penalty>
  0.0000

> <r_epik_Ionization_Penalty_Charging>
  0.0000

> <r_epik_Ionization_Penalty_Neutral>
  0.0000

> <r_epik_State_Penalty>
 -0.0000

> <r_epik_Charging_Adjusted_Penalty>
0

> <i_epik_Tot_Q>
0

> <i_epik_Tot_abs_Q>
0

> <s_lp_Force_Field>
S-OPLS

> <r_lp_Energy>
36.9505

> <b_lp_Chiralities_Consistent>
1

> <s_lp_Variant>
lig_57-1

> <s_i_glide_gridfile>
glide-grid_HIF2a-5TBM

> <i_i_glide_lignum>
37

> <i_i_glide_rotatable_bonds>
5

> <r_i_docking_score>
-11.4902594678897

> <r_i_glide_ligand_efficiency>
-0.425565165477396

> <r_i_glide_ligand_efficiency_sa>
-1.27669549502959

> <r_i_glide_ligand_efficiency_ln>
-2.6747429723925

> <r_i_glide_gscore>
-11.4902594678897

> <r_i_glide_lipo>
-4.80073733307911

> <r_i_glide_hbond>
-0.32

> <r_i_glide_metal>
-0

> <r_i_glide_rewards>
-3.32005566295155

> <r_i_glide_evdw>
-54.4052238464355

> <r_i_glide_ecoul>
-6.25364875793457

> <r_i_glide_erotb>
0.608842034152934

> <r_i_glide_esite>
0

> <r_i_glide_emodel>
-100.700212413363

> <r_i_glide_energy>
-60.6588726043701

> <r_i_glide_einternal>
0.225986659526825

> <i_i_glide_confnum>
3

> <i_i_glide_posenum>
13

> <r_i_glide_eff_state_penalty>
-0

> <r_i_glide_rmsd>
0.0846964536803915

> <s_glide_core_constrain_type>
snapped_core_restrain

$$$$
lig_15
                    3D
 Schrodinger Suite 2022-3.
 38 40  0  0  1  0            999 V2000
   28.2683    2.0825  -11.7954 H   0  0  0  0  0  0
   27.6215    1.6999  -11.2081 O   0  0  0  0  0  0
   27.2681    0.4237  -11.6741 C   0  0  1  0  0  0
   28.1377   -0.2279  -11.6919 H   0  0  0  0  0  0
   26.1298   -0.1027  -10.8394 C   0  0  0  0  0  0
   24.9253    0.0553  -11.5172 C   0  0  0  0  0  0
   23.7021   -0.3265  -10.9534 C   0  0  0  0  0  0
   22.5819   -0.2028  -11.7334 O   0  0  0  0  0  0
   21.3594   -0.4959  -11.2047 C   0  0  0  0  0  0
   20.7861   -1.7649  -11.4099 C   0  0  0  0  0  0
   21.3199   -2.5196  -11.9702 H   0  0  0  0  0  0
   19.5164   -2.0465  -10.8754 C   0  0  0  0  0  0
   18.9529   -3.2565  -11.0760 F   0  0  0  0  0  0
   18.8208   -1.0615  -10.1515 C   0  0  0  0  0  0
   17.8482   -1.2989   -9.7461 H   0  0  0  0  0  0
   19.3857    0.2157   -9.9679 C   0  0  0  0  0  0
   18.6750    1.2590   -9.2526 C   0  0  0  0  0  0
   18.1146    2.0894   -8.6778 N   0  0  0  0  0  0
   20.6639    0.4886  -10.4796 C   0  0  0  0  0  0
   21.1126    1.4582  -10.3147 H   0  0  0  0  0  0
   23.7117   -0.8309   -9.6271 C   0  0  0  0  0  0
   22.7955   -1.1256   -9.1343 H   0  0  0  0  0  0
   24.9291   -0.9757   -8.9233 C   0  0  0  0  0  0
   24.9153   -1.3679   -7.9163 H   0  0  0  0  0  0
   26.1570   -0.6482   -9.5360 C   0  0  0  0  0  0
   27.6733   -0.8902   -8.6062 S   0  0  0  0  0  0
   27.4061   -1.8712   -7.5433 O   0  0  0  0  0  0
   28.7619   -1.1771   -9.5451 O   0  0  0  0  0  0
   28.0035    0.7440   -7.8107 C   0  0  0  0  0  0
   29.0707    0.9541   -7.8628 H   0  0  0  0  0  0
   27.3400    1.7150   -8.4347 F   0  0  0  0  0  0
   27.6223    0.6959   -6.5342 F   0  0  0  0  0  0
   25.1240    0.6513  -12.8858 C   0  0  0  0  0  0
   24.5547    0.1362  -13.6604 H   0  0  0  0  0  0
   24.8041    1.6954  -12.8554 H   0  0  0  0  0  0
   26.6474    0.5529  -13.0885 C   0  0  0  0  0  0
   27.1466    1.5575  -13.8141 F   0  0  0  0  0  0
   26.8820   -0.5836  -13.7456 F   0  0  0  0  0  0
  1  2  1  0  0  0
  2  3  1  0  0  0
  3 36  1  0  0  0
  3  4  1  0  0  0
  3  5  1  0  0  0
  5 25  1  0  0  0
  5  6  2  0  0  0
  6  7  1  0  0  0
  6 33  1  0  0  0
  7  8  1  0  0  0
  7 21  2  0  0  0
  8  9  1  0  0  0
  9 19  1  0  0  0
  9 10  2  0  0  0
 10 11  1  0  0  0
 10 12  1  0  0  0
 12 13  1  0  0  0
 12 14  2  0  0  0
 14 15  1  0  0  0
 14 16  1  0  0  0
 16 17  1  0  0  0
 16 19  2  0  0  0
 17 18  3  0  0  0
 19 20  1  0  0  0
 21 22  1  0  0  0
 21 23  1  0  0  0
 23 24  1  0  0  0
 23 25  2  0  0  0
 25 26  1  0  0  0
 26 27  2  0  0  0
 26 28  2  0  0  0
 26 29  1  0  0  0
 29 30  1  0  0  0
 29 31  1  0  0  0
 29 32  1  0  0  0
 33 34  1  0  0  0
 33 35  1  0  0  0
 33 36  1  0  0  0
 36 37  1  0  0  0
 36 38  1  0  0  0
M  END
> <s_m_source_file>
ligprep_hif2a.smi

> <i_m_source_file_index>
3

> <i_lp_mmshare_version>
53161

> <i_f3d_flags>
0

> <s_epik_input>
RltDSF0oRilTKD1PKSg9TyljMVtjSF1bY0hdYyhjKGMxMilbQ0gyXUMoRikoRilbQ0BIXTJbT0hdKU9jM1tjSF1jKEYpW2NIXWMoQyNOKVtjSF0z

> <s_epik_cmdline>
J2VwaWtfcHl0aG9uJywgJy1waHQnLCAnMC4wJywgJy1waCcsICc3LjQnLCAnLXRuJywgJzgnLCAnLW1hJywgJzUwMCcsICctaW1hZScsICc8aW5maWxlLm1hZT4nLCAnLW9tYWUnLCAnPG91dGZpbGUubWFlPic=

> <r_lp_tautomer_probability>
1

> <r_epik_Ionization_Penalty>
  0.0012

> <r_epik_Ionization_Penalty_Charging>
  0.0000

> <r_epik_Ionization_Penalty_Neutral>
  0.0012

> <r_epik_State_Penalty>
 -0.0000

> <r_epik_Charging_Adjusted_Penalty>
0

> <i_epik_Tot_Q>
0

> <i_epik_Tot_abs_Q>
0

> <s_lp_Force_Field>
S-OPLS

> <r_lp_Energy>
30.619

> <b_lp_Chiralities_Consistent>
1

> <s_lp_Variant>
lig_15-1

> <s_i_glide_gridfile>
glide-grid_HIF2a-5TBM

> <i_i_glide_lignum>
3

> <i_i_glide_rotatable_bonds>
5

> <r_i_docking_score>
-11.4889910158896

> <r_i_glide_ligand_efficiency>
-0.410321107710345

> <r_i_glide_ligand_efficiency_sa>
-1.24597654921709

> <r_i_glide_ligand_efficiency_ln>
-2.65199645790152

> <r_i_glide_gscore>
-11.4889910158896

> <r_i_glide_lipo>
-4.76689890857705

> <r_i_glide_hbond>
-0.32

> <r_i_glide_metal>
-0

> <r_i_glide_rewards>
-3.19300344033522

> <r_i_glide_evdw>
-55.2592926025391

> <r_i_glide_ecoul>
-6.72438621520996

> <r_i_glide_erotb>
0.562533895431074

> <r_i_glide_esite>
0

> <r_i_glide_emodel>
-103.025445987754

> <r_i_glide_energy>
-61.983678817749

> <r_i_glide_einternal>
2.0244472026825

> <i_i_glide_confnum>
4

> <i_i_glide_posenum>
13

> <r_i_glide_eff_state_penalty>
-0

> <r_i_glide_rmsd>
0.0671147919311194

> <s_glide_core_constrain_type>
snapped_core_restrain

$$$$
lig_227
                    3D
 Schrodinger Suite 2022-3.
 38 40  0  0  1  0            999 V2000
   28.2743    2.0735  -11.7620 H   0  0  0  0  0  0
   27.6211    1.6900  -11.1889 O   0  0  0  0  0  0
   27.2629    0.4237  -11.6844 C   0  0  1  0  0  0
   28.1245   -0.2426  -11.7073 H   0  0  0  0  0  0
   26.1121   -0.1159  -10.8792 C   0  0  0  0  0  0
   24.9163    0.0502  -11.5691 C   0  0  0  0  0  0
   23.6844   -0.3355  -11.0183 C   0  0  0  0  0  0
   22.5613   -0.1927  -11.7936 O   0  0  0  0  0  0
   21.3375   -0.4807  -11.2608 C   0  0  0  0  0  0
   20.7611   -1.7500  -11.4603 C   0  0  0  0  0  0
   21.2850   -2.5050  -12.0281 H   0  0  0  0  0  0
   19.5000   -2.0321  -10.9063 C   0  0  0  0  0  0
   18.9330   -3.2428  -11.0929 F   0  0  0  0  0  0
   18.8169   -1.0503  -10.1677 C   0  0  0  0  0  0
   17.8521   -1.2878   -9.7484 H   0  0  0  0  0  0
   19.3797    0.2293   -9.9935 C   0  0  0  0  0  0
   18.6744    1.2662   -9.2648 C   0  0  0  0  0  0
   18.1165    2.0932   -8.6774 N   0  0  0  0  0  0
   20.6493    0.5011  -10.5267 C   0  0  0  0  0  0
   21.0969    1.4689  -10.3643 H   0  0  0  0  0  0
   23.6812   -0.8568   -9.6985 C   0  0  0  0  0  0
   22.7607   -1.1541   -9.2181 H   0  0  0  0  0  0
   24.8913   -1.0167   -8.9888 C   0  0  0  0  0  0
   24.8657   -1.4216   -7.9871 H   0  0  0  0  0  0
   26.1243   -0.6778   -9.5866 C   0  0  0  0  0  0
   27.6305   -0.9220   -8.6443 S   0  0  0  0  0  0
   27.3346   -1.8906   -7.5790 O   0  0  0  0  0  0
   28.7409   -1.2237   -9.5545 O   0  0  0  0  0  0
   27.9692    0.7063   -7.8595 C   0  0  0  0  0  0
   27.6209    0.6356   -6.5766 F   0  0  0  0  0  0
   29.2593    0.9500   -7.9721 F   0  0  0  0  0  0
   27.2769    1.6760   -8.4497 F   0  0  0  0  0  0
   25.1364    0.6621  -12.9273 C   0  0  0  0  0  0
   24.5938    0.1364  -13.7123 H   0  0  0  0  0  0
   24.8005    1.6989  -12.9031 H   0  0  0  0  0  0
   26.6617    0.5684  -13.1030 C   0  0  1  0  0  0
   26.8723   -0.3517  -13.6495 H   0  0  0  0  0  0
   27.1934    1.5531  -13.8284 F   0  0  0  0  0  0
  1  2  1  0  0  0
  2  3  1  0  0  0
  3 36  1  0  0  0
  3  4  1  0  0  0
  3  5  1  0  0  0
  5 25  1  0  0  0
  5  6  2  0  0  0
  6  7  1  0  0  0
  6 33  1  0  0  0
  7  8  1  0  0  0
  7 21  2  0  0  0
  8  9  1  0  0  0
  9 19  1  0  0  0
  9 10  2  0  0  0
 10 11  1  0  0  0
 10 12  1  0  0  0
 12 13  1  0  0  0
 12 14  2  0  0  0
 14 15  1  0  0  0
 14 16  1  0  0  0
 16 17  1  0  0  0
 16 19  2  0  0  0
 17 18  3  0  0  0
 19 20  1  0  0  0
 21 22  1  0  0  0
 21 23  1  0  0  0
 23 24  1  0  0  0
 23 25  2  0  0  0
 25 26  1  0  0  0
 26 27  2  0  0  0
 26 28  2  0  0  0
 26 29  1  0  0  0
 29 30  1  0  0  0
 29 31  1  0  0  0
 29 32  1  0  0  0
 33 34  1  0  0  0
 33 35  1  0  0  0
 33 36  1  0  0  0
 36 37  1  0  0  0
 36 38  1  0  0  0
M  END
> <s_m_source_file>
ligprep_hif2a.smi

> <i_m_source_file_index>
13

> <i_lp_mmshare_version>
53161

> <i_f3d_flags>
0

> <s_epik_input>
RkMoRikoRilTKD1PKSg9TyljMVtjSF1bY0hdYyhjKGMxMilbQ0gyXVtDQEBIXShGKVtDQEhdMltPSF0pT2MzW2NIXWMoRilbY0hdYyhDI04pW2NIXTM=

> <s_epik_cmdline>
J2VwaWtfcHl0aG9uJywgJy1waHQnLCAnMC4wJywgJy1waCcsICc3LjQnLCAnLXRuJywgJzgnLCAnLW1hJywgJzUwMCcsICctaW1hZScsICc8aW5maWxlLm1hZT4nLCAnLW9tYWUnLCAnPG91dGZpbGUubWFlPic=

> <r_lp_tautomer_probability>
1

> <r_epik_Ionization_Penalty>
  0.0000

> <r_epik_Ionization_Penalty_Charging>
  0.0000

> <r_epik_Ionization_Penalty_Neutral>
  0.0000

> <r_epik_State_Penalty>
 -0.0000

> <r_epik_Charging_Adjusted_Penalty>
0

> <i_epik_Tot_Q>
0

> <i_epik_Tot_abs_Q>
0

> <s_lp_Force_Field>
S-OPLS

> <r_lp_Energy>
34.778

> <b_lp_Chiralities_Consistent>
1

> <s_lp_Variant>
lig_227-1

> <s_i_glide_gridfile>
glide-grid_HIF2a-5TBM

> <i_i_glide_lignum>
13

> <i_i_glide_rotatable_bonds>
5

> <r_i_docking_score>
-11.4706498963142

> <r_i_glide_ligand_efficiency>
-0.409666067725509

> <r_i_glide_ligand_efficiency_sa>
-1.24398746202521

> <r_i_glide_ligand_efficiency_ln>
-2.64776278898485

> <r_i_glide_gscore>
-11.4706498963142

> <r_i_glide_lipo>
-4.80108878883126

> <r_i_glide_hbond>
-0.32

> <r_i_glide_metal>
-0

> <r_i_glide_rewards>
-3.18407581307947

> <r_i_glide_evdw>
-54.9079856872559

> <r_i_glide_ecoul>
-6.55079936981201

> <r_i_glide_erotb>
0.562533895431074

> <r_i_glide_esite>
0

> <r_i_glide_emodel>
-102.017457639426

> <r_i_glide_energy>
-61.4587850570679

> <r_i_glide_einternal>
0.232853606343269

> <i_i_glide_confnum>
1

> <i_i_glide_posenum>
13

> <r_i_glide_eff_state_penalty>
-0

> <r_i_glide_rmsd>
0.0868235116603607

> <s_glide_core_constrain_type>
snapped_core_restrain

$$$$
lig_234
                    3D
 Schrodinger Suite 2022-3.
 38 40  0  0  1  0            999 V2000
   28.2702    2.0770  -11.7449 H   0  0  0  0  0  0
   27.6211    1.6885  -11.1672 O   0  0  0  0  0  0
   27.3043    0.4046  -11.6444 C   0  0  1  0  0  0
   28.1847   -0.2342  -11.6661 H   0  0  0  0  0  0
   26.1741   -0.1416  -10.8165 C   0  0  0  0  0  0
   24.9731    0.0399  -11.4877 C   0  0  0  0  0  0
   23.7511   -0.3115  -10.9108 C   0  0  0  0  0  0
   22.6350   -0.0820  -11.6644 O   0  0  0  0  0  0
   21.4213   -0.3904  -11.1432 C   0  0  0  0  0  0
   20.8764   -1.6549  -11.3680 C   0  0  0  0  0  0
   21.4014   -2.3789  -11.9752 H   0  0  0  0  0  0
   19.5975   -1.9291  -10.8783 C   0  0  0  0  0  0
   18.8211   -3.2692  -11.4758 Cl  0  0  0  0  0  0
   18.8743   -0.9929  -10.1288 C   0  0  0  0  0  0
   17.8783   -1.2305   -9.7884 H   0  0  0  0  0  0
   19.4251    0.2793   -9.9225 C   0  0  0  0  0  0
   18.6633    1.2895   -9.2316 C   0  0  0  0  0  0
   18.0537    2.0922   -8.6758 N   0  0  0  0  0  0
   20.6972    0.5809  -10.4332 C   0  0  0  0  0  0
   21.1219    1.5620  -10.2760 H   0  0  0  0  0  0
   23.7535   -0.8458   -9.5960 C   0  0  0  0  0  0
   22.8329   -1.1224   -9.1016 H   0  0  0  0  0  0
   24.9719   -1.0310   -8.9047 C   0  0  0  0  0  0
   24.9598   -1.4348   -7.9036 H   0  0  0  0  0  0
   26.1987   -0.6963   -9.5174 C   0  0  0  0  0  0
   27.7154   -0.9027   -8.5859 S   0  0  0  0  0  0
   27.4723   -1.8418   -7.4823 O   0  0  0  0  0  0
   28.8046   -1.1981   -9.5194 O   0  0  0  0  0  0
   28.0213    0.7542   -7.8669 C   0  0  0  0  0  0
   29.0346    0.7753   -7.4758 H   0  0  0  0  0  0
   27.9311    1.5159   -8.6388 H   0  0  0  0  0  0
   27.2990    0.9511   -7.0766 H   0  0  0  0  0  0
   25.1627    0.6446  -12.8534 C   0  0  0  0  0  0
   24.5932    0.1219  -13.6216 H   0  0  0  0  0  0
   24.8369    1.6849  -12.8224 H   0  0  0  0  0  0
   26.6826    0.5427  -13.0588 C   0  0  0  0  0  0
   27.1899    1.5486  -13.7754 F   0  0  0  0  0  0
   26.9070   -0.5932  -13.7231 F   0  0  0  0  0  0
  1  2  1  0  0  0
  2  3  1  0  0  0
  3 36  1  0  0  0
  3  4  1  0  0  0
  3  5  1  0  0  0
  5 25  1  0  0  0
  5  6  2  0  0  0
  6  7  1  0  0  0
  6 33  1  0  0  0
  7  8  1  0  0  0
  7 21  2  0  0  0
  8  9  1  0  0  0
  9 19  1  0  0  0
  9 10  2  0  0  0
 10 11  1  0  0  0
 10 12  1  0  0  0
 12 13  1  0  0  0
 12 14  2  0  0  0
 14 15  1  0  0  0
 14 16  1  0  0  0
 16 17  1  0  0  0
 16 19  2  0  0  0
 17 18  3  0  0  0
 19 20  1  0  0  0
 21 22  1  0  0  0
 21 23  1  0  0  0
 23 24  1  0  0  0
 23 25  2  0  0  0
 25 26  1  0  0  0
 26 27  2  0  0  0
 26 28  2  0  0  0
 26 29  1  0  0  0
 29 30  1  0  0  0
 29 31  1  0  0  0
 29 32  1  0  0  0
 33 34  1  0  0  0
 33 35  1  0  0  0
 33 36  1  0  0  0
 36 37  1  0  0  0
 36 38  1  0  0  0
M  END
> <s_m_source_file>
ligprep_hif2a.smi

> <i_m_source_file_index>
16

> <i_lp_mmshare_version>
53161

> <i_f3d_flags>
0

> <s_epik_input>
W09IXVtDQEBIXTFDKEYpKEYpW0NIMl1jKGMxMiljKFtjSF1bY0hdYzJTKD1PKSg9TylbQ0gzXSlPYzNbY0hdYyhDbClbY0hdYyhDI04pW2NIXTM=

> <s_epik_cmdline>
J2VwaWtfcHl0aG9uJywgJy1waHQnLCAnMC4wJywgJy1waCcsICc3LjQnLCAnLXRuJywgJzgnLCAnLW1hJywgJzUwMCcsICctaW1hZScsICc8aW5maWxlLm1hZT4nLCAnLW9tYWUnLCAnPG91dGZpbGUubWFlPic=

> <r_lp_tautomer_probability>
1

> <r_epik_Ionization_Penalty>
  0.0012

> <r_epik_Ionization_Penalty_Charging>
  0.0000

> <r_epik_Ionization_Penalty_Neutral>
  0.0012

> <r_epik_State_Penalty>
 -0.0000

> <r_epik_Charging_Adjusted_Penalty>
0

> <i_epik_Tot_Q>
0

> <i_epik_Tot_abs_Q>
0

> <s_lp_Force_Field>
S-OPLS

> <r_lp_Energy>
27.1067

> <b_lp_Chiralities_Consistent>
1

> <s_lp_Variant>
lig_234-1

> <s_i_glide_gridfile>
glide-grid_HIF2a-5TBM

> <i_i_glide_lignum>
16

> <i_i_glide_rotatable_bonds>
4

> <r_i_docking_score>
-11.3938759887784

> <r_i_glide_ligand_efficiency>
-0.438225999568401

> <r_i_glide_ligand_efficiency_sa>
-1.29824279938534

> <r_i_glide_ligand_efficiency_ln>
-2.67581438960812

> <r_i_glide_gscore>
-11.3938759887784

> <r_i_glide_lipo>
-5.08715893393426

> <r_i_glide_hbond>
-0.32

> <r_i_glide_metal>
-0

> <r_i_glide_rewards>
-3.02955491671702

> <r_i_glide_evdw>
-49.7047157287598

> <r_i_glide_ecoul>
-6.41582870483398

> <r_i_glide_erotb>
0.490447954035945

> <r_i_glide_esite>
0

> <r_i_glide_emodel>
-79.0912623771794

> <r_i_glide_energy>
-56.1205444335938

> <r_i_glide_einternal>
0.626510202884674

> <i_i_glide_confnum>
3

> <i_i_glide_posenum>
5

> <r_i_glide_eff_state_penalty>
-0

> <r_i_glide_rmsd>
0.0912151914952958

> <s_glide_core_constrain_type>
snapped_core_restrain

$$$$
lig_167
                    3D
 Schrodinger Suite 2022-3.
 38 40  0  0  1  0            999 V2000
   28.2728    2.0770  -11.7192 H   0  0  0  0  0  0
   27.6188    1.6871  -11.1476 O   0  0  0  0  0  0
   27.3074    0.4003  -11.6333 C   0  0  1  0  0  0
   28.1868   -0.2352  -11.6536 H   0  0  0  0  0  0
   26.1737   -0.1443  -10.8132 C   0  0  0  0  0  0
   24.9742    0.0433  -11.4870 C   0  0  0  0  0  0
   23.7478   -0.3237  -10.9274 C   0  0  0  0  0  0
   22.6333   -0.0953  -11.6850 O   0  0  0  0  0  0
   21.4158   -0.3917  -11.1639 C   0  0  0  0  0  0
   20.8585   -1.6516  -11.3983 C   0  0  0  0  0  0
   21.3861   -2.3826  -12.0040 H   0  0  0  0  0  0
   19.5884   -1.9297  -10.8858 C   0  0  0  0  0  0
   18.8216   -3.3249  -11.3945 Cl  0  0  0  0  0  0
   18.8741   -0.9785  -10.1404 C   0  0  0  0  0  0
   17.8870   -1.2107   -9.7770 H   0  0  0  0  0  0
   19.4351    0.2896   -9.9337 C   0  0  0  0  0  0
   18.6885    1.3106   -9.2350 C   0  0  0  0  0  0
   18.0957    2.1243   -8.6758 N   0  0  0  0  0  0
   20.7097    0.5809  -10.4374 C   0  0  0  0  0  0
   21.1612    1.5458  -10.2740 H   0  0  0  0  0  0
   23.7467   -0.8625   -9.6148 C   0  0  0  0  0  0
   22.8214   -1.1560   -9.1326 H   0  0  0  0  0  0
   24.9645   -1.0490   -8.9172 C   0  0  0  0  0  0
   24.9511   -1.4633   -7.9172 H   0  0  0  0  0  0
   26.1950   -0.7121   -9.5221 C   0  0  0  0  0  0
   27.7108   -0.9333   -8.5834 S   0  0  0  0  0  0
   27.4513   -1.8875   -7.4951 O   0  0  0  0  0  0
   28.8089   -1.2125   -9.5117 O   0  0  0  0  0  0
   28.0164    0.7172   -7.8584 C   0  0  0  0  0  0
   29.0888    0.8391   -7.7070 H   0  0  0  0  0  0
   27.6492    1.5029   -8.5137 H   0  0  0  0  0  0
   27.4176    0.7990   -6.6758 F   0  0  0  0  0  0
   25.1703    0.6455  -12.8516 C   0  0  0  0  0  0
   24.5994    0.1274  -13.6241 H   0  0  0  0  0  0
   24.8539    1.6905  -12.8190 H   0  0  0  0  0  0
   26.6951    0.5321  -13.0560 C   0  0  0  0  0  0
   27.2037    1.5416  -13.7675 F   0  0  0  0  0  0
   26.9126   -0.6002  -13.7259 F   0  0  0  0  0  0
  1  2  1  0  0  0
  2  3  1  0  0  0
  3 36  1  0  0  0
  3  4  1  0  0  0
  3  5  1  0  0  0
  5 25  1  0  0  0
  5  6  2  0  0  0
  6  7  1  0  0  0
  6 33  1  0  0  0
  7  8  1  0  0  0
  7 21  2  0  0  0
  8  9  1  0  0  0
  9 19  1  0  0  0
  9 10  2  0  0  0
 10 11  1  0  0  0
 10 12  1  0  0  0
 12 13  1  0  0  0
 12 14  2  0  0  0
 14 15  1  0  0  0
 14 16  1  0  0  0
 16 17  1  0  0  0
 16 19  2  0  0  0
 17 18  3  0  0  0
 19 20  1  0  0  0
 21 22  1  0  0  0
 21 23  1  0  0  0
 23 24  1  0  0  0
 23 25  2  0  0  0
 25 26  1  0  0  0
 26 27  2  0  0  0
 26 28  2  0  0  0
 26 29  1  0  0  0
 29 30  1  0  0  0
 29 31  1  0  0  0
 29 32  1  0  0  0
 33 34  1  0  0  0
 33 35  1  0  0  0
 33 36  1  0  0  0
 36 37  1  0  0  0
 36 38  1  0  0  0
M  END
> <s_m_source_file>
ligprep_hif2a.smi

> <i_m_source_file_index>
9

> <i_lp_mmshare_version>
53161

> <i_f3d_flags>
0

> <s_epik_input>
RltDSDJdUyg9TykoPU8pYzFbY0hdW2NIXWMoYyhjMTIpW0NIMl1DKEYpKEYpW0NASF0yW09IXSlPYzNbY0hdYyhDbClbY0hdYyhDI04pW2NIXTM=

> <s_epik_cmdline>
J2VwaWtfcHl0aG9uJywgJy1waHQnLCAnMC4wJywgJy1waCcsICc3LjQnLCAnLXRuJywgJzgnLCAnLW1hJywgJzUwMCcsICctaW1hZScsICc8aW5maWxlLm1hZT4nLCAnLW9tYWUnLCAnPG91dGZpbGUubWFlPic=

> <r_lp_tautomer_probability>
1

> <r_epik_Ionization_Penalty>
  0.0012

> <r_epik_Ionization_Penalty_Charging>
  0.0000

> <r_epik_Ionization_Penalty_Neutral>
  0.0012

> <r_epik_State_Penalty>
 -0.0000

> <r_epik_Charging_Adjusted_Penalty>
0

> <i_epik_Tot_Q>
0

> <i_epik_Tot_abs_Q>
0

> <s_lp_Force_Field>
S-OPLS

> <r_lp_Energy>
27.8189

> <b_lp_Chiralities_Consistent>
1

> <s_lp_Variant>
lig_167-1

> <s_i_glide_gridfile>
glide-grid_HIF2a-5TBM

> <i_i_glide_lignum>
9

> <i_i_glide_rotatable_bonds>
5

> <r_i_docking_score>
-11.367760241085

> <r_i_glide_ligand_efficiency>
-0.421028157077224

> <r_i_glide_ligand_efficiency_sa>
-1.26308446984403

> <r_i_glide_ligand_efficiency_ln>
-2.64622717194997

> <r_i_glide_gscore>
-11.367760241085

> <r_i_glide_lipo>
-5.08385447910974

> <r_i_glide_hbond>
-0.32

> <r_i_glide_metal>
-0

> <r_i_glide_rewards>
-3.04215075748335

> <r_i_glide_evdw>
-47.2625122070312

> <r_i_glide_ecoul>
-7.4993782043457

> <r_i_glide_erotb>
0.566277336511474

> <r_i_glide_esite>
0

> <r_i_glide_emodel>
-78.6680599878334

> <r_i_glide_energy>
-54.761890411377

> <r_i_glide_einternal>
0.401834845542908

> <i_i_glide_confnum>
8

> <i_i_glide_posenum>
26

> <r_i_glide_eff_state_penalty>
-0

> <r_i_glide_rmsd>
0.0898039905398213

> <s_glide_core_constrain_type>
snapped_core_restrain

$$$$
lig_254
                    3D
 Schrodinger Suite 2022-3.
 40 42  0  0  1  0            999 V2000
   28.2775    2.0348  -11.8240 H   0  0  0  0  0  0
   27.6214    1.6886  -11.2289 O   0  0  0  0  0  0
   27.2433    0.4047  -11.6566 C   0  0  1  0  0  0
   28.1005   -0.2645  -11.6723 H   0  0  0  0  0  0
   26.1053   -0.0886  -10.7993 C   0  0  0  0  0  0
   24.9029    0.0624  -11.4820 C   0  0  0  0  0  0
   23.6779   -0.3112  -10.9168 C   0  0  0  0  0  0
   22.5624   -0.1847  -11.7026 O   0  0  0  0  0  0
   21.3391   -0.4614  -11.1744 C   0  0  0  0  0  0
   20.7556   -1.7211  -11.3868 C   0  0  0  0  0  0
   21.2788   -2.4752  -11.9569 H   0  0  0  0  0  0
   19.4884   -1.9984  -10.8499 C   0  0  0  0  0  0
   18.9380   -3.2155  -11.0674 F   0  0  0  0  0  0
   18.8003   -1.0074  -10.1146 C   0  0  0  0  0  0
   17.8275   -1.2351   -9.7082 H   0  0  0  0  0  0
   19.3762    0.2688   -9.9304 C   0  0  0  0  0  0
   18.6876    1.3421   -9.2330 C   0  0  0  0  0  0
   18.1534    2.2059   -8.6757 N   0  0  0  0  0  0
   20.6565    0.5261  -10.4435 C   0  0  0  0  0  0
   21.1185    1.4894  -10.2788 H   0  0  0  0  0  0
   23.6811   -0.8060   -9.5876 C   0  0  0  0  0  0
   22.7643   -1.1080   -9.1036 H   0  0  0  0  0  0
   24.8955   -0.9515   -8.8803 C   0  0  0  0  0  0
   24.8805   -1.3548   -7.8784 H   0  0  0  0  0  0
   26.1262   -0.6152   -9.4845 C   0  0  0  0  0  0
   27.6404   -0.9594   -8.5694 S   0  0  0  0  0  0
   27.3733   -1.9902   -7.5631 O   0  0  0  0  0  0
   28.7441   -1.1667   -9.5156 O   0  0  0  0  0  0
   27.9300    0.4627   -7.6430 N   0  0  2  0  0  0
   28.6532    0.2773   -6.9509 H   0  0  0  0  0  0
   28.1471    1.7483   -8.2854 C   0  0  0  0  0  0
   28.4194    2.4877   -7.5353 H   0  0  0  0  0  0
   28.9559    1.6771   -9.0119 H   0  0  0  0  0  0
   27.2324    2.0873   -8.7709 H   0  0  0  0  0  0
   25.0951    0.6247  -12.8655 C   0  0  0  0  0  0
   24.5268    0.0832  -13.6208 H   0  0  0  0  0  0
   24.7656    1.6642  -12.8658 H   0  0  0  0  0  0
   26.6172    0.5285  -13.0714 C   0  0  0  0  0  0
   27.1119    1.5382  -13.7921 F   0  0  0  0  0  0
   26.8605   -0.6029  -13.7345 F   0  0  0  0  0  0
  1  2  1  0  0  0
  2  3  1  0  0  0
  3 38  1  0  0  0
  3  4  1  0  0  0
  3  5  1  0  0  0
  5 25  1  0  0  0
  5  6  2  0  0  0
  6  7  1  0  0  0
  6 35  1  0  0  0
  7  8  1  0  0  0
  7 21  2  0  0  0
  8  9  1  0  0  0
  9 19  1  0  0  0
  9 10  2  0  0  0
 10 11  1  0  0  0
 10 12  1  0  0  0
 12 13  1  0  0  0
 12 14  2  0  0  0
 14 15  1  0  0  0
 14 16  1  0  0  0
 16 17  1  0  0  0
 16 19  2  0  0  0
 17 18  3  0  0  0
 19 20  1  0  0  0
 21 22  1  0  0  0
 21 23  1  0  0  0
 23 24  1  0  0  0
 23 25  2  0  0  0
 25 26  1  0  0  0
 26 27  2  0  0  0
 26 28  2  0  0  0
 26 29  1  0  0  0
 29 30  1  0  0  0
 29 31  1  0  0  0
 31 32  1  0  0  0
 31 33  1  0  0  0
 31 34  1  0  0  0
 35 36  1  0  0  0
 35 37  1  0  0  0
 35 38  1  0  0  0
 38 39  1  0  0  0
 38 40  1  0  0  0
M  END
> <s_m_source_file>
ligprep_hif2a.smi

> <i_m_source_file_index>
22

> <i_lp_mmshare_version>
53161

> <i_f3d_flags>
0

> <s_epik_input>
W0NIM11bTkhdUyg9TykoPU8pYzFbY0hdW2NIXWMoYyhjMTIpW0NIMl1DKEYpKEYpW0NASF0yW09IXSlPYzNbY0hdYyhGKVtjSF1jKEMjTilbY0hdMw==

> <s_epik_cmdline>
J2VwaWtfcHl0aG9uJywgJy1waHQnLCAnMC4wJywgJy1waCcsICc3LjQnLCAnLXRuJywgJzgnLCAnLW1hJywgJzUwMCcsICctaW1hZScsICc8aW5maWxlLm1hZT4nLCAnLW9tYWUnLCAnPG91dGZpbGUubWFlPic=

> <r_lp_tautomer_probability>
1

> <r_epik_Ionization_Penalty>
  0.0016

> <r_epik_Ionization_Penalty_Charging>
  0.0000

> <r_epik_Ionization_Penalty_Neutral>
  0.0016

> <r_epik_State_Penalty>
 -0.0000

> <r_epik_Charging_Adjusted_Penalty>
0

> <i_epik_Tot_Q>
0

> <i_epik_Tot_abs_Q>
0

> <s_lp_Force_Field>
S-OPLS

> <r_lp_Energy>
28.8905

> <b_lp_Chiralities_Consistent>
1

> <s_lp_Variant>
lig_254-1

> <s_i_glide_gridfile>
glide-grid_HIF2a-5TBM

> <i_i_glide_lignum>
22

> <i_i_glide_rotatable_bonds>
5

> <r_i_docking_score>
-11.3523952532115

> <r_i_glide_ligand_efficiency>
-0.420459083452279

> <r_i_glide_ligand_efficiency_sa>
-1.26137724897107

> <r_i_glide_ligand_efficiency_ln>
-2.64265045608463

> <r_i_glide_gscore>
-11.3523952532115

> <r_i_glide_lipo>
-4.73793940734375

> <r_i_glide_hbond>
-0.32

> <r_i_glide_metal>
-0

> <r_i_glide_rewards>
-3.18318833251831

> <r_i_glide_evdw>
-55.6647834777832

> <r_i_glide_ecoul>
-6.30054187774658

> <r_i_glide_erotb>
0.617052942201675

> <r_i_glide_esite>
0

> <r_i_glide_emodel>
-98.0345846166265

> <r_i_glide_energy>
-61.9653253555298

> <r_i_glide_einternal>
2.77706336975098

> <i_i_glide_confnum>
7

> <i_i_glide_posenum>
13

> <r_i_glide_eff_state_penalty>
-0

> <r_i_glide_rmsd>
0.0948986430800946

> <s_glide_core_constrain_type>
snapped_core_restrain

$$$$
lig_206
                    3D
 Schrodinger Suite 2022-3.
 41 43  0  0  1  0            999 V2000
   28.2727    2.0806  -11.7972 H   0  0  0  0  0  0
   27.6212    1.6980  -11.2172 O   0  0  0  0  0  0
   27.2791    0.4232  -11.6980 C   0  0  1  0  0  0
   28.1536   -0.2228  -11.7321 H   0  0  0  0  0  0
   26.1568   -0.1220  -10.8615 C   0  0  0  0  0  0
   24.9419    0.0356  -11.5217 C   0  0  0  0  0  0
   23.7282   -0.3628  -10.9460 C   0  0  0  0  0  0
   22.5957   -0.2211  -11.7067 O   0  0  0  0  0  0
   21.3745   -0.5030  -11.1696 C   0  0  0  0  0  0
   20.7873   -1.7641  -11.3863 C   0  0  0  0  0  0
   21.3112   -2.5211  -11.9520 H   0  0  0  0  0  0
   19.5103   -2.0337  -10.8650 C   0  0  0  0  0  0
   18.9306   -3.2346  -11.0760 F   0  0  0  0  0  0
   18.8210   -1.0451  -10.1422 C   0  0  0  0  0  0
   17.8420   -1.2710   -9.7490 H   0  0  0  0  0  0
   19.3977    0.2248   -9.9495 C   0  0  0  0  0  0
   18.6744    1.2643   -9.2452 C   0  0  0  0  0  0
   18.0994    2.0888   -8.6766 N   0  0  0  0  0  0
   20.6847    0.4882  -10.4467 C   0  0  0  0  0  0
   21.1401    1.4542  -10.2804 H   0  0  0  0  0  0
   23.7628   -0.8997   -9.6331 C   0  0  0  0  0  0
   22.8554   -1.2153   -9.1388 H   0  0  0  0  0  0
   24.9956   -1.0597   -8.9555 C   0  0  0  0  0  0
   25.0014   -1.4861   -7.9634 H   0  0  0  0  0  0
   26.2138   -0.6943   -9.5737 C   0  0  0  0  0  0
   27.7672   -0.9363   -8.6878 S   0  0  0  0  0  0
   27.4994   -1.8899   -7.6004 O   0  0  0  0  0  0
   28.8211   -1.2577   -9.6494 O   0  0  0  0  0  0
   28.1713    0.7112   -7.9444 C   0  0  0  0  0  0
   29.2308    0.7277   -7.7034 H   0  0  0  0  0  0
   27.9826    1.4847   -8.6874 H   0  0  0  0  0  0
   27.3355    0.9005   -6.7231 C   0  0  0  0  0  0
   27.2211    1.9447   -6.4401 H   0  0  0  0  0  0
   26.4211    0.4888   -7.0758 H   0  0  0  0  0  0
   27.6439    0.2978   -5.8758 H   0  0  0  0  0  0
   25.1176    0.6338  -12.8920 C   0  0  0  0  0  0
   24.5550    0.0968  -13.6549 H   0  0  0  0  0  0
   24.7773    1.6699  -12.8670 H   0  0  0  0  0  0
   26.6407    0.5539  -13.1020 C   0  0  0  0  0  0
   27.1319    1.5595  -13.8296 F   0  0  0  0  0  0
   26.8879   -0.5880  -13.7456 F   0  0  0  0  0  0
  1  2  1  0  0  0
  2  3  1  0  0  0
  3 39  1  0  0  0
  3  4  1  0  0  0
  3  5  1  0  0  0
  5 25  1  0  0  0
  5  6  2  0  0  0
  6  7  1  0  0  0
  6 36  1  0  0  0
  7  8  1  0  0  0
  7 21  2  0  0  0
  8  9  1  0  0  0
  9 19  1  0  0  0
  9 10  2  0  0  0
 10 11  1  0  0  0
 10 12  1  0  0  0
 12 13  1  0  0  0
 12 14  2  0  0  0
 14 15  1  0  0  0
 14 16  1  0  0  0
 16 17  1  0  0  0
 16 19  2  0  0  0
 17 18  3  0  0  0
 19 20  1  0  0  0
 21 22  1  0  0  0
 21 23  1  0  0  0
 23 24  1  0  0  0
 23 25  2  0  0  0
 25 26  1  0  0  0
 26 27  2  0  0  0
 26 28  2  0  0  0
 26 29  1  0  0  0
 29 30  1  0  0  0
 29 31  1  0  0  0
 29 32  1  0  0  0
 32 33  1  0  0  0
 32 34  1  0  0  0
 32 35  1  0  0  0
 36 37  1  0  0  0
 36 38  1  0  0  0
 36 39  1  0  0  0
 39 40  1  0  0  0
 39 41  1  0  0  0
M  END
> <s_m_source_file>
ligprep_hif2a.smi

> <i_m_source_file_index>
10

> <i_lp_mmshare_version>
53161

> <i_f3d_flags>
0

> <s_epik_input>
W0NIM11bQ0gyXVMoPU8pKD1PKWMxW2NIXVtjSF1jKGMoYzEyKVtDSDJdQyhGKShGKVtDQEhdMltPSF0pT2MzW2NIXWMoRilbY0hdYyhDI04pW2NIXTM=

> <s_epik_cmdline>
J2VwaWtfcHl0aG9uJywgJy1waHQnLCAnMC4wJywgJy1waCcsICc3LjQnLCAnLXRuJywgJzgnLCAnLW1hJywgJzUwMCcsICctaW1hZScsICc8aW5maWxlLm1hZT4nLCAnLW9tYWUnLCAnPG91dGZpbGUubWFlPic=

> <r_lp_tautomer_probability>
1

> <r_epik_Ionization_Penalty>
  0.0012

> <r_epik_Ionization_Penalty_Charging>
  0.0000

> <r_epik_Ionization_Penalty_Neutral>
  0.0012

> <r_epik_State_Penalty>
 -0.0000

> <r_epik_Charging_Adjusted_Penalty>
0

> <i_epik_Tot_Q>
0

> <i_epik_Tot_abs_Q>
0

> <s_lp_Force_Field>
S-OPLS

> <r_lp_Energy>
27.9323

> <b_lp_Chiralities_Consistent>
1

> <s_lp_Variant>
lig_206-1

> <s_i_glide_gridfile>
glide-grid_HIF2a-5TBM

> <i_i_glide_lignum>
10

> <i_i_glide_rotatable_bonds>
5

> <r_i_docking_score>
-11.321859035384

> <r_i_glide_ligand_efficiency>
-0.419328112421629

> <r_i_glide_ligand_efficiency_sa>
-1.25798433588285

> <r_i_glide_ligand_efficiency_ln>
-2.63554212800328

> <r_i_glide_gscore>
-11.321859035384

> <r_i_glide_lipo>
-4.92167139453968

> <r_i_glide_hbond>
-0.32

> <r_i_glide_metal>
-0

> <r_i_glide_rewards>
-3.33346842567938

> <r_i_glide_evdw>
-48.4112968444824

> <r_i_glide_ecoul>
-6.30646991729736

> <r_i_glide_erotb>
0.619816114653813

> <r_i_glide_esite>
0

> <r_i_glide_emodel>
-91.3956637138423

> <r_i_glide_energy>
-54.7177667617798

> <r_i_glide_einternal>
3.41366100311279

> <i_i_glide_confnum>
3

> <i_i_glide_posenum>
25

> <r_i_glide_eff_state_penalty>
-0

> <r_i_glide_rmsd>
0.0852472326088581

> <s_glide_core_constrain_type>
snapped_core_restrain

$$$$
lig_336
                    3D
 Schrodinger Suite 2022-3.
 37 39  0  0  1  0            999 V2000
   28.2416    2.0978  -11.7040 H   0  0  0  0  0  0
   27.6354    1.6842  -11.0949 O   0  0  0  0  0  0
   27.2969    0.4012  -11.5812 C   0  0  1  0  0  0
   28.1757   -0.2367  -11.5969 H   0  0  0  0  0  0
   26.1546   -0.1621  -10.7733 C   0  0  0  0  0  0
   24.9567   -0.0264  -11.4650 C   0  0  0  0  0  0
   23.7278   -0.4056  -10.9118 C   0  0  0  0  0  0
   22.6133   -0.2473  -11.6942 O   0  0  0  0  0  0
   21.3806   -0.5092  -11.1745 C   0  0  0  0  0  0
   20.7892   -1.7667  -11.3931 C   0  0  0  0  0  0
   21.3159   -2.5303  -11.9457 H   0  0  0  0  0  0
   19.5138   -2.0367  -10.8729 C   0  0  0  0  0  0
   18.9455   -3.2442  -11.0759 F   0  0  0  0  0  0
   18.8214   -1.0450  -10.1573 C   0  0  0  0  0  0
   17.8431   -1.2646   -9.7655 H   0  0  0  0  0  0
   19.4034    0.2218   -9.9594 C   0  0  0  0  0  0
   18.6872    1.2624   -9.2503 C   0  0  0  0  0  0
   18.1208    2.0897   -8.6769 N   0  0  0  0  0  0
   20.6916    0.4846  -10.4544 C   0  0  0  0  0  0
   21.1539    1.4448  -10.2770 H   0  0  0  0  0  0
   23.7289   -0.9283   -9.5941 C   0  0  0  0  0  0
   22.8132   -1.2421   -9.1180 H   0  0  0  0  0  0
   24.9421   -1.0788   -8.8848 C   0  0  0  0  0  0
   24.9269   -1.4955   -7.8897 H   0  0  0  0  0  0
   26.1692   -0.7155   -9.4782 C   0  0  0  0  0  0
   27.6883   -0.9801   -8.5703 S   0  0  0  0  0  0
   27.4397   -1.9278   -7.4759 O   0  0  0  0  0  0
   28.7853   -1.2380   -9.5063 O   0  0  0  0  0  0
   27.9723    0.5635   -7.8837 N   0  0  0  0  0  0
   28.7749    0.5440   -7.2573 H   0  0  0  0  0  0
   28.1199    1.2552   -8.6220 H   0  0  0  0  0  0
   25.1640    0.6012  -12.8113 C   0  0  1  0  0  0
   24.5773    0.1484  -13.6119 H   0  0  0  0  0  0
   24.8267    1.8779  -12.6622 F   0  0  0  0  0  0
   26.6814    0.4795  -12.9963 C   0  0  1  0  0  0
   26.8573   -0.4874  -13.4713 H   0  0  0  0  0  0
   27.2207    1.3710  -13.8227 F   0  0  0  0  0  0
  1  2  1  0  0  0
  2  3  1  0  0  0
  3 35  1  0  0  0
  3  4  1  0  0  0
  3  5  1  0  0  0
  5 25  1  0  0  0
  5  6  2  0  0  0
  6  7  1  0  0  0
  6 32  1  0  0  0
  7  8  1  0  0  0
  7 21  2  0  0  0
  8  9  1  0  0  0
  9 19  1  0  0  0
  9 10  2  0  0  0
 10 11  1  0  0  0
 10 12  1  0  0  0
 12 13  1  0  0  0
 12 14  2  0  0  0
 14 15  1  0  0  0
 14 16  1  0  0  0
 16 17  1  0  0  0
 16 19  2  0  0  0
 17 18  3  0  0  0
 19 20  1  0  0  0
 21 22  1  0  0  0
 21 23  1  0  0  0
 23 24  1  0  0  0
 23 25  2  0  0  0
 25 26  1  0  0  0
 26 27  2  0  0  0
 26 28  2  0  0  0
 26 29  1  0  0  0
 29 30  1  0  0  0
 29 31  1  0  0  0
 32 33  1  0  0  0
 32 34  1  0  0  0
 32 35  1  0  0  0
 35 36  1  0  0  0
 35 37  1  0  0  0
M  END
> <s_m_source_file>
ligprep_hif2a.smi

> <i_m_source_file_index>
29

> <i_lp_mmshare_version>
53161

> <i_f3d_flags>
0

> <s_epik_input>
W09IXVtDQEBIXTFbQ0BIXShGKVtDQEhdKEYpYyhjMTIpYyhbY0hdW2NIXWMyUyg9TykoPU8pW05IMl0pT2MzW2NIXWMoRilbY0hdYyhDI04pW2NIXTM=

> <s_epik_cmdline>
J2VwaWtfcHl0aG9uJywgJy1waHQnLCAnMC4wJywgJy1waCcsICc3LjQnLCAnLXRuJywgJzgnLCAnLW1hJywgJzUwMCcsICctaW1hZScsICc8aW5maWxlLm1hZT4nLCAnLW9tYWUnLCAnPG91dGZpbGUubWFlPic=

> <r_lp_tautomer_probability>
1

> <r_epik_Ionization_Penalty>
  0.0071

> <r_epik_Ionization_Penalty_Charging>
  0.0000

> <r_epik_Ionization_Penalty_Neutral>
  0.0071

> <r_epik_State_Penalty>
 -0.0000

> <r_epik_Charging_Adjusted_Penalty>
0

> <i_epik_Tot_Q>
0

> <i_epik_Tot_abs_Q>
0

> <s_lp_Force_Field>
S-OPLS

> <r_lp_Energy>
20.7547

> <b_lp_Chiralities_Consistent>
1

> <s_lp_Variant>
lig_336-1

> <s_i_glide_gridfile>
glide-grid_HIF2a-5TBM

> <i_i_glide_lignum>
29

> <i_i_glide_rotatable_bonds>
4

> <r_i_docking_score>
-11.3007769399553

> <r_i_glide_ligand_efficiency>
-0.434645266921358

> <r_i_glide_ligand_efficiency_sa>
-1.28763489300798

> <r_i_glide_ligand_efficiency_ln>
-2.65395038347491

> <r_i_glide_gscore>
-11.3007769399553

> <r_i_glide_lipo>
-4.47621248172795

> <r_i_glide_hbond>
-0.32

> <r_i_glide_metal>
-0

> <r_i_glide_rewards>
-3.41543356428587

> <r_i_glide_evdw>
-54.4600791931152

> <r_i_glide_ecoul>
-5.95068883895874

> <r_i_glide_erotb>
0.526476391558088

> <r_i_glide_esite>
0

> <r_i_glide_emodel>
-98.0887090776491

> <r_i_glide_energy>
-60.410768032074

> <r_i_glide_einternal>
0.0122294249013066

> <i_i_glide_confnum>
1

> <i_i_glide_posenum>
1

> <r_i_glide_eff_state_penalty>
-0

> <r_i_glide_rmsd>
0.0859283773278825

> <s_glide_core_constrain_type>
snapped_core_restrain

$$$$
lig_155
                    3D
 Schrodinger Suite 2022-3.
 38 40  0  0  1  0            999 V2000
   28.3107    2.0777  -11.7030 H   0  0  0  0  0  0
   27.6259    1.7026  -11.1588 O   0  0  0  0  0  0
   27.2656    0.4428  -11.6619 C   0  0  1  0  0  0
   28.1223   -0.2271  -11.6934 H   0  0  0  0  0  0
   26.1218   -0.1041  -10.8563 C   0  0  0  0  0  0
   24.9245    0.0593  -11.5457 C   0  0  0  0  0  0
   23.6926   -0.3149  -10.9874 C   0  0  0  0  0  0
   22.5701   -0.1920  -11.7670 O   0  0  0  0  0  0
   21.3483   -0.4871  -11.2344 C   0  0  0  0  0  0
   20.7687   -1.7543  -11.4401 C   0  0  0  0  0  0
   21.2907   -2.5072  -12.0124 H   0  0  0  0  0  0
   19.5054   -2.0360  -10.8886 C   0  0  0  0  0  0
   18.9356   -3.2446  -11.0779 F   0  0  0  0  0  0
   18.8211   -1.0535  -10.1522 C   0  0  0  0  0  0
   17.8539   -1.2885   -9.7363 H   0  0  0  0  0  0
   19.3887    0.2215   -9.9721 C   0  0  0  0  0  0
   18.6780    1.2621   -9.2542 C   0  0  0  0  0  0
   18.1151    2.0891   -8.6764 N   0  0  0  0  0  0
   20.6626    0.4919  -10.4938 C   0  0  0  0  0  0
   21.1147    1.4588  -10.3258 H   0  0  0  0  0  0
   23.6954   -0.8271   -9.6632 C   0  0  0  0  0  0
   22.7763   -1.1188   -9.1767 H   0  0  0  0  0  0
   24.9083   -0.9919   -8.9568 C   0  0  0  0  0  0
   24.8871   -1.3924   -7.9539 H   0  0  0  0  0  0
   26.1417   -0.6600   -9.5583 C   0  0  0  0  0  0
   27.6565   -0.8982   -8.6133 S   0  0  0  0  0  0
   27.3792   -1.8897   -7.5634 O   0  0  0  0  0  0
   28.7718   -1.1663   -9.5276 O   0  0  0  0  0  0
   27.9782    0.7257   -7.8054 C   0  0  0  0  0  0
   29.0401    0.9508   -7.8754 H   0  0  0  0  0  0
   27.2793    1.6924   -8.3959 F   0  0  0  0  0  0
   27.6212    0.6464   -6.5232 F   0  0  0  0  0  0
   25.1390    0.6613  -12.9080 C   0  0  0  0  0  0
   24.6221    0.0992  -13.6855 H   0  0  0  0  0  0
   24.7669    1.6867  -12.9078 H   0  0  0  0  0  0
   26.6696    0.6271  -13.0756 C   0  0  0  0  0  0
   26.9124   -0.2650  -13.6549 H   0  0  0  0  0  0
   27.0700    1.4783  -13.6285 H   0  0  0  0  0  0
  1  2  1  0  0  0
  2  3  1  0  0  0
  3 36  1  0  0  0
  3  4  1  0  0  0
  3  5  1  0  0  0
  5 25  1  0  0  0
  5  6  2  0  0  0
  6  7  1  0  0  0
  6 33  1  0  0  0
  7  8  1  0  0  0
  7 21  2  0  0  0
  8  9  1  0  0  0
  9 19  1  0  0  0
  9 10  2  0  0  0
 10 11  1  0  0  0
 10 12  1  0  0  0
 12 13  1  0  0  0
 12 14  2  0  0  0
 14 15  1  0  0  0
 14 16  1  0  0  0
 16 17  1  0  0  0
 16 19  2  0  0  0
 17 18  3  0  0  0
 19 20  1  0  0  0
 21 22  1  0  0  0
 21 23  1  0  0  0
 23 24  1  0  0  0
 23 25  2  0  0  0
 25 26  1  0  0  0
 26 27  2  0  0  0
 26 28  2  0  0  0
 26 29  1  0  0  0
 29 30  1  0  0  0
 29 31  1  0  0  0
 29 32  1  0  0  0
 33 34  1  0  0  0
 33 35  1  0  0  0
 33 36  1  0  0  0
 36 37  1  0  0  0
 36 38  1  0  0  0
M  END
> <s_m_source_file>
ligprep_hif2a.smi

> <i_m_source_file_index>
4

> <i_lp_mmshare_version>
53161

> <i_f3d_flags>
0

> <s_epik_input>
RltDSF0oRilTKD1PKSg9TyljMVtjSF1bY0hdYyhjKGMxMilbQ0gyXVtDSDJdW0NASF0yW09IXSlPYzNbY0hdYyhGKVtjSF1jKEMjTilbY0hdMw==

> <s_epik_cmdline>
J2VwaWtfcHl0aG9uJywgJy1waHQnLCAnMC4wJywgJy1waCcsICc3LjQnLCAnLXRuJywgJzgnLCAnLW1hJywgJzUwMCcsICctaW1hZScsICc8aW5maWxlLm1hZT4nLCAnLW9tYWUnLCAnPG91dGZpbGUubWFlPic=

> <r_lp_tautomer_probability>
1

> <r_epik_Ionization_Penalty>
  0.0000

> <r_epik_Ionization_Penalty_Charging>
  0.0000

> <r_epik_Ionization_Penalty_Neutral>
  0.0000

> <r_epik_State_Penalty>
 -0.0000

> <r_epik_Charging_Adjusted_Penalty>
0

> <i_epik_Tot_Q>
0

> <i_epik_Tot_abs_Q>
0

> <s_lp_Force_Field>
S-OPLS

> <r_lp_Energy>
32.17

> <b_lp_Chiralities_Consistent>
1

> <s_lp_Variant>
lig_155-1

> <s_i_glide_gridfile>
glide-grid_HIF2a-5TBM

> <i_i_glide_lignum>
4

> <i_i_glide_rotatable_bonds>
5

> <r_i_docking_score>
-11.2286125055538

> <r_i_glide_ligand_efficiency>
-0.43186971175207

> <r_i_glide_ligand_efficiency_sa>
-1.27941232174025

> <r_i_glide_ligand_efficiency_ln>
-2.63700280284655

> <r_i_glide_gscore>
-11.2286125055538

> <r_i_glide_lipo>
-4.7706409159739

> <r_i_glide_hbond>
0

> <r_i_glide_metal>
-0

> <r_i_glide_rewards>
-3.43347860267999

> <r_i_glide_evdw>
-54.890251159668

> <r_i_glide_ecoul>
-6.27413940429688

> <r_i_glide_erotb>
0.661140481728

> <r_i_glide_esite>
0

> <r_i_glide_emodel>
-100.513254031992

> <r_i_glide_energy>
-61.1643905639648

> <r_i_glide_einternal>
1.6548330783844

> <i_i_glide_confnum>
3

> <i_i_glide_posenum>
10

> <r_i_glide_eff_state_penalty>
-0

> <r_i_glide_rmsd>
0.0775708314233452

> <s_glide_core_constrain_type>
snapped_core_restrain

$$$$
lig_338
                    3D
 Schrodinger Suite 2022-3.
 37 39  0  0  1  0            999 V2000
   28.2736    2.0921  -11.7001 H   0  0  0  0  0  0
   27.6536    1.6916  -11.1016 O   0  0  0  0  0  0
   27.3007    0.4115  -11.6097 C   0  0  1  0  0  0
   28.1713   -0.2428  -11.6391 H   0  0  0  0  0  0
   26.1556   -0.1439  -10.8005 C   0  0  0  0  0  0
   24.9563    0.0051  -11.4897 C   0  0  0  0  0  0
   23.7245   -0.3780  -10.9409 C   0  0  0  0  0  0
   22.6077   -0.2314  -11.7247 O   0  0  0  0  0  0
   21.3770   -0.5061  -11.2040 C   0  0  0  0  0  0
   20.7885   -1.7666  -11.4208 C   0  0  0  0  0  0
   21.3156   -2.5246  -11.9826 H   0  0  0  0  0  0
   19.5114   -2.0367  -10.8968 C   0  0  0  0  0  0
   18.9362   -3.2400  -11.1026 F   0  0  0  0  0  0
   18.8225   -1.0495  -10.1701 C   0  0  0  0  0  0
   17.8476   -1.2771   -9.7670 H   0  0  0  0  0  0
   19.4048    0.2199   -9.9767 C   0  0  0  0  0  0
   18.6995    1.2572   -9.2559 C   0  0  0  0  0  0
   18.1401    2.0775   -8.6758 N   0  0  0  0  0  0
   20.6892    0.4853  -10.4809 C   0  0  0  0  0  0
   21.1491    1.4465  -10.3051 H   0  0  0  0  0  0
   23.7230   -0.8931   -9.6179 C   0  0  0  0  0  0
   22.8037   -1.1941   -9.1380 H   0  0  0  0  0  0
   24.9352   -1.0438   -8.9066 C   0  0  0  0  0  0
   24.9160   -1.4477   -7.9043 H   0  0  0  0  0  0
   26.1657   -0.6909   -9.5003 C   0  0  0  0  0  0
   27.6830   -0.9452   -8.5829 S   0  0  0  0  0  0
   27.4340   -1.8771   -7.4785 O   0  0  0  0  0  0
   28.7783   -1.2193   -9.5126 O   0  0  0  0  0  0
   27.9672    0.6058   -7.9072 N   0  0  0  0  0  0
   28.7750    0.5882   -7.2892 H   0  0  0  0  0  0
   28.1096    1.2933   -8.6480 H   0  0  0  0  0  0
   25.1666    0.6479  -12.8327 C   0  0  1  0  0  0
   24.5730    0.2164  -13.6384 H   0  0  0  0  0  0
   24.8220    1.9180  -12.6758 F   0  0  0  0  0  0
   26.6882    0.5470  -13.0288 C   0  0  0  0  0  0
   27.2125    1.5320  -13.7614 F   0  0  0  0  0  0
   26.9121   -0.5907  -13.6902 F   0  0  0  0  0  0
  1  2  1  0  0  0
  2  3  1  0  0  0
  3 35  1  0  0  0
  3  4  1  0  0  0
  3  5  1  0  0  0
  5 25  1  0  0  0
  5  6  2  0  0  0
  6  7  1  0  0  0
  6 32  1  0  0  0
  7  8  1  0  0  0
  7 21  2  0  0  0
  8  9  1  0  0  0
  9 19  1  0  0  0
  9 10  2  0  0  0
 10 11  1  0  0  0
 10 12  1  0  0  0
 12 13  1  0  0  0
 12 14  2  0  0  0
 14 15  1  0  0  0
 14 16  1  0  0  0
 16 17  1  0  0  0
 16 19  2  0  0  0
 17 18  3  0  0  0
 19 20  1  0  0  0
 21 22  1  0  0  0
 21 23  1  0  0  0
 23 24  1  0  0  0
 23 25  2  0  0  0
 25 26  1  0  0  0
 26 27  2  0  0  0
 26 28  2  0  0  0
 26 29  1  0  0  0
 29 30  1  0  0  0
 29 31  1  0  0  0
 32 33  1  0  0  0
 32 34  1  0  0  0
 32 35  1  0  0  0
 35 36  1  0  0  0
 35 37  1  0  0  0
M  END
> <s_m_source_file>
ligprep_hif2a.smi

> <i_m_source_file_index>
30

> <i_lp_mmshare_version>
53161

> <i_f3d_flags>
0

> <s_epik_input>
W09IXVtDQEBIXTFDKEYpKEYpW0NASF0oRiljKGMxMiljKFtjSF1bY0hdYzJTKD1PKSg9TylbTkgyXSlPYzNbY0hdYyhGKVtjSF1jKEMjTilbY0hdMw==

> <s_epik_cmdline>
J2VwaWtfcHl0aG9uJywgJy1waHQnLCAnMC4wJywgJy1waCcsICc3LjQnLCAnLXRuJywgJzgnLCAnLW1hJywgJzUwMCcsICctaW1hZScsICc8aW5maWxlLm1hZT4nLCAnLW9tYWUnLCAnPG91dGZpbGUubWFlPic=

> <r_lp_tautomer_probability>
1

> <r_epik_Ionization_Penalty>
  0.0180

> <r_epik_Ionization_Penalty_Charging>
  0.0000

> <r_epik_Ionization_Penalty_Neutral>
  0.0180

> <r_epik_State_Penalty>
 -0.0000

> <r_epik_Charging_Adjusted_Penalty>
0

> <i_epik_Tot_Q>
0

> <i_epik_Tot_abs_Q>
0

> <s_lp_Force_Field>
S-OPLS

> <r_lp_Energy>
18.5661

> <b_lp_Chiralities_Consistent>
1

> <s_lp_Variant>
lig_338-1

> <s_i_glide_gridfile>
glide-grid_HIF2a-5TBM

> <i_i_glide_lignum>
30

> <i_i_glide_rotatable_bonds>
4

> <r_i_docking_score>
-11.1982950202893

> <r_i_glide_ligand_efficiency>
-0.414751667418122

> <r_i_glide_ligand_efficiency_sa>
-1.24425500088741

> <r_i_glide_ligand_efficiency_ln>
-2.60677846240123

> <r_i_glide_gscore>
-11.1982950202893

> <r_i_glide_lipo>
-4.46122460677722

> <r_i_glide_hbond>
-0.32

> <r_i_glide_metal>
-0

> <r_i_glide_rewards>
-3.30507630499721

> <r_i_glide_evdw>
-53.5850486755371

> <r_i_glide_ecoul>
-6.11775588989258

> <r_i_glide_erotb>
0.484921708745883

> <r_i_glide_esite>
0

> <r_i_glide_emodel>
-97.0146287314535

> <r_i_glide_energy>
-59.7028045654297

> <r_i_glide_einternal>
0.0125216590240598

> <i_i_glide_confnum>
1

> <i_i_glide_posenum>
1

> <r_i_glide_eff_state_penalty>
-0

> <r_i_glide_rmsd>
0.0744461866068962

> <s_glide_core_constrain_type>
snapped_core_restrain

$$$$
lig_252
                    3D
 Schrodinger Suite 2022-3.
 37 39  0  0  1  0            999 V2000
   28.2985    2.0722  -11.7164 H   0  0  0  0  0  0
   27.6211    1.7076  -11.1566 O   0  0  0  0  0  0
   27.2820    0.4272  -11.6321 C   0  0  1  0  0  0
   28.1531   -0.2229  -11.6408 H   0  0  0  0  0  0
   26.1406   -0.1020  -10.8071 C   0  0  0  0  0  0
   24.9418    0.0594  -11.4931 C   0  0  0  0  0  0
   23.7163   -0.3291  -10.9382 C   0  0  0  0  0  0
   22.6011   -0.2054  -11.7260 O   0  0  0  0  0  0
   21.3763   -0.4964  -11.2055 C   0  0  0  0  0  0
   20.8027   -1.7642  -11.4138 C   0  0  0  0  0  0
   21.3386   -2.5196  -11.9721 H   0  0  0  0  0  0
   19.5300   -2.0446  -10.8857 C   0  0  0  0  0  0
   18.9674   -3.2555  -11.0865 F   0  0  0  0  0  0
   18.8312   -1.0602  -10.1625 C   0  0  0  0  0  0
   17.8614   -1.2981   -9.7542 H   0  0  0  0  0  0
   19.4011    0.2154   -9.9742 C   0  0  0  0  0  0
   18.6950    1.2579   -9.2560 C   0  0  0  0  0  0
   18.1382    2.0888   -8.6754 N   0  0  0  0  0  0
   20.6808    0.4887  -10.4823 C   0  0  0  0  0  0
   21.1334    1.4549  -10.3120 H   0  0  0  0  0  0
   23.7178   -0.8384   -9.6127 C   0  0  0  0  0  0
   22.8000   -1.1360   -9.1285 H   0  0  0  0  0  0
   24.9315   -0.9920   -8.9043 C   0  0  0  0  0  0
   24.9148   -1.3903   -7.9009 H   0  0  0  0  0  0
   26.1614   -0.6488   -9.5051 C   0  0  0  0  0  0
   27.6789   -0.9241   -8.5817 S   0  0  0  0  0  0
   27.4049   -1.8605   -7.4848 O   0  0  0  0  0  0
   28.7866   -1.2021   -9.5006 O   0  0  0  0  0  0
   27.9636    0.6108   -7.8756 N   0  0  0  0  0  0
   27.2640    0.8226   -7.1666 H   0  0  0  0  0  0
   28.9053    0.6717   -7.4933 H   0  0  0  0  0  0
   25.1464    0.6594  -12.8593 C   0  0  0  0  0  0
   24.5748    0.1476  -13.6325 H   0  0  0  0  0  0
   24.8323    1.7034  -12.8263 H   0  0  0  0  0  0
   26.6695    0.5549  -13.0531 C   0  0  0  0  0  0
   27.1817    1.5532  -13.7753 F   0  0  0  0  0  0
   26.9026   -0.5842  -13.7088 F   0  0  0  0  0  0
  1  2  1  0  0  0
  2  3  1  0  0  0
  3 35  1  0  0  0
  3  4  1  0  0  0
  3  5  1  0  0  0
  5 25  1  0  0  0
  5  6  2  0  0  0
  6  7  1  0  0  0
  6 32  1  0  0  0
  7  8  1  0  0  0
  7 21  2  0  0  0
  8  9  1  0  0  0
  9 19  1  0  0  0
  9 10  2  0  0  0
 10 11  1  0  0  0
 10 12  1  0  0  0
 12 13  1  0  0  0
 12 14  2  0  0  0
 14 15  1  0  0  0
 14 16  1  0  0  0
 16 17  1  0  0  0
 16 19  2  0  0  0
 17 18  3  0  0  0
 19 20  1  0  0  0
 21 22  1  0  0  0
 21 23  1  0  0  0
 23 24  1  0  0  0
 23 25  2  0  0  0
 25 26  1  0  0  0
 26 27  2  0  0  0
 26 28  2  0  0  0
 26 29  1  0  0  0
 29 30  1  0  0  0
 29 31  1  0  0  0
 32 33  1  0  0  0
 32 34  1  0  0  0
 32 35  1  0  0  0
 35 36  1  0  0  0
 35 37  1  0  0  0
M  END
> <s_m_source_file>
ligprep_hif2a.smi

> <i_m_source_file_index>
21

> <i_lp_mmshare_version>
53161

> <i_f3d_flags>
0

> <s_epik_input>
W09IXVtDQEBIXTFDKEYpKEYpW0NIMl1jKGMxMiljKFtjSF1bY0hdYzJTKD1PKSg9TylbTkgyXSlPYzNbY0hdYyhGKVtjSF1jKEMjTilbY0hdMw==

> <s_epik_cmdline>
J2VwaWtfcHl0aG9uJywgJy1waHQnLCAnMC4wJywgJy1waCcsICc3LjQnLCAnLXRuJywgJzgnLCAnLW1hJywgJzUwMCcsICctaW1hZScsICc8aW5maWxlLm1hZT4nLCAnLW9tYWUnLCAnPG91dGZpbGUubWFlPic=

> <r_lp_tautomer_probability>
1

> <r_epik_Ionization_Penalty>
  0.0055

> <r_epik_Ionization_Penalty_Charging>
  0.0000

> <r_epik_Ionization_Penalty_Neutral>
  0.0055

> <r_epik_State_Penalty>
 -0.0000

> <r_epik_Charging_Adjusted_Penalty>
0

> <i_epik_Tot_Q>
0

> <i_epik_Tot_abs_Q>
0

> <s_lp_Force_Field>
S-OPLS

> <r_lp_Energy>
25.2664

> <b_lp_Chiralities_Consistent>
1

> <s_lp_Variant>
lig_252-1

> <s_i_glide_gridfile>
glide-grid_HIF2a-5TBM

> <i_i_glide_lignum>
21

> <i_i_glide_rotatable_bonds>
4

> <r_i_docking_score>
-11.1462706056304

> <r_i_glide_ligand_efficiency>
-0.428702715601168

> <r_i_glide_ligand_efficiency_sa>
-1.27003010810473

> <r_i_glide_ligand_efficiency_ln>
-2.61766507783533

> <r_i_glide_gscore>
-11.1462706056304

> <r_i_glide_lipo>
-4.43296584390903

> <r_i_glide_hbond>
-0.32

> <r_i_glide_metal>
-0

> <r_i_glide_rewards>
-3.42601088770019

> <r_i_glide_evdw>
-54.446907043457

> <r_i_glide_ecoul>
-5.14283275604248

> <r_i_glide_erotb>
0.526476391558088

> <r_i_glide_esite>
0

> <r_i_glide_emodel>
-98.2354964438163

> <r_i_glide_energy>
-59.5897397994995

> <r_i_glide_einternal>
0.00631894590333104

> <i_i_glide_confnum>
1

> <i_i_glide_posenum>
1

> <r_i_glide_eff_state_penalty>
-0

> <r_i_glide_rmsd>
0.063487821006427

> <s_glide_core_constrain_type>
snapped_core_restrain

$$$$
lig_290
                    3D
 Schrodinger Suite 2022-3.
 39 41  0  0  1  0            999 V2000
   17.8611   -1.3066   -9.7283 H   0  0  0  0  0  0
   18.8215   -1.0656  -10.1587 C   0  0  0  0  0  0
   19.5070   -2.0487  -10.8912 C   0  0  0  0  0  0
   18.9450   -3.2644  -11.0756 F   0  0  0  0  0  0
   20.7679   -1.7664  -11.4456 C   0  0  0  0  0  0
   21.2910   -2.5257  -12.0067 H   0  0  0  0  0  0
   21.3423   -0.4963  -11.2520 C   0  0  0  0  0  0
   22.5628   -0.2064  -11.7810 O   0  0  0  0  0  0
   23.6737   -0.3412  -10.9966 C   0  0  0  0  0  0
   23.6632   -0.8394   -9.6668 C   0  0  0  0  0  0
   22.7343   -1.1097   -9.1822 H   0  0  0  0  0  0
   24.8698   -0.9853   -8.9439 C   0  0  0  0  0  0
   24.8391   -1.3599   -7.9290 H   0  0  0  0  0  0
   26.1028   -0.6628   -9.5463 C   0  0  0  0  0  0
   27.6101   -0.9133   -8.6120 S   0  0  0  0  0  0
   27.3085   -1.9027   -7.5616 O   0  0  0  0  0  0
   28.7168   -1.1996   -9.5328 O   0  0  0  0  0  0
   27.9835    0.7025   -7.8093 C   0  0  0  0  0  0
   27.6186    0.6451   -6.5308 F   0  0  0  0  0  0
   29.2913    0.8978   -7.8871 F   0  0  0  0  0  0
   27.3188    1.6826   -8.4135 F   0  0  0  0  0  0
   26.0942   -0.1263  -10.8507 C   0  0  0  0  0  0
   24.9036    0.0398  -11.5469 C   0  0  0  0  0  0
   25.1282    0.6401  -12.9094 C   0  0  0  0  0  0
   24.5715    0.1188  -13.6878 H   0  0  0  0  0  0
   24.8211    1.6887  -12.9024 H   0  0  0  0  0  0
   26.6525    0.5398  -13.0869 C   0  0  0  0  0  0
   27.1606    1.5568  -13.7889 F   0  0  0  0  0  0
   26.8796   -0.5908  -13.7561 F   0  0  0  0  0  0
   27.2483    0.3876  -11.6654 C   0  0  1  0  0  0
   28.1074   -0.2857  -11.6837 H   0  0  0  0  0  0
   27.6211    1.6931  -11.1566 N   0  0  0  0  0  0
   27.8352    2.3251  -11.9210 H   0  0  0  0  0  0
   26.8646    2.1145  -10.6292 H   0  0  0  0  0  0
   20.6549    0.4894  -10.5277 C   0  0  0  0  0  0
   21.1019    1.4588  -10.3749 H   0  0  0  0  0  0
   19.3863    0.2133   -9.9929 C   0  0  0  0  0  0
   18.6914    1.2555   -9.2665 C   0  0  0  0  0  0
   18.1418    2.0865   -8.6759 N   0  0  0  0  0  0
  1  2  1  0  0  0
  2 37  1  0  0  0
  2  3  2  0  0  0
  3  4  1  0  0  0
  3  5  1  0  0  0
  5  6  1  0  0  0
  5  7  2  0  0  0
  7  8  1  0  0  0
  7 35  1  0  0  0
  8  9  1  0  0  0
  9 23  1  0  0  0
  9 10  2  0  0  0
 10 11  1  0  0  0
 10 12  1  0  0  0
 12 13  1  0  0  0
 12 14  2  0  0  0
 14 15  1  0  0  0
 14 22  1  0  0  0
 15 16  2  0  0  0
 15 17  2  0  0  0
 15 18  1  0  0  0
 18 19  1  0  0  0
 18 20  1  0  0  0
 18 21  1  0  0  0
 22 30  1  0  0  0
 22 23  2  0  0  0
 23 24  1  0  0  0
 24 25  1  0  0  0
 24 26  1  0  0  0
 24 27  1  0  0  0
 27 28  1  0  0  0
 27 29  1  0  0  0
 27 30  1  0  0  0
 30 31  1  0  0  0
 30 32  1  0  0  0
 32 33  1  0  0  0
 32 34  1  0  0  0
 35 36  1  0  0  0
 35 37  2  0  0  0
 37 38  1  0  0  0
 38 39  3  0  0  0
M  END
> <s_m_source_file>
ligprep_hif2a.smi

> <i_m_source_file_index>
26

> <i_lp_mmshare_version>
53161

> <i_f3d_flags>
0

> <s_epik_input>
RmMxW2NIXWMoQyNOKVtjSF1jKFtjSF0xKU9jKFtjSF1bY0hdYzJTKD1PKSg9TylDKEYpKEYpRiljKGMyMylbQ0gyXUMoRikoRilbQ0BIXTNbTkgyXQ==

> <s_epik_cmdline>
J2VwaWtfcHl0aG9uJywgJy1waHQnLCAnMC4wJywgJy1waCcsICc3LjQnLCAnLXRuJywgJzgnLCAnLW1hJywgJzUwMCcsICctaW1hZScsICc8aW5maWxlLm1hZT4nLCAnLW9tYWUnLCAnPG91dGZpbGUubWFlPic=

> <r_lp_tautomer_probability>
1

> <r_epik_Ionization_Penalty>
  0.0252

> <r_epik_Ionization_Penalty_Charging>
  0.0000

> <r_epik_Ionization_Penalty_Neutral>
  0.0252

> <r_epik_State_Penalty>
 -0.0000

> <r_epik_Charging_Adjusted_Penalty>
0

> <i_epik_Tot_Q>
0

> <i_epik_Tot_abs_Q>
0

> <s_lp_Force_Field>
S-OPLS

> <r_lp_Energy>
43.2136

> <b_lp_Chiralities_Consistent>
1

> <s_lp_Variant>
lig_290-1

> <s_i_glide_gridfile>
glide-grid_HIF2a-5TBM

> <i_i_glide_lignum>
26

> <i_i_glide_rotatable_bonds>
4

> <r_i_docking_score>
-11.1052968247173

> <r_i_glide_ligand_efficiency>
-0.382941269817838

> <r_i_glide_ligand_efficiency_sa>
-1.17651690519029

> <r_i_glide_ligand_efficiency_ln>
-2.54283136683042

> <r_i_glide_gscore>
-11.1052968247173

> <r_i_glide_lipo>
-4.79028761508194

> <r_i_glide_hbond>
-0.140517534765752

> <r_i_glide_metal>
-0

> <r_i_glide_rewards>
-3.0774880269443

> <r_i_glide_evdw>
-54.4588737487793

> <r_i_glide_ecoul>
-5.28556251525879

> <r_i_glide_erotb>
0.41877441680248

> <r_i_glide_esite>
0

> <r_i_glide_emodel>
-95.3464655838497

> <r_i_glide_energy>
-59.7444362640381

> <r_i_glide_einternal>
0.289383888244629

> <i_i_glide_confnum>
2

> <i_i_glide_posenum>
5

> <r_i_glide_eff_state_penalty>
-0

> <r_i_glide_rmsd>
0.0850347823259615

> <s_glide_core_constrain_type>
snapped_core_restrain

$$$$
lig_67
                    3D
 Schrodinger Suite 2022-3.
 32 34  0  0  1  0            999 V2000
   28.2977    2.0532  -11.7708 H   0  0  0  0  0  0
   27.6211    1.6958  -11.2082 O   0  0  0  0  0  0
   27.2411    0.4288  -11.6853 C   0  0  1  0  0  0
   28.0863   -0.2578  -11.6413 H   0  0  0  0  0  0
   26.0837   -0.0565  -10.8632 C   0  0  0  0  0  0
   24.8902    0.0687  -11.5585 C   0  0  0  0  0  0
   23.6663   -0.3114  -10.9871 C   0  0  0  0  0  0
   22.5376   -0.1881  -11.7544 O   0  0  0  0  0  0
   21.3214   -0.4811  -11.2061 C   0  0  0  0  0  0
   20.7483   -1.7482  -11.4196 C   0  0  0  0  0  0
   21.2690   -2.4929  -12.0059 H   0  0  0  0  0  0
   19.4935   -2.0447  -10.8594 C   0  0  0  0  0  0
   18.9263   -3.2505  -11.0752 F   0  0  0  0  0  0
   18.8204   -1.0810  -10.0861 C   0  0  0  0  0  0
   17.8624   -1.3220   -9.6553 H   0  0  0  0  0  0
   19.3865    0.1890   -9.8825 C   0  0  0  0  0  0
   18.7304    1.1217   -9.1526 F   0  0  0  0  0  0
   20.6418    0.4887  -10.4409 C   0  0  0  0  0  0
   21.0822    1.4593  -10.2770 H   0  0  0  0  0  0
   23.6852   -0.7945   -9.6494 C   0  0  0  0  0  0
   22.7763   -1.1045   -9.1553 H   0  0  0  0  0  0
   24.9003   -0.8963   -8.9330 C   0  0  0  0  0  0
   24.8889   -1.2636   -7.9159 H   0  0  0  0  0  0
   26.1219   -0.5345   -9.5405 C   0  0  0  0  0  0
   27.3790   -0.6278   -8.8262 C   0  0  0  0  0  0
   28.3834   -0.6986   -8.2625 N   0  0  0  0  0  0
   25.1138    0.6356  -12.9378 C   0  0  0  0  0  0
   24.7985    1.6805  -12.9340 H   0  0  0  0  0  0
   24.5519    0.1048  -13.7056 H   0  0  0  0  0  0
   26.6470    0.5367  -13.1108 C   0  0  0  0  0  0
   27.1713    1.5333  -13.8270 F   0  0  0  0  0  0
   26.8997   -0.6059  -13.7530 F   0  0  0  0  0  0
  1  2  1  0  0  0
  2  3  1  0  0  0
  3 30  1  0  0  0
  3  4  1  0  0  0
  3  5  1  0  0  0
  5 24  1  0  0  0
  5  6  2  0  0  0
  6  7  1  0  0  0
  6 27  1  0  0  0
  7  8  1  0  0  0
  7 20  2  0  0  0
  8  9  1  0  0  0
  9 18  1  0  0  0
  9 10  2  0  0  0
 10 11  1  0  0  0
 10 12  1  0  0  0
 12 13  1  0  0  0
 12 14  2  0  0  0
 14 15  1  0  0  0
 14 16  1  0  0  0
 16 17  1  0  0  0
 16 18  2  0  0  0
 18 19  1  0  0  0
 20 21  1  0  0  0
 20 22  1  0  0  0
 22 23  1  0  0  0
 22 24  2  0  0  0
 24 25  1  0  0  0
 25 26  3  0  0  0
 27 28  1  0  0  0
 27 29  1  0  0  0
 27 30  1  0  0  0
 30 31  1  0  0  0
 30 32  1  0  0  0
M  END
> <s_m_source_file>
ligprep_hif2a.smi

> <i_m_source_file_index>
39

> <i_lp_mmshare_version>
53161

> <i_f3d_flags>
0

> <s_epik_input>
W09IXVtDQEBIXTFDKEYpKEYpW0NIMl1jKGMxMiljKFtjSF1bY0hdYzJDI04pT2MzW2NIXWMoRilbY0hdYyhGKVtjSF0z

> <s_epik_cmdline>
J2VwaWtfcHl0aG9uJywgJy1waHQnLCAnMC4wJywgJy1waCcsICc3LjQnLCAnLXRuJywgJzgnLCAnLW1hJywgJzUwMCcsICctaW1hZScsICc8aW5maWxlLm1hZT4nLCAnLW9tYWUnLCAnPG91dGZpbGUubWFlPic=

> <r_lp_tautomer_probability>
1

> <r_epik_Ionization_Penalty>
  0.0012

> <r_epik_Ionization_Penalty_Charging>
  0.0000

> <r_epik_Ionization_Penalty_Neutral>
  0.0012

> <r_epik_State_Penalty>
 -0.0000

> <r_epik_Charging_Adjusted_Penalty>
0

> <i_epik_Tot_Q>
0

> <i_epik_Tot_abs_Q>
0

> <s_lp_Force_Field>
S-OPLS

> <r_lp_Energy>
29.7258

> <b_lp_Chiralities_Consistent>
1

> <s_lp_Variant>
lig_67-1

> <s_i_glide_gridfile>
glide-grid_HIF2a-5TBM

> <i_i_glide_lignum>
39

> <i_i_glide_rotatable_bonds>
3

> <r_i_docking_score>
-11.0615599861457

> <r_i_glide_ligand_efficiency>
-0.480937390701987

> <r_i_glide_ligand_efficiency_sa>
-1.36772196336386

> <r_i_glide_ligand_efficiency_ln>
-2.67478550533057

> <r_i_glide_gscore>
-11.0615599861457

> <r_i_glide_lipo>
-4.4149434784909

> <r_i_glide_hbond>
-0.32

> <r_i_glide_metal>
-0

> <r_i_glide_rewards>
-3.77691258172398

> <r_i_glide_evdw>
-45.4248161315918

> <r_i_glide_ecoul>
-5.43804550170898

> <r_i_glide_erotb>
0.53724370590512

> <r_i_glide_esite>
0

> <r_i_glide_emodel>
-83.3266375494827

> <r_i_glide_energy>
-50.8628616333008

> <r_i_glide_einternal>
0.00676916865631938

> <i_i_glide_confnum>
2

> <i_i_glide_posenum>
2

> <r_i_glide_eff_state_penalty>
-0

> <r_i_glide_rmsd>
0.0957277555084212

> <s_glide_core_constrain_type>
snapped_core_restrain

$$$$
lig_165
                    3D
 Schrodinger Suite 2022-3.
 39 41  0  0  1  0            999 V2000
   17.8434   -1.2852   -9.7435 H   0  0  0  0  0  0
   18.8188   -1.0523  -10.1456 C   0  0  0  0  0  0
   19.5102   -2.0401  -10.8704 C   0  0  0  0  0  0
   18.9386   -3.2458  -11.0757 F   0  0  0  0  0  0
   20.7827   -1.7648  -11.3983 C   0  0  0  0  0  0
   21.3154   -2.5220  -11.9582 H   0  0  0  0  0  0
   21.3589   -0.4978  -11.1906 C   0  0  0  0  0  0
   22.5828   -0.2098  -11.7150 O   0  0  0  0  0  0
   23.6986   -0.3357  -10.9279 C   0  0  0  0  0  0
   23.7011   -0.8401   -9.6006 C   0  0  0  0  0  0
   22.7847   -1.1348   -9.1145 H   0  0  0  0  0  0
   24.9160   -0.9992   -8.8943 C   0  0  0  0  0  0
   24.9004   -1.3943   -7.8888 H   0  0  0  0  0  0
   26.1483   -0.6811   -9.5047 C   0  0  0  0  0  0
   27.6697   -0.9234   -8.5772 S   0  0  0  0  0  0
   27.4139   -1.8920   -7.5025 O   0  0  0  0  0  0
   28.7725   -1.1906   -9.5049 O   0  0  0  0  0  0
   27.9915    0.7013   -7.8053 C   0  0  0  0  0  0
   28.9189    0.6168   -7.2493 H   0  0  0  0  0  0
   28.1180    1.4709   -8.5624 H   0  0  0  0  0  0
   27.1764    0.9702   -7.1373 H   0  0  0  0  0  0
   26.1250   -0.1333  -10.8065 C   0  0  0  0  0  0
   24.9256    0.0375  -11.4890 C   0  0  0  0  0  0
   25.1300    0.6172  -12.8650 C   0  0  0  0  0  0
   24.5639    0.0895  -13.6311 H   0  0  0  0  0  0
   24.8100    1.6578  -12.8479 H   0  0  0  0  0  0
   26.6545    0.5175  -13.0579 C   0  0  0  0  0  0
   27.1470    1.5265  -13.7836 F   0  0  0  0  0  0
   26.8843   -0.6175  -13.7193 F   0  0  0  0  0  0
   27.2660    0.3792  -11.6365 C   0  0  1  0  0  0
   28.1265   -0.2920  -11.6472 H   0  0  0  0  0  0
   27.6211    1.6890  -11.1425 N   0  0  0  0  0  0
   27.1499    1.9318  -10.2816 H   0  0  0  0  0  0
   28.6200    1.7831  -11.0134 H   0  0  0  0  0  0
   20.6668    0.4899  -10.4670 C   0  0  0  0  0  0
   21.1190    1.4561  -10.3008 H   0  0  0  0  0  0
   19.3871    0.2223   -9.9601 C   0  0  0  0  0  0
   18.6752    1.2681   -9.2499 C   0  0  0  0  0  0
   18.1136    2.0996   -8.6766 N   0  0  0  0  0  0
  1  2  1  0  0  0
  2 37  1  0  0  0
  2  3  2  0  0  0
  3  4  1  0  0  0
  3  5  1  0  0  0
  5  6  1  0  0  0
  5  7  2  0  0  0
  7  8  1  0  0  0
  7 35  1  0  0  0
  8  9  1  0  0  0
  9 23  1  0  0  0
  9 10  2  0  0  0
 10 11  1  0  0  0
 10 12  1  0  0  0
 12 13  1  0  0  0
 12 14  2  0  0  0
 14 15  1  0  0  0
 14 22  1  0  0  0
 15 16  2  0  0  0
 15 17  2  0  0  0
 15 18  1  0  0  0
 18 19  1  0  0  0
 18 20  1  0  0  0
 18 21  1  0  0  0
 22 30  1  0  0  0
 22 23  2  0  0  0
 23 24  1  0  0  0
 24 25  1  0  0  0
 24 26  1  0  0  0
 24 27  1  0  0  0
 27 28  1  0  0  0
 27 29  1  0  0  0
 27 30  1  0  0  0
 30 31  1  0  0  0
 30 32  1  0  0  0
 32 33  1  0  0  0
 32 34  1  0  0  0
 35 36  1  0  0  0
 35 37  2  0  0  0
 37 38  1  0  0  0
 38 39  3  0  0  0
M  END
> <s_m_source_file>
ligprep_hif2a.smi

> <i_m_source_file_index>
8

> <i_lp_mmshare_version>
53161

> <i_f3d_flags>
0

> <s_epik_input>
RmMxW2NIXWMoQyNOKVtjSF1jKFtjSF0xKU9jKFtjSF1bY0hdYzJTKD1PKSg9TylbQ0gzXSljKGMyMylbQ0gyXUMoRikoRilbQ0BIXTNbTkgyXQ==

> <s_epik_cmdline>
J2VwaWtfcHl0aG9uJywgJy1waHQnLCAnMC4wJywgJy1waCcsICc3LjQnLCAnLXRuJywgJzgnLCAnLW1hJywgJzUwMCcsICctaW1hZScsICc8aW5maWxlLm1hZT4nLCAnLW9tYWUnLCAnPG91dGZpbGUubWFlPic=

> <r_lp_tautomer_probability>
1

> <r_epik_Ionization_Penalty>
  0.0349

> <r_epik_Ionization_Penalty_Charging>
  0.0000

> <r_epik_Ionization_Penalty_Neutral>
  0.0349

> <r_epik_State_Penalty>
  0.0291

> <r_epik_Charging_Adjusted_Penalty>
0.0290932

> <i_epik_Tot_Q>
0

> <i_epik_Tot_abs_Q>
0

> <s_lp_Force_Field>
S-OPLS

> <r_lp_Energy>
31.5232

> <b_lp_Chiralities_Consistent>
1

> <s_lp_Variant>
lig_165-1

> <s_i_glide_gridfile>
glide-grid_HIF2a-5TBM

> <i_i_glide_lignum>
8

> <i_i_glide_rotatable_bonds>
3

> <r_i_docking_score>
-11.0575363966577

> <r_i_glide_ligand_efficiency>
-0.425289861409912

> <r_i_glide_ligand_efficiency_sa>
-1.25991954099207

> <r_i_glide_ligand_efficiency_ln>
-2.59682614001879

> <r_i_glide_gscore>
-11.0866363966577

> <r_i_glide_lipo>
-4.76464635838708

> <r_i_glide_hbond>
-0.0798034466475835

> <r_i_glide_metal>
-0

> <r_i_glide_rewards>
-3.4412982698499

> <r_i_glide_evdw>
-53.7991981506348

> <r_i_glide_ecoul>
-3.3963086605072

> <r_i_glide_erotb>
0.398517884834666

> <r_i_glide_esite>
0

> <r_i_glide_emodel>
-94.6509091673757

> <r_i_glide_energy>
-57.195506811142

> <r_i_glide_einternal>
1.29391310110805e-07

> <i_i_glide_confnum>
1

> <i_i_glide_posenum>
1

> <r_i_glide_eff_state_penalty>
0.0291

> <r_i_glide_rmsd>
0.0721487667691783

> <s_glide_core_constrain_type>
snapped_core_restrain

$$$$
lig_256
                    3D
 Schrodinger Suite 2022-3.
 36 38  0  0  1  0            999 V2000
   28.2803    2.0725  -11.7221 H   0  0  0  0  0  0
   27.6211    1.6957  -11.1500 O   0  0  0  0  0  0
   27.2774    0.4225  -11.6472 C   0  0  1  0  0  0
   28.1442   -0.2367  -11.6752 H   0  0  0  0  0  0
   26.1370   -0.1073  -10.8241 C   0  0  0  0  0  0
   24.9323    0.0626  -11.5015 C   0  0  0  0  0  0
   23.7055   -0.3104  -10.9343 C   0  0  0  0  0  0
   22.5769   -0.1672  -11.7029 O   0  0  0  0  0  0
   21.3551   -0.4773  -11.1773 C   0  0  0  0  0  0
   20.8002   -1.7521  -11.3936 C   0  0  0  0  0  0
   21.3432   -2.4946  -11.9613 H   0  0  0  0  0  0
   19.5339   -2.0580  -10.8626 C   0  0  0  0  0  0
   18.9882   -3.2744  -11.0758 F   0  0  0  0  0  0
   18.8239   -1.0924  -10.1253 C   0  0  0  0  0  0
   17.8562   -1.3384   -9.7187 H   0  0  0  0  0  0
   19.3730    0.1867   -9.9209 C   0  0  0  0  0  0
   18.6829    1.1273   -9.2322 F   0  0  0  0  0  0
   20.6423    0.4884  -10.4420 C   0  0  0  0  0  0
   21.0670    1.4688  -10.2739 H   0  0  0  0  0  0
   23.7201   -0.8318   -9.6123 C   0  0  0  0  0  0
   22.8081   -1.1363   -9.1210 H   0  0  0  0  0  0
   24.9397   -0.9911   -8.9144 C   0  0  0  0  0  0
   24.9293   -1.3958   -7.9146 H   0  0  0  0  0  0
   26.1668   -0.6472   -9.5203 C   0  0  0  0  0  0
   27.6944   -0.8994   -8.6042 S   0  0  0  0  0  0
   28.7859   -1.2054   -9.5331 O   0  0  0  0  0  0
   27.4392   -1.8071   -7.4783 O   0  0  0  0  0  0
   27.9945    0.6593   -7.9571 N   0  0  0  0  0  0
   28.1367    1.3372   -8.7062 H   0  0  0  0  0  0
   27.2555    0.9352   -7.3133 H   0  0  0  0  0  0
   25.1374    0.6636  -12.8673 C   0  0  0  0  0  0
   24.5674    0.1540  -13.6426 H   0  0  0  0  0  0
   24.8208    1.7065  -12.8293 H   0  0  0  0  0  0
   26.6614    0.5607  -13.0642 C   0  0  0  0  0  0
   27.1783    1.5567  -13.7854 F   0  0  0  0  0  0
   26.8939   -0.5785  -13.7196 F   0  0  0  0  0  0
  1  2  1  0  0  0
  2  3  1  0  0  0
  3 34  1  0  0  0
  3  4  1  0  0  0
  3  5  1  0  0  0
  5 24  1  0  0  0
  5  6  2  0  0  0
  6  7  1  0  0  0
  6 31  1  0  0  0
  7  8  1  0  0  0
  7 20  2  0  0  0
  8  9  1  0  0  0
  9 18  1  0  0  0
  9 10  2  0  0  0
 10 11  1  0  0  0
 10 12  1  0  0  0
 12 13  1  0  0  0
 12 14  2  0  0  0
 14 15  1  0  0  0
 14 16  1  0  0  0
 16 17  1  0  0  0
 16 18  2  0  0  0
 18 19  1  0  0  0
 20 21  1  0  0  0
 20 22  1  0  0  0
 22 23  1  0  0  0
 22 24  2  0  0  0
 24 25  1  0  0  0
 25 26  2  0  0  0
 25 27  2  0  0  0
 25 28  1  0  0  0
 28 29  1  0  0  0
 28 30  1  0  0  0
 31 32  1  0  0  0
 31 33  1  0  0  0
 31 34  1  0  0  0
 34 35  1  0  0  0
 34 36  1  0  0  0
M  END
> <s_m_source_file>
ligprep_hif2a.smi

> <i_m_source_file_index>
23

> <i_lp_mmshare_version>
53161

> <i_f3d_flags>
0

> <s_epik_input>
W09IXVtDQEBIXTFDKEYpKEYpW0NIMl1jKGMxMiljKFtjSF1bY0hdYzJTKD1PKSg9TylbTkgyXSlPYzNbY0hdYyhGKVtjSF1jKEYpW2NIXTM=

> <s_epik_cmdline>
J2VwaWtfcHl0aG9uJywgJy1waHQnLCAnMC4wJywgJy1waCcsICc3LjQnLCAnLXRuJywgJzgnLCAnLW1hJywgJzUwMCcsICctaW1hZScsICc8aW5maWxlLm1hZT4nLCAnLW9tYWUnLCAnPG91dGZpbGUubWFlPic=

> <r_lp_tautomer_probability>
1

> <r_epik_Ionization_Penalty>
  0.0055

> <r_epik_Ionization_Penalty_Charging>
  0.0000

> <r_epik_Ionization_Penalty_Neutral>
  0.0055

> <r_epik_State_Penalty>
 -0.0000

> <r_epik_Charging_Adjusted_Penalty>
0

> <i_epik_Tot_Q>
0

> <i_epik_Tot_abs_Q>
0

> <s_lp_Force_Field>
S-OPLS

> <r_lp_Energy>
21.8453

> <b_lp_Chiralities_Consistent>
1

> <s_lp_Variant>
lig_256-1

> <s_i_glide_gridfile>
glide-grid_HIF2a-5TBM

> <i_i_glide_lignum>
23

> <i_i_glide_rotatable_bonds>
4

> <r_i_docking_score>
-11.0490813506364

> <r_i_glide_ligand_efficiency>
-0.441963254025456

> <r_i_glide_ligand_efficiency_sa>
-1.29230839302212

> <r_i_glide_ligand_efficiency_ln>
-2.61896339434962

> <r_i_glide_gscore>
-11.0490813506364

> <r_i_glide_lipo>
-4.42243386034582

> <r_i_glide_hbond>
-0.32

> <r_i_glide_metal>
-0

> <r_i_glide_rewards>
-3.36067123453103

> <r_i_glide_evdw>
-50.5244750976562

> <r_i_glide_ecoul>
-6.42605829238892

> <r_i_glide_erotb>
0.544156242981608

> <r_i_glide_esite>
0

> <r_i_glide_emodel>
-93.3723681294309

> <r_i_glide_energy>
-56.9505333900452

> <r_i_glide_einternal>
0.00632777949795127

> <i_i_glide_confnum>
3

> <i_i_glide_posenum>
2

> <r_i_glide_eff_state_penalty>
-0

> <r_i_glide_rmsd>
0.0686592869035339

> <s_glide_core_constrain_type>
snapped_core_restrain

$$$$
lig_215
                    3D
 Schrodinger Suite 2022-3.
 38 40  0  0  1  0            999 V2000
   28.2673    2.0745  -11.7888 H   0  0  0  0  0  0
   27.6212    1.6885  -11.2056 O   0  0  0  0  0  0
   27.2687    0.4171  -11.6947 C   0  0  1  0  0  0
   28.1390   -0.2346  -11.7296 H   0  0  0  0  0  0
   26.1348   -0.1267  -10.8699 C   0  0  0  0  0  0
   24.9262    0.0407  -11.5383 C   0  0  0  0  0  0
   23.7084   -0.3611  -10.9720 C   0  0  0  0  0  0
   22.5800   -0.2176  -11.7388 O   0  0  0  0  0  0
   21.3591   -0.4990  -11.2016 C   0  0  0  0  0  0
   20.7741   -1.7618  -11.4165 C   0  0  0  0  0  0
   21.2961   -2.5165  -11.9877 H   0  0  0  0  0  0
   19.5048   -2.0369  -10.8785 C   0  0  0  0  0  0
   18.9295   -3.2415  -11.0806 F   0  0  0  0  0  0
   18.8211   -1.0508  -10.1445 C   0  0  0  0  0  0
   17.8487   -1.2800   -9.7390 H   0  0  0  0  0  0
   19.3963    0.2215   -9.9571 C   0  0  0  0  0  0
   18.6806    1.2618   -9.2472 C   0  0  0  0  0  0
   18.1108    2.0888   -8.6758 N   0  0  0  0  0  0
   20.6773    0.4886  -10.4668 C   0  0  0  0  0  0
   21.1320    1.4546  -10.2961 H   0  0  0  0  0  0
   23.7309   -0.9081   -9.6618 C   0  0  0  0  0  0
   22.8211   -1.2328   -9.1783 H   0  0  0  0  0  0
   24.9568   -1.0687   -8.9730 C   0  0  0  0  0  0
   24.9577   -1.5020   -7.9833 H   0  0  0  0  0  0
   26.1766   -0.7094   -9.5866 C   0  0  0  0  0  0
   27.7193   -0.9592   -8.6991 S   0  0  0  0  0  0
   27.4668   -1.9033   -7.5989 O   0  0  0  0  0  0
   28.7784   -1.2796   -9.6582 O   0  0  0  0  0  0
   28.1002    0.6838   -7.9875 C   0  0  0  0  0  0
   29.1658    0.7323   -7.7686 H   0  0  0  0  0  0
   27.8312    1.4797   -8.6790 H   0  0  0  0  0  0
   27.2212    0.8886   -6.4950 Cl  0  0  0  0  0  0
   25.1167    0.6480  -12.9022 C   0  0  0  0  0  0
   24.5522    0.1249  -13.6737 H   0  0  0  0  0  0
   24.7875    1.6873  -12.8678 H   0  0  0  0  0  0
   26.6416    0.5579  -13.1018 C   0  0  0  0  0  0
   27.1480    1.5618  -13.8212 F   0  0  0  0  0  0
   26.8846   -0.5853  -13.7451 F   0  0  0  0  0  0
  1  2  1  0  0  0
  2  3  1  0  0  0
  3 36  1  0  0  0
  3  4  1  0  0  0
  3  5  1  0  0  0
  5 25  1  0  0  0
  5  6  2  0  0  0
  6  7  1  0  0  0
  6 33  1  0  0  0
  7  8  1  0  0  0
  7 21  2  0  0  0
  8  9  1  0  0  0
  9 19  1  0  0  0
  9 10  2  0  0  0
 10 11  1  0  0  0
 10 12  1  0  0  0
 12 13  1  0  0  0
 12 14  2  0  0  0
 14 15  1  0  0  0
 14 16  1  0  0  0
 16 17  1  0  0  0
 16 19  2  0  0  0
 17 18  3  0  0  0
 19 20  1  0  0  0
 21 22  1  0  0  0
 21 23  1  0  0  0
 23 24  1  0  0  0
 23 25  2  0  0  0
 25 26  1  0  0  0
 26 27  2  0  0  0
 26 28  2  0  0  0
 26 29  1  0  0  0
 29 30  1  0  0  0
 29 31  1  0  0  0
 29 32  1  0  0  0
 33 34  1  0  0  0
 33 35  1  0  0  0
 33 36  1  0  0  0
 36 37  1  0  0  0
 36 38  1  0  0  0
M  END
> <s_m_source_file>
ligprep_hif2a.smi

> <i_m_source_file_index>
11

> <i_lp_mmshare_version>
53161

> <i_f3d_flags>
0

> <s_epik_input>
Q2xbQ0gyXVMoPU8pKD1PKWMxW2NIXVtjSF1jKGMoYzEyKVtDSDJdQyhGKShGKVtDQEhdMltPSF0pT2MzW2NIXWMoRilbY0hdYyhDI04pW2NIXTM=

> <s_epik_cmdline>
J2VwaWtfcHl0aG9uJywgJy1waHQnLCAnMC4wJywgJy1waCcsICc3LjQnLCAnLXRuJywgJzgnLCAnLW1hJywgJzUwMCcsICctaW1hZScsICc8aW5maWxlLm1hZT4nLCAnLW9tYWUnLCAnPG91dGZpbGUubWFlPic=

> <r_lp_tautomer_probability>
1

> <r_epik_Ionization_Penalty>
  0.0012

> <r_epik_Ionization_Penalty_Charging>
  0.0000

> <r_epik_Ionization_Penalty_Neutral>
  0.0012

> <r_epik_State_Penalty>
 -0.0000

> <r_epik_Charging_Adjusted_Penalty>
0

> <i_epik_Tot_Q>
0

> <i_epik_Tot_abs_Q>
0

> <s_lp_Force_Field>
S-OPLS

> <r_lp_Energy>
25.285

> <b_lp_Chiralities_Consistent>
1

> <s_lp_Variant>
lig_215-1

> <s_i_glide_gridfile>
glide-grid_HIF2a-5TBM

> <i_i_glide_lignum>
11

> <i_i_glide_rotatable_bonds>
5

> <r_i_docking_score>
-10.9886013225815

> <r_i_glide_ligand_efficiency>
-0.406985234169687

> <r_i_glide_ligand_efficiency_sa>
-1.2209557011677

> <r_i_glide_ligand_efficiency_ln>
-2.55796522664566

> <r_i_glide_gscore>
-10.9886013225815

> <r_i_glide_lipo>
-4.87844438906744

> <r_i_glide_hbond>
-0.32

> <r_i_glide_metal>
-0

> <r_i_glide_rewards>
-3.20321406948695

> <r_i_glide_evdw>
-40.2013244628906

> <r_i_glide_ecoul>
-7.62102651596069

> <r_i_glide_erotb>
0.566277336511474

> <r_i_glide_esite>
0

> <r_i_glide_emodel>
-74.3209229048787

> <r_i_glide_energy>
-47.8223509788513

> <r_i_glide_einternal>
0.238605409860611

> <i_i_glide_confnum>
3

> <i_i_glide_posenum>
5

> <r_i_glide_eff_state_penalty>
-0

> <r_i_glide_rmsd>
0.0844491105177691

> <s_glide_core_constrain_type>
snapped_core_restrain

$$$$
lig_23
                    3D
 Schrodinger Suite 2022-3.
 38 40  0  0  1  0            999 V2000
   28.3545    1.9756  -11.6314 H   0  0  0  0  0  0
   27.6283    1.6482  -11.1090 O   0  0  0  0  0  0
   27.2436    0.3841  -11.6145 C   0  0  1  0  0  0
   28.0901   -0.2985  -11.6363 H   0  0  0  0  0  0
   26.0861   -0.1430  -10.8126 C   0  0  0  0  0  0
   24.8928    0.0405  -11.5038 C   0  0  0  0  0  0
   23.6525   -0.3108  -10.9499 C   0  0  0  0  0  0
   22.5300   -0.1151  -11.7174 O   0  0  0  0  0  0
   21.3080   -0.4445  -11.2088 C   0  0  0  0  0  0
   20.5844    0.4988  -10.4529 C   0  0  0  0  0  0
   20.9877    1.4845  -10.2758 H   0  0  0  0  0  0
   19.3350    0.1544   -9.9145 C   0  0  0  0  0  0
   18.6363    1.0586   -9.1867 F   0  0  0  0  0  0
   18.8173   -1.1357  -10.1279 C   0  0  0  0  0  0
   17.8642   -1.4115   -9.7055 H   0  0  0  0  0  0
   19.5216   -2.0659  -10.9103 C   0  0  0  0  0  0
   18.9853   -3.2818  -11.1518 F   0  0  0  0  0  0
   20.7717   -1.7234  -11.4537 C   0  0  0  0  0  0
   21.3180   -2.4423  -12.0470 H   0  0  0  0  0  0
   23.6454   -0.8371   -9.6309 C   0  0  0  0  0  0
   22.7205   -1.1132   -9.1467 H   0  0  0  0  0  0
   24.8553   -1.0302   -8.9247 C   0  0  0  0  0  0
   24.8253   -1.4374   -7.9254 H   0  0  0  0  0  0
   26.0944   -0.7160   -9.5227 C   0  0  0  0  0  0
   27.6061   -0.9691   -8.5839 S   0  0  0  0  0  0
   27.3072   -1.8993   -7.4853 O   0  0  0  0  0  0
   28.6966   -1.3139   -9.5027 O   0  0  0  0  0  0
   27.9598    0.6899   -7.8736 C   0  0  0  0  0  0
   27.4214    1.4556   -8.4324 H   0  0  0  0  0  0
   29.2550    0.9248   -7.9943 F   0  0  0  0  0  0
   27.5928    0.7199   -6.5937 F   0  0  0  0  0  0
   25.1200    0.6256  -12.8699 C   0  0  0  0  0  0
   24.5870    0.0795  -13.6463 H   0  0  0  0  0  0
   24.7628    1.6561  -12.8663 H   0  0  0  0  0  0
   26.6513    0.5515  -13.0389 C   0  0  1  0  0  0
   26.8824   -0.3445  -13.6180 H   0  0  0  0  0  0
   27.1633    1.6837  -13.7030 O   0  0  0  0  0  0
   27.0475    2.4221  -13.1187 H   0  0  0  0  0  0
  1  2  1  0  0  0
  2  3  1  0  0  0
  3 35  1  0  0  0
  3  4  1  0  0  0
  3  5  1  0  0  0
  5 24  1  0  0  0
  5  6  2  0  0  0
  6  7  1  0  0  0
  6 32  1  0  0  0
  7  8  1  0  0  0
  7 20  2  0  0  0
  8  9  1  0  0  0
  9 18  1  0  0  0
  9 10  2  0  0  0
 10 11  1  0  0  0
 10 12  1  0  0  0
 12 13  1  0  0  0
 12 14  2  0  0  0
 14 15  1  0  0  0
 14 16  1  0  0  0
 16 17  1  0  0  0
 16 18  2  0  0  0
 18 19  1  0  0  0
 20 21  1  0  0  0
 20 22  1  0  0  0
 22 23  1  0  0  0
 22 24  2  0  0  0
 24 25  1  0  0  0
 25 26  2  0  0  0
 25 27  2  0  0  0
 25 28  1  0  0  0
 28 29  1  0  0  0
 28 30  1  0  0  0
 28 31  1  0  0  0
 32 33  1  0  0  0
 32 34  1  0  0  0
 32 35  1  0  0  0
 35 36  1  0  0  0
 35 37  1  0  0  0
 37 38  1  0  0  0
M  END
> <s_m_source_file>
ligprep_hif2a.smi

> <i_m_source_file_index>
14

> <i_lp_mmshare_version>
53161

> <i_f3d_flags>
0

> <s_epik_input>
RltDSF0oRilTKD1PKSg9TyljMVtjSF1bY0hdYyhjKGMxMilbQ0gyXVtDQEBIXShbT0hdKVtDQEhdMltPSF0pT2MzW2NIXWMoRilbY0hdYyhGKVtjSF0z

> <s_epik_cmdline>
J2VwaWtfcHl0aG9uJywgJy1waHQnLCAnMC4wJywgJy1waCcsICc3LjQnLCAnLXRuJywgJzgnLCAnLW1hJywgJzUwMCcsICctaW1hZScsICc8aW5maWxlLm1hZT4nLCAnLW9tYWUnLCAnPG91dGZpbGUubWFlPic=

> <r_lp_tautomer_probability>
1

> <r_epik_Ionization_Penalty>
  0.0000

> <r_epik_Ionization_Penalty_Charging>
  0.0000

> <r_epik_Ionization_Penalty_Neutral>
  0.0000

> <r_epik_State_Penalty>
 -0.0000

> <r_epik_Charging_Adjusted_Penalty>
0

> <i_epik_Tot_Q>
0

> <i_epik_Tot_abs_Q>
0

> <s_lp_Force_Field>
S-OPLS

> <r_lp_Energy>
27.4617

> <b_lp_Chiralities_Consistent>
1

> <s_lp_Variant>
lig_23-1

> <s_i_glide_gridfile>
glide-grid_HIF2a-5TBM

> <i_i_glide_lignum>
14

> <i_i_glide_rotatable_bonds>
6

> <r_i_docking_score>
-10.9425062785721

> <r_i_glide_ligand_efficiency>
-0.420865626098927

> <r_i_glide_ligand_efficiency_sa>
-1.2468127612918

> <r_i_glide_ligand_efficiency_ln>
-2.56981169423099

> <r_i_glide_gscore>
-10.9425062785721

> <r_i_glide_lipo>
-4.76271953862243

> <r_i_glide_hbond>
0

> <r_i_glide_metal>
-0

> <r_i_glide_rewards>
-3.16855809520512

> <r_i_glide_evdw>
-51.2012023925781

> <r_i_glide_ecoul>
-8.08157444000244

> <r_i_glide_erotb>
0.761067640884715

> <r_i_glide_esite>
0

> <r_i_glide_emodel>
-96.1754658503232

> <r_i_glide_energy>
-59.2827768325806

> <r_i_glide_einternal>
2.32087850570679

> <i_i_glide_confnum>
53

> <i_i_glide_posenum>
59

> <r_i_glide_eff_state_penalty>
-0

> <r_i_glide_rmsd>
0.102435814507161

> <s_glide_core_constrain_type>
snapped_core_restrain

$$$$
lig_156
                    3D
 Schrodinger Suite 2022-3.
 38 40  0  0  1  0            999 V2000
   28.5598    1.9002  -11.4108 H   0  0  0  0  0  0
   27.6904    1.6707  -11.0758 O   0  0  0  0  0  0
   27.2834    0.4276  -11.6020 C   0  0  1  0  0  0
   28.1078   -0.2841  -11.6376 H   0  0  0  0  0  0
   26.1180   -0.1139  -10.8122 C   0  0  0  0  0  0
   24.9268    0.0422  -11.5148 C   0  0  0  0  0  0
   23.6914   -0.3662  -10.9825 C   0  0  0  0  0  0
   22.5710   -0.2235  -11.7603 O   0  0  0  0  0  0
   21.3412   -0.5047  -11.2370 C   0  0  0  0  0  0
   20.7734   -1.7844  -11.4126 C   0  0  0  0  0  0
   21.3083   -2.5464  -11.9617 H   0  0  0  0  0  0
   19.5152   -2.0752  -10.8494 C   0  0  0  0  0  0
   19.0835   -3.0579  -10.9696 H   0  0  0  0  0  0
   18.8208   -1.0775  -10.1374 C   0  0  0  0  0  0
   17.8630   -1.3121   -9.7026 H   0  0  0  0  0  0
   19.3797    0.2084   -9.9782 C   0  0  0  0  0  0
   18.6784    1.2554   -9.2573 C   0  0  0  0  0  0
   18.1258    2.0887   -8.6773 N   0  0  0  0  0  0
   20.6424    0.4877  -10.5250 C   0  0  0  0  0  0
   21.0892    1.4560  -10.3753 H   0  0  0  0  0  0
   23.6806   -0.8964   -9.6677 C   0  0  0  0  0  0
   22.7585   -1.1965   -9.1926 H   0  0  0  0  0  0
   24.8844   -1.0580   -8.9453 C   0  0  0  0  0  0
   24.8568   -1.4805   -7.9521 H   0  0  0  0  0  0
   26.1212   -0.7123   -9.5311 C   0  0  0  0  0  0
   27.6211   -0.9601   -8.5763 S   0  0  0  0  0  0
   27.3223   -1.8918   -7.4799 O   0  0  0  0  0  0
   28.7334   -1.2853   -9.4773 O   0  0  0  0  0  0
   27.9574    0.7007   -7.8667 C   0  0  0  0  0  0
   27.4828    1.4753   -8.4690 H   0  0  0  0  0  0
   27.4822    0.7545   -6.6193 F   0  0  0  0  0  0
   29.2655    0.8886   -7.8751 F   0  0  0  0  0  0
   25.1599    0.6520  -12.8711 C   0  0  0  0  0  0
   24.6505    0.0983  -13.6635 H   0  0  0  0  0  0
   24.7899    1.6803  -12.8625 H   0  0  0  0  0  0
   26.6936    0.6126  -13.0280 C   0  0  0  0  0  0
   26.9503   -0.2579  -13.6297 H   0  0  0  0  0  0
   27.0935    1.4910  -13.5426 H   0  0  0  0  0  0
  1  2  1  0  0  0
  2  3  1  0  0  0
  3 36  1  0  0  0
  3  4  1  0  0  0
  3  5  1  0  0  0
  5 25  1  0  0  0
  5  6  2  0  0  0
  6  7  1  0  0  0
  6 33  1  0  0  0
  7  8  1  0  0  0
  7 21  2  0  0  0
  8  9  1  0  0  0
  9 19  1  0  0  0
  9 10  2  0  0  0
 10 11  1  0  0  0
 10 12  1  0  0  0
 12 13  1  0  0  0
 12 14  2  0  0  0
 14 15  1  0  0  0
 14 16  1  0  0  0
 16 17  1  0  0  0
 16 19  2  0  0  0
 17 18  3  0  0  0
 19 20  1  0  0  0
 21 22  1  0  0  0
 21 23  1  0  0  0
 23 24  1  0  0  0
 23 25  2  0  0  0
 25 26  1  0  0  0
 26 27  2  0  0  0
 26 28  2  0  0  0
 26 29  1  0  0  0
 29 30  1  0  0  0
 29 31  1  0  0  0
 29 32  1  0  0  0
 33 34  1  0  0  0
 33 35  1  0  0  0
 33 36  1  0  0  0
 36 37  1  0  0  0
 36 38  1  0  0  0
M  END
> <s_m_source_file>
ligprep_hif2a.smi

> <i_m_source_file_index>
5

> <i_lp_mmshare_version>
53161

> <i_f3d_flags>
0

> <s_epik_input>
RltDSF0oRilTKD1PKSg9TyljMVtjSF1bY0hdYyhjKGMxMilbQ0gyXVtDSDJdW0NASF0yW09IXSlPYzNbY0hdW2NIXVtjSF1jKEMjTilbY0hdMw==

> <s_epik_cmdline>
J2VwaWtfcHl0aG9uJywgJy1waHQnLCAnMC4wJywgJy1waCcsICc3LjQnLCAnLXRuJywgJzgnLCAnLW1hJywgJzUwMCcsICctaW1hZScsICc8aW5maWxlLm1hZT4nLCAnLW9tYWUnLCAnPG91dGZpbGUubWFlPic=

> <r_lp_tautomer_probability>
1

> <r_epik_Ionization_Penalty>
  0.0000

> <r_epik_Ionization_Penalty_Charging>
  0.0000

> <r_epik_Ionization_Penalty_Neutral>
  0.0000

> <r_epik_State_Penalty>
 -0.0000

> <r_epik_Charging_Adjusted_Penalty>
0

> <i_epik_Tot_Q>
0

> <i_epik_Tot_abs_Q>
0

> <s_lp_Force_Field>
S-OPLS

> <r_lp_Energy>
33.9668

> <b_lp_Chiralities_Consistent>
1

> <s_lp_Variant>
lig_156-1

> <s_i_glide_gridfile>
glide-grid_HIF2a-5TBM

> <i_i_glide_lignum>
5

> <i_i_glide_rotatable_bonds>
5

> <r_i_docking_score>
-10.9374296630619

> <r_i_glide_ligand_efficiency>
-0.437497186522475

> <r_i_glide_ligand_efficiency_sa>
-1.27924953243736

> <r_i_glide_ligand_efficiency_ln>
-2.59249859846339

> <r_i_glide_gscore>
-10.9374296630619

> <r_i_glide_lipo>
-4.80062442123086

> <r_i_glide_hbond>
-0.32

> <r_i_glide_metal>
-0

> <r_i_glide_rewards>
-2.90543609161911

> <r_i_glide_evdw>
-53.3212013244629

> <r_i_glide_ecoul>
-6.43882179260254

> <r_i_glide_erotb>
0.720514184901607

> <r_i_glide_esite>
0

> <r_i_glide_emodel>
-97.9239200396318

> <r_i_glide_energy>
-59.7600231170654

> <r_i_glide_einternal>
1.45257163047791

> <i_i_glide_confnum>
2

> <i_i_glide_posenum>
9

> <r_i_glide_eff_state_penalty>
-0

> <r_i_glide_rmsd>
0.0863550012553479

> <s_glide_core_constrain_type>
snapped_core_restrain

$$$$
lig_235
                    3D
 Schrodinger Suite 2022-3.
 37 39  0  0  1  0            999 V2000
   28.2825    2.0420  -11.7975 H   0  0  0  0  0  0
   27.6206    1.6691  -11.2180 O   0  0  0  0  0  0
   27.2389    0.4008  -11.6993 C   0  0  1  0  0  0
   28.0934   -0.2735  -11.7271 H   0  0  0  0  0  0
   26.0908   -0.1236  -10.8772 C   0  0  0  0  0  0
   24.8907    0.0360  -11.5599 C   0  0  0  0  0  0
   23.6679   -0.3614  -10.9997 C   0  0  0  0  0  0
   22.5426   -0.2525  -11.7721 O   0  0  0  0  0  0
   21.3134   -0.5183  -11.2256 C   0  0  0  0  0  0
   20.7048   -1.7871  -11.3435 C   0  0  0  0  0  0
   21.1983   -2.5951  -11.8680 H   0  0  0  0  0  0
   19.4912   -2.0732  -10.8233 N   0  0  0  0  0  0
   18.8355   -1.0948  -10.1592 C   0  0  0  0  0  0
   17.8818   -1.3677   -9.7379 H   0  0  0  0  0  0
   19.3507    0.2100  -10.0011 C   0  0  0  0  0  0
   18.6349    1.2539   -9.2870 C   0  0  0  0  0  0
   18.0801    2.0876   -8.7102 N   0  0  0  0  0  0
   20.6166    0.4889  -10.5365 C   0  0  0  0  0  0
   21.0502    1.4691  -10.4097 H   0  0  0  0  0  0
   23.6815   -0.8852   -9.6805 C   0  0  0  0  0  0
   22.7712   -1.2083   -9.2041 H   0  0  0  0  0  0
   24.8934   -1.0443   -8.9767 C   0  0  0  0  0  0
   24.8772   -1.4649   -7.9827 H   0  0  0  0  0  0
   26.1159   -0.6959   -9.5860 C   0  0  0  0  0  0
   27.6289   -0.9324   -8.6590 S   0  0  0  0  0  0
   27.3454   -1.9050   -7.5924 O   0  0  0  0  0  0
   28.7302   -1.2214   -9.5838 O   0  0  0  0  0  0
   27.9521    0.7038   -7.8867 C   0  0  0  0  0  0
   29.2228    1.0143   -8.0647 F   0  0  0  0  0  0
   27.1814    1.6402   -8.4376 F   0  0  0  0  0  0
   27.6557    0.6149   -6.5943 F   0  0  0  0  0  0
   25.0929    0.6352  -12.9237 C   0  0  0  0  0  0
   24.5375    0.1117  -13.7011 H   0  0  0  0  0  0
   24.7627    1.6720  -12.8939 H   0  0  0  0  0  0
   26.6170    0.5440  -13.1144 C   0  0  0  0  0  0
   27.1238    1.5549  -13.8268 F   0  0  0  0  0  0
   26.8573   -0.5939  -13.7711 F   0  0  0  0  0  0
  1  2  1  0  0  0
  2  3  1  0  0  0
  3 35  1  0  0  0
  3  4  1  0  0  0
  3  5  1  0  0  0
  5 24  1  0  0  0
  5  6  2  0  0  0
  6  7  1  0  0  0
  6 32  1  0  0  0
  7  8  1  0  0  0
  7 20  2  0  0  0
  8  9  1  0  0  0
  9 18  1  0  0  0
  9 10  2  0  0  0
 10 11  1  0  0  0
 10 12  1  0  0  0
 12 13  2  0  0  0
 13 14  1  0  0  0
 13 15  1  0  0  0
 15 16  1  0  0  0
 15 18  2  0  0  0
 16 17  3  0  0  0
 18 19  1  0  0  0
 20 21  1  0  0  0
 20 22  1  0  0  0
 22 23  1  0  0  0
 22 24  2  0  0  0
 24 25  1  0  0  0
 25 26  2  0  0  0
 25 27  2  0  0  0
 25 28  1  0  0  0
 28 29  1  0  0  0
 28 30  1  0  0  0
 28 31  1  0  0  0
 32 33  1  0  0  0
 32 34  1  0  0  0
 32 35  1  0  0  0
 35 36  1  0  0  0
 35 37  1  0  0  0
M  END
> <s_m_source_file>
ligprep_hif2a.smi

> <i_m_source_file_index>
17

> <i_lp_mmshare_version>
53161

> <i_f3d_flags>
0

> <s_epik_input>
RkMoRikoRilTKD1PKSg9TyljMVtjSF1bY0hdYyhjKGMxMilbQ0gyXUMoRikoRilbQ0BIXTJbT0hdKU9jM1tjSF1uW2NIXWMoQyNOKVtjSF0z

> <s_epik_cmdline>
J2VwaWtfcHl0aG9uJywgJy1waHQnLCAnMC4wJywgJy1waCcsICc3LjQnLCAnLXRuJywgJzgnLCAnLW1hJywgJzUwMCcsICctaW1hZScsICc8aW5maWxlLm1hZT4nLCAnLW9tYWUnLCAnPG91dGZpbGUubWFlPic=

> <r_lp_tautomer_probability>
1

> <r_epik_Ionization_Penalty>
  0.0012

> <r_epik_Ionization_Penalty_Charging>
  0.0000

> <r_epik_Ionization_Penalty_Neutral>
  0.0012

> <r_epik_State_Penalty>
 -0.0000

> <r_epik_Charging_Adjusted_Penalty>
0

> <i_epik_Tot_Q>
0

> <i_epik_Tot_abs_Q>
0

> <s_lp_Force_Field>
S-OPLS

> <r_lp_Energy>
38.3046

> <b_lp_Chiralities_Consistent>
1

> <s_lp_Variant>
lig_235-1

> <s_i_glide_gridfile>
glide-grid_HIF2a-5TBM

> <i_i_glide_lignum>
17

> <i_i_glide_rotatable_bonds>
5

> <r_i_docking_score>
-10.8889301331203

> <r_i_glide_ligand_efficiency>
-0.388890361897153

> <r_i_glide_ligand_efficiency_sa>
-1.18090018289396

> <r_i_glide_ligand_efficiency_ln>
-2.51348478760527

> <r_i_glide_gscore>
-10.8889301331203

> <r_i_glide_lipo>
-4.4950517593062

> <r_i_glide_hbond>
-0.32

> <r_i_glide_metal>
-0

> <r_i_glide_rewards>
-2.91816292322112

> <r_i_glide_evdw>
-54.7469749450684

> <r_i_glide_ecoul>
-6.52341651916504

> <r_i_glide_erotb>
0.560145774535195

> <r_i_glide_esite>
0

> <r_i_glide_emodel>
-499.11832537287

> <r_i_glide_energy>
-61.2703914642334

> <r_i_glide_einternal>
0.0279683861881495

> <i_i_glide_confnum>
146

> <i_i_glide_posenum>
41

> <r_i_glide_eff_state_penalty>
-0

> <r_i_glide_rmsd>
0.0988674991883434

> <s_glide_core_constrain_type>
snapped_core_restrain

$$$$
lig_1
                    3D
 Schrodinger Suite 2022-3.
 37 39  0  0  1  0            999 V2000
   28.3122    2.0274  -11.8280 H   0  0  0  0  0  0
   27.6211    1.6883  -11.2696 O   0  0  0  0  0  0
   27.2345    0.4126  -11.7084 C   0  0  1  0  0  0
   28.0863   -0.2634  -11.7376 H   0  0  0  0  0  0
   26.1025   -0.0992  -10.8571 C   0  0  0  0  0  0
   24.8944    0.0553  -11.5264 C   0  0  0  0  0  0
   23.6711   -0.3099  -10.9455 C   0  0  0  0  0  0
   22.5362   -0.1393  -11.6965 O   0  0  0  0  0  0
   21.3205   -0.4395  -11.1553 C   0  0  0  0  0  0
   20.7634   -1.7162  -11.3617 C   0  0  0  0  0  0
   21.2985   -2.4623  -11.9353 H   0  0  0  0  0  0
   19.5011   -2.0183  -10.8213 C   0  0  0  0  0  0
   18.9449   -3.2288  -11.0322 F   0  0  0  0  0  0
   18.8034   -1.0468  -10.0826 C   0  0  0  0  0  0
   17.8352   -1.2894   -9.6725 H   0  0  0  0  0  0
   19.3468    0.2383   -9.9045 C   0  0  0  0  0  0
   18.4454    1.4580   -9.0758 Cl  0  0  0  0  0  0
   20.6157    0.5373  -10.4246 C   0  0  0  0  0  0
   21.0382    1.5213  -10.2757 H   0  0  0  0  0  0
   23.6902   -0.8084   -9.6167 C   0  0  0  0  0  0
   22.7770   -1.0933   -9.1130 H   0  0  0  0  0  0
   24.9127   -0.9567   -8.9244 C   0  0  0  0  0  0
   24.9073   -1.3482   -7.9161 H   0  0  0  0  0  0
   26.1383   -0.6301   -9.5470 C   0  0  0  0  0  0
   27.6609   -0.8848   -8.6224 S   0  0  0  0  0  0
   27.3915   -1.8932   -7.5869 O   0  0  0  0  0  0
   28.7554   -1.1464   -9.5603 O   0  0  0  0  0  0
   28.0142    0.7154   -7.7807 C   0  0  0  0  0  0
   29.0773    0.7554   -7.5589 H   0  0  0  0  0  0
   27.3404    0.7739   -6.6335 F   0  0  0  0  0  0
   27.6997    1.7495   -8.5525 F   0  0  0  0  0  0
   25.0810    0.6397  -12.9005 C   0  0  0  0  0  0
   24.5260    0.0914  -13.6603 H   0  0  0  0  0  0
   24.7385    1.6756  -12.8994 H   0  0  0  0  0  0
   26.6053    0.5640  -13.1121 C   0  0  0  0  0  0
   26.8103   -0.3542  -13.6681 H   0  0  0  0  0  0
   27.0104    1.3875  -13.7032 H   0  0  0  0  0  0
  1  2  1  0  0  0
  2  3  1  0  0  0
  3 35  1  0  0  0
  3  4  1  0  0  0
  3  5  1  0  0  0
  5 24  1  0  0  0
  5  6  2  0  0  0
  6  7  1  0  0  0
  6 32  1  0  0  0
  7  8  1  0  0  0
  7 20  2  0  0  0
  8  9  1  0  0  0
  9 18  1  0  0  0
  9 10  2  0  0  0
 10 11  1  0  0  0
 10 12  1  0  0  0
 12 13  1  0  0  0
 12 14  2  0  0  0
 14 15  1  0  0  0
 14 16  1  0  0  0
 16 17  1  0  0  0
 16 18  2  0  0  0
 18 19  1  0  0  0
 20 21  1  0  0  0
 20 22  1  0  0  0
 22 23  1  0  0  0
 22 24  2  0  0  0
 24 25  1  0  0  0
 25 26  2  0  0  0
 25 27  2  0  0  0
 25 28  1  0  0  0
 28 29  1  0  0  0
 28 30  1  0  0  0
 28 31  1  0  0  0
 32 33  1  0  0  0
 32 34  1  0  0  0
 32 35  1  0  0  0
 35 36  1  0  0  0
 35 37  1  0  0  0
M  END
> <s_m_source_file>
ligprep_hif2a.smi

> <i_m_source_file_index>
1

> <i_lp_mmshare_version>
53161

> <i_f3d_flags>
0

> <s_epik_input>
RltDSF0oRilTKD1PKSg9TyljMVtjSF1bY0hdYyhjKGMxMilbQ0gyXVtDSDJdW0NASF0yW09IXSlPYzNbY0hdYyhGKVtjSF1jKENsKVtjSF0z

> <s_epik_cmdline>
J2VwaWtfcHl0aG9uJywgJy1waHQnLCAnMC4wJywgJy1waCcsICc3LjQnLCAnLXRuJywgJzgnLCAnLW1hJywgJzUwMCcsICctaW1hZScsICc8aW5maWxlLm1hZT4nLCAnLW9tYWUnLCAnPG91dGZpbGUubWFlPic=

> <r_lp_tautomer_probability>
1

> <r_epik_Ionization_Penalty>
  0.0000

> <r_epik_Ionization_Penalty_Charging>
  0.0000

> <r_epik_Ionization_Penalty_Neutral>
  0.0000

> <r_epik_State_Penalty>
 -0.0000

> <r_epik_Charging_Adjusted_Penalty>
0

> <i_epik_Tot_Q>
0

> <i_epik_Tot_abs_Q>
0

> <s_lp_Force_Field>
S-OPLS

> <r_lp_Energy>
29.8405

> <b_lp_Chiralities_Consistent>
1

> <s_lp_Variant>
lig_1-1

> <s_i_glide_gridfile>
glide-grid_HIF2a-5TBM

> <i_i_glide_lignum>
1

> <i_i_glide_rotatable_bonds>
5

> <r_i_docking_score>
-10.8846072261852

> <r_i_glide_ligand_efficiency>
-0.435384289047407

> <r_i_glide_ligand_efficiency_sa>
-1.27307138274786

> <r_i_glide_ligand_efficiency_ln>
-2.57997809796291

> <r_i_glide_gscore>
-10.8846072261852

> <r_i_glide_lipo>
-5.08088570963049

> <r_i_glide_hbond>
0

> <r_i_glide_metal>
-0

> <r_i_glide_rewards>
-2.93523301110174

> <r_i_glide_evdw>
-53.7916793823242

> <r_i_glide_ecoul>
-5.41205501556396

> <r_i_glide_erotb>
0.632903715997856

> <r_i_glide_esite>
0

> <r_i_glide_emodel>
-96.3380203305745

> <r_i_glide_energy>
-59.2037343978882

> <r_i_glide_einternal>
1.79343247413635

> <i_i_glide_confnum>
6

> <i_i_glide_posenum>
9

> <r_i_glide_eff_state_penalty>
-0

> <r_i_glide_rmsd>
0.0950009351342373

> <s_glide_core_constrain_type>
snapped_core_restrain

$$$$
lig_35
                    3D
 Schrodinger Suite 2022-3.
 34 35  0  0  1  0            999 V2000
   27.9990    2.4911  -11.7602 H   0  0  0  0  0  0
   27.2213    2.0944  -11.3756 O   0  0  0  0  0  0
   27.3875    0.6935  -11.3681 C   0  0  0  0  0  0
   28.2948    0.5201  -10.8050 H   0  0  0  0  0  0
   27.5939    0.3353  -12.3782 H   0  0  0  0  0  0
   26.1400    0.0058  -10.8116 C   0  0  0  0  0  0
   24.9127    0.1347  -11.5199 C   0  0  0  0  0  0
   24.8835    0.7760  -12.8327 C   0  0  0  0  0  0
   24.8706    1.2869  -13.8702 N   0  0  0  0  0  0
   23.7003   -0.3289  -10.9561 C   0  0  0  0  0  0
   22.5452   -0.1737  -11.6891 O   0  0  0  0  0  0
   21.3310   -0.4790  -11.1382 C   0  0  0  0  0  0
   20.7706   -1.7496  -11.3670 C   0  0  0  0  0  0
   21.3036   -2.4872  -11.9494 H   0  0  0  0  0  0
   19.5028   -2.0513  -10.8441 C   0  0  0  0  0  0
   18.9375   -3.2550  -11.0792 F   0  0  0  0  0  0
   18.8022   -1.0854  -10.1037 C   0  0  0  0  0  0
   17.8261   -1.3288   -9.7147 H   0  0  0  0  0  0
   19.3449    0.1965   -9.9043 C   0  0  0  0  0  0
   18.4263    1.4104   -9.0825 Cl  0  0  0  0  0  0
   20.6191    0.4926  -10.4023 C   0  0  0  0  0  0
   21.0334    1.4803  -10.2742 H   0  0  0  0  0  0
   23.7141   -0.9100   -9.6666 C   0  0  0  0  0  0
   22.8053   -1.2573   -9.1939 H   0  0  0  0  0  0
   24.9228   -1.0670   -8.9718 C   0  0  0  0  0  0
   24.9094   -1.5008   -7.9841 H   0  0  0  0  0  0
   26.1390   -0.6674   -9.5600 C   0  0  0  0  0  0
   27.6259   -0.9507   -8.5930 S   0  0  0  0  0  0
   27.2967   -1.8590   -7.4850 O   0  0  0  0  0  0
   28.7356   -1.3205   -9.4810 O   0  0  0  0  0  0
   27.9487    0.7167   -7.9040 C   0  0  0  0  0  0
   27.5101    1.4836   -8.5401 H   0  0  0  0  0  0
   27.4373    0.8014   -6.6791 F   0  0  0  0  0  0
   29.2496    0.9035   -7.8724 F   0  0  0  0  0  0
  1  2  1  0  0  0
  2  3  1  0  0  0
  3  4  1  0  0  0
  3  5  1  0  0  0
  3  6  1  0  0  0
  6 27  1  0  0  0
  6  7  2  0  0  0
  7  8  1  0  0  0
  7 10  1  0  0  0
  8  9  3  0  0  0
 10 11  1  0  0  0
 10 23  2  0  0  0
 11 12  1  0  0  0
 12 21  1  0  0  0
 12 13  2  0  0  0
 13 14  1  0  0  0
 13 15  1  0  0  0
 15 16  1  0  0  0
 15 17  2  0  0  0
 17 18  1  0  0  0
 17 19  1  0  0  0
 19 20  1  0  0  0
 19 21  2  0  0  0
 21 22  1  0  0  0
 23 24  1  0  0  0
 23 25  1  0  0  0
 25 26  1  0  0  0
 25 27  2  0  0  0
 27 28  1  0  0  0
 28 29  2  0  0  0
 28 30  2  0  0  0
 28 31  1  0  0  0
 31 32  1  0  0  0
 31 33  1  0  0  0
 31 34  1  0  0  0
M  END
> <s_m_source_file>
ligprep_hif2a.smi

> <i_m_source_file_index>
31

> <i_lp_mmshare_version>
53161

> <i_f3d_flags>
0

> <s_epik_input>
RltDSF0oRilTKD1PKSg9TyljMVtjSF1bY0hdYyhjKEMjTiljMVtDSDJdW09IXSlPYzJbY0hdYyhGKVtjSF1jKENsKVtjSF0y

> <s_epik_cmdline>
J2VwaWtfcHl0aG9uJywgJy1waHQnLCAnMC4wJywgJy1waCcsICc3LjQnLCAnLXRuJywgJzgnLCAnLW1hJywgJzUwMCcsICctaW1hZScsICc8aW5maWxlLm1hZT4nLCAnLW9tYWUnLCAnPG91dGZpbGUubWFlPic=

> <r_lp_tautomer_probability>
1

> <r_epik_Ionization_Penalty>
  0.0000

> <r_epik_Ionization_Penalty_Charging>
  0.0000

> <r_epik_Ionization_Penalty_Neutral>
  0.0000

> <r_epik_State_Penalty>
 -0.0000

> <r_epik_Charging_Adjusted_Penalty>
0

> <i_epik_Tot_Q>
0

> <i_epik_Tot_abs_Q>
0

> <s_lp_Force_Field>
S-OPLS

> <r_lp_Energy>
32.3938

> <b_lp_Chiralities_Consistent>
1

> <s_lp_Variant>
lig_35-1

> <s_i_glide_gridfile>
glide-grid_HIF2a-5TBM

> <i_i_glide_lignum>
31

> <i_i_glide_rotatable_bonds>
6

> <r_i_docking_score>
-10.7672752064977

> <r_i_glide_ligand_efficiency>
-0.430691008259907

> <r_i_glide_ligand_efficiency_sa>
-1.25934814648952

> <r_i_glide_ligand_efficiency_ln>
-2.55216689314008

> <r_i_glide_gscore>
-10.7672752064977

> <r_i_glide_lipo>
-4.37545031063697

> <r_i_glide_hbond>
-0.32

> <r_i_glide_metal>
-0

> <r_i_glide_rewards>
-3.1776156832893

> <r_i_glide_evdw>
-51.1930274963379

> <r_i_glide_ecoul>
-6.46965599060059

> <r_i_glide_erotb>
0.635890560835578

> <r_i_glide_esite>
0

> <r_i_glide_emodel>
-91.1782758809619

> <r_i_glide_energy>
-57.6626834869385

> <r_i_glide_einternal>
3.89035773277283

> <i_i_glide_confnum>
3

> <i_i_glide_posenum>
7

> <r_i_glide_eff_state_penalty>
-0

> <r_i_glide_rmsd>
0.103827987441755

> <s_glide_core_constrain_type>
snapped_core_restrain

$$$$
lig_25
                    3D
 Schrodinger Suite 2022-3.
 36 38  0  0  1  0            999 V2000
   28.2673    2.0154  -11.7129 H   0  0  0  0  0  0
   27.6211    1.6375  -11.1250 O   0  0  0  0  0  0
   27.2233    0.3814  -11.6314 C   0  0  1  0  0  0
   28.0697   -0.3017  -11.6568 H   0  0  0  0  0  0
   26.0659   -0.1370  -10.8169 C   0  0  0  0  0  0
   24.8666    0.0391  -11.5021 C   0  0  0  0  0  0
   23.6342   -0.3428  -10.9448 C   0  0  0  0  0  0
   22.5056   -0.2040  -11.7135 O   0  0  0  0  0  0
   21.2820   -0.4918  -11.1697 C   0  0  0  0  0  0
   20.5748    0.4921  -10.4558 C   0  0  0  0  0  0
   20.9901    1.4781  -10.3098 H   0  0  0  0  0  0
   19.3164    0.1779   -9.9239 C   0  0  0  0  0  0
   18.4211    1.3847   -9.0763 Cl  0  0  0  0  0  0
   18.8219   -1.1294  -10.1103 C   0  0  0  0  0  0
   17.8685   -1.4233   -9.7009 H   0  0  0  0  0  0
   19.4854   -2.0824  -10.8006 N   0  0  0  0  0  0
   20.6918   -1.7651  -11.3197 C   0  0  0  0  0  0
   21.2013   -2.5461  -11.8658 H   0  0  0  0  0  0
   23.6360   -0.8617   -9.6232 C   0  0  0  0  0  0
   22.7180   -1.1613   -9.1390 H   0  0  0  0  0  0
   24.8487   -1.0311   -8.9181 C   0  0  0  0  0  0
   24.8268   -1.4409   -7.9187 H   0  0  0  0  0  0
   26.0809   -0.7048   -9.5244 C   0  0  0  0  0  0
   27.5965   -0.9564   -8.5978 S   0  0  0  0  0  0
   27.3076   -1.8903   -7.4997 O   0  0  0  0  0  0
   28.6792   -1.2957   -9.5273 O   0  0  0  0  0  0
   27.9539    0.6997   -7.8849 C   0  0  0  0  0  0
   27.4510    1.4746   -8.4633 H   0  0  0  0  0  0
   29.2582    0.9024   -7.9613 F   0  0  0  0  0  0
   27.5517    0.7411   -6.6165 F   0  0  0  0  0  0
   25.0885    0.6413  -12.8670 C   0  0  0  0  0  0
   24.5304    0.1197  -13.6444 H   0  0  0  0  0  0
   24.7654    1.6823  -12.8452 H   0  0  0  0  0  0
   26.6178    0.5383  -13.0512 C   0  0  0  0  0  0
   27.1563    1.5350  -13.7589 F   0  0  0  0  0  0
   26.8524   -0.5933  -13.7183 F   0  0  0  0  0  0
  1  2  1  0  0  0
  2  3  1  0  0  0
  3 34  1  0  0  0
  3  4  1  0  0  0
  3  5  1  0  0  0
  5 23  1  0  0  0
  5  6  2  0  0  0
  6  7  1  0  0  0
  6 31  1  0  0  0
  7  8  1  0  0  0
  7 19  2  0  0  0
  8  9  1  0  0  0
  9 17  1  0  0  0
  9 10  2  0  0  0
 10 11  1  0  0  0
 10 12  1  0  0  0
 12 13  1  0  0  0
 12 14  2  0  0  0
 14 15  1  0  0  0
 14 16  1  0  0  0
 16 17  2  0  0  0
 17 18  1  0  0  0
 19 20  1  0  0  0
 19 21  1  0  0  0
 21 22  1  0  0  0
 21 23  2  0  0  0
 23 24  1  0  0  0
 24 25  2  0  0  0
 24 26  2  0  0  0
 24 27  1  0  0  0
 27 28  1  0  0  0
 27 29  1  0  0  0
 27 30  1  0  0  0
 31 32  1  0  0  0
 31 33  1  0  0  0
 31 34  1  0  0  0
 34 35  1  0  0  0
 34 36  1  0  0  0
M  END
> <s_m_source_file>
ligprep_hif2a.smi

> <i_m_source_file_index>
19

> <i_lp_mmshare_version>
53161

> <i_f3d_flags>
0

> <s_epik_input>
RltDSF0oRilTKD1PKSg9TyljMVtjSF1bY0hdYyhjKGMxMilbQ0gyXUMoRikoRilbQ0BIXTJbT0hdKU9jM1tjSF1jKENsKVtjSF1uW2NIXTM=

> <s_epik_cmdline>
J2VwaWtfcHl0aG9uJywgJy1waHQnLCAnMC4wJywgJy1waCcsICc3LjQnLCAnLXRuJywgJzgnLCAnLW1hJywgJzUwMCcsICctaW1hZScsICc8aW5maWxlLm1hZT4nLCAnLW9tYWUnLCAnPG91dGZpbGUubWFlPic=

> <r_lp_tautomer_probability>
1

> <r_epik_Ionization_Penalty>
  0.0012

> <r_epik_Ionization_Penalty_Charging>
  0.0000

> <r_epik_Ionization_Penalty_Neutral>
  0.0012

> <r_epik_State_Penalty>
 -0.0000

> <r_epik_Charging_Adjusted_Penalty>
0

> <i_epik_Tot_Q>
0

> <i_epik_Tot_abs_Q>
0

> <s_lp_Force_Field>
S-OPLS

> <r_lp_Energy>
32.7075

> <b_lp_Chiralities_Consistent>
1

> <s_lp_Variant>
lig_25-1

> <s_i_glide_gridfile>
glide-grid_HIF2a-5TBM

> <i_i_glide_lignum>
19

> <i_i_glide_rotatable_bonds>
5

> <r_i_docking_score>
-10.7456515149874

> <r_i_glide_ligand_efficiency>
-0.413294289037978

> <r_i_glide_ligand_efficiency_sa>
-1.22438270504051

> <r_i_glide_ligand_efficiency_ln>
-2.52358099893629

> <r_i_glide_gscore>
-10.7456515149874

> <r_i_glide_lipo>
-4.78398150265292

> <r_i_glide_hbond>
-0.32

> <r_i_glide_metal>
-0

> <r_i_glide_rewards>
-2.48265027405514

> <r_i_glide_evdw>
-54.0538749694824

> <r_i_glide_ecoul>
-6.91779136657715

> <r_i_glide_erotb>
0.581342715181333

> <r_i_glide_esite>
0

> <r_i_glide_emodel>
-97.4903078257458

> <r_i_glide_energy>
-60.9716663360596

> <r_i_glide_einternal>
0.868094742298126

> <i_i_glide_confnum>
154

> <i_i_glide_posenum>
33

> <r_i_glide_eff_state_penalty>
-0

> <r_i_glide_rmsd>
0.10643066316787

> <s_glide_core_constrain_type>
snapped_core_restrain

$$$$
lig_61
                    3D
 Schrodinger Suite 2022-3.
 37 39  0  0  1  0            999 V2000
   28.2870    2.0881  -11.6538 H   0  0  0  0  0  0
   27.6211    1.6934  -11.1017 O   0  0  0  0  0  0
   27.2713    0.4339  -11.6267 C   0  0  1  0  0  0
   28.1369   -0.2253  -11.6680 H   0  0  0  0  0  0
   26.1326   -0.1227  -10.8260 C   0  0  0  0  0  0
   24.9258    0.0446  -11.5023 C   0  0  0  0  0  0
   23.6988   -0.3235  -10.9317 C   0  0  0  0  0  0
   22.5600   -0.1488  -11.6801 O   0  0  0  0  0  0
   21.3418   -0.4719  -11.1585 C   0  0  0  0  0  0
   20.7926   -1.7517  -11.3744 C   0  0  0  0  0  0
   21.3406   -2.4903  -11.9432 H   0  0  0  0  0  0
   19.5266   -2.0652  -10.8533 C   0  0  0  0  0  0
   18.9820   -3.2794  -11.0756 F   0  0  0  0  0  0
   18.8083   -1.1003  -10.1237 C   0  0  0  0  0  0
   17.8338   -1.3539   -9.7287 H   0  0  0  0  0  0
   19.3386    0.1871   -9.9217 C   0  0  0  0  0  0
   18.4211    1.3963   -9.0935 Cl  0  0  0  0  0  0
   20.6131    0.4889  -10.4285 C   0  0  0  0  0  0
   21.0260    1.4740  -10.2756 H   0  0  0  0  0  0
   23.7146   -0.8469   -9.6090 C   0  0  0  0  0  0
   22.8011   -1.1268   -9.1150 H   0  0  0  0  0  0
   24.9346   -1.0233   -8.9189 C   0  0  0  0  0  0
   24.9267   -1.4123   -7.9113 H   0  0  0  0  0  0
   26.1641   -0.6837   -9.5268 C   0  0  0  0  0  0
   27.6930   -0.8978   -8.5925 S   0  0  0  0  0  0
   27.4376   -1.8519   -7.5022 O   0  0  0  0  0  0
   28.7913   -1.1871   -9.5164 O   0  0  0  0  0  0
   28.0080    0.7520   -7.8604 C   0  0  0  0  0  0
   27.6501    1.5469   -8.5189 H   0  0  0  0  0  0
   29.0814    0.8662   -7.7018 H   0  0  0  0  0  0
   27.4035    0.8364   -6.6757 F   0  0  0  0  0  0
   25.1336    0.6633  -12.8603 C   0  0  0  0  0  0
   24.5990    0.1233  -13.6455 H   0  0  0  0  0  0
   24.7703    1.6888  -12.8388 H   0  0  0  0  0  0
   26.6658    0.6223  -13.0377 C   0  0  0  0  0  0
   26.8844   -0.2814  -13.6113 H   0  0  0  0  0  0
   27.0692    1.4606  -13.6068 H   0  0  0  0  0  0
  1  2  1  0  0  0
  2  3  1  0  0  0
  3 35  1  0  0  0
  3  4  1  0  0  0
  3  5  1  0  0  0
  5 24  1  0  0  0
  5  6  2  0  0  0
  6  7  1  0  0  0
  6 32  1  0  0  0
  7  8  1  0  0  0
  7 20  2  0  0  0
  8  9  1  0  0  0
  9 18  1  0  0  0
  9 10  2  0  0  0
 10 11  1  0  0  0
 10 12  1  0  0  0
 12 13  1  0  0  0
 12 14  2  0  0  0
 14 15  1  0  0  0
 14 16  1  0  0  0
 16 17  1  0  0  0
 16 18  2  0  0  0
 18 19  1  0  0  0
 20 21  1  0  0  0
 20 22  1  0  0  0
 22 23  1  0  0  0
 22 24  2  0  0  0
 24 25  1  0  0  0
 25 26  2  0  0  0
 25 27  2  0  0  0
 25 28  1  0  0  0
 28 29  1  0  0  0
 28 30  1  0  0  0
 28 31  1  0  0  0
 32 33  1  0  0  0
 32 34  1  0  0  0
 32 35  1  0  0  0
 35 36  1  0  0  0
 35 37  1  0  0  0
M  END
> <s_m_source_file>
ligprep_hif2a.smi

> <i_m_source_file_index>
38

> <i_lp_mmshare_version>
53161

> <i_f3d_flags>
0

> <s_epik_input>
RltDSDJdUyg9TykoPU8pYzFbY0hdW2NIXWMoYyhjMTIpW0NIMl1bQ0gyXVtDQEhdMltPSF0pT2MzW2NIXWMoRilbY0hdYyhDbClbY0hdMw==

> <s_epik_cmdline>
J2VwaWtfcHl0aG9uJywgJy1waHQnLCAnMC4wJywgJy1waCcsICc3LjQnLCAnLXRuJywgJzgnLCAnLW1hJywgJzUwMCcsICctaW1hZScsICc8aW5maWxlLm1hZT4nLCAnLW9tYWUnLCAnPG91dGZpbGUubWFlPic=

> <r_lp_tautomer_probability>
1

> <r_epik_Ionization_Penalty>
  0.0000

> <r_epik_Ionization_Penalty_Charging>
  0.0000

> <r_epik_Ionization_Penalty_Neutral>
  0.0000

> <r_epik_State_Penalty>
 -0.0000

> <r_epik_Charging_Adjusted_Penalty>
0

> <i_epik_Tot_Q>
0

> <i_epik_Tot_abs_Q>
0

> <s_lp_Force_Field>
S-OPLS

> <r_lp_Energy>
26.565

> <b_lp_Chiralities_Consistent>
1

> <s_lp_Variant>
lig_61-1

> <s_i_glide_gridfile>
glide-grid_HIF2a-5TBM

> <i_i_glide_lignum>
38

> <i_i_glide_rotatable_bonds>
5

> <r_i_docking_score>
-10.6424594173658

> <r_i_glide_ligand_efficiency>
-0.443435809056908

> <r_i_glide_ligand_efficiency_sa>
-1.27909020878748

> <r_i_glide_ligand_efficiency_ln>
-2.54722888921695

> <r_i_glide_gscore>
-10.6424594173658

> <r_i_glide_lipo>
-5.08843102054111

> <r_i_glide_hbond>
0

> <r_i_glide_metal>
-0

> <r_i_glide_rewards>
-2.61041970023691

> <r_i_glide_evdw>
-52.909008026123

> <r_i_glide_ecoul>
-6.57716941833496

> <r_i_glide_erotb>
0.688417117468606

> <r_i_glide_esite>
0

> <r_i_glide_emodel>
-95.9976391454206

> <r_i_glide_energy>
-59.486177444458

> <r_i_glide_einternal>
0.406987130641937

> <i_i_glide_confnum>
7

> <i_i_glide_posenum>
7

> <r_i_glide_eff_state_penalty>
-0

> <r_i_glide_rmsd>
0.0773425484375629

> <s_glide_core_constrain_type>
snapped_core_restrain

$$$$
lig_42
                    3D
 Schrodinger Suite 2022-3.
 34 35  0  0  1  0            999 V2000
   28.8550    1.7545  -11.4168 H   0  0  0  0  0  0
   28.2631    1.2852  -10.8256 O   0  0  0  0  0  0
   27.5334    0.3171  -11.5415 C   0  0  0  0  0  0
   28.1137   -0.5857  -11.7525 H   0  0  0  0  0  0
   27.3568    0.7710  -12.5109 H   0  0  0  0  0  0
   26.2181   -0.0908  -10.8622 C   0  0  0  0  0  0
   24.9920    0.0841  -11.5457 C   0  0  0  0  0  0
   24.9295    0.7933  -13.1284 Cl  0  0  0  0  0  0
   23.7726   -0.3114  -10.9623 C   0  0  0  0  0  0
   22.6381   -0.1639  -11.7252 O   0  0  0  0  0  0
   21.4101   -0.4669  -11.2105 C   0  0  0  0  0  0
   20.8287   -1.7254  -11.4482 C   0  0  0  0  0  0
   21.3647   -2.4712  -12.0218 H   0  0  0  0  0  0
   19.5543   -2.0097  -10.9329 C   0  0  0  0  0  0
   18.9869   -3.2195  -11.1533 F   0  0  0  0  0  0
   18.8571   -1.0397  -10.1875 C   0  0  0  0  0  0
   17.8833   -1.2764   -9.7885 H   0  0  0  0  0  0
   19.4314    0.2333   -9.9792 C   0  0  0  0  0  0
   18.7279    1.2666   -9.2627 C   0  0  0  0  0  0
   18.1647    2.1020   -8.6800 N   0  0  0  0  0  0
   20.7134    0.5098  -10.4761 C   0  0  0  0  0  0
   21.1678    1.4754  -10.2882 H   0  0  0  0  0  0
   23.7531   -0.8252   -9.6363 C   0  0  0  0  0  0
   22.8300   -1.1113   -9.1493 H   0  0  0  0  0  0
   24.9537   -0.9919   -8.9403 C   0  0  0  0  0  0
   24.9365   -1.3993   -7.9271 H   0  0  0  0  0  0
   26.1796   -0.6683   -9.5538 C   0  0  0  0  0  0
   27.6751   -0.9418   -8.5883 S   0  0  0  0  0  0
   27.3488   -1.8913   -7.5157 O   0  0  0  0  0  0
   28.7849   -1.2792   -9.4812 O   0  0  0  0  0  0
   27.9804    0.7129   -7.8070 C   0  0  0  0  0  0
   29.0450    0.9490   -7.8783 H   0  0  0  0  0  0
   27.2348    1.6524   -8.3852 F   0  0  0  0  0  0
   27.6214    0.6683   -6.5279 F   0  0  0  0  0  0
  1  2  1  0  0  0
  2  3  1  0  0  0
  3  4  1  0  0  0
  3  5  1  0  0  0
  3  6  1  0  0  0
  6 27  1  0  0  0
  6  7  2  0  0  0
  7  8  1  0  0  0
  7  9  1  0  0  0
  9 10  1  0  0  0
  9 23  2  0  0  0
 10 11  1  0  0  0
 11 21  1  0  0  0
 11 12  2  0  0  0
 12 13  1  0  0  0
 12 14  1  0  0  0
 14 15  1  0  0  0
 14 16  2  0  0  0
 16 17  1  0  0  0
 16 18  1  0  0  0
 18 19  1  0  0  0
 18 21  2  0  0  0
 19 20  3  0  0  0
 21 22  1  0  0  0
 23 24  1  0  0  0
 23 25  1  0  0  0
 25 26  1  0  0  0
 25 27  2  0  0  0
 27 28  1  0  0  0
 28 29  2  0  0  0
 28 30  2  0  0  0
 28 31  1  0  0  0
 31 32  1  0  0  0
 31 33  1  0  0  0
 31 34  1  0  0  0
M  END
> <s_m_source_file>
ligprep_hif2a.smi

> <i_m_source_file_index>
33

> <i_lp_mmshare_version>
53161

> <i_f3d_flags>
0

> <s_epik_input>
RltDSF0oRilTKD1PKSg9TyljMVtjSF1bY0hdYyhjKENsKWMxW0NIMl1bT0hdKU9jMltjSF1jKEYpW2NIXWMoQyNOKVtjSF0y

> <s_epik_cmdline>
J2VwaWtfcHl0aG9uJywgJy1waHQnLCAnMC4wJywgJy1waCcsICc3LjQnLCAnLXRuJywgJzgnLCAnLW1hJywgJzUwMCcsICctaW1hZScsICc8aW5maWxlLm1hZT4nLCAnLW9tYWUnLCAnPG91dGZpbGUubWFlPic=

> <r_lp_tautomer_probability>
1

> <r_epik_Ionization_Penalty>
  0.0000

> <r_epik_Ionization_Penalty_Charging>
  0.0000

> <r_epik_Ionization_Penalty_Neutral>
  0.0000

> <r_epik_State_Penalty>
 -0.0000

> <r_epik_Charging_Adjusted_Penalty>
0

> <i_epik_Tot_Q>
0

> <i_epik_Tot_abs_Q>
0

> <s_lp_Force_Field>
S-OPLS

> <r_lp_Energy>
30.5898

> <b_lp_Chiralities_Consistent>
1

> <s_lp_Variant>
lig_42-1

> <s_i_glide_gridfile>
glide-grid_HIF2a-5TBM

> <i_i_glide_lignum>
33

> <i_i_glide_rotatable_bonds>
6

> <r_i_docking_score>
-10.6398263947223

> <r_i_glide_ligand_efficiency>
-0.425593055788894

> <r_i_glide_ligand_efficiency_sa>
-1.24444164305171

> <r_i_glide_ligand_efficiency_ln>
-2.52195770541664

> <r_i_glide_gscore>
-10.6398263947223

> <r_i_glide_lipo>
-4.35071246056908

> <r_i_glide_hbond>
0

> <r_i_glide_metal>
-0

> <r_i_glide_rewards>
-3.36532908757917

> <r_i_glide_evdw>
-52.0939254760742

> <r_i_glide_ecoul>
-6.36652755737305

> <r_i_glide_erotb>
0.635890560835578

> <r_i_glide_esite>
0

> <r_i_glide_emodel>
-94.0106273433832

> <r_i_glide_energy>
-58.4604530334473

> <r_i_glide_einternal>
2.96619319915771

> <i_i_glide_confnum>
4

> <i_i_glide_posenum>
4

> <r_i_glide_eff_state_penalty>
-0

> <r_i_glide_rmsd>
0.0679534648285251

> <s_glide_core_constrain_type>
snapped_core_restrain

$$$$
lig_251
                    3D
 Schrodinger Suite 2022-3.
 39 41  0  0  1  0            999 V2000
   28.2714    2.0739  -11.7654 H   0  0  0  0  0  0
   27.6223    1.6885  -11.1856 O   0  0  0  0  0  0
   27.2576    0.4241  -11.6784 C   0  0  1  0  0  0
   28.1258   -0.2376  -11.7147 H   0  0  0  0  0  0
   26.1353   -0.1200  -10.8440 C   0  0  0  0  0  0
   24.9170    0.0665  -11.5020 C   0  0  0  0  0  0
   23.6960   -0.3130  -10.9244 C   0  0  0  0  0  0
   22.5570   -0.1287  -11.6687 O   0  0  0  0  0  0
   21.3393   -0.4590  -11.1409 C   0  0  0  0  0  0
   20.8035   -1.7407  -11.3648 C   0  0  0  0  0  0
   21.3480   -2.4723  -11.9392 H   0  0  0  0  0  0
   19.5376   -2.0647  -10.8402 C   0  0  0  0  0  0
   18.9992   -3.2782  -11.0752 F   0  0  0  0  0  0
   18.8208   -1.1159  -10.0854 C   0  0  0  0  0  0
   17.8613   -1.3807   -9.6633 H   0  0  0  0  0  0
   19.3472    0.1765   -9.8916 C   0  0  0  0  0  0
   18.6470    1.1042   -9.1982 F   0  0  0  0  0  0
   20.6080    0.5007  -10.4203 C   0  0  0  0  0  0
   21.0068    1.4937  -10.2759 H   0  0  0  0  0  0
   23.7316   -0.8754   -9.6205 C   0  0  0  0  0  0
   22.8217   -1.1924   -9.1281 H   0  0  0  0  0  0
   24.9629   -1.0670   -8.9470 C   0  0  0  0  0  0
   24.9729   -1.5071   -7.9581 H   0  0  0  0  0  0
   26.1851   -0.6973   -9.5571 C   0  0  0  0  0  0
   27.7403   -1.0152   -8.6981 S   0  0  0  0  0  0
   28.7715   -1.3546   -9.6655 O   0  0  0  0  0  0
   27.4925   -1.9182   -7.5663 O   0  0  0  0  0  0
   28.2265    0.5030   -8.0701 N   0  0  2  0  0  0
   29.2266    0.5247   -7.8381 H   0  0  0  0  0  0
   27.3901    1.0736   -7.0417 C   0  0  0  0  0  0
   27.3916    2.1666   -7.0760 H   0  0  0  0  0  0
   27.6211    0.6852   -6.0423 H   0  0  0  0  0  0
   26.4211    0.7065   -7.3033 H   0  0  0  0  0  0
   25.0993    0.6622  -12.8700 C   0  0  0  0  0  0
   24.5348    0.1285  -13.6334 H   0  0  0  0  0  0
   24.7706    1.7020  -12.8488 H   0  0  0  0  0  0
   26.6266    0.5687  -13.0858 C   0  0  0  0  0  0
   27.1467    1.5639  -13.8007 F   0  0  0  0  0  0
   26.8541   -0.5693  -13.7439 F   0  0  0  0  0  0
  1  2  1  0  0  0
  2  3  1  0  0  0
  3 37  1  0  0  0
  3  4  1  0  0  0
  3  5  1  0  0  0
  5 24  1  0  0  0
  5  6  2  0  0  0
  6  7  1  0  0  0
  6 34  1  0  0  0
  7  8  1  0  0  0
  7 20  2  0  0  0
  8  9  1  0  0  0
  9 18  1  0  0  0
  9 10  2  0  0  0
 10 11  1  0  0  0
 10 12  1  0  0  0
 12 13  1  0  0  0
 12 14  2  0  0  0
 14 15  1  0  0  0
 14 16  1  0  0  0
 16 17  1  0  0  0
 16 18  2  0  0  0
 18 19  1  0  0  0
 20 21  1  0  0  0
 20 22  1  0  0  0
 22 23  1  0  0  0
 22 24  2  0  0  0
 24 25  1  0  0  0
 25 26  2  0  0  0
 25 27  2  0  0  0
 25 28  1  0  0  0
 28 29  1  0  0  0
 28 30  1  0  0  0
 30 31  1  0  0  0
 30 32  1  0  0  0
 30 33  1  0  0  0
 34 35  1  0  0  0
 34 36  1  0  0  0
 34 37  1  0  0  0
 37 38  1  0  0  0
 37 39  1  0  0  0
M  END
> <s_m_source_file>
ligprep_hif2a.smi

> <i_m_source_file_index>
20

> <i_lp_mmshare_version>
53161

> <i_f3d_flags>
0

> <s_epik_input>
W0NIM11bTkhdUyg9TykoPU8pYzFbY0hdW2NIXWMoYyhjMTIpW0NIMl1DKEYpKEYpW0NASF0yW09IXSlPYzNbY0hdYyhGKVtjSF1jKEYpW2NIXTM=

> <s_epik_cmdline>
J2VwaWtfcHl0aG9uJywgJy1waHQnLCAnMC4wJywgJy1waCcsICc3LjQnLCAnLXRuJywgJzgnLCAnLW1hJywgJzUwMCcsICctaW1hZScsICc8aW5maWxlLm1hZT4nLCAnLW9tYWUnLCAnPG91dGZpbGUubWFlPic=

> <r_lp_tautomer_probability>
1

> <r_epik_Ionization_Penalty>
  0.0016

> <r_epik_Ionization_Penalty_Charging>
  0.0000

> <r_epik_Ionization_Penalty_Neutral>
  0.0016

> <r_epik_State_Penalty>
 -0.0000

> <r_epik_Charging_Adjusted_Penalty>
0

> <i_epik_Tot_Q>
0

> <i_epik_Tot_abs_Q>
0

> <s_lp_Force_Field>
S-OPLS

> <r_lp_Energy>
24.7456

> <b_lp_Chiralities_Consistent>
1

> <s_lp_Variant>
lig_251-1

> <s_i_glide_gridfile>
glide-grid_HIF2a-5TBM

> <i_i_glide_lignum>
20

> <i_i_glide_rotatable_bonds>
5

> <r_i_docking_score>
-10.504727372379

> <r_i_glide_ligand_efficiency>
-0.40402797586073

> <r_i_glide_ligand_efficiency_sa>
-1.19693128871409

> <r_i_glide_ligand_efficiency_ln>
-2.46700075458129

> <r_i_glide_gscore>
-10.504727372379

> <r_i_glide_lipo>
-4.60666400818344

> <r_i_glide_hbond>
-0.32

> <r_i_glide_metal>
-0

> <r_i_glide_rewards>
-3.09490567306238

> <r_i_glide_evdw>
-46.9284896850586

> <r_i_glide_ecoul>
-5.15884351730347

> <r_i_glide_erotb>
0.637093320715297

> <r_i_glide_esite>
0

> <r_i_glide_emodel>
-50.8696491188534

> <r_i_glide_energy>
-52.0873332023621

> <r_i_glide_einternal>
3.58136010169983

> <i_i_glide_confnum>
5

> <i_i_glide_posenum>
17

> <r_i_glide_eff_state_penalty>
-0

> <r_i_glide_rmsd>
0.0909133172690449

> <s_glide_core_constrain_type>
snapped_core_restrain

$$$$
lig_54
                    3D
 Schrodinger Suite 2022-3.
 36 37  0  0  1  0            999 V2000
   28.6598    1.8305  -11.5433 H   0  0  0  0  0  0
   28.0209    1.4222  -10.9684 O   0  0  0  0  0  0
   27.4781    0.2919  -11.6009 C   0  0  0  0  0  0
   28.1913   -0.5260  -11.6470 H   0  0  0  0  0  0
   27.3558    0.5743  -12.6398 H   0  0  0  0  0  0
   26.1818   -0.1442  -10.9286 C   0  0  0  0  0  0
   24.9459   -0.0012  -11.6189 C   0  0  0  0  0  0
   24.9061    0.4856  -13.0646 C   0  0  0  0  0  0
   23.9016    0.4896  -13.4758 H   0  0  0  0  0  0
   25.6179   -0.3034  -13.8723 F   0  0  0  0  0  0
   25.3381    1.7404  -13.1534 F   0  0  0  0  0  0
   23.7252   -0.3115  -10.9728 C   0  0  0  0  0  0
   22.5613   -0.1343  -11.6840 O   0  0  0  0  0  0
   21.3493   -0.4609  -11.1425 C   0  0  0  0  0  0
   20.8111   -1.7435  -11.3570 C   0  0  0  0  0  0
   21.3594   -2.4804  -11.9276 H   0  0  0  0  0  0
   19.5448   -2.0612  -10.8390 C   0  0  0  0  0  0
   19.0025   -3.2739  -11.0761 F   0  0  0  0  0  0
   18.8229   -1.1044  -10.1026 C   0  0  0  0  0  0
   17.8527   -1.3646   -9.7078 H   0  0  0  0  0  0
   19.3435    0.1882   -9.9090 C   0  0  0  0  0  0
   18.4215    1.3905   -9.0758 Cl  0  0  0  0  0  0
   20.6129    0.5049  -10.4242 C   0  0  0  0  0  0
   21.0145    1.4967  -10.2771 H   0  0  0  0  0  0
   23.7348   -0.7540   -9.6309 C   0  0  0  0  0  0
   22.8189   -0.9872   -9.1080 H   0  0  0  0  0  0
   24.9520   -0.9209   -8.9536 C   0  0  0  0  0  0
   24.9407   -1.2742   -7.9336 H   0  0  0  0  0  0
   26.1737   -0.6502   -9.5975 C   0  0  0  0  0  0
   27.6618   -0.9321   -8.6112 S   0  0  0  0  0  0
   27.3323   -1.8968   -7.5516 O   0  0  0  0  0  0
   28.7925   -1.2502   -9.4867 O   0  0  0  0  0  0
   28.0108    0.6791   -7.8034 C   0  0  0  0  0  0
   28.9671    0.5898   -7.3029 H   0  0  0  0  0  0
   28.0687    1.4793   -8.5348 H   0  0  0  0  0  0
   27.2233    0.9032   -7.0862 H   0  0  0  0  0  0
  1  2  1  0  0  0
  2  3  1  0  0  0
  3  4  1  0  0  0
  3  5  1  0  0  0
  3  6  1  0  0  0
  6 29  1  0  0  0
  6  7  2  0  0  0
  7  8  1  0  0  0
  7 12  1  0  0  0
  8  9  1  0  0  0
  8 10  1  0  0  0
  8 11  1  0  0  0
 12 13  1  0  0  0
 12 25  2  0  0  0
 13 14  1  0  0  0
 14 23  1  0  0  0
 14 15  2  0  0  0
 15 16  1  0  0  0
 15 17  1  0  0  0
 17 18  1  0  0  0
 17 19  2  0  0  0
 19 20  1  0  0  0
 19 21  1  0  0  0
 21 22  1  0  0  0
 21 23  2  0  0  0
 23 24  1  0  0  0
 25 26  1  0  0  0
 25 27  1  0  0  0
 27 28  1  0  0  0
 27 29  2  0  0  0
 29 30  1  0  0  0
 30 31  2  0  0  0
 30 32  2  0  0  0
 30 33  1  0  0  0
 33 34  1  0  0  0
 33 35  1  0  0  0
 33 36  1  0  0  0
M  END
> <s_m_source_file>
ligprep_hif2a.smi

> <i_m_source_file_index>
36

> <i_lp_mmshare_version>
53161

> <i_f3d_flags>
0

> <s_epik_input>
Tz1TKD1PKShbQ0gzXSljMVtjSF1bY0hdYyhjKFtDSF0oRilGKWMxW0NIMl1bT0hdKU9jMltjSF1jKEYpW2NIXWMoQ2wpW2NIXTI=

> <s_epik_cmdline>
J2VwaWtfcHl0aG9uJywgJy1waHQnLCAnMC4wJywgJy1waCcsICc3LjQnLCAnLXRuJywgJzgnLCAnLW1hJywgJzUwMCcsICctaW1hZScsICc8aW5maWxlLm1hZT4nLCAnLW9tYWUnLCAnPG91dGZpbGUubWFlPic=

> <r_lp_tautomer_probability>
1

> <r_epik_Ionization_Penalty>
  0.0000

> <r_epik_Ionization_Penalty_Charging>
  0.0000

> <r_epik_Ionization_Penalty_Neutral>
  0.0000

> <r_epik_State_Penalty>
 -0.0000

> <r_epik_Charging_Adjusted_Penalty>
0

> <i_epik_Tot_Q>
0

> <i_epik_Tot_abs_Q>
0

> <s_lp_Force_Field>
S-OPLS

> <r_lp_Energy>
23.898

> <b_lp_Chiralities_Consistent>
1

> <s_lp_Variant>
lig_54-1

> <s_i_glide_gridfile>
glide-grid_HIF2a-5TBM

> <i_i_glide_lignum>
36

> <i_i_glide_rotatable_bonds>
6

> <r_i_docking_score>
-10.3813144196857

> <r_i_glide_ligand_efficiency>
-0.432554767486905

> <r_i_glide_ligand_efficiency_sa>
-1.24770385376306

> <r_i_glide_ligand_efficiency_ln>
-2.48472490810899

> <r_i_glide_gscore>
-10.3813144196857

> <r_i_glide_lipo>
-4.64780174229564

> <r_i_glide_hbond>
0

> <r_i_glide_metal>
-0

> <r_i_glide_rewards>
-2.96880495931459

> <r_i_glide_evdw>
-49.8280601501465

> <r_i_glide_ecoul>
-6.28321695327759

> <r_i_glide_erotb>
0.669177832423469

> <r_i_glide_esite>
0

> <r_i_glide_emodel>
-89.9030774145418

> <r_i_glide_energy>
-56.1112771034241

> <r_i_glide_einternal>
1.48650968074799

> <i_i_glide_confnum>
4

> <i_i_glide_posenum>
18

> <r_i_glide_eff_state_penalty>
-0

> <r_i_glide_rmsd>
0.0862571022311377

> <s_glide_core_constrain_type>
snapped_core_restrain

$$$$
lig_41
                    3D
 Schrodinger Suite 2022-3.
 33 34  0  0  1  0            999 V2000
   28.6514    1.8486  -11.5460 H   0  0  0  0  0  0
   28.0210    1.4351  -10.9628 O   0  0  0  0  0  0
   27.4421    0.3309  -11.6041 C   0  0  0  0  0  0
   27.2905    0.6077  -12.6442 H   0  0  0  0  0  0
   28.1421   -0.4982  -11.6616 H   0  0  0  0  0  0
   26.1590   -0.1027  -10.9085 C   0  0  0  0  0  0
   24.9141    0.0955  -11.5595 C   0  0  0  0  0  0
   24.8215    0.8884  -13.0957 Cl  0  0  0  0  0  0
   23.7056   -0.3106  -10.9572 C   0  0  0  0  0  0
   22.5505   -0.1180  -11.6783 O   0  0  0  0  0  0
   21.3365   -0.4441  -11.1424 C   0  0  0  0  0  0
   20.7929   -1.7240  -11.3608 C   0  0  0  0  0  0
   21.3386   -2.4590  -11.9351 H   0  0  0  0  0  0
   19.5268   -2.0391  -10.8379 C   0  0  0  0  0  0
   18.9807   -3.2517  -11.0726 F   0  0  0  0  0  0
   18.8115   -1.0820  -10.0964 C   0  0  0  0  0  0
   17.8418   -1.3386   -9.7002 H   0  0  0  0  0  0
   19.3370    0.2090   -9.9042 C   0  0  0  0  0  0
   18.4213    1.4179   -9.0758 Cl  0  0  0  0  0  0
   20.6066    0.5202  -10.4205 C   0  0  0  0  0  0
   21.0127    1.5103  -10.2757 H   0  0  0  0  0  0
   23.7280   -0.8638   -9.6579 C   0  0  0  0  0  0
   22.8195   -1.1690   -9.1588 H   0  0  0  0  0  0
   24.9495   -1.0243   -8.9845 C   0  0  0  0  0  0
   24.9439   -1.4390   -7.9872 H   0  0  0  0  0  0
   26.1664   -0.6735   -9.6037 C   0  0  0  0  0  0
   27.6635   -0.9252   -8.6162 S   0  0  0  0  0  0
   27.3418   -1.9033   -7.5663 O   0  0  0  0  0  0
   28.7972   -1.2365   -9.4913 O   0  0  0  0  0  0
   28.0023    0.6989   -7.7951 C   0  0  0  0  0  0
   29.0663    0.9185   -7.8589 H   0  0  0  0  0  0
   27.3042    1.6731   -8.3731 F   0  0  0  0  0  0
   27.6211    0.6107   -6.5199 F   0  0  0  0  0  0
  1  2  1  0  0  0
  2  3  1  0  0  0
  3  4  1  0  0  0
  3  5  1  0  0  0
  3  6  1  0  0  0
  6 26  1  0  0  0
  6  7  2  0  0  0
  7  8  1  0  0  0
  7  9  1  0  0  0
  9 10  1  0  0  0
  9 22  2  0  0  0
 10 11  1  0  0  0
 11 20  1  0  0  0
 11 12  2  0  0  0
 12 13  1  0  0  0
 12 14  1  0  0  0
 14 15  1  0  0  0
 14 16  2  0  0  0
 16 17  1  0  0  0
 16 18  1  0  0  0
 18 19  1  0  0  0
 18 20  2  0  0  0
 20 21  1  0  0  0
 22 23  1  0  0  0
 22 24  1  0  0  0
 24 25  1  0  0  0
 24 26  2  0  0  0
 26 27  1  0  0  0
 27 28  2  0  0  0
 27 29  2  0  0  0
 27 30  1  0  0  0
 30 31  1  0  0  0
 30 32  1  0  0  0
 30 33  1  0  0  0
M  END
> <s_m_source_file>
ligprep_hif2a.smi

> <i_m_source_file_index>
32

> <i_lp_mmshare_version>
53161

> <i_f3d_flags>
0

> <s_epik_input>
RltDSF0oRilTKD1PKSg9TyljMVtjSF1bY0hdYyhjKENsKWMxW0NIMl1bT0hdKU9jMltjSF1jKEYpW2NIXWMoQ2wpW2NIXTI=

> <s_epik_cmdline>
J2VwaWtfcHl0aG9uJywgJy1waHQnLCAnMC4wJywgJy1waCcsICc3LjQnLCAnLXRuJywgJzgnLCAnLW1hJywgJzUwMCcsICctaW1hZScsICc8aW5maWxlLm1hZT4nLCAnLW9tYWUnLCAnPG91dGZpbGUubWFlPic=

> <r_lp_tautomer_probability>
1

> <r_epik_Ionization_Penalty>
  0.0000

> <r_epik_Ionization_Penalty_Charging>
  0.0000

> <r_epik_Ionization_Penalty_Neutral>
  0.0000

> <r_epik_State_Penalty>
 -0.0000

> <r_epik_Charging_Adjusted_Penalty>
0

> <i_epik_Tot_Q>
0

> <i_epik_Tot_abs_Q>
0

> <s_lp_Force_Field>
S-OPLS

> <r_lp_Energy>
27.3926

> <b_lp_Chiralities_Consistent>
1

> <s_lp_Variant>
lig_41-1

> <s_i_glide_gridfile>
glide-grid_HIF2a-5TBM

> <i_i_glide_lignum>
32

> <i_i_glide_rotatable_bonds>
6

> <r_i_docking_score>
-10.369812794962

> <r_i_glide_ligand_efficiency>
-0.432075533123417

> <r_i_glide_ligand_efficiency_sa>
-1.24632150265489

> <r_i_glide_ligand_efficiency_ln>
-2.48197204153744

> <r_i_glide_gscore>
-10.369812794962

> <r_i_glide_lipo>
-4.7087450712833

> <r_i_glide_hbond>
0

> <r_i_glide_metal>
-0

> <r_i_glide_rewards>
-2.7976598940601

> <r_i_glide_evdw>
-51.5422286987305

> <r_i_glide_ecoul>
-5.97028017044067

> <r_i_glide_erotb>
0.609245630884033

> <r_i_glide_esite>
0

> <r_i_glide_emodel>
-90.8615172373065

> <r_i_glide_energy>
-57.5125088691711

> <r_i_glide_einternal>
2.47725343704224

> <i_i_glide_confnum>
2

> <i_i_glide_posenum>
12

> <r_i_glide_eff_state_penalty>
-0

> <r_i_glide_rmsd>
0.0922914797540917

> <s_glide_core_constrain_type>
snapped_core_restrain

$$$$
lig_43
                    3D
 Schrodinger Suite 2022-3.
 34 35  0  0  1  0            999 V2000
   28.7024    1.7484  -11.5400 H   0  0  0  0  0  0
   28.1216    1.2887  -10.9401 O   0  0  0  0  0  0
   27.4459    0.2704  -11.6253 C   0  0  0  0  0  0
   28.0821   -0.6059  -11.7300 H   0  0  0  0  0  0
   27.2973    0.6167  -12.6443 H   0  0  0  0  0  0
   26.1504   -0.1149  -10.9249 C   0  0  0  0  0  0
   24.9090    0.0889  -11.5820 C   0  0  0  0  0  0
   24.8267    0.8755  -13.1220 Cl  0  0  0  0  0  0
   23.6982   -0.3253  -10.9893 C   0  0  0  0  0  0
   22.5483   -0.1951  -11.7347 O   0  0  0  0  0  0
   21.3334   -0.5012  -11.1863 C   0  0  0  0  0  0
   20.7861   -1.7902  -11.3379 C   0  0  0  0  0  0
   21.3314   -2.5519  -11.8757 H   0  0  0  0  0  0
   19.5319   -2.0893  -10.7707 C   0  0  0  0  0  0
   19.1191   -3.0817  -10.8717 H   0  0  0  0  0  0
   18.8208   -1.0938  -10.0721 C   0  0  0  0  0  0
   17.8635   -1.3370   -9.6371 H   0  0  0  0  0  0
   19.3584    0.2039   -9.9429 C   0  0  0  0  0  0
   18.6396    1.2536   -9.2417 C   0  0  0  0  0  0
   18.0732    2.0888   -8.6761 N   0  0  0  0  0  0
   20.6207    0.4891  -10.4874 C   0  0  0  0  0  0
   21.0469    1.4741  -10.3633 H   0  0  0  0  0  0
   23.7137   -0.8620   -9.6824 C   0  0  0  0  0  0
   22.8049   -1.1766   -9.1889 H   0  0  0  0  0  0
   24.9296   -1.0088   -8.9965 C   0  0  0  0  0  0
   24.9182   -1.4118   -7.9949 H   0  0  0  0  0  0
   26.1502   -0.6740   -9.6152 C   0  0  0  0  0  0
   27.6421   -0.9231   -8.6181 S   0  0  0  0  0  0
   27.3108   -1.8878   -7.5591 O   0  0  0  0  0  0
   28.7825   -1.2489   -9.4801 O   0  0  0  0  0  0
   27.9715    0.7138   -7.8173 C   0  0  0  0  0  0
   29.0302    0.9521   -7.9021 H   0  0  0  0  0  0
   27.2449    1.6712   -8.3890 F   0  0  0  0  0  0
   27.6218    0.6309   -6.5335 F   0  0  0  0  0  0
  1  2  1  0  0  0
  2  3  1  0  0  0
  3  4  1  0  0  0
  3  5  1  0  0  0
  3  6  1  0  0  0
  6 27  1  0  0  0
  6  7  2  0  0  0
  7  8  1  0  0  0
  7  9  1  0  0  0
  9 10  1  0  0  0
  9 23  2  0  0  0
 10 11  1  0  0  0
 11 21  1  0  0  0
 11 12  2  0  0  0
 12 13  1  0  0  0
 12 14  1  0  0  0
 14 15  1  0  0  0
 14 16  2  0  0  0
 16 17  1  0  0  0
 16 18  1  0  0  0
 18 19  1  0  0  0
 18 21  2  0  0  0
 19 20  3  0  0  0
 21 22  1  0  0  0
 23 24  1  0  0  0
 23 25  1  0  0  0
 25 26  1  0  0  0
 25 27  2  0  0  0
 27 28  1  0  0  0
 28 29  2  0  0  0
 28 30  2  0  0  0
 28 31  1  0  0  0
 31 32  1  0  0  0
 31 33  1  0  0  0
 31 34  1  0  0  0
M  END
> <s_m_source_file>
ligprep_hif2a.smi

> <i_m_source_file_index>
34

> <i_lp_mmshare_version>
53161

> <i_f3d_flags>
0

> <s_epik_input>
RltDSF0oRilTKD1PKSg9TyljMVtjSF1bY0hdYyhjKENsKWMxW0NIMl1bT0hdKU9jMltjSF1bY0hdW2NIXWMoQyNOKVtjSF0y

> <s_epik_cmdline>
J2VwaWtfcHl0aG9uJywgJy1waHQnLCAnMC4wJywgJy1waCcsICc3LjQnLCAnLXRuJywgJzgnLCAnLW1hJywgJzUwMCcsICctaW1hZScsICc8aW5maWxlLm1hZT4nLCAnLW9tYWUnLCAnPG91dGZpbGUubWFlPic=

> <r_lp_tautomer_probability>
1

> <r_epik_Ionization_Penalty>
  0.0000

> <r_epik_Ionization_Penalty_Charging>
  0.0000

> <r_epik_Ionization_Penalty_Neutral>
  0.0000

> <r_epik_State_Penalty>
 -0.0000

> <r_epik_Charging_Adjusted_Penalty>
0

> <i_epik_Tot_Q>
0

> <i_epik_Tot_abs_Q>
0

> <s_lp_Force_Field>
S-OPLS

> <r_lp_Energy>
32.4823

> <b_lp_Chiralities_Consistent>
1

> <s_lp_Variant>
lig_43-1

> <s_i_glide_gridfile>
glide-grid_HIF2a-5TBM

> <i_i_glide_lignum>
34

> <i_i_glide_rotatable_bonds>
6

> <r_i_docking_score>
-10.2073582163013

> <r_i_glide_ligand_efficiency>
-0.425306592345887

> <r_i_glide_ligand_efficiency_sa>
-1.22679649881992

> <r_i_glide_ligand_efficiency_ln>
-2.44308920630906

> <r_i_glide_gscore>
-10.2073582163013

> <r_i_glide_lipo>
-4.389289394559

> <r_i_glide_hbond>
0

> <r_i_glide_metal>
-0

> <r_i_glide_rewards>
-3.02280628296451

> <r_i_glide_evdw>
-51.9308204650879

> <r_i_glide_ecoul>
-5.93686246871948

> <r_i_glide_erotb>
0.691807854784548

> <r_i_glide_esite>
0

> <r_i_glide_emodel>
-91.6157666312544

> <r_i_glide_energy>
-57.8676829338074

> <r_i_glide_einternal>
2.92298364639282

> <i_i_glide_confnum>
4

> <i_i_glide_posenum>
11

> <r_i_glide_eff_state_penalty>
-0

> <r_i_glide_rmsd>
0.0951797421699015

> <s_glide_core_constrain_type>
snapped_core_restrain

$$$$
lig_84
                    3D
 Schrodinger Suite 2022-3.
 33 35  0  0  1  0            999 V2000
   17.8604   -1.3718   -9.7791 H   0  0  0  0  0  0
   18.8382   -1.1089  -10.1508 C   0  0  0  0  0  0
   19.5949   -2.0651  -10.8529 C   0  0  0  0  0  0
   19.0768   -3.2922  -11.0765 F   0  0  0  0  0  0
   20.8766   -1.7414  -11.3387 C   0  0  0  0  0  0
   21.4485   -2.4763  -11.8855 H   0  0  0  0  0  0
   21.4034   -0.4539  -11.1198 C   0  0  0  0  0  0
   22.6296   -0.1080  -11.6229 O   0  0  0  0  0  0
   23.7697   -0.3113  -10.8801 C   0  0  0  0  0  0
   23.7717   -0.8659   -9.5701 C   0  0  0  0  0  0
   22.8524   -1.1499   -9.0755 H   0  0  0  0  0  0
   24.9862   -1.0669   -8.8726 C   0  0  0  0  0  0
   24.9686   -1.4858   -7.8786 H   0  0  0  0  0  0
   26.2183   -0.7375   -9.4754 C   0  0  0  0  0  0
   27.7399   -0.9425   -8.5712 S   0  0  0  0  0  0
   28.8208   -1.2239   -9.5192 O   0  0  0  0  0  0
   27.5010   -1.8911   -7.4759 O   0  0  0  0  0  0
   28.0508    0.7268   -7.8750 C   0  0  0  0  0  0
   29.1247    0.8887   -7.8756 H   0  0  0  0  0  0
   27.4762    1.6658   -8.6258 F   0  0  0  0  0  0
   27.5960    0.7825   -6.6253 F   0  0  0  0  0  0
   26.2056   -0.1590  -10.7543 C   0  0  0  0  0  0
   25.0177    0.0638  -11.4260 C   0  0  0  0  0  0
   25.3515    0.7222  -12.6995 C   0  0  0  0  0  0
   24.5709    1.1280  -13.5505 O   0  0  0  0  0  0
   26.7010    0.8359  -12.7578 O   0  0  0  0  0  0
   27.3480    0.3218  -11.5998 C   0  0  0  0  0  0
   28.0108   -0.5013  -11.8689 H   0  0  0  0  0  0
   27.9197    1.1019  -11.0955 H   0  0  0  0  0  0
   20.6390    0.5019  -10.4245 C   0  0  0  0  0  0
   21.0316    1.4964  -10.2766 H   0  0  0  0  0  0
   19.3559    0.1835   -9.9430 C   0  0  0  0  0  0
   18.4212    1.3869   -9.1286 Cl  0  0  0  0  0  0
  1  2  1  0  0  0
  2 32  1  0  0  0
  2  3  2  0  0  0
  3  4  1  0  0  0
  3  5  1  0  0  0
  5  6  1  0  0  0
  5  7  2  0  0  0
  7  8  1  0  0  0
  7 30  1  0  0  0
  8  9  1  0  0  0
  9 23  1  0  0  0
  9 10  2  0  0  0
 10 11  1  0  0  0
 10 12  1  0  0  0
 12 13  1  0  0  0
 12 14  2  0  0  0
 14 15  1  0  0  0
 14 22  1  0  0  0
 15 16  2  0  0  0
 15 17  2  0  0  0
 15 18  1  0  0  0
 18 19  1  0  0  0
 18 20  1  0  0  0
 18 21  1  0  0  0
 22 27  1  0  0  0
 22 23  2  0  0  0
 23 24  1  0  0  0
 24 25  2  0  0  0
 24 26  1  0  0  0
 26 27  1  0  0  0
 27 28  1  0  0  0
 27 29  1  0  0  0
 30 31  1  0  0  0
 30 32  2  0  0  0
 32 33  1  0  0  0
M  END
> <s_m_source_file>
ligprep_hif2a.smi

> <i_m_source_file_index>
42

> <i_lp_mmshare_version>
53161

> <i_f3d_flags>
0

> <s_epik_input>
RmMxW2NIXWMoQ2wpW2NIXWMoW2NIXTEpT2MoYyhjMjMpQyg9TylPW0NIMl0zKVtjSF1bY0hdYzJTKD1PKSg9TylbQ0hdKEYpRg==

> <s_epik_cmdline>
J2VwaWtfcHl0aG9uJywgJy1waHQnLCAnMC4wJywgJy1waCcsICc3LjQnLCAnLXRuJywgJzgnLCAnLW1hJywgJzUwMCcsICctaW1hZScsICc8aW5maWxlLm1hZT4nLCAnLW9tYWUnLCAnPG91dGZpbGUubWFlPic=

> <r_lp_tautomer_probability>
1

> <r_epik_Ionization_Penalty>
  0.0000

> <r_epik_Ionization_Penalty_Charging>
  0.0000

> <r_epik_Ionization_Penalty_Neutral>
  0.0000

> <r_epik_State_Penalty>
 -0.0000

> <r_epik_Charging_Adjusted_Penalty>
0

> <i_epik_Tot_Q>
0

> <i_epik_Tot_abs_Q>
0

> <s_epik_Chemistry_Notes>
This compound has an ester and may undergo hydrolysis at high or low pH.

> <s_lp_Force_Field>
S-OPLS

> <r_lp_Energy>
14.816

> <b_lp_Chiralities_Consistent>
1

> <s_lp_Variant>
lig_84-1

> <s_i_glide_gridfile>
glide-grid_HIF2a-5TBM

> <i_i_glide_lignum>
42

> <i_i_glide_rotatable_bonds>
4

> <r_i_docking_score>
-10.1894835904597

> <r_i_glide_ligand_efficiency>
-0.407579343618389

> <r_i_glide_ligand_efficiency_sa>
-1.19176922919061

> <r_i_glide_ligand_efficiency_ln>
-2.41521296512159

> <r_i_glide_gscore>
-10.1894835904597

> <r_i_glide_lipo>
-4.41253154493547

> <r_i_glide_hbond>
0

> <r_i_glide_metal>
-0

> <r_i_glide_rewards>
-3.20478488027181

> <r_i_glide_evdw>
-53.9086990356445

> <r_i_glide_ecoul>
-2.55436635017395

> <r_i_glide_erotb>
0.506422739055869

> <r_i_glide_esite>
0

> <r_i_glide_emodel>
-87.4462904588384

> <r_i_glide_energy>
-56.4630653858185

> <r_i_glide_einternal>
1.5931932926178

> <i_i_glide_confnum>
4

> <i_i_glide_posenum>
2

> <r_i_glide_eff_state_penalty>
-0

> <r_i_glide_rmsd>
0.0906067848970614

> <s_glide_core_constrain_type>
snapped_core_restrain

$$$$
lig_31
                    3D
 Schrodinger Suite 2022-3.
 34 35  0  0  1  0            999 V2000
   19.0905   -2.9802  -11.1448 H   0  0  0  0  0  0
   19.5444   -2.0160  -10.9679 C   0  0  0  0  0  0
   18.8520   -1.0296  -10.2386 C   0  0  0  0  0  0
   17.8688   -1.2507   -9.8530 H   0  0  0  0  0  0
   19.4468    0.2289  -10.0086 C   0  0  0  0  0  0
   18.7451    1.2650   -9.2744 C   0  0  0  0  0  0
   18.1918    2.0886   -8.6808 N   0  0  0  0  0  0
   20.7434    0.4882  -10.4849 C   0  0  0  0  0  0
   21.2109    1.4404  -10.2762 H   0  0  0  0  0  0
   21.4294   -0.4907  -11.2294 C   0  0  0  0  0  0
   22.6625   -0.2117  -11.7519 O   0  0  0  0  0  0
   23.7973   -0.3265  -10.9792 C   0  0  0  0  0  0
   23.7843   -0.9004   -9.6865 C   0  0  0  0  0  0
   22.8668   -1.2557   -9.2392 H   0  0  0  0  0  0
   24.9809   -1.0527   -8.9668 C   0  0  0  0  0  0
   24.9534   -1.5098   -7.9889 H   0  0  0  0  0  0
   26.2074   -0.6525   -9.5302 C   0  0  0  0  0  0
   27.6991   -0.9407   -8.5611 S   0  0  0  0  0  0
   27.3862   -1.9051   -7.4959 O   0  0  0  0  0  0
   28.7922   -1.2646   -9.4844 O   0  0  0  0  0  0
   28.0709    0.6914   -7.7784 C   0  0  0  0  0  0
   29.1498    0.8361   -7.7699 H   0  0  0  0  0  0
   27.5012    1.6833   -8.4610 F   0  0  0  0  0  0
   27.6211    0.6855   -6.5248 F   0  0  0  0  0  0
   26.2388   -0.0229  -10.8031 C   0  0  0  0  0  0
   27.5564    0.4854  -11.4067 C   0  0  0  0  0  0
   28.2630    0.8296  -10.6559 H   0  0  0  0  0  0
   28.0277   -0.3104  -11.9836 H   0  0  0  0  0  0
   27.4311    1.3458  -12.0634 H   0  0  0  0  0  0
   25.0226    0.1311  -11.5204 C   0  0  0  0  0  0
   25.0235    0.7723  -12.8287 C   0  0  0  0  0  0
   25.0374    1.2867  -13.8619 N   0  0  0  0  0  0
   20.8280   -1.7412  -11.4755 C   0  0  0  0  0  0
   21.3530   -2.4913  -12.0494 H   0  0  0  0  0  0
  1  2  1  0  0  0
  2 33  1  0  0  0
  2  3  2  0  0  0
  3  4  1  0  0  0
  3  5  1  0  0  0
  5  6  1  0  0  0
  5  8  2  0  0  0
  6  7  3  0  0  0
  8  9  1  0  0  0
  8 10  1  0  0  0
 10 11  1  0  0  0
 10 33  2  0  0  0
 11 12  1  0  0  0
 12 30  1  0  0  0
 12 13  2  0  0  0
 13 14  1  0  0  0
 13 15  1  0  0  0
 15 16  1  0  0  0
 15 17  2  0  0  0
 17 18  1  0  0  0
 17 25  1  0  0  0
 18 19  2  0  0  0
 18 20  2  0  0  0
 18 21  1  0  0  0
 21 22  1  0  0  0
 21 23  1  0  0  0
 21 24  1  0  0  0
 25 26  1  0  0  0
 25 30  2  0  0  0
 26 27  1  0  0  0
 26 28  1  0  0  0
 26 29  1  0  0  0
 30 31  1  0  0  0
 31 32  3  0  0  0
 33 34  1  0  0  0
M  END
> <s_m_source_file>
ligprep_hif2a.smi

> <i_m_source_file_index>
28

> <i_lp_mmshare_version>
53161

> <i_f3d_flags>
0

> <s_epik_input>
TiNDYzFbY0hdW2NIXVtjSF1jKFtjSF0xKU9jMltjSF1bY0hdYyhTKD1PKSg9TylbQ0hdKEYpRiljKFtDSDNdKWMyQyNO

> <s_epik_cmdline>
J2VwaWtfcHl0aG9uJywgJy1waHQnLCAnMC4wJywgJy1waCcsICc3LjQnLCAnLXRuJywgJzgnLCAnLW1hJywgJzUwMCcsICctaW1hZScsICc8aW5maWxlLm1hZT4nLCAnLW9tYWUnLCAnPG91dGZpbGUubWFlPic=

> <r_lp_tautomer_probability>
1

> <r_epik_Ionization_Penalty>
  0.0000

> <r_epik_Ionization_Penalty_Charging>
  0.0000

> <r_epik_Ionization_Penalty_Neutral>
  0.0000

> <r_epik_State_Penalty>
 -0.0000

> <r_epik_Charging_Adjusted_Penalty>
0

> <i_epik_Tot_Q>
0

> <i_epik_Tot_abs_Q>
0

> <s_lp_Force_Field>
S-OPLS

> <r_lp_Energy>
31.7682

> <b_lp_Chiralities_Consistent>
1

> <s_lp_Variant>
lig_31-1

> <s_i_glide_gridfile>
glide-grid_HIF2a-5TBM

> <i_i_glide_lignum>
28

> <i_i_glide_rotatable_bonds>
4

> <r_i_docking_score>
-10.0594685137117

> <r_i_glide_ligand_efficiency>
-0.419144521404655

> <r_i_glide_ligand_efficiency_sa>
-1.20902201050436

> <r_i_glide_ligand_efficiency_ln>
-2.40769241426312

> <r_i_glide_gscore>
-10.0594685137117

> <r_i_glide_lipo>
-4.04631181455463

> <r_i_glide_hbond>
0

> <r_i_glide_metal>
-0

> <r_i_glide_rewards>
-3.62045195865977

> <r_i_glide_evdw>
-50.8764572143555

> <r_i_glide_ecoul>
-3.17621374130249

> <r_i_glide_erotb>
0.627550181415824

> <r_i_glide_esite>
0

> <r_i_glide_emodel>
-83.6313526377662

> <r_i_glide_energy>
-54.052670955658

> <r_i_glide_einternal>
1.20274019241333

> <i_i_glide_confnum>
2

> <i_i_glide_posenum>
1

> <r_i_glide_eff_state_penalty>
-0

> <r_i_glide_rmsd>
0.0887992868961443

> <s_glide_core_constrain_type>
snapped_core_restrain

$$$$
lig_30
                    3D
 Schrodinger Suite 2022-3.
 31 32  0  0  1  0            999 V2000
   17.8566   -1.2579   -9.7951 H   0  0  0  0  0  0
   18.8287   -1.0326  -10.1942 C   0  0  0  0  0  0
   19.5185   -2.0189  -10.9220 C   0  0  0  0  0  0
   18.9509   -3.2287  -11.1235 F   0  0  0  0  0  0
   20.7970   -1.7483  -11.4517 C   0  0  0  0  0  0
   21.3163   -2.4983  -12.0390 H   0  0  0  0  0  0
   21.4013   -0.4974  -11.2124 C   0  0  0  0  0  0
   22.6313   -0.2234  -11.7371 O   0  0  0  0  0  0
   23.7620   -0.3413  -10.9621 C   0  0  0  0  0  0
   23.7547   -0.9083   -9.6625 C   0  0  0  0  0  0
   22.8390   -1.2620   -9.2039 H   0  0  0  0  0  0
   24.9618   -1.0677   -8.9581 C   0  0  0  0  0  0
   24.9500   -1.5097   -7.9713 H   0  0  0  0  0  0
   26.1874   -0.6810   -9.5404 C   0  0  0  0  0  0
   27.6950   -0.9275   -8.5829 S   0  0  0  0  0  0
   27.4064   -1.8486   -7.4761 O   0  0  0  0  0  0
   28.7976   -1.2582   -9.4886 O   0  0  0  0  0  0
   28.0242    0.7349   -7.8758 C   0  0  0  0  0  0
   29.0966    0.8908   -7.8781 H   0  0  0  0  0  0
   27.5769    0.7951   -6.6224 F   0  0  0  0  0  0
   27.4596    1.6887   -8.6170 F   0  0  0  0  0  0
   26.2027   -0.0588  -10.8114 C   0  0  0  0  0  0
   27.6721    0.5096  -11.5397 Cl  0  0  0  0  0  0
   24.9862    0.0960  -11.5152 C   0  0  0  0  0  0
   25.0167    0.7160  -12.8314 C   0  0  0  0  0  0
   25.0473    1.2055  -13.8751 N   0  0  0  0  0  0
   20.7188    0.4888  -10.4727 C   0  0  0  0  0  0
   21.1881    1.4483  -10.2769 H   0  0  0  0  0  0
   19.4231    0.2304   -9.9870 C   0  0  0  0  0  0
   18.7140    1.2676   -9.2617 C   0  0  0  0  0  0
   18.1522    2.0886   -8.6752 N   0  0  0  0  0  0
  1  2  1  0  0  0
  2 29  1  0  0  0
  2  3  2  0  0  0
  3  4  1  0  0  0
  3  5  1  0  0  0
  5  6  1  0  0  0
  5  7  2  0  0  0
  7  8  1  0  0  0
  7 27  1  0  0  0
  8  9  1  0  0  0
  9 24  1  0  0  0
  9 10  2  0  0  0
 10 11  1  0  0  0
 10 12  1  0  0  0
 12 13  1  0  0  0
 12 14  2  0  0  0
 14 15  1  0  0  0
 14 22  1  0  0  0
 15 16  2  0  0  0
 15 17  2  0  0  0
 15 18  1  0  0  0
 18 19  1  0  0  0
 18 20  1  0  0  0
 18 21  1  0  0  0
 22 23  1  0  0  0
 22 24  2  0  0  0
 24 25  1  0  0  0
 25 26  3  0  0  0
 27 28  1  0  0  0
 27 29  2  0  0  0
 29 30  1  0  0  0
 30 31  3  0  0  0
M  END
> <s_m_source_file>
ligprep_hif2a.smi

> <i_m_source_file_index>
27

> <i_lp_mmshare_version>
53161

> <i_f3d_flags>
0

> <s_epik_input>
RmMxW2NIXWMoQyNOKVtjSF1jKFtjSF0xKU9jMltjSF1bY0hdYyhTKD1PKSg9TylbQ0hdKEYpRiljKENsKWMyQyNO

> <s_epik_cmdline>
J2VwaWtfcHl0aG9uJywgJy1waHQnLCAnMC4wJywgJy1waCcsICc3LjQnLCAnLXRuJywgJzgnLCAnLW1hJywgJzUwMCcsICctaW1hZScsICc8aW5maWxlLm1hZT4nLCAnLW9tYWUnLCAnPG91dGZpbGUubWFlPic=

> <r_lp_tautomer_probability>
1

> <r_epik_Ionization_Penalty>
  0.0000

> <r_epik_Ionization_Penalty_Charging>
  0.0000

> <r_epik_Ionization_Penalty_Neutral>
  0.0000

> <r_epik_State_Penalty>
 -0.0000

> <r_epik_Charging_Adjusted_Penalty>
0

> <i_epik_Tot_Q>
0

> <i_epik_Tot_abs_Q>
0

> <s_lp_Force_Field>
S-OPLS

> <r_lp_Energy>
27.9574

> <b_lp_Chiralities_Consistent>
1

> <s_lp_Variant>
lig_30-1

> <s_i_glide_gridfile>
glide-grid_HIF2a-5TBM

> <i_i_glide_lignum>
27

> <i_i_glide_rotatable_bonds>
4

> <r_i_docking_score>
-9.98440103542361

> <r_i_glide_ligand_efficiency>
-0.399376041416945

> <r_i_glide_ligand_efficiency_sa>
-1.1677826280674

> <r_i_glide_ligand_efficiency_ln>
-2.3666022537498

> <r_i_glide_gscore>
-9.98440103542361

> <r_i_glide_lipo>
-3.98662815681076

> <r_i_glide_hbond>
0

> <r_i_glide_metal>
-0

> <r_i_glide_rewards>
-3.42355086971324

> <r_i_glide_evdw>
-52.7903518676758

> <r_i_glide_ecoul>
-3.03551125526428

> <r_i_glide_erotb>
0.520622272773826

> <r_i_glide_esite>
0

> <r_i_glide_emodel>
-86.5435535953893

> <r_i_glide_energy>
-55.8258631229401

> <r_i_glide_einternal>
1.64607119560242

> <i_i_glide_confnum>
2

> <i_i_glide_posenum>
1

> <r_i_glide_eff_state_penalty>
-0

> <r_i_glide_rmsd>
0.0744840987673936

> <s_glide_core_constrain_type>
snapped_core_restrain

$$$$
lig_124
                    3D
 Schrodinger Suite 2022-3.
 32 33  0  0  1  0            999 V2000
   17.8410   -1.3500   -9.7908 H   0  0  0  0  0  0
   18.8169   -1.0909  -10.1721 C   0  0  0  0  0  0
   19.5455   -2.0385  -10.9118 C   0  0  0  0  0  0
   19.0084   -3.2528  -11.1529 F   0  0  0  0  0  0
   20.8146   -1.7131  -11.4230 C   0  0  0  0  0  0
   21.3637   -2.4401  -12.0019 H   0  0  0  0  0  0
   21.3607   -0.4368  -11.1833 C   0  0  0  0  0  0
   22.5920   -0.1104  -11.6950 O   0  0  0  0  0  0
   23.7334   -0.3095  -10.9510 C   0  0  0  0  0  0
   23.6965   -0.8073   -9.6241 C   0  0  0  0  0  0
   22.7620   -1.0611   -9.1431 H   0  0  0  0  0  0
   24.8849   -0.9991   -8.8957 C   0  0  0  0  0  0
   24.8414   -1.3751   -7.8843 H   0  0  0  0  0  0
   26.1235   -0.7180   -9.4983 C   0  0  0  0  0  0
   27.6344   -0.9557   -8.5725 S   0  0  0  0  0  0
   27.3721   -1.9108   -7.4868 O   0  0  0  0  0  0
   28.7191   -1.2511   -9.5169 O   0  0  0  0  0  0
   27.9681    0.6961   -7.8404 C   0  0  0  0  0  0
   29.2741    0.8898   -7.8809 F   0  0  0  0  0  0
   27.5414    0.7096   -6.5798 F   0  0  0  0  0  0
   27.3486    1.6427   -8.5447 F   0  0  0  0  0  0
   26.1759   -0.1917  -10.8023 C   0  0  0  0  0  0
   27.1294    0.0548  -11.2474 H   0  0  0  0  0  0
   24.9862    0.0143  -11.5330 C   0  0  0  0  0  0
   25.0879    0.5704  -12.9422 C   0  0  0  0  0  0
   24.1407    0.5550  -13.4721 H   0  0  0  0  0  0
   25.4957    1.8358  -12.9061 F   0  0  0  0  0  0
   25.9493   -0.1458  -13.6626 F   0  0  0  0  0  0
   20.6206    0.5135  -10.4495 C   0  0  0  0  0  0
   21.0262    1.4996  -10.2762 H   0  0  0  0  0  0
   19.3436    0.1952   -9.9520 C   0  0  0  0  0  0
   18.4220    1.3926   -9.1102 Cl  0  0  0  0  0  0
  1  2  1  0  0  0
  2 31  1  0  0  0
  2  3  2  0  0  0
  3  4  1  0  0  0
  3  5  1  0  0  0
  5  6  1  0  0  0
  5  7  2  0  0  0
  7  8  1  0  0  0
  7 29  1  0  0  0
  8  9  1  0  0  0
  9 24  1  0  0  0
  9 10  2  0  0  0
 10 11  1  0  0  0
 10 12  1  0  0  0
 12 13  1  0  0  0
 12 14  2  0  0  0
 14 15  1  0  0  0
 14 22  1  0  0  0
 15 16  2  0  0  0
 15 17  2  0  0  0
 15 18  1  0  0  0
 18 19  1  0  0  0
 18 20  1  0  0  0
 18 21  1  0  0  0
 22 23  1  0  0  0
 22 24  2  0  0  0
 24 25  1  0  0  0
 25 26  1  0  0  0
 25 27  1  0  0  0
 25 28  1  0  0  0
 29 30  1  0  0  0
 29 31  2  0  0  0
 31 32  1  0  0  0
M  END
> <s_m_source_file>
ligprep_hif2a.smi

> <i_m_source_file_index>
2

> <i_lp_mmshare_version>
53161

> <i_f3d_flags>
0

> <s_epik_input>
RmMxW2NIXWMoQ2wpW2NIXWMoW2NIXTEpT2MyW2NIXVtjSF1jKFMoPU8pKD1PKUMoRikoRilGKVtjSF1jMltDSF0oRilG

> <s_epik_cmdline>
J2VwaWtfcHl0aG9uJywgJy1waHQnLCAnMC4wJywgJy1waCcsICc3LjQnLCAnLXRuJywgJzgnLCAnLW1hJywgJzUwMCcsICctaW1hZScsICc8aW5maWxlLm1hZT4nLCAnLW9tYWUnLCAnPG91dGZpbGUubWFlPic=

> <r_lp_tautomer_probability>
1

> <r_epik_Ionization_Penalty>
  0.0000

> <r_epik_Ionization_Penalty_Charging>
  0.0000

> <r_epik_Ionization_Penalty_Neutral>
  0.0000

> <r_epik_State_Penalty>
 -0.0000

> <r_epik_Charging_Adjusted_Penalty>
0

> <i_epik_Tot_Q>
0

> <i_epik_Tot_abs_Q>
0

> <s_lp_Force_Field>
S-OPLS

> <r_lp_Energy>
24.9301

> <b_lp_Chiralities_Consistent>
1

> <s_lp_Variant>
lig_124-1

> <s_i_glide_gridfile>
glide-grid_HIF2a-5TBM

> <i_i_glide_lignum>
2

> <i_i_glide_rotatable_bonds>
5

> <r_i_docking_score>
-9.90252543281889

> <r_i_glide_ligand_efficiency>
-0.396101017312756

> <r_i_glide_ligand_efficiency_sa>
-1.15820639950395

> <r_i_glide_ligand_efficiency_ln>
-2.34719528231866

> <r_i_glide_gscore>
-9.90252543281889

> <r_i_glide_lipo>
-4.4412354525818

> <r_i_glide_hbond>
0

> <r_i_glide_metal>
-0

> <r_i_glide_rewards>
-3.17016876936999

> <r_i_glide_evdw>
-47.9958419799805

> <r_i_glide_ecoul>
-3.27362847328186

> <r_i_glide_erotb>
0.599715159124197

> <r_i_glide_esite>
0

> <r_i_glide_emodel>
-80.1474071989423

> <r_i_glide_energy>
-51.2694704532623

> <r_i_glide_einternal>
0.51375412940979

> <i_i_glide_confnum>
5

> <i_i_glide_posenum>
1

> <r_i_glide_eff_state_penalty>
-0

> <r_i_glide_rmsd>
0.0798976919055275

> <s_glide_core_constrain_type>
snapped_core_restrain

$$$$
lig_50
                    3D
 Schrodinger Suite 2022-3.
 33 34  0  0  1  0            999 V2000
   17.8391   -1.2449   -9.7256 H   0  0  0  0  0  0
   18.8211   -1.0120  -10.1004 C   0  0  0  0  0  0
   19.5314   -1.9977  -10.8087 C   0  0  0  0  0  0
   18.9698   -3.2022  -11.0387 F   0  0  0  0  0  0
   20.8134   -1.7165  -11.3078 C   0  0  0  0  0  0
   21.3662   -2.4654  -11.8561 H   0  0  0  0  0  0
   21.3824   -0.4461  -11.0956 C   0  0  0  0  0  0
   22.6050   -0.1537  -11.6303 O   0  0  0  0  0  0
   23.7601   -0.3076  -10.8961 C   0  0  0  0  0  0
   23.7740   -0.8655   -9.5948 C   0  0  0  0  0  0
   22.8685   -1.1897   -9.1085 H   0  0  0  0  0  0
   24.9918   -1.0265   -8.9104 C   0  0  0  0  0  0
   24.9947   -1.4646   -7.9134 H   0  0  0  0  0  0
   26.2037   -0.6541   -9.5250 C   0  0  0  0  0  0
   27.7090   -0.9298   -8.5729 S   0  0  0  0  0  0
   27.4205   -1.8625   -7.4758 O   0  0  0  0  0  0
   28.7994   -1.2738   -9.4895 O   0  0  0  0  0  0
   28.0961    0.7064   -7.8471 C   0  0  0  0  0  0
   29.1236    0.6759   -7.4782 H   0  0  0  0  0  0
   28.0479    1.4867   -8.6090 H   0  0  0  0  0  0
   27.3912    0.9553   -7.0480 H   0  0  0  0  0  0
   26.2122   -0.0335  -10.8010 C   0  0  0  0  0  0
   27.5256    0.4001  -11.4490 C   0  0  0  0  0  0
   28.2026    0.8602  -10.7285 H   0  0  0  0  0  0
   28.0132   -0.4783  -11.8721 H   0  0  0  0  0  0
   27.4171    1.1362  -12.2474 H   0  0  0  0  0  0
   24.9742    0.1348  -11.4759 C   0  0  0  0  0  0
   24.9318    0.7747  -12.7865 C   0  0  0  0  0  0
   24.9093    1.2886  -13.8228 N   0  0  0  0  0  0
   20.6595    0.5492  -10.4047 C   0  0  0  0  0  0
   21.0899    1.5326  -10.2681 H   0  0  0  0  0  0
   19.3783    0.2665   -9.9002 C   0  0  0  0  0  0
   18.4816    1.4981   -9.0843 Cl  0  0  0  0  0  0
  1  2  1  0  0  0
  2 32  1  0  0  0
  2  3  2  0  0  0
  3  4  1  0  0  0
  3  5  1  0  0  0
  5  6  1  0  0  0
  5  7  2  0  0  0
  7  8  1  0  0  0
  7 30  1  0  0  0
  8  9  1  0  0  0
  9 27  1  0  0  0
  9 10  2  0  0  0
 10 11  1  0  0  0
 10 12  1  0  0  0
 12 13  1  0  0  0
 12 14  2  0  0  0
 14 15  1  0  0  0
 14 22  1  0  0  0
 15 16  2  0  0  0
 15 17  2  0  0  0
 15 18  1  0  0  0
 18 19  1  0  0  0
 18 20  1  0  0  0
 18 21  1  0  0  0
 22 23  1  0  0  0
 22 27  2  0  0  0
 23 24  1  0  0  0
 23 25  1  0  0  0
 23 26  1  0  0  0
 27 28  1  0  0  0
 28 29  3  0  0  0
 30 31  1  0  0  0
 30 32  2  0  0  0
 32 33  1  0  0  0
M  END
> <s_m_source_file>
ligprep_hif2a.smi

> <i_m_source_file_index>
35

> <i_lp_mmshare_version>
53161

> <i_f3d_flags>
0

> <s_epik_input>
RmMxW2NIXWMoQ2wpW2NIXWMoW2NIXTEpT2MyW2NIXVtjSF1jKFMoPU8pKD1PKVtDSDNdKWMoW0NIM10pYzJDI04=

> <s_epik_cmdline>
J2VwaWtfcHl0aG9uJywgJy1waHQnLCAnMC4wJywgJy1waCcsICc3LjQnLCAnLXRuJywgJzgnLCAnLW1hJywgJzUwMCcsICctaW1hZScsICc8aW5maWxlLm1hZT4nLCAnLW9tYWUnLCAnPG91dGZpbGUubWFlPic=

> <r_lp_tautomer_probability>
1

> <r_epik_Ionization_Penalty>
  0.0000

> <r_epik_Ionization_Penalty_Charging>
  0.0000

> <r_epik_Ionization_Penalty_Neutral>
  0.0000

> <r_epik_State_Penalty>
 -0.0000

> <r_epik_Charging_Adjusted_Penalty>
0

> <i_epik_Tot_Q>
0

> <i_epik_Tot_abs_Q>
0

> <s_lp_Force_Field>
S-OPLS

> <r_lp_Energy>
19.7308

> <b_lp_Chiralities_Consistent>
1

> <s_lp_Variant>
lig_50-1

> <s_i_glide_gridfile>
glide-grid_HIF2a-5TBM

> <i_i_glide_lignum>
35

> <i_i_glide_rotatable_bonds>
3

> <r_i_docking_score>
-9.87417566120817

> <r_i_glide_ligand_efficiency>
-0.448826166418553

> <r_i_glide_ligand_efficiency_sa>
-1.25762856963627

> <r_i_glide_ligand_efficiency_ln>
-2.41360870090764

> <r_i_glide_gscore>
-9.87417566120817

> <r_i_glide_lipo>
-4.31922780984657

> <r_i_glide_hbond>
0

> <r_i_glide_metal>
-0

> <r_i_glide_rewards>
-3.1555000024791

> <r_i_glide_evdw>
-49.334831237793

> <r_i_glide_ecoul>
-2.83071041107178

> <r_i_glide_erotb>
0.491900274667924

> <r_i_glide_esite>
0

> <r_i_glide_emodel>
-84.7986088663317

> <r_i_glide_energy>
-52.1655416488647

> <r_i_glide_einternal>
8.03357806944405e-08

> <i_i_glide_confnum>
1

> <i_i_glide_posenum>
1

> <r_i_glide_eff_state_penalty>
-0

> <r_i_glide_rmsd>
0.0951969970512196

> <s_glide_core_constrain_type>
snapped_core_restrain

$$$$
lig_224
                    3D
 Schrodinger Suite 2022-3.
 37 39  0  0  1  0            999 V2000
   28.2748    2.0569  -11.7950 H   0  0  0  0  0  0
   27.6211    1.6885  -11.2101 O   0  0  0  0  0  0
   27.2399    0.4153  -11.6857 C   0  0  1  0  0  0
   28.0967   -0.2524  -11.7045 H   0  0  0  0  0  0
   26.0906   -0.1064  -10.8580 C   0  0  0  0  0  0
   24.8874    0.0563  -11.5382 C   0  0  0  0  0  0
   23.6560   -0.3071  -10.9706 C   0  0  0  0  0  0
   22.5298   -0.1185  -11.7286 O   0  0  0  0  0  0
   21.3012   -0.4209  -11.2148 C   0  0  0  0  0  0
   20.6945   -1.6400  -11.1323 C   0  0  0  0  0  0
   21.0338   -2.6242  -11.4207 H   0  0  0  0  0  0
   19.4514   -1.4217  -10.5826 N   0  0  0  0  0  0
   18.4187   -2.3875  -10.3017 C   0  0  0  0  0  0
   18.8266   -3.3985  -10.3611 H   0  0  0  0  0  0
   18.0313   -2.2100   -9.3013 H   0  0  0  0  0  0
   17.6035   -2.2781  -11.0173 H   0  0  0  0  0  0
   19.2333   -0.1175  -10.3052 N   0  0  0  0  0  0
   20.3462    0.4883  -10.6797 C   0  0  0  0  0  0
   20.4198    1.5596  -10.5665 H   0  0  0  0  0  0
   23.6568   -0.8167   -9.6459 C   0  0  0  0  0  0
   22.7347   -1.0948   -9.1526 H   0  0  0  0  0  0
   24.8732   -0.9870   -8.9498 C   0  0  0  0  0  0
   24.8561   -1.3862   -7.9471 H   0  0  0  0  0  0
   26.1071   -0.6636   -9.5609 C   0  0  0  0  0  0
   27.6205   -0.9331   -8.6365 S   0  0  0  0  0  0
   27.3261   -1.9270   -7.5946 O   0  0  0  0  0  0
   28.7149   -1.2172   -9.5700 O   0  0  0  0  0  0
   27.9866    0.6813   -7.8241 C   0  0  0  0  0  0
   27.6205    0.5946   -6.5429 F   0  0  0  0  0  0
   29.2872    0.8887   -7.9167 F   0  0  0  0  0  0
   27.3105    1.6643   -8.4121 F   0  0  0  0  0  0
   25.0933    0.6442  -12.9091 C   0  0  0  0  0  0
   24.7675    1.6838  -12.8915 H   0  0  0  0  0  0
   24.5323    0.1170  -13.6819 H   0  0  0  0  0  0
   26.6193    0.5503  -13.1019 C   0  0  0  0  0  0
   27.1207    1.5595  -13.8150 F   0  0  0  0  0  0
   26.8689   -0.5841  -13.7566 F   0  0  0  0  0  0
  1  2  1  0  0  0
  2  3  1  0  0  0
  3 35  1  0  0  0
  3  4  1  0  0  0
  3  5  1  0  0  0
  5 24  1  0  0  0
  5  6  2  0  0  0
  6  7  1  0  0  0
  6 32  1  0  0  0
  7  8  1  0  0  0
  7 20  2  0  0  0
  8  9  1  0  0  0
  9 18  1  0  0  0
  9 10  2  0  0  0
 10 11  1  0  0  0
 10 12  1  0  0  0
 12 13  1  0  0  0
 12 17  1  0  0  0
 13 14  1  0  0  0
 13 15  1  0  0  0
 13 16  1  0  0  0
 17 18  2  0  0  0
 18 19  1  0  0  0
 20 21  1  0  0  0
 20 22  1  0  0  0
 22 23  1  0  0  0
 22 24  2  0  0  0
 24 25  1  0  0  0
 25 26  2  0  0  0
 25 27  2  0  0  0
 25 28  1  0  0  0
 28 29  1  0  0  0
 28 30  1  0  0  0
 28 31  1  0  0  0
 32 33  1  0  0  0
 32 34  1  0  0  0
 32 35  1  0  0  0
 35 36  1  0  0  0
 35 37  1  0  0  0
M  END
> <s_m_source_file>
ligprep_hif2a.smi

> <i_m_source_file_index>
12

> <i_lp_mmshare_version>
53161

> <i_f3d_flags>
0

> <s_epik_input>
RkMoRikoRilTKD1PKSg9TyljMVtjSF1bY0hdYyhjKGMxMilbQ0gyXUMoRikoRilbQ0BIXTJbT0hdKU9jM1tjSF1uKFtDSDNdKW5bY0hdMw==

> <s_epik_cmdline>
J2VwaWtfcHl0aG9uJywgJy1waHQnLCAnMC4wJywgJy1waCcsICc3LjQnLCAnLXRuJywgJzgnLCAnLW1hJywgJzUwMCcsICctaW1hZScsICc8aW5maWxlLm1hZT4nLCAnLW9tYWUnLCAnPG91dGZpbGUubWFlPic=

> <r_lp_tautomer_probability>
1

> <r_epik_Ionization_Penalty>
  0.0012

> <r_epik_Ionization_Penalty_Charging>
  0.0000

> <r_epik_Ionization_Penalty_Neutral>
  0.0012

> <r_epik_State_Penalty>
 -0.0000

> <r_epik_Charging_Adjusted_Penalty>
0

> <i_epik_Tot_Q>
0

> <i_epik_Tot_abs_Q>
0

> <s_lp_Force_Field>
S-OPLS

> <r_lp_Energy>
27.0687

> <b_lp_Chiralities_Consistent>
1

> <s_lp_Variant>
lig_224-1

> <s_i_glide_gridfile>
glide-grid_HIF2a-5TBM

> <i_i_glide_lignum>
12

> <i_i_glide_rotatable_bonds>
5

> <r_i_docking_score>
-9.71413437351597

> <r_i_glide_ligand_efficiency>
-0.373620552827537

> <r_i_glide_ligand_efficiency_sa>
-1.10684941762569

> <r_i_glide_ligand_efficiency_ln>
-2.28133258294553

> <r_i_glide_gscore>
-9.71413437351597

> <r_i_glide_lipo>
-4.14103120694716

> <r_i_glide_hbond>
-0.32

> <r_i_glide_metal>
-0

> <r_i_glide_rewards>
-2.5737315386456

> <r_i_glide_evdw>
-48.1216354370117

> <r_i_glide_ecoul>
-5.93656969070435

> <r_i_glide_erotb>
0.617195597533033

> <r_i_glide_esite>
0

> <r_i_glide_emodel>
-328.527569133169

> <r_i_glide_energy>
-54.0582051277161

> <r_i_glide_einternal>
0.357719838619232

> <i_i_glide_confnum>
323

> <i_i_glide_posenum>
103

> <r_i_glide_eff_state_penalty>
-0

> <r_i_glide_rmsd>
0.0957558327880349

> <s_glide_core_constrain_type>
snapped_core_restrain

$$$$
