lig_43
     RDKit          3D

 24 25  0  0  1  0  0  0  0  0999 V2000
   28.1216    1.2887  -10.9401 O   0  0  0  0  0  0  0  0  0  0  0  0
   27.4459    0.2704  -11.6253 C   0  0  0  0  0  0  0  0  0  0  0  0
   26.1504   -0.1149  -10.9249 C   0  0  0  0  0  0  0  0  0  0  0  0
   24.9090    0.0889  -11.5820 C   0  0  0  0  0  0  0  0  0  0  0  0
   24.8267    0.8755  -13.1220 Cl  0  0  0  0  0  0  0  0  0  0  0  0
   23.6982   -0.3253  -10.9893 C   0  0  0  0  0  0  0  0  0  0  0  0
   22.5483   -0.1951  -11.7347 O   0  0  0  0  0  0  0  0  0  0  0  0
   21.3334   -0.5012  -11.1863 C   0  0  0  0  0  0  0  0  0  0  0  0
   20.7861   -1.7902  -11.3379 C   0  0  0  0  0  0  0  0  0  0  0  0
   19.5319   -2.0893  -10.7707 C   0  0  0  0  0  0  0  0  0  0  0  0
   18.8208   -1.0938  -10.0721 C   0  0  0  0  0  0  0  0  0  0  0  0
   19.3584    0.2039   -9.9429 C   0  0  0  0  0  0  0  0  0  0  0  0
   18.6396    1.2536   -9.2417 C   0  0  0  0  0  0  0  0  0  0  0  0
   18.0732    2.0888   -8.6761 N   0  0  0  0  0  0  0  0  0  0  0  0
   20.6207    0.4891  -10.4874 C   0  0  0  0  0  0  0  0  0  0  0  0
   23.7137   -0.8620   -9.6824 C   0  0  0  0  0  0  0  0  0  0  0  0
   24.9296   -1.0088   -8.9965 C   0  0  0  0  0  0  0  0  0  0  0  0
   26.1502   -0.6740   -9.6152 C   0  0  0  0  0  0  0  0  0  0  0  0
   27.6421   -0.9231   -8.6181 S   0  0  0  0  0  0  0  0  0  0  0  0
   27.3108   -1.8878   -7.5591 O   0  0  0  0  0  0  0  0  0  0  0  0
   28.7825   -1.2489   -9.4801 O   0  0  0  0  0  0  0  0  0  0  0  0
   27.9715    0.7138   -7.8173 C   0  0  0  0  0  0  0  0  0  0  0  0
   27.2449    1.6712   -8.3890 F   0  0  0  0  0  0  0  0  0  0  0  0
   27.6218    0.6309   -6.5335 F   0  0  0  0  0  0  0  0  0  0  0  0
  1  2  1  0
  2  3  1  0
  3 18  2  0
  3  4  1  0
  4  5  1  0
  4  6  2  0
  6  7  1  0
  6 16  1  0
  7  8  1  0
  8 15  1  0
  8  9  2  0
  9 10  1  0
 10 11  2  0
 11 12  1  0
 12 13  1  0
 12 15  2  0
 13 14  3  0
 16 17  2  0
 17 18  1  0
 18 19  1  0
 19 20  2  0
 19 21  2  0
 19 22  1  0
 22 23  1  0
 22 24  1  0
M  END
>  <s_m_source_file>  (1) 
ligprep_hif2a.smi

>  <i_m_source_file_index>  (1) 
34

>  <i_lp_mmshare_version>  (1) 
53161

>  <i_f3d_flags>  (1) 
0

>  <s_epik_input>  (1) 
RltDSF0oRilTKD1PKSg9TyljMVtjSF1bY0hdYyhjKENsKWMxW0NIMl1bT0hdKU9jMltjSF1bY0hdW2NIXWMoQyNOKVtjSF0y

>  <s_epik_cmdline>  (1) 
J2VwaWtfcHl0aG9uJywgJy1waHQnLCAnMC4wJywgJy1waCcsICc3LjQnLCAnLXRuJywgJzgnLCAnLW1hJywgJzUwMCcsICctaW1hZScsICc8aW5maWxlLm1hZT4nLCAnLW9tYWUnLCAnPG91dGZpbGUubWFlPic=

>  <r_lp_tautomer_probability>  (1) 
1

>  <r_epik_Ionization_Penalty>  (1) 
  0.0000

>  <r_epik_Ionization_Penalty_Charging>  (1) 
  0.0000

>  <r_epik_Ionization_Penalty_Neutral>  (1) 
  0.0000

>  <r_epik_State_Penalty>  (1) 
 -0.0000

>  <r_epik_Charging_Adjusted_Penalty>  (1) 
0

>  <i_epik_Tot_Q>  (1) 
0

>  <i_epik_Tot_abs_Q>  (1) 
0

>  <s_lp_Force_Field>  (1) 
S-OPLS

>  <r_lp_Energy>  (1) 
32.4823

>  <b_lp_Chiralities_Consistent>  (1) 
1

>  <s_lp_Variant>  (1) 
lig_43-1

>  <s_i_glide_gridfile>  (1) 
glide-grid_HIF2a-5TBM

>  <i_i_glide_lignum>  (1) 
34

>  <i_i_glide_rotatable_bonds>  (1) 
6

>  <r_i_docking_score>  (1) 
-10.2073582163013

>  <r_i_glide_ligand_efficiency>  (1) 
-0.425306592345887

>  <r_i_glide_ligand_efficiency_sa>  (1) 
-1.22679649881992

>  <r_i_glide_ligand_efficiency_ln>  (1) 
-2.44308920630906

>  <r_i_glide_gscore>  (1) 
-10.2073582163013

>  <r_i_glide_lipo>  (1) 
-4.389289394559

>  <r_i_glide_hbond>  (1) 
0

>  <r_i_glide_metal>  (1) 
-0

>  <r_i_glide_rewards>  (1) 
-3.02280628296451

>  <r_i_glide_evdw>  (1) 
-51.9308204650879

>  <r_i_glide_ecoul>  (1) 
-5.93686246871948

>  <r_i_glide_erotb>  (1) 
0.691807854784548

>  <r_i_glide_esite>  (1) 
0

>  <r_i_glide_emodel>  (1) 
-91.6157666312544

>  <r_i_glide_energy>  (1) 
-57.8676829338074

>  <r_i_glide_einternal>  (1) 
2.92298364639282

>  <i_i_glide_confnum>  (1) 
4

>  <i_i_glide_posenum>  (1) 
11

>  <r_i_glide_eff_state_penalty>  (1) 
-0

>  <r_i_glide_rmsd>  (1) 
0.0951797421699015

>  <s_glide_core_constrain_type>  (1) 
snapped_core_restrain

$$$$
