lig_27
     RDKit          3D

 22 24  0  0  1  0  0  0  0  0999 V2000
   62.6359  -32.4071   29.5489 C   0  0  0  0  0  0  0  0  0  0  0  0
   63.9230  -31.8909   29.7944 C   0  0  0  0  0  0  0  0  0  0  0  0
   64.8652  -31.8243   28.7496 C   0  0  0  0  0  0  0  0  0  0  0  0
   64.5156  -32.2517   27.4444 C   0  0  0  0  0  0  0  0  0  0  0  0
   63.2146  -32.7360   27.2032 C   0  0  0  0  0  0  0  0  0  0  0  0
   62.2824  -32.8353   28.2537 C   0  0  0  0  0  0  0  0  0  0  0  0
   65.3783  -32.2371   26.3760 O   0  0  0  0  0  0  0  0  0  0  0  0
   66.5232  -31.4038   26.4500 C   0  0  0  0  0  0  0  0  0  0  0  0
   67.1407  -31.3284   25.0459 C   0  0  0  0  0  0  0  0  0  0  0  0
   67.8184  -32.6334   24.5927 C   0  0  0  0  0  0  0  0  0  0  0  0
   69.0517  -32.9349   25.3960 C   0  0  0  0  0  0  0  0  0  0  0  0
   70.2677  -32.2915   25.2945 C   0  0  0  0  0  0  0  0  0  0  0  0
   71.1103  -32.8161   26.2621 N   0  0  0  0  0  0  0  0  0  0  0  0
   70.4838  -33.8055   26.9963 C   0  0  0  0  0  0  0  0  0  0  0  0
   69.1647  -33.8894   26.4671 C   0  0  0  0  0  0  0  0  0  0  0  0
   68.2799  -34.8194   27.0686 C   0  0  0  0  0  0  0  0  0  0  0  0
   68.6955  -35.6361   28.1399 C   0  0  0  0  0  0  0  0  0  0  0  0
   70.0127  -35.5431   28.6325 C   0  0  0  0  0  0  0  0  0  0  0  0
   70.9108  -34.6201   28.0623 C   0  0  0  0  0  0  0  0  0  0  0  0
   70.8014  -31.1976   24.4365 C   0  0  0  0  0  0  0  0  0  0  0  0
   70.1760  -30.8224   23.4184 O   0  0  0  0  0  0  0  0  0  0  0  0
   71.8825  -30.6536   24.7557 O   0  0  0  0  0  0  0  0  0  0  0  0
  1  6  2  0
  1  2  1  0
  2  3  2  0
  3  4  1  0
  4  5  2  0
  4  7  1  0
  5  6  1  0
  7  8  1  0
  8  9  1  0
  9 10  1  0
 10 11  1  0
 11 15  1  0
 11 12  2  0
 12 13  1  0
 12 20  1  0
 13 14  1  0
 14 19  1  0
 14 15  2  0
 15 16  1  0
 16 17  2  0
 17 18  1  0
 18 19  2  0
 20 21  2  0
 20 22  1  0
M  CHG  1  22  -1
M  END
>  <s_m_source_file>  (1) 
ligprep_mcl1.smi

>  <i_m_source_file_index>  (1) 
3

>  <i_lp_mmshare_version>  (1) 
53161

>  <i_f3d_flags>  (1) 
0

>  <s_epik_input>  (1) 
W2NIXTFbY0hdW2NIXVtjSF1bY0hdYzFPW0NIMl1bQ0gyXVtDSDJdYyhjKFtuSF0yKUMoPU8pW09IXSljKGMyMylbY0hdW2NIXVtjSF1bY0hdMw==

>  <s_epik_cmdline>  (1) 
J2VwaWtfcHl0aG9uJywgJy1waHQnLCAnMC4wJywgJy1waCcsICc3LjQnLCAnLXRuJywgJzgnLCAnLW1hJywgJzUwMCcsICctaW1hZScsICc8aW5maWxlLm1hZT4nLCAnLW9tYWUnLCAnPG91dGZpbGUubWFlPic=

>  <r_lp_tautomer_probability>  (1) 
1

>  <r_epik_Ionization_Penalty>  (1) 
  0.0006

>  <r_epik_Ionization_Penalty_Charging>  (1) 
  0.0006

>  <r_epik_Ionization_Penalty_Neutral>  (1) 
  0.0000

>  <r_epik_State_Penalty>  (1) 
 -0.0000

>  <r_epik_Charging_Adjusted_Penalty>  (1) 
0.000566237

>  <i_epik_Tot_Q>  (1) 
-1

>  <i_epik_Tot_abs_Q>  (1) 
1

>  <s_lp_Force_Field>  (1) 
S-OPLS

>  <r_lp_Energy>  (1) 
35.4449

>  <b_lp_Chiralities_Consistent>  (1) 
1

>  <s_lp_Variant>  (1) 
lig_27-1

>  <s_i_glide_gridfile>  (1) 
glide-grid_MCL1-4HW3

>  <i_i_glide_lignum>  (1) 
3

>  <i_i_glide_rotatable_bonds>  (1) 
6

>  <r_i_docking_score>  (1) 
-6.71832588685996

>  <r_i_glide_ligand_efficiency>  (1) 
-0.305378449402725

>  <r_i_glide_ligand_efficiency_sa>  (1) 
-0.855682425079342

>  <r_i_glide_ligand_efficiency_ln>  (1) 
-1.6422039036395

>  <r_i_glide_gscore>  (1) 
-6.71832588685996

>  <r_i_glide_lipo>  (1) 
-4.50865224199557

>  <r_i_glide_hbond>  (1) 
-0.415794626771979

>  <r_i_glide_metal>  (1) 
-0

>  <r_i_glide_rewards>  (1) 
-1.97692635503657

>  <r_i_glide_evdw>  (1) 
-35.7976875305176

>  <r_i_glide_ecoul>  (1) 
-3.41090202331543

>  <r_i_glide_erotb>  (1) 
2.53318583634431

>  <r_i_glide_esite>  (1) 
-0.0486188193769556

>  <r_i_glide_emodel>  (1) 
-58.7957750258844

>  <r_i_glide_energy>  (1) 
-39.208589553833

>  <r_i_glide_einternal>  (1) 
0.0738022774457932

>  <i_i_glide_confnum>  (1) 
156

>  <i_i_glide_posenum>  (1) 
130

>  <r_i_glide_eff_state_penalty>  (1) 
-0

>  <r_i_glide_rmsd>  (1) 
0.094142993973318

>  <s_glide_core_constrain_type>  (1) 
snapped_core_restrain

$$$$
