lig_49
     RDKit          3D

 25 27  0  0  1  0  0  0  0  0999 V2000
   70.2909  -35.4358   28.7007 C   0  0  0  0  0  0  0  0  0  0  0  0
   71.1741  -34.6273   27.9590 C   0  0  0  0  0  0  0  0  0  0  0  0
   70.6740  -33.8213   26.9140 C   0  0  0  0  0  0  0  0  0  0  0  0
   69.2938  -33.7929   26.5624 C   0  0  0  0  0  0  0  0  0  0  0  0
   68.4318  -34.5898   27.3556 C   0  0  0  0  0  0  0  0  0  0  0  0
   68.9177  -35.4085   28.3928 C   0  0  0  0  0  0  0  0  0  0  0  0
   66.7441  -34.5446   27.0851 Cl  0  0  0  0  0  0  0  0  0  0  0  0
   69.1312  -32.8922   25.4323 C   0  0  0  0  0  0  0  0  0  0  0  0
   70.3871  -32.3948   25.1461 C   0  0  0  0  0  0  0  0  0  0  0  0
   71.2858  -32.9459   26.0448 N   0  0  0  0  0  0  0  0  0  0  0  0
   70.9391  -31.4316   24.1529 C   0  0  0  0  0  0  0  0  0  0  0  0
   70.2287  -30.9561   23.2314 O   0  0  0  0  0  0  0  0  0  0  0  0
   72.1390  -31.0921   24.2665 O   0  0  0  0  0  0  0  0  0  0  0  0
   67.8761  -32.5450   24.6822 C   0  0  0  0  0  0  0  0  0  0  0  0
   67.2774  -31.2025   25.1223 C   0  0  0  0  0  0  0  0  0  0  0  0
   66.5744  -31.2399   26.4886 C   0  0  0  0  0  0  0  0  0  0  0  0
   65.3824  -32.0025   26.3489 O   0  0  0  0  0  0  0  0  0  0  0  0
   64.5350  -32.0984   27.4273 C   0  0  0  0  0  0  0  0  0  0  0  0
   63.2684  -32.6660   27.1796 C   0  0  0  0  0  0  0  0  0  0  0  0
   62.3366  -32.8214   28.2221 C   0  0  0  0  0  0  0  0  0  0  0  0
   62.6726  -32.4239   29.5275 C   0  0  0  0  0  0  0  0  0  0  0  0
   63.9391  -31.8540   29.7990 C   0  0  0  0  0  0  0  0  0  0  0  0
   64.8698  -31.6968   28.7466 C   0  0  0  0  0  0  0  0  0  0  0  0
   64.3187  -31.3959   31.1982 C   0  0  0  0  0  0  0  0  0  0  0  0
   61.5119  -32.6528   30.7780 Cl  0  0  0  0  0  0  0  0  0  0  0  0
  1  6  2  0
  1  2  1  0
  2  3  2  0
  3 10  1  0
  3  4  1  0
  4  5  2  0
  4  8  1  0
  5  6  1  0
  5  7  1  0
  8  9  2  0
  8 14  1  0
  9 10  1  0
  9 11  1  0
 11 12  2  0
 11 13  1  0
 14 15  1  0
 15 16  1  0
 16 17  1  0
 17 18  1  0
 18 23  1  0
 18 19  2  0
 19 20  1  0
 20 21  2  0
 21 22  1  0
 21 25  1  0
 22 23  2  0
 22 24  1  0
M  CHG  1  13  -1
M  END
>  <s_m_source_file>  (1) 
ligprep_mcl1.smi

>  <i_m_source_file_index>  (1) 
25

>  <i_lp_mmshare_version>  (1) 
53161

>  <i_f3d_flags>  (1) 
0

>  <s_epik_input>  (1) 
W2NIXTFbY0hdW2NIXWMoQ2wpYyhjMTIpYyhjKFtuSF0yKUMoPU8pW09IXSlbQ0gyXVtDSDJdW0NIMl1PYzNbY0hdW2NIXWMoQ2wpYyhbY0hdMylbQ0gzXQ==

>  <s_epik_cmdline>  (1) 
J2VwaWtfcHl0aG9uJywgJy1waHQnLCAnMC4wJywgJy1waCcsICc3LjQnLCAnLXRuJywgJzgnLCAnLW1hJywgJzUwMCcsICctaW1hZScsICc8aW5maWxlLm1hZT4nLCAnLW9tYWUnLCAnPG91dGZpbGUubWFlPic=

>  <r_lp_tautomer_probability>  (1) 
1

>  <r_epik_Ionization_Penalty>  (1) 
  0.0002

>  <r_epik_Ionization_Penalty_Charging>  (1) 
  0.0002

>  <r_epik_Ionization_Penalty_Neutral>  (1) 
  0.0000

>  <r_epik_State_Penalty>  (1) 
 -0.0000

>  <r_epik_Charging_Adjusted_Penalty>  (1) 
0.000204149

>  <i_epik_Tot_Q>  (1) 
-1

>  <i_epik_Tot_abs_Q>  (1) 
1

>  <s_lp_Force_Field>  (1) 
S-OPLS

>  <r_lp_Energy>  (1) 
34.2905

>  <b_lp_Chiralities_Consistent>  (1) 
1

>  <s_lp_Variant>  (1) 
lig_49-1

>  <s_i_glide_gridfile>  (1) 
glide-grid_MCL1-4HW3

>  <i_i_glide_lignum>  (1) 
25

>  <i_i_glide_rotatable_bonds>  (1) 
6

>  <r_i_docking_score>  (1) 
-8.85526022829137

>  <r_i_glide_ligand_efficiency>  (1) 
-0.354210409131655

>  <r_i_glide_ligand_efficiency_sa>  (1) 
-1.03571751824931

>  <r_i_glide_ligand_efficiency_ln>  (1) 
-2.09896204483999

>  <r_i_glide_gscore>  (1) 
-8.85526022829137

>  <r_i_glide_lipo>  (1) 
-5.33999391397613

>  <r_i_glide_hbond>  (1) 
-0.212258783643782

>  <r_i_glide_metal>  (1) 
-0

>  <r_i_glide_rewards>  (1) 
-1.64587465612778

>  <r_i_glide_evdw>  (1) 
-40.1642227172852

>  <r_i_glide_ecoul>  (1) 
-2.80661201477051

>  <r_i_glide_erotb>  (1) 
0.816509876504559

>  <r_i_glide_esite>  (1) 
-0.0444398129684015

>  <r_i_glide_emodel>  (1) 
-69.3692547693996

>  <r_i_glide_energy>  (1) 
-42.9708347320557

>  <r_i_glide_einternal>  (1) 
3.73817372322083

>  <i_i_glide_confnum>  (1) 
8

>  <i_i_glide_posenum>  (1) 
4

>  <r_i_glide_eff_state_penalty>  (1) 
-0

>  <r_i_glide_rmsd>  (1) 
0.103307774475428

>  <s_glide_core_constrain_type>  (1) 
snapped_core_restrain

$$$$
