lig_CHEMBL3265010
     RDKit          3D

 31 34  0  0  1  0  0  0  0  0999 V2000
    5.6135   -0.5252   16.4265 C   0  0  0  0  0  0  0  0  0  0  0  0
    5.8844    0.3998   15.4566 C   0  0  0  0  0  0  0  0  0  0  0  0
    4.7351    0.5176   14.7056 N   0  0  0  0  0  0  0  0  0  0  0  0
    3.8090   -0.4021   15.2452 C   0  0  0  0  0  0  0  0  0  0  0  0
    4.3420   -1.0502   16.2775 N   0  0  0  0  0  0  0  0  0  0  0  0
    2.5246   -0.4310   14.6377 C   0  0  0  0  0  0  0  0  0  0  0  0
    1.5903   -1.3316   15.1873 N   0  0  0  0  0  0  0  0  0  0  0  0
    0.2142   -1.5331   14.9819 C   0  0  0  0  0  0  0  0  0  0  0  0
   -0.3793   -2.5709   15.7241 C   0  0  0  0  0  0  0  0  0  0  0  0
   -1.7547   -2.8326   15.6119 C   0  0  0  0  0  0  0  0  0  0  0  0
   -2.5531   -2.0653   14.7419 C   0  0  0  0  0  0  0  0  0  0  0  0
   -3.8959   -2.3311   14.6519 O   0  0  0  0  0  0  0  0  0  0  0  0
   -4.2337   -3.1205   13.5240 C   0  0  0  0  0  0  0  0  0  0  0  0
   -1.9834   -1.0165   13.9865 C   0  0  0  0  0  0  0  0  0  0  0  0
   -2.8262   -0.2906   13.1710 O   0  0  0  0  0  0  0  0  0  0  0  0
   -2.2498    0.6922   12.3234 C   0  0  0  0  0  0  0  0  0  0  0  0
   -0.5966   -0.7616   14.1143 C   0  0  0  0  0  0  0  0  0  0  0  0
    2.2055    0.3637   13.6510 N   0  0  0  0  0  0  0  0  0  0  0  0
    3.1380    1.2651   13.1700 C   0  0  0  0  0  0  0  0  0  0  0  0
    2.6765    2.1869   12.1030 C   0  0  0  0  0  0  0  0  0  0  0  0
    3.5785    2.6907   11.1406 C   0  0  0  0  0  0  0  0  0  0  0  0
    3.1487    3.5491   10.1167 C   0  0  0  0  0  0  0  0  0  0  0  0
    1.7950    3.9356   10.0243 C   0  0  0  0  0  0  0  0  0  0  0  0
    1.3264    4.7758    9.0392 O   0  0  0  0  0  0  0  0  0  0  0  0
    2.1782    5.8301    8.6281 C   0  0  0  0  0  0  0  0  0  0  0  0
    0.8767    3.4344   10.9748 C   0  0  0  0  0  0  0  0  0  0  0  0
   -0.5810    3.7739   10.8622 C   0  0  0  0  0  0  0  0  0  0  0  0
   -1.1666    3.7224    9.7835 O   0  0  0  0  0  0  0  0  0  0  0  0
   -1.1662    4.1726   11.9943 N   0  0  0  0  0  0  0  0  0  0  0  0
    1.3234    2.5844   12.0093 C   0  0  0  0  0  0  0  0  0  0  0  0
    4.4186    1.3355   13.6687 C   0  0  0  0  0  0  0  0  0  0  0  0
  1  5  1  0
  1  2  2  0
  2  3  1  0
  3 31  1  0
  3  4  1  0
  4  5  2  0
  4  6  1  0
  6  7  1  0
  6 18  2  0
  7  8  1  0
  8 17  1  0
  8  9  2  0
  9 10  1  0
 10 11  2  0
 11 12  1  0
 11 14  1  0
 12 13  1  0
 14 15  1  0
 14 17  2  0
 15 16  1  0
 18 19  1  0
 19 20  1  0
 19 31  2  0
 20 30  1  0
 20 21  2  0
 21 22  1  0
 22 23  2  0
 23 24  1  0
 23 26  1  0
 24 25  1  0
 26 27  1  0
 26 30  2  0
 27 28  2  0
 27 29  1  0
M  END
>  <s_m_source_file>  (1) 
ligprep_syk.smi

>  <i_m_source_file_index>  (1) 
17

>  <i_lp_mmshare_version>  (1) 
53161

>  <i_f3d_flags>  (1) 
0

>  <s_epik_input>  (1) 
W0NIM11PYyhbY0hdMSljKE9bQ0gzXSlbY0hdW2NIXWMxW05IXWMoYyhuMjMpbltjSF1bY0hdMiluYyhbY0hdMyktYzRbY0hdW2NIXWMoT1tDSDNdKWMoW2NIXTQpQyg9TylbTkgyXQ==

>  <s_epik_cmdline>  (1) 
J2VwaWtfcHl0aG9uJywgJy1waHQnLCAnMC4wJywgJy1waCcsICc3LjQnLCAnLXRuJywgJzgnLCAnLW1hJywgJzUwMCcsICctaW1hZScsICc8aW5maWxlLm1hZT4nLCAnLW9tYWUnLCAnPG91dGZpbGUubWFlPic=

>  <r_lp_tautomer_probability>  (1) 
1

>  <r_epik_Ionization_Penalty>  (1) 
  0.0014

>  <r_epik_Ionization_Penalty_Charging>  (1) 
  0.0014

>  <r_epik_Ionization_Penalty_Neutral>  (1) 
  0.0000

>  <r_epik_State_Penalty>  (1) 
 -0.0000

>  <r_epik_Charging_Adjusted_Penalty>  (1) 
0.00136682

>  <i_epik_Tot_Q>  (1) 
0

>  <i_epik_Tot_abs_Q>  (1) 
0

>  <s_lp_Force_Field>  (1) 
S-OPLS

>  <r_lp_Energy>  (1) 
46.6208

>  <b_lp_Chiralities_Consistent>  (1) 
1

>  <s_lp_Variant>  (1) 
lig_CHEMBL3265010-1

>  <s_i_glide_gridfile>  (1) 
glide-grid_SYK-4PV0

>  <i_i_glide_lignum>  (1) 
17

>  <i_i_glide_rotatable_bonds>  (1) 
7

>  <r_i_docking_score>  (1) 
-8.28378103950483

>  <r_i_glide_ligand_efficiency>  (1) 
-0.267218743209833

>  <r_i_glide_ligand_efficiency_sa>  (1) 
-0.839435788914844

>  <r_i_glide_ligand_efficiency_ln>  (1) 
-1.86824649180888

>  <r_i_glide_gscore>  (1) 
-8.28378103950483

>  <r_i_glide_lipo>  (1) 
-2.70726879525244

>  <r_i_glide_hbond>  (1) 
-0.59797536322198

>  <r_i_glide_metal>  (1) 
-0

>  <r_i_glide_rewards>  (1) 
-1.95572579036637

>  <r_i_glide_evdw>  (1) 
-48.1505279541016

>  <r_i_glide_ecoul>  (1) 
-9.07341861724854

>  <r_i_glide_erotb>  (1) 
0.787175450231808

>  <r_i_glide_esite>  (1) 
-0.0414473506034942

>  <r_i_glide_emodel>  (1) 
-83.288920830943

>  <r_i_glide_energy>  (1) 
-57.2239465713501

>  <r_i_glide_einternal>  (1) 
2.93287467956543

>  <i_i_glide_confnum>  (1) 
1

>  <i_i_glide_posenum>  (1) 
1

>  <r_i_glide_eff_state_penalty>  (1) 
-0

>  <r_i_glide_rmsd>  (1) 
0.0906692200707958

>  <s_glide_core_constrain_type>  (1) 
snapped_core_restrain

$$$$
