lig_CHEMBL3265012
     RDKit          3D

 30 33  0  0  1  0  0  0  0  0999 V2000
    5.6574   -0.4841   16.4262 C   0  0  0  0  0  0  0  0  0  0  0  0
    5.9201    0.4081   15.4273 C   0  0  0  0  0  0  0  0  0  0  0  0
    4.7604    0.5077   14.6878 N   0  0  0  0  0  0  0  0  0  0  0  0
    3.8398   -0.4034   15.2509 C   0  0  0  0  0  0  0  0  0  0  0  0
    4.3893   -1.0312   16.2838 N   0  0  0  0  0  0  0  0  0  0  0  0
    2.5522   -0.4608   14.6495 C   0  0  0  0  0  0  0  0  0  0  0  0
    1.6166   -1.3581   15.1967 N   0  0  0  0  0  0  0  0  0  0  0  0
    0.2378   -1.5490   14.9898 C   0  0  0  0  0  0  0  0  0  0  0  0
   -0.3729   -2.5906   15.7179 C   0  0  0  0  0  0  0  0  0  0  0  0
   -1.7492   -2.8426   15.5905 C   0  0  0  0  0  0  0  0  0  0  0  0
   -2.5397   -2.0584   14.7279 C   0  0  0  0  0  0  0  0  0  0  0  0
   -3.8790   -2.3153   14.6219 O   0  0  0  0  0  0  0  0  0  0  0  0
   -4.2064   -3.1118   13.4937 C   0  0  0  0  0  0  0  0  0  0  0  0
   -1.9552   -1.0089   13.9866 C   0  0  0  0  0  0  0  0  0  0  0  0
   -2.7903   -0.2642   13.1801 O   0  0  0  0  0  0  0  0  0  0  0  0
   -2.2099    0.6920   12.3042 C   0  0  0  0  0  0  0  0  0  0  0  0
   -0.5638   -0.7705   14.1214 C   0  0  0  0  0  0  0  0  0  0  0  0
    2.2398    0.3188   13.6555 N   0  0  0  0  0  0  0  0  0  0  0  0
    3.1568    1.2246   13.1739 C   0  0  0  0  0  0  0  0  0  0  0  0
    2.6695    2.1235   12.1135 C   0  0  0  0  0  0  0  0  0  0  0  0
    1.3248    2.5476   12.1177 C   0  0  0  0  0  0  0  0  0  0  0  0
    0.8353    3.3880   11.1049 C   0  0  0  0  0  0  0  0  0  0  0  0
    1.6911    3.8464   10.0833 C   0  0  0  0  0  0  0  0  0  0  0  0
    1.1355    4.7505    9.0283 C   0  0  0  0  0  0  0  0  0  0  0  0
    1.7463    5.7349    8.6255 O   0  0  0  0  0  0  0  0  0  0  0  0
   -0.0627    4.3991    8.5536 N   0  0  0  0  0  0  0  0  0  0  0  0
    3.0450    3.4676   10.0913 C   0  0  0  0  0  0  0  0  0  0  0  0
    3.8790    3.8930    9.1178 F   0  0  0  0  0  0  0  0  0  0  0  0
    3.5245    2.6075   11.0933 C   0  0  0  0  0  0  0  0  0  0  0  0
    4.4361    1.3106   13.6484 C   0  0  0  0  0  0  0  0  0  0  0  0
  1  5  1  0
  1  2  2  0
  2  3  1  0
  3 30  1  0
  3  4  1  0
  4  5  2  0
  4  6  1  0
  6  7  1  0
  6 18  2  0
  7  8  1  0
  8 17  1  0
  8  9  2  0
  9 10  1  0
 10 11  2  0
 11 12  1  0
 11 14  1  0
 12 13  1  0
 14 15  1  0
 14 17  2  0
 15 16  1  0
 18 19  1  0
 19 20  1  0
 19 30  2  0
 20 29  1  0
 20 21  2  0
 21 22  1  0
 22 23  2  0
 23 24  1  0
 23 27  1  0
 24 25  2  0
 24 26  1  0
 27 28  1  0
 27 29  2  0
M  END
>  <s_m_source_file>  (1) 
ligprep_syk.smi

>  <i_m_source_file_index>  (1) 
19

>  <i_lp_mmshare_version>  (1) 
53161

>  <i_f3d_flags>  (1) 
0

>  <s_epik_input>  (1) 
Tz1DKFtOSDJdKWMoYyhGKVtjSF0xKVtjSF1bY0hdYzEtYyhbY0hdMiluYyhjKG4yMyluW2NIXVtjSF0zKVtOSF1jNFtjSF1bY0hdYyhPW0NIM10pYyhbY0hdNClPW0NIM10=

>  <s_epik_cmdline>  (1) 
J2VwaWtfcHl0aG9uJywgJy1waHQnLCAnMC4wJywgJy1waCcsICc3LjQnLCAnLXRuJywgJzgnLCAnLW1hJywgJzUwMCcsICctaW1hZScsICc8aW5maWxlLm1hZT4nLCAnLW9tYWUnLCAnPG91dGZpbGUubWFlPic=

>  <r_lp_tautomer_probability>  (1) 
1

>  <r_epik_Ionization_Penalty>  (1) 
  0.0009

>  <r_epik_Ionization_Penalty_Charging>  (1) 
  0.0009

>  <r_epik_Ionization_Penalty_Neutral>  (1) 
  0.0000

>  <r_epik_State_Penalty>  (1) 
 -0.0000

>  <r_epik_Charging_Adjusted_Penalty>  (1) 
0.000851558

>  <i_epik_Tot_Q>  (1) 
0

>  <i_epik_Tot_abs_Q>  (1) 
0

>  <s_lp_Force_Field>  (1) 
S-OPLS

>  <r_lp_Energy>  (1) 
39.8145

>  <b_lp_Chiralities_Consistent>  (1) 
1

>  <s_lp_Variant>  (1) 
lig_CHEMBL3265012-1

>  <s_i_glide_gridfile>  (1) 
glide-grid_SYK-4PV0

>  <i_i_glide_lignum>  (1) 
19

>  <i_i_glide_rotatable_bonds>  (1) 
6

>  <r_i_docking_score>  (1) 
-7.99235618200273

>  <r_i_glide_ligand_efficiency>  (1) 
-0.266411872733424

>  <r_i_glide_ligand_efficiency_sa>  (1) 
-0.827803629990831

>  <r_i_glide_ligand_efficiency_ln>  (1) 
-1.81595040824648

>  <r_i_glide_gscore>  (1) 
-7.99235618200273

>  <r_i_glide_lipo>  (1) 
-2.6038758530051

>  <r_i_glide_hbond>  (1) 
-0.313047974853855

>  <r_i_glide_metal>  (1) 
-0

>  <r_i_glide_rewards>  (1) 
-2.40701726162986

>  <r_i_glide_evdw>  (1) 
-47.0356063842773

>  <r_i_glide_ecoul>  (1) 
-6.85177850723267

>  <r_i_glide_erotb>  (1) 
0.711132002784853

>  <r_i_glide_esite>  (1) 
0

>  <r_i_glide_emodel>  (1) 
-77.1024997569892

>  <r_i_glide_energy>  (1) 
-53.88738489151

>  <r_i_glide_einternal>  (1) 
0.678358614444733

>  <i_i_glide_confnum>  (1) 
3

>  <i_i_glide_posenum>  (1) 
7

>  <r_i_glide_eff_state_penalty>  (1) 
-0

>  <r_i_glide_rmsd>  (1) 
0.0963729660904599

>  <s_glide_core_constrain_type>  (1) 
snapped_core_restrain

$$$$
