lig_CHEMBL3265001
     RDKit          3D

 40 45  0  0  1  0  0  0  0  0999 V2000
    5.6602   -0.4993   16.4599 C   0  0  0  0  0  0  0  0  0  0  0  0
    5.9161    0.4161   15.4803 C   0  0  0  0  0  0  0  0  0  0  0  0
    4.7590    0.5126   14.7391 N   0  0  0  0  0  0  0  0  0  0  0  0
    3.8361   -0.4045   15.2893 C   0  0  0  0  0  0  0  0  0  0  0  0
    4.3895   -1.0494   16.3157 N   0  0  0  0  0  0  0  0  0  0  0  0
    2.5391   -0.4386   14.6986 C   0  0  0  0  0  0  0  0  0  0  0  0
    1.6017   -1.3334   15.2492 N   0  0  0  0  0  0  0  0  0  0  0  0
    0.2266   -1.5415   15.0353 C   0  0  0  0  0  0  0  0  0  0  0  0
   -0.3708   -2.5725   15.7899 C   0  0  0  0  0  0  0  0  0  0  0  0
   -1.7433   -2.8540   15.6692 C   0  0  0  0  0  0  0  0  0  0  0  0
   -2.5470   -2.1037   14.7904 C   0  0  0  0  0  0  0  0  0  0  0  0
   -3.8871   -2.3814   14.6994 O   0  0  0  0  0  0  0  0  0  0  0  0
   -4.2332   -3.1354   13.5471 C   0  0  0  0  0  0  0  0  0  0  0  0
   -1.9787   -1.0545   14.0331 C   0  0  0  0  0  0  0  0  0  0  0  0
   -2.8271   -0.3307   13.2189 O   0  0  0  0  0  0  0  0  0  0  0  0
   -2.2504    0.6589   12.3801 C   0  0  0  0  0  0  0  0  0  0  0  0
   -0.5894   -0.7883   14.1591 C   0  0  0  0  0  0  0  0  0  0  0  0
    2.2233    0.3414   13.7063 N   0  0  0  0  0  0  0  0  0  0  0  0
    3.1513    1.2362   13.2234 C   0  0  0  0  0  0  0  0  0  0  0  0
    2.6950    2.1265   12.1441 C   0  0  0  0  0  0  0  0  0  0  0  0
    3.6011    2.5972   11.1661 C   0  0  0  0  0  0  0  0  0  0  0  0
    3.1735    3.4274   10.1156 C   0  0  0  0  0  0  0  0  0  0  0  0
    1.8208    3.7989   10.0280 C   0  0  0  0  0  0  0  0  0  0  0  0
    0.8963    3.3580   11.0010 C   0  0  0  0  0  0  0  0  0  0  0  0
   -0.5570    3.7053   10.8521 C   0  0  0  0  0  0  0  0  0  0  0  0
   -1.0770    3.6672    9.7351 O   0  0  0  0  0  0  0  0  0  0  0  0
   -1.1885    4.0893   11.9795 N   0  0  0  0  0  0  0  0  0  0  0  0
   -2.5413    4.5118   12.1104 C   0  0  0  0  0  0  0  0  0  0  0  0
   -3.5877    4.0543   11.2726 C   0  0  0  0  0  0  0  0  0  0  0  0
   -4.8999    4.5344   11.4507 C   0  0  0  0  0  0  0  0  0  0  0  0
   -5.2109    5.4577   12.4806 C   0  0  0  0  0  0  0  0  0  0  0  0
   -6.5964    5.9452   12.6899 C   0  0  0  0  0  0  0  0  0  0  0  0
   -6.8740    7.0342   13.4215 N   0  0  0  0  0  0  0  0  0  0  0  0
   -8.2137    7.0706   13.4066 N   0  0  0  0  0  0  0  0  0  0  0  0
   -8.6881    6.0455   12.6835 N   0  0  0  0  0  0  0  0  0  0  0  0
   -7.6723    5.3058   12.2115 N   0  0  0  0  0  0  0  0  0  0  0  0
   -4.1615    5.8687   13.3355 C   0  0  0  0  0  0  0  0  0  0  0  0
   -2.8449    5.4064   13.1521 C   0  0  0  0  0  0  0  0  0  0  0  0
    1.3415    2.5279   12.0544 C   0  0  0  0  0  0  0  0  0  0  0  0
    4.4312    1.3246   13.7113 C   0  0  0  0  0  0  0  0  0  0  0  0
  1  5  1  0
  1  2  2  0
  2  3  1  0
  3 40  1  0
  3  4  1  0
  4  5  2  0
  4  6  1  0
  6  7  1  0
  6 18  2  0
  7  8  1  0
  8 17  1  0
  8  9  2  0
  9 10  1  0
 10 11  2  0
 11 12  1  0
 11 14  1  0
 12 13  1  0
 14 15  1  0
 14 17  2  0
 15 16  1  0
 18 19  1  0
 19 20  1  0
 19 40  2  0
 20 39  1  0
 20 21  2  0
 21 22  1  0
 22 23  2  0
 23 24  1  0
 24 25  1  0
 24 39  2  0
 25 26  2  0
 25 27  1  0
 27 28  1  0
 28 38  1  0
 28 29  2  0
 29 30  1  0
 30 31  2  0
 31 32  1  0
 31 37  1  0
 32 36  1  0
 32 33  2  0
 33 34  1  0
 34 35  2  0
 35 36  1  0
 37 38  2  0
M  CHG  1  36  -1
M  END
>  <s_m_source_file>  (1) 
ligprep_syk.smi

>  <i_m_source_file_index>  (1) 
9

>  <i_lp_mmshare_version>  (1) 
53161

>  <i_f3d_flags>  (1) 
0

>  <s_epik_input>  (1) 
W0NIM11PYyhbY0hdMSljKE9bQ0gzXSlbY0hdW2NIXWMxW05IXWMoYyhuMjMpbltjSF1bY0hdMiluYyhbY0hdMyktYzRbY0hdW2NIXVtjSF1jKFtjSF00KUMoPU8pW05IXWM1W2NIXVtjSF1jKFtjSF1bY0hdNSktYzZubm5bbkhdNg==

>  <s_epik_cmdline>  (1) 
J2VwaWtfcHl0aG9uJywgJy1waHQnLCAnMC4wJywgJy1waCcsICc3LjQnLCAnLXRuJywgJzgnLCAnLW1hJywgJzUwMCcsICctaW1hZScsICc8aW5maWxlLm1hZT4nLCAnLW9tYWUnLCAnPG91dGZpbGUubWFlPic=

>  <r_lp_tautomer_probability>  (1) 
1

>  <r_epik_Ionization_Penalty>  (1) 
  0.0029

>  <r_epik_Ionization_Penalty_Charging>  (1) 
  0.0029

>  <r_epik_Ionization_Penalty_Neutral>  (1) 
  0.0000

>  <r_epik_State_Penalty>  (1) 
 -0.0000

>  <r_epik_Charging_Adjusted_Penalty>  (1) 
0.00289321

>  <i_epik_Tot_Q>  (1) 
-1

>  <i_epik_Tot_abs_Q>  (1) 
1

>  <s_lp_Force_Field>  (1) 
S-OPLS

>  <r_lp_Energy>  (1) 
60.4222

>  <b_lp_Chiralities_Consistent>  (1) 
1

>  <s_lp_Variant>  (1) 
lig_CHEMBL3265001-1

>  <s_i_glide_gridfile>  (1) 
glide-grid_SYK-4PV0

>  <i_i_glide_lignum>  (1) 
9

>  <i_i_glide_rotatable_bonds>  (1) 
9

>  <r_i_docking_score>  (1) 
-9.72192527874662

>  <r_i_glide_ligand_efficiency>  (1) 
-0.243048131968666

>  <r_i_glide_ligand_efficiency_sa>  (1) 
-0.831212918080162

>  <r_i_glide_ligand_efficiency_ln>  (1) 
-2.0734005584675

>  <r_i_glide_gscore>  (1) 
-9.72192527874662

>  <r_i_glide_lipo>  (1) 
-2.88663826512237

>  <r_i_glide_hbond>  (1) 
-0.588886597890792

>  <r_i_glide_metal>  (1) 
-0

>  <r_i_glide_rewards>  (1) 
-1.72970659941753

>  <r_i_glide_evdw>  (1) 
-56.3821487426758

>  <r_i_glide_ecoul>  (1) 
-15.0135679244995

>  <r_i_glide_erotb>  (1) 
0.654604838208387

>  <r_i_glide_esite>  (1) 
-0.100156028715601

>  <r_i_glide_emodel>  (1) 
-118.169146175613

>  <r_i_glide_energy>  (1) 
-71.3957166671753

>  <r_i_glide_einternal>  (1) 
0.13497057557106

>  <i_i_glide_confnum>  (1) 
4

>  <i_i_glide_posenum>  (1) 
1

>  <r_i_glide_eff_state_penalty>  (1) 
-0

>  <r_i_glide_rmsd>  (1) 
0.0527913099181209

>  <s_glide_core_constrain_type>  (1) 
snapped_core_restrain

$$$$
