lig_CHEMBL3264995
     RDKit          3D

 38 42  0  0  1  0  0  0  0  0999 V2000
    5.6427   -0.4951   16.4680 C   0  0  0  0  0  0  0  0  0  0  0  0
    5.9069    0.4020   15.4734 C   0  0  0  0  0  0  0  0  0  0  0  0
    4.7516    0.5021   14.7303 N   0  0  0  0  0  0  0  0  0  0  0  0
    3.8237   -0.4016   15.2926 C   0  0  0  0  0  0  0  0  0  0  0  0
    4.3713   -1.0376   16.3273 N   0  0  0  0  0  0  0  0  0  0  0  0
    2.5248   -0.4242   14.7095 C   0  0  0  0  0  0  0  0  0  0  0  0
    1.5879   -1.3007   15.2852 N   0  0  0  0  0  0  0  0  0  0  0  0
    0.2198   -1.5354   15.0509 C   0  0  0  0  0  0  0  0  0  0  0  0
   -0.3766   -2.5742   15.7941 C   0  0  0  0  0  0  0  0  0  0  0  0
   -1.7470   -2.8601   15.6589 C   0  0  0  0  0  0  0  0  0  0  0  0
   -2.5475   -2.1083   14.7794 C   0  0  0  0  0  0  0  0  0  0  0  0
   -3.8882   -2.3829   14.6972 O   0  0  0  0  0  0  0  0  0  0  0  0
   -4.2389   -3.1295   13.5445 C   0  0  0  0  0  0  0  0  0  0  0  0
   -1.9771   -1.0615   14.0222 C   0  0  0  0  0  0  0  0  0  0  0  0
   -2.8207   -0.3381   13.2023 O   0  0  0  0  0  0  0  0  0  0  0  0
   -2.2420    0.6641   12.3780 C   0  0  0  0  0  0  0  0  0  0  0  0
   -0.5891   -0.7943   14.1582 C   0  0  0  0  0  0  0  0  0  0  0  0
    2.2097    0.3542   13.7151 N   0  0  0  0  0  0  0  0  0  0  0  0
    3.1466    1.2340   13.2137 C   0  0  0  0  0  0  0  0  0  0  0  0
    2.6891    2.1273   12.1319 C   0  0  0  0  0  0  0  0  0  0  0  0
    3.5975    2.5960   11.1532 C   0  0  0  0  0  0  0  0  0  0  0  0
    3.1655    3.4289   10.1066 C   0  0  0  0  0  0  0  0  0  0  0  0
    1.8135    3.8018   10.0190 C   0  0  0  0  0  0  0  0  0  0  0  0
    0.8897    3.3668   10.9920 C   0  0  0  0  0  0  0  0  0  0  0  0
   -0.5608    3.7212   10.8435 C   0  0  0  0  0  0  0  0  0  0  0  0
   -1.0845    3.7032    9.7285 O   0  0  0  0  0  0  0  0  0  0  0  0
   -1.1869    4.0943   11.9743 N   0  0  0  0  0  0  0  0  0  0  0  0
   -2.5360    4.5238   12.1137 C   0  0  0  0  0  0  0  0  0  0  0  0
   -3.5931    4.0642   11.2904 C   0  0  0  0  0  0  0  0  0  0  0  0
   -4.9056    4.5452   11.4820 C   0  0  0  0  0  0  0  0  0  0  0  0
   -5.1898    5.4803   12.5056 C   0  0  0  0  0  0  0  0  0  0  0  0
   -6.5886    5.9943   12.7222 C   0  0  0  0  0  0  0  0  0  0  0  0
   -7.5251    5.4753   12.0759 O   0  0  0  0  0  0  0  0  0  0  0  0
   -6.7720    6.9041   13.5655 O   0  0  0  0  0  0  0  0  0  0  0  0
   -4.1393    5.9017   13.3459 C   0  0  0  0  0  0  0  0  0  0  0  0
   -2.8270    5.4308   13.1508 C   0  0  0  0  0  0  0  0  0  0  0  0
    1.3375    2.5385   12.0473 C   0  0  0  0  0  0  0  0  0  0  0  0
    4.4325    1.3040   13.6900 C   0  0  0  0  0  0  0  0  0  0  0  0
  1  5  1  0
  1  2  2  0
  2  3  1  0
  3 38  1  0
  3  4  1  0
  4  5  2  0
  4  6  1  0
  6  7  1  0
  6 18  2  0
  7  8  1  0
  8 17  1  0
  8  9  2  0
  9 10  1  0
 10 11  2  0
 11 12  1  0
 11 14  1  0
 12 13  1  0
 14 15  1  0
 14 17  2  0
 15 16  1  0
 18 19  1  0
 19 20  1  0
 19 38  2  0
 20 37  1  0
 20 21  2  0
 21 22  1  0
 22 23  2  0
 23 24  1  0
 24 25  1  0
 24 37  2  0
 25 26  2  0
 25 27  1  0
 27 28  1  0
 28 36  1  0
 28 29  2  0
 29 30  1  0
 30 31  2  0
 31 32  1  0
 31 35  1  0
 32 33  2  0
 32 34  1  0
 35 36  2  0
M  CHG  1  34  -1
M  END
>  <s_m_source_file>  (1) 
ligprep_syk.smi

>  <i_m_source_file_index>  (1) 
3

>  <i_lp_mmshare_version>  (1) 
53161

>  <i_f3d_flags>  (1) 
0

>  <s_epik_input>  (1) 
W0NIM11PYyhbY0hdMSljKE9bQ0gzXSlbY0hdW2NIXWMxW05IXWMoYyhuMjMpbltjSF1bY0hdMiluYyhbY0hdMyktYzRbY0hdW2NIXVtjSF1jKFtjSF00KUMoPU8pW05IXWM1W2NIXVtjSF1jKEMoPU8pW09IXSlbY0hdW2NIXTU=

>  <s_epik_cmdline>  (1) 
J2VwaWtfcHl0aG9uJywgJy1waHQnLCAnMC4wJywgJy1waCcsICc3LjQnLCAnLXRuJywgJzgnLCAnLW1hJywgJzUwMCcsICctaW1hZScsICc8aW5maWxlLm1hZT4nLCAnLW9tYWUnLCAnPG91dGZpbGUubWFlPic=

>  <r_lp_tautomer_probability>  (1) 
1

>  <r_epik_Ionization_Penalty>  (1) 
  0.0011

>  <r_epik_Ionization_Penalty_Charging>  (1) 
  0.0011

>  <r_epik_Ionization_Penalty_Neutral>  (1) 
  0.0000

>  <r_epik_State_Penalty>  (1) 
 -0.0000

>  <r_epik_Charging_Adjusted_Penalty>  (1) 
0.00112862

>  <i_epik_Tot_Q>  (1) 
-1

>  <i_epik_Tot_abs_Q>  (1) 
1

>  <s_lp_Force_Field>  (1) 
S-OPLS

>  <r_lp_Energy>  (1) 
64.0298

>  <b_lp_Chiralities_Consistent>  (1) 
1

>  <s_lp_Variant>  (1) 
lig_CHEMBL3264995-1

>  <s_i_glide_gridfile>  (1) 
glide-grid_SYK-4PV0

>  <i_i_glide_lignum>  (1) 
3

>  <i_i_glide_rotatable_bonds>  (1) 
9

>  <r_i_docking_score>  (1) 
-9.21207213014451

>  <r_i_glide_ligand_efficiency>  (1) 
-0.242422950793277

>  <r_i_glide_ligand_efficiency_sa>  (1) 
-0.815019997622396

>  <r_i_glide_ligand_efficiency_ln>  (1) 
-1.98639374296563

>  <r_i_glide_gscore>  (1) 
-9.21207213014451

>  <r_i_glide_lipo>  (1) 
-2.89483232233208

>  <r_i_glide_hbond>  (1) 
-0.733420567540668

>  <r_i_glide_metal>  (1) 
-0

>  <r_i_glide_rewards>  (1) 
-1.49134523986792

>  <r_i_glide_evdw>  (1) 
-53.765453338623

>  <r_i_glide_ecoul>  (1) 
-13.8565673828125

>  <r_i_glide_erotb>  (1) 
0.712606139972995

>  <r_i_glide_esite>  (1) 
-0.0383223660238128

>  <r_i_glide_emodel>  (1) 
-125.262912522542

>  <r_i_glide_energy>  (1) 
-67.6220207214355

>  <r_i_glide_einternal>  (1) 
-1.23203776070113e-08

>  <i_i_glide_confnum>  (1) 
2

>  <i_i_glide_posenum>  (1) 
2

>  <r_i_glide_eff_state_penalty>  (1) 
-0

>  <r_i_glide_rmsd>  (1) 
0.058331074801279

>  <s_glide_core_constrain_type>  (1) 
snapped_core_restrain

$$$$
