lig_CHEMBL3265028
     RDKit          3D

 27 31  0  0  1  0  0  0  0  0999 V2000
    0.9849    4.6382    9.1179 C   0  0  0  0  0  0  0  0  0  0  0  0
   -0.2617    4.6816    9.5226 N   0  0  0  0  0  0  0  0  0  0  0  0
   -0.2991    3.9386   10.6563 N   0  0  0  0  0  0  0  0  0  0  0  0
    0.9195    3.3854   10.9989 C   0  0  0  0  0  0  0  0  0  0  0  0
    1.3489    2.5549   12.0464 C   0  0  0  0  0  0  0  0  0  0  0  0
    2.6952    2.1319   12.1048 C   0  0  0  0  0  0  0  0  0  0  0  0
    3.1588    1.2395   13.1858 C   0  0  0  0  0  0  0  0  0  0  0  0
    4.4330    1.3368   13.6835 C   0  0  0  0  0  0  0  0  0  0  0  0
    4.7598    0.5274   14.7159 N   0  0  0  0  0  0  0  0  0  0  0  0
    3.8438   -0.4022   15.2572 C   0  0  0  0  0  0  0  0  0  0  0  0
    4.3941   -1.0410   16.2881 N   0  0  0  0  0  0  0  0  0  0  0  0
    5.6575   -0.4918   16.4396 C   0  0  0  0  0  0  0  0  0  0  0  0
    5.9124    0.4312   15.4651 C   0  0  0  0  0  0  0  0  0  0  0  0
    2.5518   -0.4466   14.6567 C   0  0  0  0  0  0  0  0  0  0  0  0
    1.6246   -1.3451   15.2131 N   0  0  0  0  0  0  0  0  0  0  0  0
    0.2488   -1.5580   15.0117 C   0  0  0  0  0  0  0  0  0  0  0  0
   -0.3356   -2.6128   15.7458 C   0  0  0  0  0  0  0  0  0  0  0  0
   -1.7088   -2.8950   15.6331 C   0  0  0  0  0  0  0  0  0  0  0  0
   -2.5186   -2.1164   14.7885 C   0  0  0  0  0  0  0  0  0  0  0  0
   -1.9675   -1.0585   14.0413 C   0  0  0  0  0  0  0  0  0  0  0  0
   -2.8365   -0.3433   13.2433 O   0  0  0  0  0  0  0  0  0  0  0  0
   -2.2919    0.6367   12.3663 C   0  0  0  0  0  0  0  0  0  0  0  0
   -0.5788   -0.7879   14.1571 C   0  0  0  0  0  0  0  0  0  0  0  0
    2.2354    0.3309   13.6611 N   0  0  0  0  0  0  0  0  0  0  0  0
    3.5860    2.5957   11.1052 C   0  0  0  0  0  0  0  0  0  0  0  0
    3.1480    3.4367   10.0603 C   0  0  0  0  0  0  0  0  0  0  0  0
    1.7977    3.8403    9.9831 C   0  0  0  0  0  0  0  0  0  0  0  0
  1 27  1  0
  1  2  2  0
  2  3  1  0
  3  4  1  0
  4 27  2  0
  4  5  1  0
  5  6  2  0
  6  7  1  0
  6 25  1  0
  7 24  1  0
  7  8  2  0
  8  9  1  0
  9 13  1  0
  9 10  1  0
 10 11  2  0
 10 14  1  0
 11 12  1  0
 12 13  2  0
 14 15  1  0
 14 24  2  0
 15 16  1  0
 16 23  1  0
 16 17  2  0
 17 18  1  0
 18 19  2  0
 19 20  1  0
 20 21  1  0
 20 23  2  0
 21 22  1  0
 25 26  2  0
 26 27  1  0
M  END
>  <s_m_source_file>  (1) 
ligprep_syk.smi

>  <i_m_source_file_index>  (1) 
35

>  <i_lp_mmshare_version>  (1) 
53161

>  <i_f3d_flags>  (1) 
0

>  <s_epik_input>  (1) 
W25IXTFuW2NIXWMoYzEyKVtjSF1bY0hdYyhbY0hdMiktYyhbY0hdMyluYyhjKG4zNCluW2NIXVtjSF00KVtOSF1jNVtjSF1bY0hdW2NIXWMoW2NIXTUpT1tDSDNd

>  <s_epik_cmdline>  (1) 
J2VwaWtfcHl0aG9uJywgJy1waHQnLCAnMC4wJywgJy1waCcsICc3LjQnLCAnLXRuJywgJzgnLCAnLW1hJywgJzUwMCcsICctaW1hZScsICc8aW5maWxlLm1hZT4nLCAnLW9tYWUnLCAnPG91dGZpbGUubWFlPic=

>  <r_lp_tautomer_probability>  (1) 
1

>  <r_epik_Ionization_Penalty>  (1) 
  0.0009

>  <r_epik_Ionization_Penalty_Charging>  (1) 
  0.0009

>  <r_epik_Ionization_Penalty_Neutral>  (1) 
  0.0000

>  <r_epik_State_Penalty>  (1) 
 -0.0000

>  <r_epik_Charging_Adjusted_Penalty>  (1) 
0.000851558

>  <i_epik_Tot_Q>  (1) 
0

>  <i_epik_Tot_abs_Q>  (1) 
0

>  <s_lp_Force_Field>  (1) 
S-OPLS

>  <r_lp_Energy>  (1) 
38.6103

>  <b_lp_Chiralities_Consistent>  (1) 
1

>  <s_lp_Variant>  (1) 
lig_CHEMBL3265028-1

>  <s_i_glide_gridfile>  (1) 
glide-grid_SYK-4PV0

>  <i_i_glide_lignum>  (1) 
35

>  <i_i_glide_rotatable_bonds>  (1) 
4

>  <r_i_docking_score>  (1) 
-7.86030709511313

>  <r_i_glide_ligand_efficiency>  (1) 
-0.29112248500419

>  <r_i_glide_ligand_efficiency_sa>  (1) 
-0.873367454053078

>  <r_i_glide_ligand_efficiency_ln>  (1) 
-1.82974990445208

>  <r_i_glide_gscore>  (1) 
-7.86030709511313

>  <r_i_glide_lipo>  (1) 
-2.71021120157985

>  <r_i_glide_hbond>  (1) 
-0.330781477264012

>  <r_i_glide_metal>  (1) 
-0

>  <r_i_glide_rewards>  (1) 
-2.39320761343756

>  <r_i_glide_evdw>  (1) 
-44.0613708496094

>  <r_i_glide_ecoul>  (1) 
-5.49129772186279

>  <r_i_glide_erotb>  (1) 
0.602538440713608

>  <r_i_glide_esite>  (1) 
-0.00188204278541738

>  <r_i_glide_emodel>  (1) 
-76.0589790063779

>  <r_i_glide_energy>  (1) 
-49.5526685714722

>  <r_i_glide_einternal>  (1) 
-3.50855231090463e-07

>  <i_i_glide_confnum>  (1) 
1

>  <i_i_glide_posenum>  (1) 
2

>  <r_i_glide_eff_state_penalty>  (1) 
-0

>  <r_i_glide_rmsd>  (1) 
0.0729743573413004

>  <s_glide_core_constrain_type>  (1) 
snapped_core_restrain

$$$$
