lig_CHEMBL3265026
     RDKit          3D

 30 34  0  0  1  0  0  0  0  0999 V2000
    5.6610   -0.4938   16.4318 C   0  0  0  0  0  0  0  0  0  0  0  0
    5.9070    0.4338   15.4620 C   0  0  0  0  0  0  0  0  0  0  0  0
    4.7495    0.5295   14.7199 N   0  0  0  0  0  0  0  0  0  0  0  0
    3.8366   -0.4048   15.2576 C   0  0  0  0  0  0  0  0  0  0  0  0
    4.3958   -1.0498   16.2809 N   0  0  0  0  0  0  0  0  0  0  0  0
    2.5418   -0.4476   14.6629 C   0  0  0  0  0  0  0  0  0  0  0  0
    1.6151   -1.3550   15.2096 N   0  0  0  0  0  0  0  0  0  0  0  0
    0.2353   -1.5555   15.0109 C   0  0  0  0  0  0  0  0  0  0  0  0
   -0.3639   -2.5930   15.7570 C   0  0  0  0  0  0  0  0  0  0  0  0
   -1.7415   -2.8563   15.6452 C   0  0  0  0  0  0  0  0  0  0  0  0
   -2.5439   -2.0865   14.7817 C   0  0  0  0  0  0  0  0  0  0  0  0
   -3.8847   -2.3534   14.6909 O   0  0  0  0  0  0  0  0  0  0  0  0
   -4.2229   -3.1223   13.5472 C   0  0  0  0  0  0  0  0  0  0  0  0
   -1.9738   -1.0359   14.0283 C   0  0  0  0  0  0  0  0  0  0  0  0
   -2.8220   -0.2984   13.2244 O   0  0  0  0  0  0  0  0  0  0  0  0
   -2.2465    0.6715   12.3580 C   0  0  0  0  0  0  0  0  0  0  0  0
   -0.5826   -0.7852   14.1473 C   0  0  0  0  0  0  0  0  0  0  0  0
    2.2195    0.3360   13.6740 N   0  0  0  0  0  0  0  0  0  0  0  0
    3.1384    1.2482   13.1996 C   0  0  0  0  0  0  0  0  0  0  0  0
    2.6807    2.1377   12.1158 C   0  0  0  0  0  0  0  0  0  0  0  0
    3.5899    2.6272   11.1467 C   0  0  0  0  0  0  0  0  0  0  0  0
    3.1545    3.4537   10.0951 C   0  0  0  0  0  0  0  0  0  0  0  0
    1.7944    3.7951    9.9806 C   0  0  0  0  0  0  0  0  0  0  0  0
    0.8752    3.3377   10.9614 C   0  0  0  0  0  0  0  0  0  0  0  0
    1.3255    2.5275   12.0198 C   0  0  0  0  0  0  0  0  0  0  0  0
   -0.4864    3.6711   10.8908 N   0  0  0  0  0  0  0  0  0  0  0  0
   -0.7974    4.7317    9.9442 C   0  0  0  0  0  0  0  0  0  0  0  0
    0.0034    4.5535    8.6428 C   0  0  0  0  0  0  0  0  0  0  0  0
    1.4003    4.5740    8.9162 O   0  0  0  0  0  0  0  0  0  0  0  0
    4.4134    1.3468   13.6967 C   0  0  0  0  0  0  0  0  0  0  0  0
  1  5  1  0
  1  2  2  0
  2  3  1  0
  3 30  1  0
  3  4  1  0
  4  5  2  0
  4  6  1  0
  6  7  1  0
  6 18  2  0
  7  8  1  0
  8 17  1  0
  8  9  2  0
  9 10  1  0
 10 11  2  0
 11 12  1  0
 11 14  1  0
 12 13  1  0
 14 15  1  0
 14 17  2  0
 15 16  1  0
 18 19  1  0
 19 20  1  0
 19 30  2  0
 20 25  1  0
 20 21  2  0
 21 22  1  0
 22 23  2  0
 23 29  1  0
 23 24  1  0
 24 25  2  0
 24 26  1  0
 26 27  1  0
 27 28  1  0
 28 29  1  0
M  END
>  <s_m_source_file>  (1) 
ligprep_syk.smi

>  <i_m_source_file_index>  (1) 
33

>  <i_lp_mmshare_version>  (1) 
53161

>  <i_f3d_flags>  (1) 
0

>  <s_epik_input>  (1) 
W0NIM11PYyhbY0hdMSljKE9bQ0gzXSlbY0hdW2NIXWMxW05IXWMoYyhuMjMpbltjSF1bY0hdMiluYyhbY0hdMyktYyhbY0hdW2NIXTQpW2NIXWMoYzQ1KVtOSF1bQ0gyXVtDSDJdTzU=

>  <s_epik_cmdline>  (1) 
J2VwaWtfcHl0aG9uJywgJy1waHQnLCAnMC4wJywgJy1waCcsICc3LjQnLCAnLXRuJywgJzgnLCAnLW1hJywgJzUwMCcsICctaW1hZScsICc8aW5maWxlLm1hZT4nLCAnLW9tYWUnLCAnPG91dGZpbGUubWFlPic=

>  <r_lp_tautomer_probability>  (1) 
1

>  <r_epik_Ionization_Penalty>  (1) 
  0.0016

>  <r_epik_Ionization_Penalty_Charging>  (1) 
  0.0014

>  <r_epik_Ionization_Penalty_Neutral>  (1) 
  0.0002

>  <r_epik_State_Penalty>  (1) 
 -0.0000

>  <r_epik_Charging_Adjusted_Penalty>  (1) 
0.00136682

>  <i_epik_Tot_Q>  (1) 
0

>  <i_epik_Tot_abs_Q>  (1) 
0

>  <s_lp_Force_Field>  (1) 
S-OPLS

>  <r_lp_Energy>  (1) 
46.8096

>  <b_lp_Chiralities_Consistent>  (1) 
1

>  <s_lp_Variant>  (1) 
lig_CHEMBL3265026-1

>  <s_i_glide_gridfile>  (1) 
glide-grid_SYK-4PV0

>  <i_i_glide_lignum>  (1) 
33

>  <i_i_glide_rotatable_bonds>  (1) 
5

>  <r_i_docking_score>  (1) 
-7.93039707523688

>  <r_i_glide_ligand_efficiency>  (1) 
-0.264346569174563

>  <r_i_glide_ligand_efficiency_sa>  (1) 
-0.821386251645349

>  <r_i_glide_ligand_efficiency_ln>  (1) 
-1.80187262409074

>  <r_i_glide_gscore>  (1) 
-7.93039707523688

>  <r_i_glide_lipo>  (1) 
-2.83514462120722

>  <r_i_glide_hbond>  (1) 
-0.330321790482883

>  <r_i_glide_metal>  (1) 
-0

>  <r_i_glide_rewards>  (1) 
-2.07026244223044

>  <r_i_glide_evdw>  (1) 
-46.6411247253418

>  <r_i_glide_ecoul>  (1) 
-6.41057682037354

>  <r_i_glide_erotb>  (1) 
0.603144483403495

>  <r_i_glide_esite>  (1) 
-0.00416994539671331

>  <r_i_glide_emodel>  (1) 
-84.5515167244978

>  <r_i_glide_energy>  (1) 
-53.0517015457153

>  <r_i_glide_einternal>  (1) 
1.62062221420456e-07

>  <i_i_glide_confnum>  (1) 
3

>  <i_i_glide_posenum>  (1) 
1

>  <r_i_glide_eff_state_penalty>  (1) 
-0

>  <r_i_glide_rmsd>  (1) 
0.0670151830497275

>  <s_glide_core_constrain_type>  (1) 
snapped_core_restrain

$$$$
