lig_CHEMBL3265020
     RDKit          3D

 29 33  0  0  1  0  0  0  0  0999 V2000
    5.6562   -0.4963   16.4383 C   0  0  0  0  0  0  0  0  0  0  0  0
    5.9114    0.4243   15.4640 C   0  0  0  0  0  0  0  0  0  0  0  0
    4.7552    0.5243   14.7208 N   0  0  0  0  0  0  0  0  0  0  0  0
    3.8360   -0.4029   15.2637 C   0  0  0  0  0  0  0  0  0  0  0  0
    4.3907   -1.0490   16.2892 N   0  0  0  0  0  0  0  0  0  0  0  0
    2.5440   -0.4478   14.6644 C   0  0  0  0  0  0  0  0  0  0  0  0
    1.6125   -1.3517   15.2097 N   0  0  0  0  0  0  0  0  0  0  0  0
    0.2321   -1.5482   15.0116 C   0  0  0  0  0  0  0  0  0  0  0  0
   -0.3721   -2.5774   15.7629 C   0  0  0  0  0  0  0  0  0  0  0  0
   -1.7486   -2.8414   15.6515 C   0  0  0  0  0  0  0  0  0  0  0  0
   -2.5479   -2.0805   14.7770 C   0  0  0  0  0  0  0  0  0  0  0  0
   -3.8875   -2.3520   14.6802 O   0  0  0  0  0  0  0  0  0  0  0  0
   -4.2193   -3.1237   13.5363 C   0  0  0  0  0  0  0  0  0  0  0  0
   -1.9763   -1.0305   14.0265 C   0  0  0  0  0  0  0  0  0  0  0  0
   -2.8269   -0.2918   13.2261 O   0  0  0  0  0  0  0  0  0  0  0  0
   -2.2616    0.6829   12.3584 C   0  0  0  0  0  0  0  0  0  0  0  0
   -0.5854   -0.7787   14.1462 C   0  0  0  0  0  0  0  0  0  0  0  0
    2.2272    0.3299   13.6697 N   0  0  0  0  0  0  0  0  0  0  0  0
    3.1502    1.2375   13.1953 C   0  0  0  0  0  0  0  0  0  0  0  0
    2.6906    2.1265   12.1137 C   0  0  0  0  0  0  0  0  0  0  0  0
    3.5923    2.5789   11.1217 C   0  0  0  0  0  0  0  0  0  0  0  0
    3.1577    3.4132   10.0776 C   0  0  0  0  0  0  0  0  0  0  0  0
    1.8056    3.7900   10.0193 C   0  0  0  0  0  0  0  0  0  0  0  0
    0.8646    3.3648   11.0001 C   0  0  0  0  0  0  0  0  0  0  0  0
    1.3419    2.5474   12.0474 C   0  0  0  0  0  0  0  0  0  0  0  0
   -0.4206    3.9011   10.6477 C   0  0  0  0  0  0  0  0  0  0  0  0
   -0.2447    4.6228    9.4955 C   0  0  0  0  0  0  0  0  0  0  0  0
    1.0893    4.5629    9.1281 N   0  0  0  0  0  0  0  0  0  0  0  0
    4.4249    1.3357   13.6910 C   0  0  0  0  0  0  0  0  0  0  0  0
  1  5  1  0
  1  2  2  0
  2  3  1  0
  3 29  1  0
  3  4  1  0
  4  5  2  0
  4  6  1  0
  6  7  1  0
  6 18  2  0
  7  8  1  0
  8 17  1  0
  8  9  2  0
  9 10  1  0
 10 11  2  0
 11 12  1  0
 11 14  1  0
 12 13  1  0
 14 15  1  0
 14 17  2  0
 15 16  1  0
 18 19  1  0
 19 20  1  0
 19 29  2  0
 20 25  1  0
 20 21  2  0
 21 22  1  0
 22 23  2  0
 23 28  1  0
 23 24  1  0
 24 25  2  0
 24 26  1  0
 26 27  2  0
 27 28  1  0
M  END
>  <s_m_source_file>  (1) 
ligprep_syk.smi

>  <i_m_source_file_index>  (1) 
27

>  <i_lp_mmshare_version>  (1) 
53161

>  <i_f3d_flags>  (1) 
0

>  <s_epik_input>  (1) 
W25IXTFbY0hdW2NIXWMoYzEyKVtjSF1jKFtjSF1bY0hdMiktYyhbY0hdMyluYyhjKG4zNCluW2NIXVtjSF00KVtOSF1jNVtjSF1bY0hdYyhPW0NIM10pYyhbY0hdNSlPW0NIM10=

>  <s_epik_cmdline>  (1) 
J2VwaWtfcHl0aG9uJywgJy1waHQnLCAnMC4wJywgJy1waCcsICc3LjQnLCAnLXRuJywgJzgnLCAnLW1hJywgJzUwMCcsICctaW1hZScsICc8aW5maWxlLm1hZT4nLCAnLW9tYWUnLCAnPG91dGZpbGUubWFlPic=

>  <r_lp_tautomer_probability>  (1) 
1

>  <r_epik_Ionization_Penalty>  (1) 
  0.0009

>  <r_epik_Ionization_Penalty_Charging>  (1) 
  0.0009

>  <r_epik_Ionization_Penalty_Neutral>  (1) 
  0.0000

>  <r_epik_State_Penalty>  (1) 
 -0.0000

>  <r_epik_Charging_Adjusted_Penalty>  (1) 
0.000851558

>  <i_epik_Tot_Q>  (1) 
0

>  <i_epik_Tot_abs_Q>  (1) 
0

>  <s_lp_Force_Field>  (1) 
S-OPLS

>  <r_lp_Energy>  (1) 
46.1252

>  <b_lp_Chiralities_Consistent>  (1) 
1

>  <s_lp_Variant>  (1) 
lig_CHEMBL3265020-1

>  <s_i_glide_gridfile>  (1) 
glide-grid_SYK-4PV0

>  <i_i_glide_lignum>  (1) 
27

>  <i_i_glide_rotatable_bonds>  (1) 
5

>  <r_i_docking_score>  (1) 
-7.73203738723565

>  <r_i_glide_ligand_efficiency>  (1) 
-0.266621978870195

>  <r_i_glide_ligand_efficiency_sa>  (1) 
-0.819147190861119

>  <r_i_glide_ligand_efficiency_ln>  (1) 
-1.77044049412599

>  <r_i_glide_gscore>  (1) 
-7.73203738723565

>  <r_i_glide_lipo>  (1) 
-2.67655497219029

>  <r_i_glide_hbond>  (1) 
-0.336893080197418

>  <r_i_glide_metal>  (1) 
-0

>  <r_i_glide_rewards>  (1) 
-2.19403717249173

>  <r_i_glide_evdw>  (1) 
-46.0207672119141

>  <r_i_glide_ecoul>  (1) 
-5.85520839691162

>  <r_i_glide_erotb>  (1) 
0.654767457776244

>  <r_i_glide_esite>  (1) 
0

>  <r_i_glide_emodel>  (1) 
-82.2686840181531

>  <r_i_glide_energy>  (1) 
-51.8759756088257

>  <r_i_glide_einternal>  (1) 
-6.51566722353891e-07

>  <i_i_glide_confnum>  (1) 
2

>  <i_i_glide_posenum>  (1) 
1

>  <r_i_glide_eff_state_penalty>  (1) 
-0

>  <r_i_glide_rmsd>  (1) 
0.0684475545071904

>  <s_glide_core_constrain_type>  (1) 
snapped_core_restrain

$$$$
