lig_CHEMBL3264997
     RDKit          3D

 38 42  0  0  1  0  0  0  0  0999 V2000
    5.6607   -0.4889   16.4360 C   0  0  0  0  0  0  0  0  0  0  0  0
    5.9081    0.4403   15.4692 C   0  0  0  0  0  0  0  0  0  0  0  0
    4.7520    0.5394   14.7222 N   0  0  0  0  0  0  0  0  0  0  0  0
    3.8401   -0.4018   15.2555 C   0  0  0  0  0  0  0  0  0  0  0  0
    4.3982   -1.0503   16.2770 N   0  0  0  0  0  0  0  0  0  0  0  0
    2.5473   -0.4404   14.6556 C   0  0  0  0  0  0  0  0  0  0  0  0
    1.6173   -1.3394   15.2079 N   0  0  0  0  0  0  0  0  0  0  0  0
    0.2393   -1.5436   15.0065 C   0  0  0  0  0  0  0  0  0  0  0  0
   -0.3533   -2.5848   15.7515 C   0  0  0  0  0  0  0  0  0  0  0  0
   -1.7288   -2.8571   15.6392 C   0  0  0  0  0  0  0  0  0  0  0  0
   -2.5344   -2.0857   14.7804 C   0  0  0  0  0  0  0  0  0  0  0  0
   -3.8738   -2.3554   14.6919 O   0  0  0  0  0  0  0  0  0  0  0  0
   -4.2140   -3.1205   13.5458 C   0  0  0  0  0  0  0  0  0  0  0  0
   -1.9705   -1.0330   14.0272 C   0  0  0  0  0  0  0  0  0  0  0  0
   -2.8285   -0.2988   13.2308 O   0  0  0  0  0  0  0  0  0  0  0  0
   -2.2780    0.6741   12.3540 C   0  0  0  0  0  0  0  0  0  0  0  0
   -0.5799   -0.7767   14.1412 C   0  0  0  0  0  0  0  0  0  0  0  0
    2.2263    0.3437   13.6634 N   0  0  0  0  0  0  0  0  0  0  0  0
    3.1462    1.2604   13.1976 C   0  0  0  0  0  0  0  0  0  0  0  0
    2.6978    2.1520   12.1099 C   0  0  0  0  0  0  0  0  0  0  0  0
    3.6076    2.6081   11.1261 C   0  0  0  0  0  0  0  0  0  0  0  0
    3.1851    3.4441   10.0763 C   0  0  0  0  0  0  0  0  0  0  0  0
    1.8350    3.8276    9.9849 C   0  0  0  0  0  0  0  0  0  0  0  0
    0.9074    3.3930   10.9576 C   0  0  0  0  0  0  0  0  0  0  0  0
   -0.5468    3.7306   10.8070 C   0  0  0  0  0  0  0  0  0  0  0  0
   -1.0806    3.6510    9.6996 O   0  0  0  0  0  0  0  0  0  0  0  0
   -1.1561    4.1453   11.9346 N   0  0  0  0  0  0  0  0  0  0  0  0
   -2.5110    4.5553   12.0943 C   0  0  0  0  0  0  0  0  0  0  0  0
   -2.8082    5.4589   13.1355 C   0  0  0  0  0  0  0  0  0  0  0  0
   -4.1283    5.9040   13.3410 C   0  0  0  0  0  0  0  0  0  0  0  0
   -5.1638    5.4458   12.5040 C   0  0  0  0  0  0  0  0  0  0  0  0
   -4.8984    4.4966   11.4895 C   0  0  0  0  0  0  0  0  0  0  0  0
   -6.0208    3.9266   10.6657 C   0  0  0  0  0  0  0  0  0  0  0  0
   -5.7668    2.9978    9.8674 O   0  0  0  0  0  0  0  0  0  0  0  0
   -7.1809    4.3607   10.8466 O   0  0  0  0  0  0  0  0  0  0  0  0
   -3.5680    4.0602   11.2907 C   0  0  0  0  0  0  0  0  0  0  0  0
    1.3502    2.5709   12.0188 C   0  0  0  0  0  0  0  0  0  0  0  0
    4.4170    1.3625   13.7042 C   0  0  0  0  0  0  0  0  0  0  0  0
  1  5  1  0
  1  2  2  0
  2  3  1  0
  3 38  1  0
  3  4  1  0
  4  5  2  0
  4  6  1  0
  6  7  1  0
  6 18  2  0
  7  8  1  0
  8 17  1  0
  8  9  2  0
  9 10  1  0
 10 11  2  0
 11 12  1  0
 11 14  1  0
 12 13  1  0
 14 15  1  0
 14 17  2  0
 15 16  1  0
 18 19  1  0
 19 20  1  0
 19 38  2  0
 20 37  1  0
 20 21  2  0
 21 22  1  0
 22 23  2  0
 23 24  1  0
 24 25  1  0
 24 37  2  0
 25 26  2  0
 25 27  1  0
 27 28  1  0
 28 36  1  0
 28 29  2  0
 29 30  1  0
 30 31  2  0
 31 32  1  0
 32 33  1  0
 32 36  2  0
 33 34  2  0
 33 35  1  0
M  CHG  1  35  -1
M  END
>  <s_m_source_file>  (1) 
ligprep_syk.smi

>  <i_m_source_file_index>  (1) 
5

>  <i_lp_mmshare_version>  (1) 
53161

>  <i_f3d_flags>  (1) 
0

>  <s_epik_input>  (1) 
W0NIM11PYyhbY0hdMSljKE9bQ0gzXSlbY0hdW2NIXWMxW05IXWMoYyhuMjMpbltjSF1bY0hdMiluYyhbY0hdMyktYzRbY0hdW2NIXVtjSF1jKFtjSF00KUMoPU8pW05IXWM1W2NIXVtjSF1bY0hdYyhbY0hdNSlDKD1PKVtPSF0=

>  <s_epik_cmdline>  (1) 
J2VwaWtfcHl0aG9uJywgJy1waHQnLCAnMC4wJywgJy1waCcsICc3LjQnLCAnLXRuJywgJzgnLCAnLW1hJywgJzUwMCcsICctaW1hZScsICc8aW5maWxlLm1hZT4nLCAnLW9tYWUnLCAnPG91dGZpbGUubWFlPic=

>  <r_lp_tautomer_probability>  (1) 
1

>  <r_epik_Ionization_Penalty>  (1) 
  0.0011

>  <r_epik_Ionization_Penalty_Charging>  (1) 
  0.0011

>  <r_epik_Ionization_Penalty_Neutral>  (1) 
  0.0000

>  <r_epik_State_Penalty>  (1) 
 -0.0000

>  <r_epik_Charging_Adjusted_Penalty>  (1) 
0.00105228

>  <i_epik_Tot_Q>  (1) 
-1

>  <i_epik_Tot_abs_Q>  (1) 
1

>  <s_lp_Force_Field>  (1) 
S-OPLS

>  <r_lp_Energy>  (1) 
70.3573

>  <b_lp_Chiralities_Consistent>  (1) 
1

>  <s_lp_Variant>  (1) 
lig_CHEMBL3264997-1

>  <s_i_glide_gridfile>  (1) 
glide-grid_SYK-4PV0

>  <i_i_glide_lignum>  (1) 
5

>  <i_i_glide_rotatable_bonds>  (1) 
9

>  <r_i_docking_score>  (1) 
-8.52711892580432

>  <r_i_glide_ligand_efficiency>  (1) 
-0.224397866468535

>  <r_i_glide_ligand_efficiency_sa>  (1) 
-0.754420107490615

>  <r_i_glide_ligand_efficiency_ln>  (1) 
-1.83869768282805

>  <r_i_glide_gscore>  (1) 
-8.52711892580432

>  <r_i_glide_lipo>  (1) 
-2.91901436373452

>  <r_i_glide_hbond>  (1) 
-0.585861267124308

>  <r_i_glide_metal>  (1) 
-0

>  <r_i_glide_rewards>  (1) 
-1.39018446881156

>  <r_i_glide_evdw>  (1) 
-53.5760612487793

>  <r_i_glide_ecoul>  (1) 
-10.8376903533936

>  <r_i_glide_erotb>  (1) 
0.712606139972995

>  <r_i_glide_esite>  (1) 
-0.0402083506589247

>  <r_i_glide_emodel>  (1) 
-100.232898298284

>  <r_i_glide_energy>  (1) 
-64.4137516021729

>  <r_i_glide_einternal>  (1) 
0.0224192813038826

>  <i_i_glide_confnum>  (1) 
2

>  <i_i_glide_posenum>  (1) 
2

>  <r_i_glide_eff_state_penalty>  (1) 
-0

>  <r_i_glide_rmsd>  (1) 
0.0751642295471919

>  <s_glide_core_constrain_type>  (1) 
snapped_core_restrain

$$$$
