lig_CHEMBL3265034
     RDKit          3D

 31 36  0  0  1  0  0  0  0  0999 V2000
    0.9936    4.7010    9.1304 C   0  0  0  0  0  0  0  0  0  0  0  0
   -0.2353    4.8135    9.5751 N   0  0  0  0  0  0  0  0  0  0  0  0
   -0.2742    4.0806   10.7168 N   0  0  0  0  0  0  0  0  0  0  0  0
    0.9256    3.4667   11.0291 C   0  0  0  0  0  0  0  0  0  0  0  0
    1.3458    2.6233   12.0708 C   0  0  0  0  0  0  0  0  0  0  0  0
    2.6755    2.1442   12.0976 C   0  0  0  0  0  0  0  0  0  0  0  0
    3.1381    1.2445   13.1765 C   0  0  0  0  0  0  0  0  0  0  0  0
    4.4210    1.3325   13.6603 C   0  0  0  0  0  0  0  0  0  0  0  0
    4.7564    0.5224   14.6953 N   0  0  0  0  0  0  0  0  0  0  0  0
    3.8419   -0.4021   15.2412 C   0  0  0  0  0  0  0  0  0  0  0  0
    4.3948   -1.0482   16.2691 N   0  0  0  0  0  0  0  0  0  0  0  0
    5.6585   -0.4941   16.4245 C   0  0  0  0  0  0  0  0  0  0  0  0
    5.9126    0.4240   15.4443 C   0  0  0  0  0  0  0  0  0  0  0  0
    2.5461   -0.4403   14.6491 C   0  0  0  0  0  0  0  0  0  0  0  0
    1.6331   -1.3398   15.2200 N   0  0  0  0  0  0  0  0  0  0  0  0
    0.2645   -1.5771   15.0244 C   0  0  0  0  0  0  0  0  0  0  0  0
   -0.5797   -0.8270   14.1730 C   0  0  0  0  0  0  0  0  0  0  0  0
   -1.9449   -1.1536   14.0511 C   0  0  0  0  0  0  0  0  0  0  0  0
   -2.4907   -2.2371   14.7771 C   0  0  0  0  0  0  0  0  0  0  0  0
   -3.9545   -2.6453   14.6623 C   0  0  0  0  0  0  0  0  0  0  0  0
   -4.8357   -1.8343   15.6236 C   0  0  0  0  0  0  0  0  0  0  0  0
   -6.3205   -2.1910   15.4379 C   0  0  0  0  0  0  0  0  0  0  0  0
   -6.6922   -2.0031   14.0735 O   0  0  0  0  0  0  0  0  0  0  0  0
   -6.0095   -2.8986   13.1995 C   0  0  0  0  0  0  0  0  0  0  0  0
   -4.5044   -2.5840   13.2224 C   0  0  0  0  0  0  0  0  0  0  0  0
   -1.6554   -2.9610   15.6489 C   0  0  0  0  0  0  0  0  0  0  0  0
   -0.2931   -2.6374   15.7648 C   0  0  0  0  0  0  0  0  0  0  0  0
    2.2138    0.3419   13.6614 N   0  0  0  0  0  0  0  0  0  0  0  0
    3.5567    2.5551   11.0658 C   0  0  0  0  0  0  0  0  0  0  0  0
    3.1268    3.3998   10.0196 C   0  0  0  0  0  0  0  0  0  0  0  0
    1.7943    3.8703    9.9799 C   0  0  0  0  0  0  0  0  0  0  0  0
  1 31  1  0
  1  2  2  0
  2  3  1  0
  3  4  1  0
  4 31  2  0
  4  5  1  0
  5  6  2  0
  6  7  1  0
  6 29  1  0
  7 28  1  0
  7  8  2  0
  8  9  1  0
  9 13  1  0
  9 10  1  0
 10 11  2  0
 10 14  1  0
 11 12  1  0
 12 13  2  0
 14 15  1  0
 14 28  2  0
 15 16  1  0
 16 27  1  0
 16 17  2  0
 17 18  1  0
 18 19  2  0
 19 20  1  0
 19 26  1  0
 20 25  1  0
 20 21  1  0
 21 22  1  0
 22 23  1  0
 23 24  1  0
 24 25  1  0
 26 27  2  0
 29 30  2  0
 30 31  1  0
M  END
>  <s_m_source_file>  (1) 
ligprep_syk.smi

>  <i_m_source_file_index>  (1) 
41

>  <i_lp_mmshare_version>  (1) 
53161

>  <i_f3d_flags>  (1) 
0

>  <s_epik_input>  (1) 
W25IXTFuW2NIXWMoYzEyKVtjSF1bY0hdYyhbY0hdMiktYyhbY0hdMyluYyhjKG4zNCluW2NIXVtjSF00KVtOSF1jNVtjSF1bY0hdYyhbY0hdW2NIXTUpW0NIXTZbQ0gyXVtDSDJdT1tDSDJdW0NIMl02

>  <s_epik_cmdline>  (1) 
J2VwaWtfcHl0aG9uJywgJy1waHQnLCAnMC4wJywgJy1waCcsICc3LjQnLCAnLXRuJywgJzgnLCAnLW1hJywgJzUwMCcsICctaW1hZScsICc8aW5maWxlLm1hZT4nLCAnLW9tYWUnLCAnPG91dGZpbGUubWFlPic=

>  <r_lp_tautomer_probability>  (1) 
1

>  <r_epik_Ionization_Penalty>  (1) 
  0.0009

>  <r_epik_Ionization_Penalty_Charging>  (1) 
  0.0009

>  <r_epik_Ionization_Penalty_Neutral>  (1) 
  0.0000

>  <r_epik_State_Penalty>  (1) 
 -0.0000

>  <r_epik_Charging_Adjusted_Penalty>  (1) 
0.000851558

>  <i_epik_Tot_Q>  (1) 
0

>  <i_epik_Tot_abs_Q>  (1) 
0

>  <s_lp_Force_Field>  (1) 
S-OPLS

>  <r_lp_Energy>  (1) 
39.6429

>  <b_lp_Chiralities_Consistent>  (1) 
1

>  <s_lp_Variant>  (1) 
lig_CHEMBL3265034-1

>  <s_i_glide_gridfile>  (1) 
glide-grid_SYK-4PV0

>  <i_i_glide_lignum>  (1) 
42

>  <i_i_glide_rotatable_bonds>  (1) 
4

>  <r_i_docking_score>  (1) 
-8.11254011516917

>  <r_i_glide_ligand_efficiency>  (1) 
-0.261694842424812

>  <r_i_glide_ligand_efficiency_sa>  (1) 
-0.822083113882911

>  <r_i_glide_ligand_efficiency_ln>  (1) 
-1.8296264154671

>  <r_i_glide_gscore>  (1) 
-8.11254011516917

>  <r_i_glide_lipo>  (1) 
-2.69824644873919

>  <r_i_glide_hbond>  (1) 
-0.429549464635107

>  <r_i_glide_metal>  (1) 
-0

>  <r_i_glide_rewards>  (1) 
-2.02350856885651

>  <r_i_glide_evdw>  (1) 
-46.1795616149902

>  <r_i_glide_ecoul>  (1) 
-7.43753623962402

>  <r_i_glide_erotb>  (1) 
0.46770538349416

>  <r_i_glide_esite>  (1) 
-0.00433249973940003

>  <r_i_glide_emodel>  (1) 
-77.4144901040852

>  <r_i_glide_energy>  (1) 
-53.6170978546143

>  <r_i_glide_einternal>  (1) 
1.1413893699646

>  <i_i_glide_confnum>  (1) 
7

>  <i_i_glide_posenum>  (1) 
7

>  <r_i_glide_eff_state_penalty>  (1) 
-0

>  <r_i_glide_rmsd>  (1) 
0.0916283698198473

>  <s_glide_core_constrain_type>  (1) 
snapped_core_restrain

$$$$
