lig_CHEMBL3265004
     RDKit          3D

 40 45  0  0  1  0  0  0  0  0999 V2000
   -7.1846    6.4431   13.7375 C   0  0  0  0  0  0  0  0  0  0  0  0
   -8.4763    6.6781   13.6154 N   0  0  0  0  0  0  0  0  0  0  0  0
   -8.7818    6.1727   12.4027 N   0  0  0  0  0  0  0  0  0  0  0  0
   -7.6929    5.6440   11.7466 C   0  0  0  0  0  0  0  0  0  0  0  0
   -6.6342    5.8206   12.5952 C   0  0  0  0  0  0  0  0  0  0  0  0
   -5.2326    5.4043   12.4010 C   0  0  0  0  0  0  0  0  0  0  0  0
   -4.2013    5.8536   13.2608 C   0  0  0  0  0  0  0  0  0  0  0  0
   -2.8662    5.4377   13.0736 C   0  0  0  0  0  0  0  0  0  0  0  0
   -2.5345    4.5524   12.0284 C   0  0  0  0  0  0  0  0  0  0  0  0
   -1.1735    4.1547   11.8978 N   0  0  0  0  0  0  0  0  0  0  0  0
   -0.5424    3.7287   10.7863 C   0  0  0  0  0  0  0  0  0  0  0  0
   -1.0593    3.6506    9.6729 O   0  0  0  0  0  0  0  0  0  0  0  0
    0.9077    3.3918   10.9526 C   0  0  0  0  0  0  0  0  0  0  0  0
    1.8339    3.8157    9.9766 C   0  0  0  0  0  0  0  0  0  0  0  0
    3.1843    3.4420   10.0728 C   0  0  0  0  0  0  0  0  0  0  0  0
    3.6125    2.6218   11.1304 C   0  0  0  0  0  0  0  0  0  0  0  0
    2.6993    2.1652   12.1109 C   0  0  0  0  0  0  0  0  0  0  0  0
    3.1554    1.2621   13.1898 C   0  0  0  0  0  0  0  0  0  0  0  0
    4.4354    1.3323   13.6786 C   0  0  0  0  0  0  0  0  0  0  0  0
    4.7585    0.5166   14.7163 N   0  0  0  0  0  0  0  0  0  0  0  0
    3.8367   -0.4064   15.2590 C   0  0  0  0  0  0  0  0  0  0  0  0
    4.3706   -1.0469   16.2945 N   0  0  0  0  0  0  0  0  0  0  0  0
    5.6386   -0.4998   16.4496 C   0  0  0  0  0  0  0  0  0  0  0  0
    5.9153    0.4014   15.4584 C   0  0  0  0  0  0  0  0  0  0  0  0
    2.5428   -0.4276   14.6576 C   0  0  0  0  0  0  0  0  0  0  0  0
    1.6012   -1.3205   15.2101 N   0  0  0  0  0  0  0  0  0  0  0  0
    0.2236   -1.5247   14.9950 C   0  0  0  0  0  0  0  0  0  0  0  0
   -0.3793   -2.5591   15.7414 C   0  0  0  0  0  0  0  0  0  0  0  0
   -1.7549   -2.8236   15.6202 C   0  0  0  0  0  0  0  0  0  0  0  0
   -2.5491   -2.0610   14.7433 C   0  0  0  0  0  0  0  0  0  0  0  0
   -3.8888   -2.3309   14.6485 O   0  0  0  0  0  0  0  0  0  0  0  0
   -4.2219   -3.1119   13.5123 C   0  0  0  0  0  0  0  0  0  0  0  0
   -1.9742   -1.0159   13.9912 C   0  0  0  0  0  0  0  0  0  0  0  0
   -2.8213   -0.2842   13.1800 O   0  0  0  0  0  0  0  0  0  0  0  0
   -2.2494    0.6923   12.3240 C   0  0  0  0  0  0  0  0  0  0  0  0
   -0.5862   -0.7608   14.1201 C   0  0  0  0  0  0  0  0  0  0  0  0
    2.2265    0.3622   13.6751 N   0  0  0  0  0  0  0  0  0  0  0  0
    1.3502    2.5830   12.0209 C   0  0  0  0  0  0  0  0  0  0  0  0
   -3.5678    4.0794   11.1883 C   0  0  0  0  0  0  0  0  0  0  0  0
   -4.8923    4.5108   11.3658 C   0  0  0  0  0  0  0  0  0  0  0  0
  1  5  1  0
  1  2  2  0
  2  3  1  0
  3  4  1  0
  4  5  2  0
  5  6  1  0
  6 40  1  0
  6  7  2  0
  7  8  1  0
  8  9  2  0
  9 10  1  0
  9 39  1  0
 10 11  1  0
 11 12  2  0
 11 13  1  0
 13 38  1  0
 13 14  2  0
 14 15  1  0
 15 16  2  0
 16 17  1  0
 17 18  1  0
 17 38  2  0
 18 37  1  0
 18 19  2  0
 19 20  1  0
 20 24  1  0
 20 21  1  0
 21 22  2  0
 21 25  1  0
 22 23  1  0
 23 24  2  0
 25 26  1  0
 25 37  2  0
 26 27  1  0
 27 36  1  0
 27 28  2  0
 28 29  1  0
 29 30  2  0
 30 31  1  0
 30 33  1  0
 31 32  1  0
 33 34  1  0
 33 36  2  0
 34 35  1  0
 39 40  2  0
M  END
>  <s_m_source_file>  (1) 
ligprep_syk.smi

>  <i_m_source_file_index>  (1) 
12

>  <i_lp_mmshare_version>  (1) 
53161

>  <i_f3d_flags>  (1) 
0

>  <s_epik_input>  (1) 
W2NIXTFbbkhdbltjSF1jMS1jMltjSF1bY0hdYyhbY0hdW2NIXTIpW05IXUMoPU8pYzNbY0hdW2NIXVtjSF1jKFtjSF0zKS1jKFtjSF00KW5jKGMobjQ1KW5bY0hdW2NIXTUpW05IXWM2W2NIXVtjSF1jKE9bQ0gzXSljKFtjSF02KU9bQ0gzXQ==

>  <s_epik_cmdline>  (1) 
J2VwaWtfcHl0aG9uJywgJy1waHQnLCAnMC4wJywgJy1waCcsICc3LjQnLCAnLXRuJywgJzgnLCAnLW1hJywgJzUwMCcsICctaW1hZScsICc8aW5maWxlLm1hZT4nLCAnLW9tYWUnLCAnPG91dGZpbGUubWFlPic=

>  <r_lp_tautomer_probability>  (1) 
1

>  <r_epik_Ionization_Penalty>  (1) 
  0.0009

>  <r_epik_Ionization_Penalty_Charging>  (1) 
  0.0009

>  <r_epik_Ionization_Penalty_Neutral>  (1) 
  0.0000

>  <r_epik_State_Penalty>  (1) 
 -0.0000

>  <r_epik_Charging_Adjusted_Penalty>  (1) 
0.000851558

>  <i_epik_Tot_Q>  (1) 
0

>  <i_epik_Tot_abs_Q>  (1) 
0

>  <s_lp_Force_Field>  (1) 
S-OPLS

>  <r_lp_Energy>  (1) 
58.9547

>  <b_lp_Chiralities_Consistent>  (1) 
1

>  <s_lp_Variant>  (1) 
lig_CHEMBL3265004-1

>  <s_i_glide_gridfile>  (1) 
glide-grid_SYK-4PV0

>  <i_i_glide_lignum>  (1) 
12

>  <i_i_glide_rotatable_bonds>  (1) 
9

>  <r_i_docking_score>  (1) 
-8.42890515597874

>  <r_i_glide_ligand_efficiency>  (1) 
-0.210722628899468

>  <r_i_glide_ligand_efficiency_sa>  (1) 
-0.720661252790998

>  <r_i_glide_ligand_efficiency_ln>  (1) 
-1.79763741816467

>  <r_i_glide_gscore>  (1) 
-8.42890515597874

>  <r_i_glide_lipo>  (1) 
-2.99016584949335

>  <r_i_glide_hbond>  (1) 
-0.56072555364018

>  <r_i_glide_metal>  (1) 
-0

>  <r_i_glide_rewards>  (1) 
-1.3996375108394

>  <r_i_glide_evdw>  (1) 
-55.8474273681641

>  <r_i_glide_ecoul>  (1) 
-8.72476959228516

>  <r_i_glide_erotb>  (1) 
0.65680244910293

>  <r_i_glide_esite>  (1) 
-0.0340918838577619

>  <r_i_glide_emodel>  (1) 
-94.8324831961526

>  <r_i_glide_energy>  (1) 
-64.5721969604492

>  <r_i_glide_einternal>  (1) 
0.0525419302284718

>  <i_i_glide_confnum>  (1) 
4

>  <i_i_glide_posenum>  (1) 
3

>  <r_i_glide_eff_state_penalty>  (1) 
-0

>  <r_i_glide_rmsd>  (1) 
0.0902550581578524

>  <s_glide_core_constrain_type>  (1) 
snapped_core_restrain

$$$$
