lig_CHEMBL3265025
     RDKit          3D

 31 35  0  0  1  0  0  0  0  0999 V2000
    5.6574   -0.4862   16.4374 C   0  0  0  0  0  0  0  0  0  0  0  0
    5.9036    0.4434   15.4690 C   0  0  0  0  0  0  0  0  0  0  0  0
    4.7512    0.5289   14.7161 N   0  0  0  0  0  0  0  0  0  0  0  0
    3.8382   -0.4032   15.2593 C   0  0  0  0  0  0  0  0  0  0  0  0
    4.3918   -1.0392   16.2909 N   0  0  0  0  0  0  0  0  0  0  0  0
    2.5501   -0.4607   14.6545 C   0  0  0  0  0  0  0  0  0  0  0  0
    1.6181   -1.3627   15.2019 N   0  0  0  0  0  0  0  0  0  0  0  0
    0.2373   -1.5560   15.0016 C   0  0  0  0  0  0  0  0  0  0  0  0
   -0.3657   -2.5927   15.7458 C   0  0  0  0  0  0  0  0  0  0  0  0
   -1.7427   -2.8495   15.6298 C   0  0  0  0  0  0  0  0  0  0  0  0
   -2.5393   -2.0746   14.7667 C   0  0  0  0  0  0  0  0  0  0  0  0
   -3.8803   -2.3363   14.6754 O   0  0  0  0  0  0  0  0  0  0  0  0
   -4.2176   -3.1166   13.5395 C   0  0  0  0  0  0  0  0  0  0  0  0
   -1.9674   -1.0220   14.0213 C   0  0  0  0  0  0  0  0  0  0  0  0
   -2.8199   -0.2796   13.2274 O   0  0  0  0  0  0  0  0  0  0  0  0
   -2.2500    0.6832   12.3526 C   0  0  0  0  0  0  0  0  0  0  0  0
   -0.5753   -0.7733   14.1419 C   0  0  0  0  0  0  0  0  0  0  0  0
    2.2330    0.3125   13.6571 N   0  0  0  0  0  0  0  0  0  0  0  0
    3.1470    1.2275   13.1811 C   0  0  0  0  0  0  0  0  0  0  0  0
    2.6696    2.1169   12.1064 C   0  0  0  0  0  0  0  0  0  0  0  0
    3.5590    2.5950   11.1147 C   0  0  0  0  0  0  0  0  0  0  0  0
    3.1130    3.4543   10.0932 C   0  0  0  0  0  0  0  0  0  0  0  0
    1.7635    3.8534   10.0621 C   0  0  0  0  0  0  0  0  0  0  0  0
    0.8577    3.3766   11.0327 C   0  0  0  0  0  0  0  0  0  0  0  0
    1.3147    2.5168   12.0466 C   0  0  0  0  0  0  0  0  0  0  0  0
   -0.4760    3.7049   10.9670 O   0  0  0  0  0  0  0  0  0  0  0  0
   -0.8211    4.9332   10.3098 C   0  0  0  0  0  0  0  0  0  0  0  0
    0.0675    5.2605    9.0916 C   0  0  0  0  0  0  0  0  0  0  0  0
   -0.3249    6.0421    8.2288 O   0  0  0  0  0  0  0  0  0  0  0  0
    1.2876    4.7089    9.0480 N   0  0  0  0  0  0  0  0  0  0  0  0
    4.4212    1.3360   13.6809 C   0  0  0  0  0  0  0  0  0  0  0  0
  1  5  1  0
  1  2  2  0
  2  3  1  0
  3 31  1  0
  3  4  1  0
  4  5  2  0
  4  6  1  0
  6  7  1  0
  6 18  2  0
  7  8  1  0
  8 17  1  0
  8  9  2  0
  9 10  1  0
 10 11  2  0
 11 12  1  0
 11 14  1  0
 12 13  1  0
 14 15  1  0
 14 17  2  0
 15 16  1  0
 18 19  1  0
 19 20  1  0
 19 31  2  0
 20 25  1  0
 20 21  2  0
 21 22  1  0
 22 23  2  0
 23 30  1  0
 23 24  1  0
 24 25  2  0
 24 26  1  0
 26 27  1  0
 27 28  1  0
 28 29  2  0
 28 30  1  0
M  END
>  <s_m_source_file>  (1) 
ligprep_syk.smi

>  <i_m_source_file_index>  (1) 
32

>  <i_lp_mmshare_version>  (1) 
53161

>  <i_f3d_flags>  (1) 
0

>  <s_epik_input>  (1) 
W0NIM11PYyhbY0hdMSljKE9bQ0gzXSlbY0hdW2NIXWMxW05IXWMoYyhuMjMpbltjSF1bY0hdMiluYyhbY0hdMyktYyhbY0hdW2NIXTQpW2NIXWMoYzQ1KU9bQ0gyXUMoPU8pW05IXTU=

>  <s_epik_cmdline>  (1) 
J2VwaWtfcHl0aG9uJywgJy1waHQnLCAnMC4wJywgJy1waCcsICc3LjQnLCAnLXRuJywgJzgnLCAnLW1hJywgJzUwMCcsICctaW1hZScsICc8aW5maWxlLm1hZT4nLCAnLW9tYWUnLCAnPG91dGZpbGUubWFlPic=

>  <r_lp_tautomer_probability>  (1) 
1

>  <r_epik_Ionization_Penalty>  (1) 
  0.0009

>  <r_epik_Ionization_Penalty_Charging>  (1) 
  0.0009

>  <r_epik_Ionization_Penalty_Neutral>  (1) 
  0.0000

>  <r_epik_State_Penalty>  (1) 
 -0.0000

>  <r_epik_Charging_Adjusted_Penalty>  (1) 
0.000851558

>  <i_epik_Tot_Q>  (1) 
0

>  <i_epik_Tot_abs_Q>  (1) 
0

>  <s_lp_Force_Field>  (1) 
S-OPLS

>  <r_lp_Energy>  (1) 
52.5744

>  <b_lp_Chiralities_Consistent>  (1) 
1

>  <s_lp_Variant>  (1) 
lig_CHEMBL3265025-1

>  <s_i_glide_gridfile>  (1) 
glide-grid_SYK-4PV0

>  <i_i_glide_lignum>  (1) 
32

>  <i_i_glide_rotatable_bonds>  (1) 
5

>  <r_i_docking_score>  (1) 
-7.75705613458519

>  <r_i_glide_ligand_efficiency>  (1) 
-0.250227617244684

>  <r_i_glide_ligand_efficiency_sa>  (1) 
-0.786060194606675

>  <r_i_glide_ligand_efficiency_ln>  (1) 
-1.74945388356977

>  <r_i_glide_gscore>  (1) 
-7.75705613458519

>  <r_i_glide_lipo>  (1) 
-2.60214512347968

>  <r_i_glide_hbond>  (1) 
-0.33241157361101

>  <r_i_glide_metal>  (1) 
-0

>  <r_i_glide_rewards>  (1) 
-2.14231948102871

>  <r_i_glide_evdw>  (1) 
-47.7909164428711

>  <r_i_glide_ecoul>  (1) 
-5.71879291534424

>  <r_i_glide_erotb>  (1) 
0.56718480297939

>  <r_i_glide_esite>  (1) 
0

>  <r_i_glide_emodel>  (1) 
-83.8248906891346

>  <r_i_glide_energy>  (1) 
-53.5097093582153

>  <r_i_glide_einternal>  (1) 
5.99553459323943e-07

>  <i_i_glide_confnum>  (1) 
2

>  <i_i_glide_posenum>  (1) 
1

>  <r_i_glide_eff_state_penalty>  (1) 
-0

>  <r_i_glide_rmsd>  (1) 
0.0741623798727515

>  <s_glide_core_constrain_type>  (1) 
snapped_core_restrain

$$$$
