lig_CHEMBL3265000
     RDKit          3D

 42 46  0  0  1  0  0  0  0  0999 V2000
    5.6655   -0.5000   16.4357 C   0  0  0  0  0  0  0  0  0  0  0  0
    5.9298    0.4219   15.4572 C   0  0  0  0  0  0  0  0  0  0  0  0
    4.7784    0.5343   14.7127 N   0  0  0  0  0  0  0  0  0  0  0  0
    3.8596   -0.4009   15.2516 C   0  0  0  0  0  0  0  0  0  0  0  0
    4.4122   -1.0377   16.2759 N   0  0  0  0  0  0  0  0  0  0  0  0
    2.5630   -0.4362   14.6442 C   0  0  0  0  0  0  0  0  0  0  0  0
    1.6230   -1.3337   15.1955 N   0  0  0  0  0  0  0  0  0  0  0  0
    0.2445   -1.5233   14.9832 C   0  0  0  0  0  0  0  0  0  0  0  0
   -0.3620   -2.5537   15.7317 C   0  0  0  0  0  0  0  0  0  0  0  0
   -1.7406   -2.8122   15.6174 C   0  0  0  0  0  0  0  0  0  0  0  0
   -2.5350   -2.0419   14.7484 C   0  0  0  0  0  0  0  0  0  0  0  0
   -3.8751   -2.3238   14.6386 O   0  0  0  0  0  0  0  0  0  0  0  0
   -4.1935   -3.0734   13.4780 C   0  0  0  0  0  0  0  0  0  0  0  0
   -1.9582   -0.9985   13.9906 C   0  0  0  0  0  0  0  0  0  0  0  0
   -2.8086   -0.2726   13.1735 O   0  0  0  0  0  0  0  0  0  0  0  0
   -2.2330    0.6972   12.3138 C   0  0  0  0  0  0  0  0  0  0  0  0
   -0.5673   -0.7513   14.1173 C   0  0  0  0  0  0  0  0  0  0  0  0
    2.2485    0.3574   13.6570 N   0  0  0  0  0  0  0  0  0  0  0  0
    3.1713    1.2748   13.1988 C   0  0  0  0  0  0  0  0  0  0  0  0
    2.7049    2.1789   12.1210 C   0  0  0  0  0  0  0  0  0  0  0  0
    3.6109    2.6363   11.1368 C   0  0  0  0  0  0  0  0  0  0  0  0
    3.1763    3.4684   10.0889 C   0  0  0  0  0  0  0  0  0  0  0  0
    1.8266    3.8622   10.0130 C   0  0  0  0  0  0  0  0  0  0  0  0
    0.9081    3.4320   10.9933 C   0  0  0  0  0  0  0  0  0  0  0  0
   -0.5405    3.7800   10.8448 C   0  0  0  0  0  0  0  0  0  0  0  0
   -1.0640    3.7147    9.7296 O   0  0  0  0  0  0  0  0  0  0  0  0
   -1.1607    4.1764   11.9764 N   0  0  0  0  0  0  0  0  0  0  0  0
   -2.5198    4.5839   12.1269 C   0  0  0  0  0  0  0  0  0  0  0  0
   -3.5511    4.1322   11.2726 C   0  0  0  0  0  0  0  0  0  0  0  0
   -4.8665    4.5952   11.4388 C   0  0  0  0  0  0  0  0  0  0  0  0
   -5.1855    5.5113   12.4684 C   0  0  0  0  0  0  0  0  0  0  0  0
   -6.6208    5.9723   12.6130 C   0  0  0  0  0  0  0  0  0  0  0  0
   -7.5178    5.2775   12.1146 O   0  0  0  0  0  0  0  0  0  0  0  0
   -6.7774    7.1826   13.1982 N   0  0  0  0  0  0  0  0  0  0  0  0
   -8.2315    7.8627   13.4281 S   0  0  0  0  0  0  0  0  0  0  0  0
   -8.0989    9.2882   13.7869 O   0  0  0  0  0  0  0  0  0  0  0  0
   -9.1167    7.0656   14.2913 O   0  0  0  0  0  0  0  0  0  0  0  0
   -8.9860    7.8492   11.7601 C   0  0  0  0  0  0  0  0  0  0  0  0
   -4.1673    5.9138   13.3619 C   0  0  0  0  0  0  0  0  0  0  0  0
   -2.8413    5.4660   13.1847 C   0  0  0  0  0  0  0  0  0  0  0  0
    1.3556    2.6029   12.0467 C   0  0  0  0  0  0  0  0  0  0  0  0
    4.4514    1.3593   13.6913 C   0  0  0  0  0  0  0  0  0  0  0  0
  1  5  1  0
  1  2  2  0
  2  3  1  0
  3 42  1  0
  3  4  1  0
  4  5  2  0
  4  6  1  0
  6  7  1  0
  6 18  2  0
  7  8  1  0
  8 17  1  0
  8  9  2  0
  9 10  1  0
 10 11  2  0
 11 12  1  0
 11 14  1  0
 12 13  1  0
 14 15  1  0
 14 17  2  0
 15 16  1  0
 18 19  1  0
 19 20  1  0
 19 42  2  0
 20 41  1  0
 20 21  2  0
 21 22  1  0
 22 23  2  0
 23 24  1  0
 24 25  1  0
 24 41  2  0
 25 26  2  0
 25 27  1  0
 27 28  1  0
 28 40  1  0
 28 29  2  0
 29 30  1  0
 30 31  2  0
 31 32  1  0
 31 39  1  0
 32 33  2  0
 32 34  1  0
 34 35  1  0
 35 36  2  0
 35 37  2  0
 35 38  1  0
 39 40  2  0
M  CHG  1  34  -1
M  END
>  <s_m_source_file>  (1) 
ligprep_syk.smi

>  <i_m_source_file_index>  (1) 
8

>  <i_lp_mmshare_version>  (1) 
53161

>  <i_f3d_flags>  (1) 
0

>  <s_epik_input>  (1) 
W0NIM11PYyhbY0hdMSljKE9bQ0gzXSlbY0hdW2NIXWMxW05IXWMoYyhuMjMpbltjSF1bY0hdMiluYyhbY0hdMyktYzRbY0hdW2NIXVtjSF1jKFtjSF00KUMoPU8pW05IXWM1W2NIXVtjSF1jKFtjSF1bY0hdNSlDKD1PKVtOSF1TKD1PKSg9TylbQ0gzXQ==

>  <s_epik_cmdline>  (1) 
J2VwaWtfcHl0aG9uJywgJy1waHQnLCAnMC4wJywgJy1waCcsICc3LjQnLCAnLXRuJywgJzgnLCAnLW1hJywgJzUwMCcsICctaW1hZScsICc8aW5maWxlLm1hZT4nLCAnLW9tYWUnLCAnPG91dGZpbGUubWFlPic=

>  <r_lp_tautomer_probability>  (1) 
1

>  <r_epik_Ionization_Penalty>  (1) 
  0.0025

>  <r_epik_Ionization_Penalty_Charging>  (1) 
  0.0025

>  <r_epik_Ionization_Penalty_Neutral>  (1) 
  0.0000

>  <r_epik_State_Penalty>  (1) 
 -0.0000

>  <r_epik_Charging_Adjusted_Penalty>  (1) 
0.0025001

>  <i_epik_Tot_Q>  (1) 
-1

>  <i_epik_Tot_abs_Q>  (1) 
1

>  <s_lp_Force_Field>  (1) 
S-OPLS

>  <r_lp_Energy>  (1) 
61.2317

>  <b_lp_Chiralities_Consistent>  (1) 
1

>  <s_lp_Variant>  (1) 
lig_CHEMBL3265000-1

>  <s_i_glide_gridfile>  (1) 
glide-grid_SYK-4PV0

>  <i_i_glide_lignum>  (1) 
8

>  <i_i_glide_rotatable_bonds>  (1) 
11

>  <r_i_docking_score>  (1) 
-10.201468606808

>  <r_i_glide_ligand_efficiency>  (1) 
-0.242892109685906

>  <r_i_glide_ligand_efficiency_sa>  (1) 
-0.844299444048987

>  <r_i_glide_ligand_efficiency_ln>  (1) 
-2.15326720281192

>  <r_i_glide_gscore>  (1) 
-10.201468606808

>  <r_i_glide_lipo>  (1) 
-2.9616175064526

>  <r_i_glide_hbond>  (1) 
-0.695846410281356

>  <r_i_glide_metal>  (1) 
-0

>  <r_i_glide_rewards>  (1) 
-1.73518896162891

>  <r_i_glide_evdw>  (1) 
-58.649242401123

>  <r_i_glide_ecoul>  (1) 
-15.1943073272705

>  <r_i_glide_erotb>  (1) 
0.50572721666078

>  <r_i_glide_esite>  (1) 
-0.102934725959232

>  <r_i_glide_emodel>  (1) 
-121.212877658591

>  <r_i_glide_energy>  (1) 
-73.8435497283936

>  <r_i_glide_einternal>  (1) 
2.72100210189819

>  <i_i_glide_confnum>  (1) 
3

>  <i_i_glide_posenum>  (1) 
2

>  <r_i_glide_eff_state_penalty>  (1) 
-0

>  <r_i_glide_rmsd>  (1) 
0.0961979269792014

>  <s_glide_core_constrain_type>  (1) 
snapped_core_restrain

$$$$
