MODEL 1
REMARK VINA RESULT:    -5.622      0.000      0.000
REMARK INTER + INTRA:          -8.197
REMARK INTER:                  -7.594
REMARK INTRA:                  -0.602
REMARK UNBOUND:                -0.602
REMARK  6 active torsions:
REMARK  status: ('A' for Active; 'I' for Inactive)
REMARK    1  A    between atoms: N_2  and  C_4 
REMARK    2  A    between atoms: C_7  and  C_8 
REMARK    3  A    between atoms: C_12  and  C_13 
REMARK       I    between atoms: C_13  and  N_15 
REMARK    4  A    between atoms: N_15  and  C_17 
REMARK    5  A    between atoms: N_18  and  O_20 
REMARK    6  A    between atoms: O_20  and  C_21 
ROOT
HETATM    1  C   UNL     1      10.888   3.101  23.188  1.00  0.00     0.678 C 
HETATM    2  N   UNL     1      10.089   2.659  22.257  1.00  0.00    -0.184 N 
ATOM      3  HN  UNL     1       9.657   3.328  21.620  1.00  0.00     0.184 HD
HETATM    4  C   UNL     1      10.779   0.946  22.992  1.00  0.00     0.081 C 
HETATM    5  N   UNL     1      11.169   1.748  23.901  1.00  0.00    -0.190 N 
ATOM      6  HN  UNL     1      11.554   1.559  24.827  1.00  0.00     0.184 HD
HETATM    7  C   UNL     1       9.825   1.392  22.113  1.00  0.00     0.144 C 
ENDROOT
BRANCH   7   8
HETATM    8  C   UNL     1       8.785   0.646  21.323  1.00  0.00     0.276 C 
HETATM    9  N   UNL     1       7.414   0.370  21.863  1.00  0.00    -0.316 N 
ATOM     10  HN  UNL     1       6.957   1.054  22.467  1.00  0.00     0.170 HD
HETATM   11  O   UNL     1       8.936   0.219  20.245  1.00  0.00    -0.266 OA
BRANCH   9  12
HETATM   12  C   UNL     1       6.801  -0.751  21.558  1.00  0.00     0.207 C 
HETATM   13  N   UNL     1       5.838  -0.860  20.610  1.00  0.00    -0.256 N 
HETATM   14  H   UNL     1       5.236  -1.555  20.187  1.00  0.00     0.195 HD
BRANCH  13  15
HETATM   15  O   UNL     1       5.672   0.373  19.960  1.00  0.00    -0.233 OA
BRANCH  15  16
HETATM   16  C   UNL     1       5.580   0.191  18.655  1.00  0.00     0.252 C 
HETATM   17  N   UNL     1       5.704  -0.736  17.756  1.00  0.00    -0.388 N 
ATOM     18  HN2 UNL     1       5.955  -1.602  18.231  1.00  0.00     0.157 HD
ATOM     19  HN1 UNL     1       5.633  -0.877  16.748  1.00  0.00     0.157 HD
ENDBRANCH  15  16
ENDBRANCH  13  15
ENDBRANCH   9  12
ENDBRANCH   7   8
BRANCH   4  20
HETATM   20  C   UNL     1      11.417  -0.261  23.051  1.00  0.00     0.022 C 
HETATM   21  C   UNL     1      12.040  -0.775  23.955  1.00  0.00     0.013 C 
ENDBRANCH   4  20
BRANCH   1  22
HETATM   22  N   UNL     1      11.197   4.367  23.370  1.00  0.00    -0.230 N 
HETATM   23  C   UNL     1      12.184   5.402  23.542  1.00  0.00     0.165 C 
ATOM     24  HN  UNL     1      10.300   4.852  23.409  1.00  0.00     0.177 HD
ENDBRANCH   1  22
TORSDOF 6
ENDMDL
MODEL 2
REMARK VINA RESULT:    -5.517      2.927      3.843
REMARK INTER + INTRA:          -8.055
REMARK INTER:                  -7.565
REMARK INTRA:                  -0.490
REMARK UNBOUND:                -0.602
REMARK  6 active torsions:
REMARK  status: ('A' for Active; 'I' for Inactive)
REMARK    1  A    between atoms: N_2  and  C_4 
REMARK    2  A    between atoms: C_7  and  C_8 
REMARK    3  A    between atoms: C_12  and  C_13 
REMARK       I    between atoms: C_13  and  N_15 
REMARK    4  A    between atoms: N_15  and  C_17 
REMARK    5  A    between atoms: N_18  and  O_20 
REMARK    6  A    between atoms: O_20  and  C_21 
ROOT
HETATM    1  C   UNL     1      10.484  -1.270  22.637  1.00  0.00     0.678 C 
HETATM    2  N   UNL     1       9.937  -0.721  21.589  1.00  0.00    -0.184 N 
ATOM      3  HN  UNL     1      10.531  -0.224  20.926  1.00  0.00     0.184 HD
HETATM    4  C   UNL     1       8.383  -1.705  22.343  1.00  0.00     0.081 C 
HETATM    5  N   UNL     1       9.187  -1.776  23.328  1.00  0.00    -0.190 N 
ATOM      6  HN  UNL     1       9.027  -2.078  24.289  1.00  0.00     0.184 HD
HETATM    7  C   UNL     1       8.657  -0.788  21.360  1.00  0.00     0.144 C 
ENDROOT
BRANCH   7   8
HETATM    8  C   UNL     1       7.747  -0.062  20.406  1.00  0.00     0.276 C 
HETATM    9  N   UNL     1       6.626  -0.751  19.689  1.00  0.00    -0.316 N 
ATOM     10  HN  UNL     1       6.108  -1.498  20.150  1.00  0.00     0.170 HD
HETATM   11  O   UNL     1       7.821   1.073  20.137  1.00  0.00    -0.266 OA
BRANCH   9  12
HETATM   12  C   UNL     1       6.311  -0.391  18.465  1.00  0.00     0.207 C 
HETATM   13  N   UNL     1       5.194   0.308  18.140  1.00  0.00    -0.256 N 
HETATM   14  H   UNL     1       4.730   0.701  17.332  1.00  0.00     0.195 HD
BRANCH  13  15
HETATM   15  O   UNL     1       4.496   0.653  19.308  1.00  0.00    -0.233 OA
BRANCH  15  16
HETATM   16  C   UNL     1       4.277   1.956  19.338  1.00  0.00     0.252 C 
HETATM   17  N   UNL     1       3.320   2.820  19.206  1.00  0.00    -0.388 N 
ATOM     18  HN2 UNL     1       2.459   2.308  19.016  1.00  0.00     0.157 HD
ATOM     19  HN1 UNL     1       3.151   3.826  19.230  1.00  0.00     0.157 HD
ENDBRANCH  15  16
ENDBRANCH  13  15
ENDBRANCH   9  12
ENDBRANCH   7   8
BRANCH   4  20
HETATM   20  C   UNL     1       7.356  -2.601  22.440  1.00  0.00     0.022 C 
HETATM   21  C   UNL     1       7.377  -3.803  22.597  1.00  0.00     0.013 C 
ENDBRANCH   4  20
BRANCH   1  22
HETATM   22  N   UNL     1      11.772  -1.241  22.911  1.00  0.00    -0.230 N 
HETATM   23  C   UNL     1      12.861  -0.842  23.765  1.00  0.00     0.165 C 
ATOM     24  HN  UNL     1      12.213  -1.750  22.145  1.00  0.00     0.177 HD
ENDBRANCH   1  22
TORSDOF 6
ENDMDL
MODEL 3
REMARK VINA RESULT:    -5.417     21.519     23.944
REMARK INTER + INTRA:          -7.919
REMARK INTER:                  -7.475
REMARK INTRA:                  -0.444
REMARK UNBOUND:                -0.602
REMARK  6 active torsions:
REMARK  status: ('A' for Active; 'I' for Inactive)
REMARK    1  A    between atoms: N_2  and  C_4 
REMARK    2  A    between atoms: C_7  and  C_8 
REMARK    3  A    between atoms: C_12  and  C_13 
REMARK       I    between atoms: C_13  and  N_15 
REMARK    4  A    between atoms: N_15  and  C_17 
REMARK    5  A    between atoms: N_18  and  O_20 
REMARK    6  A    between atoms: O_20  and  C_21 
ROOT
HETATM    1  C   UNL     1       1.635 -17.891   8.578  1.00  0.00     0.678 C 
HETATM    2  N   UNL     1       0.789 -17.932   9.568  1.00  0.00    -0.184 N 
ATOM      3  HN  UNL     1       1.049 -18.432  10.418  1.00  0.00     0.184 HD
HETATM    4  C   UNL     1      -0.139 -16.671   8.344  1.00  0.00     0.081 C 
HETATM    5  N   UNL     1       0.743 -17.136   7.553  1.00  0.00    -0.190 N 
ATOM      6  HN  UNL     1       0.838 -17.041   6.541  1.00  0.00     0.184 HD
HETATM    7  C   UNL     1      -0.377 -17.356   9.508  1.00  0.00     0.144 C 
ENDROOT
BRANCH   7   8
HETATM    8  C   UNL     1      -1.612 -17.450  10.364  1.00  0.00     0.276 C 
HETATM    9  N   UNL     1      -1.937 -16.432  11.415  1.00  0.00    -0.316 N 
ATOM     10  HN  UNL     1      -1.700 -15.451  11.265  1.00  0.00     0.170 HD
HETATM   11  O   UNL     1      -2.414 -18.297  10.297  1.00  0.00    -0.266 OA
BRANCH   9  12
HETATM   12  C   UNL     1      -2.527 -16.804  12.528  1.00  0.00     0.207 C 
HETATM   13  N   UNL     1      -1.988 -16.652  13.764  1.00  0.00    -0.256 N 
HETATM   14  H   UNL     1      -2.207 -16.830  14.735  1.00  0.00     0.195 HD
BRANCH  13  15
HETATM   15  O   UNL     1      -0.767 -15.966  13.666  1.00  0.00    -0.233 OA
BRANCH  15  16
HETATM   16  C   UNL     1       0.201 -16.681  14.212  1.00  0.00     0.252 C 
HETATM   17  N   UNL     1       0.511 -17.276  15.322  1.00  0.00    -0.388 N 
ATOM     18  HN2 UNL     1      -0.257 -17.135  15.978  1.00  0.00     0.157 HD
ATOM     19  HN1 UNL     1       1.258 -17.829  15.743  1.00  0.00     0.157 HD
ENDBRANCH  15  16
ENDBRANCH  13  15
ENDBRANCH   9  12
ENDBRANCH   7   8
BRANCH   4  20
HETATM   20  C   UNL     1      -0.705 -15.518   7.877  1.00  0.00     0.022 C 
HETATM   21  C   UNL     1      -0.843 -15.117   6.741  1.00  0.00     0.013 C 
ENDBRANCH   4  20
BRANCH   1  22
HETATM   22  N   UNL     1       2.829 -18.446   8.590  1.00  0.00    -0.230 N 
HETATM   23  C   UNL     1       3.840 -19.226   9.257  1.00  0.00     0.165 C 
ATOM     24  HN  UNL     1       3.237 -18.207   7.686  1.00  0.00     0.177 HD
ENDBRANCH   1  22
TORSDOF 6
ENDMDL
MODEL 4
REMARK VINA RESULT:    -5.343      2.951      4.718
REMARK INTER + INTRA:          -7.819
REMARK INTER:                  -7.305
REMARK INTRA:                  -0.514
REMARK UNBOUND:                -0.602
REMARK  6 active torsions:
REMARK  status: ('A' for Active; 'I' for Inactive)
REMARK    1  A    between atoms: N_2  and  C_4 
REMARK    2  A    between atoms: C_7  and  C_8 
REMARK    3  A    between atoms: C_12  and  C_13 
REMARK       I    between atoms: C_13  and  N_15 
REMARK    4  A    between atoms: N_15  and  C_17 
REMARK    5  A    between atoms: N_18  and  O_20 
REMARK    6  A    between atoms: O_20  and  C_21 
ROOT
HETATM    1  C   UNL     1       8.519  -2.640  22.587  1.00  0.00     0.678 C 
HETATM    2  N   UNL     1       7.642  -1.838  22.051  1.00  0.00    -0.184 N 
ATOM      3  HN  UNL     1       6.650  -2.043  22.171  1.00  0.00     0.184 HD
HETATM    4  C   UNL     1       9.321  -0.834  21.699  1.00  0.00     0.081 C 
HETATM    5  N   UNL     1       9.806  -1.961  22.040  1.00  0.00    -0.190 N 
ATOM      6  HN  UNL     1      10.761  -2.314  21.973  1.00  0.00     0.184 HD
HETATM    7  C   UNL     1       7.990  -0.786  21.368  1.00  0.00     0.144 C 
ENDROOT
BRANCH   7   8
HETATM    8  C   UNL     1       7.233   0.141  20.457  1.00  0.00     0.276 C 
HETATM    9  N   UNL     1       5.780  -0.054  20.144  1.00  0.00    -0.316 N 
ATOM     10  HN  UNL     1       5.149  -0.420  20.858  1.00  0.00     0.170 HD
HETATM   11  O   UNL     1       7.685   1.074  19.918  1.00  0.00    -0.266 OA
BRANCH   9  12
HETATM   12  C   UNL     1       5.319   0.246  18.951  1.00  0.00     0.207 C 
HETATM   13  N   UNL     1       4.592   1.357  18.672  1.00  0.00    -0.256 N 
HETATM   14  H   UNL     1       4.141   1.816  17.892  1.00  0.00     0.195 HD
BRANCH  13  15
HETATM   15  O   UNL     1       4.494   2.158  19.820  1.00  0.00    -0.233 OA
BRANCH  15  16
HETATM   16  C   UNL     1       3.230   2.467  20.053  1.00  0.00     0.252 C 
HETATM   17  N   UNL     1       2.222   2.101  20.782  1.00  0.00    -0.388 N 
ATOM     18  HN2 UNL     1       2.521   1.317  21.360  1.00  0.00     0.157 HD
ATOM     19  HN1 UNL     1       1.246   2.340  20.962  1.00  0.00     0.157 HD
ENDBRANCH  15  16
ENDBRANCH  13  15
ENDBRANCH   9  12
ENDBRANCH   7   8
BRANCH   4  20
HETATM   20  C   UNL     1      10.248   0.169  21.737  1.00  0.00     0.022 C 
HETATM   21  C   UNL     1      10.276   1.185  22.397  1.00  0.00     0.013 C 
ENDBRANCH   4  20
BRANCH   1  22
HETATM   22  N   UNL     1       8.222  -3.710  23.294  1.00  0.00    -0.230 N 
HETATM   23  C   UNL     1       8.308  -4.464  24.519  1.00  0.00     0.165 C 
ATOM     24  HN  UNL     1       7.655  -4.285  22.672  1.00  0.00     0.177 HD
ENDBRANCH   1  22
TORSDOF 6
ENDMDL
MODEL 5
REMARK VINA RESULT:    -5.217      2.461      3.377
REMARK INTER + INTRA:          -7.650
REMARK INTER:                  -7.215
REMARK INTRA:                  -0.434
REMARK UNBOUND:                -0.602
REMARK  6 active torsions:
REMARK  status: ('A' for Active; 'I' for Inactive)
REMARK    1  A    between atoms: N_2  and  C_4 
REMARK    2  A    between atoms: C_7  and  C_8 
REMARK    3  A    between atoms: C_12  and  C_13 
REMARK       I    between atoms: C_13  and  N_15 
REMARK    4  A    between atoms: N_15  and  C_17 
REMARK    5  A    between atoms: N_18  and  O_20 
REMARK    6  A    between atoms: O_20  and  C_21 
ROOT
HETATM    1  C   UNL     1      11.196   3.145  23.184  1.00  0.00     0.678 C 
HETATM    2  N   UNL     1      10.448   2.520  22.319  1.00  0.00    -0.184 N 
ATOM      3  HN  UNL     1      10.015   3.053  21.565  1.00  0.00     0.184 HD
HETATM    4  C   UNL     1      11.174   0.986  23.354  1.00  0.00     0.081 C 
HETATM    5  N   UNL     1      11.501   1.945  24.125  1.00  0.00    -0.190 N 
ATOM      6  HN  UNL     1      11.859   1.931  25.080  1.00  0.00     0.184 HD
HETATM    7  C   UNL     1      10.236   1.237  22.385  1.00  0.00     0.144 C 
ENDROOT
BRANCH   7   8
HETATM    8  C   UNL     1       9.252   0.325  21.703  1.00  0.00     0.276 C 
HETATM    9  N   UNL     1       8.452  -0.695  22.455  1.00  0.00    -0.316 N 
ATOM     10  HN  UNL     1       8.129  -0.494  23.401  1.00  0.00     0.170 HD
HETATM   11  O   UNL     1       9.021   0.320  20.557  1.00  0.00    -0.266 OA
BRANCH   9  12
HETATM   12  C   UNL     1       8.166  -1.848  21.894  1.00  0.00     0.207 C 
HETATM   13  N   UNL     1       8.437  -3.055  22.451  1.00  0.00    -0.256 N 
HETATM   14  H   UNL     1       8.329  -4.042  22.260  1.00  0.00     0.195 HD
BRANCH  13  15
HETATM   15  O   UNL     1       8.977  -2.873  23.734  1.00  0.00    -0.233 OA
BRANCH  15  16
HETATM   16  C   UNL     1       8.412  -3.709  24.588  1.00  0.00     0.252 C 
HETATM   17  N   UNL     1       8.365  -4.971  24.879  1.00  0.00    -0.388 N 
ATOM     18  HN2 UNL     1       8.968  -5.467  24.224  1.00  0.00     0.157 HD
ATOM     19  HN1 UNL     1       7.930  -5.617  25.538  1.00  0.00     0.157 HD
ENDBRANCH  15  16
ENDBRANCH  13  15
ENDBRANCH   9  12
ENDBRANCH   7   8
BRANCH   4  20
HETATM   20  C   UNL     1      11.853  -0.166  23.635  1.00  0.00     0.022 C 
HETATM   21  C   UNL     1      12.950  -0.329  24.125  1.00  0.00     0.013 C 
ENDBRANCH   4  20
BRANCH   1  22
HETATM   22  N   UNL     1      11.452   4.436  23.158  1.00  0.00    -0.230 N 
HETATM   23  C   UNL     1      12.290   5.554  23.513  1.00  0.00     0.165 C 
ATOM     24  HN  UNL     1      10.683   4.845  22.628  1.00  0.00     0.177 HD
ENDBRANCH   1  22
TORSDOF 6
ENDMDL
MODEL 6
REMARK VINA RESULT:    -5.194      5.241      7.204
REMARK INTER + INTRA:          -7.618
REMARK INTER:                  -7.196
REMARK INTRA:                  -0.422
REMARK UNBOUND:                -0.602
REMARK  6 active torsions:
REMARK  status: ('A' for Active; 'I' for Inactive)
REMARK    1  A    between atoms: N_2  and  C_4 
REMARK    2  A    between atoms: C_7  and  C_8 
REMARK    3  A    between atoms: C_12  and  C_13 
REMARK       I    between atoms: C_13  and  N_15 
REMARK    4  A    between atoms: N_15  and  C_17 
REMARK    5  A    between atoms: N_18  and  O_20 
REMARK    6  A    between atoms: O_20  and  C_21 
ROOT
HETATM    1  C   UNL     1       6.818  -1.455  21.555  1.00  0.00     0.678 C 
HETATM    2  N   UNL     1       6.758  -2.681  21.994  1.00  0.00    -0.184 N 
ATOM      3  HN  UNL     1       5.993  -3.279  21.680  1.00  0.00     0.184 HD
HETATM    4  C   UNL     1       8.515  -2.114  22.728  1.00  0.00     0.081 C 
HETATM    5  N   UNL     1       8.046  -0.982  22.382  1.00  0.00    -0.190 N 
ATOM      6  HN  UNL     1       8.380  -0.039  22.587  1.00  0.00     0.184 HD
HETATM    7  C   UNL     1       7.640  -3.167  22.818  1.00  0.00     0.144 C 
ENDROOT
BRANCH   7   8
HETATM    8  C   UNL     1       7.680  -4.414  23.657  1.00  0.00     0.276 C 
HETATM    9  N   UNL     1       7.926  -4.378  25.136  1.00  0.00    -0.316 N 
ATOM     10  HN  UNL     1       7.565  -3.604  25.693  1.00  0.00     0.170 HD
HETATM   11  O   UNL     1       7.529  -5.502  23.255  1.00  0.00    -0.266 OA
BRANCH   9  12
HETATM   12  C   UNL     1       8.606  -5.343  25.712  1.00  0.00     0.207 C 
HETATM   13  N   UNL     1       8.456  -5.712  27.009  1.00  0.00    -0.256 N 
HETATM   14  H   UNL     1       8.819  -6.382  27.674  1.00  0.00     0.195 HD
BRANCH  13  15
HETATM   15  O   UNL     1       7.415  -4.974  27.593  1.00  0.00    -0.233 OA
BRANCH  15  16
HETATM   16  C   UNL     1       6.494  -5.790  28.076  1.00  0.00     0.252 C 
HETATM   17  N   UNL     1       5.848  -6.872  27.772  1.00  0.00    -0.388 N 
ATOM     18  HN2 UNL     1       6.168  -7.181  26.855  1.00  0.00     0.157 HD
ATOM     19  HN1 UNL     1       5.138  -7.502  28.146  1.00  0.00     0.157 HD
ENDBRANCH  15  16
ENDBRANCH  13  15
ENDBRANCH   9  12
ENDBRANCH   7   8
BRANCH   4  20
HETATM   20  C   UNL     1       9.864  -2.077  22.946  1.00  0.00     0.022 C 
HETATM   21  C   UNL     1      10.714  -1.354  22.473  1.00  0.00     0.013 C 
ENDBRANCH   4  20
BRANCH   1  22
HETATM   22  N   UNL     1       5.960  -0.917  20.714  1.00  0.00    -0.230 N 
HETATM   23  C   UNL     1       5.631  -0.441  19.394  1.00  0.00     0.165 C 
ATOM     24  HN  UNL     1       5.115  -0.762  21.265  1.00  0.00     0.177 HD
ENDBRANCH   1  22
TORSDOF 6
ENDMDL
MODEL 7
REMARK VINA RESULT:    -5.064      4.781      7.036
REMARK INTER + INTRA:          -7.442
REMARK INTER:                  -6.969
REMARK INTRA:                  -0.473
REMARK UNBOUND:                -0.602
REMARK  6 active torsions:
REMARK  status: ('A' for Active; 'I' for Inactive)
REMARK    1  A    between atoms: N_2  and  C_4 
REMARK    2  A    between atoms: C_7  and  C_8 
REMARK    3  A    between atoms: C_12  and  C_13 
REMARK       I    between atoms: C_13  and  N_15 
REMARK    4  A    between atoms: N_15  and  C_17 
REMARK    5  A    between atoms: N_18  and  O_20 
REMARK    6  A    between atoms: O_20  and  C_21 
ROOT
HETATM    1  C   UNL     1       6.873  -5.450  25.617  1.00  0.00     0.678 C 
HETATM    2  N   UNL     1       7.508  -4.364  25.275  1.00  0.00    -0.184 N 
ATOM      3  HN  UNL     1       8.012  -3.841  25.992  1.00  0.00     0.184 HD
HETATM    4  C   UNL     1       6.949  -5.039  23.492  1.00  0.00     0.081 C 
HETATM    5  N   UNL     1       6.227  -5.773  24.240  1.00  0.00    -0.190 N 
ATOM      6  HN  UNL     1       5.451  -6.393  24.005  1.00  0.00     0.184 HD
HETATM    7  C   UNL     1       7.520  -3.924  24.050  1.00  0.00     0.144 C 
ENDROOT
BRANCH   7   8
HETATM    8  C   UNL     1       7.938  -2.615  23.436  1.00  0.00     0.276 C 
HETATM    9  N   UNL     1       8.736  -2.544  22.169  1.00  0.00    -0.316 N 
ATOM     10  HN  UNL     1       8.587  -3.233  21.433  1.00  0.00     0.170 HD
HETATM   11  O   UNL     1       7.690  -1.558  23.869  1.00  0.00    -0.266 OA
BRANCH   9  12
HETATM   12  C   UNL     1       9.629  -1.593  22.009  1.00  0.00     0.207 C 
HETATM   13  N   UNL     1       9.425  -0.473  21.271  1.00  0.00    -0.256 N 
HETATM   14  H   UNL     1       9.902   0.375  20.995  1.00  0.00     0.195 HD
BRANCH  13  15
HETATM   15  O   UNL     1       8.104  -0.455  20.794  1.00  0.00    -0.233 OA
BRANCH  15  16
HETATM   16  C   UNL     1       8.076  -0.005  19.552  1.00  0.00     0.252 C 
HETATM   17  N   UNL     1       7.274   0.105  18.539  1.00  0.00    -0.388 N 
ATOM     18  HN2 UNL     1       6.374  -0.293  18.806  1.00  0.00     0.157 HD
ATOM     19  HN1 UNL     1       7.251   0.453  17.580  1.00  0.00     0.157 HD
ENDBRANCH  15  16
ENDBRANCH  13  15
ENDBRANCH   9  12
ENDBRANCH   7   8
BRANCH   4  20
HETATM   20  C   UNL     1       7.039  -5.521  22.216  1.00  0.00     0.022 C 
HETATM   21  C   UNL     1       6.186  -5.646  21.364  1.00  0.00     0.013 C 
ENDBRANCH   4  20
BRANCH   1  22
HETATM   22  N   UNL     1       6.837  -5.944  26.836  1.00  0.00    -0.230 N 
HETATM   23  C   UNL     1       6.605  -5.776  28.248  1.00  0.00     0.165 C 
ATOM     24  HN  UNL     1       7.102  -6.923  26.730  1.00  0.00     0.177 HD
ENDBRANCH   1  22
TORSDOF 6
ENDMDL
MODEL 8
REMARK VINA RESULT:    -4.993     22.010     25.554
REMARK INTER + INTRA:          -7.346
REMARK INTER:                  -6.861
REMARK INTRA:                  -0.485
REMARK UNBOUND:                -0.602
REMARK  6 active torsions:
REMARK  status: ('A' for Active; 'I' for Inactive)
REMARK    1  A    between atoms: N_2  and  C_4 
REMARK    2  A    between atoms: C_7  and  C_8 
REMARK    3  A    between atoms: C_12  and  C_13 
REMARK       I    between atoms: C_13  and  N_15 
REMARK    4  A    between atoms: N_15  and  C_17 
REMARK    5  A    between atoms: N_18  and  O_20 
REMARK    6  A    between atoms: O_20  and  C_21 
ROOT
HETATM    1  C   UNL     1       0.429 -21.982   9.477  1.00  0.00     0.678 C 
HETATM    2  N   UNL     1       0.078 -20.727   9.510  1.00  0.00    -0.184 N 
ATOM      3  HN  UNL     1      -0.782 -20.469   9.994  1.00  0.00     0.184 HD
HETATM    4  C   UNL     1       1.878 -20.583   8.679  1.00  0.00     0.081 C 
HETATM    5  N   UNL     1       1.688 -21.838   8.576  1.00  0.00    -0.190 N 
ATOM      6  HN  UNL     1       2.209 -22.543   8.054  1.00  0.00     0.184 HD
HETATM    7  C   UNL     1       0.789 -19.793   8.948  1.00  0.00     0.144 C 
ENDROOT
BRANCH   7   8
HETATM    8  C   UNL     1       0.511 -18.351   8.620  1.00  0.00     0.276 C 
HETATM    9  N   UNL     1       1.008 -17.225   9.475  1.00  0.00    -0.316 N 
ATOM     10  HN  UNL     1       1.913 -17.299   9.941  1.00  0.00     0.170 HD
HETATM   11  O   UNL     1      -0.100 -17.977   7.696  1.00  0.00    -0.266 OA
BRANCH   9  12
HETATM   12  C   UNL     1       0.279 -16.142   9.623  1.00  0.00     0.207 C 
HETATM   13  N   UNL     1      -0.486 -15.881  10.712  1.00  0.00    -0.256 N 
HETATM   14  H   UNL     1      -1.106 -15.169  11.076  1.00  0.00     0.195 HD
BRANCH  13  15
HETATM   15  O   UNL     1      -0.303 -16.890  11.671  1.00  0.00    -0.233 OA
BRANCH  15  16
HETATM   16  C   UNL     1      -0.802 -16.509  12.834  1.00  0.00     0.252 C 
HETATM   17  N   UNL     1      -0.489 -15.821  13.887  1.00  0.00    -0.388 N 
ATOM     18  HN2 UNL     1       0.458 -15.464  13.759  1.00  0.00     0.157 HD
ATOM     19  HN1 UNL     1      -0.874 -15.526  14.784  1.00  0.00     0.157 HD
ENDBRANCH  15  16
ENDBRANCH  13  15
ENDBRANCH   9  12
ENDBRANCH   7   8
BRANCH   4  20
HETATM   20  C   UNL     1       3.189 -20.237   8.508  1.00  0.00     0.022 C 
HETATM   21  C   UNL     1       3.893 -19.493   9.156  1.00  0.00     0.013 C 
ENDBRANCH   4  20
BRANCH   1  22
HETATM   22  N   UNL     1      -0.246 -22.964  10.036  1.00  0.00    -0.230 N 
HETATM   23  C   UNL     1      -1.349 -23.425  10.840  1.00  0.00     0.165 C 
ATOM     24  HN  UNL     1       0.256 -23.811   9.771  1.00  0.00     0.177 HD
ENDBRANCH   1  22
TORSDOF 6
ENDMDL
MODEL 9
REMARK VINA RESULT:    -4.911     23.157     25.028
REMARK INTER + INTRA:          -7.236
REMARK INTER:                  -6.714
REMARK INTRA:                  -0.522
REMARK UNBOUND:                -0.602
REMARK  6 active torsions:
REMARK  status: ('A' for Active; 'I' for Inactive)
REMARK    1  A    between atoms: N_2  and  C_4 
REMARK    2  A    between atoms: C_7  and  C_8 
REMARK    3  A    between atoms: C_12  and  C_13 
REMARK       I    between atoms: C_13  and  N_15 
REMARK    4  A    between atoms: N_15  and  C_17 
REMARK    5  A    between atoms: N_18  and  O_20 
REMARK    6  A    between atoms: O_20  and  C_21 
ROOT
HETATM    1  C   UNL     1       8.832  13.193   3.082  1.00  0.00     0.678 C 
HETATM    2  N   UNL     1       8.295  14.218   2.483  1.00  0.00    -0.184 N 
ATOM      3  HN  UNL     1       7.381  14.109   2.044  1.00  0.00     0.184 HD
HETATM    4  C   UNL     1       9.886  15.071   3.314  1.00  0.00     0.081 C 
HETATM    5  N   UNL     1      10.192  13.845   3.462  1.00  0.00    -0.190 N 
ATOM      6  HN  UNL     1      11.072  13.415   3.748  1.00  0.00     0.184 HD
HETATM    7  C   UNL     1       8.885  15.377   2.426  1.00  0.00     0.144 C 
ENDROOT
BRANCH   7   8
HETATM    8  C   UNL     1       8.630  16.619   1.616  1.00  0.00     0.276 C 
HETATM    9  N   UNL     1       9.742  17.451   1.054  1.00  0.00    -0.316 N 
ATOM     10  HN  UNL     1      10.600  17.004   0.730  1.00  0.00     0.170 HD
HETATM   11  O   UNL     1       7.574  17.046   1.352  1.00  0.00    -0.266 OA
BRANCH   9  12
HETATM   12  C   UNL     1       9.612  18.757   0.978  1.00  0.00     0.207 C 
HETATM   13  N   UNL     1      10.181  19.631   1.845  1.00  0.00    -0.256 N 
HETATM   14  H   UNL     1      10.250  20.626   2.014  1.00  0.00     0.195 HD
BRANCH  13  15
HETATM   15  O   UNL     1      10.986  18.934   2.759  1.00  0.00    -0.233 OA
BRANCH  15  16
HETATM   16  C   UNL     1      11.578  19.782   3.583  1.00  0.00     0.252 C 
HETATM   17  N   UNL     1      11.941  21.024   3.659  1.00  0.00    -0.388 N 
ATOM     18  HN2 UNL     1      11.673  21.483   2.789  1.00  0.00     0.157 HD
ATOM     19  HN1 UNL     1      12.397  21.679   4.294  1.00  0.00     0.157 HD
ENDBRANCH  15  16
ENDBRANCH  13  15
ENDBRANCH   9  12
ENDBRANCH   7   8
BRANCH   4  20
HETATM   20  C   UNL     1      10.632  15.897   4.108  1.00  0.00     0.022 C 
HETATM   21  C   UNL     1      10.368  16.405   5.176  1.00  0.00     0.013 C 
ENDBRANCH   4  20
BRANCH   1  22
HETATM   22  N   UNL     1       8.275  12.005   3.177  1.00  0.00    -0.230 N 
HETATM   23  C   UNL     1       7.169  11.117   2.923  1.00  0.00     0.165 C 
ATOM     24  HN  UNL     1       8.960  11.433   3.672  1.00  0.00     0.177 HD
ENDBRANCH   1  22
TORSDOF 6
ENDMDL
