REMARK  6 active torsions:
REMARK  status: ('A' for Active; 'I' for Inactive)
REMARK    1  A    between atoms: N_2  and  C_4 
REMARK    2  A    between atoms: C_7  and  C_8 
REMARK    3  A    between atoms: C_12  and  C_13 
REMARK       I    between atoms: C_13  and  N_15 
REMARK    4  A    between atoms: N_15  and  C_17 
REMARK    5  A    between atoms: N_18  and  O_20 
REMARK    6  A    between atoms: O_20  and  C_21 
ROOT
HETATM    1  C   UNL     1       9.166  -2.655  23.998  1.00  0.00     0.678 C 
HETATM    2  N   UNL     1       8.581  -1.834  23.172  1.00  0.00    -0.184 N 
ATOM      3  HN  UNL     1       7.573  -1.908  23.035  1.00  0.00     0.184 HD
HETATM    4  C   UNL     1      10.419  -1.079  23.200  1.00  0.00     0.081 C 
HETATM    5  N   UNL     1      10.634  -2.201  23.762  1.00  0.00    -0.190 N 
ATOM      6  HN  UNL     1      11.513  -2.666  23.991  1.00  0.00     0.184 HD
HETATM    7  C   UNL     1       9.240  -0.923  22.516  1.00  0.00     0.144 C 
ENDROOT
BRANCH   7   8
HETATM    8  C   UNL     1       8.884  -0.040  21.351  1.00  0.00     0.276 C 
HETATM    9  N   UNL     1       7.549  -0.108  20.673  1.00  0.00    -0.316 N 
ATOM     10  HN  UNL     1       6.710  -0.307  21.218  1.00  0.00     0.170 HD
HETATM   11  O   UNL     1       9.589   0.761  20.873  1.00  0.00    -0.266 OA
BRANCH   9  12
HETATM   12  C   UNL     1       7.460   0.089  19.377  1.00  0.00     0.207 C 
HETATM   13  N   UNL     1       6.353   0.562  18.752  1.00  0.00    -0.256 N 
HETATM   14  H   UNL     1       6.025   0.803  17.826  1.00  0.00     0.195 HD
BRANCH  13  15
HETATM   15  O   UNL     1       5.374   0.885  19.705  1.00  0.00    -0.233 OA
BRANCH  15  16
HETATM   16  C   UNL     1       5.762   0.493  20.906  1.00  0.00     0.252 C 
HETATM   17  N   UNL     1       5.331   0.409  22.126  1.00  0.00    -0.388 N 
ATOM     18  HN2 UNL     1       4.377   0.768  22.147  1.00  0.00     0.157 HD
ATOM     19  HN1 UNL     1       5.630   0.106  23.053  1.00  0.00     0.157 HD
ENDBRANCH  15  16
ENDBRANCH  13  15
ENDBRANCH   9  12
ENDBRANCH   7   8
BRANCH   4  20
HETATM   20  C   UNL     1      11.439  -0.191  23.397  1.00  0.00     0.022 C 
HETATM   21  C   UNL     1      12.594  -0.382  23.712  1.00  0.00     0.013 C 
ENDBRANCH   4  20
BRANCH   1  22
HETATM   22  N   UNL     1       8.547  -3.586  24.693  1.00  0.00    -0.230 N 
HETATM   23  C   UNL     1       8.174  -4.162  25.960  1.00  0.00     0.165 C 
ATOM     24  HN  UNL     1       8.126  -4.198  23.994  1.00  0.00     0.177 HD
ENDBRANCH   1  22
TORSDOF 6
