stable:False satoms:16 tatoms:24 sratio:0.6666666666666666
  -OEChem-07092417403D

 24 24  0     1  0  0  0  0  0999 V2000
    7.0977   -4.4610   25.9983 H   0  0  0  0  0  0  0  0  0  0  0  0
    8.1743   -4.1620   25.9604 C   0  0  0  0  0  0  0  0  0  0  0  0
    8.7651   -5.0694   26.1668 H   0  0  0  0  0  0  0  0  0  0  0  0
    8.3483   -3.4222   26.7735 H   0  0  0  0  0  0  0  0  0  0  0  0
    8.5471   -3.5859   24.6928 N   0  0  0  0  0  0  0  0  0  0  0  0
    9.1656   -2.6547   23.9982 C   0  0  0  0  0  0  0  0  0  0  0  0
    8.5809   -1.8343   23.1716 N   0  0  0  0  0  0  0  0  0  0  0  0
   10.4194   -1.0792   23.1997 C   0  0  0  0  0  0  0  0  0  0  0  0
   11.4392   -0.1910   23.3974 C   0  0  0  0  0  0  0  0  0  0  0  0
   12.8729   -0.0421   24.7013 H   0  0  0  0  0  0  0  0  0  0  0  0
   12.5938   -0.3824   23.7119 C   0  5  0  0  0  0  0  0  0  0  0  0
   13.1606   -1.0122   23.0162 H   0  0  0  0  0  0  0  0  0  0  0  0
   10.6343   -2.2009   23.7623 N   0  0  0  0  0  0  0  0  0  0  0  0
    9.2399   -0.9232   22.5158 C   0  0  3  0  0  0  0  0  0  0  0  0
    8.8838   -0.0398   21.3510 C   0  0  0  0  0  0  0  0  0  0  0  0
    9.5893    0.7615   20.8730 O   0  0  0  0  0  0  0  0  0  0  0  0
    7.5487   -0.1082   20.6726 N   0  0  0  0  0  0  0  0  0  0  0  0
    7.4599    0.0889   19.3774 C   0  0  0  0  0  0  0  0  0  0  0  0
    8.2178   -0.1259   18.6411 H   0  0  0  0  0  0  0  0  0  0  0  0
    6.3534    0.5618   18.7516 N   0  0  0  0  0  0  0  0  0  0  0  0
    6.0249    0.8035   17.8265 H   0  0  0  0  0  0  0  0  0  0  0  0
    5.3743    0.8855   19.7054 O   0  0  0  0  0  0  0  0  0  0  0  0
    5.7617    0.4934   20.9060 C   0  0  0  0  0  0  0  0  0  0  0  0
    5.3310    0.4095   22.1257 N   0  3  0  0  0  0  0  0  0  0  0  0
 20 21  1  0  0  0  0
 18 19  1  0  0  0  0
 18 20  1  0  0  0  0
 20 22  1  0  0  0  0
 17 18  2  0  0  0  0
 22 23  1  0  0  0  0
 15 17  1  0  0  0  0
 15 16  2  0  0  0  0
 23 24  1  0  0  0  0
 14 15  1  0  0  0  0
  7 14  1  0  0  0  0
  8 14  1  0  0  0  0
 11 12  1  0  0  0  0
  6  7  2  0  0  0  0
  8  9  2  0  0  0  0
  8 13  1  0  0  0  0
  9 11  1  0  0  0  0
 10 11  1  0  0  0  0
  6 13  1  0  0  0  0
  5  6  1  0  0  0  0
  2  5  1  0  0  0  0
  1  2  1  0  0  0  0
  2  3  1  0  0  0  0
  2  4  1  0  0  0  0
M  CHG  2  11  -1  24   1
M  END
> <Shapegauss>
-187.514771

$$$$
