stable:False satoms:9 tatoms:24 sratio:0.375
  -OEChem-07092417503D

 24 25  0     1  0  0  0  0  0999 V2000
    6.5761   -4.8689   26.4545 C   0  0  0  0  0  0  0  0  0  0  0  0
    8.2190   -4.2893   26.1331 S   0  0  0  0  0  0  0  0  0  0  0  0
    9.0692   -5.4400   26.1082 O   0  0  0  0  0  0  0  0  0  0  0  0
    8.6119   -3.3942   27.1606 O   0  0  0  0  0  0  0  0  0  0  0  0
    8.0908   -3.5876   24.6659 N   0  0  0  0  0  0  0  0  0  0  0  0
    8.9773   -2.9326   24.1367 C   0  0  0  0  0  0  0  0  0  0  0  0
    9.4246   -1.9516   23.4732 C   0  0  0  0  0  0  0  0  0  0  0  0
   10.3223   -1.0723   23.3046 C   0  0  2  0  0  0  0  0  0  0  0  0
   11.0156   -0.0460   24.3466 C   0  0  0  0  0  0  0  0  0  0  0  0
   12.1359    0.2564   24.2069 C   0  0  0  0  0  0  0  0  0  0  0  0
   13.1071   -0.0917   23.5418 C   0  0  0  0  0  0  0  0  0  0  0  0
   12.7070   -1.3272   22.5842 C   0  0  0  0  0  0  0  0  0  0  0  0
   11.8596   -1.7224   22.4968 C   0  0  0  0  0  0  0  0  0  0  0  0
    9.7176   -0.6235   22.3934 C   0  0  2  0  0  0  0  0  0  0  0  0
    9.0500    0.0444   21.3884 C   0  0  0  0  0  0  0  0  0  0  0  0
    9.5199    1.0151   20.9676 O   0  0  0  0  0  0  0  0  0  0  0  0
    7.9403   -0.5675   21.0671 N   0  0  0  0  0  0  0  0  0  0  0  0
    7.1788   -0.0965   20.1632 C   0  0  0  0  0  0  0  0  0  0  0  0
    7.2685   -0.0311   18.8798 C   0  0  0  0  0  0  0  0  0  0  0  0
    6.7773    0.3266   17.7873 N   0  0  0  0  0  0  0  0  0  0  0  0
    5.6529    0.8873   18.2170 C   0  0  0  0  0  0  0  0  0  0  0  0
    5.2378    0.9827   19.3511 C   0  0  0  0  0  0  0  0  0  0  0  0
    5.8226    0.5536   20.5159 C   0  0  0  0  0  0  0  0  0  0  0  0
    5.3019    0.6861   21.9529 C   0  0  0  0  0  0  0  0  0  0  0  0
 20 21  2  0  0  0  0
 19 20  1  0  0  0  0
 21 22  1  0  0  0  0
 18 19  2  0  0  0  0
 22 23  2  0  0  0  0
 18 23  1  0  0  0  0
 17 18  1  0  0  0  0
 23 24  1  0  0  0  0
 15 16  2  0  0  0  0
 15 17  1  0  0  0  0
 14 15  1  0  0  0  0
  8 14  1  0  0  0  0
  7 14  1  0  0  0  0
 12 13  2  0  0  0  0
 11 12  1  0  0  0  0
  7  8  1  0  0  0  0
  8  9  1  0  0  0  0
  6  7  2  3  0  0  0
 10 11  1  0  0  0  0
  5  6  1  0  0  0  0
  9 10  2  0  0  0  0
  2  5  1  0  0  0  0
  2  3  2  0  0  0  0
  1  2  1  0  0  0  0
  2  4  2  0  0  0  0
M  END
> <Shapegauss>
-286.112701

$$$$
