stable:False satoms:9 tatoms:24 sratio:0.375
  -OEChem-08062417153D

 45 46  0     1  0  0  0  0  0999 V2000
    6.2801   -5.2254   26.2735 C   0  0  0  0  0  0  0  0  0  0  0  0
    7.9286   -4.6048   26.0853 S   0  0  0  0  0  0  0  0  0  0  0  0
    8.8011   -5.7388   26.0681 O   0  0  0  0  0  0  0  0  0  0  0  0
    8.2363   -3.7484   27.1730 O   0  0  0  0  0  0  0  0  0  0  0  0
    7.8822   -3.8427   24.6436 N   0  0  0  0  0  0  0  0  0  0  0  0
    8.7881   -3.1506   24.2017 C   0  0  0  0  0  0  0  0  0  0  0  0
    9.2581   -2.1345   23.6107 C   0  0  0  0  0  0  0  0  0  0  0  0
   10.1474   -1.2337   23.5385 C   0  0  2  0  0  0  0  0  0  0  0  0
   10.7513   -0.2418   24.6659 C   0  0  0  0  0  0  0  0  0  0  0  0
   11.8721    0.0853   24.6129 C   0  0  0  0  0  0  0  0  0  0  0  0
   12.8911   -0.2174   23.9991 C   0  0  0  0  0  0  0  0  0  0  0  0
   12.5784   -1.4170   22.9663 C   0  0  0  0  0  0  0  0  0  0  0  0
   11.7464   -1.8223   22.8069 C   0  0  0  0  0  0  0  0  0  0  0  0
    9.5944   -0.7563   22.6092 C   0  0  2  0  0  0  0  0  0  0  0  0
    8.9804   -0.0570   21.5914 C   0  0  0  0  0  0  0  0  0  0  0  0
    9.4575    0.9387   21.2435 O   0  0  0  0  0  0  0  0  0  0  0  0
    7.9062   -0.6732   21.1725 N   0  0  0  0  0  0  0  0  0  0  0  0
    7.1958   -0.1765   20.2411 C   0  0  0  0  0  0  0  0  0  0  0  0
    7.3674   -0.0543   18.9702 C   0  0  0  0  0  0  0  0  0  0  0  0
    6.9412    0.3418   17.8638 N   0  0  0  0  0  0  0  0  0  0  0  0
    5.7804    0.8644   18.2418 C   0  0  0  0  0  0  0  0  0  0  0  0
    5.2908    0.9037   19.3492 C   0  0  0  0  0  0  0  0  0  0  0  0
    5.8071    0.4347   20.5309 C   0  0  0  0  0  0  0  0  0  0  0  0
    5.1917    0.4963   21.9349 C   0  0  0  0  0  0  0  0  0  0  0  0
    6.1978   -5.7656   27.2282 H   0  0  0  0  0  0  0  0  0  0  0  0
    5.5692   -4.3860   26.2649 H   0  0  0  0  0  0  0  0  0  0  0  0
    6.0492   -5.9099   25.4439 H   0  0  0  0  0  0  0  0  0  0  0  0
    7.0798   -3.2469   24.6789 H   0  0  0  0  0  0  0  0  0  0  0  0
    9.6726   -3.7168   24.4539 H   0  0  0  0  0  0  0  0  0  0  0  0
   11.0500   -1.7323   23.1555 H   0  0  0  0  0  0  0  0  0  0  0  0
   10.1199    0.1171   25.4653 H   0  0  0  0  0  0  0  0  0  0  0  0
   12.0688    0.8888   25.3072 H   0  0  0  0  0  0  0  0  0  0  0  0
   13.6627   -0.5427   24.7123 H   0  0  0  0  0  0  0  0  0  0  0  0
   13.2536    0.6585   23.4409 H   0  0  0  0  0  0  0  0  0  0  0  0
   13.4154   -1.7941   22.3974 H   0  0  0  0  0  0  0  0  0  0  0  0
   11.6646   -2.6218   22.0855 H   0  0  0  0  0  0  0  0  0  0  0  0
   10.8714   -1.4889   23.3450 H   0  0  0  0  0  0  0  0  0  0  0  0
   10.1614   -1.3732   21.8965 H   0  0  0  0  0  0  0  0  0  0  0  0
    7.6403   -1.5430   21.5881 H   0  0  0  0  0  0  0  0  0  0  0  0
    8.3275   -0.5040   18.7647 H   0  0  0  0  0  0  0  0  0  0  0  0
    5.1933    1.3154   17.4555 H   0  0  0  0  0  0  0  0  0  0  0  0
    4.3188    1.3699   19.4152 H   0  0  0  0  0  0  0  0  0  0  0  0
    4.5953   -0.4104   22.1144 H   0  0  0  0  0  0  0  0  0  0  0  0
    5.9942    0.5615   22.6843 H   0  0  0  0  0  0  0  0  0  0  0  0
    4.5444    1.3823   22.0128 H   0  0  0  0  0  0  0  0  0  0  0  0
 20 21  2  0  0  0  0
 19 20  1  0  0  0  0
 21 22  1  0  0  0  0
 18 19  2  0  0  0  0
 22 23  2  0  0  0  0
 18 23  1  0  0  0  0
 17 18  1  0  0  0  0
 23 24  1  0  0  0  0
 15 16  2  0  0  0  0
 15 17  1  0  0  0  0
 14 15  1  0  0  0  0
  8 14  1  0  0  0  0
  7 14  1  0  0  0  0
 12 13  2  0  0  0  0
 11 12  1  0  0  0  0
  7  8  1  0  0  0  0
  8  9  1  0  0  0  0
  6  7  2  3  0  0  0
 10 11  1  0  0  0  0
  5  6  1  0  0  0  0
  9 10  2  0  0  0  0
  2  5  1  0  0  0  0
  2  3  2  0  0  0  0
  1  2  1  0  0  0  0
  2  4  2  0  0  0  0
  1 25  1  0  0  0  0
  1 26  1  0  0  0  0
  1 27  1  0  0  0  0
  5 28  1  0  0  0  0
  6 29  1  0  0  0  0
  8 30  1  0  0  0  0
  9 31  1  0  0  0  0
 10 32  1  0  0  0  0
 11 33  1  0  0  0  0
 11 34  1  0  0  0  0
 12 35  1  0  0  0  0
 13 36  1  0  0  0  0
 13 37  1  0  0  0  0
 14 38  1  0  0  0  0
 17 39  1  0  0  0  0
 19 40  1  0  0  0  0
 21 41  1  0  0  0  0
 22 42  1  0  0  0  0
 24 43  1  0  0  0  0
 24 44  1  0  0  0  0
 24 45  1  0  0  0  0
M  END
> <Chemgauss4>
-13.357241

$$$$
