stable:False satoms:9 tatoms:24 sratio:0.375
  -OEChem-08062417153D

 45 46  0     1  0  0  0  0  0999 V2000
   -6.3270   -5.0795  -26.3232 C   0  0  0  0  0  0  0  0  0  0  0  0
   -7.9756   -4.4589  -26.1350 S   0  0  0  0  0  0  0  0  0  0  0  0
   -8.8481   -5.5929  -26.1177 O   0  0  0  0  0  0  0  0  0  0  0  0
   -8.2833   -3.6025  -27.2227 O   0  0  0  0  0  0  0  0  0  0  0  0
   -7.9291   -3.6968  -24.6933 N   0  0  0  0  0  0  0  0  0  0  0  0
   -8.8350   -3.0047  -24.2514 C   0  0  0  0  0  0  0  0  0  0  0  0
   -9.3051   -1.9886  -23.6604 C   0  0  0  0  0  0  0  0  0  0  0  0
  -10.1944   -1.0878  -23.5882 C   0  0  2  0  0  0  0  0  0  0  0  0
  -10.7982   -0.0958  -24.7156 C   0  0  0  0  0  0  0  0  0  0  0  0
  -11.9191    0.2312  -24.6626 C   0  0  0  0  0  0  0  0  0  0  0  0
  -12.9381   -0.0714  -24.0487 C   0  0  0  0  0  0  0  0  0  0  0  0
  -12.6253   -1.2711  -23.0160 C   0  0  0  0  0  0  0  0  0  0  0  0
  -11.7933   -1.6764  -22.8566 C   0  0  0  0  0  0  0  0  0  0  0  0
   -9.6414   -0.6104  -22.6589 C   0  0  2  0  0  0  0  0  0  0  0  0
   -9.0274    0.0889  -21.6411 C   0  0  0  0  0  0  0  0  0  0  0  0
   -9.5044    1.0846  -21.2932 O   0  0  0  0  0  0  0  0  0  0  0  0
   -7.9532   -0.5273  -21.2222 N   0  0  0  0  0  0  0  0  0  0  0  0
   -7.2428   -0.0306  -20.2908 C   0  0  0  0  0  0  0  0  0  0  0  0
   -7.4143    0.0916  -19.0199 C   0  0  0  0  0  0  0  0  0  0  0  0
   -6.9881    0.4877  -17.9135 N   0  0  0  0  0  0  0  0  0  0  0  0
   -5.8274    1.0103  -18.2915 C   0  0  0  0  0  0  0  0  0  0  0  0
   -5.3378    1.0496  -19.3989 C   0  0  0  0  0  0  0  0  0  0  0  0
   -5.8540    0.5806  -20.5806 C   0  0  0  0  0  0  0  0  0  0  0  0
   -5.2387    0.6422  -21.9846 C   0  0  0  0  0  0  0  0  0  0  0  0
   -6.2448   -5.6197  -27.2778 H   0  0  0  0  0  0  0  0  0  0  0  0
   -5.6162   -4.2401  -26.3146 H   0  0  0  0  0  0  0  0  0  0  0  0
   -6.0961   -5.7640  -25.4936 H   0  0  0  0  0  0  0  0  0  0  0  0
   -7.1268   -3.1010  -24.7286 H   0  0  0  0  0  0  0  0  0  0  0  0
   -9.7195   -3.5709  -24.5036 H   0  0  0  0  0  0  0  0  0  0  0  0
  -11.0970   -1.5864  -23.2052 H   0  0  0  0  0  0  0  0  0  0  0  0
  -10.1669    0.2630  -25.5150 H   0  0  0  0  0  0  0  0  0  0  0  0
  -12.1158    1.0347  -25.3569 H   0  0  0  0  0  0  0  0  0  0  0  0
  -13.7097   -0.3968  -24.7619 H   0  0  0  0  0  0  0  0  0  0  0  0
  -13.3005    0.8044  -23.4906 H   0  0  0  0  0  0  0  0  0  0  0  0
  -13.4624   -1.6482  -22.4471 H   0  0  0  0  0  0  0  0  0  0  0  0
  -11.7115   -2.4759  -22.1352 H   0  0  0  0  0  0  0  0  0  0  0  0
  -10.9183   -1.3430  -23.3947 H   0  0  0  0  0  0  0  0  0  0  0  0
  -10.2084   -1.2273  -21.9462 H   0  0  0  0  0  0  0  0  0  0  0  0
   -7.6872   -1.3971  -21.6378 H   0  0  0  0  0  0  0  0  0  0  0  0
   -8.3745   -0.3581  -18.8144 H   0  0  0  0  0  0  0  0  0  0  0  0
   -5.2403    1.4613  -17.5052 H   0  0  0  0  0  0  0  0  0  0  0  0
   -4.3658    1.5158  -19.4648 H   0  0  0  0  0  0  0  0  0  0  0  0
   -4.6422   -0.2645  -22.1641 H   0  0  0  0  0  0  0  0  0  0  0  0
   -6.0412    0.7074  -22.7340 H   0  0  0  0  0  0  0  0  0  0  0  0
   -4.5914    1.5282  -22.0625 H   0  0  0  0  0  0  0  0  0  0  0  0
 20 21  2  0  0  0  0
 19 20  1  0  0  0  0
 21 22  1  0  0  0  0
 18 19  2  0  0  0  0
 22 23  2  0  0  0  0
 18 23  1  0  0  0  0
 17 18  1  0  0  0  0
 23 24  1  0  0  0  0
 15 16  2  0  0  0  0
 15 17  1  0  0  0  0
 14 15  1  0  0  0  0
  8 14  1  0  0  0  0
  7 14  1  0  0  0  0
 12 13  2  0  0  0  0
 11 12  1  0  0  0  0
  7  8  1  0  0  0  0
  8  9  1  0  0  0  0
  6  7  2  3  0  0  0
 10 11  1  0  0  0  0
  5  6  1  0  0  0  0
  9 10  2  0  0  0  0
  2  5  1  0  0  0  0
  2  3  2  0  0  0  0
  1  2  1  0  0  0  0
  2  4  2  0  0  0  0
  1 25  1  0  0  0  0
  1 26  1  0  0  0  0
  1 27  1  0  0  0  0
  5 28  1  0  0  0  0
  6 29  1  0  0  0  0
  8 30  1  0  0  0  0
  9 31  1  0  0  0  0
 10 32  1  0  0  0  0
 11 33  1  0  0  0  0
 11 34  1  0  0  0  0
 12 35  1  0  0  0  0
 13 36  1  0  0  0  0
 13 37  1  0  0  0  0
 14 38  1  0  0  0  0
 17 39  1  0  0  0  0
 19 40  1  0  0  0  0
 21 41  1  0  0  0  0
 22 42  1  0  0  0  0
 24 43  1  0  0  0  0
 24 44  1  0  0  0  0
 24 45  1  0  0  0  0
M  END
> <Chemgauss4>
-13.130423

$$$$
