
 OpenBabel07202414163D

 37 39  0  0  0  0  0  0  0  0999 V2000
    0.9399   -0.4002    0.0319 C   0  0  0  0  0  0  0  0  0  0  0  0
    2.4346   -0.2121    0.0820 C   0  0  0  0  0  0  0  0  0  0  0  0
    3.1976   -1.3959    0.0910 C   0  0  0  0  0  0  0  0  0  0  0  0
    4.5788   -1.3445    0.0912 C   0  0  0  0  0  0  0  0  0  0  0  0
    5.2832   -2.4828    0.0696 F   0  0  0  0  0  0  0  0  0  0  0  0
    5.2393   -0.1315    0.0878 C   0  0  0  0  0  0  0  0  0  0  0  0
    4.5123    1.0670    0.0765 C   0  0  0  0  0  0  0  0  0  0  0  0
    5.2086    2.2763    0.0316 C   0  0  0  0  0  0  0  0  0  0  0  0
    4.6390    3.4934   -0.0315 N   0  0  0  0  0  0  0  0  0  0  0  0
    3.2924    3.5118   -0.0570 C   0  0  0  0  0  0  0  0  0  0  0  0
    2.4797    2.3732    0.0159 C   0  0  0  0  0  0  0  0  0  0  0  0
    1.0783    2.5456    0.0655 N   0  0  0  0  0  0  0  0  0  0  0  0
    0.3911    3.3781   -0.8005 C   0  0  0  0  0  0  0  0  0  0  0  0
    0.9132    4.0633   -1.6784 O   0  0  0  0  0  0  0  0  0  0  0  0
   -1.1151    3.3747   -0.5848 C   0  0  0  0  0  0  0  0  0  0  0  0
   -1.5372    4.5186    0.3007 C   0  0  0  0  0  0  0  0  0  0  0  0
   -1.3423    5.8402   -0.1268 C   0  0  0  0  0  0  0  0  0  0  0  0
   -1.6410    6.9100    0.7187 C   0  0  0  0  0  0  0  0  0  0  0  0
   -2.1487    6.6686    1.9917 C   0  0  0  0  0  0  0  0  0  0  0  0
   -2.3738    5.3591    2.4107 C   0  0  0  0  0  0  0  0  0  0  0  0
   -3.0001    5.0606    3.9853 Cl  0  0  0  0  0  0  0  0  0  0  0  0
   -2.0753    4.2838    1.5723 C   0  0  0  0  0  0  0  0  0  0  0  0
    3.0871    1.0769    0.0824 C   0  0  0  0  0  0  0  0  0  0  0  0
    0.6669   -1.4540   -0.0889 H   0  0  0  0  0  0  0  0  0  0  0  0
    0.5108    0.1274   -0.8255 H   0  0  0  0  0  0  0  0  0  0  0  0
    0.4822   -0.0672    0.9680 H   0  0  0  0  0  0  0  0  0  0  0  0
    2.7211   -2.3731    0.0725 H   0  0  0  0  0  0  0  0  0  0  0  0
    6.3260   -0.1352    0.0692 H   0  0  0  0  0  0  0  0  0  0  0  0
    6.2965    2.3020    0.0305 H   0  0  0  0  0  0  0  0  0  0  0  0
    2.8639    4.5107   -0.0904 H   0  0  0  0  0  0  0  0  0  0  0  0
    0.5423    1.8728    0.5884 H   0  0  0  0  0  0  0  0  0  0  0  0
   -1.4302    2.4128   -0.1619 H   0  0  0  0  0  0  0  0  0  0  0  0
   -1.6084    3.4496   -1.5612 H   0  0  0  0  0  0  0  0  0  0  0  0
   -0.9263    6.0436   -1.1139 H   0  0  0  0  0  0  0  0  0  0  0  0
   -1.4597    7.9281    0.3823 H   0  0  0  0  0  0  0  0  0  0  0  0
   -2.3607    7.5040    2.6539 H   0  0  0  0  0  0  0  0  0  0  0  0
   -2.2538    3.2691    1.9192 H   0  0  0  0  0  0  0  0  0  0  0  0
  1  2  1  0  0  0  0
  1 24  1  0  0  0  0
  1 25  1  0  0  0  0
  1 26  1  0  0  0  0
  2  3  1  0  0  0  0
  2 23  2  0  0  0  0
  3  4  2  0  0  0  0
  3 27  1  0  0  0  0
  4  5  1  0  0  0  0
  4  6  1  0  0  0  0
  6  7  2  0  0  0  0
  6 28  1  0  0  0  0
  7  8  1  0  0  0  0
  7 23  1  0  0  0  0
  8  9  2  0  0  0  0
  8 29  1  0  0  0  0
  9 10  1  0  0  0  0
 10 11  2  0  0  0  0
 10 30  1  0  0  0  0
 11 12  1  0  0  0  0
 11 23  1  0  0  0  0
 12 13  1  0  0  0  0
 12 31  1  0  0  0  0
 13 14  2  0  0  0  0
 13 15  1  0  0  0  0
 15 16  1  0  0  0  0
 15 32  1  0  0  0  0
 15 33  1  0  0  0  0
 16 17  1  0  0  0  0
 16 22  2  0  0  0  0
 17 18  2  0  0  0  0
 17 34  1  0  0  0  0
 18 19  1  0  0  0  0
 18 35  1  0  0  0  0
 19 20  2  0  0  0  0
 19 36  1  0  0  0  0
 20 21  1  0  0  0  0
 20 22  1  0  0  0  0
 22 37  1  0  0  0  0
M  END
$$$$
