stable:False satoms:14 tatoms:24 sratio:0.5833333333333334
  -OEChem-07092417443D

 24 23  0     1  0  0  0  0  0999 V2000
    6.4678   -4.9471   26.4694 C   0  0  0  0  0  0  0  0  0  0  0  0
    8.2488   -4.3424   26.2238 S   0  0  0  0  0  0  0  0  0  0  0  0
    9.1351   -5.4886   26.1974 O   0  0  0  0  0  0  0  0  0  0  0  0
    8.5323   -3.4262   27.2864 O   0  0  0  0  0  0  0  0  0  0  0  0
    8.1207   -3.6637   24.7972 N   0  0  0  0  0  0  0  0  0  0  0  0
    8.9997   -2.9409   24.2976 C   0  0  0  0  0  0  0  0  0  0  0  0
    9.5745   -2.2156   23.7450 C   0  0  0  0  0  0  0  0  0  0  0  0
   10.2994   -1.4024   23.0168 C   0  0  0  0  0  0  0  0  0  0  0  0
   11.2094    0.3330   24.5571 H   0  0  0  0  0  0  0  0  0  0  0  0
   12.1067    0.1906   24.1142 C   0  0  0  0  0  2  0  0  0  0  0  0
   13.0483   -0.1366   23.5667 C   0  0  0  0  0  0  0  0  0  0  0  0
   12.7630   -1.2711   22.7086 C   0  0  0  0  0  0  0  0  0  0  0  0
   11.6804   -1.6206   22.7168 C   0  0  0  0  0  0  0  0  0  0  0  0
    9.8102   -0.4606   22.3111 C   0  0  0  0  0  0  0  0  0  0  0  0
    9.0740    0.1931   21.3726 C   0  0  0  0  0  0  0  0  0  0  0  0
    9.4584    1.2216   20.8719 O   0  0  0  0  0  0  0  0  0  0  0  0
    7.8871   -0.4570   21.1105 N   0  0  0  0  0  0  0  0  0  0  0  0
    7.0961   -0.0588   20.2085 C   0  0  3  0  0  0  0  0  0  0  0  0
    7.3666   -0.2774   18.6612 C   0  0  0  0  0  0  0  0  0  0  0  0
    6.4184    0.3926   18.0010 N   0  5  0  0  0  0  0  0  0  0  0  0
    5.6645    0.7910   17.5152 H   0  0  0  0  0  0  0  0  0  0  0  0
    5.3290    1.0167   19.6057 C   0  0  0  0  0  0  0  0  0  0  0  0
    5.8447    0.6004   20.4593 C   0  0  0  0  0  0  0  0  0  0  0  0
    5.4489    0.6799   21.4827 H   0  0  0  0  0  0  0  0  0  0  0  0
 20 21  1  0  0  0  0
 19 20  1  0  0  0  0
 18 19  1  0  0  0  0
 22 23  2  0  0  0  0
 18 23  1  0  0  0  0
 17 18  1  0  0  0  0
 23 24  1  0  0  0  0
 15 16  2  0  0  0  0
 15 17  1  0  0  0  0
 14 15  1  0  0  0  0
  8 14  2  3  0  0  0
 12 13  2  0  0  0  0
 11 12  1  0  0  0  0
  8 13  1  0  0  0  0
  7  8  1  0  0  0  0
 10 11  1  0  0  0  0
  6  7  3  0  0  0  0
  9 10  1  0  0  0  0
  5  6  1  0  0  0  0
  2  5  1  0  0  0  0
  2  3  2  0  0  0  0
  1  2  1  0  0  0  0
  2  4  2  0  0  0  0
M  CHG  1  20  -1
M  END
> <Shapegauss>
-253.402740

$$$$
