stable:False satoms:14 tatoms:24 sratio:0.5833333333333334
  -OEChem-08062410413D

 41 40  0     1  0  0  0  0  0999 V2000
   -6.2099   -5.2711  -25.8909 C   0  0  0  0  0  0  0  0  0  0  0  0
   -7.9961   -4.6344  -25.8453 S   0  0  0  0  0  0  0  0  0  0  0  0
   -8.8986   -5.7677  -25.8138 O   0  0  0  0  0  0  0  0  0  0  0  0
   -8.1731   -3.7956  -26.9917 O   0  0  0  0  0  0  0  0  0  0  0  0
   -7.9810   -3.8546  -24.4655 N   0  0  0  0  0  0  0  0  0  0  0  0
   -8.8887   -3.0895  -24.0975 C   0  0  0  0  0  0  0  0  0  0  0  0
   -9.4979   -2.3208  -23.6506 C   0  0  0  0  0  0  0  0  0  0  0  0
  -10.2705   -1.4502  -23.0486 C   0  0  0  0  0  0  0  0  0  0  0  0
  -11.0181    0.1762  -24.7830 H   0  0  0  0  0  0  0  0  0  0  0  0
  -11.9522    0.0744  -24.4107 C   0  0  0  0  0  2  0  0  0  0  0  0
  -12.9423   -0.2036  -23.9251 C   0  0  0  0  0  0  0  0  0  0  0  0
  -12.7492   -1.2750  -22.9661 C   0  0  0  0  0  0  0  0  0  0  0  0
  -11.6753   -1.6337  -22.8549 C   0  0  0  0  0  0  0  0  0  0  0  0
   -9.8296   -0.4638  -22.3725 C   0  0  0  0  0  0  0  0  0  0  0  0
   -9.1672    0.2500  -21.4230 C   0  0  0  0  0  0  0  0  0  0  0  0
   -9.5777    1.3157  -21.0329 O   0  0  0  0  0  0  0  0  0  0  0  0
   -8.0172   -0.3897  -21.0126 N   0  0  0  0  0  0  0  0  0  0  0  0
   -7.3009    0.0662  -20.0762 C   0  0  3  0  0  0  0  0  0  0  0  0
   -7.7069   -0.0365  -18.5466 C   0  0  0  0  0  0  0  0  0  0  0  0
   -6.8091    0.6714  -17.8563 N   0  3  0  0  0  0  0  0  0  0  0  0
   -7.0309    0.6318  -16.8820 H   0  0  0  0  0  0  0  0  0  0  0  0
   -5.5762    1.1672  -19.4008 C   0  0  0  0  0  0  0  0  0  0  0  0
   -6.0227    0.6943  -20.2639 C   0  0  0  0  0  0  0  0  0  0  0  0
   -5.5391    0.6954  -21.2521 H   0  0  0  0  0  0  0  0  0  0  0  0
   -6.0499   -5.8501  -26.8125 H   0  0  0  0  0  0  0  0  0  0  0  0
   -5.5159   -4.4179  -25.8689 H   0  0  0  0  0  0  0  0  0  0  0  0
   -6.0277   -5.9146  -25.0175 H   0  0  0  0  0  0  0  0  0  0  0  0
   -7.1463   -3.3039  -24.4725 H   0  0  0  0  0  0  0  0  0  0  0  0
  -13.6472   -0.5346  -24.7019 H   0  0  0  0  0  0  0  0  0  0  0  0
  -13.3528    0.6764  -23.4083 H   0  0  0  0  0  0  0  0  0  0  0  0
  -13.5644   -1.7004  -22.3997 H   0  0  0  0  0  0  0  0  0  0  0  0
  -11.7580   -2.5870  -22.3540 H   0  0  0  0  0  0  0  0  0  0  0  0
  -10.2891    0.3470  -22.9183 H   0  0  0  0  0  0  0  0  0  0  0  0
   -7.7425   -1.2367  -21.4676 H   0  0  0  0  0  0  0  0  0  0  0  0
   -7.8025    1.0422  -20.1528 H   0  0  0  0  0  0  0  0  0  0  0  0
   -7.6908   -1.0871  -18.2211 H   0  0  0  0  0  0  0  0  0  0  0  0
   -8.7139    0.3791  -18.3942 H   0  0  0  0  0  0  0  0  0  0  0  0
   -6.8270    1.6228  -18.1637 H   0  0  0  0  0  0  0  0  0  0  0  0
   -4.6215    1.6639  -19.4908 H   0  0  0  0  0  0  0  0  0  0  0  0
   -6.0847    1.1430  -18.4483 H   0  0  0  0  0  0  0  0  0  0  0  0
   -5.8970    0.2898  -18.0063 H   0  0  0  0  0  0  0  0  0  0  0  0
 20 21  1  0  0  0  0
 19 20  1  0  0  0  0
 18 19  1  0  0  0  0
 22 23  2  0  0  0  0
 18 23  1  0  0  0  0
 17 18  1  0  0  0  0
 23 24  1  0  0  0  0
 15 16  2  0  0  0  0
 15 17  1  0  0  0  0
 14 15  1  0  0  0  0
  8 14  2  3  0  0  0
 12 13  2  0  0  0  0
 11 12  1  0  0  0  0
  8 13  1  0  0  0  0
  7  8  1  0  0  0  0
 10 11  1  0  0  0  0
  6  7  3  0  0  0  0
  9 10  1  0  0  0  0
  5  6  1  0  0  0  0
  2  5  1  0  0  0  0
  2  3  2  0  0  0  0
  1  2  1  0  0  0  0
  2  4  2  0  0  0  0
  1 25  1  0  0  0  0
  1 26  1  0  0  0  0
  1 27  1  0  0  0  0
  5 28  1  0  0  0  0
 11 29  1  0  0  0  0
 11 30  1  0  0  0  0
 12 31  1  0  0  0  0
 13 32  1  0  0  0  0
 14 33  1  0  0  0  0
 17 34  1  0  0  0  0
 18 35  1  0  0  0  0
 19 36  1  0  0  0  0
 19 37  1  0  0  0  0
 20 38  1  0  0  0  0
 22 39  1  0  0  0  0
 22 40  1  0  0  0  0
 20 41  1  0  0  0  0
M  CHG  1  20   1
M  END
> <Chemgauss4>
-9.648835

$$$$
