stable:False satoms:14 tatoms:24 sratio:0.5833333333333334
  -OEChem-08062410413D

 41 40  0     1  0  0  0  0  0999 V2000
    6.1550   -5.2431   25.9287 C   0  0  0  0  0  0  0  0  0  0  0  0
    7.9411   -4.6064   25.8831 S   0  0  0  0  0  0  0  0  0  0  0  0
    8.8437   -5.7397   25.8515 O   0  0  0  0  0  0  0  0  0  0  0  0
    8.1182   -3.7677   27.0294 O   0  0  0  0  0  0  0  0  0  0  0  0
    7.9261   -3.8266   24.5032 N   0  0  0  0  0  0  0  0  0  0  0  0
    8.8338   -3.0615   24.1352 C   0  0  0  0  0  0  0  0  0  0  0  0
    9.4430   -2.2928   23.6883 C   0  0  0  0  0  0  0  0  0  0  0  0
   10.2155   -1.4222   23.0863 C   0  0  0  0  0  0  0  0  0  0  0  0
   10.9631    0.2042   24.8207 H   0  0  0  0  0  0  0  0  0  0  0  0
   11.8973    0.1024   24.4484 C   0  0  0  0  0  2  0  0  0  0  0  0
   12.8874   -0.1756   23.9628 C   0  0  0  0  0  0  0  0  0  0  0  0
   12.6943   -1.2470   23.0038 C   0  0  0  0  0  0  0  0  0  0  0  0
   11.6204   -1.6057   22.8927 C   0  0  0  0  0  0  0  0  0  0  0  0
    9.7747   -0.4358   22.4103 C   0  0  0  0  0  0  0  0  0  0  0  0
    9.1123    0.2780   21.4607 C   0  0  0  0  0  0  0  0  0  0  0  0
    9.5227    1.3437   21.0706 O   0  0  0  0  0  0  0  0  0  0  0  0
    7.9623   -0.3617   21.0503 N   0  0  0  0  0  0  0  0  0  0  0  0
    7.2460    0.0942   20.1139 C   0  0  3  0  0  0  0  0  0  0  0  0
    7.6520   -0.0085   18.5843 C   0  0  0  0  0  0  0  0  0  0  0  0
    6.7542    0.6994   17.8940 N   0  3  0  0  0  0  0  0  0  0  0  0
    6.9760    0.6597   16.9197 H   0  0  0  0  0  0  0  0  0  0  0  0
    5.5213    1.1951   19.4386 C   0  0  0  0  0  0  0  0  0  0  0  0
    5.9678    0.7223   20.3017 C   0  0  0  0  0  0  0  0  0  0  0  0
    5.4842    0.7234   21.2898 H   0  0  0  0  0  0  0  0  0  0  0  0
    5.9950   -5.8221   26.8502 H   0  0  0  0  0  0  0  0  0  0  0  0
    5.4610   -4.3899   25.9067 H   0  0  0  0  0  0  0  0  0  0  0  0
    5.9728   -5.8866   25.0553 H   0  0  0  0  0  0  0  0  0  0  0  0
    7.0914   -3.2760   24.5102 H   0  0  0  0  0  0  0  0  0  0  0  0
   13.5923   -0.5067   24.7397 H   0  0  0  0  0  0  0  0  0  0  0  0
   13.2979    0.7044   23.4461 H   0  0  0  0  0  0  0  0  0  0  0  0
   13.5095   -1.6724   22.4374 H   0  0  0  0  0  0  0  0  0  0  0  0
   11.7031   -2.5590   22.3918 H   0  0  0  0  0  0  0  0  0  0  0  0
   10.2342    0.3750   22.9560 H   0  0  0  0  0  0  0  0  0  0  0  0
    7.6876   -1.2087   21.5053 H   0  0  0  0  0  0  0  0  0  0  0  0
    7.7476    1.0702   20.1906 H   0  0  0  0  0  0  0  0  0  0  0  0
    7.6359   -1.0592   18.2588 H   0  0  0  0  0  0  0  0  0  0  0  0
    8.6590    0.4071   18.4319 H   0  0  0  0  0  0  0  0  0  0  0  0
    6.7721    1.6508   18.2015 H   0  0  0  0  0  0  0  0  0  0  0  0
    4.5665    1.6919   19.5285 H   0  0  0  0  0  0  0  0  0  0  0  0
    6.0298    1.1709   18.4861 H   0  0  0  0  0  0  0  0  0  0  0  0
    5.8421    0.3178   18.0440 H   0  0  0  0  0  0  0  0  0  0  0  0
 20 21  1  0  0  0  0
 19 20  1  0  0  0  0
 18 19  1  0  0  0  0
 22 23  2  0  0  0  0
 18 23  1  0  0  0  0
 17 18  1  0  0  0  0
 23 24  1  0  0  0  0
 15 16  2  0  0  0  0
 15 17  1  0  0  0  0
 14 15  1  0  0  0  0
  8 14  2  3  0  0  0
 12 13  2  0  0  0  0
 11 12  1  0  0  0  0
  8 13  1  0  0  0  0
  7  8  1  0  0  0  0
 10 11  1  0  0  0  0
  6  7  3  0  0  0  0
  9 10  1  0  0  0  0
  5  6  1  0  0  0  0
  2  5  1  0  0  0  0
  2  3  2  0  0  0  0
  1  2  1  0  0  0  0
  2  4  2  0  0  0  0
  1 25  1  0  0  0  0
  1 26  1  0  0  0  0
  1 27  1  0  0  0  0
  5 28  1  0  0  0  0
 11 29  1  0  0  0  0
 11 30  1  0  0  0  0
 12 31  1  0  0  0  0
 13 32  1  0  0  0  0
 14 33  1  0  0  0  0
 17 34  1  0  0  0  0
 18 35  1  0  0  0  0
 19 36  1  0  0  0  0
 19 37  1  0  0  0  0
 20 38  1  0  0  0  0
 22 39  1  0  0  0  0
 22 40  1  0  0  0  0
 20 41  1  0  0  0  0
M  CHG  1  20   1
M  END
> <Chemgauss4>
-9.686239

$$$$
