stable:False satoms:7 tatoms:24 sratio:0.2916666666666667
  -OEChem-08062414473D

 38 40  0     1  0  0  0  0  0999 V2000
    6.1361   -5.1512   25.9829 C   0  0  0  0  0  0  0  0  0  0  0  0
    7.6571   -4.6551   25.8479 S   0  0  0  0  0  0  0  0  0  0  0  0
    8.5158   -5.8246   25.7968 O   0  0  0  0  0  0  0  0  0  0  0  0
    7.9997   -3.8191   26.9693 O   0  0  0  0  0  0  0  0  0  0  0  0
    7.7675   -3.8479   24.4359 N   0  0  0  0  0  0  0  0  0  0  0  0
    8.6825   -3.1549   24.0929 C   0  0  0  0  0  0  0  0  0  0  0  0
    9.2728   -2.3035   23.6383 C   0  0  0  0  0  0  0  0  0  0  0  0
   10.1909   -1.3830   23.5159 C   0  0  1  0  0  0  0  0  0  0  0  0
   10.8122   -0.4219   24.6381 C   0  0  0  0  0  0  0  0  0  0  0  0
   11.9006   -0.1249   24.7476 C   0  0  0  0  0  0  0  0  0  0  0  0
   12.9795   -0.5666   24.0008 C   0  0  0  0  0  0  0  0  0  0  0  0
   12.6950   -1.4648   23.1671 C   0  0  0  0  0  0  0  0  0  0  0  0
   11.7371   -1.9887   22.8469 C   0  0  0  0  0  0  0  0  0  0  0  0
    9.7597   -0.7699   22.5527 C   0  0  0  0  0  0  0  0  0  0  0  0
    9.1978   -0.0418   21.5768 C   0  0  0  0  0  0  0  0  0  0  0  0
    9.7185    0.9436   21.2935 O   0  0  0  0  0  0  0  0  0  0  0  0
    8.0598   -0.5878   21.1152 N   0  0  0  0  0  0  0  0  0  0  0  0
    7.4898   -0.0759   20.1631 C   0  0  0  0  0  0  0  0  0  0  0  0
    7.6020    0.1417   18.8619 C   0  0  0  0  0  0  0  0  0  0  0  0
    7.2680    0.5064   17.7094 N   0  0  0  0  0  0  0  0  0  0  0  0
    6.2051    0.9801   18.1662 C   0  0  0  0  0  0  0  0  0  0  0  0
    5.6327    1.0430   19.2370 C   0  0  0  0  0  0  0  0  0  0  0  0
    6.0167    0.5861   20.3893 C   0  0  0  0  0  0  0  0  0  0  0  0
    5.3767    0.6007   21.7949 Cl  0  0  0  0  0  0  0  0  0  0  0  0
    6.0125   -5.7041   26.9258 H   0  0  0  0  0  0  0  0  0  0  0  0
    5.4646   -4.2800   25.9781 H   0  0  0  0  0  0  0  0  0  0  0  0
    5.8888   -5.8094   25.1369 H   0  0  0  0  0  0  0  0  0  0  0  0
    6.9637   -3.2536   24.4096 H   0  0  0  0  0  0  0  0  0  0  0  0
   10.1234   -0.0157   25.3640 H   0  0  0  0  0  0  0  0  0  0  0  0
   12.1226    0.5879   25.5280 H   0  0  0  0  0  0  0  0  0  0  0  0
   13.9783   -0.1743   24.1233 H   0  0  0  0  0  0  0  0  0  0  0  0
   13.5616   -1.8217   22.6305 H   0  0  0  0  0  0  0  0  0  0  0  0
   11.6724   -1.9135   21.7514 H   0  0  0  0  0  0  0  0  0  0  0  0
   11.8284   -3.0458   23.1372 H   0  0  0  0  0  0  0  0  0  0  0  0
    9.6100   -1.7013   21.9870 H   0  0  0  0  0  0  0  0  0  0  0  0
   10.7556   -0.3604   22.3278 H   0  0  0  0  0  0  0  0  0  0  0  0
    7.6824   -1.4067   21.5476 H   0  0  0  0  0  0  0  0  0  0  0  0
    4.6772    1.5464   19.2280 H   0  0  0  0  0  0  0  0  0  0  0  0
 20 21  2  0  0  0  0
 19 20  1  0  0  0  0
 19 21  1  0  0  0  0
 21 22  1  0  0  0  0
 18 19  2  0  0  0  0
 22 23  2  0  0  0  0
 18 23  1  0  0  0  0
 17 18  1  0  0  0  0
 23 24  1  0  0  0  0
 15 16  2  0  0  0  0
 15 17  1  0  0  0  0
 14 15  1  0  0  0  0
  8 14  1  0  0  0  0
 12 13  1  0  0  0  0
  8 13  1  0  0  0  0
 11 12  2  0  0  0  0
  7  8  1  0  0  0  0
  8  9  1  0  0  0  0
 10 11  1  0  0  0  0
  6  7  3  0  0  0  0
  5  6  1  0  0  0  0
  9 10  2  0  0  0  0
  2  5  1  0  0  0  0
  2  3  2  0  0  0  0
  1  2  1  0  0  0  0
  2  4  2  0  0  0  0
  1 25  1  0  0  0  0
  1 26  1  0  0  0  0
  1 27  1  0  0  0  0
  5 28  1  0  0  0  0
  9 29  1  0  0  0  0
 10 30  1  0  0  0  0
 11 31  1  0  0  0  0
 12 32  1  0  0  0  0
 13 33  1  0  0  0  0
 13 34  1  0  0  0  0
 14 35  1  0  0  0  0
 14 36  1  0  0  0  0
 17 37  1  0  0  0  0
 22 38  1  0  0  0  0
M  END
> <Chemgauss4>
-9.027340

$$$$
