stable:False satoms:7 tatoms:24 sratio:0.2916666666666667
  -OEChem-08062414473D

 38 40  0     1  0  0  0  0  0999 V2000
   -6.3790   -5.0535  -26.0068 C   0  0  0  0  0  0  0  0  0  0  0  0
   -7.9000   -4.5574  -25.8718 S   0  0  0  0  0  0  0  0  0  0  0  0
   -8.7586   -5.7269  -25.8207 O   0  0  0  0  0  0  0  0  0  0  0  0
   -8.2426   -3.7214  -26.9932 O   0  0  0  0  0  0  0  0  0  0  0  0
   -8.0104   -3.7502  -24.4598 N   0  0  0  0  0  0  0  0  0  0  0  0
   -8.9254   -3.0572  -24.1168 C   0  0  0  0  0  0  0  0  0  0  0  0
   -9.5156   -2.2058  -23.6622 C   0  0  0  0  0  0  0  0  0  0  0  0
  -10.4338   -1.2853  -23.5397 C   0  0  1  0  0  0  0  0  0  0  0  0
  -11.0551   -0.3242  -24.6620 C   0  0  0  0  0  0  0  0  0  0  0  0
  -12.1435   -0.0272  -24.7715 C   0  0  0  0  0  0  0  0  0  0  0  0
  -13.2224   -0.4689  -24.0247 C   0  0  0  0  0  0  0  0  0  0  0  0
  -12.9378   -1.3671  -23.1910 C   0  0  0  0  0  0  0  0  0  0  0  0
  -11.9799   -1.8910  -22.8708 C   0  0  0  0  0  0  0  0  0  0  0  0
  -10.0026   -0.6721  -22.5765 C   0  0  0  0  0  0  0  0  0  0  0  0
   -9.4407    0.0559  -21.6007 C   0  0  0  0  0  0  0  0  0  0  0  0
   -9.9614    1.0413  -21.3173 O   0  0  0  0  0  0  0  0  0  0  0  0
   -8.3027   -0.4901  -21.1391 N   0  0  0  0  0  0  0  0  0  0  0  0
   -7.7327    0.0218  -20.1869 C   0  0  0  0  0  0  0  0  0  0  0  0
   -7.8449    0.2394  -18.8858 C   0  0  0  0  0  0  0  0  0  0  0  0
   -7.5109    0.6041  -17.7333 N   0  0  0  0  0  0  0  0  0  0  0  0
   -6.4480    1.0778  -18.1901 C   0  0  0  0  0  0  0  0  0  0  0  0
   -5.8756    1.1408  -19.2609 C   0  0  0  0  0  0  0  0  0  0  0  0
   -6.2596    0.6839  -20.4131 C   0  0  0  0  0  0  0  0  0  0  0  0
   -5.6195    0.6984  -21.8188 Cl  0  0  0  0  0  0  0  0  0  0  0  0
   -6.2554   -5.6063  -26.9497 H   0  0  0  0  0  0  0  0  0  0  0  0
   -5.7075   -4.1822  -26.0020 H   0  0  0  0  0  0  0  0  0  0  0  0
   -6.1317   -5.7117  -25.1608 H   0  0  0  0  0  0  0  0  0  0  0  0
   -7.2066   -3.1559  -24.4335 H   0  0  0  0  0  0  0  0  0  0  0  0
  -10.3663    0.0820  -25.3879 H   0  0  0  0  0  0  0  0  0  0  0  0
  -12.3655    0.6857  -25.5519 H   0  0  0  0  0  0  0  0  0  0  0  0
  -14.2211   -0.0766  -24.1472 H   0  0  0  0  0  0  0  0  0  0  0  0
  -13.8045   -1.7239  -22.6544 H   0  0  0  0  0  0  0  0  0  0  0  0
  -11.9153   -1.8158  -21.7753 H   0  0  0  0  0  0  0  0  0  0  0  0
  -12.0713   -2.9480  -23.1610 H   0  0  0  0  0  0  0  0  0  0  0  0
   -9.8529   -1.6036  -22.0109 H   0  0  0  0  0  0  0  0  0  0  0  0
  -10.9985   -0.2627  -22.3517 H   0  0  0  0  0  0  0  0  0  0  0  0
   -7.9253   -1.3090  -21.5714 H   0  0  0  0  0  0  0  0  0  0  0  0
   -4.9201    1.6441  -19.2519 H   0  0  0  0  0  0  0  0  0  0  0  0
 20 21  2  0  0  0  0
 19 20  1  0  0  0  0
 19 21  1  0  0  0  0
 21 22  1  0  0  0  0
 18 19  2  0  0  0  0
 22 23  2  0  0  0  0
 18 23  1  0  0  0  0
 17 18  1  0  0  0  0
 23 24  1  0  0  0  0
 15 16  2  0  0  0  0
 15 17  1  0  0  0  0
 14 15  1  0  0  0  0
  8 14  1  0  0  0  0
 12 13  1  0  0  0  0
  8 13  1  0  0  0  0
 11 12  2  0  0  0  0
  7  8  1  0  0  0  0
  8  9  1  0  0  0  0
 10 11  1  0  0  0  0
  6  7  3  0  0  0  0
  5  6  1  0  0  0  0
  9 10  2  0  0  0  0
  2  5  1  0  0  0  0
  2  3  2  0  0  0  0
  1  2  1  0  0  0  0
  2  4  2  0  0  0  0
  1 25  1  0  0  0  0
  1 26  1  0  0  0  0
  1 27  1  0  0  0  0
  5 28  1  0  0  0  0
  9 29  1  0  0  0  0
 10 30  1  0  0  0  0
 11 31  1  0  0  0  0
 12 32  1  0  0  0  0
 13 33  1  0  0  0  0
 13 34  1  0  0  0  0
 14 35  1  0  0  0  0
 14 36  1  0  0  0  0
 17 37  1  0  0  0  0
 22 38  1  0  0  0  0
M  END
> <Chemgauss4>
-8.993350

$$$$
