stable:False satoms:16 tatoms:24 sratio:0.6666666666666666
  -OEChem-08052414253D

 32 33  0     1  0  0  0  0  0999 V2000
    8.5397   -2.3688   24.7910 H   0  0  0  0  0  0  0  0  0  0  0  0
   10.9466    1.5004   24.3382 C   0  0  3  0  0  0  0  0  0  0  0  0
    9.8200    1.2019   24.3751 N   0  3  0  0  0  0  0  0  0  0  0  0
    9.4460   -2.4361   22.1261 O   0  0  0  0  0  0  0  0  0  0  0  0
   12.5022   -0.4999   23.6126 S   0  0  0  0  0  0  0  0  0  0  0  0
    9.9911   -2.0601   25.7449 H   0  0  0  0  0  0  0  0  0  0  0  0
   12.7460    2.7428   24.9807 H   0  0  0  0  0  0  0  0  0  0  0  0
    8.5289   -0.4269   25.7410 C   0  0  0  0  0  0  0  0  0  0  0  0
   11.9596   -1.6271   21.5653 H   0  0  0  0  0  0  0  0  0  0  0  0
    6.6635   -0.7721   25.8897 H   0  0  0  0  0  0  0  0  0  0  0  0
   10.2203   -1.8263   22.8190 C   0  0  0  0  0  0  0  0  0  0  0  0
   10.7401    0.2282   24.0655 C   0  0  1  0  0  0  0  0  0  0  0  0
   10.1190    3.7902   23.1511 C   0  0  0  0  0  0  0  0  0  0  0  0
    9.2658   -1.5995   25.0593 C   0  0  0  0  0  0  0  0  0  0  0  0
    7.4284   -0.9083   26.4509 O   0  0  0  0  0  0  0  0  0  0  0  0
   11.7376   -1.7986   22.6091 C   0  0  0  0  0  0  0  0  0  0  0  0
   12.1224   -2.7634   22.9185 H   0  0  0  0  0  0  0  0  0  0  0  0
   11.6511    4.7683   24.0299 H   0  0  0  0  0  0  0  0  0  0  0  0
    8.9970    3.9061   22.3500 N   0  3  0  0  0  0  0  0  0  0  0  0
    8.2139    0.2770   24.9578 H   0  0  0  0  0  0  0  0  0  0  0  0
    9.9064   -1.1035   23.8947 N   0  0  0  0  0  0  0  0  0  0  0  0
    9.2067    0.1202   26.4043 H   0  0  0  0  0  0  0  0  0  0  0  0
   11.8186    2.7104   24.4564 C   0  0  0  0  0  0  0  0  0  0  0  0
   11.2161    3.7910   23.8886 C   0  0  0  0  0  0  0  0  0  0  0  0
   11.0710    1.2778   25.4083 H   0  0  0  0  0  0  0  0  0  0  0  0
    9.1957    1.5360   23.6690 H   0  0  0  0  0  0  0  0  0  0  0  0
    9.5083    3.4730   24.0093 H   0  0  0  0  0  0  0  0  0  0  0  0
   10.4590    2.9038   22.5955 H   0  0  0  0  0  0  0  0  0  0  0  0
    9.2764    4.1206   21.4141 H   0  0  0  0  0  0  0  0  0  0  0  0
    8.4915    3.0433   22.3575 H   0  0  0  0  0  0  0  0  0  0  0  0
    9.3439    1.1721   25.2540 H   0  0  0  0  0  0  0  0  0  0  0  0
    8.4121    4.6382   22.6993 H   0  0  0  0  0  0  0  0  0  0  0  0
  4 11  2  0  0  0  0
  9 16  1  0  0  0  0
 11 16  1  0  0  0  0
 11 21  1  0  0  0  0
 16 17  1  0  0  0  0
  5 16  1  0  0  0  0
  1 14  1  0  0  0  0
 14 21  1  0  0  0  0
 12 21  1  0  0  0  0
 13 19  1  0  0  0  0
  6 14  1  0  0  0  0
  8 14  1  0  0  0  0
  5 12  1  0  0  0  0
 10 15  1  0  0  0  0
  3 12  1  0  0  0  0
  2 12  1  0  0  0  0
  8 20  1  0  0  0  0
  2  3  1  0  0  0  0
  8 15  1  0  0  0  0
  8 22  1  0  0  0  0
 13 24  1  0  0  0  0
  2 23  1  0  0  0  0
 23 24  2  0  0  0  0
 18 24  1  0  0  0  0
  7 23  1  0  0  0  0
  2 25  1  0  0  0  0
  3 26  1  0  0  0  0
 13 27  1  0  0  0  0
 13 28  1  0  0  0  0
 19 29  1  0  0  0  0
 19 30  1  0  0  0  0
  3 31  1  0  0  0  0
 19 32  1  0  0  0  0
M  CHG  2   3   1  19   1
M  END
> <Chemgauss4>
-6.179696

$$$$
