stable:False satoms:16 tatoms:24 sratio:0.6666666666666666
  -OEChem-08052414253D

 32 33  0     1  0  0  0  0  0999 V2000
   -8.8524   -2.3051  -25.2403 H   0  0  0  0  0  0  0  0  0  0  0  0
  -11.2592    1.5641  -24.7876 C   0  0  3  0  0  0  0  0  0  0  0  0
  -10.1326    1.2656  -24.8245 N   0  3  0  0  0  0  0  0  0  0  0  0
   -9.7586   -2.3723  -22.5754 O   0  0  0  0  0  0  0  0  0  0  0  0
  -12.8149   -0.4361  -24.0620 S   0  0  0  0  0  0  0  0  0  0  0  0
  -10.3037   -1.9964  -26.1942 H   0  0  0  0  0  0  0  0  0  0  0  0
  -13.0587    2.8065  -25.4300 H   0  0  0  0  0  0  0  0  0  0  0  0
   -8.8416   -0.3632  -26.1903 C   0  0  0  0  0  0  0  0  0  0  0  0
  -12.2722   -1.5634  -22.0147 H   0  0  0  0  0  0  0  0  0  0  0  0
   -6.9761   -0.7084  -26.3391 H   0  0  0  0  0  0  0  0  0  0  0  0
  -10.5330   -1.7626  -23.2683 C   0  0  0  0  0  0  0  0  0  0  0  0
  -11.0527    0.2920  -24.5149 C   0  0  1  0  0  0  0  0  0  0  0  0
  -10.4316    3.8539  -23.6005 C   0  0  0  0  0  0  0  0  0  0  0  0
   -9.5784   -1.5358  -25.5087 C   0  0  0  0  0  0  0  0  0  0  0  0
   -7.7410   -0.8446  -26.9003 O   0  0  0  0  0  0  0  0  0  0  0  0
  -12.0503   -1.7349  -23.0585 C   0  0  0  0  0  0  0  0  0  0  0  0
  -12.4351   -2.6997  -23.3679 H   0  0  0  0  0  0  0  0  0  0  0  0
  -11.9637    4.8320  -24.4793 H   0  0  0  0  0  0  0  0  0  0  0  0
   -9.3096    3.9698  -22.7993 N   0  3  0  0  0  0  0  0  0  0  0  0
   -8.5265    0.3407  -25.4072 H   0  0  0  0  0  0  0  0  0  0  0  0
  -10.2190   -1.0398  -24.3440 N   0  0  0  0  0  0  0  0  0  0  0  0
   -9.5193    0.1839  -26.8536 H   0  0  0  0  0  0  0  0  0  0  0  0
  -12.1312    2.7741  -24.9057 C   0  0  0  0  0  0  0  0  0  0  0  0
  -11.5287    3.8547  -24.3380 C   0  0  0  0  0  0  0  0  0  0  0  0
  -11.3837    1.3415  -25.8576 H   0  0  0  0  0  0  0  0  0  0  0  0
   -9.5083    1.5997  -24.1183 H   0  0  0  0  0  0  0  0  0  0  0  0
   -9.8209    3.5367  -24.4587 H   0  0  0  0  0  0  0  0  0  0  0  0
  -10.7717    2.9676  -23.0449 H   0  0  0  0  0  0  0  0  0  0  0  0
   -9.5890    4.1843  -21.8634 H   0  0  0  0  0  0  0  0  0  0  0  0
   -8.8041    3.1070  -22.8068 H   0  0  0  0  0  0  0  0  0  0  0  0
   -9.6566    1.2359  -25.7034 H   0  0  0  0  0  0  0  0  0  0  0  0
   -8.7247    4.7019  -23.1487 H   0  0  0  0  0  0  0  0  0  0  0  0
  4 11  2  0  0  0  0
  9 16  1  0  0  0  0
 11 16  1  0  0  0  0
 11 21  1  0  0  0  0
 16 17  1  0  0  0  0
  5 16  1  0  0  0  0
  1 14  1  0  0  0  0
 14 21  1  0  0  0  0
 12 21  1  0  0  0  0
 13 19  1  0  0  0  0
  6 14  1  0  0  0  0
  8 14  1  0  0  0  0
  5 12  1  0  0  0  0
 10 15  1  0  0  0  0
  3 12  1  0  0  0  0
  2 12  1  0  0  0  0
  8 20  1  0  0  0  0
  2  3  1  0  0  0  0
  8 15  1  0  0  0  0
  8 22  1  0  0  0  0
 13 24  1  0  0  0  0
  2 23  1  0  0  0  0
 23 24  2  0  0  0  0
 18 24  1  0  0  0  0
  7 23  1  0  0  0  0
  2 25  1  0  0  0  0
  3 26  1  0  0  0  0
 13 27  1  0  0  0  0
 13 28  1  0  0  0  0
 19 29  1  0  0  0  0
 19 30  1  0  0  0  0
  3 31  1  0  0  0  0
 19 32  1  0  0  0  0
M  CHG  2   3   1  19   1
M  END
> <Chemgauss4>
-6.284920

$$$$
