stable:False satoms:10 tatoms:24 sratio:0.4166666666666667
  -OEChem-07092417493D

 24 25  0     1  0  0  0  0  0999 V2000
    6.6258   -4.8782   26.4344 C   0  0  0  0  0  0  0  0  0  0  0  0
    8.1729   -4.3296   26.1074 S   0  0  0  0  0  0  0  0  0  0  0  0
    9.0736   -5.4727   26.0580 O   0  0  0  0  0  0  0  0  0  0  0  0
    8.5844   -3.4272   27.1498 O   0  0  0  0  0  0  0  0  0  0  0  0
    8.0955   -3.5776   24.6698 N   0  0  0  0  0  0  0  0  0  0  0  0
    8.9668   -2.9193   24.1412 C   0  0  0  0  0  0  0  0  0  0  0  0
    9.4000   -1.9519   23.5052 C   0  0  0  0  0  0  0  0  0  0  0  0
   10.3152   -1.0925   23.3060 C   0  0  1  0  0  0  0  0  0  0  0  0
   11.0365   -0.0354   24.3209 C   0  0  0  0  0  0  0  0  0  0  0  0
   12.1234    0.2550   24.2361 C   0  0  0  0  0  0  0  0  0  0  0  0
   13.1433   -0.1418   23.4899 C   0  0  0  0  0  0  0  0  0  0  0  0
   12.7285   -1.2914   22.5882 C   0  0  0  0  0  0  0  0  0  0  0  0
   11.7840   -1.7445   22.4969 C   0  0  0  0  0  0  0  0  0  0  0  0
    9.7388   -0.5413   22.3732 C   0  0  0  0  0  0  0  0  0  0  0  0
    9.0704    0.0493   21.4055 C   0  0  0  0  0  0  0  0  0  0  0  0
    9.5670    0.9767   20.9679 O   0  0  0  0  0  0  0  0  0  0  0  0
    7.9216   -0.5385   21.1103 N   0  0  0  0  0  0  0  0  0  0  0  0
    7.2114   -0.0767   20.1634 C   0  0  0  0  0  0  0  0  0  0  0  0
    7.2723   -0.0053   18.8772 C   0  0  0  0  0  0  0  0  0  0  0  0
    6.7085    0.3688   17.7563 N   0  0  0  0  0  0  0  0  0  0  0  0
    5.6617    0.8424   18.2206 C   0  0  0  0  0  0  0  0  0  0  0  0
    5.2259    0.9554   19.4111 C   0  0  0  0  0  0  0  0  0  0  0  0
    5.8221    0.5688   20.5570 C   0  0  0  0  0  0  0  0  0  0  0  0
    5.3346    0.7174   21.9502 C   0  0  0  0  0  0  0  0  0  0  0  0
 20 21  2  0  0  0  0
 19 20  1  0  0  0  0
 21 22  1  0  0  0  0
 18 19  2  0  0  0  0
 22 23  2  0  0  0  0
 18 23  1  0  0  0  0
 17 18  1  0  0  0  0
 23 24  1  0  0  0  0
 15 16  2  0  0  0  0
 15 17  1  0  0  0  0
 14 15  1  0  0  0  0
  8 14  1  0  0  0  0
 12 13  1  0  0  0  0
  8 13  1  0  0  0  0
 11 12  2  0  0  0  0
  7  8  1  0  0  0  0
  8  9  1  0  0  0  0
 10 11  1  0  0  0  0
  6  7  2  3  0  0  0
  5  6  1  0  0  0  0
  9 10  2  0  0  0  0
  2  5  1  0  0  0  0
  2  3  2  0  0  0  0
  1  2  1  0  0  0  0
  2  4  2  0  0  0  0
M  END
> <Shapegauss>
-286.166229

$$$$
