stable:False satoms:10 tatoms:24 sratio:0.4166666666666667
  -OEChem-08062418083D

 45 46  0     1  0  0  0  0  0999 V2000
    6.0953   -5.2087   25.8400 C   0  0  0  0  0  0  0  0  0  0  0  0
    7.6776   -4.6705   25.7505 S   0  0  0  0  0  0  0  0  0  0  0  0
    8.5641   -5.8256   25.7346 O   0  0  0  0  0  0  0  0  0  0  0  0
    7.9634   -3.8503   26.8976 O   0  0  0  0  0  0  0  0  0  0  0  0
    7.7925   -3.8203   24.3713 N   0  0  0  0  0  0  0  0  0  0  0  0
    8.7315   -3.1451   24.0047 C   0  0  0  0  0  0  0  0  0  0  0  0
    9.2532   -2.1454   23.4984 C   0  0  0  0  0  0  0  0  0  0  0  0
   10.1962   -1.2932   23.4774 C   0  0  1  0  0  0  0  0  0  0  0  0
   10.7944   -0.3231   24.6474 C   0  0  0  0  0  0  0  0  0  0  0  0
   11.8866   -0.0497   24.7211 C   0  0  0  0  0  0  0  0  0  0  0  0
   12.9885   -0.4151   24.0835 C   0  0  0  0  0  0  0  0  0  0  0  0
   12.6788   -1.4914   23.0577 C   0  0  0  0  0  0  0  0  0  0  0  0
   11.7484   -1.9179   22.8162 C   0  0  0  0  0  0  0  0  0  0  0  0
    9.7496   -0.6677   22.5206 C   0  0  0  0  0  0  0  0  0  0  0  0
    9.2166    0.0014   21.5204 C   0  0  0  0  0  0  0  0  0  0  0  0
    9.7755    0.9463   21.2156 O   0  0  0  0  0  0  0  0  0  0  0  0
    8.1081   -0.5413   21.0418 N   0  0  0  0  0  0  0  0  0  0  0  0
    7.5296   -0.0013   20.0479 C   0  0  0  0  0  0  0  0  0  0  0  0
    7.7546    0.1569   18.7879 C   0  0  0  0  0  0  0  0  0  0  0  0
    7.3424    0.6183   17.6341 N   0  0  0  0  0  0  0  0  0  0  0  0
    6.2505    1.0802   17.9948 C   0  0  0  0  0  0  0  0  0  0  0  0
    5.6680    1.1201   19.1258 C   0  0  0  0  0  0  0  0  0  0  0  0
    6.1090    0.6438   20.3076 C   0  0  0  0  0  0  0  0  0  0  0  0
    5.4498    0.7064   21.6351 C   0  0  0  0  0  0  0  0  0  0  0  0
    5.9583   -5.7947   26.7608 H   0  0  0  0  0  0  0  0  0  0  0  0
    5.4144   -4.3448   25.8507 H   0  0  0  0  0  0  0  0  0  0  0  0
    5.8729   -5.8400   24.9672 H   0  0  0  0  0  0  0  0  0  0  0  0
    7.0155   -3.1911   24.3913 H   0  0  0  0  0  0  0  0  0  0  0  0
    9.5834   -3.7559   24.2648 H   0  0  0  0  0  0  0  0  0  0  0  0
    8.5959   -1.8611   22.6900 H   0  0  0  0  0  0  0  0  0  0  0  0
   10.1130    0.0752   25.3845 H   0  0  0  0  0  0  0  0  0  0  0  0
   12.0785    0.6813   25.4926 H   0  0  0  0  0  0  0  0  0  0  0  0
   13.9705   -0.0047   24.2673 H   0  0  0  0  0  0  0  0  0  0  0  0
   13.5255   -1.8685   22.5034 H   0  0  0  0  0  0  0  0  0  0  0  0
   11.6601   -1.8577   21.7214 H   0  0  0  0  0  0  0  0  0  0  0  0
   11.8078   -2.9729   23.1218 H   0  0  0  0  0  0  0  0  0  0  0  0
   10.1443   -1.4224   21.8245 H   0  0  0  0  0  0  0  0  0  0  0  0
   10.5000    0.1228   22.6686 H   0  0  0  0  0  0  0  0  0  0  0  0
    7.7298   -1.3680   21.4585 H   0  0  0  0  0  0  0  0  0  0  0  0
    8.7171   -0.2953   18.5996 H   0  0  0  0  0  0  0  0  0  0  0  0
    5.6845    1.5364   17.1961 H   0  0  0  0  0  0  0  0  0  0  0  0
    4.6984    1.5954   19.1407 H   0  0  0  0  0  0  0  0  0  0  0  0
    4.8284   -0.1898   21.7791 H   0  0  0  0  0  0  0  0  0  0  0  0
    6.2160    0.7516   22.4230 H   0  0  0  0  0  0  0  0  0  0  0  0
    4.8162    1.6041   21.6878 H   0  0  0  0  0  0  0  0  0  0  0  0
 20 21  2  0  0  0  0
 19 20  1  0  0  0  0
 21 22  1  0  0  0  0
 18 19  2  0  0  0  0
 22 23  2  0  0  0  0
 18 23  1  0  0  0  0
 17 18  1  0  0  0  0
 23 24  1  0  0  0  0
 15 16  2  0  0  0  0
 15 17  1  0  0  0  0
 14 15  1  0  0  0  0
  8 14  1  0  0  0  0
 12 13  1  0  0  0  0
  8 13  1  0  0  0  0
 11 12  2  0  0  0  0
  7  8  1  0  0  0  0
  8  9  1  0  0  0  0
 10 11  1  0  0  0  0
  6  7  2  3  0  0  0
  5  6  1  0  0  0  0
  9 10  2  0  0  0  0
  2  5  1  0  0  0  0
  2  3  2  0  0  0  0
  1  2  1  0  0  0  0
  2  4  2  0  0  0  0
  1 25  1  0  0  0  0
  1 26  1  0  0  0  0
  1 27  1  0  0  0  0
  5 28  1  0  0  0  0
  6 29  1  0  0  0  0
  7 30  1  0  0  0  0
  9 31  1  0  0  0  0
 10 32  1  0  0  0  0
 11 33  1  0  0  0  0
 12 34  1  0  0  0  0
 13 35  1  0  0  0  0
 13 36  1  0  0  0  0
 14 37  1  0  0  0  0
 14 38  1  0  0  0  0
 17 39  1  0  0  0  0
 19 40  1  0  0  0  0
 21 41  1  0  0  0  0
 22 42  1  0  0  0  0
 24 43  1  0  0  0  0
 24 44  1  0  0  0  0
 24 45  1  0  0  0  0
M  END
> <Chemgauss4>
-12.657374

$$$$
