stable:False satoms:10 tatoms:24 sratio:0.4166666666666667
  -OEChem-08062418083D

 45 46  0     1  0  0  0  0  0999 V2000
   -6.0425   -5.4151  -25.8947 C   0  0  0  0  0  0  0  0  0  0  0  0
   -7.6211   -4.8680  -25.7941 S   0  0  0  0  0  0  0  0  0  0  0  0
   -8.5127   -6.0184  -25.7485 O   0  0  0  0  0  0  0  0  0  0  0  0
   -7.9174   -4.0650  -26.9507 O   0  0  0  0  0  0  0  0  0  0  0  0
   -7.7148   -3.9951  -24.4276 N   0  0  0  0  0  0  0  0  0  0  0  0
   -8.6460   -3.3096  -24.0603 C   0  0  0  0  0  0  0  0  0  0  0  0
   -9.1567   -2.2993  -23.5637 C   0  0  0  0  0  0  0  0  0  0  0  0
  -10.0953   -1.4423  -23.5448 C   0  0  1  0  0  0  0  0  0  0  0  0
  -10.7037   -0.4883  -24.7227 C   0  0  0  0  0  0  0  0  0  0  0  0
  -11.7954   -0.2109  -24.7873 C   0  0  0  0  0  0  0  0  0  0  0  0
  -12.8910   -0.5606  -24.1302 C   0  0  0  0  0  0  0  0  0  0  0  0
  -12.5734   -1.6218  -23.0911 C   0  0  0  0  0  0  0  0  0  0  0  0
  -11.6421   -2.0488  -22.8543 C   0  0  0  0  0  0  0  0  0  0  0  0
   -9.6339   -0.8037  -22.6039 C   0  0  0  0  0  0  0  0  0  0  0  0
   -9.0854   -0.1212  -21.6214 C   0  0  0  0  0  0  0  0  0  0  0  0
   -9.6360    0.8312  -21.3249 O   0  0  0  0  0  0  0  0  0  0  0  0
   -7.9735   -0.6614  -21.1479 N   0  0  0  0  0  0  0  0  0  0  0  0
   -7.3801   -0.1083  -20.1701 C   0  0  0  0  0  0  0  0  0  0  0  0
   -7.5885    0.0713  -18.9101 C   0  0  0  0  0  0  0  0  0  0  0  0
   -7.1598    0.5493  -17.7691 N   0  0  0  0  0  0  0  0  0  0  0  0
   -6.0704    1.0000  -18.1508 C   0  0  0  0  0  0  0  0  0  0  0  0
   -5.5019    1.0189  -19.2895 C   0  0  0  0  0  0  0  0  0  0  0  0
   -5.9598    0.5257  -20.4578 C   0  0  0  0  0  0  0  0  0  0  0  0
   -5.3171    0.5637  -21.7943 C   0  0  0  0  0  0  0  0  0  0  0  0
   -5.9198   -6.0166  -26.8074 H   0  0  0  0  0  0  0  0  0  0  0  0
   -5.3578   -4.5549  -25.9278 H   0  0  0  0  0  0  0  0  0  0  0  0
   -5.8122   -6.0334  -25.0145 H   0  0  0  0  0  0  0  0  0  0  0  0
   -6.9352   -3.3701  -24.4674 H   0  0  0  0  0  0  0  0  0  0  0  0
   -9.5039   -3.9203  -24.2998 H   0  0  0  0  0  0  0  0  0  0  0  0
   -8.4880   -2.0052  -22.7683 H   0  0  0  0  0  0  0  0  0  0  0  0
  -10.0297   -0.1052  -25.4747 H   0  0  0  0  0  0  0  0  0  0  0  0
  -11.9936    0.5085  -25.5681 H   0  0  0  0  0  0  0  0  0  0  0  0
  -13.8733   -0.1485  -24.3084 H   0  0  0  0  0  0  0  0  0  0  0  0
  -13.4148   -1.9857  -22.5203 H   0  0  0  0  0  0  0  0  0  0  0  0
  -11.5397   -1.9713  -21.7618 H   0  0  0  0  0  0  0  0  0  0  0  0
  -11.7101   -3.1083  -23.1420 H   0  0  0  0  0  0  0  0  0  0  0  0
  -10.0234   -1.5451  -21.8908 H   0  0  0  0  0  0  0  0  0  0  0  0
  -10.3825   -0.0120  -22.7553 H   0  0  0  0  0  0  0  0  0  0  0  0
   -7.6043   -1.4965  -21.5558 H   0  0  0  0  0  0  0  0  0  0  0  0
   -8.5507   -0.3731  -18.7026 H   0  0  0  0  0  0  0  0  0  0  0  0
   -5.4923    1.4663  -17.3668 H   0  0  0  0  0  0  0  0  0  0  0  0
   -4.5303    1.4892  -19.3241 H   0  0  0  0  0  0  0  0  0  0  0  0
   -4.7017   -0.3377  -21.9315 H   0  0  0  0  0  0  0  0  0  0  0  0
   -6.0929    0.6000  -22.5732 H   0  0  0  0  0  0  0  0  0  0  0  0
   -4.6800    1.4573  -21.8693 H   0  0  0  0  0  0  0  0  0  0  0  0
 20 21  2  0  0  0  0
 19 20  1  0  0  0  0
 21 22  1  0  0  0  0
 18 19  2  0  0  0  0
 22 23  2  0  0  0  0
 18 23  1  0  0  0  0
 17 18  1  0  0  0  0
 23 24  1  0  0  0  0
 15 16  2  0  0  0  0
 15 17  1  0  0  0  0
 14 15  1  0  0  0  0
  8 14  1  0  0  0  0
 12 13  1  0  0  0  0
  8 13  1  0  0  0  0
 11 12  2  0  0  0  0
  7  8  1  0  0  0  0
  8  9  1  0  0  0  0
 10 11  1  0  0  0  0
  6  7  2  3  0  0  0
  5  6  1  0  0  0  0
  9 10  2  0  0  0  0
  2  5  1  0  0  0  0
  2  3  2  0  0  0  0
  1  2  1  0  0  0  0
  2  4  2  0  0  0  0
  1 25  1  0  0  0  0
  1 26  1  0  0  0  0
  1 27  1  0  0  0  0
  5 28  1  0  0  0  0
  6 29  1  0  0  0  0
  7 30  1  0  0  0  0
  9 31  1  0  0  0  0
 10 32  1  0  0  0  0
 11 33  1  0  0  0  0
 12 34  1  0  0  0  0
 13 35  1  0  0  0  0
 13 36  1  0  0  0  0
 14 37  1  0  0  0  0
 14 38  1  0  0  0  0
 17 39  1  0  0  0  0
 19 40  1  0  0  0  0
 21 41  1  0  0  0  0
 22 42  1  0  0  0  0
 24 43  1  0  0  0  0
 24 44  1  0  0  0  0
 24 45  1  0  0  0  0
M  END
> <Chemgauss4>
-12.539429

$$$$
