stable:False satoms:10 tatoms:24 sratio:0.4166666666666667
  -OEChem-07092417383D

 24 23  0     1  0  0  0  0  0999 V2000
    6.7492   -5.0364   26.4368 Cl  0  0  0  0  0  0  0  0  0  0  0  0
    8.3776   -4.3213   26.0524 C   0  0  0  0  0  0  0  0  0  0  0  0
    9.1567   -5.4690   25.9901 O   0  0  0  0  0  0  0  0  0  0  0  0
    8.7724   -3.5233   27.0180 O   0  0  0  0  0  0  0  0  0  0  0  0
    8.2385   -3.7670   24.7005 N   0  0  0  0  0  0  0  0  0  0  0  0
    8.8855   -2.9706   24.1261 C   0  0  0  0  0  0  0  0  0  0  0  0
    9.1979   -2.2824   23.3403 N   0  0  0  0  0  0  0  0  0  0  0  0
   10.0592   -1.3916   23.1681 C   0  0  0  0  0  0  0  0  0  0  0  0
   12.1615    0.1751   24.3865 C   0  0  0  0  0  0  0  0  0  0  0  0
   12.3834    0.9481   25.0133 N   0  0  0  0  0  0  0  0  0  0  0  0
   13.3958   -0.6897   23.3225 H   0  0  0  0  0  0  0  0  0  0  0  0
   12.3568   -0.7530   23.4916 C   0  5  3  0  0  0  0  0  0  0  0  0
   11.3383   -1.4009   23.1241 C   0  0  0  0  0  0  0  0  0  0  0  0
    9.7203   -0.4039   22.9132 H   0  0  0  0  0  0  0  0  0  0  0  0
    8.4724    0.2924   20.9013 C   0  0  0  0  0  0  0  0  0  0  0  0
    9.4364    0.6575   21.1285 O   0  0  0  0  0  0  0  0  0  0  0  0
    7.3336    0.0698   20.3919 N   0  0  0  0  0  0  0  0  0  0  0  0
    7.4735   -0.1131   19.0904 C   0  0  0  0  0  0  0  0  0  0  0  0
    8.4250   -0.5680   18.5574 O   0  0  0  0  0  0  0  0  0  0  0  0
    6.3984    0.2737   18.3493 N   0  0  0  0  0  0  0  0  0  0  0  0
    4.6129    1.0100   18.6938 H   0  0  0  0  0  0  0  0  0  0  0  0
    5.4798    0.6722   19.2011 C   0  0  0  0  0  0  0  0  0  0  0  0
    5.8088    0.5677   20.4795 C   0  0  0  0  0  0  0  0  0  0  0  0
    5.3502    0.7336   21.4200 H   0  0  0  0  0  0  0  0  0  0  0  0
 18 20  1  0  0  0  0
 20 22  1  0  0  0  0
 18 19  2  0  0  0  0
 21 22  1  0  0  0  0
 17 18  1  0  0  0  0
 22 23  2  0  0  0  0
 17 23  1  0  0  0  0
 15 17  1  0  0  0  0
 23 24  1  0  0  0  0
 15 16  2  0  0  0  0
  8 14  1  0  0  0  0
  8 13  2  3  0  0  0
 12 13  1  0  0  0  0
  7  8  1  0  0  0  0
 11 12  1  0  0  0  0
  6  7  2  0  0  0  0
  9 12  1  0  0  0  0
  5  6  1  0  0  0  0
  9 10  3  0  0  0  0
  2  5  1  0  0  0  0
  2  3  1  0  0  0  0
  1  2  1  0  0  0  0
  2  4  1  0  0  0  0
M  CHG  1  12  -1
M  END
> <Shapegauss>
-235.545517

$$$$
