stable:False satoms:22 tatoms:24 sratio:0.9166666666666666
  -OEChem-07092417293D

 24 23  0     1  0  0  0  0  0999 V2000
    8.3726    0.3819   21.6772 O   0  0  0  0  0  0  0  0  0  0  0  0
   12.2974   -1.3747   23.1071 H   0  0  0  0  0  0  0  0  0  0  0  0
   12.5753   -1.3441   20.4257 H   0  0  0  0  0  0  0  0  0  0  0  0
   11.9182   -0.9150   21.1813 C   0  0  0  0  0  0  0  0  0  0  0  0
    6.0262   -0.4150   22.0116 S   0  0  0  0  0  0  0  0  0  0  0  0
   11.7252    0.1350   20.9419 H   0  0  0  0  0  0  0  0  0  0  0  0
    9.9167   -1.3019   20.4562 H   0  0  0  0  0  0  0  0  0  0  0  0
   10.0767    0.3410   22.6572 H   0  0  0  0  0  0  0  0  0  0  0  0
   10.1944   -0.4243   23.2298 O   0  0  0  0  0  0  0  0  0  0  0  0
    7.7079   -0.5580   22.0222 C   0  0  0  0  0  0  0  0  0  0  0  0
   10.5791   -1.6862   21.2233 C   0  0  0  0  0  0  0  0  0  0  0  0
    3.5044   -0.6307   23.5009 F   0  0  0  0  0  0  0  0  0  0  0  0
   10.7734   -2.7381   21.0058 H   0  0  0  0  0  0  0  0  0  0  0  0
    8.3129   -1.8745   22.4465 C   0  0  2  0  0  0  0  0  0  0  0  0
    4.7379   -1.8643   24.4456 H   0  0  0  0  0  0  0  0  0  0  0  0
    8.1834   -2.6779   21.7190 H   0  0  0  0  0  0  0  0  0  0  0  0
    4.6154   -0.7978   24.2692 C   0  0  0  0  0  0  0  0  0  0  0  0
    4.4374   -0.2891   25.2153 H   0  0  0  0  0  0  0  0  0  0  0  0
    7.6869   -2.3778   23.6141 O   0  0  0  0  0  0  0  0  0  0  0  0
   10.1984   -2.3992   23.2957 H   0  0  0  0  0  0  0  0  0  0  0  0
    9.8777   -1.6197   22.5902 C   0  0  2  0  0  0  0  0  0  0  0  0
   12.6359   -0.9451   22.3674 O   0  0  0  0  0  0  0  0  0  0  0  0
    5.6924   -0.2454   23.6493 O   0  0  0  0  0  0  0  0  0  0  0  0
    7.5382   -1.6691   24.2442 H   0  0  0  0  0  0  0  0  0  0  0  0
  3  4  1  0  0  0  0
  7 11  1  0  0  0  0
  4  6  1  0  0  0  0
 11 13  1  0  0  0  0
  4 11  1  0  0  0  0
  4 22  1  0  0  0  0
 11 21  1  0  0  0  0
  1 10  2  0  0  0  0
 14 16  1  0  0  0  0
  5 10  1  0  0  0  0
  5 23  1  0  0  0  0
 10 14  1  0  0  0  0
  2 22  1  0  0  0  0
 14 21  1  0  0  0  0
 14 19  1  0  0  0  0
  9 21  1  0  0  0  0
 20 21  1  0  0  0  0
  8  9  1  0  0  0  0
 12 17  1  0  0  0  0
 19 24  1  0  0  0  0
 17 23  1  0  0  0  0
 15 17  1  0  0  0  0
 17 18  1  0  0  0  0
M  END
> <Shapegauss>
-84.485771

$$$$
