stable:False satoms:22 tatoms:24 sratio:0.9166666666666666
  -OEChem-08052415273D

 24 23  0     1  0  0  0  0  0999 V2000
   -8.5573   -1.2773  -22.0303 O   0  0  0  0  0  0  0  0  0  0  0  0
   -5.8972    1.7164  -19.9100 H   0  0  0  0  0  0  0  0  0  0  0  0
   -5.8714   -0.4123  -18.2559 H   0  0  0  0  0  0  0  0  0  0  0  0
   -6.1650   -0.1793  -19.2789 C   0  0  0  0  0  0  0  0  0  0  0  0
  -10.9536   -1.1059  -22.7235 S   0  0  0  0  0  0  0  0  0  0  0  0
   -5.8366   -0.9836  -19.9439 H   0  0  0  0  0  0  0  0  0  0  0  0
   -8.1519   -1.0106  -19.4858 H   0  0  0  0  0  0  0  0  0  0  0  0
   -7.0166   -0.0756  -21.8109 H   0  0  0  0  0  0  0  0  0  0  0  0
   -7.2417    0.8283  -21.5667 O   0  0  0  0  0  0  0  0  0  0  0  0
   -9.5658   -0.6405  -21.8834 C   0  0  0  0  0  0  0  0  0  0  0  0
   -7.7010   -0.0315  -19.3721 C   0  0  0  0  0  0  0  0  0  0  0  0
  -13.1171   -0.3509  -24.5602 F   0  0  0  0  0  0  0  0  0  0  0  0
   -8.0684    0.4035  -18.4408 H   0  0  0  0  0  0  0  0  0  0  0  0
   -9.6523    0.5506  -20.9597 C   0  0  2  0  0  0  0  0  0  0  0  0
  -12.5737    1.3595  -23.7145 H   0  0  0  0  0  0  0  0  0  0  0  0
  -10.2220    0.3647  -20.0474 H   0  0  0  0  0  0  0  0  0  0  0  0
  -12.1706    0.6133  -24.3959 C   0  0  0  0  0  0  0  0  0  0  0  0
  -11.9935    1.0660  -25.3702 H   0  0  0  0  0  0  0  0  0  0  0  0
  -10.3420    1.6279  -21.5699 O   0  0  0  0  0  0  0  0  0  0  0  0
   -8.2036    1.9482  -20.2532 H   0  0  0  0  0  0  0  0  0  0  0  0
   -8.1588    0.8830  -20.5205 C   0  0  2  0  0  0  0  0  0  0  0  0
   -5.4561    0.9611  -19.6250 O   0  0  0  0  0  0  0  0  0  0  0  0
  -11.0190    0.0556  -23.9355 O   0  0  0  0  0  0  0  0  0  0  0  0
  -10.0684    1.7230  -22.4850 H   0  0  0  0  0  0  0  0  0  0  0  0
  3  4  1  0  0  0  0
  7 11  1  0  0  0  0
  4  6  1  0  0  0  0
 11 13  1  0  0  0  0
  4 11  1  0  0  0  0
  4 22  1  0  0  0  0
 11 21  1  0  0  0  0
  1 10  2  0  0  0  0
 14 16  1  0  0  0  0
  5 10  1  0  0  0  0
  5 23  1  0  0  0  0
 10 14  1  0  0  0  0
  2 22  1  0  0  0  0
 14 21  1  0  0  0  0
 14 19  1  0  0  0  0
  9 21  1  0  0  0  0
 20 21  1  0  0  0  0
  8  9  1  0  0  0  0
 12 17  1  0  0  0  0
 19 24  1  0  0  0  0
 17 23  1  0  0  0  0
 15 17  1  0  0  0  0
 17 18  1  0  0  0  0
M  END
> <Chemgauss4>
-5.206449

$$$$
