stable:False satoms:22 tatoms:24 sratio:0.9166666666666666
  -OEChem-08052415273D

 24 23  0     1  0  0  0  0  0999 V2000
    8.2909   -1.2773   22.3130 O   0  0  0  0  0  0  0  0  0  0  0  0
    5.6308    1.7164   20.1927 H   0  0  0  0  0  0  0  0  0  0  0  0
    5.6051   -0.4123   18.5386 H   0  0  0  0  0  0  0  0  0  0  0  0
    5.8987   -0.1793   19.5615 C   0  0  0  0  0  0  0  0  0  0  0  0
   10.6873   -1.1059   23.0062 S   0  0  0  0  0  0  0  0  0  0  0  0
    5.5702   -0.9836   20.2266 H   0  0  0  0  0  0  0  0  0  0  0  0
    7.8855   -1.0106   19.7685 H   0  0  0  0  0  0  0  0  0  0  0  0
    6.7502   -0.0756   22.0935 H   0  0  0  0  0  0  0  0  0  0  0  0
    6.9754    0.8283   21.8494 O   0  0  0  0  0  0  0  0  0  0  0  0
    9.2994   -0.6405   22.1661 C   0  0  0  0  0  0  0  0  0  0  0  0
    7.4346   -0.0315   19.6548 C   0  0  0  0  0  0  0  0  0  0  0  0
   12.8508   -0.3509   24.8428 F   0  0  0  0  0  0  0  0  0  0  0  0
    7.8021    0.4035   18.7235 H   0  0  0  0  0  0  0  0  0  0  0  0
    9.3860    0.5506   21.2424 C   0  0  2  0  0  0  0  0  0  0  0  0
   12.3073    1.3595   23.9972 H   0  0  0  0  0  0  0  0  0  0  0  0
    9.9557    0.3647   20.3301 H   0  0  0  0  0  0  0  0  0  0  0  0
   11.9043    0.6133   24.6786 C   0  0  0  0  0  0  0  0  0  0  0  0
   11.7272    1.0660   25.6529 H   0  0  0  0  0  0  0  0  0  0  0  0
   10.0757    1.6279   21.8526 O   0  0  0  0  0  0  0  0  0  0  0  0
    7.9372    1.9482   20.5359 H   0  0  0  0  0  0  0  0  0  0  0  0
    7.8924    0.8830   20.8032 C   0  0  2  0  0  0  0  0  0  0  0  0
    5.1898    0.9611   19.9077 O   0  0  0  0  0  0  0  0  0  0  0  0
   10.7526    0.0556   24.2182 O   0  0  0  0  0  0  0  0  0  0  0  0
    9.8020    1.7230   22.7677 H   0  0  0  0  0  0  0  0  0  0  0  0
  3  4  1  0  0  0  0
  7 11  1  0  0  0  0
  4  6  1  0  0  0  0
 11 13  1  0  0  0  0
  4 11  1  0  0  0  0
  4 22  1  0  0  0  0
 11 21  1  0  0  0  0
  1 10  2  0  0  0  0
 14 16  1  0  0  0  0
  5 10  1  0  0  0  0
  5 23  1  0  0  0  0
 10 14  1  0  0  0  0
  2 22  1  0  0  0  0
 14 21  1  0  0  0  0
 14 19  1  0  0  0  0
  9 21  1  0  0  0  0
 20 21  1  0  0  0  0
  8  9  1  0  0  0  0
 12 17  1  0  0  0  0
 19 24  1  0  0  0  0
 17 23  1  0  0  0  0
 15 17  1  0  0  0  0
 17 18  1  0  0  0  0
M  END
> <Chemgauss4>
-5.211279

$$$$
