stable:False satoms:6 tatoms:24 sratio:0.25
  -OEChem-08062414243D

 45 45  0     1  0  0  0  0  0999 V2000
    6.3040   -5.3605   25.7814 C   0  0  0  0  0  0  0  0  0  0  0  0
    7.7790   -4.7940   25.6319 S   0  0  0  0  0  0  0  0  0  0  0  0
    8.6888   -5.9201   25.4987 O   0  0  0  0  0  0  0  0  0  0  0  0
    8.1403   -3.9953   26.7498 O   0  0  0  0  0  0  0  0  0  0  0  0
    7.8376   -3.9289   24.2498 N   0  0  0  0  0  0  0  0  0  0  0  0
    8.7013   -3.1554   23.8610 C   0  0  0  0  0  0  0  0  0  0  0  0
    9.2321   -2.2263   23.3821 C   0  0  0  0  0  0  0  0  0  0  0  0
   10.1402   -1.3013   23.2495 C   0  0  2  0  0  0  0  0  0  0  0  0
   10.8074   -0.4565   24.3998 C   0  0  0  0  0  0  0  0  0  0  0  0
   11.9196   -0.1395   24.4996 C   0  0  0  0  0  0  0  0  0  0  0  0
   12.8881   -0.5239   23.7771 C   0  0  0  0  0  0  0  0  0  0  0  0
   12.5671   -1.4478   22.7615 C   0  0  0  0  0  0  0  0  0  0  0  0
   11.7170   -1.8671   22.4301 C   0  0  0  0  0  0  0  0  0  0  0  0
    9.5622   -0.7144   22.3822 C   0  0  0  0  0  0  0  0  0  0  0  0
    9.0069    0.0289   21.4133 C   0  0  0  0  0  0  0  0  0  0  0  0
    9.5449    1.0021   21.1249 O   0  0  0  0  0  0  0  0  0  0  0  0
    7.8783   -0.5592   21.0218 N   0  0  0  0  0  0  0  0  0  0  0  0
    7.2641   -0.0045   20.1167 C   0  0  0  0  0  0  0  0  0  0  0  0
    7.3734    0.2272   18.8271 C   0  0  0  0  0  0  0  0  0  0  0  0
    7.0044    0.6053   17.7309 N   0  0  0  0  0  0  0  0  0  0  0  0
    5.9257    1.1134   18.1526 C   0  0  0  0  0  0  0  0  0  0  0  0
    5.3900    1.1695   19.2853 C   0  0  0  0  0  0  0  0  0  0  0  0
    5.8310    0.6455   20.4432 C   0  0  0  0  0  0  0  0  0  0  0  0
    5.4400    0.6403   21.4141 C   0  0  0  0  0  0  0  0  0  0  0  0
    6.2295   -5.9509   26.7066 H   0  0  0  0  0  0  0  0  0  0  0  0
    5.5921   -4.5230   25.8228 H   0  0  0  0  0  0  0  0  0  0  0  0
    6.0679   -6.0002   24.9183 H   0  0  0  0  0  0  0  0  0  0  0  0
    7.0015   -3.3805   24.2644 H   0  0  0  0  0  0  0  0  0  0  0  0
   11.0021   -1.7992   22.7812 H   0  0  0  0  0  0  0  0  0  0  0  0
   10.2458    0.4893   24.4124 H   0  0  0  0  0  0  0  0  0  0  0  0
   10.5950   -1.0214   25.3194 H   0  0  0  0  0  0  0  0  0  0  0  0
   12.1543    0.5564   25.2916 H   0  0  0  0  0  0  0  0  0  0  0  0
   13.8956   -0.1661   23.9300 H   0  0  0  0  0  0  0  0  0  0  0  0
   13.4360   -1.7816   22.2137 H   0  0  0  0  0  0  0  0  0  0  0  0
   11.7450   -2.5684   21.6093 H   0  0  0  0  0  0  0  0  0  0  0  0
   10.7746   -1.6167   22.8945 H   0  0  0  0  0  0  0  0  0  0  0  0
    8.6408   -0.6750   22.9818 H   0  0  0  0  0  0  0  0  0  0  0  0
    9.5468   -1.6107   21.7447 H   0  0  0  0  0  0  0  0  0  0  0  0
    7.5501   -1.4052   21.4420 H   0  0  0  0  0  0  0  0  0  0  0  0
    8.3745   -0.1212   18.6198 H   0  0  0  0  0  0  0  0  0  0  0  0
    5.3478    1.5979   17.3795 H   0  0  0  0  0  0  0  0  0  0  0  0
    4.4549    1.7073   19.3378 H   0  0  0  0  0  0  0  0  0  0  0  0
    4.8274   -0.2619   21.5584 H   0  0  0  0  0  0  0  0  0  0  0  0
    6.2650    0.6433   22.1416 H   0  0  0  0  0  0  0  0  0  0  0  0
    4.8165    1.5342   21.5630 H   0  0  0  0  0  0  0  0  0  0  0  0
 20 21  2  0  0  0  0
 19 20  1  0  0  0  0
 21 22  1  0  0  0  0
 18 19  2  0  0  0  0
 22 23  2  0  0  0  0
 18 23  1  0  0  0  0
 17 18  1  0  0  0  0
 23 24  1  0  0  0  0
 15 16  2  0  0  0  0
 15 17  1  0  0  0  0
 14 15  1  0  0  0  0
 12 13  2  0  0  0  0
  8 14  1  0  0  0  0
 11 12  1  0  0  0  0
  7  8  1  0  0  0  0
  8  9  1  0  0  0  0
 10 11  2  0  0  0  0
  6  7  3  0  0  0  0
  5  6  1  0  0  0  0
  9 10  1  0  0  0  0
  2  5  1  0  0  0  0
  2  3  2  0  0  0  0
  1  2  1  0  0  0  0
  2  4  2  0  0  0  0
  1 25  1  0  0  0  0
  1 26  1  0  0  0  0
  1 27  1  0  0  0  0
  5 28  1  0  0  0  0
  8 29  1  0  0  0  0
  9 30  1  0  0  0  0
  9 31  1  0  0  0  0
 10 32  1  0  0  0  0
 11 33  1  0  0  0  0
 12 34  1  0  0  0  0
 13 35  1  0  0  0  0
 13 36  1  0  0  0  0
 14 37  1  0  0  0  0
 14 38  1  0  0  0  0
 17 39  1  0  0  0  0
 19 40  1  0  0  0  0
 21 41  1  0  0  0  0
 22 42  1  0  0  0  0
 24 43  1  0  0  0  0
 24 44  1  0  0  0  0
 24 45  1  0  0  0  0
M  END
> <Chemgauss4>
-13.303299

$$$$
