stable:False satoms:6 tatoms:24 sratio:0.25
  -OEChem-08062414243D

 45 45  0     1  0  0  0  0  0999 V2000
   -6.3650   -5.4391  -25.9987 C   0  0  0  0  0  0  0  0  0  0  0  0
   -7.8400   -4.8725  -25.8492 S   0  0  0  0  0  0  0  0  0  0  0  0
   -8.7497   -5.9986  -25.7160 O   0  0  0  0  0  0  0  0  0  0  0  0
   -8.2013   -4.0739  -26.9671 O   0  0  0  0  0  0  0  0  0  0  0  0
   -7.8986   -4.0075  -24.4671 N   0  0  0  0  0  0  0  0  0  0  0  0
   -8.7622   -3.2340  -24.0783 C   0  0  0  0  0  0  0  0  0  0  0  0
   -9.2930   -2.3048  -23.5994 C   0  0  0  0  0  0  0  0  0  0  0  0
  -10.2012   -1.3799  -23.4668 C   0  0  2  0  0  0  0  0  0  0  0  0
  -10.8683   -0.5351  -24.6171 C   0  0  0  0  0  0  0  0  0  0  0  0
  -11.9806   -0.2180  -24.7169 C   0  0  0  0  0  0  0  0  0  0  0  0
  -12.9491   -0.6025  -23.9944 C   0  0  0  0  0  0  0  0  0  0  0  0
  -12.6281   -1.5264  -22.9788 C   0  0  0  0  0  0  0  0  0  0  0  0
  -11.7779   -1.9457  -22.6474 C   0  0  0  0  0  0  0  0  0  0  0  0
   -9.6232   -0.7930  -22.5995 C   0  0  0  0  0  0  0  0  0  0  0  0
   -9.0679   -0.0497  -21.6306 C   0  0  0  0  0  0  0  0  0  0  0  0
   -9.6059    0.9235  -21.3422 O   0  0  0  0  0  0  0  0  0  0  0  0
   -7.9393   -0.6378  -21.2391 N   0  0  0  0  0  0  0  0  0  0  0  0
   -7.3251   -0.0830  -20.3340 C   0  0  0  0  0  0  0  0  0  0  0  0
   -7.4344    0.1487  -19.0444 C   0  0  0  0  0  0  0  0  0  0  0  0
   -7.0654    0.5267  -17.9482 N   0  0  0  0  0  0  0  0  0  0  0  0
   -5.9866    1.0348  -18.3699 C   0  0  0  0  0  0  0  0  0  0  0  0
   -5.4510    1.0909  -19.5026 C   0  0  0  0  0  0  0  0  0  0  0  0
   -5.8920    0.5670  -20.6605 C   0  0  0  0  0  0  0  0  0  0  0  0
   -5.5009    0.5617  -21.6314 C   0  0  0  0  0  0  0  0  0  0  0  0
   -6.2905   -6.0295  -26.9239 H   0  0  0  0  0  0  0  0  0  0  0  0
   -5.6531   -4.6016  -26.0401 H   0  0  0  0  0  0  0  0  0  0  0  0
   -6.1288   -6.0788  -25.1356 H   0  0  0  0  0  0  0  0  0  0  0  0
   -7.0625   -3.4591  -24.4817 H   0  0  0  0  0  0  0  0  0  0  0  0
  -11.0630   -1.8778  -22.9985 H   0  0  0  0  0  0  0  0  0  0  0  0
  -10.3068    0.4107  -24.6298 H   0  0  0  0  0  0  0  0  0  0  0  0
  -10.6560   -1.0999  -25.5367 H   0  0  0  0  0  0  0  0  0  0  0  0
  -12.2153    0.4778  -25.5089 H   0  0  0  0  0  0  0  0  0  0  0  0
  -13.9565   -0.2447  -24.1473 H   0  0  0  0  0  0  0  0  0  0  0  0
  -13.4970   -1.8602  -22.4310 H   0  0  0  0  0  0  0  0  0  0  0  0
  -11.8059   -2.6470  -21.8266 H   0  0  0  0  0  0  0  0  0  0  0  0
  -10.8356   -1.6953  -23.1118 H   0  0  0  0  0  0  0  0  0  0  0  0
   -8.7018   -0.7536  -23.1991 H   0  0  0  0  0  0  0  0  0  0  0  0
   -9.6078   -1.6893  -21.9620 H   0  0  0  0  0  0  0  0  0  0  0  0
   -7.6110   -1.4838  -21.6593 H   0  0  0  0  0  0  0  0  0  0  0  0
   -8.4354   -0.1998  -18.8372 H   0  0  0  0  0  0  0  0  0  0  0  0
   -5.4088    1.5193  -17.5968 H   0  0  0  0  0  0  0  0  0  0  0  0
   -4.5159    1.6288  -19.5551 H   0  0  0  0  0  0  0  0  0  0  0  0
   -4.8884   -0.3405  -21.7757 H   0  0  0  0  0  0  0  0  0  0  0  0
   -6.3260    0.5648  -22.3589 H   0  0  0  0  0  0  0  0  0  0  0  0
   -4.8775    1.4557  -21.7803 H   0  0  0  0  0  0  0  0  0  0  0  0
 20 21  2  0  0  0  0
 19 20  1  0  0  0  0
 21 22  1  0  0  0  0
 18 19  2  0  0  0  0
 22 23  2  0  0  0  0
 18 23  1  0  0  0  0
 17 18  1  0  0  0  0
 23 24  1  0  0  0  0
 15 16  2  0  0  0  0
 15 17  1  0  0  0  0
 14 15  1  0  0  0  0
 12 13  2  0  0  0  0
  8 14  1  0  0  0  0
 11 12  1  0  0  0  0
  7  8  1  0  0  0  0
  8  9  1  0  0  0  0
 10 11  2  0  0  0  0
  6  7  3  0  0  0  0
  5  6  1  0  0  0  0
  9 10  1  0  0  0  0
  2  5  1  0  0  0  0
  2  3  2  0  0  0  0
  1  2  1  0  0  0  0
  2  4  2  0  0  0  0
  1 25  1  0  0  0  0
  1 26  1  0  0  0  0
  1 27  1  0  0  0  0
  5 28  1  0  0  0  0
  8 29  1  0  0  0  0
  9 30  1  0  0  0  0
  9 31  1  0  0  0  0
 10 32  1  0  0  0  0
 11 33  1  0  0  0  0
 12 34  1  0  0  0  0
 13 35  1  0  0  0  0
 13 36  1  0  0  0  0
 14 37  1  0  0  0  0
 14 38  1  0  0  0  0
 17 39  1  0  0  0  0
 19 40  1  0  0  0  0
 21 41  1  0  0  0  0
 22 42  1  0  0  0  0
 24 43  1  0  0  0  0
 24 44  1  0  0  0  0
 24 45  1  0  0  0  0
M  END
> <Chemgauss4>
-13.224969

$$$$
