stable:False satoms:11 tatoms:24 sratio:0.4583333333333333
  -OEChem-07092417433D

 24 25  0     1  0  0  0  0  0999 V2000
    6.4767   -4.9736   26.3741 Cl  0  0  0  0  0  0  0  0  0  0  0  0
    8.2771   -4.3671   26.0815 S   0  0  0  0  0  0  0  0  0  0  0  0
    9.0596   -5.5478   25.9908 O   0  0  0  0  0  0  0  0  0  0  0  0
    8.6113   -3.4689   27.1467 O   0  0  0  0  0  0  0  0  0  0  0  0
    8.1723   -3.6267   24.6500 N   0  0  0  0  0  0  0  0  0  0  0  0
    8.8365   -2.8574   24.1365 C   0  0  0  0  0  0  0  0  0  0  0  0
    9.3805   -1.8534   23.4740 C   0  0  0  0  0  0  0  0  0  0  0  0
   10.5720   -1.0624   23.3471 C   0  0  1  0  0  0  0  0  0  0  0  0
   11.1142   -0.3034   24.4158 N   0  0  0  0  0  0  0  0  0  0  0  0
   12.2636    0.0290   24.2935 C   0  0  0  0  0  0  0  0  0  0  0  0
   13.1267   -0.1509   23.6957 C   0  0  0  0  0  0  0  0  0  0  0  0
   12.8279   -1.2958   22.5834 C   0  0  0  0  0  0  0  0  0  0  0  0
   11.9055   -1.5975   22.5906 C   0  0  0  0  0  0  0  0  0  0  0  0
    9.5561   -0.8503   22.6383 C   0  0  3  0  0  0  0  0  0  0  0  0
    8.9327    0.0469   21.5142 C   0  0  0  0  0  0  0  0  0  0  0  0
    9.5267    0.9901   21.1321 O   0  0  0  0  0  0  0  0  0  0  0  0
    7.7768   -0.4209   21.2019 N   0  0  0  0  0  0  0  0  0  0  0  0
    7.0332    0.1178   20.2345 C   0  0  0  0  0  0  0  0  0  0  0  0
    7.7307    0.1607   18.6657 S   0  0  0  0  0  0  0  0  0  0  0  0
    6.4368    0.5371   17.7531 N   0  5  0  0  0  0  0  0  0  0  0  0
    5.6341    0.9822   17.6990 H   0  0  0  0  0  0  0  0  0  0  0  0
    5.1413    0.9838   19.7038 H   0  0  0  0  0  0  0  0  0  0  0  0
    5.7773    0.6093   20.4820 C   0  0  0  0  0  0  0  0  0  0  0  0
    5.4143    0.6291   21.4924 H   0  0  0  0  0  0  0  0  0  0  0  0
 20 21  1  0  0  0  0
 19 20  1  0  0  0  0
 18 19  1  0  0  0  0
 22 23  1  0  0  0  0
 18 23  2  0  0  0  0
 17 18  1  0  0  0  0
 23 24  1  0  0  0  0
 15 16  2  0  0  0  0
 15 17  1  0  0  0  0
 14 15  1  0  0  0  0
 12 13  1  0  0  0  0
 11 12  2  0  0  0  0
  8 13  1  0  0  0  0
  8 14  1  0  0  0  0
  7 14  1  0  0  0  0
  7  8  1  0  0  0  0
  8  9  1  0  0  0  0
  6  7  2  0  0  0  0
 10 11  1  0  0  0  0
  5  6  1  0  0  0  0
  9 10  2  0  0  0  0
  2  5  1  0  0  0  0
  2  3  2  0  0  0  0
  1  2  1  0  0  0  0
  2  4  2  0  0  0  0
M  CHG  1  20  -1
M  END
> <Shapegauss>
-250.833389

$$$$
