stable:False satoms:11 tatoms:24 sratio:0.4583333333333333
  -OEChem-08062411233D

 34 35  0     1  0  0  0  0  0999 V2000
    6.2194   -5.4456   26.2691 Cl  0  0  0  0  0  0  0  0  0  0  0  0
    7.9869   -4.7156   26.0740 S   0  0  0  0  0  0  0  0  0  0  0  0
    8.8472   -5.8400   25.9736 O   0  0  0  0  0  0  0  0  0  0  0  0
    8.2200   -3.8398   27.1838 O   0  0  0  0  0  0  0  0  0  0  0  0
    7.8908   -3.9286   24.6669 N   0  0  0  0  0  0  0  0  0  0  0  0
    8.5234   -3.0996   24.2095 C   0  0  0  0  0  0  0  0  0  0  0  0
    9.0269   -2.0384   23.6069 C   0  0  0  0  0  0  0  0  0  0  0  0
   10.1687   -1.1693   23.5584 C   0  0  1  0  0  0  0  0  0  0  0  0
   10.6181   -0.4193   24.6754 N   0  0  0  0  0  0  0  0  0  0  0  0
   11.7475   -0.0104   24.6132 C   0  0  0  0  0  0  0  0  0  0  0  0
   12.6433   -0.1122   24.0459 C   0  0  0  0  0  0  0  0  0  0  0  0
   12.4633   -1.2299   22.8816 C   0  0  0  0  0  0  0  0  0  0  0  0
   11.5629   -1.5894   22.8395 C   0  0  0  0  0  0  0  0  0  0  0  0
    9.1699   -0.9948   22.8158 C   0  0  3  0  0  0  0  0  0  0  0  0
    8.5345   -0.0961   21.6997 C   0  0  0  0  0  0  0  0  0  0  0  0
    9.0807    0.8968   21.3769 O   0  0  0  0  0  0  0  0  0  0  0  0
    7.4245   -0.6237   21.3227 N   0  0  0  0  0  0  0  0  0  0  0  0
    6.6862   -0.0963   20.3451 C   0  0  0  0  0  0  0  0  0  0  0  0
    7.4407    0.0511   18.8094 S   0  0  0  0  0  0  0  0  0  0  0  0
    6.1621    0.3798   17.8577 N   0  0  0  0  0  0  0  0  0  0  0  0
    6.4694    0.4918   16.9127 H   0  0  0  0  0  0  0  0  0  0  0  0
    4.7646    0.6681   19.7674 H   0  0  0  0  0  0  0  0  0  0  0  0
    5.3924    0.3049   20.5575 C   0  0  0  0  0  0  0  0  0  0  0  0
    4.9893    0.2627   21.5519 H   0  0  0  0  0  0  0  0  0  0  0  0
    6.9693   -3.5404   24.6784 H   0  0  0  0  0  0  0  0  0  0  0  0
    9.4748   -3.5136   24.5093 H   0  0  0  0  0  0  0  0  0  0  0  0
   11.9089    0.7064   25.4047 H   0  0  0  0  0  0  0  0  0  0  0  0
   13.5479    0.4512   24.2211 H   0  0  0  0  0  0  0  0  0  0  0  0
   13.2615   -1.5405   22.2237 H   0  0  0  0  0  0  0  0  0  0  0  0
   11.3202   -1.5401   21.7677 H   0  0  0  0  0  0  0  0  0  0  0  0
   11.6952   -2.6400   23.1375 H   0  0  0  0  0  0  0  0  0  0  0  0
    9.6248   -1.6354   22.0460 H   0  0  0  0  0  0  0  0  0  0  0  0
    7.1046   -1.4554   21.7766 H   0  0  0  0  0  0  0  0  0  0  0  0
    5.7240    1.2235   18.1678 H   0  0  0  0  0  0  0  0  0  0  0  0
 20 21  1  0  0  0  0
 19 20  1  0  0  0  0
 18 19  1  0  0  0  0
 22 23  1  0  0  0  0
 18 23  2  0  0  0  0
 17 18  1  0  0  0  0
 23 24  1  0  0  0  0
 15 16  2  0  0  0  0
 15 17  1  0  0  0  0
 14 15  1  0  0  0  0
 12 13  1  0  0  0  0
 11 12  2  0  0  0  0
  8 13  1  0  0  0  0
  8 14  1  0  0  0  0
  7 14  1  0  0  0  0
  7  8  1  0  0  0  0
  8  9  1  0  0  0  0
  6  7  2  0  0  0  0
 10 11  1  0  0  0  0
  5  6  1  0  0  0  0
  9 10  2  0  0  0  0
  2  5  1  0  0  0  0
  2  3  2  0  0  0  0
  1  2  1  0  0  0  0
  2  4  2  0  0  0  0
  5 25  1  0  0  0  0
  6 26  1  0  0  0  0
 10 27  1  0  0  0  0
 11 28  1  0  0  0  0
 12 29  1  0  0  0  0
 13 30  1  0  0  0  0
 13 31  1  0  0  0  0
 14 32  1  0  0  0  0
 17 33  1  0  0  0  0
 20 34  1  0  0  0  0
M  END
> <Chemgauss4>
-8.319724

$$$$
