stable:False satoms:11 tatoms:24 sratio:0.4583333333333333
  -OEChem-08062411223D

 34 35  0     1  0  0  0  0  0999 V2000
   -6.2345   -5.5516  -25.6689 Cl  0  0  0  0  0  0  0  0  0  0  0  0
   -8.0549   -4.9532  -25.5169 S   0  0  0  0  0  0  0  0  0  0  0  0
   -8.8231   -6.1334  -25.3391 O   0  0  0  0  0  0  0  0  0  0  0  0
   -8.3548   -4.1746  -26.6818 O   0  0  0  0  0  0  0  0  0  0  0  0
   -8.0246   -4.0691  -24.1657 N   0  0  0  0  0  0  0  0  0  0  0  0
   -8.7223   -3.2645  -23.7624 C   0  0  0  0  0  0  0  0  0  0  0  0
   -9.3099   -2.2090  -23.2301 C   0  0  0  0  0  0  0  0  0  0  0  0
  -10.5174   -1.4322  -23.2358 C   0  0  1  0  0  0  0  0  0  0  0  0
  -11.0228   -0.7964  -24.3987 N   0  0  0  0  0  0  0  0  0  0  0  0
  -12.1813   -0.4755  -24.3602 C   0  0  0  0  0  0  0  0  0  0  0  0
  -13.0673   -0.6102  -23.7844 C   0  0  0  0  0  0  0  0  0  0  0  0
  -12.8013   -1.6301  -22.5490 C   0  0  0  0  0  0  0  0  0  0  0  0
  -11.8751   -1.9132  -22.4859 C   0  0  0  0  0  0  0  0  0  0  0  0
   -9.5372   -1.1296  -22.5098 C   0  0  3  0  0  0  0  0  0  0  0  0
   -8.9776   -0.1109  -21.4580 C   0  0  0  0  0  0  0  0  0  0  0  0
   -9.6018    0.8546  -21.2002 O   0  0  0  0  0  0  0  0  0  0  0  0
   -7.8299   -0.5222  -21.0505 N   0  0  0  0  0  0  0  0  0  0  0  0
   -7.1379    0.1263  -20.1125 C   0  0  0  0  0  0  0  0  0  0  0  0
   -7.9049    0.3151  -18.5875 S   0  0  0  0  0  0  0  0  0  0  0  0
   -6.6584    0.8072  -17.6640 N   0  0  0  0  0  0  0  0  0  0  0  0
   -6.9756    0.9571  -16.7276 H   0  0  0  0  0  0  0  0  0  0  0  0
   -5.2845    1.0780  -19.5932 H   0  0  0  0  0  0  0  0  0  0  0  0
   -5.8797    0.6141  -20.3554 C   0  0  0  0  0  0  0  0  0  0  0  0
   -5.4726    0.5380  -21.3461 H   0  0  0  0  0  0  0  0  0  0  0  0
   -7.1370   -3.6104  -24.2060 H   0  0  0  0  0  0  0  0  0  0  0  0
   -9.6370   -3.7720  -24.0309 H   0  0  0  0  0  0  0  0  0  0  0  0
  -12.3976    0.1719  -25.1972 H   0  0  0  0  0  0  0  0  0  0  0  0
  -14.0136   -0.1336  -23.9938 H   0  0  0  0  0  0  0  0  0  0  0  0
  -13.5735   -1.9587  -21.8692 H   0  0  0  0  0  0  0  0  0  0  0  0
  -11.6393   -1.7734  -21.4206 H   0  0  0  0  0  0  0  0  0  0  0  0
  -11.9227   -2.9884  -22.7130 H   0  0  0  0  0  0  0  0  0  0  0  0
   -9.9412   -1.7517  -21.6975 H   0  0  0  0  0  0  0  0  0  0  0  0
   -7.4438   -1.3542  -21.4490 H   0  0  0  0  0  0  0  0  0  0  0  0
   -6.2883    1.6606  -18.0311 H   0  0  0  0  0  0  0  0  0  0  0  0
 20 21  1  0  0  0  0
 19 20  1  0  0  0  0
 18 19  1  0  0  0  0
 22 23  1  0  0  0  0
 18 23  2  0  0  0  0
 17 18  1  0  0  0  0
 23 24  1  0  0  0  0
 15 16  2  0  0  0  0
 15 17  1  0  0  0  0
 14 15  1  0  0  0  0
 12 13  1  0  0  0  0
 11 12  2  0  0  0  0
  8 13  1  0  0  0  0
  8 14  1  0  0  0  0
  7 14  1  0  0  0  0
  7  8  1  0  0  0  0
  8  9  1  0  0  0  0
  6  7  2  0  0  0  0
 10 11  1  0  0  0  0
  5  6  1  0  0  0  0
  9 10  2  0  0  0  0
  2  5  1  0  0  0  0
  2  3  2  0  0  0  0
  1  2  1  0  0  0  0
  2  4  2  0  0  0  0
  5 25  1  0  0  0  0
  6 26  1  0  0  0  0
 10 27  1  0  0  0  0
 11 28  1  0  0  0  0
 12 29  1  0  0  0  0
 13 30  1  0  0  0  0
 13 31  1  0  0  0  0
 14 32  1  0  0  0  0
 17 33  1  0  0  0  0
 20 34  1  0  0  0  0
M  END
> <Chemgauss4>
-8.006811

$$$$
