stable:False satoms:14 tatoms:24 sratio:0.5833333333333334
  -OEChem-07092417353D

 24 25  0     0  0  0  0  0  0999 V2000
    6.1401   -3.9259   25.4037 Cl  0  0  0  0  0  0  0  0  0  0  0  0
    7.5317   -3.2319   24.8227 C   0  0  0  0  0  0  0  0  0  0  0  0
    8.8039   -3.6049   25.1324 C   0  0  0  0  0  0  0  0  0  0  0  0
    8.9569   -4.2117   26.0126 H   0  0  0  0  0  0  0  0  0  0  0  0
    8.2334   -1.4630   23.2809 N   0  0  0  0  0  0  0  0  0  0  0  0
    9.8151   -3.2232   24.4025 N   0  0  0  0  0  0  0  0  0  0  0  0
    7.5169   -2.0464   23.8240 C   0  0  0  0  0  0  0  0  0  0  0  0
   11.3556    0.1268   22.7721 C   0  0  0  0  0  0  0  0  0  0  0  0
    9.6092   -1.0765   23.4015 C   0  0  0  0  0  0  0  0  0  0  0  0
   13.1381   -0.5694   23.6502 H   0  0  0  0  0  0  0  0  0  0  0  0
   10.1294    0.1304   23.1511 N   0  0  0  0  0  0  0  0  0  0  0  0
   11.7566    0.8054   22.0504 H   0  0  0  0  0  0  0  0  0  0  0  0
   11.6877   -2.0049   23.5872 N   0  0  0  0  0  0  0  0  0  0  0  0
   10.3506   -2.1015   23.8080 C   0  0  0  0  0  0  0  0  0  0  0  0
   12.1230   -0.8196   23.3502 C   0  0  0  0  0  0  0  0  0  0  0  0
    9.1394    0.3965   21.0273 O   0  0  0  0  0  0  0  0  0  0  0  0
    7.0308   -0.3321   20.4245 N   0  0  0  0  0  0  0  0  0  0  0  0
    6.6856   -1.1349   20.8690 H   0  0  0  0  0  0  0  0  0  0  0  0
    6.3909    0.3081   19.2694 C   0  0  0  0  0  0  0  0  0  0  0  0
    7.0242    0.2203   18.4049 H   0  0  0  0  0  0  0  0  0  0  0  0
    5.4229   -0.0895   19.0503 H   0  0  0  0  0  0  0  0  0  0  0  0
    8.0094    0.2169   20.8001 C   0  0  0  0  0  0  0  0  0  0  0  0
    6.2582    1.3335   19.5635 H   0  0  0  0  0  0  0  0  0  0  0  0
    6.4745   -0.9926   23.2383 S   0  0  0  0  0  0  0  0  0  0  0  0
 19 20  1  0  0  0  0
 19 21  1  0  0  0  0
 19 23  1  0  0  0  0
 17 19  1  0  0  0  0
 17 22  1  0  0  0  0
 17 18  1  0  0  0  0
 16 22  2  0  0  0  0
  8 12  1  0  0  0  0
  8 11  2  0  0  0  0
  8 15  1  0  0  0  0
  9 11  1  0  0  0  0
  5 24  1  0  0  0  0
  7 24  1  0  0  0  0
  5  9  1  0  0  0  0
  5  7  1  0  0  0  0
 13 15  2  0  0  0  0
 10 15  1  0  0  0  0
  9 14  2  0  0  0  0
 13 14  1  0  0  0  0
  6 14  1  0  0  0  0
  2  7  2  0  0  0  0
  3  6  2  0  0  0  0
  2  3  1  0  0  0  0
  1  2  1  0  0  0  0
  3  4  1  0  0  0  0
M  END
> <Shapegauss>
-164.838776

$$$$
