stable:False satoms:22 tatoms:24 sratio:0.9166666666666666
  -OEChem-07092417283D

 24 25  0     1  0  0  0  0  0999 V2000
    7.9996   -3.1501   22.6066 C   0  0  0  0  0  0  0  0  0  0  0  0
   10.3739    1.2177   20.6007 H   0  0  0  0  0  0  0  0  0  0  0  0
    8.6129   -0.7622   24.7771 S   0  0  0  0  0  0  0  0  0  0  0  0
    7.9338   -1.1089   21.4409 C   0  0  1  0  0  0  0  0  0  0  0  0
    8.8779   -2.0302   23.3568 C   0  0  2  0  0  0  0  0  0  0  0  0
    8.4781   -4.1078   22.6350 H   0  0  0  0  0  0  0  0  0  0  0  0
    9.1345   -1.1253   22.3339 N   0  3  2  0  0  0  0  0  0  0  0  0
    6.0491   -1.4755   22.5101 H   0  0  0  0  0  0  0  0  0  0  0  0
    9.7082   -2.5697   23.7872 H   0  0  0  0  0  0  0  0  0  0  0  0
   11.4310    0.8709   23.2028 H   0  0  0  0  0  0  0  0  0  0  0  0
   10.5898    0.3684   23.3926 N   0  0  0  0  0  0  0  0  0  0  0  0
    7.8789   -2.6104   21.1809 C   0  0  0  0  0  0  0  0  0  0  0  0
    6.6081   -0.6642   22.0643 C   0  0  0  0  0  0  0  0  0  0  0  0
    5.9777   -0.2090   21.3048 H   0  0  0  0  0  0  0  0  0  0  0  0
   10.0000   -0.0931   22.2427 C   0  0  3  0  0  0  0  0  0  0  0  0
    6.9594   -2.9114   20.6788 H   0  0  0  0  0  0  0  0  0  0  0  0
   10.9748   -1.1095   24.8043 H   0  0  0  0  0  0  0  0  0  0  0  0
    8.1724   -0.4784   20.5891 H   0  0  0  0  0  0  0  0  0  0  0  0
   10.3632   -0.2227   24.6477 C   0  0  0  0  0  0  0  0  0  0  0  0
    8.7354   -2.9100   20.5712 H   0  0  0  0  0  0  0  0  0  0  0  0
   10.5617    0.4938   25.4410 H   0  0  0  0  0  0  0  0  0  0  0  0
    7.0372   -3.2122   23.1063 H   0  0  0  0  0  0  0  0  0  0  0  0
    6.8079    0.0612   22.8445 H   0  0  0  0  0  0  0  0  0  0  0  0
   10.3185    0.4483   21.1775 N   0  5  0  0  0  0  0  0  0  0  0  0
 12 20  1  0  0  0  0
  4 18  1  0  0  0  0
  2 24  1  0  0  0  0
 12 16  1  0  0  0  0
 15 24  1  0  0  0  0
  4 12  1  0  0  0  0
  1 12  1  0  0  0  0
 13 14  1  0  0  0  0
  4 13  1  0  0  0  0
  4  7  1  0  0  0  0
  8 13  1  0  0  0  0
 13 23  1  0  0  0  0
  7 15  1  0  0  0  0
 11 15  1  0  0  0  0
  5  7  1  0  0  0  0
  1  6  1  0  0  0  0
  1 22  1  0  0  0  0
  1  5  1  0  0  0  0
 10 11  1  0  0  0  0
  5  9  1  0  0  0  0
  3  5  1  0  0  0  0
 11 19  1  0  0  0  0
  3 19  1  0  0  0  0
 17 19  1  0  0  0  0
 19 21  1  0  0  0  0
M  CHG  2   7   1  24  -1
M  END
> <Shapegauss>
-102.449333

$$$$
