REMARK  1 active torsions:
REMARK  status: ('A' for Active; 'I' for Inactive)
REMARK    1  A    between atoms: C_11  and  N_13 
ROOT
HETATM    1  C   UNL     1       8.000  -3.150  22.607  1.00  0.00     0.039 C 
HETATM    2  S   UNL     1       8.613  -0.762  24.777  1.00  0.00    -0.123 SA
HETATM    3  C   UNL     1       7.934  -1.109  21.441  1.00  0.00     0.099 C 
HETATM    4  C   UNL     1       8.878  -2.030  23.357  1.00  0.00     0.166 C 
HETATM    5  N   UNL     1       9.134  -1.125  22.334  1.00  0.00    -0.201 N 
HETATM    6  H   UNL     1      11.431   0.871  23.203  1.00  0.00     0.178 HD
HETATM    7  N   UNL     1      10.590   0.368  23.393  1.00  0.00    -0.218 N 
HETATM    8  C   UNL     1       7.879  -2.610  21.181  1.00  0.00     0.028 C 
HETATM    9  C   UNL     1       6.608  -0.664  22.064  1.00  0.00     0.033 C 
HETATM   10  C   UNL     1      10.000  -0.093  22.243  1.00  0.00     0.671 C 
HETATM   11  C   UNL     1      10.363  -0.223  24.648  1.00  0.00     0.214 C 
ENDROOT
BRANCH  10  12
HETATM   12  N   UNL     1      10.319   0.448  21.177  1.00  0.00    -0.235 N 
HETATM   13  H   UNL     1      10.374   1.218  20.601  1.00  0.00     0.174 HD
ATOM     14  HN  UNL     1      10.736  -0.305  20.629  1.00  0.00     0.174 HD
ENDBRANCH  10  12
TORSDOF 1
