MODEL 1
REMARK VINA RESULT:    -4.637      0.000      0.000
REMARK INTER + INTRA:          -4.773
REMARK INTER:                  -4.773
REMARK INTRA:                   0.000
REMARK UNBOUND:                 0.000
REMARK  1 active torsions:
REMARK  status: ('A' for Active; 'I' for Inactive)
REMARK    1  A    between atoms: C_11  and  N_13 
ROOT
HETATM    1  C   UNL     1       7.281  16.934   2.575  1.00  0.00     0.039 C 
HETATM    2  S   UNL     1       7.131  14.153   4.318  1.00  0.00    -0.123 SA
HETATM    3  C   UNL     1       9.329  16.704   3.707  1.00  0.00     0.099 C 
HETATM    4  C   UNL     1       7.580  15.390   2.917  1.00  0.00     0.166 C 
HETATM    5  N   UNL     1       8.959  15.392   3.093  1.00  0.00    -0.201 N 
HETATM    6  H   UNL     1      10.056  12.423   3.077  1.00  0.00     0.178 HD
HETATM    7  N   UNL     1       9.391  13.109   3.366  1.00  0.00    -0.218 N 
HETATM    8  C   UNL     1       8.659  17.591   2.663  1.00  0.00     0.028 C 
HETATM    9  C   UNL     1       8.736  17.022   5.083  1.00  0.00     0.033 C 
HETATM   10  C   UNL     1       9.856  14.385   3.170  1.00  0.00     0.671 C 
HETATM   11  C   UNL     1       8.020  12.808   3.440  1.00  0.00     0.214 C 
ENDROOT
BRANCH  10  12
HETATM   12  N   UNL     1      11.077  14.539   3.046  1.00  0.00    -0.235 N 
HETATM   13  H   UNL     1      11.917  14.338   2.620  1.00  0.00     0.174 HD
ATOM     14  HN  UNL     1      11.316  15.231   3.757  1.00  0.00     0.174 HD
ENDBRANCH  10  12
TORSDOF 1
ENDMDL
MODEL 2
REMARK VINA RESULT:    -4.590      2.084      3.396
REMARK INTER + INTRA:          -4.725
REMARK INTER:                  -4.725
REMARK INTRA:                   0.000
REMARK UNBOUND:                 0.000
REMARK  1 active torsions:
REMARK  status: ('A' for Active; 'I' for Inactive)
REMARK    1  A    between atoms: C_11  and  N_13 
ROOT
HETATM    1  C   UNL     1       7.309  15.406   3.776  1.00  0.00     0.039 C 
HETATM    2  S   UNL     1       9.385  17.889   3.213  1.00  0.00    -0.123 SA
HETATM    3  C   UNL     1       9.311  14.477   2.964  1.00  0.00     0.099 C 
HETATM    4  C   UNL     1       8.556  16.380   4.068  1.00  0.00     0.166 C 
HETATM    5  N   UNL     1       9.633  15.504   4.003  1.00  0.00    -0.201 N 
HETATM    6  H   UNL     1      12.215  16.869   5.222  1.00  0.00     0.178 HD
HETATM    7  N   UNL     1      11.399  16.896   4.648  1.00  0.00    -0.218 N 
HETATM    8  C   UNL     1       7.968  14.046   3.544  1.00  0.00     0.028 C 
HETATM    9  C   UNL     1       9.097  14.977   1.533  1.00  0.00     0.033 C 
HETATM   10  C   UNL     1      10.924  15.637   4.377  1.00  0.00     0.671 C 
HETATM   11  C   UNL     1      10.583  18.039   4.596  1.00  0.00     0.214 C 
ENDROOT
BRANCH  10  12
HETATM   12  N   UNL     1      11.702  14.686   4.520  1.00  0.00    -0.235 N 
HETATM   13  H   UNL     1      12.562  14.269   4.397  1.00  0.00     0.174 HD
ATOM     14  HN  UNL     1      11.155  13.989   5.025  1.00  0.00     0.174 HD
ENDBRANCH  10  12
TORSDOF 1
ENDMDL
MODEL 3
REMARK VINA RESULT:    -4.477     36.546     38.516
REMARK INTER + INTRA:          -4.608
REMARK INTER:                  -4.608
REMARK INTRA:                   0.000
REMARK UNBOUND:                 0.000
REMARK  1 active torsions:
REMARK  status: ('A' for Active; 'I' for Inactive)
REMARK    1  A    between atoms: C_11  and  N_13 
ROOT
HETATM    1  C   UNL     1       2.400 -24.021  10.103  1.00  0.00     0.039 C 
HETATM    2  S   UNL     1       0.499 -21.514   9.158  1.00  0.00    -0.123 SA
HETATM    3  C   UNL     1       2.955 -23.521   7.873  1.00  0.00     0.099 C 
HETATM    4  C   UNL     1       2.045 -22.492   9.750  1.00  0.00     0.166 C 
HETATM    5  N   UNL     1       2.861 -22.247   8.652  1.00  0.00    -0.201 N 
HETATM    6  H   UNL     1       3.004 -19.138   8.080  1.00  0.00     0.178 HD
HETATM    7  N   UNL     1       2.491 -19.965   8.302  1.00  0.00    -0.218 N 
HETATM    8  C   UNL     1       3.414 -24.407   9.025  1.00  0.00     0.028 C 
HETATM    9  C   UNL     1       1.651 -24.086   7.301  1.00  0.00     0.033 C 
HETATM   10  C   UNL     1       3.209 -21.101   8.029  1.00  0.00     0.671 C 
HETATM   11  C   UNL     1       1.441 -19.940   9.236  1.00  0.00     0.214 C 
ENDROOT
BRANCH  10  12
HETATM   12  N   UNL     1       4.161 -21.005   7.244  1.00  0.00    -0.235 N 
HETATM   13  H   UNL     1       4.599 -20.597   6.490  1.00  0.00     0.174 HD
ATOM     14  HN  UNL     1       4.816 -21.724   7.554  1.00  0.00     0.174 HD
ENDBRANCH  10  12
TORSDOF 1
ENDMDL
MODEL 4
REMARK VINA RESULT:    -4.318     25.156     26.415
REMARK INTER + INTRA:          -4.444
REMARK INTER:                  -4.444
REMARK INTRA:                   0.000
REMARK UNBOUND:                 0.000
REMARK  1 active torsions:
REMARK  status: ('A' for Active; 'I' for Inactive)
REMARK    1  A    between atoms: C_11  and  N_13 
ROOT
HETATM    1  C   UNL     1      12.532  -1.183  23.291  1.00  0.00     0.039 C 
HETATM    2  S   UNL     1       9.422  -1.321  22.245  1.00  0.00    -0.123 SA
HETATM    3  C   UNL     1      11.309   0.409  24.516  1.00  0.00     0.099 C 
HETATM    4  C   UNL     1      10.974  -1.576  23.350  1.00  0.00     0.166 C 
HETATM    5  N   UNL     1      10.536  -0.870  24.465  1.00  0.00    -0.201 N 
HETATM    6  H   UNL     1       7.689  -1.921  25.363  1.00  0.00     0.178 HD
HETATM    7  N   UNL     1       8.333  -1.633  24.657  1.00  0.00    -0.218 N 
HETATM    8  C   UNL     1      12.699  -0.215  24.464  1.00  0.00     0.028 C 
HETATM    9  C   UNL     1      11.150   1.367  23.332  1.00  0.00     0.033 C 
HETATM   10  C   UNL     1       9.397  -0.947  25.186  1.00  0.00     0.671 C 
HETATM   11  C   UNL     1       8.402  -2.295  23.419  1.00  0.00     0.214 C 
ENDROOT
BRANCH  10  12
HETATM   12  N   UNL     1       9.262  -0.458  26.315  1.00  0.00    -0.235 N 
HETATM   13  H   UNL     1       8.714  -0.115  27.029  1.00  0.00     0.174 HD
ATOM     14  HN  UNL     1      10.215  -0.377  26.669  1.00  0.00     0.174 HD
ENDBRANCH  10  12
TORSDOF 1
ENDMDL
MODEL 5
REMARK VINA RESULT:    -4.237     30.522     31.556
REMARK INTER + INTRA:          -4.361
REMARK INTER:                  -4.361
REMARK INTRA:                   0.000
REMARK UNBOUND:                 0.000
REMARK  1 active torsions:
REMARK  status: ('A' for Active; 'I' for Inactive)
REMARK    1  A    between atoms: C_11  and  N_13 
ROOT
HETATM    1  C   UNL     1      22.912  -0.360  23.973  1.00  0.00     0.039 C 
HETATM    2  S   UNL     1      23.206  -3.450  25.046  1.00  0.00    -0.123 SA
HETATM    3  C   UNL     1      21.503  -0.590  25.841  1.00  0.00     0.099 C 
HETATM    4  C   UNL     1      23.422  -1.543  24.936  1.00  0.00     0.166 C 
HETATM    5  N   UNL     1      22.829  -1.210  26.148  1.00  0.00    -0.201 N 
HETATM    6  H   UNL     1      24.145  -2.880  28.492  1.00  0.00     0.178 HD
HETATM    7  N   UNL     1      23.762  -2.813  27.573  1.00  0.00    -0.218 N 
HETATM    8  C   UNL     1      22.018   0.481  24.886  1.00  0.00     0.028 C 
HETATM    9  C   UNL     1      20.480  -1.461  25.106  1.00  0.00     0.033 C 
HETATM   10  C   UNL     1      23.038  -1.660  27.404  1.00  0.00     0.671 C 
HETATM   11  C   UNL     1      24.331  -3.513  26.495  1.00  0.00     0.214 C 
ENDROOT
BRANCH  10  12
HETATM   12  N   UNL     1      22.640  -1.078  28.420  1.00  0.00    -0.235 N 
HETATM   13  H   UNL     1      22.001  -0.955  29.131  1.00  0.00     0.174 HD
ATOM     14  HN  UNL     1      23.348  -0.364  28.594  1.00  0.00     0.174 HD
ENDBRANCH  10  12
TORSDOF 1
ENDMDL
MODEL 6
REMARK VINA RESULT:    -4.213     23.496     24.507
REMARK INTER + INTRA:          -4.336
REMARK INTER:                  -4.336
REMARK INTRA:                   0.000
REMARK UNBOUND:                 0.000
REMARK  1 active torsions:
REMARK  status: ('A' for Active; 'I' for Inactive)
REMARK    1  A    between atoms: C_11  and  N_13 
ROOT
HETATM    1  C   UNL     1      10.852   2.571  23.119  1.00  0.00     0.039 C 
HETATM    2  S   UNL     1       8.115   1.202  21.927  1.00  0.00    -0.123 SA
HETATM    3  C   UNL     1      10.580   0.497  24.193  1.00  0.00     0.099 C 
HETATM    4  C   UNL     1       9.980   1.565  22.216  1.00  0.00     0.166 C 
HETATM    5  N   UNL     1      10.343   0.324  22.727  1.00  0.00    -0.201 N 
HETATM    6  H   UNL     1       9.401  -1.972  20.763  1.00  0.00     0.178 HD
HETATM    7  N   UNL     1       9.237  -1.120  21.256  1.00  0.00    -0.218 N 
HETATM    8  C   UNL     1      11.586   1.637  24.083  1.00  0.00     0.028 C 
HETATM    9  C   UNL     1       9.393   0.962  25.041  1.00  0.00     0.033 C 
HETATM   10  C   UNL     1      10.149  -0.929  22.264  1.00  0.00     0.671 C 
HETATM   11  C   UNL     1       8.537  -0.057  20.660  1.00  0.00     0.214 C 
ENDROOT
BRANCH  10  12
HETATM   12  N   UNL     1      10.767  -1.919  22.674  1.00  0.00    -0.235 N 
HETATM   13  H   UNL     1      11.204  -2.415  23.375  1.00  0.00     0.174 HD
ATOM     14  HN  UNL     1      10.863  -2.513  21.850  1.00  0.00     0.174 HD
ENDBRANCH  10  12
TORSDOF 1
ENDMDL
MODEL 7
REMARK VINA RESULT:    -4.073     38.827     39.980
REMARK INTER + INTRA:          -4.192
REMARK INTER:                  -4.192
REMARK INTRA:                   0.000
REMARK UNBOUND:                 0.000
REMARK  1 active torsions:
REMARK  status: ('A' for Active; 'I' for Inactive)
REMARK    1  A    between atoms: C_11  and  N_13 
ROOT
HETATM    1  C   UNL     1      22.091 -19.595  13.217  1.00  0.00     0.039 C 
HETATM    2  S   UNL     1      23.146 -21.777  15.433  1.00  0.00    -0.123 SA
HETATM    3  C   UNL     1      20.201 -20.725  14.044  1.00  0.00     0.099 C 
HETATM    4  C   UNL     1      22.371 -20.185  14.687  1.00  0.00     0.166 C 
HETATM    5  N   UNL     1      21.084 -20.342  15.189  1.00  0.00    -0.201 N 
HETATM    6  H   UNL     1      21.192 -20.806  18.318  1.00  0.00     0.178 HD
HETATM    7  N   UNL     1      21.526 -20.985  17.394  1.00  0.00    -0.218 N 
HETATM    8  C   UNL     1      20.564 -19.556  13.134  1.00  0.00     0.028 C 
HETATM    9  C   UNL     1      20.526 -22.035  13.321  1.00  0.00     0.033 C 
HETATM   10  C   UNL     1      20.630 -20.574  16.439  1.00  0.00     0.671 C 
HETATM   11  C   UNL     1      22.899 -21.125  17.131  1.00  0.00     0.214 C 
ENDROOT
BRANCH  10  12
HETATM   12  N   UNL     1      19.454 -20.412  16.787  1.00  0.00    -0.235 N 
HETATM   13  H   UNL     1      18.513 -20.349  16.590  1.00  0.00     0.174 HD
ATOM     14  HN  UNL     1      19.508 -20.273  17.796  1.00  0.00     0.174 HD
ENDBRANCH  10  12
TORSDOF 1
ENDMDL
MODEL 8
REMARK VINA RESULT:    -4.065     27.971     29.391
REMARK INTER + INTRA:          -4.184
REMARK INTER:                  -4.184
REMARK INTRA:                   0.000
REMARK UNBOUND:                 0.000
REMARK  1 active torsions:
REMARK  status: ('A' for Active; 'I' for Inactive)
REMARK    1  A    between atoms: C_11  and  N_13 
ROOT
HETATM    1  C   UNL     1       8.217  -4.850  25.488  1.00  0.00     0.039 C 
HETATM    2  S   UNL     1       7.162  -4.005  22.495  1.00  0.00    -0.123 SA
HETATM    3  C   UNL     1       5.867  -4.912  25.530  1.00  0.00     0.099 C 
HETATM    4  C   UNL     1       7.622  -5.090  24.013  1.00  0.00     0.166 C 
HETATM    5  N   UNL     1       6.353  -5.588  24.287  1.00  0.00    -0.201 N 
HETATM    6  H   UNL     1       5.103  -6.864  21.675  1.00  0.00     0.178 HD
HETATM    7  N   UNL     1       5.600  -6.135  22.142  1.00  0.00    -0.218 N 
HETATM    8  C   UNL     1       7.064  -5.257  26.407  1.00  0.00     0.028 C 
HETATM    9  C   UNL     1       5.711  -3.389  25.479  1.00  0.00     0.033 C 
HETATM   10  C   UNL     1       5.439  -6.197  23.503  1.00  0.00     0.671 C 
HETATM   11  C   UNL     1       6.702  -5.504  21.539  1.00  0.00     0.214 C 
ENDROOT
BRANCH  10  12
HETATM   12  N   UNL     1       4.474  -6.838  23.938  1.00  0.00    -0.235 N 
HETATM   13  H   UNL     1       3.581  -6.885  24.297  1.00  0.00     0.174 HD
ATOM     14  HN  UNL     1       4.779  -7.810  23.896  1.00  0.00     0.174 HD
ENDBRANCH  10  12
TORSDOF 1
ENDMDL
MODEL 9
REMARK VINA RESULT:    -4.058     24.338     25.647
REMARK INTER + INTRA:          -4.176
REMARK INTER:                  -4.176
REMARK INTRA:                   0.000
REMARK UNBOUND:                 0.000
REMARK  1 active torsions:
REMARK  status: ('A' for Active; 'I' for Inactive)
REMARK    1  A    between atoms: C_11  and  N_13 
ROOT
HETATM    1  C   UNL     1      23.569  -2.777  16.294  1.00  0.00     0.039 C 
HETATM    2  S   UNL     1      25.869  -1.235  14.527  1.00  0.00    -0.123 SA
HETATM    3  C   UNL     1      24.004  -0.721  17.350  1.00  0.00     0.099 C 
HETATM    4  C   UNL     1      24.148  -1.702  15.246  1.00  0.00     0.166 C 
HETATM    5  N   UNL     1      23.868  -0.497  15.877  1.00  0.00    -0.201 N 
HETATM    6  H   UNL     1      24.198   1.898  13.834  1.00  0.00     0.178 HD
HETATM    7  N   UNL     1      24.515   1.043  14.239  1.00  0.00    -0.218 N 
HETATM    8  C   UNL     1      23.053  -1.909  17.443  1.00  0.00     0.028 C 
HETATM    9  C   UNL     1      25.381  -1.146  17.865  1.00  0.00     0.033 C 
HETATM   10  C   UNL     1      23.887   0.777  15.430  1.00  0.00     0.671 C 
HETATM   11  C   UNL     1      25.095   0.034  13.450  1.00  0.00     0.214 C 
ENDROOT
BRANCH  10  12
HETATM   12  N   UNL     1      23.345   1.722  16.016  1.00  0.00    -0.235 N 
HETATM   13  H   UNL     1      23.295   2.351  16.744  1.00  0.00     0.174 HD
ATOM     14  HN  UNL     1      22.541   1.953  15.431  1.00  0.00     0.174 HD
ENDBRANCH  10  12
TORSDOF 1
ENDMDL
