REMARK  8 active torsions:
REMARK  status: ('A' for Active; 'I' for Inactive)
REMARK    1  A    between atoms: S_2  and  N_5 
REMARK    2  A    between atoms: N_5  and  C_7 
REMARK    3  A    between atoms: C_7  and  C_8 
REMARK    4  A    between atoms: C_9  and  C_14 
REMARK    5  A    between atoms: C_9  and  C_10 
REMARK    6  A    between atoms: C_13  and  C_14 
REMARK    7  A    between atoms: C_15  and  C_16 
REMARK       I    between atoms: C_16  and  N_18 
REMARK    8  A    between atoms: N_18  and  C_20 
ROOT
HETATM    1  C   UNL     1       9.423  -1.955  23.488  1.00  0.00     0.040 A 
HETATM    2  C   UNL     1      10.434  -1.153  23.154  1.00  0.00     0.065 A 
HETATM    3  C   UNL     1       9.663  -0.614  22.326  1.00  0.00     0.049 A 
ENDROOT
BRANCH   3   4
HETATM    4  C   UNL     1       9.039  -0.016  21.350  1.00  0.00     0.255 C 
HETATM    5  O   UNL     1       9.582   0.889  20.913  1.00  0.00    -0.268 OA
HETATM    6  N   UNL     1       7.874  -0.607  21.086  1.00  0.00    -0.321 N 
ATOM      7  HN  UNL     1       7.562  -1.422  21.613  1.00  0.00     0.169 HD
BRANCH   6   8
HETATM    8  C   UNL     1       7.184  -0.126  20.173  1.00  0.00     0.068 A 
HETATM    9  C   UNL     1       7.192   0.017  18.875  1.00  0.00     0.118 A 
HETATM   10  N   UNL     1       6.764   0.349  17.768  1.00  0.00    -0.373 N 
HETATM   11  C   UNL     1       5.624   0.902  18.297  1.00  0.00     0.089 A 
ATOM     12  HN  UNL     1       7.122   0.250  16.818  1.00  0.00     0.164 HD
HETATM   13  C   UNL     1       5.258   0.934  19.419  1.00  0.00     0.038 A 
HETATM   14  C   UNL     1       5.793   0.521  20.560  1.00  0.00     0.040 A 
HETATM   15 BR   UNL     1       5.247   0.595  22.129  1.00  0.00    -0.049 Br
ENDBRANCH   6   8
ENDBRANCH   3   4
BRANCH   1  16
HETATM   16  C   UNL     1       8.930  -2.873  24.139  1.00  0.00    -0.022 C 
BRANCH  16  17
HETATM   17  N   UNL     1       8.121  -3.547  24.673  1.00  0.00    -0.249 N 
ATOM     18  HN  UNL     1       7.243  -3.668  24.169  1.00  0.00     0.188 HD
BRANCH  17  19
HETATM   19  S   UNL     1       8.223  -4.305  26.102  1.00  0.00     0.233 S 
HETATM   20  C   UNL     1       6.548  -4.837  26.408  1.00  0.00     0.186 C 
HETATM   21  O   UNL     1       9.030  -5.471  26.018  1.00  0.00    -0.205 OA
HETATM   22  O   UNL     1       8.569  -3.434  27.157  1.00  0.00    -0.205 OA
ENDBRANCH  17  19
ENDBRANCH  16  17
ENDBRANCH   1  16
BRANCH   2  23
HETATM   23  C   UNL     1      11.763  -1.594  22.592  1.00  0.00    -0.003 C 
BRANCH  23  24
HETATM   24  C   UNL     1      12.817  -1.115  22.767  1.00  0.00    -0.013 C 
HETATM   25  C   UNL     1      13.455  -0.414  23.221  1.00  0.00     0.011 C 
ENDBRANCH  23  24
ENDBRANCH   2  23
BRANCH   2  26
HETATM   26  C   UNL     1      11.162   0.061  24.251  1.00  0.00    -0.013 C 
HETATM   27  C   UNL     1      11.887   0.504  24.432  1.00  0.00     0.008 C 
ENDBRANCH   2  26
TORSDOF 8
