stable:False satoms:8 tatoms:24 sratio:0.3333333333333333
  -OEChem-07092417473D

 24 25  0     1  0  0  0  0  0999 V2000
    6.5484   -4.8372   26.4081 C   0  0  0  0  0  0  0  0  0  0  0  0
    8.2231   -4.3049   26.1015 S   0  0  0  0  0  0  0  0  0  0  0  0
    9.0298   -5.4711   26.0182 O   0  0  0  0  0  0  0  0  0  0  0  0
    8.5694   -3.4337   27.1565 O   0  0  0  0  0  0  0  0  0  0  0  0
    8.1213   -3.5470   24.6734 N   0  0  0  0  0  0  0  0  0  0  0  0
    8.9298   -2.8735   24.1391 C   0  0  0  0  0  0  0  0  0  0  0  0
    9.4234   -1.9549   23.4875 C   0  0  0  0  0  0  0  0  0  0  0  0
   10.4336   -1.1526   23.1542 C   0  0  1  0  0  0  0  0  0  0  0  0
   11.1623    0.0613   24.2506 C   0  0  0  0  0  0  0  0  0  0  0  0
   11.8870    0.5043   24.4316 C   0  0  0  0  0  0  0  0  0  0  0  0
   13.4554   -0.4143   23.2207 C   0  0  0  0  0  0  0  0  0  0  0  0
   12.8172   -1.1152   22.7667 C   0  0  0  0  0  0  0  0  0  0  0  0
   11.7627   -1.5940   22.5917 C   0  0  0  0  0  0  0  0  0  0  0  0
    9.6629   -0.6137   22.3258 C   0  0  1  0  0  0  0  0  0  0  0  0
    9.0392   -0.0161   21.3502 C   0  0  0  0  0  0  0  0  0  0  0  0
    9.5819    0.8886   20.9128 O   0  0  0  0  0  0  0  0  0  0  0  0
    7.8741   -0.6074   21.0860 N   0  0  0  0  0  0  0  0  0  0  0  0
    7.1837   -0.1263   20.1732 C   0  0  0  0  0  0  0  0  0  0  0  0
    7.1923    0.0171   18.8751 C   0  0  0  0  0  0  0  0  0  0  0  0
    6.7638    0.3491   17.7684 N   0  0  0  0  0  0  0  0  0  0  0  0
    5.6244    0.9016   18.2967 C   0  0  0  0  0  0  0  0  0  0  0  0
    5.2577    0.9344   19.4190 C   0  0  0  0  0  0  0  0  0  0  0  0
    5.7932    0.5208   20.5603 C   0  0  0  0  0  0  0  0  0  0  0  0
    5.2473    0.5946   22.1294 Br  0  0  0  0  0  0  0  0  0  0  0  0
 20 21  2  0  0  0  0
 19 20  1  0  0  0  0
 21 22  1  0  0  0  0
 18 19  2  0  0  0  0
 22 23  2  0  0  0  0
 18 23  1  0  0  0  0
 17 18  1  0  0  0  0
 23 24  1  0  0  0  0
 15 16  2  0  0  0  0
 15 17  1  0  0  0  0
 14 15  1  0  0  0  0
  8 14  1  0  0  0  0
  7 14  1  0  0  0  0
 12 13  2  0  0  0  0
  8 13  1  0  0  0  0
 11 12  1  0  0  0  0
  7  8  1  0  0  0  0
  8  9  1  0  0  0  0
  6  7  2  0  0  0  0
  5  6  1  0  0  0  0
  9 10  2  0  0  0  0
  2  5  1  0  0  0  0
  2  3  2  0  0  0  0
  1  2  1  0  0  0  0
  2  4  2  0  0  0  0
M  END
> <Shapegauss>
-285.614807

$$$$
