MODEL 1
REMARK VINA RESULT:    -7.825      0.000      0.000
REMARK INTER + INTRA:         -10.206
REMARK INTER:                  -9.655
REMARK INTRA:                  -0.551
REMARK UNBOUND:                -0.551
REMARK  4 active torsions:
REMARK  status: ('A' for Active; 'I' for Inactive)
REMARK    1  A    between atoms: S_2  and  N_5 
REMARK    2  A    between atoms: N_5  and  C_7 
REMARK    3  A    between atoms: C_15  and  C_16 
REMARK       I    between atoms: C_16  and  N_18 
REMARK    4  A    between atoms: N_18  and  C_20 
ROOT
HETATM    1  C   UNL     1       8.547  -3.561  23.771  1.00  0.00     0.109 C 
HETATM    2  C   UNL     1       8.895  -2.424  23.325  1.00  0.00    -0.008 A 
HETATM    3  C   UNL     1       9.604  -1.413  23.364  1.00  0.00     0.057 A 
HETATM    4  C   UNL     1       9.791  -0.271  24.671  1.00  0.00    -0.007 C 
HETATM    5  C   UNL     1      10.650   0.221  24.845  1.00  0.00    -0.025 C 
HETATM    6  C   UNL     1      12.017   0.102  24.359  1.00  0.00     0.053 C 
HETATM    7  C   UNL     1      12.036  -0.994  23.388  1.00  0.00    -0.025 C 
HETATM    8  C   UNL     1      11.309  -1.604  23.002  1.00  0.00    -0.007 C 
HETATM    9  C   UNL     1       9.074  -0.940  22.393  1.00  0.00     0.040 A 
ENDROOT
BRANCH   9  10
HETATM   10  C   UNL     1       8.547  -0.346  21.320  1.00  0.00     0.254 C 
HETATM   11  O   UNL     1       9.246   0.348  20.727  1.00  0.00    -0.268 OA
HETATM   12  N   UNL     1       7.289  -0.684  21.148  1.00  0.00    -0.321 N 
ATOM     13  HN  UNL     1       6.835  -1.320  21.803  1.00  0.00     0.169 HD
BRANCH  12  14
HETATM   14  C   UNL     1       6.657  -0.226  20.181  1.00  0.00     0.056 A 
HETATM   15  C   UNL     1       6.352  -0.606  18.985  1.00  0.00     0.117 A 
HETATM   16  N   UNL     1       5.782  -0.400  17.867  1.00  0.00    -0.373 N 
HETATM   17  C   UNL     1       5.303   0.742  18.111  1.00  0.00     0.088 A 
ATOM     18  HN  UNL     1       5.728  -0.981  17.030  1.00  0.00     0.164 HD
HETATM   19  C   UNL     1       5.346   1.464  19.177  1.00  0.00     0.026 A 
HETATM   20  C   UNL     1       5.940   1.210  20.318  1.00  0.00    -0.033 A 
HETATM   21  C   UNL     1       6.032   2.035  21.591  1.00  0.00     0.050 C 
ENDBRANCH  12  14
ENDBRANCH   9  10
BRANCH   1  22
HETATM   22  N   UNL     1       7.726  -4.405  24.049  1.00  0.00    -0.295 N 
ATOM     23  HN  UNL     1       7.539  -5.126  23.351  1.00  0.00     0.177 HD
BRANCH  22  24
HETATM   24  S   UNL     1       6.903  -4.482  25.439  1.00  0.00     0.226 S 
HETATM   25  C   UNL     1       7.500  -3.075  26.381  1.00  0.00     0.186 C 
HETATM   26  O   UNL     1       5.479  -4.275  25.271  1.00  0.00    -0.206 OA
HETATM   27  O   UNL     1       7.166  -5.669  26.188  1.00  0.00    -0.206 OA
ENDBRANCH  22  24
ENDBRANCH   1  22
TORSDOF 4
ENDMDL
MODEL 2
REMARK VINA RESULT:    -7.744      1.756      2.042
REMARK INTER + INTRA:         -10.106
REMARK INTER:                  -9.269
REMARK INTRA:                  -0.837
REMARK UNBOUND:                -0.551
REMARK  4 active torsions:
REMARK  status: ('A' for Active; 'I' for Inactive)
REMARK    1  A    between atoms: S_2  and  N_5 
REMARK    2  A    between atoms: N_5  and  C_7 
REMARK    3  A    between atoms: C_15  and  C_16 
REMARK       I    between atoms: C_16  and  N_18 
REMARK    4  A    between atoms: N_18  and  C_20 
ROOT
HETATM    1  C   UNL     1       8.706  -2.779  25.755  1.00  0.00     0.109 C 
HETATM    2  C   UNL     1       8.928  -1.858  24.910  1.00  0.00    -0.008 A 
HETATM    3  C   UNL     1       9.662  -1.003  24.406  1.00  0.00     0.057 A 
HETATM    4  C   UNL     1      10.415   0.371  25.177  1.00  0.00    -0.007 C 
HETATM    5  C   UNL     1      11.305   0.737  24.887  1.00  0.00    -0.025 C 
HETATM    6  C   UNL     1      12.366   0.276  24.003  1.00  0.00     0.053 C 
HETATM    7  C   UNL     1      11.936  -1.007  23.445  1.00  0.00    -0.025 C 
HETATM    8  C   UNL     1      11.078  -1.560  23.533  1.00  0.00    -0.007 C 
HETATM    9  C   UNL     1       8.830  -0.693  23.593  1.00  0.00     0.040 A 
ENDROOT
BRANCH   9  10
HETATM   10  C   UNL     1       7.969  -0.293  22.655  1.00  0.00     0.254 C 
HETATM   11  O   UNL     1       7.200   0.500  22.974  1.00  0.00    -0.268 OA
HETATM   12  N   UNL     1       8.178  -0.907  21.512  1.00  0.00    -0.321 N 
ATOM     13  HN  UNL     1       8.920  -1.602  21.432  1.00  0.00     0.169 HD
BRANCH  12  14
HETATM   14  C   UNL     1       7.467  -0.635  20.531  1.00  0.00     0.056 A 
HETATM   15  C   UNL     1       7.508   0.181  19.530  1.00  0.00     0.117 A 
HETATM   16  N   UNL     1       7.002   0.658  18.466  1.00  0.00    -0.373 N 
HETATM   17  C   UNL     1       5.957  -0.049  18.425  1.00  0.00     0.088 A 
ATOM     18  HN  UNL     1       7.337   1.389  17.837  1.00  0.00     0.164 HD
HETATM   19  C   UNL     1       5.546  -0.991  19.201  1.00  0.00     0.026 A 
HETATM   20  C   UNL     1       6.106  -1.462  20.290  1.00  0.00    -0.033 A 
HETATM   21  C   UNL     1       5.652  -2.556  21.242  1.00  0.00     0.050 C 
ENDBRANCH  12  14
ENDBRANCH   9  10
BRANCH   1  22
HETATM   22  N   UNL     1       8.003  -3.382  26.534  1.00  0.00    -0.295 N 
ATOM     23  HN  UNL     1       7.494  -2.835  27.229  1.00  0.00     0.177 HD
BRANCH  22  24
HETATM   24  S   UNL     1       7.807  -4.988  26.562  1.00  0.00     0.226 S 
HETATM   25  C   UNL     1       6.294  -5.261  25.636  1.00  0.00     0.186 C 
HETATM   26  O   UNL     1       8.847  -5.701  25.847  1.00  0.00    -0.206 OA
HETATM   27  O   UNL     1       7.631  -5.514  27.877  1.00  0.00    -0.206 OA
ENDBRANCH  22  24
ENDBRANCH   1  22
TORSDOF 4
ENDMDL
MODEL 3
REMARK VINA RESULT:    -7.677      3.556      5.694
REMARK INTER + INTRA:         -10.023
REMARK INTER:                  -9.309
REMARK INTRA:                  -0.714
REMARK UNBOUND:                -0.551
REMARK  4 active torsions:
REMARK  status: ('A' for Active; 'I' for Inactive)
REMARK    1  A    between atoms: S_2  and  N_5 
REMARK    2  A    between atoms: N_5  and  C_7 
REMARK    3  A    between atoms: C_15  and  C_16 
REMARK       I    between atoms: C_16  and  N_18 
REMARK    4  A    between atoms: N_18  and  C_20 
ROOT
HETATM    1  C   UNL     1       7.158  -5.360  26.849  1.00  0.00     0.109 C 
HETATM    2  C   UNL     1       7.415  -4.514  25.939  1.00  0.00    -0.008 A 
HETATM    3  C   UNL     1       7.280  -4.082  24.790  1.00  0.00     0.057 A 
HETATM    4  C   UNL     1       7.626  -4.888  23.281  1.00  0.00    -0.007 C 
HETATM    5  C   UNL     1       7.106  -4.714  22.439  1.00  0.00    -0.025 C 
HETATM    6  C   UNL     1       5.867  -4.017  22.124  1.00  0.00     0.053 C 
HETATM    7  C   UNL     1       5.352  -3.464  23.378  1.00  0.00    -0.025 C 
HETATM    8  C   UNL     1       5.707  -3.452  24.339  1.00  0.00    -0.007 C 
HETATM    9  C   UNL     1       8.003  -3.143  25.002  1.00  0.00     0.040 A 
ENDROOT
BRANCH   9  10
HETATM   10  C   UNL     1       8.784  -2.071  25.154  1.00  0.00     0.254 C 
HETATM   11  O   UNL     1       8.737  -1.546  26.176  1.00  0.00    -0.268 OA
HETATM   12  N   UNL     1       9.478  -1.820  24.067  1.00  0.00    -0.321 N 
ATOM     13  HN  UNL     1       9.370  -2.409  23.242  1.00  0.00     0.169 HD
BRANCH  12  14
HETATM   14  C   UNL     1      10.266  -0.860  24.051  1.00  0.00     0.056 A 
HETATM   15  C   UNL     1      11.512  -0.655  24.320  1.00  0.00     0.117 A 
HETATM   16  N   UNL     1      12.518   0.119  24.398  1.00  0.00    -0.373 N 
HETATM   17  C   UNL     1      11.961   1.185  24.013  1.00  0.00     0.088 A 
ATOM     18  HN  UNL     1      13.480  -0.065  24.684  1.00  0.00     0.164 HD
HETATM   19  C   UNL     1      10.755   1.413  23.625  1.00  0.00     0.026 A 
HETATM   20  C   UNL     1       9.744   0.580  23.550  1.00  0.00    -0.033 A 
HETATM   21  C   UNL     1       8.306   0.807  23.116  1.00  0.00     0.050 C 
ENDBRANCH  12  14
ENDBRANCH   9  10
BRANCH   1  22
HETATM   22  N   UNL     1       7.460  -6.056  27.792  1.00  0.00    -0.295 N 
ATOM     23  HN  UNL     1       8.402  -6.447  27.804  1.00  0.00     0.177 HD
BRANCH  22  24
HETATM   24  S   UNL     1       6.487  -6.416  29.034  1.00  0.00     0.226 S 
HETATM   25  C   UNL     1       4.872  -6.624  28.279  1.00  0.00     0.186 C 
HETATM   26  O   UNL     1       6.803  -7.686  29.656  1.00  0.00    -0.206 OA
HETATM   27  O   UNL     1       6.400  -5.374  30.005  1.00  0.00    -0.206 OA
ENDBRANCH  22  24
ENDBRANCH   1  22
TORSDOF 4
ENDMDL
MODEL 4
REMARK VINA RESULT:    -7.469      3.254      6.302
REMARK INTER + INTRA:          -9.766
REMARK INTER:                  -8.903
REMARK INTRA:                  -0.863
REMARK UNBOUND:                -0.551
REMARK  4 active torsions:
REMARK  status: ('A' for Active; 'I' for Inactive)
REMARK    1  A    between atoms: S_2  and  N_5 
REMARK    2  A    between atoms: N_5  and  C_7 
REMARK    3  A    between atoms: C_15  and  C_16 
REMARK       I    between atoms: C_16  and  N_18 
REMARK    4  A    between atoms: N_18  and  C_20 
ROOT
HETATM    1  C   UNL     1       8.739   0.932  22.362  1.00  0.00     0.109 C 
HETATM    2  C   UNL     1       9.275   0.065  23.120  1.00  0.00    -0.008 A 
HETATM    3  C   UNL     1      10.267  -0.522  23.565  1.00  0.00     0.057 A 
HETATM    4  C   UNL     1      11.461  -1.448  22.691  1.00  0.00    -0.007 C 
HETATM    5  C   UNL     1      12.422  -1.503  22.976  1.00  0.00    -0.025 C 
HETATM    6  C   UNL     1      13.249  -0.792  23.941  1.00  0.00     0.053 C 
HETATM    7  C   UNL     1      12.389   0.188  24.607  1.00  0.00    -0.025 C 
HETATM    8  C   UNL     1      11.390   0.406  24.542  1.00  0.00    -0.007 C 
HETATM    9  C   UNL     1       9.600  -1.191  24.310  1.00  0.00     0.040 A 
ENDROOT
BRANCH   9  10
HETATM   10  C   UNL     1       8.938  -1.968  25.171  1.00  0.00     0.254 C 
HETATM   11  O   UNL     1       8.688  -1.500  26.191  1.00  0.00    -0.268 OA
HETATM   12  N   UNL     1       8.695  -3.155  24.664  1.00  0.00    -0.321 N 
ATOM     13  HN  UNL     1       9.015  -3.387  23.724  1.00  0.00     0.169 HD
BRANCH  12  14
HETATM   14  C   UNL     1       8.073  -3.994  25.337  1.00  0.00     0.056 A 
HETATM   15  C   UNL     1       8.346  -4.864  26.252  1.00  0.00     0.117 A 
HETATM   16  N   UNL     1       7.983  -5.775  27.060  1.00  0.00    -0.373 N 
HETATM   17  C   UNL     1       6.751  -5.787  26.785  1.00  0.00     0.088 A 
ATOM     18  HN  UNL     1       8.522  -6.328  27.728  1.00  0.00     0.164 HD
HETATM   19  C   UNL     1       6.065  -5.070  25.964  1.00  0.00     0.026 A 
HETATM   20  C   UNL     1       6.478  -4.128  25.150  1.00  0.00    -0.033 A 
HETATM   21  C   UNL     1       5.711  -3.272  24.157  1.00  0.00     0.050 C 
ENDBRANCH  12  14
ENDBRANCH   9  10
BRANCH   1  22
HETATM   22  N   UNL     1       7.868   1.324  21.621  1.00  0.00    -0.295 N 
ATOM     23  HN  UNL     1       7.945   1.080  20.633  1.00  0.00     0.177 HD
BRANCH  22  24
HETATM   24  S   UNL     1       6.589   2.207  22.072  1.00  0.00     0.226 S 
HETATM   25  C   UNL     1       7.275   3.830  22.414  1.00  0.00     0.186 C 
HETATM   26  O   UNL     1       5.624   2.398  21.008  1.00  0.00    -0.206 OA
HETATM   27  O   UNL     1       5.959   1.726  23.258  1.00  0.00    -0.206 OA
ENDBRANCH  22  24
ENDBRANCH   1  22
TORSDOF 4
ENDMDL
MODEL 5
REMARK VINA RESULT:    -7.297     14.406     15.881
REMARK INTER + INTRA:          -9.554
REMARK INTER:                  -8.762
REMARK INTRA:                  -0.792
REMARK UNBOUND:                -0.551
REMARK  4 active torsions:
REMARK  status: ('A' for Active; 'I' for Inactive)
REMARK    1  A    between atoms: S_2  and  N_5 
REMARK    2  A    between atoms: N_5  and  C_7 
REMARK    3  A    between atoms: C_15  and  C_16 
REMARK       I    between atoms: C_16  and  N_18 
REMARK    4  A    between atoms: N_18  and  C_20 
ROOT
HETATM    1  C   UNL     1      23.841  -4.127  24.416  1.00  0.00     0.109 C 
HETATM    2  C   UNL     1      23.560  -3.044  23.815  1.00  0.00    -0.008 A 
HETATM    3  C   UNL     1      23.042  -1.923  23.785  1.00  0.00     0.057 A 
HETATM    4  C   UNL     1      21.369  -1.494  24.042  1.00  0.00    -0.007 C 
HETATM    5  C   UNL     1      21.088  -0.621  24.450  1.00  0.00    -0.025 C 
HETATM    6  C   UNL     1      21.779   0.458  25.142  1.00  0.00     0.053 C 
HETATM    7  C   UNL     1      23.199   0.105  25.183  1.00  0.00    -0.025 C 
HETATM    8  C   UNL     1      23.740  -0.678  24.805  1.00  0.00    -0.007 C 
HETATM    9  C   UNL     1      23.415  -1.724  22.658  1.00  0.00     0.040 A 
ENDROOT
BRANCH   9  10
HETATM   10  C   UNL     1      23.795  -1.419  21.415  1.00  0.00     0.254 C 
HETATM   11  O   UNL     1      24.774  -0.824  21.313  1.00  0.00    -0.268 OA
HETATM   12  N   UNL     1      22.945  -1.874  20.524  1.00  0.00    -0.321 N 
ATOM     13  HN  UNL     1      22.111  -2.380  20.821  1.00  0.00     0.169 HD
BRANCH  12  14
HETATM   14  C   UNL     1      23.163  -1.684  19.315  1.00  0.00     0.056 A 
HETATM   15  C   UNL     1      22.887  -0.780  18.435  1.00  0.00     0.117 A 
HETATM   16  N   UNL     1      22.954  -0.330  17.248  1.00  0.00    -0.373 N 
HETATM   17  C   UNL     1      23.628  -1.265  16.734  1.00  0.00     0.088 A 
ATOM     18  HN  UNL     1      22.579   0.526  16.837  1.00  0.00     0.164 HD
HETATM   19  C   UNL     1      24.126  -2.331  17.257  1.00  0.00     0.026 A 
HETATM   20  C   UNL     1      24.041  -2.756  18.495  1.00  0.00    -0.033 A 
HETATM   21  C   UNL     1      24.597  -4.010  19.151  1.00  0.00     0.050 C 
ENDBRANCH  12  14
ENDBRANCH   9  10
BRANCH   1  22
HETATM   22  N   UNL     1      23.993  -5.326  24.462  1.00  0.00    -0.295 N 
ATOM     23  HN  UNL     1      23.835  -5.854  23.604  1.00  0.00     0.177 HD
BRANCH  22  24
HETATM   24  S   UNL     1      24.426  -6.159  25.780  1.00  0.00     0.226 S 
HETATM   25  C   UNL     1      26.220  -6.106  25.762  1.00  0.00     0.186 C 
HETATM   26  O   UNL     1      24.020  -5.522  27.017  1.00  0.00    -0.206 OA
HETATM   27  O   UNL     1      24.016  -7.526  25.746  1.00  0.00    -0.206 OA
ENDBRANCH  22  24
ENDBRANCH   1  22
TORSDOF 4
ENDMDL
MODEL 6
REMARK VINA RESULT:    -7.179      2.832      6.140
REMARK INTER + INTRA:          -9.408
REMARK INTER:                  -8.516
REMARK INTRA:                  -0.892
REMARK UNBOUND:                -0.551
REMARK  4 active torsions:
REMARK  status: ('A' for Active; 'I' for Inactive)
REMARK    1  A    between atoms: S_2  and  N_5 
REMARK    2  A    between atoms: N_5  and  C_7 
REMARK    3  A    between atoms: C_15  and  C_16 
REMARK       I    between atoms: C_16  and  N_18 
REMARK    4  A    between atoms: N_18  and  C_20 
ROOT
HETATM    1  C   UNL     1       9.440   0.364  21.444  1.00  0.00     0.109 C 
HETATM    2  C   UNL     1       8.247  -0.015  21.231  1.00  0.00    -0.008 A 
HETATM    3  C   UNL     1       7.136   0.137  20.713  1.00  0.00     0.057 A 
HETATM    4  C   UNL     1       6.024   1.469  20.907  1.00  0.00    -0.007 C 
HETATM    5  C   UNL     1       5.405   1.771  20.176  1.00  0.00    -0.025 C 
HETATM    6  C   UNL     1       5.281   1.487  18.753  1.00  0.00     0.053 C 
HETATM    7  C   UNL     1       6.325   0.518  18.413  1.00  0.00    -0.025 C 
HETATM    8  C   UNL     1       7.033   0.024  18.966  1.00  0.00    -0.007 C 
HETATM    9  C   UNL     1       6.724  -0.896  21.172  1.00  0.00     0.040 A 
ENDROOT
BRANCH   9  10
HETATM   10  C   UNL     1       6.188  -2.029  21.633  1.00  0.00     0.254 C 
HETATM   11  O   UNL     1       5.792  -2.764  20.843  1.00  0.00    -0.268 OA
HETATM   12  N   UNL     1       6.220  -2.081  22.945  1.00  0.00    -0.321 N 
ATOM     13  HN  UNL     1       6.612  -1.305  23.480  1.00  0.00     0.169 HD
BRANCH  12  14
HETATM   14  C   UNL     1       5.771  -3.080  23.531  1.00  0.00     0.056 A 
HETATM   15  C   UNL     1       4.609  -3.550  23.844  1.00  0.00     0.117 A 
HETATM   16  N   UNL     1       3.882  -4.445  24.379  1.00  0.00    -0.373 N 
HETATM   17  C   UNL     1       4.799  -5.215  24.777  1.00  0.00     0.088 A 
ATOM     18  HN  UNL     1       2.868  -4.518  24.461  1.00  0.00     0.164 HD
HETATM   19  C   UNL     1       6.078  -5.139  24.649  1.00  0.00     0.026 A 
HETATM   20  C   UNL     1       6.793  -4.198  24.078  1.00  0.00    -0.033 A 
HETATM   21  C   UNL     1       8.298  -4.058  23.919  1.00  0.00     0.050 C 
ENDBRANCH  12  14
ENDBRANCH   9  10
BRANCH   1  22
HETATM   22  N   UNL     1      10.417   0.511  22.143  1.00  0.00    -0.295 N 
ATOM     23  HN  UNL     1      10.920   1.395  22.068  1.00  0.00     0.177 HD
BRANCH  22  24
HETATM   24  S   UNL     1      10.988  -0.586  23.187  1.00  0.00     0.226 S 
HETATM   25  C   UNL     1       9.824  -0.540  24.552  1.00  0.00     0.186 C 
HETATM   26  O   UNL     1      10.946  -1.939  22.671  1.00  0.00    -0.206 OA
HETATM   27  O   UNL     1      12.285  -0.266  23.690  1.00  0.00    -0.206 OA
ENDBRANCH  22  24
ENDBRANCH   1  22
TORSDOF 4
ENDMDL
MODEL 7
REMARK VINA RESULT:    -6.914      3.227      5.144
REMARK INTER + INTRA:          -9.082
REMARK INTER:                  -8.313
REMARK INTRA:                  -0.769
REMARK UNBOUND:                -0.551
REMARK  4 active torsions:
REMARK  status: ('A' for Active; 'I' for Inactive)
REMARK    1  A    between atoms: S_2  and  N_5 
REMARK    2  A    between atoms: N_5  and  C_7 
REMARK    3  A    between atoms: C_15  and  C_16 
REMARK       I    between atoms: C_16  and  N_18 
REMARK    4  A    between atoms: N_18  and  C_20 
ROOT
HETATM    1  C   UNL     1       6.538  -4.285  26.100  1.00  0.00     0.109 C 
HETATM    2  C   UNL     1       7.030  -3.978  24.971  1.00  0.00    -0.008 A 
HETATM    3  C   UNL     1       7.099  -4.110  23.745  1.00  0.00     0.057 A 
HETATM    4  C   UNL     1       7.482  -5.547  22.830  1.00  0.00    -0.007 C 
HETATM    5  C   UNL     1       7.096  -5.732  21.921  1.00  0.00    -0.025 C 
HETATM    6  C   UNL     1       6.029  -5.148  21.120  1.00  0.00     0.053 C 
HETATM    7  C   UNL     1       5.469  -4.037  21.892  1.00  0.00    -0.025 C 
HETATM    8  C   UNL     1       5.708  -3.618  22.796  1.00  0.00    -0.007 C 
HETATM    9  C   UNL     1       7.933  -3.249  23.646  1.00  0.00     0.040 A 
ENDROOT
BRANCH   9  10
HETATM   10  C   UNL     1       8.853  -2.303  23.445  1.00  0.00     0.254 C 
HETATM   11  O   UNL     1       9.932  -2.668  23.286  1.00  0.00    -0.268 OA
HETATM   12  N   UNL     1       8.326  -1.100  23.469  1.00  0.00    -0.321 N 
ATOM     13  HN  UNL     1       7.327  -0.982  23.639  1.00  0.00     0.169 HD
BRANCH  12  14
HETATM   14  C   UNL     1       9.051  -0.109  23.284  1.00  0.00     0.056 A 
HETATM   15  C   UNL     1       9.384   0.647  22.290  1.00  0.00     0.117 A 
HETATM   16  N   UNL     1      10.027   1.635  21.815  1.00  0.00    -0.373 N 
HETATM   17  C   UNL     1      10.593   2.016  22.878  1.00  0.00     0.088 A 
ATOM     18  HN  UNL     1      10.072   2.006  20.866  1.00  0.00     0.164 HD
HETATM   19  C   UNL     1      10.514   1.566  24.082  1.00  0.00     0.026 A 
HETATM   20  C   UNL     1       9.827   0.545  24.535  1.00  0.00    -0.033 A 
HETATM   21  C   UNL     1       9.718  -0.030  25.937  1.00  0.00     0.050 C 
ENDBRANCH  12  14
ENDBRANCH   9  10
BRANCH   1  22
HETATM   22  N   UNL     1       6.615  -4.495  27.289  1.00  0.00    -0.295 N 
ATOM     23  HN  UNL     1       6.993  -3.751  27.875  1.00  0.00     0.177 HD
BRANCH  22  24
HETATM   24  S   UNL     1       6.164  -5.865  28.023  1.00  0.00     0.226 S 
HETATM   25  C   UNL     1       4.837  -5.358  29.120  1.00  0.00     0.186 C 
HETATM   26  O   UNL     1       5.584  -6.834  27.116  1.00  0.00    -0.206 OA
HETATM   27  O   UNL     1       7.199  -6.452  28.811  1.00  0.00    -0.206 OA
ENDBRANCH  22  24
ENDBRANCH   1  22
TORSDOF 4
ENDMDL
MODEL 8
REMARK VINA RESULT:    -6.759     23.600     27.182
REMARK INTER + INTRA:          -8.890
REMARK INTER:                  -8.121
REMARK INTRA:                  -0.769
REMARK UNBOUND:                -0.551
REMARK  4 active torsions:
REMARK  status: ('A' for Active; 'I' for Inactive)
REMARK    1  A    between atoms: S_2  and  N_5 
REMARK    2  A    between atoms: N_5  and  C_7 
REMARK    3  A    between atoms: C_15  and  C_16 
REMARK       I    between atoms: C_16  and  N_18 
REMARK    4  A    between atoms: N_18  and  C_20 
ROOT
HETATM    1  C   UNL     1       8.631  14.622   2.515  1.00  0.00     0.109 C 
HETATM    2  C   UNL     1       8.862  15.869   2.564  1.00  0.00    -0.008 A 
HETATM    3  C   UNL     1       8.830  16.999   2.067  1.00  0.00     0.057 A 
HETATM    4  C   UNL     1       9.559  17.549   0.579  1.00  0.00    -0.007 C 
HETATM    5  C   UNL     1       9.155  18.272   0.009  1.00  0.00    -0.025 C 
HETATM    6  C   UNL     1       7.871  18.958  -0.020  1.00  0.00     0.053 C 
HETATM    7  C   UNL     1       7.067  18.417   1.078  1.00  0.00    -0.025 C 
HETATM    8  C   UNL     1       7.256  17.732   1.816  1.00  0.00    -0.007 C 
HETATM    9  C   UNL     1       9.315  17.501   3.047  1.00  0.00     0.040 A 
ENDROOT
BRANCH   9  10
HETATM   10  C   UNL     1       9.842  18.140   4.094  1.00  0.00     0.254 C 
HETATM   11  O   UNL     1       9.178  18.217   5.030  1.00  0.00    -0.268 OA
HETATM   12  N   UNL     1      11.057  18.569   3.839  1.00  0.00    -0.321 N 
ATOM     13  HN  UNL     1      11.476  18.407   2.924  1.00  0.00     0.169 HD
BRANCH  12  14
HETATM   14  C   UNL     1      11.691  19.173   4.719  1.00  0.00     0.056 A 
HETATM   15  C   UNL     1      12.369  18.867   5.776  1.00  0.00     0.117 A 
HETATM   16  N   UNL     1      13.068  19.205   6.782  1.00  0.00    -0.373 N 
HETATM   17  C   UNL     1      13.057  20.455   6.604  1.00  0.00     0.088 A 
ATOM     18  HN  UNL     1      13.506  18.640   7.510  1.00  0.00     0.164 HD
HETATM   19  C   UNL     1      12.530  21.168   5.670  1.00  0.00     0.026 A 
HETATM   20  C   UNL     1      11.820  20.777   4.638  1.00  0.00    -0.033 A 
HETATM   21  C   UNL     1      11.167  21.580   3.525  1.00  0.00     0.050 C 
ENDBRANCH  12  14
ENDBRANCH   9  10
BRANCH   1  22
HETATM   22  N   UNL     1       8.908  13.464   2.731  1.00  0.00    -0.295 N 
ATOM     23  HN  UNL     1       9.825  13.136   2.428  1.00  0.00     0.177 HD
BRANCH  22  24
HETATM   24  S   UNL     1       7.938  12.395   3.462  1.00  0.00     0.226 S 
HETATM   25  C   UNL     1       6.846  13.408   4.464  1.00  0.00     0.186 C 
HETATM   26  O   UNL     1       7.082  11.678   2.539  1.00  0.00    -0.206 OA
HETATM   27  O   UNL     1       8.635  11.496   4.324  1.00  0.00    -0.206 OA
ENDBRANCH  22  24
ENDBRANCH   1  22
TORSDOF 4
ENDMDL
MODEL 9
REMARK VINA RESULT:    -6.669      3.046      3.899
REMARK INTER + INTRA:          -8.780
REMARK INTER:                  -8.071
REMARK INTRA:                  -0.709
REMARK UNBOUND:                -0.551
REMARK  4 active torsions:
REMARK  status: ('A' for Active; 'I' for Inactive)
REMARK    1  A    between atoms: S_2  and  N_5 
REMARK    2  A    between atoms: N_5  and  C_7 
REMARK    3  A    between atoms: C_15  and  C_16 
REMARK       I    between atoms: C_16  and  N_18 
REMARK    4  A    between atoms: N_18  and  C_20 
ROOT
HETATM    1  C   UNL     1       6.908  -1.783  23.138  1.00  0.00     0.109 C 
HETATM    2  C   UNL     1       7.798  -0.881  23.059  1.00  0.00    -0.008 A 
HETATM    3  C   UNL     1       8.956  -0.482  23.217  1.00  0.00     0.057 A 
HETATM    4  C   UNL     1       9.881  -0.399  24.696  1.00  0.00    -0.007 C 
HETATM    5  C   UNL     1      10.878  -0.516  24.721  1.00  0.00    -0.025 C 
HETATM    6  C   UNL     1      11.883  -0.971  23.770  1.00  0.00     0.053 C 
HETATM    7  C   UNL     1      11.184  -1.285  22.522  1.00  0.00    -0.025 C 
HETATM    8  C   UNL     1      10.207  -1.206  22.223  1.00  0.00    -0.007 C 
HETATM    9  C   UNL     1       8.702   0.600  22.755  1.00  0.00     0.040 A 
ENDROOT
BRANCH   9  10
HETATM   10  C   UNL     1       8.510   1.821  22.251  1.00  0.00     0.254 C 
HETATM   11  O   UNL     1       8.735   1.950  21.131  1.00  0.00    -0.268 OA
HETATM   12  N   UNL     1       8.086   2.662  23.166  1.00  0.00    -0.321 N 
ATOM     13  HN  UNL     1       7.954   2.350  24.128  1.00  0.00     0.169 HD
BRANCH  12  14
HETATM   14  C   UNL     1       7.845   3.840  22.853  1.00  0.00     0.056 A 
HETATM   15  C   UNL     1       6.943   4.474  22.180  1.00  0.00     0.117 A 
HETATM   16  N   UNL     1       6.456   5.556  21.722  1.00  0.00    -0.373 N 
HETATM   17  C   UNL     1       7.318   6.356  22.182  1.00  0.00     0.088 A 
ATOM     18  HN  UNL     1       5.624   5.725  21.157  1.00  0.00     0.164 HD
HETATM   19  C   UNL     1       8.353   6.147  22.919  1.00  0.00     0.026 A 
HETATM   20  C   UNL     1       8.818   5.010  23.381  1.00  0.00    -0.033 A 
HETATM   21  C   UNL     1      10.038   4.715  24.237  1.00  0.00     0.050 C 
ENDBRANCH  12  14
ENDBRANCH   9  10
BRANCH   1  22
HETATM   22  N   UNL     1       5.783  -2.172  23.352  1.00  0.00    -0.295 N 
ATOM     23  HN  UNL     1       5.060  -1.467  23.492  1.00  0.00     0.177 HD
BRANCH  22  24
HETATM   24  S   UNL     1       5.334  -3.725  23.433  1.00  0.00     0.226 S 
HETATM   25  C   UNL     1       3.971  -3.727  24.600  1.00  0.00     0.186 C 
HETATM   26  O   UNL     1       4.794  -4.228  22.187  1.00  0.00    -0.206 OA
HETATM   27  O   UNL     1       6.358  -4.584  23.936  1.00  0.00    -0.206 OA
ENDBRANCH  22  24
ENDBRANCH   1  22
TORSDOF 4
ENDMDL
