stable:False satoms:5 tatoms:24 sratio:0.20833333333333334
  -OEChem-07092417463D

 24 26  0     1  0  0  0  0  0999 V2000
    6.6069   -4.8649   26.4214 C   0  0  0  0  0  0  0  0  0  0  0  0
    8.2257   -4.2941   26.1041 S   0  0  0  0  0  0  0  0  0  0  0  0
    9.0828   -5.4664   26.0316 O   0  0  0  0  0  0  0  0  0  0  0  0
    8.5794   -3.4183   27.1505 O   0  0  0  0  0  0  0  0  0  0  0  0
    8.1387   -3.5908   24.6482 N   0  0  0  0  0  0  0  0  0  0  0  0
    8.9356   -2.9106   24.1420 C   0  0  0  0  0  0  0  0  0  0  0  0
    9.4151   -2.0074   23.5090 C   0  0  0  0  0  0  0  0  0  0  0  0
   10.3168   -1.1294   23.2007 C   0  0  1  0  0  0  0  0  0  0  0  0
   11.0062    0.0215   24.2734 C   0  0  0  0  0  0  0  0  0  0  0  0
   12.0145    0.2480   24.2273 C   0  0  0  0  0  0  0  0  0  0  0  0
   13.1158   -0.2277   23.5010 C   0  0  0  0  0  0  0  0  0  0  0  0
   12.7395   -1.2930   22.7308 C   0  0  0  0  0  0  0  0  0  0  0  0
   11.8150   -1.7715   22.5340 C   0  0  0  0  0  0  0  0  0  0  0  0
    9.6998   -0.6607   22.3349 C   0  0  2  0  0  0  0  0  0  0  0  0
    9.0623    0.0507   21.3500 C   0  0  0  0  0  0  0  0  0  0  0  0
    9.5377    1.0263   20.9632 O   0  0  0  0  0  0  0  0  0  0  0  0
    7.9191   -0.5698   21.0547 N   0  0  0  0  0  0  0  0  0  0  0  0
    7.2359   -0.0607   20.1627 C   0  0  0  0  0  0  0  0  0  0  0  0
    7.2606    0.0723   18.8513 C   0  0  0  0  0  0  0  0  0  0  0  0
    6.7544    0.3853   17.7889 N   0  0  0  0  0  0  0  0  0  0  0  0
    5.6897    0.8689   18.2765 C   0  0  0  0  0  0  0  0  0  0  0  0
    5.2759    0.9723   19.4111 C   0  0  0  0  0  0  0  0  0  0  0  0
    5.8155    0.6102   20.5348 C   0  0  0  0  0  0  0  0  0  0  0  0
    5.3409    0.7198   22.0944 Br  0  0  0  0  0  0  0  0  0  0  0  0
 20 21  2  0  0  0  0
 19 20  1  0  0  0  0
 21 22  1  0  0  0  0
 18 19  2  0  0  0  0
 22 23  2  0  0  0  0
 18 23  1  0  0  0  0
 17 18  1  0  0  0  0
 23 24  1  0  0  0  0
 15 16  2  0  0  0  0
 15 17  1  0  0  0  0
 14 15  1  0  0  0  0
  8 14  1  0  0  0  0
  7 14  1  0  0  0  0
 12 13  1  0  0  0  0
  8 13  1  0  0  0  0
 11 12  2  0  0  0  0
  7  8  1  0  0  0  0
  8  9  1  0  0  0  0
 10 11  1  0  0  0  0
  6  7  2  0  0  0  0
  5  6  1  0  0  0  0
  9 10  2  0  0  0  0
  2  5  1  0  0  0  0
  2  3  2  0  0  0  0
  1  2  1  0  0  0  0
  2  4  2  0  0  0  0
M  END
> <Shapegauss>
-287.542236

$$$$
