stable:False satoms:5 tatoms:24 sratio:0.20833333333333334
  -OEChem-08062413433D

 40 42  0     1  0  0  0  0  0999 V2000
    6.2674   -5.1769   25.9063 C   0  0  0  0  0  0  0  0  0  0  0  0
    7.9152   -4.6143   25.7822 S   0  0  0  0  0  0  0  0  0  0  0  0
    8.7640   -5.7938   25.7315 O   0  0  0  0  0  0  0  0  0  0  0  0
    8.1712   -3.8005   26.9044 O   0  0  0  0  0  0  0  0  0  0  0  0
    7.9804   -3.8337   24.3651 N   0  0  0  0  0  0  0  0  0  0  0  0
    8.8302   -3.1396   23.9778 C   0  0  0  0  0  0  0  0  0  0  0  0
    9.3791   -2.2114   23.4453 C   0  0  0  0  0  0  0  0  0  0  0  0
   10.3153   -1.3318   23.2757 C   0  0  1  0  0  0  0  0  0  0  0  0
   10.9054   -0.2498   24.4722 C   0  0  0  0  0  0  0  0  0  0  0  0
   11.9154   -0.0362   24.5384 C   0  0  0  0  0  0  0  0  0  0  0  0
   13.0790   -0.4891   23.9000 C   0  0  0  0  0  0  0  0  0  0  0  0
   12.7711   -1.5064   23.0398 C   0  0  0  0  0  0  0  0  0  0  0  0
   11.8663   -1.9600   22.7268 C   0  0  0  0  0  0  0  0  0  0  0  0
    9.7922   -0.8088   22.3798 C   0  0  2  0  0  0  0  0  0  0  0  0
    9.2628   -0.0368   21.3766 C   0  0  0  0  0  0  0  0  0  0  0  0
    9.7837    0.9507   21.0922 O   0  0  0  0  0  0  0  0  0  0  0  0
    8.1489   -0.6237   20.9365 N   0  0  0  0  0  0  0  0  0  0  0  0
    7.5628   -0.0579   20.0101 C   0  0  0  0  0  0  0  0  0  0  0  0
    7.7194    0.1440   18.7167 C   0  0  0  0  0  0  0  0  0  0  0  0
    7.3245    0.5203   17.6280 N   0  0  0  0  0  0  0  0  0  0  0  0
    6.2212    0.9932   18.0333 C   0  0  0  0  0  0  0  0  0  0  0  0
    5.6975    1.0425   19.1253 C   0  0  0  0  0  0  0  0  0  0  0  0
    6.1189    0.6134   20.2756 C   0  0  0  0  0  0  0  0  0  0  0  0
    5.4924    0.6474   21.7842 Br  0  0  0  0  0  0  0  0  0  0  0  0
    6.1364   -5.7240   26.8516 H   0  0  0  0  0  0  0  0  0  0  0  0
    5.5834   -4.3158   25.8834 H   0  0  0  0  0  0  0  0  0  0  0  0
    6.0438   -5.8454   25.0619 H   0  0  0  0  0  0  0  0  0  0  0  0
    7.1583   -3.2646   24.3488 H   0  0  0  0  0  0  0  0  0  0  0  0
    9.6921   -3.6909   24.3239 H   0  0  0  0  0  0  0  0  0  0  0  0
   10.2150    0.2123   25.1622 H   0  0  0  0  0  0  0  0  0  0  0  0
   12.1249    0.7202   25.2803 H   0  0  0  0  0  0  0  0  0  0  0  0
   14.0705   -0.0934   24.0634 H   0  0  0  0  0  0  0  0  0  0  0  0
   13.6432   -1.9444   22.5770 H   0  0  0  0  0  0  0  0  0  0  0  0
   11.8541   -1.9135   21.6279 H   0  0  0  0  0  0  0  0  0  0  0  0
   11.9126   -3.0108   23.0489 H   0  0  0  0  0  0  0  0  0  0  0  0
   10.2846   -1.4728   21.6541 H   0  0  0  0  0  0  0  0  0  0  0  0
    7.8078   -1.4749   21.3352 H   0  0  0  0  0  0  0  0  0  0  0  0
    8.7210   -0.2087   18.5201 H   0  0  0  0  0  0  0  0  0  0  0  0
    5.6293    1.4420   17.2493 H   0  0  0  0  0  0  0  0  0  0  0  0
    4.7280    1.5181   19.1442 H   0  0  0  0  0  0  0  0  0  0  0  0
 20 21  2  0  0  0  0
 19 20  1  0  0  0  0
 21 22  1  0  0  0  0
 18 19  2  0  0  0  0
 22 23  2  0  0  0  0
 18 23  1  0  0  0  0
 17 18  1  0  0  0  0
 23 24  1  0  0  0  0
 15 16  2  0  0  0  0
 15 17  1  0  0  0  0
 14 15  1  0  0  0  0
  8 14  1  0  0  0  0
  7 14  1  0  0  0  0
 12 13  1  0  0  0  0
  8 13  1  0  0  0  0
 11 12  2  0  0  0  0
  7  8  1  0  0  0  0
  8  9  1  0  0  0  0
 10 11  1  0  0  0  0
  6  7  2  0  0  0  0
  5  6  1  0  0  0  0
  9 10  2  0  0  0  0
  2  5  1  0  0  0  0
  2  3  2  0  0  0  0
  1  2  1  0  0  0  0
  2  4  2  0  0  0  0
  1 25  1  0  0  0  0
  1 26  1  0  0  0  0
  1 27  1  0  0  0  0
  5 28  1  0  0  0  0
  6 29  1  0  0  0  0
  9 30  1  0  0  0  0
 10 31  1  0  0  0  0
 11 32  1  0  0  0  0
 12 33  1  0  0  0  0
 13 34  1  0  0  0  0
 13 35  1  0  0  0  0
 14 36  1  0  0  0  0
 17 37  1  0  0  0  0
 19 38  1  0  0  0  0
 21 39  1  0  0  0  0
 22 40  1  0  0  0  0
M  END
> <Chemgauss4>
-13.267629

$$$$
