stable:False satoms:5 tatoms:24 sratio:0.20833333333333334
  -OEChem-08062413433D

 40 42  0     1  0  0  0  0  0999 V2000
   -5.9420   -5.3508  -25.9183 C   0  0  0  0  0  0  0  0  0  0  0  0
   -7.5898   -4.7882  -25.7941 S   0  0  0  0  0  0  0  0  0  0  0  0
   -8.4386   -5.9677  -25.7434 O   0  0  0  0  0  0  0  0  0  0  0  0
   -7.8458   -3.9744  -26.9163 O   0  0  0  0  0  0  0  0  0  0  0  0
   -7.6550   -4.0076  -24.3770 N   0  0  0  0  0  0  0  0  0  0  0  0
   -8.5048   -3.3135  -23.9898 C   0  0  0  0  0  0  0  0  0  0  0  0
   -9.0537   -2.3853  -23.4572 C   0  0  0  0  0  0  0  0  0  0  0  0
   -9.9900   -1.5057  -23.2877 C   0  0  1  0  0  0  0  0  0  0  0  0
  -10.5800   -0.4237  -24.4841 C   0  0  0  0  0  0  0  0  0  0  0  0
  -11.5900   -0.2101  -24.5504 C   0  0  0  0  0  0  0  0  0  0  0  0
  -12.7536   -0.6630  -23.9120 C   0  0  0  0  0  0  0  0  0  0  0  0
  -12.4457   -1.6803  -23.0517 C   0  0  0  0  0  0  0  0  0  0  0  0
  -11.5409   -2.1339  -22.7387 C   0  0  0  0  0  0  0  0  0  0  0  0
   -9.4668   -0.9827  -22.3917 C   0  0  2  0  0  0  0  0  0  0  0  0
   -8.9375   -0.2107  -21.3886 C   0  0  0  0  0  0  0  0  0  0  0  0
   -9.4583    0.7768  -21.1042 O   0  0  0  0  0  0  0  0  0  0  0  0
   -7.8235   -0.7976  -20.9484 N   0  0  0  0  0  0  0  0  0  0  0  0
   -7.2375   -0.2318  -20.0221 C   0  0  0  0  0  0  0  0  0  0  0  0
   -7.3940   -0.0299  -18.7287 C   0  0  0  0  0  0  0  0  0  0  0  0
   -6.9991    0.3464  -17.6399 N   0  0  0  0  0  0  0  0  0  0  0  0
   -5.8958    0.8193  -18.0452 C   0  0  0  0  0  0  0  0  0  0  0  0
   -5.3721    0.8687  -19.1372 C   0  0  0  0  0  0  0  0  0  0  0  0
   -5.7935    0.4396  -20.2875 C   0  0  0  0  0  0  0  0  0  0  0  0
   -5.1670    0.4735  -21.7961 Br  0  0  0  0  0  0  0  0  0  0  0  0
   -5.8110   -5.8978  -26.8636 H   0  0  0  0  0  0  0  0  0  0  0  0
   -5.2580   -4.4897  -25.8953 H   0  0  0  0  0  0  0  0  0  0  0  0
   -5.7184   -6.0193  -25.0738 H   0  0  0  0  0  0  0  0  0  0  0  0
   -6.8329   -3.4384  -24.3607 H   0  0  0  0  0  0  0  0  0  0  0  0
   -9.3667   -3.8648  -24.3358 H   0  0  0  0  0  0  0  0  0  0  0  0
   -9.8896    0.0384  -25.1742 H   0  0  0  0  0  0  0  0  0  0  0  0
  -11.7995    0.5463  -25.2923 H   0  0  0  0  0  0  0  0  0  0  0  0
  -13.7451   -0.2673  -24.0754 H   0  0  0  0  0  0  0  0  0  0  0  0
  -13.3178   -2.1183  -22.5890 H   0  0  0  0  0  0  0  0  0  0  0  0
  -11.5287   -2.0874  -21.6398 H   0  0  0  0  0  0  0  0  0  0  0  0
  -11.5872   -3.1847  -23.0608 H   0  0  0  0  0  0  0  0  0  0  0  0
   -9.9592   -1.6467  -21.6661 H   0  0  0  0  0  0  0  0  0  0  0  0
   -7.4824   -1.6488  -21.3472 H   0  0  0  0  0  0  0  0  0  0  0  0
   -8.3956   -0.3825  -18.5320 H   0  0  0  0  0  0  0  0  0  0  0  0
   -5.3039    1.2681  -17.2613 H   0  0  0  0  0  0  0  0  0  0  0  0
   -4.4026    1.3443  -19.1561 H   0  0  0  0  0  0  0  0  0  0  0  0
 20 21  2  0  0  0  0
 19 20  1  0  0  0  0
 21 22  1  0  0  0  0
 18 19  2  0  0  0  0
 22 23  2  0  0  0  0
 18 23  1  0  0  0  0
 17 18  1  0  0  0  0
 23 24  1  0  0  0  0
 15 16  2  0  0  0  0
 15 17  1  0  0  0  0
 14 15  1  0  0  0  0
  8 14  1  0  0  0  0
  7 14  1  0  0  0  0
 12 13  1  0  0  0  0
  8 13  1  0  0  0  0
 11 12  2  0  0  0  0
  7  8  1  0  0  0  0
  8  9  1  0  0  0  0
 10 11  1  0  0  0  0
  6  7  2  0  0  0  0
  5  6  1  0  0  0  0
  9 10  2  0  0  0  0
  2  5  1  0  0  0  0
  2  3  2  0  0  0  0
  1  2  1  0  0  0  0
  2  4  2  0  0  0  0
  1 25  1  0  0  0  0
  1 26  1  0  0  0  0
  1 27  1  0  0  0  0
  5 28  1  0  0  0  0
  6 29  1  0  0  0  0
  9 30  1  0  0  0  0
 10 31  1  0  0  0  0
 11 32  1  0  0  0  0
 12 33  1  0  0  0  0
 13 34  1  0  0  0  0
 13 35  1  0  0  0  0
 14 36  1  0  0  0  0
 17 37  1  0  0  0  0
 19 38  1  0  0  0  0
 21 39  1  0  0  0  0
 22 40  1  0  0  0  0
M  END
> <Chemgauss4>
-12.790371

$$$$
