FMN(A-152)
  -OEChem-07232419373D

 51 53  0     1  0  0  0  0  0999 V2000
   55.7470   19.3437   18.9302 P   0  0  0  0  0  0  0  0  0  0  0  0
   51.8537   11.9826   21.4859 N   0  0  0  0  0  0  0  0  0  0  0  0
   50.7676   11.2628   21.0117 C   0  0  0  0  0  0  0  0  0  0  0  0
   50.9744   10.6076   19.8466 O   0  0  0  0  0  0  0  0  0  0  0  0
   49.5587   11.1773   21.6564 N   0  0  0  0  0  0  0  0  0  0  0  0
   49.3819   11.8345   22.8728 C   0  0  0  0  0  0  0  0  0  0  0  0
   48.2019   11.7920   23.5665 O   0  0  0  0  0  0  0  0  0  0  0  0
   50.2801   13.2640   24.5964 N   0  0  0  0  0  0  0  0  0  0  0  0
   51.2679   14.3602   26.5201 C   0  0  0  0  0  0  0  0  0  0  0  0
   52.4274   14.8828   27.1228 C   0  0  0  0  0  0  0  0  0  0  0  0
   53.6377   14.9247   26.4192 C   0  0  0  0  0  0  0  0  0  0  0  0
   53.7359   14.4272   25.0903 C   0  0  0  0  0  0  0  0  0  0  0  0
   53.9062   13.3796   22.3998 C   0  0  0  0  0  0  0  0  0  0  0  0
   51.6444   12.6960   22.6493 C   0  0  0  0  0  0  0  0  0  0  0  0
   52.7272   13.3958   23.1570 N   0  3  0  0  0  0  0  0  0  0  0  0
   54.6153   20.1835   19.8287 O   0  5  0  0  0  0  0  0  0  0  0  0
   54.1320   14.7214   21.7048 C   0  0  2  0  0  0  0  0  0  0  0  0
   53.0522   14.9294   20.7616 O   0  0  0  0  0  0  0  0  0  0  0  0
   55.5361   19.8519   17.3120 O   0  5  0  0  0  0  0  0  0  0  0  0
   55.5120   14.6418   21.0123 C   0  0  2  0  0  0  0  0  0  0  0  0
   56.5595   14.8348   21.9951 O   0  0  0  0  0  0  0  0  0  0  0  0
   57.2767   19.7459   19.3895 O   0  0  0  0  0  0  0  0  0  0  0  0
   55.7066   15.5858   19.8675 C   0  0  2  0  0  0  0  0  0  0  0  0
   56.9968   15.2852   19.2226 O   0  0  0  0  0  0  0  0  0  0  0  0
   50.4521   12.5993   23.3922 C   0  0  0  0  0  0  0  0  0  0  0  0
   55.7460   16.9804   20.1979 C   0  0  0  0  0  0  0  0  0  0  0  0
   55.6145   17.7102   18.9591 O   0  0  0  0  0  0  0  0  0  0  0  0
   51.3946   13.8418   25.2058 C   0  0  0  0  0  0  0  0  0  0  0  0
   52.3608   15.3797   28.4880 C   0  0  0  0  0  0  0  0  0  0  0  0
   54.8580   15.4172   26.9721 C   0  0  0  0  0  0  0  0  0  0  0  0
   52.5985   13.8565   24.4838 C   0  0  0  0  0  0  0  0  0  0  0  0
   48.8105   10.6476   21.2563 H   0  0  0  0  0  0  0  0  0  0  0  0
   50.3200   14.3538   27.0377 H   0  0  0  0  0  0  0  0  0  0  0  0
   54.6708   14.4857   24.5527 H   0  0  0  0  0  0  0  0  0  0  0  0
   54.7578   13.1716   23.0647 H   0  0  0  0  0  0  0  0  0  0  0  0
   54.9162   17.2323   20.8752 H   0  0  0  0  0  0  0  0  0  0  0  0
   53.8333   12.5881   21.6389 H   0  0  0  0  0  0  0  0  0  0  0  0
   56.7019   17.2277   20.6821 H   0  0  0  0  0  0  0  0  0  0  0  0
   54.1497   15.5251   22.4561 H   0  0  0  0  0  0  0  0  0  0  0  0
   52.2231   14.7249   21.1783 H   0  0  0  0  0  0  0  0  0  0  0  0
   55.6078   13.6209   20.6138 H   0  0  0  0  0  0  0  0  0  0  0  0
   57.3342   15.1827   21.5694 H   0  0  0  0  0  0  0  0  0  0  0  0
   54.9021   15.4125   19.1379 H   0  0  0  0  0  0  0  0  0  0  0  0
   57.1090   15.8432   18.4617 H   0  0  0  0  0  0  0  0  0  0  0  0
   51.3364   15.2632   28.8715 H   0  0  0  0  0  0  0  0  0  0  0  0
   55.1288   14.8202   27.8552 H   0  0  0  0  0  0  0  0  0  0  0  0
   53.0566   14.8083   29.1208 H   0  0  0  0  0  0  0  0  0  0  0  0
   55.6575   15.3430   26.2206 H   0  0  0  0  0  0  0  0  0  0  0  0
   52.6389   16.4442   28.5045 H   0  0  0  0  0  0  0  0  0  0  0  0
   54.7286   16.4690   27.2663 H   0  0  0  0  0  0  0  0  0  0  0  0
   52.7352   11.9849   21.0138 H   0  0  0  0  0  0  0  0  0  0  0  0
  1 16  1  0  0  0  0
  1 19  1  0  0  0  0
  1 22  2  0  0  0  0
  1 27  1  0  0  0  0
  2  3  1  0  0  0  0
  2 14  1  0  0  0  0
  3  4  2  0  0  0  0
  3  5  1  0  0  0  0
  5  6  1  0  0  0  0
  5 32  1  0  0  0  0
  6  7  2  0  0  0  0
  6 25  1  0  0  0  0
  8 25  2  0  0  0  0
  8 28  1  0  0  0  0
  9 10  2  0  0  0  0
  9 28  1  0  0  0  0
  9 33  1  0  0  0  0
 10 11  1  0  0  0  0
 10 29  1  0  0  0  0
 11 12  2  0  0  0  0
 11 30  1  0  0  0  0
 12 31  1  0  0  0  0
 12 34  1  0  0  0  0
 13 15  1  0  0  0  0
 13 17  1  0  0  0  0
 13 35  1  0  0  0  0
 13 37  1  0  0  0  0
 14 15  2  0  0  0  0
 14 25  1  0  0  0  0
 15 31  1  0  0  0  0
 17 18  1  0  0  0  0
 17 20  1  0  0  0  0
 17 39  1  0  0  0  0
 18 40  1  0  0  0  0
 20 21  1  0  0  0  0
 20 23  1  0  0  0  0
 20 41  1  0  0  0  0
 21 42  1  0  0  0  0
 23 24  1  0  0  0  0
 23 26  1  0  0  0  0
 23 43  1  0  0  0  0
 24 44  1  0  0  0  0
 26 27  1  0  0  0  0
 26 36  1  0  0  0  0
 26 38  1  0  0  0  0
 28 31  2  0  0  0  0
 29 45  1  0  0  0  0
 29 47  1  0  0  0  0
 29 49  1  0  0  0  0
 30 46  1  0  0  0  0
 30 48  1  0  0  0  0
 30 50  1  0  0  0  0
  2 51  1  0  0  0  0
M  CHG  3  15   1  16  -1  19  -1
M  END
> <Chemgauss4>
-20.577576

$$$$
