stable:False satoms:15 tatoms:24 sratio:0.625
  -OEChem-07092417373D

 24 24  0     0  0  0  0  0  0999 V2000
    7.1538   -4.5618   26.3458 H   0  0  0  0  0  0  0  0  0  0  0  0
    8.1552   -4.1983   26.1019 C   0  0  0  0  0  0  0  0  0  0  0  0
    8.8318   -5.0445   25.9547 H   0  0  0  0  0  0  0  0  0  0  0  0
    8.5259   -3.5813   26.9285 H   0  0  0  0  0  0  0  0  0  0  0  0
    8.0317   -3.4718   24.8809 N   0  3  0  0  0  0  0  0  0  0  0  0
    8.8446   -2.7612   24.3689 C   0  0  0  0  0  0  0  0  0  0  0  0
    9.4223   -1.9689   23.7516 C   0  0  0  0  0  0  0  0  0  0  0  0
    9.6761   -1.0620   22.7964 C   0  0  0  0  0  0  0  0  0  0  0  0
   11.3068    0.0557   24.6315 H   0  0  0  0  0  0  0  0  0  0  0  0
   12.1618   -0.1515   24.0061 C   0  0  0  0  0  0  0  0  0  0  0  0
   13.1535    0.1455   24.2309 H   0  0  0  0  0  0  0  0  0  0  0  0
   11.9041   -0.8193   22.8732 C   0  0  0  0  0  0  0  0  0  0  0  0
   12.5288   -1.5411   22.3866 H   0  0  0  0  0  0  0  0  0  0  0  0
   10.7314   -0.5779   22.2665 N   0  0  0  0  0  0  0  0  0  0  0  0
    8.6403   -0.6232   22.0130 C   0  0  0  0  0  0  0  0  0  0  0  0
    9.2711    0.7193   20.6115 O   0  0  0  0  0  0  0  0  0  0  0  0
    8.3414   -0.0128   20.9715 C   0  0  0  0  0  0  0  0  0  0  0  0
    7.1094   -0.0286   20.1317 C   0  0  0  0  0  0  0  0  0  0  0  0
    7.4287   -0.4047   18.5499 S   0  0  0  0  0  0  0  0  0  0  0  0
    6.2705    0.3126   17.6980 N   0  0  0  0  0  0  0  0  0  0  0  0
    5.4578    0.8003   18.2767 C   0  0  0  0  0  0  0  0  0  0  0  0
    5.3216    0.8345   19.4848 C   0  0  0  0  0  0  0  0  0  0  0  0
    5.8772    0.3568   20.5243 C   0  0  0  0  0  0  0  0  0  0  0  0
    5.4378    0.2942   21.5118 H   0  0  0  0  0  0  0  0  0  0  0  0
 20 21  1  0  0  0  0
 19 20  1  0  0  0  0
 21 22  2  0  0  0  0
 18 19  1  0  0  0  0
 22 23  1  0  0  0  0
 18 23  2  0  0  0  0
 17 18  1  0  0  0  0
 23 24  1  0  0  0  0
 16 17  2  0  0  0  0
 15 17  1  0  0  0  0
  8 15  2  0  0  0  0
  8 14  1  0  0  0  0
 12 14  1  0  0  0  0
 12 13  1  0  0  0  0
  7  8  1  0  0  0  0
 10 12  2  0  0  0  0
  6  7  3  0  0  0  0
 10 11  1  0  0  0  0
  9 10  1  0  0  0  0
  5  6  1  0  0  0  0
  2  5  1  0  0  0  0
  2  3  1  0  0  0  0
  1  2  1  0  0  0  0
  2  4  1  0  0  0  0
M  CHG  1   5   1
M  END
> <Shapegauss>
-214.728165

$$$$
