stable:False satoms:15 tatoms:24 sratio:0.625
  -OEChem-08062405063D

 31 31  0     0  0  0  0  0  0999 V2000
    7.0152   -5.6444   25.4110 H   0  0  0  0  0  0  0  0  0  0  0  0
    8.0172   -5.2241   25.2940 C   0  0  0  0  0  0  0  0  0  0  0  0
    8.7180   -6.0106   25.0013 H   0  0  0  0  0  0  0  0  0  0  0  0
    8.3403   -4.7916   26.2479 H   0  0  0  0  0  0  0  0  0  0  0  0
    7.9268   -4.2567   24.2500 N   0  3  0  0  0  0  0  0  0  0  0  0
    8.7436   -3.4429   23.9362 C   0  0  0  0  0  0  0  0  0  0  0  0
    9.3278   -2.5300   23.5265 C   0  0  0  0  0  0  0  0  0  0  0  0
    9.5995   -1.4377   22.7968 C   0  0  0  0  0  0  0  0  0  0  0  0
   11.1293   -0.7132   24.8970 H   0  0  0  0  0  0  0  0  0  0  0  0
   12.0133   -0.7715   24.2804 C   0  0  0  0  0  0  0  0  0  0  0  0
   12.9882   -0.5157   24.6065 H   0  0  0  0  0  0  0  0  0  0  0  0
   11.8166   -1.1871   23.0216 C   0  0  0  0  0  0  0  0  0  0  0  0
   12.4765   -1.7808   22.4215 H   0  0  0  0  0  0  0  0  0  0  0  0
   10.6642   -0.8382   22.4285 N   0  0  0  0  0  0  0  0  0  0  0  0
    8.5866   -0.8566   22.0789 C   0  0  0  0  0  0  0  0  0  0  0  0
    9.2432    0.7610   21.0222 O   0  0  0  0  0  0  0  0  0  0  0  0
    8.3164   -0.0432   21.1778 C   0  0  0  0  0  0  0  0  0  0  0  0
    7.1199    0.1031   20.3001 C   0  0  0  0  0  0  0  0  0  0  0  0
    7.5112    0.0755   18.6902 S   0  0  0  0  0  0  0  0  0  0  0  0
    6.3725    0.9417   17.9589 N   0  0  0  0  0  0  0  0  0  0  0  0
    5.5264    1.2846   18.5911 C   0  0  0  0  0  0  0  0  0  0  0  0
    5.3408    1.0598   19.7719 C   0  0  0  0  0  0  0  0  0  0  0  0
    5.8646    0.3799   20.7104 C   0  0  0  0  0  0  0  0  0  0  0  0
    5.3872    0.1033   21.6420 H   0  0  0  0  0  0  0  0  0  0  0  0
    7.1075   -3.7254   24.4653 H   0  0  0  0  0  0  0  0  0  0  0  0
   10.6407   -0.1316   21.7211 H   0  0  0  0  0  0  0  0  0  0  0  0
    7.6546   -1.2678   22.4377 H   0  0  0  0  0  0  0  0  0  0  0  0
    5.9933    0.3833   17.2211 H   0  0  0  0  0  0  0  0  0  0  0  0
    4.7794    1.8896   18.0988 H   0  0  0  0  0  0  0  0  0  0  0  0
    4.4745    1.5967   20.1293 H   0  0  0  0  0  0  0  0  0  0  0  0
    7.7686   -4.7918   23.4201 H   0  0  0  0  0  0  0  0  0  0  0  0
 20 21  1  0  0  0  0
 19 20  1  0  0  0  0
 21 22  2  0  0  0  0
 18 19  1  0  0  0  0
 22 23  1  0  0  0  0
 18 23  2  0  0  0  0
 17 18  1  0  0  0  0
 23 24  1  0  0  0  0
 16 17  2  0  0  0  0
 15 17  1  0  0  0  0
  8 15  2  0  0  0  0
  8 14  1  0  0  0  0
 12 14  1  0  0  0  0
 12 13  1  0  0  0  0
  7  8  1  0  0  0  0
 10 12  2  0  0  0  0
  6  7  3  0  0  0  0
 10 11  1  0  0  0  0
  9 10  1  0  0  0  0
  5  6  1  0  0  0  0
  2  5  1  0  0  0  0
  2  3  1  0  0  0  0
  1  2  1  0  0  0  0
  2  4  1  0  0  0  0
  5 25  1  0  0  0  0
 14 26  1  0  0  0  0
 15 27  1  0  0  0  0
 20 28  1  0  0  0  0
 21 29  1  0  0  0  0
 22 30  1  0  0  0  0
  5 31  1  0  0  0  0
M  CHG  1   5   1
M  END
> <Chemgauss4>
-7.111540

$$$$
