stable:False satoms:15 tatoms:24 sratio:0.625
  -OEChem-08062405053D

 31 31  0     0  0  0  0  0  0999 V2000
   -7.0619   -5.5419  -25.6329 H   0  0  0  0  0  0  0  0  0  0  0  0
   -8.0678   -5.1656  -25.4307 C   0  0  0  0  0  0  0  0  0  0  0  0
   -8.7228   -5.9925  -25.1429 H   0  0  0  0  0  0  0  0  0  0  0  0
   -8.4641   -4.6916  -26.3360 H   0  0  0  0  0  0  0  0  0  0  0  0
   -7.9438   -4.2566  -24.3388 N   0  3  0  0  0  0  0  0  0  0  0  0
   -8.7655   -3.4921  -23.9285 C   0  0  0  0  0  0  0  0  0  0  0  0
   -9.3524   -2.6258  -23.4309 C   0  0  0  0  0  0  0  0  0  0  0  0
   -9.6135   -1.5875  -22.6229 C   0  0  0  0  0  0  0  0  0  0  0  0
  -11.2949   -0.8006  -24.5798 H   0  0  0  0  0  0  0  0  0  0  0  0
  -12.1361   -0.9260  -23.9152 C   0  0  0  0  0  0  0  0  0  0  0  0
  -13.1373   -0.6876  -24.1658 H   0  0  0  0  0  0  0  0  0  0  0  0
  -11.8473   -1.4051  -22.6974 C   0  0  0  0  0  0  0  0  0  0  0  0
  -12.4484   -2.0556  -22.0945 H   0  0  0  0  0  0  0  0  0  0  0  0
  -10.6720   -1.0489  -22.1558 N   0  0  0  0  0  0  0  0  0  0  0  0
   -8.5771   -1.0117  -21.9347 C   0  0  0  0  0  0  0  0  0  0  0  0
   -9.2187    0.5182  -20.7465 O   0  0  0  0  0  0  0  0  0  0  0  0
   -8.2776   -0.2416  -21.0053 C   0  0  0  0  0  0  0  0  0  0  0  0
   -7.0339   -0.1021  -20.1947 C   0  0  0  0  0  0  0  0  0  0  0  0
   -7.3223   -0.2355  -18.5685 S   0  0  0  0  0  0  0  0  0  0  0  0
   -6.1689    0.6284  -17.8577 N   0  0  0  0  0  0  0  0  0  0  0  0
   -5.3758    1.0373  -18.5188 C   0  0  0  0  0  0  0  0  0  0  0  0
   -5.2574    0.8869  -19.7199 C   0  0  0  0  0  0  0  0  0  0  0  0
   -5.8165    0.2430  -20.6634 C   0  0  0  0  0  0  0  0  0  0  0  0
   -5.3897    0.0374  -21.6369 H   0  0  0  0  0  0  0  0  0  0  0  0
   -7.1574   -3.6845  -24.5717 H   0  0  0  0  0  0  0  0  0  0  0  0
  -10.6273   -0.3834  -21.4107 H   0  0  0  0  0  0  0  0  0  0  0  0
   -7.6565   -1.3677  -22.3731 H   0  0  0  0  0  0  0  0  0  0  0  0
   -5.7261    0.0431  -17.1786 H   0  0  0  0  0  0  0  0  0  0  0  0
   -4.6196    1.6400  -18.0380 H   0  0  0  0  0  0  0  0  0  0  0  0
   -4.4333    1.4744  -20.0970 H   0  0  0  0  0  0  0  0  0  0  0  0
   -7.7164   -4.8319  -23.5531 H   0  0  0  0  0  0  0  0  0  0  0  0
 20 21  1  0  0  0  0
 19 20  1  0  0  0  0
 21 22  2  0  0  0  0
 18 19  1  0  0  0  0
 22 23  1  0  0  0  0
 18 23  2  0  0  0  0
 17 18  1  0  0  0  0
 23 24  1  0  0  0  0
 16 17  2  0  0  0  0
 15 17  1  0  0  0  0
  8 15  2  0  0  0  0
  8 14  1  0  0  0  0
 12 14  1  0  0  0  0
 12 13  1  0  0  0  0
  7  8  1  0  0  0  0
 10 12  2  0  0  0  0
  6  7  3  0  0  0  0
 10 11  1  0  0  0  0
  9 10  1  0  0  0  0
  5  6  1  0  0  0  0
  2  5  1  0  0  0  0
  2  3  1  0  0  0  0
  1  2  1  0  0  0  0
  2  4  1  0  0  0  0
  5 25  1  0  0  0  0
 14 26  1  0  0  0  0
 15 27  1  0  0  0  0
 20 28  1  0  0  0  0
 21 29  1  0  0  0  0
 22 30  1  0  0  0  0
  5 31  1  0  0  0  0
M  CHG  1   5   1
M  END
> <Chemgauss4>
-7.549909

$$$$
