stable:False satoms:19 tatoms:24 sratio:0.7916666666666666
  -OEChem-07092417333D

 24 26  0     1  0  0  0  0  0999 V2000
   10.5430   -2.5908   24.8401 C   0  0  0  0  0  0  0  0  0  0  0  0
    5.4483   -2.1752   21.7232 H   0  0  0  0  0  0  0  0  0  0  0  0
   11.2183   -3.5708   24.2314 F   0  0  0  0  0  0  0  0  0  0  0  0
    9.5407   -3.1779   25.4684 F   0  0  0  0  0  0  0  0  0  0  0  0
    6.6985   -1.1775   23.7586 H   0  0  0  0  0  0  0  0  0  0  0  0
    9.9819   -1.4370   23.9251 C   0  0  1  0  0  0  0  0  0  0  0  0
    8.6506   -1.1958   24.6367 O   0  0  0  0  0  0  0  0  0  0  0  0
    6.9335   -0.6310   22.8274 C   0  3  0  0  0  0  0  0  0  0  0  0
   11.2363   -0.8134   23.0694 C   0  0  0  0  0  0  0  0  0  0  0  0
   11.5376    0.7997   22.0712 H   0  0  0  0  0  0  0  0  0  0  0  0
   11.3954   -2.0146   25.7158 F   0  0  0  0  0  0  0  0  0  0  0  0
   12.3834   -1.0944   23.1476 O   0  0  0  0  0  0  0  0  0  0  0  0
    9.0073   -1.7576   20.6075 H   0  0  0  0  0  0  0  0  0  0  0  0
   10.7493    0.1613   22.2441 N   0  0  0  0  0  0  0  0  0  0  0  0
    8.1269   -1.2577   20.9709 C   0  0  0  0  0  0  0  0  0  0  0  0
    9.5320    0.3930   21.7231 C   0  3  0  0  0  0  0  0  0  0  0  0
    5.8852   -0.2112   22.2097 O   0  0  0  0  0  0  0  0  0  0  0  0
    6.8275   -1.6076   19.3442 H   0  0  0  0  0  0  0  0  0  0  0  0
    6.9102   -1.3720   20.3842 C   0  0  0  0  0  0  0  0  0  0  0  0
    9.3428    1.0710   20.9072 H   0  0  0  0  0  0  0  0  0  0  0  0
    8.2898   -0.4702   22.1726 C   0  0  1  0  0  0  0  0  0  0  0  0
    4.8071   -0.8918   20.6079 H   0  0  0  0  0  0  0  0  0  0  0  0
    5.6693   -1.2196   21.2022 C   0  0  0  0  0  0  0  0  0  0  0  0
    8.8691   -1.0492   23.5082 C   0  0  3  0  0  0  0  0  0  0  0  0
 18 19  1  0  0  0  0
 15 19  2  0  0  0  0
 19 23  1  0  0  0  0
 13 15  1  0  0  0  0
 22 23  1  0  0  0  0
 16 20  1  0  0  0  0
 15 21  1  0  0  0  0
  2 23  1  0  0  0  0
 17 23  1  0  0  0  0
 16 21  1  0  0  0  0
 14 16  1  0  0  0  0
 10 14  1  0  0  0  0
  8 21  1  0  0  0  0
 21 24  1  0  0  0  0
  8 17  1  0  0  0  0
  9 14  1  0  0  0  0
  5  8  1  0  0  0  0
  9 12  2  0  0  0  0
  6  9  1  0  0  0  0
  6 24  1  0  0  0  0
  7 24  1  0  0  0  0
  6  7  1  0  0  0  0
  1  6  1  0  0  0  0
  1  3  1  0  0  0  0
  1  4  1  0  0  0  0
  1 11  1  0  0  0  0
M  CHG  2   8   1  16   1
M  END
> <Shapegauss>
-127.914337

$$$$
