stable:False satoms:19 tatoms:24 sratio:0.7916666666666666
  -OEChem-08052422353D

 23 25  0     1  0  0  0  0  0999 V2000
   12.0618    0.0578   24.5714 C   0  0  0  0  0  0  0  0  0  0  0  0
    7.5823   -2.9554   27.1595 H   0  0  0  0  0  0  0  0  0  0  0  0
   13.1174   -0.7518   24.7023 F   0  0  0  0  0  0  0  0  0  0  0  0
   11.8049    0.5165   25.7829 F   0  0  0  0  0  0  0  0  0  0  0  0
   10.7518   -0.5719   23.9626 C   0  0  1  0  0  0  0  0  0  0  0  0
    9.7173    0.1555   24.8215 O   0  0  0  0  0  0  0  0  0  0  0  0
    7.8154   -1.4990   25.2531 C   0  0  0  0  0  2  0  0  0  0  0  0
   11.1366   -1.2393   22.5131 C   0  0  0  0  0  0  0  0  0  0  0  0
   10.1450   -1.8296   20.9776 H   0  0  0  0  0  0  0  0  0  0  0  0
   12.4361    1.0568   23.7423 F   0  0  0  0  0  0  0  0  0  0  0  0
   12.1777   -1.2109   21.9508 O   0  0  0  0  0  0  0  0  0  0  0  0
    9.7604   -3.8877   24.2488 H   0  0  0  0  0  0  0  0  0  0  0  0
   10.0127   -1.8224   21.9981 N   0  0  0  0  0  0  0  0  0  0  0  0
    8.8355   -3.4316   24.5546 C   0  0  0  0  0  0  0  0  0  0  0  0
    8.8877   -2.2940   22.5627 C   0  0  0  0  0  2  0  0  0  0  0  0
    6.6761   -2.0182   25.5516 O   0  0  0  0  0  0  0  0  0  0  0  0
    7.8726   -5.1151   25.3888 H   0  0  0  0  0  0  0  0  0  0  0  0
    7.9301   -4.0476   25.3536 C   0  0  0  0  0  0  0  0  0  0  0  0
    8.6107   -2.0772   24.1010 C   0  0  1  0  0  0  0  0  0  0  0  0
    6.0983   -3.7510   26.4762 H   0  0  0  0  0  0  0  0  0  0  0  0
    7.0364   -3.2360   26.2339 C   0  0  0  0  0  0  0  0  0  0  0  0
    9.6156   -0.9043   24.3641 C   0  0  3  0  0  0  0  0  0  0  0  0
   10.0179   -1.3938   25.2632 H   0  0  0  0  0  0  0  0  0  0  0  0
 17 18  1  0  0  0  0
 14 18  2  0  0  0  0
 18 21  1  0  0  0  0
 12 14  1  0  0  0  0
 20 21  1  0  0  0  0
 14 19  1  0  0  0  0
  2 21  1  0  0  0  0
 16 21  1  0  0  0  0
 15 19  1  0  0  0  0
 13 15  1  0  0  0  0
  9 13  1  0  0  0  0
  7 19  1  0  0  0  0
 19 22  1  0  0  0  0
  7 16  1  0  0  0  0
  8 13  1  0  0  0  0
  8 11  2  0  0  0  0
  5  8  1  0  0  0  0
  5 22  1  0  0  0  0
  6 22  1  0  0  0  0
  5  6  1  0  0  0  0
  1  5  1  0  0  0  0
  1  3  1  0  0  0  0
  1  4  1  0  0  0  0
  1 10  1  0  0  0  0
 22 23  1  0  0  0  0
M  END
> <Chemgauss4>
-6.299433

$$$$
