stable:False satoms:19 tatoms:24 sratio:0.7916666666666666
  -OEChem-08052422353D

 23 25  0     1  0  0  0  0  0999 V2000
  -11.8209   -0.0427  -24.5932 C   0  0  0  0  0  0  0  0  0  0  0  0
   -6.8802   -2.8962  -26.4073 H   0  0  0  0  0  0  0  0  0  0  0  0
  -12.8079   -0.9089  -24.8435 F   0  0  0  0  0  0  0  0  0  0  0  0
  -11.4142    0.3930  -25.7717 F   0  0  0  0  0  0  0  0  0  0  0  0
  -10.5842   -0.5864  -23.7820 C   0  0  1  0  0  0  0  0  0  0  0  0
   -9.4720    0.1678  -24.5108 O   0  0  0  0  0  0  0  0  0  0  0  0
   -7.4527   -1.3987  -24.6075 C   0  0  0  0  0  2  0  0  0  0  0  0
  -11.1419   -1.2301  -22.3787 C   0  0  0  0  0  0  0  0  0  0  0  0
  -10.3550   -1.7237  -20.6975 H   0  0  0  0  0  0  0  0  0  0  0  0
  -12.3568    0.9595  -23.8625 F   0  0  0  0  0  0  0  0  0  0  0  0
  -12.2532   -1.2388  -21.9715 O   0  0  0  0  0  0  0  0  0  0  0  0
   -9.4085   -3.8538  -23.8042 H   0  0  0  0  0  0  0  0  0  0  0  0
  -10.0778   -1.7395  -21.6884 N   0  0  0  0  0  0  0  0  0  0  0  0
   -8.4714   -3.3600  -23.9916 C   0  0  0  0  0  0  0  0  0  0  0  0
   -8.8625   -2.1689  -22.0698 C   0  0  0  0  0  2  0  0  0  0  0  0
   -6.2594   -1.8672  -24.7219 O   0  0  0  0  0  0  0  0  0  0  0  0
   -7.3211   -5.0154  -24.6189 H   0  0  0  0  0  0  0  0  0  0  0  0
   -7.4328   -3.9517  -24.6309 C   0  0  0  0  0  0  0  0  0  0  0  0
   -8.3776   -1.9831  -23.5600 C   0  0  1  0  0  0  0  0  0  0  0  0
   -5.4745   -3.5943  -25.4916 H   0  0  0  0  0  0  0  0  0  0  0  0
   -6.4607   -3.1213  -25.4040 C   0  0  0  0  0  0  0  0  0  0  0  0
   -9.3878   -0.8716  -24.0055 C   0  0  3  0  0  0  0  0  0  0  0  0
   -9.6334   -1.4071  -24.9344 H   0  0  0  0  0  0  0  0  0  0  0  0
 17 18  1  0  0  0  0
 14 18  2  0  0  0  0
 18 21  1  0  0  0  0
 12 14  1  0  0  0  0
 20 21  1  0  0  0  0
 14 19  1  0  0  0  0
  2 21  1  0  0  0  0
 16 21  1  0  0  0  0
 15 19  1  0  0  0  0
 13 15  1  0  0  0  0
  9 13  1  0  0  0  0
  7 19  1  0  0  0  0
 19 22  1  0  0  0  0
  7 16  1  0  0  0  0
  8 13  1  0  0  0  0
  8 11  2  0  0  0  0
  5  8  1  0  0  0  0
  5 22  1  0  0  0  0
  6 22  1  0  0  0  0
  5  6  1  0  0  0  0
  1  5  1  0  0  0  0
  1  3  1  0  0  0  0
  1  4  1  0  0  0  0
  1 10  1  0  0  0  0
 22 23  1  0  0  0  0
M  END
> <Chemgauss4>
-6.153632

$$$$
