MODEL 1
REMARK VINA RESULT:    -6.484      0.000      0.000
REMARK INTER + INTRA:          -9.076
REMARK INTER:                  -8.380
REMARK INTRA:                  -0.696
REMARK UNBOUND:                -0.696
REMARK  5 active torsions:
REMARK  status: ('A' for Active; 'I' for Inactive)
REMARK    1  A    between atoms: S_2  and  N_5 
REMARK    2  A    between atoms: N_5  and  C_7 
REMARK    3  A    between atoms: C_7  and  C_8 
REMARK    4  A    between atoms: C_14  and  C_15 
REMARK       I    between atoms: C_15  and  N_17 
REMARK    5  A    between atoms: C_19  and  C_23 
ROOT
HETATM    1  C   UNL     1       8.778  -2.553  23.322  1.00  0.00     0.257 C 
HETATM    2  O   UNL     1       8.831  -2.318  22.154  1.00  0.00    -0.267 OA
HETATM    3  N   UNL     1       9.216  -1.841  24.360  1.00  0.00    -0.314 N 
ATOM      4  HN  UNL     1       9.039  -2.172  25.309  1.00  0.00     0.170 HD
HETATM    5  C   UNL     1       9.878  -0.708  24.176  1.00  0.00     0.115 C 
HETATM    6  C   UNL     1       9.417   0.582  23.798  1.00  0.00     0.117 C 
HETATM    7  N   UNL     1       9.236   1.640  23.492  1.00  0.00    -0.190 NA
ENDROOT
BRANCH   5   8
HETATM    8  C   UNL     1      11.262  -0.599  24.517  1.00  0.00     0.031 C 
HETATM    9  C   UNL     1      11.936  -0.895  23.482  1.00  0.00     0.014 C 
ENDBRANCH   5   8
BRANCH   1  10
HETATM   10  C   UNL     1       8.081  -3.866  23.820  1.00  0.00     0.073 A 
HETATM   11  C   UNL     1       7.825  -4.648  24.866  1.00  0.00     0.064 A 
HETATM   12  C   UNL     1       7.267  -4.848  23.587  1.00  0.00     0.155 A 
HETATM   13  O   UNL     1       5.944  -4.631  23.267  1.00  0.00    -0.337 OA
HETATM   14  C   UNL     1       7.571  -5.884  22.851  1.00  0.00     0.024 C 
HETATM   15  C   UNL     1       5.685  -5.268  22.224  1.00  0.00     0.137 C 
HETATM   16  C   UNL     1       6.635  -5.980  21.795  1.00  0.00     0.024 C 
BRANCH  11  17
HETATM   17  C   UNL     1       7.861  -5.115  26.129  1.00  0.00    -0.019 C 
BRANCH  17  18
HETATM   18  N   UNL     1       7.919  -5.752  27.082  1.00  0.00    -0.240 N 
ATOM     19  HN  UNL     1       8.808  -6.222  27.253  1.00  0.00     0.189 HD
BRANCH  18  20
HETATM   20  S   UNL     1       6.749  -5.996  28.202  1.00  0.00     0.301 S 
HETATM   21 BR   UNL     1       5.160  -6.478  27.103  1.00  0.00     0.082 Br
HETATM   22  O   UNL     1       7.014  -7.165  28.990  1.00  0.00    -0.193 OA
HETATM   23  O   UNL     1       6.398  -4.816  28.930  1.00  0.00    -0.193 OA
ENDBRANCH  18  20
ENDBRANCH  17  18
ENDBRANCH  11  17
ENDBRANCH   1  10
TORSDOF 5
ENDMDL
MODEL 2
REMARK VINA RESULT:    -6.220      4.923      7.523
REMARK INTER + INTRA:          -8.734
REMARK INTER:                  -8.041
REMARK INTRA:                  -0.693
REMARK UNBOUND:                -0.696
REMARK  5 active torsions:
REMARK  status: ('A' for Active; 'I' for Inactive)
REMARK    1  A    between atoms: S_2  and  N_5 
REMARK    2  A    between atoms: N_5  and  C_7 
REMARK    3  A    between atoms: C_7  and  C_8 
REMARK    4  A    between atoms: C_14  and  C_15 
REMARK       I    between atoms: C_15  and  N_17 
REMARK    5  A    between atoms: C_19  and  C_23 
ROOT
HETATM    1  C   UNL     1       6.997  -1.543  22.308  1.00  0.00     0.257 C 
HETATM    2  O   UNL     1       7.563  -1.790  23.329  1.00  0.00    -0.267 OA
HETATM    3  N   UNL     1       6.079  -2.246  21.646  1.00  0.00    -0.314 N 
ATOM      4  HN  UNL     1       5.658  -1.855  20.802  1.00  0.00     0.170 HD
HETATM    5  C   UNL     1       5.705  -3.445  22.068  1.00  0.00     0.115 C 
HETATM    6  C   UNL     1       4.863  -3.824  23.147  1.00  0.00     0.117 C 
HETATM    7  N   UNL     1       4.254  -4.296  23.955  1.00  0.00    -0.190 NA
ENDROOT
BRANCH   5   8
HETATM    8  C   UNL     1       6.017  -4.621  21.318  1.00  0.00     0.031 C 
HETATM    9  C   UNL     1       6.984  -5.202  21.899  1.00  0.00     0.014 C 
ENDBRANCH   5   8
BRANCH   1  10
HETATM   10  C   UNL     1       7.290  -0.194  21.565  1.00  0.00     0.073 A 
HETATM   11  C   UNL     1       7.985   0.941  21.577  1.00  0.00     0.064 A 
HETATM   12  C   UNL     1       7.172   0.535  20.499  1.00  0.00     0.155 A 
HETATM   13  O   UNL     1       7.646   0.111  19.276  1.00  0.00    -0.337 OA
HETATM   14  C   UNL     1       6.079   1.174  20.174  1.00  0.00     0.024 C 
HETATM   15  C   UNL     1       6.723   0.221  18.440  1.00  0.00     0.137 C 
HETATM   16  C   UNL     1       5.667   0.744  18.892  1.00  0.00     0.024 C 
BRANCH  11  17
HETATM   17  C   UNL     1       8.817   1.905  22.017  1.00  0.00    -0.019 C 
BRANCH  17  18
HETATM   18  N   UNL     1       9.714   2.574  22.270  1.00  0.00    -0.240 N 
ATOM     19  HN  UNL     1      10.179   3.019  21.479  1.00  0.00     0.189 HD
BRANCH  18  20
HETATM   20  S   UNL     1      10.338   2.903  23.749  1.00  0.00     0.301 S 
HETATM   21 BR   UNL     1      10.841   1.105  24.441  1.00  0.00     0.082 Br
HETATM   22  O   UNL     1      11.579   3.615  23.647  1.00  0.00    -0.193 OA
HETATM   23  O   UNL     1       9.380   3.440  24.666  1.00  0.00    -0.193 OA
ENDBRANCH  18  20
ENDBRANCH  17  18
ENDBRANCH  11  17
ENDBRANCH   1  10
TORSDOF 5
ENDMDL
MODEL 3
REMARK VINA RESULT:    -6.158      4.501      6.989
REMARK INTER + INTRA:          -8.654
REMARK INTER:                  -7.946
REMARK INTRA:                  -0.708
REMARK UNBOUND:                -0.696
REMARK  5 active torsions:
REMARK  status: ('A' for Active; 'I' for Inactive)
REMARK    1  A    between atoms: S_2  and  N_5 
REMARK    2  A    between atoms: N_5  and  C_7 
REMARK    3  A    between atoms: C_7  and  C_8 
REMARK    4  A    between atoms: C_14  and  C_15 
REMARK       I    between atoms: C_15  and  N_17 
REMARK    5  A    between atoms: C_19  and  C_23 
ROOT
HETATM    1  C   UNL     1       6.224  -2.315  21.425  1.00  0.00     0.257 C 
HETATM    2  O   UNL     1       5.330  -2.736  20.756  1.00  0.00    -0.267 OA
HETATM    3  N   UNL     1       6.742  -2.788  22.558  1.00  0.00    -0.314 N 
ATOM      4  HN  UNL     1       7.549  -2.323  22.976  1.00  0.00     0.170 HD
HETATM    5  C   UNL     1       6.223  -3.854  23.150  1.00  0.00     0.115 C 
HETATM    6  C   UNL     1       6.314  -5.232  22.819  1.00  0.00     0.117 C 
HETATM    7  N   UNL     1       6.262  -6.340  22.695  1.00  0.00    -0.190 NA
ENDROOT
BRANCH   5   8
HETATM    8  C   UNL     1       5.561  -3.747  24.413  1.00  0.00     0.031 C 
HETATM    9  C   UNL     1       4.311  -3.793  24.196  1.00  0.00     0.014 C 
ENDBRANCH   5   8
BRANCH   1  10
HETATM   10  C   UNL     1       6.990  -1.024  20.975  1.00  0.00     0.073 A 
HETATM   11  C   UNL     1       8.145  -0.362  21.005  1.00  0.00     0.064 A 
HETATM   12  C   UNL     1       7.034   0.041  20.237  1.00  0.00     0.155 A 
HETATM   13  O   UNL     1       6.965  -0.029  18.862  1.00  0.00    -0.337 OA
HETATM   14  C   UNL     1       6.368   1.134  20.499  1.00  0.00     0.024 C 
HETATM   15  C   UNL     1       6.070   0.754  18.475  1.00  0.00     0.137 C 
HETATM   16  C   UNL     1       5.538   1.436  19.394  1.00  0.00     0.024 C 
BRANCH  11  17
HETATM   17  C   UNL     1       9.418  -0.062  21.328  1.00  0.00    -0.019 C 
BRANCH  17  18
HETATM   18  N   UNL     1      10.473  -0.013  21.776  1.00  0.00    -0.240 N 
ATOM     19  HN  UNL     1      11.086   0.711  21.403  1.00  0.00     0.189 HD
BRANCH  18  20
HETATM   20  S   UNL     1      11.114  -0.966  22.945  1.00  0.00     0.301 S 
HETATM   21 BR   UNL     1      11.913   0.344  24.214  1.00  0.00     0.082 Br
HETATM   22  O   UNL     1      10.091  -1.627  23.701  1.00  0.00    -0.193 OA
HETATM   23  O   UNL     1      12.187  -1.793  22.483  1.00  0.00    -0.193 OA
ENDBRANCH  18  20
ENDBRANCH  17  18
ENDBRANCH  11  17
ENDBRANCH   1  10
TORSDOF 5
ENDMDL
MODEL 4
REMARK VINA RESULT:    -6.124      1.765      2.133
REMARK INTER + INTRA:          -8.609
REMARK INTER:                  -7.978
REMARK INTRA:                  -0.631
REMARK UNBOUND:                -0.696
REMARK  5 active torsions:
REMARK  status: ('A' for Active; 'I' for Inactive)
REMARK    1  A    between atoms: S_2  and  N_5 
REMARK    2  A    between atoms: N_5  and  C_7 
REMARK    3  A    between atoms: C_7  and  C_8 
REMARK    4  A    between atoms: C_14  and  C_15 
REMARK       I    between atoms: C_15  and  N_17 
REMARK    5  A    between atoms: C_19  and  C_23 
ROOT
HETATM    1  C   UNL     1       9.032  -2.055  25.175  1.00  0.00     0.257 C 
HETATM    2  O   UNL     1       8.912  -1.288  26.082  1.00  0.00    -0.267 OA
HETATM    3  N   UNL     1       9.763  -1.962  24.065  1.00  0.00    -0.314 N 
ATOM      4  HN  UNL     1       9.787  -2.744  23.411  1.00  0.00     0.170 HD
HETATM    5  C   UNL     1      10.460  -0.866  23.800  1.00  0.00     0.115 C 
HETATM    6  C   UNL     1      11.679  -0.389  24.351  1.00  0.00     0.117 C 
HETATM    7  N   UNL     1      12.604   0.139  24.685  1.00  0.00    -0.190 NA
ENDROOT
BRANCH   5   8
HETATM    8  C   UNL     1      10.108  -0.016  22.706  1.00  0.00     0.031 C 
HETATM    9  C   UNL     1       9.441   0.957  23.174  1.00  0.00     0.014 C 
ENDBRANCH   5   8
BRANCH   1  10
HETATM   10  C   UNL     1       8.272  -3.425  25.211  1.00  0.00     0.073 A 
HETATM   11  C   UNL     1       7.866  -4.440  25.972  1.00  0.00     0.064 A 
HETATM   12  C   UNL     1       7.500  -4.284  24.620  1.00  0.00     0.155 A 
HETATM   13  O   UNL     1       6.238  -3.942  24.184  1.00  0.00    -0.337 OA
HETATM   14  C   UNL     1       7.909  -5.107  23.690  1.00  0.00     0.024 C 
HETATM   15  C   UNL     1       6.134  -4.281  22.985  1.00  0.00     0.137 C 
HETATM   16  C   UNL     1       7.137  -4.893  22.525  1.00  0.00     0.024 C 
BRANCH  11  17
HETATM   17  C   UNL     1       7.717  -5.216  27.063  1.00  0.00    -0.019 C 
BRANCH  17  18
HETATM   18  N   UNL     1       7.473  -6.047  27.816  1.00  0.00    -0.240 N 
ATOM     19  HN  UNL     1       8.273  -6.519  28.237  1.00  0.00     0.189 HD
BRANCH  18  20
HETATM   20  S   UNL     1       5.996  -6.565  28.298  1.00  0.00     0.301 S 
HETATM   21 BR   UNL     1       5.408  -5.151  29.570  1.00  0.00     0.082 Br
HETATM   22  O   UNL     1       5.046  -6.508  27.226  1.00  0.00    -0.193 OA
HETATM   23  O   UNL     1       6.033  -7.789  29.038  1.00  0.00    -0.193 OA
ENDBRANCH  18  20
ENDBRANCH  17  18
ENDBRANCH  11  17
ENDBRANCH   1  10
TORSDOF 5
ENDMDL
MODEL 5
REMARK VINA RESULT:    -6.123      3.637      5.510
REMARK INTER + INTRA:          -8.608
REMARK INTER:                  -8.014
REMARK INTRA:                  -0.594
REMARK UNBOUND:                -0.696
REMARK  5 active torsions:
REMARK  status: ('A' for Active; 'I' for Inactive)
REMARK    1  A    between atoms: S_2  and  N_5 
REMARK    2  A    between atoms: N_5  and  C_7 
REMARK    3  A    between atoms: C_7  and  C_8 
REMARK    4  A    between atoms: C_14  and  C_15 
REMARK       I    between atoms: C_15  and  N_17 
REMARK    5  A    between atoms: C_19  and  C_23 
ROOT
HETATM    1  C   UNL     1       8.241   0.043  21.168  1.00  0.00     0.257 C 
HETATM    2  O   UNL     1       9.050   0.774  20.682  1.00  0.00    -0.267 OA
HETATM    3  N   UNL     1       6.925  -0.026  20.976  1.00  0.00    -0.314 N 
ATOM      4  HN  UNL     1       6.385  -0.756  21.443  1.00  0.00     0.170 HD
HETATM    5  C   UNL     1       6.306   0.839  20.185  1.00  0.00     0.115 C 
HETATM    6  C   UNL     1       6.263   0.930  18.769  1.00  0.00     0.117 C 
HETATM    7  N   UNL     1       6.139   1.162  17.684  1.00  0.00    -0.190 NA
ENDROOT
BRANCH   5   8
HETATM    8  C   UNL     1       5.390   1.799  20.717  1.00  0.00     0.031 C 
HETATM    9  C   UNL     1       6.066   2.656  21.367  1.00  0.00     0.014 C 
ENDBRANCH   5   8
BRANCH   1  10
HETATM   10  C   UNL     1       8.701  -1.058  22.185  1.00  0.00     0.073 A 
HETATM   11  C   UNL     1       8.433  -2.251  22.712  1.00  0.00     0.064 A 
HETATM   12  C   UNL     1       9.618  -1.532  22.969  1.00  0.00     0.155 A 
HETATM   13  O   UNL     1      10.865  -1.881  22.496  1.00  0.00    -0.337 OA
HETATM   14  C   UNL     1       9.890  -1.041  24.149  1.00  0.00     0.024 C 
HETATM   15  C   UNL     1      11.725  -1.319  23.207  1.00  0.00     0.137 C 
HETATM   16  C   UNL     1      11.254  -0.670  24.182  1.00  0.00     0.024 C 
BRANCH  11  17
HETATM   17  C   UNL     1       7.768  -3.393  22.971  1.00  0.00    -0.019 C 
BRANCH  17  18
HETATM   18  N   UNL     1       7.215  -4.278  23.448  1.00  0.00    -0.240 N 
ATOM     19  HN  UNL     1       7.635  -4.668  24.291  1.00  0.00     0.189 HD
BRANCH  18  20
HETATM   20  S   UNL     1       5.830  -4.990  22.940  1.00  0.00     0.301 S 
HETATM   21 BR   UNL     1       6.389  -5.945  21.285  1.00  0.00     0.082 Br
HETATM   22  O   UNL     1       5.414  -6.028  23.837  1.00  0.00    -0.193 OA
HETATM   23  O   UNL     1       4.818  -4.057  22.549  1.00  0.00    -0.193 OA
ENDBRANCH  18  20
ENDBRANCH  17  18
ENDBRANCH  11  17
ENDBRANCH   1  10
TORSDOF 5
ENDMDL
MODEL 6
REMARK VINA RESULT:    -6.101      2.270      2.665
REMARK INTER + INTRA:          -8.580
REMARK INTER:                  -7.843
REMARK INTRA:                  -0.737
REMARK UNBOUND:                -0.696
REMARK  5 active torsions:
REMARK  status: ('A' for Active; 'I' for Inactive)
REMARK    1  A    between atoms: S_2  and  N_5 
REMARK    2  A    between atoms: N_5  and  C_7 
REMARK    3  A    between atoms: C_7  and  C_8 
REMARK    4  A    between atoms: C_14  and  C_15 
REMARK       I    between atoms: C_15  and  N_17 
REMARK    5  A    between atoms: C_19  and  C_23 
ROOT
HETATM    1  C   UNL     1       8.039  -1.991  22.197  1.00  0.00     0.257 C 
HETATM    2  O   UNL     1       9.181  -1.944  21.854  1.00  0.00    -0.267 OA
HETATM    3  N   UNL     1       7.019  -1.189  21.895  1.00  0.00    -0.314 N 
ATOM      4  HN  UNL     1       6.085  -1.409  22.242  1.00  0.00     0.170 HD
HETATM    5  C   UNL     1       7.202  -0.108  21.151  1.00  0.00     0.115 C 
HETATM    6  C   UNL     1       7.406   0.028  19.752  1.00  0.00     0.117 C 
HETATM    7  N   UNL     1       7.596   0.315  18.690  1.00  0.00    -0.190 NA
ENDROOT
BRANCH   5   8
HETATM    8  C   UNL     1       7.052   1.202  21.704  1.00  0.00     0.031 C 
HETATM    9  C   UNL     1       8.215   1.657  21.932  1.00  0.00     0.014 C 
ENDBRANCH   5   8
BRANCH   1  10
HETATM   10  C   UNL     1       7.557  -3.155  23.129  1.00  0.00     0.073 A 
HETATM   11  C   UNL     1       7.350  -3.547  24.385  1.00  0.00     0.064 A 
HETATM   12  C   UNL     1       6.969  -4.304  23.259  1.00  0.00     0.155 A 
HETATM   13  O   UNL     1       5.668  -4.502  22.850  1.00  0.00    -0.337 OA
HETATM   14  C   UNL     1       7.534  -5.446  22.966  1.00  0.00     0.024 C 
HETATM   15  C   UNL     1       5.638  -5.509  22.112  1.00  0.00     0.137 C 
HETATM   16  C   UNL     1       6.743  -6.108  21.999  1.00  0.00     0.024 C 
BRANCH  11  17
HETATM   17  C   UNL     1       7.346  -3.512  25.732  1.00  0.00    -0.019 C 
BRANCH  17  18
HETATM   18  N   UNL     1       7.293  -3.747  26.854  1.00  0.00    -0.240 N 
ATOM     19  HN  UNL     1       7.728  -3.066  27.476  1.00  0.00     0.189 HD
BRANCH  18  20
HETATM   20  S   UNL     1       6.602  -5.044  27.577  1.00  0.00     0.301 S 
HETATM   21 BR   UNL     1       4.835  -5.186  26.669  1.00  0.00     0.082 Br
HETATM   22  O   UNL     1       7.284  -6.259  27.237  1.00  0.00    -0.193 OA
HETATM   23  O   UNL     1       6.330  -4.845  28.968  1.00  0.00    -0.193 OA
ENDBRANCH  18  20
ENDBRANCH  17  18
ENDBRANCH  11  17
ENDBRANCH   1  10
TORSDOF 5
ENDMDL
MODEL 7
REMARK VINA RESULT:    -6.008      4.625      7.474
REMARK INTER + INTRA:          -8.460
REMARK INTER:                  -7.758
REMARK INTRA:                  -0.702
REMARK UNBOUND:                -0.696
REMARK  5 active torsions:
REMARK  status: ('A' for Active; 'I' for Inactive)
REMARK    1  A    between atoms: S_2  and  N_5 
REMARK    2  A    between atoms: N_5  and  C_7 
REMARK    3  A    between atoms: C_7  and  C_8 
REMARK    4  A    between atoms: C_14  and  C_15 
REMARK       I    between atoms: C_15  and  N_17 
REMARK    5  A    between atoms: C_19  and  C_23 
ROOT
HETATM    1  C   UNL     1       8.786  -2.049  24.008  1.00  0.00     0.257 C 
HETATM    2  O   UNL     1       9.751  -1.908  24.695  1.00  0.00    -0.267 OA
HETATM    3  N   UNL     1       7.855  -3.002  24.024  1.00  0.00    -0.314 N 
ATOM      4  HN  UNL     1       7.058  -2.938  23.388  1.00  0.00     0.170 HD
HETATM    5  C   UNL     1       7.949  -4.031  24.853  1.00  0.00     0.115 C 
HETATM    6  C   UNL     1       7.713  -4.117  26.251  1.00  0.00     0.117 C 
HETATM    7  N   UNL     1       7.594  -4.357  27.334  1.00  0.00    -0.190 NA
ENDROOT
BRANCH   5   8
HETATM    8  C   UNL     1       8.181  -5.354  24.363  1.00  0.00     0.031 C 
HETATM    9  C   UNL     1       7.555  -5.471  23.265  1.00  0.00     0.014 C 
ENDBRANCH   5   8
BRANCH   1  10
HETATM   10  C   UNL     1       8.459  -0.988  22.902  1.00  0.00     0.073 A 
HETATM   11  C   UNL     1       7.605  -0.616  21.950  1.00  0.00     0.064 A 
HETATM   12  C   UNL     1       8.701   0.167  22.363  1.00  0.00     0.155 A 
HETATM   13  O   UNL     1       8.601   1.337  23.084  1.00  0.00    -0.337 OA
HETATM   14  C   UNL     1       9.721   0.402  21.580  1.00  0.00     0.024 C 
HETATM   15  C   UNL     1       9.663   1.980  22.936  1.00  0.00     0.137 C 
HETATM   16  C   UNL     1      10.485   1.455  22.135  1.00  0.00     0.024 C 
BRANCH  11  17
HETATM   17  C   UNL     1       6.548  -0.665  21.116  1.00  0.00    -0.019 C 
BRANCH  17  18
HETATM   18  N   UNL     1       5.820  -0.594  20.231  1.00  0.00    -0.240 N 
ATOM     19  HN  UNL     1       4.920  -1.056  20.353  1.00  0.00     0.189 HD
BRANCH  18  20
HETATM   20  S   UNL     1       6.054   0.161  18.796  1.00  0.00     0.301 S 
HETATM   21 BR   UNL     1       4.853   1.745  18.913  1.00  0.00     0.082 Br
HETATM   22  O   UNL     1       7.375   0.713  18.704  1.00  0.00    -0.193 OA
HETATM   23  O   UNL     1       5.613  -0.602  17.670  1.00  0.00    -0.193 OA
ENDBRANCH  18  20
ENDBRANCH  17  18
ENDBRANCH  11  17
ENDBRANCH   1  10
TORSDOF 5
ENDMDL
MODEL 8
REMARK VINA RESULT:    -5.880     26.679     29.427
REMARK INTER + INTRA:          -8.294
REMARK INTER:                  -7.655
REMARK INTRA:                  -0.640
REMARK UNBOUND:                -0.696
REMARK  5 active torsions:
REMARK  status: ('A' for Active; 'I' for Inactive)
REMARK    1  A    between atoms: S_2  and  N_5 
REMARK    2  A    between atoms: N_5  and  C_7 
REMARK    3  A    between atoms: C_7  and  C_8 
REMARK    4  A    between atoms: C_14  and  C_15 
REMARK       I    between atoms: C_15  and  N_17 
REMARK    5  A    between atoms: C_19  and  C_23 
ROOT
HETATM    1  C   UNL     1       8.830  13.821   3.424  1.00  0.00     0.257 C 
HETATM    2  O   UNL     1       9.695  13.079   3.779  1.00  0.00    -0.267 OA
HETATM    3  N   UNL     1       7.585  13.559   3.030  1.00  0.00    -0.314 N 
ATOM      4  HN  UNL     1       6.954  14.329   2.806  1.00  0.00     0.170 HD
HETATM    5  C   UNL     1       7.154  12.310   2.923  1.00  0.00     0.115 C 
HETATM    6  C   UNL     1       6.774  11.374   3.922  1.00  0.00     0.117 C 
HETATM    7  N   UNL     1       6.464  10.518   4.567  1.00  0.00    -0.190 NA
ENDROOT
BRANCH   5   8
HETATM    8  C   UNL     1       6.845  11.743   1.648  1.00  0.00     0.031 C 
HETATM    9  C   UNL     1       6.621  12.701   0.846  1.00  0.00     0.014 C 
ENDBRANCH   5   8
BRANCH   1  10
HETATM   10  C   UNL     1       9.091  15.366   3.409  1.00  0.00     0.073 A 
HETATM   11  C   UNL     1       9.717  16.384   3.998  1.00  0.00     0.064 A 
HETATM   12  C   UNL     1       8.999  16.503   2.790  1.00  0.00     0.155 A 
HETATM   13  O   UNL     1       9.573  16.701   1.553  1.00  0.00    -0.337 OA
HETATM   14  C   UNL     1       7.894  17.195   2.705  1.00  0.00     0.024 C 
HETATM   15  C   UNL     1       8.701  17.164   0.787  1.00  0.00     0.137 C 
HETATM   16  C   UNL     1       7.590  17.396   1.338  1.00  0.00     0.024 C 
BRANCH  11  17
HETATM   17  C   UNL     1      10.462  17.054   4.898  1.00  0.00    -0.019 C 
BRANCH  17  18
HETATM   18  N   UNL     1      11.303  17.526   5.520  1.00  0.00    -0.240 N 
ATOM     19  HN  UNL     1      11.395  17.187   6.478  1.00  0.00     0.189 HD
BRANCH  18  20
HETATM   20  S   UNL     1      12.373  18.676   5.056  1.00  0.00     0.301 S 
HETATM   21 BR   UNL     1      11.208  20.115   4.326  1.00  0.00     0.082 Br
HETATM   22  O   UNL     1      13.023  19.273   6.187  1.00  0.00    -0.193 OA
HETATM   23  O   UNL     1      13.229  18.262   3.987  1.00  0.00    -0.193 OA
ENDBRANCH  18  20
ENDBRANCH  17  18
ENDBRANCH  11  17
ENDBRANCH   1  10
TORSDOF 5
ENDMDL
MODEL 9
REMARK VINA RESULT:    -5.786      5.107      7.365
REMARK INTER + INTRA:          -8.173
REMARK INTER:                  -7.516
REMARK INTRA:                  -0.657
REMARK UNBOUND:                -0.696
REMARK  5 active torsions:
REMARK  status: ('A' for Active; 'I' for Inactive)
REMARK    1  A    between atoms: S_2  and  N_5 
REMARK    2  A    between atoms: N_5  and  C_7 
REMARK    3  A    between atoms: C_7  and  C_8 
REMARK    4  A    between atoms: C_14  and  C_15 
REMARK       I    between atoms: C_15  and  N_17 
REMARK    5  A    between atoms: C_19  and  C_23 
ROOT
HETATM    1  C   UNL     1       6.707  -1.570  21.855  1.00  0.00     0.257 C 
HETATM    2  O   UNL     1       5.959  -2.282  21.258  1.00  0.00    -0.267 OA
HETATM    3  N   UNL     1       7.343  -1.769  23.009  1.00  0.00    -0.314 N 
ATOM      4  HN  UNL     1       7.993  -1.063  23.355  1.00  0.00     0.170 HD
HETATM    5  C   UNL     1       7.140  -2.872  23.715  1.00  0.00     0.115 C 
HETATM    6  C   UNL     1       7.605  -4.199  23.511  1.00  0.00     0.117 C 
HETATM    7  N   UNL     1       7.858  -5.286  23.492  1.00  0.00    -0.190 NA
ENDROOT
BRANCH   5   8
HETATM    8  C   UNL     1       6.483  -2.826  24.983  1.00  0.00     0.031 C 
HETATM    9  C   UNL     1       7.305  -2.347  25.825  1.00  0.00     0.014 C 
ENDBRANCH   5   8
BRANCH   1  10
HETATM   10  C   UNL     1       7.086  -0.170  21.261  1.00  0.00     0.073 A 
HETATM   11  C   UNL     1       7.891   0.887  21.358  1.00  0.00     0.064 A 
HETATM   12  C   UNL     1       6.973   0.699  20.305  1.00  0.00     0.155 A 
HETATM   13  O   UNL     1       7.322   0.394  19.007  1.00  0.00    -0.337 OA
HETATM   14  C   UNL     1       5.932   1.472  20.145  1.00  0.00     0.024 C 
HETATM   15  C   UNL     1       6.363   0.695  18.263  1.00  0.00     0.137 C 
HETATM   16  C   UNL     1       5.397   1.249  18.855  1.00  0.00     0.024 C 
BRANCH  11  17
HETATM   17  C   UNL     1       8.842   1.706  21.847  1.00  0.00    -0.019 C 
BRANCH  17  18
HETATM   18  N   UNL     1       9.458   2.590  22.242  1.00  0.00    -0.240 N 
ATOM     19  HN  UNL     1       9.637   3.343  21.577  1.00  0.00     0.189 HD
BRANCH  18  20
HETATM   20  S   UNL     1      10.082   2.791  23.743  1.00  0.00     0.301 S 
HETATM   21 BR   UNL     1       9.848   4.740  24.078  1.00  0.00     0.082 Br
HETATM   22  O   UNL     1       9.271   2.151  24.737  1.00  0.00    -0.193 OA
HETATM   23  O   UNL     1      11.487   2.531  23.817  1.00  0.00    -0.193 OA
ENDBRANCH  18  20
ENDBRANCH  17  18
ENDBRANCH  11  17
ENDBRANCH   1  10
TORSDOF 5
ENDMDL
