REMARK  5 active torsions:
REMARK  status: ('A' for Active; 'I' for Inactive)
REMARK    1  A    between atoms: S_2  and  N_5 
REMARK    2  A    between atoms: N_5  and  C_7 
REMARK    3  A    between atoms: C_7  and  C_8 
REMARK    4  A    between atoms: C_14  and  C_15 
REMARK       I    between atoms: C_15  and  N_17 
REMARK    5  A    between atoms: C_19  and  C_23 
ROOT
HETATM    1  C   UNL     1       8.953  -0.037  21.412  1.00  0.00     0.257 C 
HETATM    2  O   UNL     1       9.514   0.910  20.951  1.00  0.00    -0.267 OA
HETATM    3  N   UNL     1       7.785  -0.586  21.081  1.00  0.00    -0.314 N 
ATOM      4  HN  UNL     1       7.476  -1.436  21.554  1.00  0.00     0.170 HD
HETATM    5  C   UNL     1       7.019  -0.043  20.146  1.00  0.00     0.115 C 
HETATM    6  C   UNL     1       7.144  -0.046  18.731  1.00  0.00     0.117 C 
HETATM    7  N   UNL     1       7.099   0.070  17.622  1.00  0.00    -0.190 NA
ENDROOT
BRANCH   5   8
HETATM    8  C   UNL     1       5.760   0.548  20.476  1.00  0.00     0.031 C 
HETATM    9  C   UNL     1       5.238   0.967  19.397  1.00  0.00     0.014 C 
ENDBRANCH   5   8
BRANCH   1  10
HETATM   10  C   UNL     1       9.623  -0.845  22.576  1.00  0.00     0.073 A 
HETATM   11  C   UNL     1       9.472  -1.823  23.467  1.00  0.00     0.064 A 
HETATM   12  C   UNL     1      10.691  -1.151  23.245  1.00  0.00     0.155 A 
HETATM   13  O   UNL     1      11.793  -1.708  22.633  1.00  0.00    -0.337 OA
HETATM   14  C   UNL     1      11.230  -0.374  24.147  1.00  0.00     0.024 C 
HETATM   15  C   UNL     1      12.798  -1.036  22.950  1.00  0.00     0.137 C 
HETATM   16  C   UNL     1      12.569  -0.110  23.776  1.00  0.00     0.024 C 
BRANCH  11  17
HETATM   17  C   UNL     1       8.874  -2.797  24.180  1.00  0.00    -0.019 C 
BRANCH  17  18
HETATM   18  N   UNL     1       8.141  -3.535  24.665  1.00  0.00    -0.240 N 
ATOM     19  HN  UNL     1       7.294  -3.739  24.135  1.00  0.00     0.189 HD
BRANCH  18  20
HETATM   20  S   UNL     1       8.291  -4.301  26.105  1.00  0.00     0.301 S 
HETATM   21 BR   UNL     1       6.452  -4.979  26.455  1.00  0.00     0.082 Br
HETATM   22  O   UNL     1       9.098  -5.481  25.989  1.00  0.00    -0.193 OA
HETATM   23  O   UNL     1       8.615  -3.424  27.188  1.00  0.00    -0.193 OA
ENDBRANCH  18  20
ENDBRANCH  17  18
ENDBRANCH  11  17
ENDBRANCH   1  10
TORSDOF 5
