stable:False satoms:19 tatoms:24 sratio:0.7916666666666666
  -OEChem-07092417333D

 24 25  0     1  0  0  0  0  0999 V2000
    8.4308   -2.4194   25.4090 H   0  0  0  0  0  0  0  0  0  0  0  0
    9.6967   -2.1602   22.9349 N   0  0  0  0  0  0  0  0  0  0  0  0
   11.1199   -0.9295   24.1074 O   0  0  0  0  0  0  0  0  0  0  0  0
    6.0838   -1.8037   25.6983 H   0  0  0  0  0  0  0  0  0  0  0  0
    6.5533   -1.6760   24.7384 C   0  0  0  0  0  0  0  0  0  0  0  0
    7.8874   -1.9914   24.5829 C   0  0  0  0  0  0  0  0  0  0  0  0
    9.3187   -1.8711   20.2465 H   0  0  0  0  0  0  0  0  0  0  0  0
    8.4519   -1.7355   23.3246 C   0  0  0  0  0  0  0  0  0  0  0  0
   11.7502   -1.3116   21.1997 H   0  0  0  0  0  0  0  0  0  0  0  0
   11.7701    0.2841   21.9503 H   0  0  0  0  0  0  0  0  0  0  0  0
   10.6377   -1.4279   24.7535 H   0  0  0  0  0  0  0  0  0  0  0  0
   10.6701   -1.1796   22.9451 C   0  0  3  0  0  0  0  0  0  0  0  0
    5.8379   -1.1864   23.6557 C   0  0  0  0  0  0  0  0  0  0  0  0
   10.2593   -0.0595   20.6240 N   0  0  0  0  0  0  0  0  0  0  0  0
    7.7164   -1.0794   22.2901 C   0  0  0  0  0  0  0  0  0  0  0  0
    9.8022   -2.5744   22.0146 H   0  0  0  0  0  0  0  0  0  0  0  0
   11.1247   -0.5414   21.6581 C   0  0  0  0  0  0  0  0  0  0  0  0
    5.7463   -0.7838   21.5383 H   0  0  0  0  0  0  0  0  0  0  0  0
    8.1472   -0.4372   21.2227 O   0  0  0  0  0  0  0  0  0  0  0  0
    9.0615   -0.8023   20.2694 C   0  0  0  0  0  0  0  0  0  0  0  0
    4.7845   -0.9155   23.7705 H   0  0  0  0  0  0  0  0  0  0  0  0
    9.7628    0.8247   20.6370 H   0  0  0  0  0  0  0  0  0  0  0  0
    8.6289   -0.5112   19.3057 H   0  0  0  0  0  0  0  0  0  0  0  0
    6.3418   -1.0018   22.4197 C   0  0  0  0  0  0  0  0  0  0  0  0
 20 23  1  0  0  0  0
  7 20  1  0  0  0  0
 14 20  1  0  0  0  0
 19 20  1  0  0  0  0
 14 22  1  0  0  0  0
 14 17  1  0  0  0  0
  9 17  1  0  0  0  0
 15 19  1  0  0  0  0
 18 24  1  0  0  0  0
 10 17  1  0  0  0  0
 12 17  1  0  0  0  0
  2 16  1  0  0  0  0
 15 24  2  0  0  0  0
  8 15  1  0  0  0  0
 13 24  1  0  0  0  0
  2 12  1  0  0  0  0
  2  8  1  0  0  0  0
  3 12  1  0  0  0  0
  6  8  2  0  0  0  0
 13 21  1  0  0  0  0
  5 13  2  0  0  0  0
  3 11  1  0  0  0  0
  5  6  1  0  0  0  0
  1  6  1  0  0  0  0
  4  5  1  0  0  0  0
M  END
> <Shapegauss>
-101.060516

$$$$
