stable:False satoms:19 tatoms:24 sratio:0.7916666666666666
  -OEChem-08052419563D

 26 27  0     1  0  0  0  0  0999 V2000
  -11.2111   -2.4831  -21.9918 H   0  0  0  0  0  0  0  0  0  0  0  0
   -9.5436   -0.3028  -22.4984 N   0  0  0  0  0  0  0  0  0  0  0  0
   -9.5114   -0.1711  -20.2856 O   0  0  0  0  0  0  0  0  0  0  0  0
  -13.4486   -2.6158  -22.9652 H   0  0  0  0  0  0  0  0  0  0  0  0
  -12.8330   -1.7550  -23.1610 C   0  0  0  0  0  0  0  0  0  0  0  0
  -11.5829   -1.6636  -22.5844 C   0  0  0  0  0  0  0  0  0  0  0  0
   -9.0849    1.8308  -24.1389 H   0  0  0  0  0  0  0  0  0  0  0  0
  -10.8632   -0.4842  -22.8264 C   0  0  0  0  0  0  0  0  0  0  0  0
   -7.8388    1.8233  -21.7765 H   0  0  0  0  0  0  0  0  0  0  0  0
   -8.9422    2.3153  -20.4917 H   0  0  0  0  0  0  0  0  0  0  0  0
   -9.8299   -1.0437  -20.4740 H   0  0  0  0  0  0  0  0  0  0  0  0
   -9.3300    0.4661  -21.3704 C   0  0  3  0  0  0  0  0  0  0  0  0
  -13.2840   -0.7282  -23.9771 C   0  0  0  0  0  0  0  0  0  0  0  0
   -9.4712    2.8675  -22.3825 N   0  3  0  0  0  0  0  0  0  0  0  0
  -11.4362    0.6132  -23.5396 C   0  0  0  0  0  0  0  0  0  0  0  0
   -8.9274    0.1232  -23.1829 H   0  0  0  0  0  0  0  0  0  0  0  0
   -8.8925    1.9024  -21.4969 C   0  0  0  0  0  0  0  0  0  0  0  0
  -12.8590    1.0952  -25.0487 H   0  0  0  0  0  0  0  0  0  0  0  0
  -11.0933    1.8858  -23.5517 O   0  0  0  0  0  0  0  0  0  0  0  0
   -9.8703    2.4795  -23.7250 C   0  0  0  0  0  0  0  0  0  0  0  0
  -14.2802   -0.7802  -24.4255 H   0  0  0  0  0  0  0  0  0  0  0  0
   -8.8023    3.6041  -22.4825 H   0  0  0  0  0  0  0  0  0  0  0  0
  -10.0362    3.3265  -24.3999 H   0  0  0  0  0  0  0  0  0  0  0  0
  -12.5797    0.3795  -24.2814 C   0  0  0  0  0  0  0  0  0  0  0  0
  -10.3846    0.7790  -21.3737 H   0  0  0  0  0  0  0  0  0  0  0  0
  -10.2899    3.2199  -21.9291 H   0  0  0  0  0  0  0  0  0  0  0  0
 20 23  1  0  0  0  0
  7 20  1  0  0  0  0
 14 20  1  0  0  0  0
 19 20  1  0  0  0  0
 14 22  1  0  0  0  0
 14 17  1  0  0  0  0
  9 17  1  0  0  0  0
 15 19  1  0  0  0  0
 18 24  1  0  0  0  0
 10 17  1  0  0  0  0
 12 17  1  0  0  0  0
  2 16  1  0  0  0  0
 15 24  2  0  0  0  0
  8 15  1  0  0  0  0
 13 24  1  0  0  0  0
  2 12  1  0  0  0  0
  2  8  1  0  0  0  0
  3 12  1  0  0  0  0
  6  8  2  0  0  0  0
 13 21  1  0  0  0  0
  5 13  2  0  0  0  0
  3 11  1  0  0  0  0
  5  6  1  0  0  0  0
  1  6  1  0  0  0  0
  4  5  1  0  0  0  0
 12 25  1  0  0  0  0
 14 26  1  0  0  0  0
M  CHG  1  14   1
M  END
> <Chemgauss4>
-5.914637

$$$$
