stable:False satoms:19 tatoms:24 sratio:0.7916666666666666
  -OEChem-08052419563D

 26 27  0     1  0  0  0  0  0999 V2000
   11.0689   -2.3286   21.9918 H   0  0  0  0  0  0  0  0  0  0  0  0
    9.4014   -0.1483   22.4984 N   0  0  0  0  0  0  0  0  0  0  0  0
    9.3692   -0.0166   20.2856 O   0  0  0  0  0  0  0  0  0  0  0  0
   13.3064   -2.4613   22.9652 H   0  0  0  0  0  0  0  0  0  0  0  0
   12.6908   -1.6005   23.1610 C   0  0  0  0  0  0  0  0  0  0  0  0
   11.4407   -1.5091   22.5843 C   0  0  0  0  0  0  0  0  0  0  0  0
    8.9427    1.9853   24.1389 H   0  0  0  0  0  0  0  0  0  0  0  0
   10.7210   -0.3297   22.8264 C   0  0  0  0  0  0  0  0  0  0  0  0
    7.6967    1.9779   21.7765 H   0  0  0  0  0  0  0  0  0  0  0  0
    8.8000    2.4698   20.4917 H   0  0  0  0  0  0  0  0  0  0  0  0
    9.6877   -0.8892   20.4740 H   0  0  0  0  0  0  0  0  0  0  0  0
    9.1878    0.6206   21.3704 C   0  0  3  0  0  0  0  0  0  0  0  0
   13.1418   -0.5737   23.9771 C   0  0  0  0  0  0  0  0  0  0  0  0
    9.3290    3.0220   22.3825 N   0  3  0  0  0  0  0  0  0  0  0  0
   11.2940    0.7677   23.5396 C   0  0  0  0  0  0  0  0  0  0  0  0
    8.7852    0.2777   23.1829 H   0  0  0  0  0  0  0  0  0  0  0  0
    8.7503    2.0569   21.4969 C   0  0  0  0  0  0  0  0  0  0  0  0
   12.7168    1.2497   25.0487 H   0  0  0  0  0  0  0  0  0  0  0  0
   10.9511    2.0404   23.5517 O   0  0  0  0  0  0  0  0  0  0  0  0
    9.7281    2.6340   23.7250 C   0  0  0  0  0  0  0  0  0  0  0  0
   14.1380   -0.6257   24.4255 H   0  0  0  0  0  0  0  0  0  0  0  0
    8.6601    3.7586   22.4825 H   0  0  0  0  0  0  0  0  0  0  0  0
    9.8940    3.4810   24.3999 H   0  0  0  0  0  0  0  0  0  0  0  0
   12.4375    0.5340   24.2814 C   0  0  0  0  0  0  0  0  0  0  0  0
   10.2424    0.9335   21.3737 H   0  0  0  0  0  0  0  0  0  0  0  0
   10.1477    3.3744   21.9291 H   0  0  0  0  0  0  0  0  0  0  0  0
 20 23  1  0  0  0  0
  7 20  1  0  0  0  0
 14 20  1  0  0  0  0
 19 20  1  0  0  0  0
 14 22  1  0  0  0  0
 14 17  1  0  0  0  0
  9 17  1  0  0  0  0
 15 19  1  0  0  0  0
 18 24  1  0  0  0  0
 10 17  1  0  0  0  0
 12 17  1  0  0  0  0
  2 16  1  0  0  0  0
 15 24  2  0  0  0  0
  8 15  1  0  0  0  0
 13 24  1  0  0  0  0
  2 12  1  0  0  0  0
  2  8  1  0  0  0  0
  3 12  1  0  0  0  0
  6  8  2  0  0  0  0
 13 21  1  0  0  0  0
  5 13  2  0  0  0  0
  3 11  1  0  0  0  0
  5  6  1  0  0  0  0
  1  6  1  0  0  0  0
  4  5  1  0  0  0  0
 12 25  1  0  0  0  0
 14 26  1  0  0  0  0
M  CHG  1  14   1
M  END
> <Chemgauss4>
-6.084932

$$$$
