REMARK  5 active torsions:
REMARK  status: ('A' for Active; 'I' for Inactive)
REMARK    1  A    between atoms: N_2  and  C_4 
REMARK    2  A    between atoms: C_5  and  C_6 
REMARK    3  A    between atoms: C_6  and  S_7 
REMARK       I    between atoms: N_9  and  C_11 
REMARK    4  A    between atoms: C_11  and  S_13 
REMARK    5  A    between atoms: S_13  and  C_16 
ROOT
HETATM    1  C   UNL     1      10.148  -1.058  23.195  1.00  0.00     0.129 C 
HETATM    2  N   UNL     1      10.143  -0.715  21.935  1.00  0.00    -0.305 N 
ATOM      3  HN  UNL     1      10.942  -0.944  21.344  1.00  0.00     0.171 HD
HETATM    4  C   UNL     1       9.076  -0.053  21.405  1.00  0.00     0.289 C 
HETATM    5  O   UNL     1       9.183   0.936  20.771  1.00  0.00    -0.260 OA
ENDROOT
BRANCH   1   6
HETATM    6  C   UNL     1       9.530  -2.120  23.706  1.00  0.00    -0.019 C 
HETATM    7  C   UNL     1       8.943  -2.936  24.295  1.00  0.00     0.013 C 
BRANCH   7   8
HETATM    8  N   UNL     1       8.136  -3.647  24.843  1.00  0.00    -0.354 N 
HETATM    9  C   UNL     1       8.103  -4.327  26.087  1.00  0.00     0.157 C 
ATOM     10  HN  UNL     1       7.292  -3.790  24.289  1.00  0.00     0.169 HD
ENDBRANCH   7   8
ENDBRANCH   1   6
BRANCH   1  11
HETATM   11  S   UNL     1      10.861   0.052  24.271  1.00  0.00    -0.107 SA
HETATM   12  C   UNL     1      12.459  -0.547  23.505  1.00  0.00     0.097 C 
ENDBRANCH   1  11
BRANCH   4  13
HETATM   13  S   UNL     1       7.569  -0.830  21.739  1.00  0.00    -0.041 SA
BRANCH  13  14
HETATM   14  C   UNL     1       6.468   0.214  20.861  1.00  0.00     0.054 C 
HETATM   15  C   UNL     1       6.692   0.274  19.517  1.00  0.00    -0.003 C 
HETATM   16  C   UNL     1       5.751   0.683  18.631  1.00  0.00     0.011 C 
ENDBRANCH  13  14
ENDBRANCH   4  13
TORSDOF 5
