stable:False satoms:18 tatoms:24 sratio:0.75
  -OEChem-07092417293D

 24 24  0     1  0  0  0  0  0999 V2000
    6.7641   -0.0101   19.7558 C   0  0  0  0  0  0  0  0  0  0  0  0
    8.3421   -2.2430   22.0450 C   0  0  3  0  0  0  0  0  0  0  0  0
   10.9965   -0.0529   24.2796 O   0  0  0  0  0  0  0  0  0  0  0  0
    9.2767   -2.6189   23.1444 N   0  3  3  0  0  0  0  0  0  0  0  0
    5.8438    0.5144   19.9415 H   0  0  0  0  0  0  0  0  0  0  0  0
    8.1580   -3.2111   24.7669 H   0  0  0  0  0  0  0  0  0  0  0  0
    8.6347    1.0961   22.8227 C   0  0  0  0  0  0  0  0  0  0  0  0
    7.8847   -1.2778   21.4449 C   0  0  0  0  0  0  0  0  0  0  0  0
    8.6798    0.2291   23.4405 H   0  0  0  0  0  0  0  0  0  0  0  0
    7.9582    1.0461   21.6524 C   0  0  0  0  0  0  0  0  0  0  0  0
    6.5280   -1.0036   19.4073 H   0  0  0  0  0  0  0  0  0  0  0  0
    7.5568   -0.0742   20.9759 C   0  0  0  0  0  0  0  0  0  0  0  0
    9.1395    1.9422   23.2037 H   0  0  0  0  0  0  0  0  0  0  0  0
   10.8474   -1.2364   24.3125 C   0  0  0  0  0  0  0  0  0  0  0  0
    8.0027   -4.2286   23.3483 H   0  0  0  0  0  0  0  0  0  0  0  0
    8.6884   -3.6406   23.9341 C   0  0  0  0  0  0  0  0  0  0  0  0
   10.4318   -2.0999   23.2053 C   0  3  0  0  0  0  0  0  0  0  0  0
   11.1596   -2.3183   22.4574 H   0  0  0  0  0  0  0  0  0  0  0  0
   11.5703   -1.5887   26.0684 H   0  0  0  0  0  0  0  0  0  0  0  0
    9.4769   -4.2767   24.3221 H   0  0  0  0  0  0  0  0  0  0  0  0
    7.2894    0.5192   18.9671 H   0  0  0  0  0  0  0  0  0  0  0  0
   11.0033   -1.9831   25.4085 O   0  0  0  0  0  0  0  0  0  0  0  0
    7.6628   -2.7719   21.2064 O   0  0  0  0  0  0  0  0  0  0  0  0
    7.6886    1.9986   21.1860 H   0  0  0  0  0  0  0  0  0  0  0  0
  1 21  1  0  0  0  0
  1 11  1  0  0  0  0
  1  5  1  0  0  0  0
  1 12  1  0  0  0  0
  8 12  2  0  0  0  0
 10 12  1  0  0  0  0
 10 24  1  0  0  0  0
  8 23  1  0  0  0  0
  2 23  1  0  0  0  0
  2  8  1  0  0  0  0
  7 10  2  0  0  0  0
  2  4  1  0  0  0  0
 17 18  1  0  0  0  0
  7 13  1  0  0  0  0
  7  9  1  0  0  0  0
  4 17  1  0  0  0  0
  4 16  1  0  0  0  0
 14 17  1  0  0  0  0
 15 16  1  0  0  0  0
 16 20  1  0  0  0  0
  6 16  1  0  0  0  0
  3 14  2  0  0  0  0
 14 22  1  0  0  0  0
 19 22  1  0  0  0  0
M  CHG  2   4   1  17   1
M  END
> <Shapegauss>
-119.499214

$$$$
