stable:False satoms:18 tatoms:24 sratio:0.75
  -OEChem-08052417413D

 24 24  0     1  0  0  0  0  0999 V2000
  -10.2339   -1.7290  -22.3674 C   0  0  0  0  0  0  0  0  0  0  0  0
   -7.9523   -4.2127  -23.5258 C   0  0  3  0  0  0  0  0  0  0  0  0
   -8.3389   -4.4427  -27.6042 O   0  0  0  0  0  0  0  0  0  0  0  0
   -7.2728   -5.0552  -24.5515 N   0  3  3  0  0  0  0  0  0  0  0  0
   -9.9967   -0.6887  -22.2330 H   0  0  0  0  0  0  0  0  0  0  0  0
   -5.2869   -4.5193  -24.6128 H   0  0  0  0  0  0  0  0  0  0  0  0
   -9.1309   -2.0679  -25.9447 C   0  0  0  0  0  0  0  0  0  0  0  0
   -8.7233   -3.2693  -23.3977 C   0  0  0  0  0  0  0  0  0  0  0  0
   -8.2360   -2.6446  -25.8993 H   0  0  0  0  0  0  0  0  0  0  0  0
   -9.7521   -1.7101  -24.7976 C   0  0  0  0  0  0  0  0  0  0  0  0
   -9.9165   -2.2691  -21.4889 H   0  0  0  0  0  0  0  0  0  0  0  0
   -9.5618   -2.2449  -23.5520 C   0  0  0  0  0  0  0  0  0  0  0  0
   -9.4531   -1.8204  -26.9197 H   0  0  0  0  0  0  0  0  0  0  0  0
   -7.6644   -5.1446  -26.9140 C   0  0  0  0  0  0  0  0  0  0  0  0
   -5.8185   -5.2227  -23.0980 H   0  0  0  0  0  0  0  0  0  0  0  0
   -5.9228   -5.2662  -24.1687 C   0  0  0  0  0  0  0  0  0  0  0  0
   -7.9309   -5.5285  -25.5262 C   0  0  0  0  0  2  0  0  0  0  0  0
   -5.6085   -6.2404  -24.5277 H   0  0  0  0  0  0  0  0  0  0  0  0
  -11.3127   -1.8103  -22.4545 H   0  0  0  0  0  0  0  0  0  0  0  0
   -6.5016   -5.6793  -27.2951 O   0  5  0  0  0  0  0  0  0  0  0  0
   -8.0760   -4.1542  -22.3318 O   0  0  0  0  0  0  0  0  0  0  0  0
  -10.4856   -0.9001  -24.8542 H   0  0  0  0  0  0  0  0  0  0  0  0
   -7.0872   -3.5344  -23.4881 H   0  0  0  0  0  0  0  0  0  0  0  0
   -7.0204   -4.2455  -25.0813 H   0  0  0  0  0  0  0  0  0  0  0  0
  1 19  1  0  0  0  0
  1 11  1  0  0  0  0
  1  5  1  0  0  0  0
  1 12  1  0  0  0  0
  8 12  2  0  0  0  0
 10 12  1  0  0  0  0
 10 22  1  0  0  0  0
  8 21  1  0  0  0  0
  2 21  1  0  0  0  0
  2  8  1  0  0  0  0
  7 10  2  0  0  0  0
  2  4  1  0  0  0  0
  7 13  1  0  0  0  0
  7  9  1  0  0  0  0
  4 17  1  0  0  0  0
  4 16  1  0  0  0  0
 14 17  1  0  0  0  0
 15 16  1  0  0  0  0
 16 18  1  0  0  0  0
  6 16  1  0  0  0  0
  3 14  2  0  0  0  0
 14 20  1  0  0  0  0
  2 23  1  0  0  0  0
  4 24  1  0  0  0  0
M  CHG  2   4   1  20  -1
M  END
> <Chemgauss4>
-4.508786

$$$$
