stable:False satoms:18 tatoms:24 sratio:0.75
  -OEChem-08052417413D

 24 24  0     1  0  0  0  0  0999 V2000
   10.1758   -1.4189   22.2170 C   0  0  0  0  0  0  0  0  0  0  0  0
    7.8942   -3.9026   23.3755 C   0  0  3  0  0  0  0  0  0  0  0  0
    8.2808   -4.1326   27.4539 O   0  0  0  0  0  0  0  0  0  0  0  0
    7.2147   -4.7451   24.4011 N   0  3  3  0  0  0  0  0  0  0  0  0
    9.9386   -0.3786   22.0826 H   0  0  0  0  0  0  0  0  0  0  0  0
    5.2288   -4.2093   24.4625 H   0  0  0  0  0  0  0  0  0  0  0  0
    9.0728   -1.7578   25.7944 C   0  0  0  0  0  0  0  0  0  0  0  0
    8.6652   -2.9592   23.2474 C   0  0  0  0  0  0  0  0  0  0  0  0
    8.1779   -2.3345   25.7489 H   0  0  0  0  0  0  0  0  0  0  0  0
    9.6940   -1.4000   24.6473 C   0  0  0  0  0  0  0  0  0  0  0  0
    9.8584   -1.9590   21.3386 H   0  0  0  0  0  0  0  0  0  0  0  0
    9.5037   -1.9348   23.4017 C   0  0  0  0  0  0  0  0  0  0  0  0
    9.3951   -1.5103   26.7694 H   0  0  0  0  0  0  0  0  0  0  0  0
    7.6063   -4.8345   26.7637 C   0  0  0  0  0  0  0  0  0  0  0  0
    5.7604   -4.9126   22.9477 H   0  0  0  0  0  0  0  0  0  0  0  0
    5.8647   -4.9561   24.0184 C   0  0  0  0  0  0  0  0  0  0  0  0
    7.8728   -5.2184   25.3759 C   0  0  0  0  0  2  0  0  0  0  0  0
    5.5504   -5.9304   24.3774 H   0  0  0  0  0  0  0  0  0  0  0  0
   11.2546   -1.5003   22.3042 H   0  0  0  0  0  0  0  0  0  0  0  0
    6.4435   -5.3692   27.1447 O   0  5  0  0  0  0  0  0  0  0  0  0
    8.0179   -3.8441   22.1814 O   0  0  0  0  0  0  0  0  0  0  0  0
   10.4275   -0.5900   24.7039 H   0  0  0  0  0  0  0  0  0  0  0  0
    7.0291   -3.2243   23.3378 H   0  0  0  0  0  0  0  0  0  0  0  0
    6.9623   -3.9354   24.9310 H   0  0  0  0  0  0  0  0  0  0  0  0
  1 19  1  0  0  0  0
  1 11  1  0  0  0  0
  1  5  1  0  0  0  0
  1 12  1  0  0  0  0
  8 12  2  0  0  0  0
 10 12  1  0  0  0  0
 10 22  1  0  0  0  0
  8 21  1  0  0  0  0
  2 21  1  0  0  0  0
  2  8  1  0  0  0  0
  7 10  2  0  0  0  0
  2  4  1  0  0  0  0
  7 13  1  0  0  0  0
  7  9  1  0  0  0  0
  4 17  1  0  0  0  0
  4 16  1  0  0  0  0
 14 17  1  0  0  0  0
 15 16  1  0  0  0  0
 16 18  1  0  0  0  0
  6 16  1  0  0  0  0
  3 14  2  0  0  0  0
 14 20  1  0  0  0  0
  2 23  1  0  0  0  0
  4 24  1  0  0  0  0
M  CHG  2   4   1  20  -1
M  END
> <Chemgauss4>
-4.660565

$$$$
