stable:False satoms:11 tatoms:24 sratio:0.4583333333333333
  -OEChem-07092417503D

 24 26  0     1  0  0  0  0  0999 V2000
    6.6010   -4.8394   26.4653 C   0  0  0  0  0  0  0  0  0  0  0  0
    8.2032   -4.3118   26.1184 S   0  0  0  0  0  0  0  0  0  0  0  0
    9.0378   -5.4670   26.0177 O   0  0  0  0  0  0  0  0  0  0  0  0
    8.6007   -3.4054   27.1345 O   0  0  0  0  0  0  0  0  0  0  0  0
    8.1126   -3.5633   24.6811 N   0  0  0  0  0  0  0  0  0  0  0  0
    8.9840   -2.9352   24.1577 C   0  0  0  0  0  0  0  0  0  0  0  0
    9.4338   -1.9722   23.5152 C   0  0  0  0  0  0  0  0  0  0  0  0
   10.3452   -1.1462   23.2251 C   0  0  1  0  0  0  0  0  0  0  0  0
   11.0618    0.0215   24.3658 C   0  0  0  0  0  0  0  0  0  0  0  0
   12.0575    0.3009   24.2931 C   0  0  0  0  0  0  0  0  0  0  0  0
   13.1563   -0.1801   23.4596 C   0  0  0  0  0  0  0  0  0  0  0  0
   12.7241   -1.2615   22.6575 C   0  0  0  0  0  0  0  0  0  0  0  0
   11.8068   -1.7327   22.5335 C   0  0  0  0  0  0  0  0  0  0  0  0
    9.7272   -0.6336   22.4054 C   0  0  1  0  0  0  0  0  0  0  0  0
    9.0593    0.0382   21.3598 C   0  0  0  0  0  0  0  0  0  0  0  0
    9.5556    0.9852   20.9170 O   0  0  0  0  0  0  0  0  0  0  0  0
    7.9283   -0.5381   21.0594 N   0  0  0  0  0  0  0  0  0  0  0  0
    7.1881   -0.0991   20.1615 C   0  0  0  0  0  0  0  0  0  0  0  0
    7.2365   -0.0223   18.8378 C   0  0  0  0  0  0  0  0  0  0  0  0
    6.7938    0.3337   17.7613 N   0  0  0  0  0  0  0  0  0  0  0  0
    5.5949    0.8769   18.2592 C   0  0  0  0  0  0  0  0  0  0  0  0
    5.2423    0.9684   19.3817 C   0  0  0  0  0  0  0  0  0  0  0  0
    5.8121    0.5654   20.5303 C   0  0  0  0  0  0  0  0  0  0  0  0
    5.3211    0.7276   21.9989 C   0  0  0  0  0  0  0  0  0  0  0  0
 20 21  2  0  0  0  0
 19 20  1  0  0  0  0
 21 22  1  0  0  0  0
 18 19  2  0  0  0  0
 22 23  2  0  0  0  0
 18 23  1  0  0  0  0
 17 18  1  0  0  0  0
 23 24  1  0  0  0  0
 15 16  2  0  0  0  0
 15 17  1  0  0  0  0
 14 15  1  0  0  0  0
  8 14  1  0  0  0  0
  7 14  1  0  0  0  0
 12 13  1  0  0  0  0
  8 13  1  0  0  0  0
 11 12  2  0  0  0  0
  7  8  1  0  0  0  0
  8  9  1  0  0  0  0
 10 11  1  0  0  0  0
  6  7  2  3  0  0  0
  5  6  1  0  0  0  0
  9 10  2  0  0  0  0
  2  5  1  0  0  0  0
  2  3  2  0  0  0  0
  1  2  1  0  0  0  0
  2  4  2  0  0  0  0
M  END
> <Shapegauss>
-286.069550

$$$$
