stable:False satoms:11 tatoms:24 sratio:0.4583333333333333
  -OEChem-08062415363D

 43 45  0     1  0  0  0  0  0999 V2000
   -6.7304   -5.2899  -26.2585 C   0  0  0  0  0  0  0  0  0  0  0  0
   -8.3407   -4.7183  -26.0441 S   0  0  0  0  0  0  0  0  0  0  0  0
   -9.2044   -5.8525  -25.9499 O   0  0  0  0  0  0  0  0  0  0  0  0
   -8.6502   -3.8514  -27.1233 O   0  0  0  0  0  0  0  0  0  0  0  0
   -8.3306   -3.9079  -24.6379 N   0  0  0  0  0  0  0  0  0  0  0  0
   -9.2215   -3.2412  -24.2026 C   0  0  0  0  0  0  0  0  0  0  0  0
   -9.6928   -2.2424  -23.6345 C   0  0  0  0  0  0  0  0  0  0  0  0
  -10.6039   -1.3878  -23.4430 C   0  0  1  0  0  0  0  0  0  0  0  0
  -11.2179   -0.2596  -24.6793 C   0  0  0  0  0  0  0  0  0  0  0  0
  -12.2101    0.0407  -24.6864 C   0  0  0  0  0  0  0  0  0  0  0  0
  -13.3720   -0.3824  -23.9090 C   0  0  0  0  0  0  0  0  0  0  0  0
  -13.0173   -1.4343  -23.0332 C   0  0  0  0  0  0  0  0  0  0  0  0
  -12.1205   -1.9161  -22.8270 C   0  0  0  0  0  0  0  0  0  0  0  0
  -10.0314   -0.8502  -22.6065 C   0  0  1  0  0  0  0  0  0  0  0  0
   -9.4208   -0.1444  -21.5483 C   0  0  0  0  0  0  0  0  0  0  0  0
   -9.9254    0.8303  -21.1818 O   0  0  0  0  0  0  0  0  0  0  0  0
   -8.3248   -0.7271  -21.1472 N   0  0  0  0  0  0  0  0  0  0  0  0
   -7.6371   -0.2617  -20.2213 C   0  0  0  0  0  0  0  0  0  0  0  0
   -7.7722   -0.1247  -18.9085 C   0  0  0  0  0  0  0  0  0  0  0  0
   -7.3950    0.2711  -17.8210 N   0  0  0  0  0  0  0  0  0  0  0  0
   -6.1543    0.7696  -18.2598 C   0  0  0  0  0  0  0  0  0  0  0  0
   -5.7257    0.8042  -19.3588 C   0  0  0  0  0  0  0  0  0  0  0  0
   -6.2258    0.3605  -20.5247 C   0  0  0  0  0  0  0  0  0  0  0  0
   -5.6345    0.4477  -21.9624 C   0  0  0  0  0  0  0  0  0  0  0  0
   -6.6633   -5.8536  -27.2007 H   0  0  0  0  0  0  0  0  0  0  0  0
   -6.0395   -4.4347  -26.2929 H   0  0  0  0  0  0  0  0  0  0  0  0
   -6.4597   -5.9465  -25.4185 H   0  0  0  0  0  0  0  0  0  0  0  0
   -7.5467   -3.2898  -24.6980 H   0  0  0  0  0  0  0  0  0  0  0  0
  -10.0984   -3.8311  -24.4253 H   0  0  0  0  0  0  0  0  0  0  0  0
  -10.5442    0.1176  -25.4344 H   0  0  0  0  0  0  0  0  0  0  0  0
  -12.4262    0.8155  -25.4072 H   0  0  0  0  0  0  0  0  0  0  0  0
  -14.3598    0.0465  -23.9913 H   0  0  0  0  0  0  0  0  0  0  0  0
  -13.8503   -1.8153  -22.4609 H   0  0  0  0  0  0  0  0  0  0  0  0
  -12.0199   -1.9110  -21.7316 H   0  0  0  0  0  0  0  0  0  0  0  0
  -12.2456   -2.9507  -23.1790 H   0  0  0  0  0  0  0  0  0  0  0  0
   -9.5584   -0.1815  -23.3407 H   0  0  0  0  0  0  0  0  0  0  0  0
   -8.0296   -1.5704  -21.5963 H   0  0  0  0  0  0  0  0  0  0  0  0
   -8.7034   -0.6268  -18.6913 H   0  0  0  0  0  0  0  0  0  0  0  0
   -5.5112    1.1726  -17.4915 H   0  0  0  0  0  0  0  0  0  0  0  0
   -4.7583    1.2771  -19.4427 H   0  0  0  0  0  0  0  0  0  0  0  0
   -5.0400   -0.4542  -22.1702 H   0  0  0  0  0  0  0  0  0  0  0  0
   -6.4543    0.5225  -22.6920 H   0  0  0  0  0  0  0  0  0  0  0  0
   -4.9915    1.3367  -22.0409 H   0  0  0  0  0  0  0  0  0  0  0  0
 20 21  2  0  0  0  0
 19 20  1  0  0  0  0
 21 22  1  0  0  0  0
 18 19  2  0  0  0  0
 22 23  2  0  0  0  0
 18 23  1  0  0  0  0
 17 18  1  0  0  0  0
 23 24  1  0  0  0  0
 15 16  2  0  0  0  0
 15 17  1  0  0  0  0
 14 15  1  0  0  0  0
  8 14  1  0  0  0  0
  7 14  1  0  0  0  0
 12 13  1  0  0  0  0
  8 13  1  0  0  0  0
 11 12  2  0  0  0  0
  7  8  1  0  0  0  0
  8  9  1  0  0  0  0
 10 11  1  0  0  0  0
  6  7  2  3  0  0  0
  5  6  1  0  0  0  0
  9 10  2  0  0  0  0
  2  5  1  0  0  0  0
  2  3  2  0  0  0  0
  1  2  1  0  0  0  0
  2  4  2  0  0  0  0
  1 25  1  0  0  0  0
  1 26  1  0  0  0  0
  1 27  1  0  0  0  0
  5 28  1  0  0  0  0
  6 29  1  0  0  0  0
  9 30  1  0  0  0  0
 10 31  1  0  0  0  0
 11 32  1  0  0  0  0
 12 33  1  0  0  0  0
 13 34  1  0  0  0  0
 13 35  1  0  0  0  0
 14 36  1  0  0  0  0
 17 37  1  0  0  0  0
 19 38  1  0  0  0  0
 21 39  1  0  0  0  0
 22 40  1  0  0  0  0
 24 41  1  0  0  0  0
 24 42  1  0  0  0  0
 24 43  1  0  0  0  0
M  END
> <Chemgauss4>
-12.792490

$$$$
