stable:False satoms:11 tatoms:24 sratio:0.4583333333333333
  -OEChem-08062415363D

 43 45  0     1  0  0  0  0  0999 V2000
    6.3892   -5.1160   26.2704 C   0  0  0  0  0  0  0  0  0  0  0  0
    7.9995   -4.5444   26.0561 S   0  0  0  0  0  0  0  0  0  0  0  0
    8.8631   -5.6786   25.9619 O   0  0  0  0  0  0  0  0  0  0  0  0
    8.3090   -3.6775   27.1352 O   0  0  0  0  0  0  0  0  0  0  0  0
    7.9893   -3.7340   24.6499 N   0  0  0  0  0  0  0  0  0  0  0  0
    8.8803   -3.0673   24.2145 C   0  0  0  0  0  0  0  0  0  0  0  0
    9.3515   -2.0685   23.6465 C   0  0  0  0  0  0  0  0  0  0  0  0
   10.2626   -1.2139   23.4549 C   0  0  1  0  0  0  0  0  0  0  0  0
   10.8766   -0.0858   24.6913 C   0  0  0  0  0  0  0  0  0  0  0  0
   11.8688    0.2146   24.6984 C   0  0  0  0  0  0  0  0  0  0  0  0
   13.0308   -0.2085   23.9210 C   0  0  0  0  0  0  0  0  0  0  0  0
   12.6760   -1.2605   23.0451 C   0  0  0  0  0  0  0  0  0  0  0  0
   11.7792   -1.7422   22.8390 C   0  0  0  0  0  0  0  0  0  0  0  0
    9.6901   -0.6763   22.6184 C   0  0  1  0  0  0  0  0  0  0  0  0
    9.0795    0.0295   21.5602 C   0  0  0  0  0  0  0  0  0  0  0  0
    9.5842    1.0042   21.1937 O   0  0  0  0  0  0  0  0  0  0  0  0
    7.9835   -0.5532   21.1592 N   0  0  0  0  0  0  0  0  0  0  0  0
    7.2959   -0.0878   20.2332 C   0  0  0  0  0  0  0  0  0  0  0  0
    7.4309    0.0491   18.9204 C   0  0  0  0  0  0  0  0  0  0  0  0
    7.0537    0.4450   17.8330 N   0  0  0  0  0  0  0  0  0  0  0  0
    5.8130    0.9435   18.2718 C   0  0  0  0  0  0  0  0  0  0  0  0
    5.3844    0.9781   19.3708 C   0  0  0  0  0  0  0  0  0  0  0  0
    5.8846    0.5344   20.5366 C   0  0  0  0  0  0  0  0  0  0  0  0
    5.2932    0.6216   21.9743 C   0  0  0  0  0  0  0  0  0  0  0  0
    6.3220   -5.6797   27.2127 H   0  0  0  0  0  0  0  0  0  0  0  0
    5.6982   -4.2609   26.3048 H   0  0  0  0  0  0  0  0  0  0  0  0
    6.1184   -5.7726   25.4305 H   0  0  0  0  0  0  0  0  0  0  0  0
    7.2054   -3.1160   24.7099 H   0  0  0  0  0  0  0  0  0  0  0  0
    9.7571   -3.6572   24.4372 H   0  0  0  0  0  0  0  0  0  0  0  0
   10.2029    0.2915   25.4464 H   0  0  0  0  0  0  0  0  0  0  0  0
   12.0849    0.9894   25.4191 H   0  0  0  0  0  0  0  0  0  0  0  0
   14.0186    0.2204   24.0032 H   0  0  0  0  0  0  0  0  0  0  0  0
   13.5090   -1.6414   22.4729 H   0  0  0  0  0  0  0  0  0  0  0  0
   11.6786   -1.7371   21.7436 H   0  0  0  0  0  0  0  0  0  0  0  0
   11.9043   -2.7768   23.1909 H   0  0  0  0  0  0  0  0  0  0  0  0
    9.2171   -0.0076   23.3526 H   0  0  0  0  0  0  0  0  0  0  0  0
    7.6883   -1.3965   21.6082 H   0  0  0  0  0  0  0  0  0  0  0  0
    8.3622   -0.4529   18.7033 H   0  0  0  0  0  0  0  0  0  0  0  0
    5.1699    1.3465   17.5034 H   0  0  0  0  0  0  0  0  0  0  0  0
    4.4171    1.4510   19.4546 H   0  0  0  0  0  0  0  0  0  0  0  0
    4.6988   -0.2803   22.1822 H   0  0  0  0  0  0  0  0  0  0  0  0
    6.1130    0.6964   22.7039 H   0  0  0  0  0  0  0  0  0  0  0  0
    4.6502    1.5106   22.0529 H   0  0  0  0  0  0  0  0  0  0  0  0
 20 21  2  0  0  0  0
 19 20  1  0  0  0  0
 21 22  1  0  0  0  0
 18 19  2  0  0  0  0
 22 23  2  0  0  0  0
 18 23  1  0  0  0  0
 17 18  1  0  0  0  0
 23 24  1  0  0  0  0
 15 16  2  0  0  0  0
 15 17  1  0  0  0  0
 14 15  1  0  0  0  0
  8 14  1  0  0  0  0
  7 14  1  0  0  0  0
 12 13  1  0  0  0  0
  8 13  1  0  0  0  0
 11 12  2  0  0  0  0
  7  8  1  0  0  0  0
  8  9  1  0  0  0  0
 10 11  1  0  0  0  0
  6  7  2  3  0  0  0
  5  6  1  0  0  0  0
  9 10  2  0  0  0  0
  2  5  1  0  0  0  0
  2  3  2  0  0  0  0
  1  2  1  0  0  0  0
  2  4  2  0  0  0  0
  1 25  1  0  0  0  0
  1 26  1  0  0  0  0
  1 27  1  0  0  0  0
  5 28  1  0  0  0  0
  6 29  1  0  0  0  0
  9 30  1  0  0  0  0
 10 31  1  0  0  0  0
 11 32  1  0  0  0  0
 12 33  1  0  0  0  0
 13 34  1  0  0  0  0
 13 35  1  0  0  0  0
 14 36  1  0  0  0  0
 17 37  1  0  0  0  0
 19 38  1  0  0  0  0
 21 39  1  0  0  0  0
 22 40  1  0  0  0  0
 24 41  1  0  0  0  0
 24 42  1  0  0  0  0
 24 43  1  0  0  0  0
M  END
> <Chemgauss4>
-13.379724

$$$$
