stable:False satoms:11 tatoms:24 sratio:0.4583333333333333
  -OEChem-08062411013D

 36 37  0     1  0  0  0  0  0999 V2000
   -6.6060   -5.7528  -25.7253 C   0  0  0  0  0  0  0  0  0  0  0  0
   -8.3565   -4.8630  -25.6394 S   0  0  0  0  0  0  0  0  0  0  0  0
   -9.3332   -5.9140  -25.5266 O   0  0  0  0  0  0  0  0  0  0  0  0
   -8.4363   -4.0116  -26.7678 O   0  0  0  0  0  0  0  0  0  0  0  0
   -8.1733   -4.0392  -24.2703 N   0  0  0  0  0  0  0  0  0  0  0  0
   -8.9412   -3.1509  -23.9528 C   0  0  0  0  0  0  0  0  0  0  0  0
   -9.4727   -2.1937  -23.5510 C   0  0  0  0  0  0  0  0  0  0  0  0
  -10.2580   -1.2954  -23.0292 C   0  0  1  0  0  0  0  0  0  0  0  0
  -11.8268    0.7923  -25.2312 H   0  0  0  0  0  0  0  0  0  0  0  0
  -11.5955    0.0138  -24.5194 C   0  0  0  0  0  0  0  0  0  0  0  0
  -13.4521   -0.0523  -23.8144 H   0  0  0  0  0  0  0  0  0  0  0  0
  -12.5147   -0.4408  -23.7415 C   0  0  0  0  0  0  0  0  0  0  0  0
  -11.9097   -1.7440  -22.7971 S   0  0  0  0  0  0  0  0  0  0  0  0
   -9.7218   -0.3592  -22.4173 C   0  0  0  0  0  0  0  0  0  0  0  0
   -8.9987    0.2780  -21.4511 C   0  0  0  0  0  0  0  0  0  0  0  0
   -9.3659    1.3540  -21.0925 O   0  0  0  0  0  0  0  0  0  0  0  0
   -7.9453   -0.4740  -21.0841 N   0  0  0  0  0  0  0  0  0  0  0  0
   -7.2945    0.0708  -20.1224 C   0  0  0  0  0  0  0  0  0  0  0  0
   -7.5043    0.3395  -18.8706 C   0  0  0  0  0  0  0  0  0  0  0  0
   -7.1378    0.6121  -17.7206 N   0  0  0  0  0  0  0  0  0  0  0  0
   -6.0517    0.8538  -18.2054 C   0  0  1  0  0  0  0  0  0  0  0  0
   -5.2539    0.9088  -19.1053 N   0  3  0  0  0  0  0  0  0  0  0  0
   -5.8171    0.4803  -20.1717 C   0  0  0  0  0  0  0  0  0  0  0  0
   -5.2431    0.3795  -21.1044 H   0  0  0  0  0  0  0  0  0  0  0  0
   -6.5558   -6.3779  -26.6290 H   0  0  0  0  0  0  0  0  0  0  0  0
   -5.8104   -4.9940  -25.7599 H   0  0  0  0  0  0  0  0  0  0  0  0
   -6.4718   -6.3844  -24.8348 H   0  0  0  0  0  0  0  0  0  0  0  0
   -7.2643   -3.6245  -24.3107 H   0  0  0  0  0  0  0  0  0  0  0  0
  -10.4450   -0.7440  -23.9625 H   0  0  0  0  0  0  0  0  0  0  0  0
  -10.5929   -0.3833  -24.4602 H   0  0  0  0  0  0  0  0  0  0  0  0
  -10.6353    0.2417  -22.2967 H   0  0  0  0  0  0  0  0  0  0  0  0
   -9.1417    0.0227  -23.2703 H   0  0  0  0  0  0  0  0  0  0  0  0
   -7.7008   -1.3465  -21.5071 H   0  0  0  0  0  0  0  0  0  0  0  0
   -6.3343    1.9049  -18.3646 H   0  0  0  0  0  0  0  0  0  0  0  0
   -4.9577    1.8548  -19.2366 H   0  0  0  0  0  0  0  0  0  0  0  0
   -4.4615    0.3383  -18.8893 H   0  0  0  0  0  0  0  0  0  0  0  0
 20 21  1  0  0  0  0
 19 20  2  0  0  0  0
 19 21  1  0  0  0  0
 21 22  1  0  0  0  0
 18 19  1  0  0  0  0
 22 23  1  0  0  0  0
 18 23  2  0  0  0  0
 17 18  1  0  0  0  0
 23 24  1  0  0  0  0
 15 16  2  0  0  0  0
 15 17  1  0  0  0  0
 14 15  1  0  0  0  0
  8 14  1  0  0  0  0
  8 13  1  0  0  0  0
 12 13  1  0  0  0  0
  7  8  1  0  0  0  0
 11 12  1  0  0  0  0
 10 12  2  0  0  0  0
  6  7  3  0  0  0  0
  9 10  1  0  0  0  0
  5  6  1  0  0  0  0
  2  5  1  0  0  0  0
  2  3  2  0  0  0  0
  1  2  1  0  0  0  0
  2  4  2  0  0  0  0
  1 25  1  0  0  0  0
  1 26  1  0  0  0  0
  1 27  1  0  0  0  0
  5 28  1  0  0  0  0
  8 29  1  0  0  0  0
 10 30  1  0  0  0  0
 14 31  1  0  0  0  0
 14 32  1  0  0  0  0
 17 33  1  0  0  0  0
 21 34  1  0  0  0  0
 22 35  1  0  0  0  0
 22 36  1  0  0  0  0
M  CHG  1  22   1
M  END
> <Chemgauss4>
-10.244428

$$$$
