stable:False satoms:11 tatoms:24 sratio:0.4583333333333333
  -OEChem-08062411013D

 36 37  0     1  0  0  0  0  0999 V2000
    6.2224   -5.4633   25.9100 C   0  0  0  0  0  0  0  0  0  0  0  0
    7.9523   -4.5303   25.8862 S   0  0  0  0  0  0  0  0  0  0  0  0
    8.9599   -5.5572   25.9240 O   0  0  0  0  0  0  0  0  0  0  0  0
    7.9263   -3.5973   26.9508 O   0  0  0  0  0  0  0  0  0  0  0  0
    7.8526   -3.8139   24.4498 N   0  0  0  0  0  0  0  0  0  0  0  0
    8.6203   -2.9285   24.1240 C   0  0  0  0  0  0  0  0  0  0  0  0
    9.1571   -1.9876   23.6919 C   0  0  0  0  0  0  0  0  0  0  0  0
    9.9573   -1.1065   23.1634 C   0  0  1  0  0  0  0  0  0  0  0  0
   11.3049    1.1813   25.3124 H   0  0  0  0  0  0  0  0  0  0  0  0
   11.1468    0.3466   24.6456 C   0  0  0  0  0  0  0  0  0  0  0  0
   13.0522    0.2849   24.0854 H   0  0  0  0  0  0  0  0  0  0  0  0
   12.1327   -0.1357   23.9732 C   0  0  0  0  0  0  0  0  0  0  0  0
   11.6322   -1.5215   23.0869 S   0  0  0  0  0  0  0  0  0  0  0  0
    9.4461   -0.2336   22.4458 C   0  0  0  0  0  0  0  0  0  0  0  0
    8.7823    0.3100   21.3844 C   0  0  0  0  0  0  0  0  0  0  0  0
    9.1492    1.3676   20.9744 O   0  0  0  0  0  0  0  0  0  0  0  0
    7.7781   -0.4977   20.9984 N   0  0  0  0  0  0  0  0  0  0  0  0
    7.1884   -0.0438   19.9538 C   0  0  0  0  0  0  0  0  0  0  0  0
    7.4852    0.1394   18.7041 C   0  0  0  0  0  0  0  0  0  0  0  0
    7.1996    0.3169   17.5133 N   0  0  0  0  0  0  0  0  0  0  0  0
    6.0746    0.5606   17.8979 C   0  0  1  0  0  0  0  0  0  0  0  0
    5.2103    0.6570   18.7303 N   0  3  0  0  0  0  0  0  0  0  0  0
    5.7020    0.3240   19.8641 C   0  0  0  0  0  0  0  0  0  0  0  0
    5.0621    0.2742   20.7572 H   0  0  0  0  0  0  0  0  0  0  0  0
    6.1196   -6.0224   26.8517 H   0  0  0  0  0  0  0  0  0  0  0  0
    5.4082   -4.7280   25.8295 H   0  0  0  0  0  0  0  0  0  0  0  0
    6.1709   -6.1616   25.0616 H   0  0  0  0  0  0  0  0  0  0  0  0
    6.9332   -3.4246   24.3925 H   0  0  0  0  0  0  0  0  0  0  0  0
   10.0602   -0.4835   24.0642 H   0  0  0  0  0  0  0  0  0  0  0  0
   10.1614   -0.0834   24.5430 H   0  0  0  0  0  0  0  0  0  0  0  0
   10.3512    0.3839   22.3479 H   0  0  0  0  0  0  0  0  0  0  0  0
    8.7943    0.1917   23.2231 H   0  0  0  0  0  0  0  0  0  0  0  0
    7.5239   -1.3441   21.4663 H   0  0  0  0  0  0  0  0  0  0  0  0
    6.3188    1.6285   17.9985 H   0  0  0  0  0  0  0  0  0  0  0  0
    4.8822    1.6009   18.7687 H   0  0  0  0  0  0  0  0  0  0  0  0
    4.4505    0.0491   18.5001 H   0  0  0  0  0  0  0  0  0  0  0  0
 20 21  1  0  0  0  0
 19 20  2  0  0  0  0
 19 21  1  0  0  0  0
 21 22  1  0  0  0  0
 18 19  1  0  0  0  0
 22 23  1  0  0  0  0
 18 23  2  0  0  0  0
 17 18  1  0  0  0  0
 23 24  1  0  0  0  0
 15 16  2  0  0  0  0
 15 17  1  0  0  0  0
 14 15  1  0  0  0  0
  8 14  1  0  0  0  0
  8 13  1  0  0  0  0
 12 13  1  0  0  0  0
  7  8  1  0  0  0  0
 11 12  1  0  0  0  0
 10 12  2  0  0  0  0
  6  7  3  0  0  0  0
  9 10  1  0  0  0  0
  5  6  1  0  0  0  0
  2  5  1  0  0  0  0
  2  3  2  0  0  0  0
  1  2  1  0  0  0  0
  2  4  2  0  0  0  0
  1 25  1  0  0  0  0
  1 26  1  0  0  0  0
  1 27  1  0  0  0  0
  5 28  1  0  0  0  0
  8 29  1  0  0  0  0
 10 30  1  0  0  0  0
 14 31  1  0  0  0  0
 14 32  1  0  0  0  0
 17 33  1  0  0  0  0
 21 34  1  0  0  0  0
 22 35  1  0  0  0  0
 22 36  1  0  0  0  0
M  CHG  1  22   1
M  END
> <Chemgauss4>
-10.348644

$$$$
