stable:False satoms:17 tatoms:24 sratio:0.7083333333333334
  -OEChem-08062410113D

 32 32  0     1  0  0  0  0  0999 V2000
  -14.0746    1.0169  -23.0208 Cl  0  0  0  0  0  0  0  0  0  0  0  0
  -13.0724   -0.3094  -23.9206 S   0  0  0  0  0  0  0  0  0  0  0  0
  -13.2163   -0.0057  -25.3245 O   0  0  0  0  0  0  0  0  0  0  0  0
  -13.5608   -1.5851  -23.5219 O   0  0  0  0  0  0  0  0  0  0  0  0
  -11.5647   -0.0068  -23.3888 N   0  0  0  0  0  0  0  0  0  0  0  0
  -10.6534   -0.8344  -23.4801 C   0  0  0  0  0  0  0  0  0  0  0  0
   -9.7576   -1.5308  -23.3640 C   0  0  0  0  0  0  0  0  0  0  0  0
   -8.7125   -2.4574  -23.3416 C   0  0  3  0  0  0  0  0  0  0  0  0
   -8.6915   -3.8035  -23.8315 C   0  0  0  0  0  0  0  0  0  0  0  0
   -9.0874   -4.7158  -23.5109 H   0  0  0  0  0  0  0  0  0  0  0  0
   -7.6732   -4.7213  -25.4571 H   0  0  0  0  0  0  0  0  0  0  0  0
   -7.8136   -3.8040  -24.9846 C   0  0  0  0  0  0  0  0  0  0  0  0
   -7.4002   -2.8570  -25.2650 H   0  0  0  0  0  0  0  0  0  0  0  0
   -7.6702   -2.0709  -22.8353 N   0  0  0  0  0  0  0  0  0  0  0  0
   -7.0129   -1.7700  -21.6985 C   0  0  0  0  0  0  0  0  0  0  0  0
   -6.1807   -2.5277  -21.2680 O   0  0  0  0  0  0  0  0  0  0  0  0
   -7.3497   -0.5582  -21.1359 N   0  0  0  0  0  0  0  0  0  0  0  0
   -6.5307   -0.0248  -20.2402 C   0  0  0  0  0  0  0  0  0  0  0  0
   -5.3422    0.3973  -20.4474 N   0  0  0  0  0  0  0  0  0  0  0  0
   -3.8960    1.5297  -19.3432 N   0  0  0  0  0  0  0  0  0  0  0  0
   -4.8427    1.1064  -19.2486 C   0  0  0  0  0  0  0  0  0  0  0  0
   -5.9398    0.8373  -18.5673 C   0  0  0  0  0  0  0  0  0  0  0  0
   -7.0086    0.2383  -18.8808 C   0  0  0  0  0  0  0  0  0  0  0  0
   -7.9809   -0.0103  -18.4269 H   0  0  0  0  0  0  0  0  0  0  0  0
  -11.6504    0.2067  -22.4157 H   0  0  0  0  0  0  0  0  0  0  0  0
   -9.0547   -2.8196  -22.3609 H   0  0  0  0  0  0  0  0  0  0  0  0
   -7.0307   -1.9081  -23.5867 H   0  0  0  0  0  0  0  0  0  0  0  0
   -8.1942   -0.0910  -21.3976 H   0  0  0  0  0  0  0  0  0  0  0  0
   -4.8264    0.2676  -21.2942 H   0  0  0  0  0  0  0  0  0  0  0  0
   -3.6465    1.9837  -18.4878 H   0  0  0  0  0  0  0  0  0  0  0  0
   -3.2293    0.8128  -19.5468 H   0  0  0  0  0  0  0  0  0  0  0  0
   -5.9219    1.1965  -17.5490 H   0  0  0  0  0  0  0  0  0  0  0  0
 20 21  1  0  0  0  0
 19 21  1  0  0  0  0
 21 22  2  0  0  0  0
 18 19  1  0  0  0  0
 22 23  1  0  0  0  0
 18 23  2  0  0  0  0
 17 18  1  0  0  0  0
 23 24  1  0  0  0  0
 15 16  2  0  0  0  0
 15 17  1  0  0  0  0
 14 15  1  0  0  0  0
  8 14  1  0  0  0  0
 12 13  1  0  0  0  0
 11 12  1  0  0  0  0
  9 12  2  0  0  0  0
  8  9  1  0  0  0  0
  7  8  1  0  0  0  0
  9 10  1  0  0  0  0
  6  7  3  0  0  0  0
  5  6  1  0  0  0  0
  2  5  1  0  0  0  0
  2  3  2  0  0  0  0
  1  2  1  0  0  0  0
  2  4  2  0  0  0  0
  5 25  1  0  0  0  0
  8 26  1  0  0  0  0
 14 27  1  0  0  0  0
 17 28  1  0  0  0  0
 19 29  1  0  0  0  0
 20 30  1  0  0  0  0
 20 31  1  0  0  0  0
 22 32  1  0  0  0  0
M  END
> <Chemgauss4>
-8.580826

$$$$
