stable:False satoms:17 tatoms:24 sratio:0.7083333333333334
  -OEChem-08062410113D

 32 32  0     1  0  0  0  0  0999 V2000
   13.8622    0.8960   22.8842 Cl  0  0  0  0  0  0  0  0  0  0  0  0
   12.8600   -0.4304   23.7841 S   0  0  0  0  0  0  0  0  0  0  0  0
   13.0039   -0.1266   25.1880 O   0  0  0  0  0  0  0  0  0  0  0  0
   13.3484   -1.7060   23.3854 O   0  0  0  0  0  0  0  0  0  0  0  0
   11.3523   -0.1277   23.2523 N   0  0  0  0  0  0  0  0  0  0  0  0
   10.4410   -0.9554   23.3436 C   0  0  0  0  0  0  0  0  0  0  0  0
    9.5452   -1.6517   23.2275 C   0  0  0  0  0  0  0  0  0  0  0  0
    8.5001   -2.5784   23.2051 C   0  0  3  0  0  0  0  0  0  0  0  0
    8.4791   -3.9244   23.6950 C   0  0  0  0  0  0  0  0  0  0  0  0
    8.8750   -4.8367   23.3744 H   0  0  0  0  0  0  0  0  0  0  0  0
    7.4608   -4.8422   25.3206 H   0  0  0  0  0  0  0  0  0  0  0  0
    7.6012   -3.9249   24.8480 C   0  0  0  0  0  0  0  0  0  0  0  0
    7.1877   -2.9780   25.1285 H   0  0  0  0  0  0  0  0  0  0  0  0
    7.4578   -2.1918   22.6988 N   0  0  0  0  0  0  0  0  0  0  0  0
    6.8005   -1.8909   21.5620 C   0  0  0  0  0  0  0  0  0  0  0  0
    5.9683   -2.6487   21.1315 O   0  0  0  0  0  0  0  0  0  0  0  0
    7.1373   -0.6792   20.9993 N   0  0  0  0  0  0  0  0  0  0  0  0
    6.3183   -0.1457   20.1037 C   0  0  0  0  0  0  0  0  0  0  0  0
    5.1298    0.2764   20.3109 N   0  0  0  0  0  0  0  0  0  0  0  0
    3.6836    1.4088   19.2067 N   0  0  0  0  0  0  0  0  0  0  0  0
    4.6303    0.9855   19.1121 C   0  0  0  0  0  0  0  0  0  0  0  0
    5.7274    0.7163   18.4308 C   0  0  0  0  0  0  0  0  0  0  0  0
    6.7962    0.1174   18.7443 C   0  0  0  0  0  0  0  0  0  0  0  0
    7.7685   -0.1312   18.2904 H   0  0  0  0  0  0  0  0  0  0  0  0
   11.4380    0.0858   22.2791 H   0  0  0  0  0  0  0  0  0  0  0  0
    8.8422   -2.9406   22.2244 H   0  0  0  0  0  0  0  0  0  0  0  0
    6.8183   -2.0290   23.4502 H   0  0  0  0  0  0  0  0  0  0  0  0
    7.9818   -0.2119   21.2611 H   0  0  0  0  0  0  0  0  0  0  0  0
    4.6140    0.1466   21.1577 H   0  0  0  0  0  0  0  0  0  0  0  0
    3.4340    1.8628   18.3513 H   0  0  0  0  0  0  0  0  0  0  0  0
    3.0168    0.6919   19.4103 H   0  0  0  0  0  0  0  0  0  0  0  0
    5.7095    1.0755   17.4125 H   0  0  0  0  0  0  0  0  0  0  0  0
 20 21  1  0  0  0  0
 19 21  1  0  0  0  0
 21 22  2  0  0  0  0
 18 19  1  0  0  0  0
 22 23  1  0  0  0  0
 18 23  2  0  0  0  0
 17 18  1  0  0  0  0
 23 24  1  0  0  0  0
 15 16  2  0  0  0  0
 15 17  1  0  0  0  0
 14 15  1  0  0  0  0
  8 14  1  0  0  0  0
 12 13  1  0  0  0  0
 11 12  1  0  0  0  0
  9 12  2  0  0  0  0
  8  9  1  0  0  0  0
  7  8  1  0  0  0  0
  9 10  1  0  0  0  0
  6  7  3  0  0  0  0
  5  6  1  0  0  0  0
  2  5  1  0  0  0  0
  2  3  2  0  0  0  0
  1  2  1  0  0  0  0
  2  4  2  0  0  0  0
  5 25  1  0  0  0  0
  8 26  1  0  0  0  0
 14 27  1  0  0  0  0
 17 28  1  0  0  0  0
 19 29  1  0  0  0  0
 20 30  1  0  0  0  0
 20 31  1  0  0  0  0
 22 32  1  0  0  0  0
M  END
> <Chemgauss4>
-8.879435

$$$$
