stable:False satoms:18 tatoms:24 sratio:0.75
  -OEChem-07092417303D

 24 25  0     0  0  0  0  0  0999 V2000
    9.3001    2.5170   20.1039 H   0  0  0  0  0  0  0  0  0  0  0  0
    7.7443   -4.7140   23.8641 C   0  0  0  0  0  0  0  0  0  0  0  0
    9.2084    1.7582   20.8899 C   0  0  0  0  0  0  0  0  0  0  0  0
    6.7294   -1.3057   22.4389 H   0  0  0  0  0  0  0  0  0  0  0  0
    6.4200    0.8897   22.1559 H   0  0  0  0  0  0  0  0  0  0  0  0
    8.8181   -1.4171   22.8243 C   0  0  0  0  0  0  0  0  0  0  0  0
   10.3568    1.5050   21.6188 C   0  0  0  0  0  0  0  0  0  0  0  0
    7.5259   -0.6385   22.8031 C   0  0  0  0  0  0  0  0  0  0  0  0
   10.1226   -0.9486   22.5566 C   0  0  0  0  0  0  0  0  0  0  0  0
    7.3982   -3.3901   23.6322 C   0  0  0  0  0  0  0  0  0  0  0  0
    7.9741    1.1218   20.9526 C   0  0  0  0  0  0  0  0  0  0  0  0
   12.5836    0.3695   22.9525 Br  0  0  0  0  0  0  0  0  0  0  0  0
    9.1009   -4.7781   23.7145 C   0  0  0  0  0  0  0  0  0  0  0  0
    7.4018    0.6067   22.0219 N   0  0  0  0  0  0  0  0  0  0  0  0
    8.5853   -2.7389   23.2275 C   0  0  0  0  0  0  0  0  0  0  0  0
   11.0879    2.3313   21.6511 H   0  0  0  0  0  0  0  0  0  0  0  0
    9.7921   -5.6028   23.8767 H   0  0  0  0  0  0  0  0  0  0  0  0
    6.4182   -2.9544   23.7588 H   0  0  0  0  0  0  0  0  0  0  0  0
    7.0812   -5.5154   24.1678 H   0  0  0  0  0  0  0  0  0  0  0  0
   10.7334    0.3201   22.2875 C   0  0  0  0  0  0  0  0  0  0  0  0
    9.6224   -3.6295   23.3227 O   0  0  0  0  0  0  0  0  0  0  0  0
   10.8558   -1.7583   22.6095 H   0  0  0  0  0  0  0  0  0  0  0  0
    7.4042    1.0590   20.0126 H   0  0  0  0  0  0  0  0  0  0  0  0
    7.3196   -0.3770   23.8534 H   0  0  0  0  0  0  0  0  0  0  0  0
 11 23  1  0  0  0  0
  1  3  1  0  0  0  0
  3 11  2  0  0  0  0
  3  7  1  0  0  0  0
 11 14  1  0  0  0  0
  7 16  1  0  0  0  0
  7 20  2  0  0  0  0
  5 14  1  0  0  0  0
  8 14  1  0  0  0  0
  9 20  1  0  0  0  0
 12 20  1  0  0  0  0
  4  8  1  0  0  0  0
  9 22  1  0  0  0  0
  6  9  2  0  0  0  0
  6  8  1  0  0  0  0
  8 24  1  0  0  0  0
  6 15  1  0  0  0  0
 15 21  1  0  0  0  0
 10 15  2  0  0  0  0
 13 21  1  0  0  0  0
 10 18  1  0  0  0  0
  2 10  1  0  0  0  0
  2 13  2  0  0  0  0
 13 17  1  0  0  0  0
  2 19  1  0  0  0  0
M  END
> <Shapegauss>
-121.134903

$$$$
