stable:False satoms:18 tatoms:24 sratio:0.75
  -OEChem-08052414473D

 25 26  0     0  0  0  0  0  0999 V2000
   -6.3887   -1.1838  -26.9225 H   0  0  0  0  0  0  0  0  0  0  0  0
  -13.9341   -0.7730  -23.4953 C   0  0  0  0  0  0  0  0  0  0  0  0
   -7.1848   -0.9942  -26.1929 C   0  0  0  0  0  0  0  0  0  0  0  0
  -11.0930    0.5582  -25.6939 H   0  0  0  0  0  0  0  0  0  0  0  0
   -8.3910    1.0420  -25.4025 H   0  0  0  0  0  0  0  0  0  0  0  0
  -10.4066   -0.8934  -24.2990 C   0  0  0  0  0  0  0  0  0  0  0  0
   -7.0261   -1.5982  -24.9584 C   0  0  0  0  0  0  0  0  0  0  0  0
  -10.1992    0.3839  -25.0750 C   0  0  0  0  0  0  0  0  0  0  0  0
   -9.4430   -1.8591  -23.9362 C   0  0  0  0  0  0  0  0  0  0  0  0
  -12.8382   -0.1273  -24.0506 C   0  0  0  0  0  0  0  0  0  0  0  0
   -8.2577   -0.2513  -26.6721 C   0  0  0  0  0  0  0  0  0  0  0  0
   -7.3019   -3.0534  -22.5432 Br  0  0  0  0  0  0  0  0  0  0  0  0
  -13.4476   -1.9187  -22.9316 C   0  0  0  0  0  0  0  0  0  0  0  0
   -9.0428    0.5461  -25.9764 N   0  3  0  0  0  0  0  0  0  0  0  0
  -11.7421   -1.0044  -23.8890 C   0  0  0  0  0  0  0  0  0  0  0  0
   -5.9848   -1.8332  -24.6776 H   0  0  0  0  0  0  0  0  0  0  0  0
  -13.9449   -2.6779  -22.3313 H   0  0  0  0  0  0  0  0  0  0  0  0
  -12.8345    0.8566  -24.4959 H   0  0  0  0  0  0  0  0  0  0  0  0
  -14.9537   -0.4079  -23.4587 H   0  0  0  0  0  0  0  0  0  0  0  0
   -8.0188   -1.9901  -24.0343 C   0  0  0  0  0  0  0  0  0  0  0  0
  -12.1583   -2.0893  -23.1627 O   0  0  0  0  0  0  0  0  0  0  0  0
   -9.9010   -2.7014  -23.4101 H   0  0  0  0  0  0  0  0  0  0  0  0
   -8.4612   -0.3204  -27.7520 H   0  0  0  0  0  0  0  0  0  0  0  0
  -10.1277    1.1822  -24.3189 H   0  0  0  0  0  0  0  0  0  0  0  0
   -9.4026    1.1599  -26.6791 H   0  0  0  0  0  0  0  0  0  0  0  0
 11 23  1  0  0  0  0
  1  3  1  0  0  0  0
  3 11  2  0  0  0  0
  3  7  1  0  0  0  0
 11 14  1  0  0  0  0
  7 16  1  0  0  0  0
  7 20  2  0  0  0  0
  5 14  1  0  0  0  0
  8 14  1  0  0  0  0
  9 20  1  0  0  0  0
 12 20  1  0  0  0  0
  4  8  1  0  0  0  0
  9 22  1  0  0  0  0
  6  9  2  0  0  0  0
  6  8  1  0  0  0  0
  8 24  1  0  0  0  0
  6 15  1  0  0  0  0
 15 21  1  0  0  0  0
 10 15  2  0  0  0  0
 13 21  1  0  0  0  0
 10 18  1  0  0  0  0
  2 10  1  0  0  0  0
  2 13  2  0  0  0  0
 13 17  1  0  0  0  0
  2 19  1  0  0  0  0
 14 25  1  0  0  0  0
M  CHG  1  14   1
M  END
> <Chemgauss4>
-7.069057

$$$$
