stable:False satoms:19 tatoms:24 sratio:0.7916666666666666
  -OEChem-08062401313D

 26 26  0     1  0  0  0  0  0999 V2000
   14.0021   -2.6258   22.8973 H   0  0  0  0  0  0  0  0  0  0  0  0
   13.6356   -1.6232   23.0781 C   0  0  0  0  0  0  0  0  0  0  0  0
   14.1367   -0.9325   22.4285 H   0  0  0  0  0  0  0  0  0  0  0  0
   13.7823   -1.3471   24.1195 H   0  0  0  0  0  0  0  0  0  0  0  0
   11.8465   -1.7225   22.7812 S   0  0  0  0  0  0  0  0  0  0  0  0
   10.5599    0.5103   22.0599 C   0  0  0  0  0  0  0  0  0  0  0  0
   11.3117   -0.0853   23.0325 C   0  0  0  0  0  0  0  0  0  0  0  0
   12.0176    0.2843   25.0421 H   0  0  0  0  0  0  0  0  0  0  0  0
   11.5584    0.6891   24.1758 C   0  0  0  0  0  0  0  0  0  0  0  0
   10.7710    2.6776   23.1833 C   0  0  0  0  0  0  0  0  0  0  0  0
   11.2096    1.9360   24.0557 C   0  0  0  0  0  0  0  0  0  0  0  0
   10.7799    3.7554   23.1817 H   0  0  0  0  0  0  0  0  0  0  0  0
    8.4914    1.2051   21.1372 H   0  0  0  0  0  0  0  0  0  0  0  0
   10.3745    1.9062   22.0904 C   0  0  0  0  0  0  0  0  0  0  0  0
   10.0309    2.4142   21.2151 H   0  0  0  0  0  0  0  0  0  0  0  0
    8.6071    0.1356   20.8276 C   0  0  1  0  0  0  0  0  0  0  0  0
    9.9102   -0.2628   21.1035 N   0  0  0  0  0  0  0  0  0  0  0  0
    6.3363   -0.0218   19.8671 H   0  0  0  0  0  0  0  0  0  0  0  0
    8.3555    0.0014   19.4655 O   0  0  0  0  0  0  0  0  0  0  0  0
    6.8603    0.7518   18.3452 H   0  0  0  0  0  0  0  0  0  0  0  0
    6.8037   -1.0080   18.4550 H   0  0  0  0  0  0  0  0  0  0  0  0
    7.4081   -1.5315   20.7570 H   0  0  0  0  0  0  0  0  0  0  0  0
    7.0242   -0.1014   19.0325 C   0  0  0  0  0  0  0  0  0  0  0  0
    7.7608   -0.8987   21.4384 O   0  0  0  0  0  0  0  0  0  0  0  0
   11.3440    2.4680   24.9859 H   0  0  0  0  0  0  0  0  0  0  0  0
    9.8854   -1.2076   21.4300 H   0  0  0  0  0  0  0  0  0  0  0  0
 20 23  1  0  0  0  0
 21 23  1  0  0  0  0
 18 23  1  0  0  0  0
 19 23  1  0  0  0  0
 16 19  1  0  0  0  0
 13 16  1  0  0  0  0
 16 24  1  0  0  0  0
 16 17  1  0  0  0  0
 22 24  1  0  0  0  0
 14 15  1  0  0  0  0
  6 17  1  0  0  0  0
  6 14  2  0  0  0  0
 10 14  1  0  0  0  0
 10 12  1  0  0  0  0
  6  7  1  0  0  0  0
 10 11  2  0  0  0  0
  5  7  1  0  0  0  0
  7  9  2  0  0  0  0
  9 11  1  0  0  0  0
  2  5  1  0  0  0  0
  8  9  1  0  0  0  0
  2  3  1  0  0  0  0
  1  2  1  0  0  0  0
  2  4  1  0  0  0  0
 11 25  1  0  0  0  0
 17 26  1  0  0  0  0
M  END
> <Chemgauss4>
-6.889159

$$$$
