stable:False satoms:19 tatoms:24 sratio:0.7916666666666666
  -OEChem-08062401313D

 26 26  0     1  0  0  0  0  0999 V2000
  -14.0364   -2.5578  -23.1929 H   0  0  0  0  0  0  0  0  0  0  0  0
  -13.6699   -1.5552  -23.3736 C   0  0  0  0  0  0  0  0  0  0  0  0
  -14.1710   -0.8646  -22.7240 H   0  0  0  0  0  0  0  0  0  0  0  0
  -13.8166   -1.2791  -24.4151 H   0  0  0  0  0  0  0  0  0  0  0  0
  -11.8808   -1.6545  -23.0768 S   0  0  0  0  0  0  0  0  0  0  0  0
  -10.5942    0.5783  -22.3555 C   0  0  0  0  0  0  0  0  0  0  0  0
  -11.3460   -0.0174  -23.3280 C   0  0  0  0  0  0  0  0  0  0  0  0
  -12.0519    0.3523  -25.3377 H   0  0  0  0  0  0  0  0  0  0  0  0
  -11.5927    0.7571  -24.4713 C   0  0  0  0  0  0  0  0  0  0  0  0
  -10.8053    2.7456  -23.4789 C   0  0  0  0  0  0  0  0  0  0  0  0
  -11.2439    2.0040  -24.3513 C   0  0  0  0  0  0  0  0  0  0  0  0
  -10.8142    3.8234  -23.4773 H   0  0  0  0  0  0  0  0  0  0  0  0
   -8.5257    1.2731  -21.4327 H   0  0  0  0  0  0  0  0  0  0  0  0
  -10.4088    1.9742  -22.3860 C   0  0  0  0  0  0  0  0  0  0  0  0
  -10.0652    2.4822  -21.5107 H   0  0  0  0  0  0  0  0  0  0  0  0
   -8.6414    0.2036  -21.1232 C   0  0  1  0  0  0  0  0  0  0  0  0
   -9.9445   -0.1948  -21.3991 N   0  0  0  0  0  0  0  0  0  0  0  0
   -6.3706    0.0462  -20.1627 H   0  0  0  0  0  0  0  0  0  0  0  0
   -8.3898    0.0694  -19.7611 O   0  0  0  0  0  0  0  0  0  0  0  0
   -6.8946    0.8198  -18.6408 H   0  0  0  0  0  0  0  0  0  0  0  0
   -6.8380   -0.9401  -18.7506 H   0  0  0  0  0  0  0  0  0  0  0  0
   -7.4424   -1.4636  -21.0526 H   0  0  0  0  0  0  0  0  0  0  0  0
   -7.0584   -0.0334  -19.3281 C   0  0  0  0  0  0  0  0  0  0  0  0
   -7.7951   -0.8307  -21.7340 O   0  0  0  0  0  0  0  0  0  0  0  0
  -11.3783    2.5360  -25.2815 H   0  0  0  0  0  0  0  0  0  0  0  0
   -9.9197   -1.1396  -21.7256 H   0  0  0  0  0  0  0  0  0  0  0  0
 20 23  1  0  0  0  0
 21 23  1  0  0  0  0
 18 23  1  0  0  0  0
 19 23  1  0  0  0  0
 16 19  1  0  0  0  0
 13 16  1  0  0  0  0
 16 24  1  0  0  0  0
 16 17  1  0  0  0  0
 22 24  1  0  0  0  0
 14 15  1  0  0  0  0
  6 17  1  0  0  0  0
  6 14  2  0  0  0  0
 10 14  1  0  0  0  0
 10 12  1  0  0  0  0
  6  7  1  0  0  0  0
 10 11  2  0  0  0  0
  5  7  1  0  0  0  0
  7  9  2  0  0  0  0
  9 11  1  0  0  0  0
  2  5  1  0  0  0  0
  8  9  1  0  0  0  0
  2  3  1  0  0  0  0
  1  2  1  0  0  0  0
  2  4  1  0  0  0  0
 11 25  1  0  0  0  0
 17 26  1  0  0  0  0
M  END
> <Chemgauss4>
-6.705209

$$$$
