stable:False satoms:7 tatoms:24 sratio:0.2916666666666667
  -OEChem-07092417473D

 24 25  0     1  0  0  0  0  0999 V2000
    6.5390   -4.8357   26.4327 C   0  0  0  0  0  0  0  0  0  0  0  0
    8.2451   -4.3177   26.1231 S   0  0  0  0  0  0  0  0  0  0  0  0
    9.0423   -5.5101   26.0047 O   0  0  0  0  0  0  0  0  0  0  0  0
    8.6385   -3.4445   27.1842 O   0  0  0  0  0  0  0  0  0  0  0  0
    8.1511   -3.5463   24.6620 N   0  0  0  0  0  0  0  0  0  0  0  0
    8.9433   -2.8853   24.1293 C   0  0  0  0  0  0  0  0  0  0  0  0
    9.4000   -2.0031   23.5605 C   0  0  0  0  0  0  0  0  0  0  0  0
   10.2667   -1.0761   23.3084 C   0  0  2  0  0  0  0  0  0  0  0  0
   11.0485   -0.0030   24.3078 C   0  0  0  0  0  0  0  0  0  0  0  0
   12.1014    0.2873   24.2587 C   0  0  0  0  0  0  0  0  0  0  0  0
   13.1950   -0.1487   23.4785 C   0  0  0  0  0  0  0  0  0  0  0  0
   12.7270   -1.2604   22.7087 C   0  0  0  0  0  0  0  0  0  0  0  0
   11.8642   -1.7651   22.5393 C   0  0  0  0  0  0  0  0  0  0  0  0
    9.7190   -0.5666   22.3591 C   0  0  0  0  0  0  0  0  0  0  0  0
    9.0603    0.0346   21.3733 C   0  0  0  0  0  0  0  0  0  0  0  0
    9.5363    0.9790   20.9126 O   0  0  0  0  0  0  0  0  0  0  0  0
    7.9014   -0.5759   21.0873 N   0  0  0  0  0  0  0  0  0  0  0  0
    7.2072   -0.1134   20.1650 C   0  0  0  0  0  0  0  0  0  0  0  0
    7.1734    0.0067   18.8785 C   0  0  0  0  0  0  0  0  0  0  0  0
    6.7828    0.2852   17.7491 N   0  0  0  0  0  0  0  0  0  0  0  0
    5.6857    0.8429   18.2764 C   0  0  0  0  0  0  0  0  0  0  0  0
    5.2588    0.9866   19.3830 C   0  0  0  0  0  0  0  0  0  0  0  0
    5.7858    0.6089   20.5585 C   0  0  0  0  0  0  0  0  0  0  0  0
    5.3114    0.7306   21.8560 C   0  0  0  0  0  0  0  0  0  0  0  0
 20 21  2  0  0  0  0
 19 20  1  0  0  0  0
 19 21  1  0  0  0  0
 21 22  1  0  0  0  0
 18 19  2  0  0  0  0
 22 23  2  0  0  0  0
 18 23  1  0  0  0  0
 17 18  1  0  0  0  0
 23 24  1  0  0  0  0
 15 16  2  0  0  0  0
 15 17  1  0  0  0  0
 14 15  1  0  0  0  0
  8 14  1  0  0  0  0
 12 13  2  0  0  0  0
 11 12  1  0  0  0  0
  7  8  1  0  0  0  0
  8  9  1  0  0  0  0
 10 11  1  0  0  0  0
  6  7  3  0  0  0  0
  5  6  1  0  0  0  0
  9 10  2  0  0  0  0
  2  5  1  0  0  0  0
  2  3  2  0  0  0  0
  1  2  1  0  0  0  0
  2  4  2  0  0  0  0
M  END
> <Shapegauss>
-285.632141

$$$$
