stable:False satoms:7 tatoms:24 sratio:0.2916666666666667
  -OEChem-08062414133D

 43 44  0     1  0  0  0  0  0999 V2000
    6.3282   -5.4154   26.0694 C   0  0  0  0  0  0  0  0  0  0  0  0
    8.0533   -4.8850   25.9361 S   0  0  0  0  0  0  0  0  0  0  0  0
    8.8554   -6.0678   25.7657 O   0  0  0  0  0  0  0  0  0  0  0  0
    8.3682   -4.1179   27.1004 O   0  0  0  0  0  0  0  0  0  0  0  0
    8.0689   -3.9800   24.5507 N   0  0  0  0  0  0  0  0  0  0  0  0
    8.8993   -3.2788   24.1420 C   0  0  0  0  0  0  0  0  0  0  0  0
    9.3982   -2.3513   23.6934 C   0  0  0  0  0  0  0  0  0  0  0  0
   10.2824   -1.4121   23.5937 C   0  0  2  0  0  0  0  0  0  0  0  0
   10.9895   -0.4434   24.7440 C   0  0  0  0  0  0  0  0  0  0  0  0
   12.0436   -0.1585   24.8000 C   0  0  0  0  0  0  0  0  0  0  0  0
   13.1914   -0.5290   24.0651 C   0  0  0  0  0  0  0  0  0  0  0  0
   12.7802   -1.5601   23.1622 C   0  0  0  0  0  0  0  0  0  0  0  0
   11.9316   -2.0397   22.8833 C   0  0  0  0  0  0  0  0  0  0  0  0
    9.8073   -0.8118   22.6585 C   0  0  0  0  0  0  0  0  0  0  0  0
    9.2243   -0.1158   21.6875 C   0  0  0  0  0  0  0  0  0  0  0  0
    9.7345    0.8634   21.3535 O   0  0  0  0  0  0  0  0  0  0  0  0
    8.0889   -0.6873   21.2611 N   0  0  0  0  0  0  0  0  0  0  0  0
    7.4656   -0.1351   20.3375 C   0  0  0  0  0  0  0  0  0  0  0  0
    7.5274    0.1047   19.0689 C   0  0  0  0  0  0  0  0  0  0  0  0
    7.2220    0.4905   17.9448 N   0  0  0  0  0  0  0  0  0  0  0  0
    6.0896    1.0058   18.4398 C   0  0  0  0  0  0  0  0  0  0  0  0
    5.5821    1.0492   19.5205 C   0  0  0  0  0  0  0  0  0  0  0  0
    6.0200    0.5592   20.6911 C   0  0  0  0  0  0  0  0  0  0  0  0
    5.4509    0.5634   21.9558 C   0  0  0  0  0  0  0  0  0  0  0  0
    6.2027   -6.0337   26.9705 H   0  0  0  0  0  0  0  0  0  0  0  0
    5.6772   -4.5314   26.1379 H   0  0  0  0  0  0  0  0  0  0  0  0
    6.0558   -6.0034   25.1806 H   0  0  0  0  0  0  0  0  0  0  0  0
    7.2645   -3.3913   24.6303 H   0  0  0  0  0  0  0  0  0  0  0  0
   11.1659   -1.9229   23.1831 H   0  0  0  0  0  0  0  0  0  0  0  0
   10.3412   -0.0553   25.5157 H   0  0  0  0  0  0  0  0  0  0  0  0
   12.2508    0.5569   25.5820 H   0  0  0  0  0  0  0  0  0  0  0  0
   13.9713   -0.9061   24.7429 H   0  0  0  0  0  0  0  0  0  0  0  0
   13.5789    0.3346   23.5046 H   0  0  0  0  0  0  0  0  0  0  0  0
   13.6281   -1.9423   22.6133 H   0  0  0  0  0  0  0  0  0  0  0  0
   11.9711   -2.8136   22.1310 H   0  0  0  0  0  0  0  0  0  0  0  0
   10.9881   -1.7765   23.3383 H   0  0  0  0  0  0  0  0  0  0  0  0
    9.6735   -1.7483   22.0973 H   0  0  0  0  0  0  0  0  0  0  0  0
   10.7865   -0.3743   22.4138 H   0  0  0  0  0  0  0  0  0  0  0  0
    7.7528   -1.5338   21.6740 H   0  0  0  0  0  0  0  0  0  0  0  0
    4.6303    1.5579   19.5618 H   0  0  0  0  0  0  0  0  0  0  0  0
    4.8268   -0.3338   22.0806 H   0  0  0  0  0  0  0  0  0  0  0  0
    6.2463    0.5651   22.7156 H   0  0  0  0  0  0  0  0  0  0  0  0
    4.8283    1.4624   22.0746 H   0  0  0  0  0  0  0  0  0  0  0  0
 20 21  2  0  0  0  0
 19 20  1  0  0  0  0
 19 21  1  0  0  0  0
 21 22  1  0  0  0  0
 18 19  2  0  0  0  0
 22 23  2  0  0  0  0
 18 23  1  0  0  0  0
 17 18  1  0  0  0  0
 23 24  1  0  0  0  0
 15 16  2  0  0  0  0
 15 17  1  0  0  0  0
 14 15  1  0  0  0  0
  8 14  1  0  0  0  0
 12 13  2  0  0  0  0
 11 12  1  0  0  0  0
  7  8  1  0  0  0  0
  8  9  1  0  0  0  0
 10 11  1  0  0  0  0
  6  7  3  0  0  0  0
  5  6  1  0  0  0  0
  9 10  2  0  0  0  0
  2  5  1  0  0  0  0
  2  3  2  0  0  0  0
  1  2  1  0  0  0  0
  2  4  2  0  0  0  0
  1 25  1  0  0  0  0
  1 26  1  0  0  0  0
  1 27  1  0  0  0  0
  5 28  1  0  0  0  0
  8 29  1  0  0  0  0
  9 30  1  0  0  0  0
 10 31  1  0  0  0  0
 11 32  1  0  0  0  0
 11 33  1  0  0  0  0
 12 34  1  0  0  0  0
 13 35  1  0  0  0  0
 13 36  1  0  0  0  0
 14 37  1  0  0  0  0
 14 38  1  0  0  0  0
 17 39  1  0  0  0  0
 22 40  1  0  0  0  0
 24 41  1  0  0  0  0
 24 42  1  0  0  0  0
 24 43  1  0  0  0  0
M  END
> <Chemgauss4>
-9.121101

$$$$
