stable:False satoms:7 tatoms:24 sratio:0.2916666666666667
  -OEChem-08062414133D

 43 44  0     1  0  0  0  0  0999 V2000
   -6.2076   -5.3064  -26.0694 C   0  0  0  0  0  0  0  0  0  0  0  0
   -7.9326   -4.7760  -25.9361 S   0  0  0  0  0  0  0  0  0  0  0  0
   -8.7347   -5.9588  -25.7657 O   0  0  0  0  0  0  0  0  0  0  0  0
   -8.2476   -4.0089  -27.1004 O   0  0  0  0  0  0  0  0  0  0  0  0
   -7.9482   -3.8710  -24.5507 N   0  0  0  0  0  0  0  0  0  0  0  0
   -8.7787   -3.1699  -24.1420 C   0  0  0  0  0  0  0  0  0  0  0  0
   -9.2775   -2.2423  -23.6935 C   0  0  0  0  0  0  0  0  0  0  0  0
  -10.1618   -1.3031  -23.5937 C   0  0  2  0  0  0  0  0  0  0  0  0
  -10.8689   -0.3344  -24.7440 C   0  0  0  0  0  0  0  0  0  0  0  0
  -11.9229   -0.0495  -24.8000 C   0  0  0  0  0  0  0  0  0  0  0  0
  -13.0707   -0.4200  -24.0651 C   0  0  0  0  0  0  0  0  0  0  0  0
  -12.6595   -1.4512  -23.1622 C   0  0  0  0  0  0  0  0  0  0  0  0
  -11.8109   -1.9307  -22.8833 C   0  0  0  0  0  0  0  0  0  0  0  0
   -9.6867   -0.7028  -22.6585 C   0  0  0  0  0  0  0  0  0  0  0  0
   -9.1037   -0.0068  -21.6875 C   0  0  0  0  0  0  0  0  0  0  0  0
   -9.6138    0.9724  -21.3535 O   0  0  0  0  0  0  0  0  0  0  0  0
   -7.9683   -0.5783  -21.2611 N   0  0  0  0  0  0  0  0  0  0  0  0
   -7.3450   -0.0261  -20.3375 C   0  0  0  0  0  0  0  0  0  0  0  0
   -7.4068    0.2137  -19.0689 C   0  0  0  0  0  0  0  0  0  0  0  0
   -7.1013    0.5995  -17.9448 N   0  0  0  0  0  0  0  0  0  0  0  0
   -5.9690    1.1148  -18.4398 C   0  0  0  0  0  0  0  0  0  0  0  0
   -5.4614    1.1582  -19.5205 C   0  0  0  0  0  0  0  0  0  0  0  0
   -5.8993    0.6682  -20.6911 C   0  0  0  0  0  0  0  0  0  0  0  0
   -5.3303    0.6723  -21.9558 C   0  0  0  0  0  0  0  0  0  0  0  0
   -6.0821   -5.9247  -26.9705 H   0  0  0  0  0  0  0  0  0  0  0  0
   -5.5565   -4.4224  -26.1379 H   0  0  0  0  0  0  0  0  0  0  0  0
   -5.9352   -5.8944  -25.1806 H   0  0  0  0  0  0  0  0  0  0  0  0
   -7.1438   -3.2823  -24.6303 H   0  0  0  0  0  0  0  0  0  0  0  0
  -11.0452   -1.8139  -23.1831 H   0  0  0  0  0  0  0  0  0  0  0  0
  -10.2205    0.0537  -25.5157 H   0  0  0  0  0  0  0  0  0  0  0  0
  -12.1302    0.6659  -25.5820 H   0  0  0  0  0  0  0  0  0  0  0  0
  -13.8507   -0.7971  -24.7429 H   0  0  0  0  0  0  0  0  0  0  0  0
  -13.4583    0.4436  -23.5046 H   0  0  0  0  0  0  0  0  0  0  0  0
  -13.5075   -1.8333  -22.6133 H   0  0  0  0  0  0  0  0  0  0  0  0
  -11.8504   -2.7046  -22.1310 H   0  0  0  0  0  0  0  0  0  0  0  0
  -10.8675   -1.6675  -23.3383 H   0  0  0  0  0  0  0  0  0  0  0  0
   -9.5529   -1.6393  -22.0973 H   0  0  0  0  0  0  0  0  0  0  0  0
  -10.6658   -0.2653  -22.4138 H   0  0  0  0  0  0  0  0  0  0  0  0
   -7.6322   -1.4248  -21.6740 H   0  0  0  0  0  0  0  0  0  0  0  0
   -4.5096    1.6669  -19.5618 H   0  0  0  0  0  0  0  0  0  0  0  0
   -4.7062   -0.2248  -22.0806 H   0  0  0  0  0  0  0  0  0  0  0  0
   -6.1257    0.6741  -22.7156 H   0  0  0  0  0  0  0  0  0  0  0  0
   -4.7077    1.5714  -22.0747 H   0  0  0  0  0  0  0  0  0  0  0  0
 20 21  2  0  0  0  0
 19 20  1  0  0  0  0
 19 21  1  0  0  0  0
 21 22  1  0  0  0  0
 18 19  2  0  0  0  0
 22 23  2  0  0  0  0
 18 23  1  0  0  0  0
 17 18  1  0  0  0  0
 23 24  1  0  0  0  0
 15 16  2  0  0  0  0
 15 17  1  0  0  0  0
 14 15  1  0  0  0  0
  8 14  1  0  0  0  0
 12 13  2  0  0  0  0
 11 12  1  0  0  0  0
  7  8  1  0  0  0  0
  8  9  1  0  0  0  0
 10 11  1  0  0  0  0
  6  7  3  0  0  0  0
  5  6  1  0  0  0  0
  9 10  2  0  0  0  0
  2  5  1  0  0  0  0
  2  3  2  0  0  0  0
  1  2  1  0  0  0  0
  2  4  2  0  0  0  0
  1 25  1  0  0  0  0
  1 26  1  0  0  0  0
  1 27  1  0  0  0  0
  5 28  1  0  0  0  0
  8 29  1  0  0  0  0
  9 30  1  0  0  0  0
 10 31  1  0  0  0  0
 11 32  1  0  0  0  0
 11 33  1  0  0  0  0
 12 34  1  0  0  0  0
 13 35  1  0  0  0  0
 13 36  1  0  0  0  0
 14 37  1  0  0  0  0
 14 38  1  0  0  0  0
 17 39  1  0  0  0  0
 22 40  1  0  0  0  0
 24 41  1  0  0  0  0
 24 42  1  0  0  0  0
 24 43  1  0  0  0  0
M  END
> <Chemgauss4>
-9.284036

$$$$
