
 OpenBabel07202414153D

 52 55  0  0  0  0  0  0  0  0999 V2000
    2.3520   -3.4131   -1.8720 C   0  0  0  0  0  0  0  0  0  0  0  0
    3.6009   -2.8687   -1.4654 O   0  0  0  0  0  0  0  0  0  0  0  0
    3.8242   -2.7665   -0.1203 C   0  0  0  0  0  0  0  0  0  0  0  0
    2.9307   -3.1010    0.8895 C   0  0  0  0  0  0  0  0  0  0  0  0
    3.3123   -2.9633    2.2248 C   0  0  0  0  0  0  0  0  0  0  0  0
    4.5796   -2.4883    2.5635 C   0  0  0  0  0  0  0  0  0  0  0  0
    5.4920   -2.1324    1.5642 C   0  0  0  0  0  0  0  0  0  0  0  0
    5.0915   -2.2787    0.2251 C   0  0  0  0  0  0  0  0  0  0  0  0
    6.8925   -1.6154    1.8277 C   0  0  0  0  0  0  0  0  0  0  0  0
    7.3266   -1.4976    3.2945 C   0  0  0  0  0  0  0  0  0  0  0  0
    8.7563   -1.1541    3.4627 N   0  0  0  0  0  0  0  0  0  0  0  0
    9.1468    0.1598    3.1181 C   0  0  0  0  0  0  0  0  0  0  0  0
    8.8400    1.2411    3.9535 C   0  0  0  0  0  0  0  0  0  0  0  0
    9.2433    2.5350    3.6051 C   0  0  0  0  0  0  0  0  0  0  0  0
    9.9400    2.7526    2.4150 C   0  0  0  0  0  0  0  0  0  0  0  0
   10.2304    1.6724    1.5801 C   0  0  0  0  0  0  0  0  0  0  0  0
    9.8366    0.3763    1.9191 C   0  0  0  0  0  0  0  0  0  0  0  0
   11.1201    1.9343    0.1306 Cl  0  0  0  0  0  0  0  0  0  0  0  0
    9.4982   -1.9816    4.2971 C   0  0  0  0  0  0  0  0  0  0  0  0
    8.9549   -2.9382    4.8673 O   0  0  0  0  0  0  0  0  0  0  0  0
   10.9974   -1.8325    4.4635 C   0  0  0  0  0  0  0  0  0  0  0  0
   11.4862   -3.0950    4.4849 C   0  0  0  0  0  0  0  0  0  0  0  0
   11.8290   -3.6408    5.8354 C   0  0  0  0  0  0  0  0  0  0  0  0
   11.8082   -4.8493    6.0474 O   0  0  0  0  0  0  0  0  0  0  0  0
   12.1397   -2.7422    6.8184 N   0  0  0  0  0  0  0  0  0  0  0  0
   12.1713   -1.3677    6.5914 C   0  0  0  0  0  0  0  0  0  0  0  0
   11.6365   -0.8730    5.3950 C   0  0  0  0  0  0  0  0  0  0  0  0
   11.8572    0.4726    5.0963 C   0  0  0  0  0  0  0  0  0  0  0  0
   12.5085    1.3170    6.0049 C   0  0  0  0  0  0  0  0  0  0  0  0
   12.9760    0.8147    7.2161 C   0  0  0  0  0  0  0  0  0  0  0  0
   12.8072   -0.5355    7.5162 C   0  0  0  0  0  0  0  0  0  0  0  0
    2.3826   -3.5385   -2.9579 H   0  0  0  0  0  0  0  0  0  0  0  0
    1.5336   -2.7254   -1.6350 H   0  0  0  0  0  0  0  0  0  0  0  0
    2.1779   -4.4019   -1.4326 H   0  0  0  0  0  0  0  0  0  0  0  0
    1.9350   -3.4777    0.6760 H   0  0  0  0  0  0  0  0  0  0  0  0
    2.6122   -3.2402    3.0173 H   0  0  0  0  0  0  0  0  0  0  0  0
    4.8305   -2.4169    3.6194 H   0  0  0  0  0  0  0  0  0  0  0  0
    5.7843   -2.0186   -0.5743 H   0  0  0  0  0  0  0  0  0  0  0  0
    6.9839   -0.6330    1.3477 H   0  0  0  0  0  0  0  0  0  0  0  0
    7.5927   -2.2915    1.3176 H   0  0  0  0  0  0  0  0  0  0  0  0
    7.1317   -2.4715    3.7581 H   0  0  0  0  0  0  0  0  0  0  0  0
    6.7150   -0.7737    3.8452 H   0  0  0  0  0  0  0  0  0  0  0  0
    8.3300    1.0807    4.9014 H   0  0  0  0  0  0  0  0  0  0  0  0
    9.0399    3.3698    4.2726 H   0  0  0  0  0  0  0  0  0  0  0  0
   10.2658    3.7562    2.1521 H   0  0  0  0  0  0  0  0  0  0  0  0
   10.0671   -0.4538    1.2656 H   0  0  0  0  0  0  0  0  0  0  0  0
   11.0614   -3.8862    3.8677 H   0  0  0  0  0  0  0  0  0  0  0  0
   12.4027   -3.1323    7.7111 H   0  0  0  0  0  0  0  0  0  0  0  0
   11.5777    0.8860    4.1373 H   0  0  0  0  0  0  0  0  0  0  0  0
   12.6709    2.3624    5.7501 H   0  0  0  0  0  0  0  0  0  0  0  0
   13.5086    1.4637    7.9071 H   0  0  0  0  0  0  0  0  0  0  0  0
   13.2252   -0.9367    8.4326 H   0  0  0  0  0  0  0  0  0  0  0  0
  1  2  1  0  0  0  0
  1 32  1  0  0  0  0
  1 33  1  0  0  0  0
  1 34  1  0  0  0  0
  2  3  1  0  0  0  0
  3  4  1  0  0  0  0
  3  8  2  0  0  0  0
  4  5  2  0  0  0  0
  4 35  1  0  0  0  0
  5  6  1  0  0  0  0
  5 36  1  0  0  0  0
  6  7  2  0  0  0  0
  6 37  1  0  0  0  0
  7  8  1  0  0  0  0
  7  9  1  0  0  0  0
  8 38  1  0  0  0  0
  9 10  1  0  0  0  0
  9 39  1  0  0  0  0
  9 40  1  0  0  0  0
 10 11  1  0  0  0  0
 10 41  1  0  0  0  0
 10 42  1  0  0  0  0
 11 12  1  0  0  0  0
 11 19  1  0  0  0  0
 12 13  1  0  0  0  0
 12 17  2  0  0  0  0
 13 14  2  0  0  0  0
 13 43  1  0  0  0  0
 14 15  1  0  0  0  0
 14 44  1  0  0  0  0
 15 16  2  0  0  0  0
 15 45  1  0  0  0  0
 16 17  1  0  0  0  0
 16 18  1  0  0  0  0
 17 46  1  0  0  0  0
 19 20  2  0  0  0  0
 19 21  1  0  0  0  0
 21 22  2  0  0  0  0
 21 27  1  0  0  0  0
 22 23  1  0  0  0  0
 22 47  1  0  0  0  0
 23 24  2  0  0  0  0
 23 25  1  0  0  0  0
 25 26  1  0  0  0  0
 25 48  1  0  0  0  0
 26 27  1  0  0  0  0
 26 31  2  0  0  0  0
 27 28  2  0  0  0  0
 28 29  1  0  0  0  0
 28 49  1  0  0  0  0
 29 30  2  0  0  0  0
 29 50  1  0  0  0  0
 30 31  1  0  0  0  0
 30 51  1  0  0  0  0
 31 52  1  0  0  0  0
M  END
$$$$
