MODEL 1
REMARK VINA RESULT:    -6.227      0.000      0.000
REMARK INTER + INTRA:         -10.384
REMARK INTER:                  -9.685
REMARK INTRA:                  -0.699
REMARK UNBOUND:                -0.699
REMARK  10 active torsions:
REMARK  status: ('A' for Active; 'I' for Inactive)
REMARK    1  A    between atoms: S_2  and  N_5 
REMARK    2  A    between atoms: N_5  and  C_7 
REMARK    3  A    between atoms: C_7  and  C_8 
REMARK    4  A    between atoms: C_8  and  C_9 
REMARK    5  A    between atoms: C_9  and  C_15 
REMARK    6  A    between atoms: N_11  and  C_13 
REMARK    7  A    between atoms: C_13  and  C_14 
REMARK    8  A    between atoms: C_14  and  C_15 
REMARK    9  A    between atoms: C_16  and  C_17 
REMARK       I    between atoms: C_17  and  N_19 
REMARK   10  A    between atoms: N_19  and  C_21 
ROOT
HETATM    1  C   UNL     1       7.980  -4.545  24.095  1.00  0.00     0.016 C 
HETATM    2  C   UNL     1       8.778  -3.624  23.799  1.00  0.00     0.094 C 
ENDROOT
BRANCH   1   3
HETATM    3  C   UNL     1       7.661  -4.820  25.342  1.00  0.00    -0.099 C 
BRANCH   3   4
HETATM    4  C   UNL     1       7.450  -5.250  26.386  1.00  0.00     0.159 C 
BRANCH   4   5
HETATM    5  N   UNL     1       7.753  -5.869  27.379  1.00  0.00    -0.269 N 
ATOM      6  HN  UNL     1       8.731  -6.095  27.563  1.00  0.00     0.181 HD
BRANCH   5   7
HETATM    7  S   UNL     1       6.615  -6.334  28.405  1.00  0.00     0.209 S 
HETATM    8  O   UNL     1       6.173  -5.123  29.159  1.00  0.00    -0.578 OA
HETATM    9  O   UNL     1       5.497  -6.891  27.653  1.00  0.00    -0.578 OA
HETATM   10  O   UNL     1       7.138  -7.287  29.312  1.00  0.00    -0.578 OA
ENDBRANCH   5   7
ENDBRANCH   4   5
ENDBRANCH   3   4
ENDBRANCH   1   3
BRANCH   1  11
HETATM   11  C   UNL     1       7.281  -5.071  23.067  1.00  0.00     0.021 C 
BRANCH  11  12
HETATM   12  C   UNL     1       7.193  -5.624  22.003  1.00  0.00     0.018 C 
BRANCH  12  13
HETATM   13  C   UNL     1       6.158  -5.861  21.598  1.00  0.00     0.080 C 
BRANCH  13  14
HETATM   14  N   UNL     1       5.137  -6.133  22.112  1.00  0.00    -0.408 N 
HETATM   15  H   UNL     1       4.688  -5.639  22.787  1.00  0.00     0.155 HD
ATOM     16  HN  UNL     1       4.685  -6.992  21.799  1.00  0.00     0.155 HD
ENDBRANCH  13  14
ENDBRANCH  12  13
ENDBRANCH  11  12
ENDBRANCH   1  11
BRANCH   2  17
HETATM   17  C   UNL     1       9.256  -2.371  23.635  1.00  0.00     0.247 C 
HETATM   18  O   UNL     1       9.314  -1.942  22.516  1.00  0.00    -0.268 OA
HETATM   19  N   UNL     1       9.586  -1.790  24.809  1.00  0.00    -0.322 N 
ATOM     20  HN  UNL     1       9.401  -2.221  25.716  1.00  0.00     0.169 HD
BRANCH  19  21
HETATM   21  C   UNL     1      10.170  -0.618  24.676  1.00  0.00     0.050 A 
HETATM   22  C   UNL     1      11.388  -0.196  24.388  1.00  0.00     0.117 A 
HETATM   23  N   UNL     1      12.177   0.666  24.090  1.00  0.00    -0.373 N 
HETATM   24  C   UNL     1      11.479   1.622  24.115  1.00  0.00     0.088 A 
ATOM     25  HN  UNL     1      13.171   0.592  23.875  1.00  0.00     0.164 HD
HETATM   26  C   UNL     1      10.326   1.559  24.377  1.00  0.00     0.019 A 
HETATM   27  C   UNL     1       9.441   0.629  24.673  1.00  0.00     0.032 A 
ENDBRANCH  19  21
ENDBRANCH   2  17
TORSDOF 10
ENDMDL
MODEL 2
REMARK VINA RESULT:    -6.185      3.802      4.670
REMARK INTER + INTRA:         -10.319
REMARK INTER:                  -9.192
REMARK INTRA:                  -1.128
REMARK UNBOUND:                -0.699
REMARK  10 active torsions:
REMARK  status: ('A' for Active; 'I' for Inactive)
REMARK    1  A    between atoms: S_2  and  N_5 
REMARK    2  A    between atoms: N_5  and  C_7 
REMARK    3  A    between atoms: C_7  and  C_8 
REMARK    4  A    between atoms: C_8  and  C_9 
REMARK    5  A    between atoms: C_9  and  C_15 
REMARK    6  A    between atoms: N_11  and  C_13 
REMARK    7  A    between atoms: C_13  and  C_14 
REMARK    8  A    between atoms: C_14  and  C_15 
REMARK    9  A    between atoms: C_16  and  C_17 
REMARK       I    between atoms: C_17  and  N_19 
REMARK   10  A    between atoms: N_19  and  C_21 
ROOT
HETATM    1  C   UNL     1       6.922  -1.042  20.852  1.00  0.00     0.016 C 
HETATM    2  C   UNL     1       8.136  -0.803  21.054  1.00  0.00     0.094 C 
ENDROOT
BRANCH   1   3
HETATM    3  C   UNL     1       6.292  -2.026  21.460  1.00  0.00    -0.099 C 
BRANCH   3   4
HETATM    4  C   UNL     1       5.853  -2.827  22.155  1.00  0.00     0.159 C 
BRANCH   4   5
HETATM    5  N   UNL     1       5.875  -3.534  23.135  1.00  0.00    -0.269 N 
ATOM      6  HN  UNL     1       5.103  -3.509  23.802  1.00  0.00     0.181 HD
BRANCH   5   7
HETATM    7  S   UNL     1       7.120  -4.510  23.385  1.00  0.00     0.209 S 
HETATM    8  O   UNL     1       6.810  -5.326  24.597  1.00  0.00    -0.578 OA
HETATM    9  O   UNL     1       7.282  -5.378  22.226  1.00  0.00    -0.578 OA
HETATM   10  O   UNL     1       8.293  -3.752  23.616  1.00  0.00    -0.578 OA
ENDBRANCH   5   7
ENDBRANCH   4   5
ENDBRANCH   3   4
ENDBRANCH   1   3
BRANCH   1  11
HETATM   11  C   UNL     1       6.240  -0.093  20.176  1.00  0.00     0.021 C 
BRANCH  11  12
HETATM   12  C   UNL     1       6.152   0.787  19.362  1.00  0.00     0.018 C 
BRANCH  12  13
HETATM   13  C   UNL     1       5.658   0.557  18.364  1.00  0.00     0.080 C 
BRANCH  13  14
HETATM   14  N   UNL     1       5.643  -0.394  17.676  1.00  0.00    -0.408 N 
HETATM   15  H   UNL     1       6.166  -0.545  16.899  1.00  0.00     0.155 HD
ATOM     16  HN  UNL     1       4.998  -1.139  17.942  1.00  0.00     0.155 HD
ENDBRANCH  13  14
ENDBRANCH  12  13
ENDBRANCH  11  12
ENDBRANCH   1  11
BRANCH   2  17
HETATM   17  C   UNL     1       9.256  -0.408  21.699  1.00  0.00     0.247 C 
HETATM   18  O   UNL     1       9.865   0.517  21.237  1.00  0.00    -0.268 OA
HETATM   19  N   UNL     1       9.496  -1.144  22.806  1.00  0.00    -0.322 N 
ATOM     20  HN  UNL     1       8.848  -1.850  23.157  1.00  0.00     0.169 HD
BRANCH  19  21
HETATM   21  C   UNL     1      10.643  -0.867  23.389  1.00  0.00     0.050 A 
HETATM   22  C   UNL     1      11.895  -1.265  23.248  1.00  0.00     0.117 A 
HETATM   23  N   UNL     1      13.077  -1.170  23.469  1.00  0.00    -0.373 N 
HETATM   24  C   UNL     1      13.085  -0.277  24.247  1.00  0.00     0.088 A 
ATOM     25  HN  UNL     1      13.854  -1.710  23.090  1.00  0.00     0.164 HD
HETATM   26  C   UNL     1      12.094   0.269  24.596  1.00  0.00     0.019 A 
HETATM   27  C   UNL     1      10.802   0.204  24.346  1.00  0.00     0.032 A 
ENDBRANCH  19  21
ENDBRANCH   2  17
TORSDOF 10
ENDMDL
MODEL 3
REMARK VINA RESULT:    -6.006      4.164      7.407
REMARK INTER + INTRA:         -10.041
REMARK INTER:                  -9.253
REMARK INTRA:                  -0.787
REMARK UNBOUND:                -0.699
REMARK  10 active torsions:
REMARK  status: ('A' for Active; 'I' for Inactive)
REMARK    1  A    between atoms: S_2  and  N_5 
REMARK    2  A    between atoms: N_5  and  C_7 
REMARK    3  A    between atoms: C_7  and  C_8 
REMARK    4  A    between atoms: C_8  and  C_9 
REMARK    5  A    between atoms: C_9  and  C_15 
REMARK    6  A    between atoms: N_11  and  C_13 
REMARK    7  A    between atoms: C_13  and  C_14 
REMARK    8  A    between atoms: C_14  and  C_15 
REMARK    9  A    between atoms: C_16  and  C_17 
REMARK       I    between atoms: C_17  and  N_19 
REMARK   10  A    between atoms: N_19  and  C_21 
ROOT
HETATM    1  C   UNL     1       7.936  -0.103  21.169  1.00  0.00     0.016 C 
HETATM    2  C   UNL     1       7.344  -0.948  21.881  1.00  0.00     0.094 C 
ENDROOT
BRANCH   1   3
HETATM    3  C   UNL     1       9.173   0.274  21.414  1.00  0.00    -0.099 C 
BRANCH   3   4
HETATM    4  C   UNL     1      10.205   0.564  21.825  1.00  0.00     0.159 C 
BRANCH   4   5
HETATM    5  N   UNL     1      10.961   0.896  22.709  1.00  0.00    -0.269 N 
ATOM      6  HN  UNL     1      11.258   1.869  22.790  1.00  0.00     0.181 HD
BRANCH   5   7
HETATM    7  S   UNL     1      11.492  -0.196  23.753  1.00  0.00     0.209 S 
HETATM    8  O   UNL     1      11.800  -1.437  22.982  1.00  0.00    -0.578 OA
HETATM    9  O   UNL     1      12.702   0.308  24.392  1.00  0.00    -0.578 OA
HETATM   10  O   UNL     1      10.493  -0.475  24.716  1.00  0.00    -0.578 OA
ENDBRANCH   5   7
ENDBRANCH   4   5
ENDBRANCH   3   4
ENDBRANCH   1   3
BRANCH   1  11
HETATM   11  C   UNL     1       7.331   0.212  20.004  1.00  0.00     0.021 C 
BRANCH  11  12
HETATM   12  C   UNL     1       7.280   0.266  18.804  1.00  0.00     0.018 C 
BRANCH  12  13
HETATM   13  C   UNL     1       6.259   0.277  18.304  1.00  0.00     0.080 C 
BRANCH  13  14
HETATM   14  N   UNL     1       5.658  -0.523  17.689  1.00  0.00    -0.408 N 
HETATM   15  H   UNL     1       5.060  -0.359  16.970  1.00  0.00     0.155 HD
ATOM     16  HN  UNL     1       5.793  -1.499  17.955  1.00  0.00     0.155 HD
ENDBRANCH  13  14
ENDBRANCH  12  13
ENDBRANCH  11  12
ENDBRANCH   1  11
BRANCH   2  17
HETATM   17  C   UNL     1       7.034  -2.146  22.426  1.00  0.00     0.247 C 
HETATM   18  O   UNL     1       7.913  -2.747  22.978  1.00  0.00    -0.268 OA
HETATM   19  N   UNL     1       5.732  -2.463  22.260  1.00  0.00    -0.322 N 
ATOM     20  HN  UNL     1       5.049  -1.822  21.854  1.00  0.00     0.169 HD
BRANCH  19  21
HETATM   21  C   UNL     1       5.425  -3.676  22.670  1.00  0.00     0.050 A 
HETATM   22  C   UNL     1       5.624  -4.902  22.223  1.00  0.00     0.117 A 
HETATM   23  N   UNL     1       5.613  -6.102  22.354  1.00  0.00    -0.373 N 
HETATM   24  C   UNL     1       5.134  -6.202  23.432  1.00  0.00     0.088 A 
ATOM     25  HN  UNL     1       5.930  -6.828  21.712  1.00  0.00     0.164 HD
HETATM   26  C   UNL     1       4.816  -5.260  24.075  1.00  0.00     0.019 A 
HETATM   27  C   UNL     1       4.848  -3.947  23.966  1.00  0.00     0.032 A 
ENDBRANCH  19  21
ENDBRANCH   2  17
TORSDOF 10
ENDMDL
MODEL 4
REMARK VINA RESULT:    -5.983      3.965      6.773
REMARK INTER + INTRA:         -10.006
REMARK INTER:                  -8.694
REMARK INTRA:                  -1.311
REMARK UNBOUND:                -0.699
REMARK  10 active torsions:
REMARK  status: ('A' for Active; 'I' for Inactive)
REMARK    1  A    between atoms: S_2  and  N_5 
REMARK    2  A    between atoms: N_5  and  C_7 
REMARK    3  A    between atoms: C_7  and  C_8 
REMARK    4  A    between atoms: C_8  and  C_9 
REMARK    5  A    between atoms: C_9  and  C_15 
REMARK    6  A    between atoms: N_11  and  C_13 
REMARK    7  A    between atoms: C_13  and  C_14 
REMARK    8  A    between atoms: C_14  and  C_15 
REMARK    9  A    between atoms: C_16  and  C_17 
REMARK       I    between atoms: C_17  and  N_19 
REMARK   10  A    between atoms: N_19  and  C_21 
ROOT
HETATM    1  C   UNL     1       7.831   0.032  21.366  1.00  0.00     0.016 C 
HETATM    2  C   UNL     1       7.382  -0.721  22.263  1.00  0.00     0.094 C 
ENDROOT
BRANCH   1   3
HETATM    3  C   UNL     1       8.958   0.698  21.512  1.00  0.00    -0.099 C 
BRANCH   3   4
HETATM    4  C   UNL     1       9.978   1.144  21.791  1.00  0.00     0.159 C 
BRANCH   4   5
HETATM    5  N   UNL     1      10.907   1.325  22.544  1.00  0.00    -0.269 N 
ATOM      6  HN  UNL     1      11.464   2.177  22.474  1.00  0.00     0.181 HD
BRANCH   5   7
HETATM    7  S   UNL     1      11.261   0.223  23.650  1.00  0.00     0.209 S 
HETATM    8  O   UNL     1      12.547   0.630  24.289  1.00  0.00    -0.578 OA
HETATM    9  O   UNL     1      10.196   0.190  24.645  1.00  0.00    -0.578 OA
HETATM   10  O   UNL     1      11.420  -1.045  23.040  1.00  0.00    -0.578 OA
ENDBRANCH   5   7
ENDBRANCH   4   5
ENDBRANCH   3   4
ENDBRANCH   1   3
BRANCH   1  11
HETATM   11  C   UNL     1       7.234  -0.068  20.160  1.00  0.00     0.021 C 
BRANCH  11  12
HETATM   12  C   UNL     1       7.107   0.221  19.000  1.00  0.00     0.018 C 
BRANCH  12  13
HETATM   13  C   UNL     1       6.076   0.135  18.529  1.00  0.00     0.080 C 
BRANCH  13  14
HETATM   14  N   UNL     1       5.638  -0.540  17.674  1.00  0.00    -0.408 N 
HETATM   15  H   UNL     1       4.754  -0.880  17.612  1.00  0.00     0.155 HD
ATOM     16  HN  UNL     1       6.275  -0.790  16.917  1.00  0.00     0.155 HD
ENDBRANCH  13  14
ENDBRANCH  12  13
ENDBRANCH  11  12
ENDBRANCH   1  11
BRANCH   2  17
HETATM   17  C   UNL     1       7.286  -1.791  23.083  1.00  0.00     0.247 C 
HETATM   18  O   UNL     1       6.186  -2.180  23.359  1.00  0.00    -0.268 OA
HETATM   19  N   UNL     1       8.496  -2.264  23.453  1.00  0.00    -0.322 N 
ATOM     20  HN  UNL     1       9.374  -1.907  23.073  1.00  0.00     0.169 HD
BRANCH  19  21
HETATM   21  C   UNL     1       8.439  -3.227  24.349  1.00  0.00     0.050 A 
HETATM   22  C   UNL     1       8.442  -3.291  25.668  1.00  0.00     0.117 A 
HETATM   23  N   UNL     1       8.297  -3.883  26.708  1.00  0.00    -0.373 N 
HETATM   24  C   UNL     1       8.082  -4.978  26.311  1.00  0.00     0.088 A 
ATOM     25  HN  UNL     1       8.347  -3.537  27.666  1.00  0.00     0.164 HD
HETATM   26  C   UNL     1       8.047  -5.238  25.157  1.00  0.00     0.019 A 
HETATM   27  C   UNL     1       8.170  -4.605  24.008  1.00  0.00     0.032 A 
ENDBRANCH  19  21
ENDBRANCH   2  17
TORSDOF 10
ENDMDL
MODEL 5
REMARK VINA RESULT:    -5.841      4.050      7.626
REMARK INTER + INTRA:          -9.784
REMARK INTER:                  -8.882
REMARK INTRA:                  -0.901
REMARK UNBOUND:                -0.699
REMARK  10 active torsions:
REMARK  status: ('A' for Active; 'I' for Inactive)
REMARK    1  A    between atoms: S_2  and  N_5 
REMARK    2  A    between atoms: N_5  and  C_7 
REMARK    3  A    between atoms: C_7  and  C_8 
REMARK    4  A    between atoms: C_8  and  C_9 
REMARK    5  A    between atoms: C_9  and  C_15 
REMARK    6  A    between atoms: N_11  and  C_13 
REMARK    7  A    between atoms: C_13  and  C_14 
REMARK    8  A    between atoms: C_14  and  C_15 
REMARK    9  A    between atoms: C_16  and  C_17 
REMARK       I    between atoms: C_17  and  N_19 
REMARK   10  A    between atoms: N_19  and  C_21 
ROOT
HETATM    1  C   UNL     1       9.428  -0.816  22.124  1.00  0.00     0.016 C 
HETATM    2  C   UNL     1       9.195  -1.936  22.638  1.00  0.00     0.094 C 
ENDROOT
BRANCH   1   3
HETATM    3  C   UNL     1       8.630  -0.280  21.225  1.00  0.00    -0.099 C 
BRANCH   3   4
HETATM    4  C   UNL     1       8.058   0.097  20.304  1.00  0.00     0.159 C 
BRANCH   4   5
HETATM    5  N   UNL     1       7.573  -0.040  19.205  1.00  0.00    -0.269 N 
ATOM      6  HN  UNL     1       8.170  -0.034  18.377  1.00  0.00     0.181 HD
BRANCH   5   7
HETATM    7  S   UNL     1       5.990  -0.229  19.051  1.00  0.00     0.209 S 
HETATM    8  O   UNL     1       5.612  -1.456  19.813  1.00  0.00    -0.578 OA
HETATM    9  O   UNL     1       5.317   0.936  19.613  1.00  0.00    -0.578 OA
HETATM   10  O   UNL     1       5.651  -0.398  17.687  1.00  0.00    -0.578 OA
ENDBRANCH   5   7
ENDBRANCH   4   5
ENDBRANCH   3   4
ENDBRANCH   1   3
BRANCH   1  11
HETATM   11  C   UNL     1      10.395  -0.086  22.718  1.00  0.00     0.021 C 
BRANCH  11  12
HETATM   12  C   UNL     1      10.783   0.820  23.407  1.00  0.00     0.018 C 
BRANCH  12  13
HETATM   13  C   UNL     1      10.181   1.097  24.330  1.00  0.00     0.080 C 
BRANCH  13  14
HETATM   14  N   UNL     1      10.131   0.659  25.418  1.00  0.00    -0.408 N 
HETATM   15  H   UNL     1       9.357   0.356  25.877  1.00  0.00     0.155 HD
ATOM     16  HN  UNL     1      11.014   0.597  25.925  1.00  0.00     0.155 HD
ENDBRANCH  13  14
ENDBRANCH  12  13
ENDBRANCH  11  12
ENDBRANCH   1  11
BRANCH   2  17
HETATM   17  C   UNL     1       8.589  -2.878  23.395  1.00  0.00     0.247 C 
HETATM   18  O   UNL     1       7.858  -3.649  22.839  1.00  0.00    -0.268 OA
HETATM   19  N   UNL     1       8.937  -2.791  24.698  1.00  0.00    -0.322 N 
ATOM     20  HN  UNL     1       9.650  -2.147  25.043  1.00  0.00     0.169 HD
BRANCH  19  21
HETATM   21  C   UNL     1       8.271  -3.613  25.481  1.00  0.00     0.050 A 
HETATM   22  C   UNL     1       8.511  -4.782  26.046  1.00  0.00     0.117 A 
HETATM   23  N   UNL     1       8.247  -5.669  26.819  1.00  0.00    -0.373 N 
HETATM   24  C   UNL     1       7.214  -5.284  27.251  1.00  0.00     0.088 A 
ATOM     25  HN  UNL     1       8.769  -6.517  27.039  1.00  0.00     0.164 HD
HETATM   26  C   UNL     1       6.722  -4.265  26.905  1.00  0.00     0.019 A 
HETATM   27  C   UNL     1       7.006  -3.270  26.089  1.00  0.00     0.032 A 
ENDBRANCH  19  21
ENDBRANCH   2  17
TORSDOF 10
ENDMDL
MODEL 6
REMARK VINA RESULT:    -5.631      3.755      5.254
REMARK INTER + INTRA:          -9.458
REMARK INTER:                  -8.808
REMARK INTRA:                  -0.650
REMARK UNBOUND:                -0.699
REMARK  10 active torsions:
REMARK  status: ('A' for Active; 'I' for Inactive)
REMARK    1  A    between atoms: S_2  and  N_5 
REMARK    2  A    between atoms: N_5  and  C_7 
REMARK    3  A    between atoms: C_7  and  C_8 
REMARK    4  A    between atoms: C_8  and  C_9 
REMARK    5  A    between atoms: C_9  and  C_15 
REMARK    6  A    between atoms: N_11  and  C_13 
REMARK    7  A    between atoms: C_13  and  C_14 
REMARK    8  A    between atoms: C_14  and  C_15 
REMARK    9  A    between atoms: C_16  and  C_17 
REMARK       I    between atoms: C_17  and  N_19 
REMARK   10  A    between atoms: N_19  and  C_21 
ROOT
HETATM    1  C   UNL     1       8.732  -1.899  23.964  1.00  0.00     0.016 C 
HETATM    2  C   UNL     1       8.013  -1.254  23.165  1.00  0.00     0.094 C 
ENDROOT
BRANCH   1   3
HETATM    3  C   UNL     1       8.316  -3.006  24.542  1.00  0.00    -0.099 C 
BRANCH   3   4
HETATM    4  C   UNL     1       8.149  -3.990  25.110  1.00  0.00     0.159 C 
BRANCH   4   5
HETATM    5  N   UNL     1       7.574  -5.034  25.314  1.00  0.00    -0.269 N 
ATOM      6  HN  UNL     1       7.581  -5.768  24.606  1.00  0.00     0.181 HD
BRANCH   5   7
HETATM    7  S   UNL     1       6.802  -5.260  26.698  1.00  0.00     0.209 S 
HETATM    8  O   UNL     1       7.834  -5.371  27.771  1.00  0.00    -0.578 OA
HETATM    9  O   UNL     1       5.938  -4.114  26.952  1.00  0.00    -0.578 OA
HETATM   10  O   UNL     1       6.049  -6.457  26.644  1.00  0.00    -0.578 OA
ENDBRANCH   5   7
ENDBRANCH   4   5
ENDBRANCH   3   4
ENDBRANCH   1   3
BRANCH   1  11
HETATM   11  C   UNL     1      10.033  -1.538  24.009  1.00  0.00     0.021 C 
BRANCH  11  12
HETATM   12  C   UNL     1      11.006  -0.985  23.571  1.00  0.00     0.018 C 
BRANCH  12  13
HETATM   13  C   UNL     1      11.639  -0.359  24.277  1.00  0.00     0.080 C 
BRANCH  13  14
HETATM   14  N   UNL     1      12.719   0.097  24.199  1.00  0.00    -0.408 N 
HETATM   15  H   UNL     1      13.530  -0.305  24.485  1.00  0.00     0.155 HD
ATOM     16  HN  UNL     1      12.793   1.024  23.780  1.00  0.00     0.155 HD
ENDBRANCH  13  14
ENDBRANCH  12  13
ENDBRANCH  11  12
ENDBRANCH   1  11
BRANCH   2  17
HETATM   17  C   UNL     1       7.335  -0.955  22.035  1.00  0.00     0.247 C 
HETATM   18  O   UNL     1       6.656  -1.818  21.552  1.00  0.00    -0.268 OA
HETATM   19  N   UNL     1       7.537   0.320  21.637  1.00  0.00    -0.322 N 
ATOM     20  HN  UNL     1       8.065   0.999  22.187  1.00  0.00     0.169 HD
BRANCH  19  21
HETATM   21  C   UNL     1       6.990   0.607  20.475  1.00  0.00     0.050 A 
HETATM   22  C   UNL     1       7.226   0.287  19.215  1.00  0.00     0.117 A 
HETATM   23  N   UNL     1       6.923   0.247  18.048  1.00  0.00    -0.373 N 
HETATM   24  C   UNL     1       5.902   0.846  18.065  1.00  0.00     0.088 A 
ATOM     25  HN  UNL     1       7.412  -0.184  17.264  1.00  0.00     0.164 HD
HETATM   26  C   UNL     1       5.444   1.290  19.062  1.00  0.00     0.019 A 
HETATM   27  C   UNL     1       5.739   1.319  20.346  1.00  0.00     0.032 A 
ENDBRANCH  19  21
ENDBRANCH   2  17
TORSDOF 10
ENDMDL
MODEL 7
REMARK VINA RESULT:    -5.598     26.547     29.822
REMARK INTER + INTRA:          -9.406
REMARK INTER:                  -8.714
REMARK INTRA:                  -0.692
REMARK UNBOUND:                -0.699
REMARK  10 active torsions:
REMARK  status: ('A' for Active; 'I' for Inactive)
REMARK    1  A    between atoms: S_2  and  N_5 
REMARK    2  A    between atoms: N_5  and  C_7 
REMARK    3  A    between atoms: C_7  and  C_8 
REMARK    4  A    between atoms: C_8  and  C_9 
REMARK    5  A    between atoms: C_9  and  C_15 
REMARK    6  A    between atoms: N_11  and  C_13 
REMARK    7  A    between atoms: C_13  and  C_14 
REMARK    8  A    between atoms: C_14  and  C_15 
REMARK    9  A    between atoms: C_16  and  C_17 
REMARK       I    between atoms: C_17  and  N_19 
REMARK   10  A    between atoms: N_19  and  C_21 
ROOT
HETATM    1  C   UNL     1       8.385  15.593   2.644  1.00  0.00     0.016 C 
HETATM    2  C   UNL     1       7.959  14.414   2.601  1.00  0.00     0.094 C 
ENDROOT
BRANCH   1   3
HETATM    3  C   UNL     1       8.011  16.504   1.771  1.00  0.00    -0.099 C 
BRANCH   3   4
HETATM    4  C   UNL     1       7.886  17.313   0.966  1.00  0.00     0.159 C 
BRANCH   4   5
HETATM    5  N   UNL     1       8.308  18.156   0.209  1.00  0.00    -0.269 N 
ATOM      6  HN  UNL     1       8.088  18.107  -0.786  1.00  0.00     0.181 HD
BRANCH   5   7
HETATM    7  S   UNL     1       9.211  19.351   0.774  1.00  0.00     0.209 S 
HETATM    8  O   UNL     1      10.453  18.744   1.337  1.00  0.00    -0.578 OA
HETATM    9  O   UNL     1       9.547  20.251  -0.324  1.00  0.00    -0.578 OA
HETATM   10  O   UNL     1       8.520  20.042   1.798  1.00  0.00    -0.578 OA
ENDBRANCH   5   7
ENDBRANCH   4   5
ENDBRANCH   3   4
ENDBRANCH   1   3
BRANCH   1  11
HETATM   11  C   UNL     1       9.047  15.938   3.769  1.00  0.00     0.021 C 
BRANCH  11  12
HETATM   12  C   UNL     1       9.867  15.753   4.629  1.00  0.00     0.018 C 
BRANCH  12  13
HETATM   13  C   UNL     1      10.935  15.521   4.319  1.00  0.00     0.080 C 
BRANCH  13  14
HETATM   14  N   UNL     1      11.666  14.634   4.559  1.00  0.00    -0.408 N 
HETATM   15  H   UNL     1      12.583  14.568   4.321  1.00  0.00     0.155 HD
ATOM     16  HN  UNL     1      11.275  13.848   5.080  1.00  0.00     0.155 HD
ENDBRANCH  13  14
ENDBRANCH  12  13
ENDBRANCH  11  12
ENDBRANCH   1  11
BRANCH   2  17
HETATM   17  C   UNL     1       7.095  13.379   2.694  1.00  0.00     0.247 C 
HETATM   18  O   UNL     1       5.935  13.638   2.860  1.00  0.00    -0.268 OA
HETATM   19  N   UNL     1       7.711  12.184   2.566  1.00  0.00    -0.322 N 
ATOM     20  HN  UNL     1       8.699  12.088   2.329  1.00  0.00     0.169 HD
BRANCH  19  21
HETATM   21  C   UNL     1       6.919  11.153   2.774  1.00  0.00     0.050 A 
HETATM   22  C   UNL     1       6.462  10.513   3.835  1.00  0.00     0.117 A 
HETATM   23  N   UNL     1       5.726   9.720   4.370  1.00  0.00    -0.373 N 
HETATM   24  C   UNL     1       5.164   9.272   3.429  1.00  0.00     0.088 A 
ATOM     25  HN  UNL     1       5.618   9.498   5.359  1.00  0.00     0.164 HD
HETATM   26  C   UNL     1       5.388   9.634   2.324  1.00  0.00     0.019 A 
HETATM   27  C   UNL     1       6.161  10.516   1.722  1.00  0.00     0.032 A 
ENDBRANCH  19  21
ENDBRANCH   2  17
TORSDOF 10
ENDMDL
MODEL 8
REMARK VINA RESULT:    -5.544      3.741      5.204
REMARK INTER + INTRA:          -9.322
REMARK INTER:                  -8.543
REMARK INTRA:                  -0.779
REMARK UNBOUND:                -0.699
REMARK  10 active torsions:
REMARK  status: ('A' for Active; 'I' for Inactive)
REMARK    1  A    between atoms: S_2  and  N_5 
REMARK    2  A    between atoms: N_5  and  C_7 
REMARK    3  A    between atoms: C_7  and  C_8 
REMARK    4  A    between atoms: C_8  and  C_9 
REMARK    5  A    between atoms: C_9  and  C_15 
REMARK    6  A    between atoms: N_11  and  C_13 
REMARK    7  A    between atoms: C_13  and  C_14 
REMARK    8  A    between atoms: C_14  and  C_15 
REMARK    9  A    between atoms: C_16  and  C_17 
REMARK       I    between atoms: C_17  and  N_19 
REMARK   10  A    between atoms: N_19  and  C_21 
ROOT
HETATM    1  C   UNL     1       9.504  -0.215  21.900  1.00  0.00     0.016 C 
HETATM    2  C   UNL     1      10.207   0.731  22.329  1.00  0.00     0.094 C 
ENDROOT
BRANCH   1   3
HETATM    3  C   UNL     1       9.473  -1.389  22.493  1.00  0.00    -0.099 C 
BRANCH   3   4
HETATM    4  C   UNL     1       9.506  -2.309  23.179  1.00  0.00     0.159 C 
BRANCH   4   5
HETATM    5  N   UNL     1       8.996  -3.151  23.882  1.00  0.00    -0.269 N 
ATOM      6  HN  UNL     1       8.994  -4.128  23.590  1.00  0.00     0.181 HD
BRANCH   5   7
HETATM    7  S   UNL     1       8.323  -2.726  25.271  1.00  0.00     0.209 S 
HETATM    8  O   UNL     1       9.050  -1.521  25.769  1.00  0.00    -0.578 OA
HETATM    9  O   UNL     1       6.920  -2.404  25.040  1.00  0.00    -0.578 OA
HETATM   10  O   UNL     1       8.450  -3.775  26.214  1.00  0.00    -0.578 OA
ENDBRANCH   5   7
ENDBRANCH   4   5
ENDBRANCH   3   4
ENDBRANCH   1   3
BRANCH   1  11
HETATM   11  C   UNL     1       8.598   0.109  20.952  1.00  0.00     0.021 C 
BRANCH  11  12
HETATM   12  C   UNL     1       7.667   0.743  20.533  1.00  0.00     0.018 C 
BRANCH  12  13
HETATM   13  C   UNL     1       7.139   0.377  19.595  1.00  0.00     0.080 C 
BRANCH  13  14
HETATM   14  N   UNL     1       7.521   0.063  18.529  1.00  0.00    -0.408 N 
HETATM   15  H   UNL     1       7.119   0.272  17.695  1.00  0.00     0.155 HD
ATOM     16  HN  UNL     1       8.375  -0.494  18.497  1.00  0.00     0.155 HD
ENDBRANCH  13  14
ENDBRANCH  12  13
ENDBRANCH  11  12
ENDBRANCH   1  11
BRANCH   2  17
HETATM   17  C   UNL     1      10.625   1.727  23.141  1.00  0.00     0.247 C 
HETATM   18  O   UNL     1      10.795   1.464  24.299  1.00  0.00    -0.268 OA
HETATM   19  N   UNL     1      10.798   2.891  22.477  1.00  0.00    -0.322 N 
ATOM     20  HN  UNL     1      10.714   2.972  21.463  1.00  0.00     0.169 HD
BRANCH  19  21
HETATM   21  C   UNL     1      11.084   3.910  23.259  1.00  0.00     0.050 A 
HETATM   22  C   UNL     1      12.177   4.584  23.571  1.00  0.00     0.117 A 
HETATM   23  N   UNL     1      12.747   5.520  24.073  1.00  0.00    -0.373 N 
HETATM   24  C   UNL     1      11.837   6.094  24.568  1.00  0.00     0.088 A 
ATOM     25  HN  UNL     1      13.740   5.753  24.072  1.00  0.00     0.164 HD
HETATM   26  C   UNL     1      10.722   5.706  24.482  1.00  0.00     0.019 A 
HETATM   27  C   UNL     1      10.074   4.708  23.916  1.00  0.00     0.032 A 
ENDBRANCH  19  21
ENDBRANCH   2  17
TORSDOF 10
ENDMDL
MODEL 9
REMARK VINA RESULT:    -5.506     28.589     30.592
REMARK INTER + INTRA:          -9.263
REMARK INTER:                  -7.793
REMARK INTRA:                  -1.470
REMARK UNBOUND:                -0.699
REMARK  10 active torsions:
REMARK  status: ('A' for Active; 'I' for Inactive)
REMARK    1  A    between atoms: S_2  and  N_5 
REMARK    2  A    between atoms: N_5  and  C_7 
REMARK    3  A    between atoms: C_7  and  C_8 
REMARK    4  A    between atoms: C_8  and  C_9 
REMARK    5  A    between atoms: C_9  and  C_15 
REMARK    6  A    between atoms: N_11  and  C_13 
REMARK    7  A    between atoms: C_13  and  C_14 
REMARK    8  A    between atoms: C_14  and  C_15 
REMARK    9  A    between atoms: C_16  and  C_17 
REMARK       I    between atoms: C_17  and  N_19 
REMARK   10  A    between atoms: N_19  and  C_21 
ROOT
HETATM    1  C   UNL     1       9.259  17.782   1.064  1.00  0.00     0.016 C 
HETATM    2  C   UNL     1       9.940  18.378   1.933  1.00  0.00     0.094 C 
ENDROOT
BRANCH   1   3
HETATM    3  C   UNL     1       8.958  16.505   1.167  1.00  0.00    -0.099 C 
BRANCH   3   4
HETATM    4  C   UNL     1       8.842  15.387   1.402  1.00  0.00     0.159 C 
BRANCH   4   5
HETATM    5  N   UNL     1       9.023  14.402   2.080  1.00  0.00    -0.269 N 
ATOM      6  HN  UNL     1       8.719  13.487   1.746  1.00  0.00     0.181 HD
BRANCH   5   7
HETATM    7  S   UNL     1       9.743  14.538   3.504  1.00  0.00     0.209 S 
HETATM    8  O   UNL     1      11.153  14.959   3.253  1.00  0.00    -0.578 OA
HETATM    9  O   UNL     1       9.051  15.551   4.291  1.00  0.00    -0.578 OA
HETATM   10  O   UNL     1       9.737  13.289   4.172  1.00  0.00    -0.578 OA
ENDBRANCH   5   7
ENDBRANCH   4   5
ENDBRANCH   3   4
ENDBRANCH   1   3
BRANCH   1  11
HETATM   11  C   UNL     1       8.647  18.569   0.154  1.00  0.00     0.021 C 
BRANCH  11  12
HETATM   12  C   UNL     1       8.373  19.637  -0.327  1.00  0.00     0.018 C 
BRANCH  12  13
HETATM   13  C   UNL     1       7.306  20.017  -0.229  1.00  0.00     0.080 C 
BRANCH  13  14
HETATM   14  N   UNL     1       6.785  20.767   0.510  1.00  0.00    -0.408 N 
HETATM   15  H   UNL     1       6.846  21.714   0.500  1.00  0.00     0.155 HD
ATOM     16  HN  UNL     1       6.204  20.356   1.241  1.00  0.00     0.155 HD
ENDBRANCH  13  14
ENDBRANCH  12  13
ENDBRANCH  11  12
ENDBRANCH   1  11
BRANCH   2  17
HETATM   17  C   UNL     1      10.259  18.947   3.116  1.00  0.00     0.247 C 
HETATM   18  O   UNL     1       9.971  20.100   3.272  1.00  0.00    -0.268 OA
HETATM   19  N   UNL     1      10.861  18.077   3.957  1.00  0.00    -0.322 N 
ATOM     20  HN  UNL     1      10.968  17.084   3.749  1.00  0.00     0.169 HD
BRANCH  19  21
HETATM   21  C   UNL     1      11.296  18.629   5.070  1.00  0.00     0.050 A 
HETATM   22  C   UNL     1      10.882  18.682   6.323  1.00  0.00     0.117 A 
HETATM   23  N   UNL     1      11.041  18.940   7.490  1.00  0.00    -0.373 N 
HETATM   24  C   UNL     1      12.115  19.438   7.462  1.00  0.00     0.088 A 
ATOM     25  HN  UNL     1      10.420  18.775   8.283  1.00  0.00     0.164 HD
HETATM   26  C   UNL     1      12.731  19.560   6.458  1.00  0.00     0.019 A 
HETATM   27  C   UNL     1      12.591  19.259   5.183  1.00  0.00     0.032 A 
ENDBRANCH  19  21
ENDBRANCH   2  17
TORSDOF 10
ENDMDL
