REMARK  10 active torsions:
REMARK  status: ('A' for Active; 'I' for Inactive)
REMARK    1  A    between atoms: S_2  and  N_5 
REMARK    2  A    between atoms: N_5  and  C_7 
REMARK    3  A    between atoms: C_7  and  C_8 
REMARK    4  A    between atoms: C_8  and  C_9 
REMARK    5  A    between atoms: C_9  and  C_15 
REMARK    6  A    between atoms: N_11  and  C_13 
REMARK    7  A    between atoms: C_13  and  C_14 
REMARK    8  A    between atoms: C_14  and  C_15 
REMARK    9  A    between atoms: C_16  and  C_17 
REMARK       I    between atoms: C_17  and  N_19 
REMARK   10  A    between atoms: N_19  and  C_21 
ROOT
HETATM    1  C   UNL     1      10.316  -1.292  23.017  1.00  0.00     0.016 C 
HETATM    2  C   UNL     1       9.741  -0.438  22.301  1.00  0.00     0.094 C 
ENDROOT
BRANCH   1   3
HETATM    3  C   UNL     1       9.646  -2.149  23.758  1.00  0.00    -0.099 C 
BRANCH   3   4
HETATM    4  C   UNL     1       9.126  -3.037  24.267  1.00  0.00     0.159 C 
BRANCH   4   5
HETATM    5  N   UNL     1       8.151  -3.664  24.611  1.00  0.00    -0.269 N 
ATOM      6  HN  UNL     1       7.340  -3.728  23.995  1.00  0.00     0.181 HD
BRANCH   5   7
HETATM    7  S   UNL     1       8.136  -4.394  26.036  1.00  0.00     0.209 S 
HETATM    8  O   UNL     1       6.731  -4.822  26.303  1.00  0.00    -0.578 OA
HETATM    9  O   UNL     1       9.012  -5.558  25.982  1.00  0.00    -0.578 OA
HETATM   10  O   UNL     1       8.554  -3.495  27.047  1.00  0.00    -0.578 OA
ENDBRANCH   5   7
ENDBRANCH   4   5
ENDBRANCH   3   4
ENDBRANCH   1   3
BRANCH   1  11
HETATM   11  C   UNL     1      11.639  -1.448  22.798  1.00  0.00     0.021 C 
BRANCH  11  12
HETATM   12  C   UNL     1      12.786  -1.095  22.872  1.00  0.00     0.018 C 
BRANCH  12  13
HETATM   13  C   UNL     1      13.051  -0.259  23.595  1.00  0.00     0.080 C 
BRANCH  13  14
HETATM   14  N   UNL     1      12.419   0.379  24.352  1.00  0.00    -0.408 N 
HETATM   15  H   UNL     1      11.501   0.267  24.566  1.00  0.00     0.155 HD
ATOM     16  HN  UNL     1      12.909   1.135  24.831  1.00  0.00     0.155 HD
ENDBRANCH  13  14
ENDBRANCH  12  13
ENDBRANCH  11  12
ENDBRANCH   1  11
BRANCH   2  17
HETATM   17  C   UNL     1       9.010   0.074  21.286  1.00  0.00     0.247 C 
HETATM   18  O   UNL     1       9.475   0.999  20.680  1.00  0.00    -0.268 OA
HETATM   19  N   UNL     1       7.841  -0.581  21.115  1.00  0.00    -0.322 N 
ATOM     20  HN  UNL     1       7.593  -1.424  21.634  1.00  0.00     0.169 HD
BRANCH  19  21
HETATM   21  C   UNL     1       7.051  -0.031  20.217  1.00  0.00     0.050 A 
HETATM   22  C   UNL     1       7.031   0.049  18.899  1.00  0.00     0.117 A 
HETATM   23  N   UNL     1       6.492   0.314  17.853  1.00  0.00    -0.373 N 
HETATM   24  C   UNL     1       5.473   0.776  18.241  1.00  0.00     0.088 A 
ATOM     25  HN  UNL     1       6.823   0.178  16.898  1.00  0.00     0.164 HD
HETATM   26  C   UNL     1       5.216   0.867  19.393  1.00  0.00     0.019 A 
HETATM   27  C   UNL     1       5.773   0.557  20.546  1.00  0.00     0.032 A 
ENDBRANCH  19  21
ENDBRANCH   2  17
TORSDOF 10
