MODEL 1
REMARK VINA RESULT:    -7.302      0.000      0.000
REMARK INTER + INTRA:         -11.013
REMARK INTER:                  -9.863
REMARK INTRA:                  -1.150
REMARK UNBOUND:                -1.150
REMARK  6 active torsions:
REMARK  status: ('A' for Active; 'I' for Inactive)
REMARK    1  A    between atoms: S_2  and  N_5 
REMARK    2  A    between atoms: N_5  and  C_7 
REMARK    3  A    between atoms: C_8  and  C_9 
REMARK    4  A    between atoms: C_9  and  C_15 
REMARK    5  A    between atoms: C_15  and  C_16 
REMARK       I    between atoms: C_16  and  N_18 
REMARK    6  A    between atoms: N_18  and  C_20 
ROOT
HETATM    1  C   UNL     1       9.567  -1.501  23.318  1.00  0.00     0.076 C 
HETATM    2  C   UNL     1       9.293  -0.508  24.752  1.00  0.00     0.003 C 
HETATM    3  C   UNL     1      10.045   0.135  25.133  1.00  0.00    -0.002 C 
HETATM    4  C   UNL     1      11.373   0.369  24.843  1.00  0.00    -0.001 C 
HETATM    5  C   UNL     1      11.838  -0.522  23.730  1.00  0.00    -0.002 C 
HETATM    6  C   UNL     1      11.306  -1.228  23.219  1.00  0.00     0.003 C 
ENDROOT
BRANCH   1   7
HETATM    7  C   UNL     1       9.134  -2.623  23.092  1.00  0.00     0.021 C 
HETATM    8  C   UNL     1       8.215  -3.466  23.075  1.00  0.00     0.098 C 
BRANCH   8   9
HETATM    9  N   UNL     1       7.609  -4.429  22.645  1.00  0.00    -0.296 N 
ATOM     10  HN  UNL     1       8.123  -5.308  22.597  1.00  0.00     0.177 HD
BRANCH   9  11
HETATM   11  S   UNL     1       6.080  -4.458  22.144  1.00  0.00     0.226 S 
HETATM   12  C   UNL     1       5.996  -5.747  21.035  1.00  0.00     0.186 C 
HETATM   13  O   UNL     1       5.171  -4.764  23.208  1.00  0.00    -0.206 OA
HETATM   14  O   UNL     1       5.706  -3.257  21.444  1.00  0.00    -0.206 OA
ENDBRANCH   9  11
ENDBRANCH   8   9
ENDBRANCH   1   7
BRANCH   1  15
HETATM   15  C   UNL     1       9.094  -0.950  22.362  1.00  0.00    -0.061 C 
BRANCH  15  16
HETATM   16  C   UNL     1       8.580  -0.359  21.286  1.00  0.00     0.290 C 
HETATM   17  O   UNL     1       9.285   0.306  20.712  1.00  0.00    -0.259 OA
HETATM   18  N   UNL     1       7.269  -0.666  21.139  1.00  0.00    -0.314 N 
ATOM     19  HN  UNL     1       6.804  -1.276  21.813  1.00  0.00     0.170 HD
BRANCH  18  20
HETATM   20  C   UNL     1       6.639  -0.199  20.177  1.00  0.00     0.072 A 
HETATM   21  C   UNL     1       6.308  -0.595  18.947  1.00  0.00     0.119 A 
HETATM   22  N   UNL     1       5.801  -0.468  17.852  1.00  0.00    -0.373 N 
HETATM   23  C   UNL     1       5.293   0.790  18.072  1.00  0.00     0.089 A 
ATOM     24  HN  UNL     1       5.765  -1.086  17.042  1.00  0.00     0.164 HD
HETATM   25  C   UNL     1       5.359   1.477  19.060  1.00  0.00     0.043 A 
HETATM   26  C   UNL     1       5.929   1.225  20.243  1.00  0.00     0.063 A 
HETATM   27 CL   UNL     1       6.012   2.087  21.552  1.00  0.00    -0.082 Cl
ENDBRANCH  18  20
ENDBRANCH  15  16
ENDBRANCH   1  15
TORSDOF 6
ENDMDL
MODEL 2
REMARK VINA RESULT:    -6.964      2.836      6.156
REMARK INTER + INTRA:         -10.557
REMARK INTER:                  -9.864
REMARK INTRA:                  -0.693
REMARK UNBOUND:                -1.150
REMARK  6 active torsions:
REMARK  status: ('A' for Active; 'I' for Inactive)
REMARK    1  A    between atoms: S_2  and  N_5 
REMARK    2  A    between atoms: N_5  and  C_7 
REMARK    3  A    between atoms: C_8  and  C_9 
REMARK    4  A    between atoms: C_9  and  C_15 
REMARK    5  A    between atoms: C_15  and  C_16 
REMARK       I    between atoms: C_16  and  N_18 
REMARK    6  A    between atoms: N_18  and  C_20 
ROOT
HETATM    1  C   UNL     1       6.617  -3.228  22.368  1.00  0.00     0.076 C 
HETATM    2  C   UNL     1       5.440  -3.579  23.635  1.00  0.00     0.003 C 
HETATM    3  C   UNL     1       5.204  -4.575  23.913  1.00  0.00    -0.002 C 
HETATM    4  C   UNL     1       5.529  -5.828  23.436  1.00  0.00    -0.001 C 
HETATM    5  C   UNL     1       6.415  -5.723  22.229  1.00  0.00    -0.002 C 
HETATM    6  C   UNL     1       6.762  -4.879  21.769  1.00  0.00     0.003 C 
ENDROOT
BRANCH   1   7
HETATM    7  C   UNL     1       6.594  -2.310  21.559  1.00  0.00     0.021 C 
HETATM    8  C   UNL     1       5.992  -1.443  20.894  1.00  0.00     0.098 C 
BRANCH   8   9
HETATM    9  N   UNL     1       5.870  -0.370  20.336  1.00  0.00    -0.296 N 
ATOM     10  HN  UNL     1       5.401   0.368  20.861  1.00  0.00     0.177 HD
BRANCH   9  11
HETATM   11  S   UNL     1       6.371   0.007  18.854  1.00  0.00     0.226 S 
HETATM   12  C   UNL     1       5.598   1.478  18.479  1.00  0.00     0.186 C 
HETATM   13  O   UNL     1       7.781   0.255  18.809  1.00  0.00    -0.206 OA
HETATM   14  O   UNL     1       5.963  -0.962  17.870  1.00  0.00    -0.206 OA
ENDBRANCH   9  11
ENDBRANCH   8   9
ENDBRANCH   1   7
BRANCH   1  15
HETATM   15  C   UNL     1       7.675  -2.969  22.875  1.00  0.00    -0.061 C 
BRANCH  15  16
HETATM   16  C   UNL     1       8.853  -2.710  23.435  1.00  0.00     0.290 C 
HETATM   17  O   UNL     1       9.120  -3.347  24.326  1.00  0.00    -0.259 OA
HETATM   18  N   UNL     1       9.472  -1.676  22.816  1.00  0.00    -0.314 N 
ATOM     19  HN  UNL     1       9.024  -1.204  22.030  1.00  0.00     0.170 HD
BRANCH  18  20
HETATM   20  C   UNL     1      10.588  -1.308  23.215  1.00  0.00     0.072 A 
HETATM   21  C   UNL     1      11.860  -1.640  22.988  1.00  0.00     0.119 A 
HETATM   22  N   UNL     1      13.060  -1.564  23.147  1.00  0.00    -0.373 N 
HETATM   23  C   UNL     1      13.020  -0.545  24.069  1.00  0.00     0.089 A 
ATOM     24  HN  UNL     1      13.837  -2.081  22.735  1.00  0.00     0.164 HD
HETATM   25  C   UNL     1      12.066   0.039  24.517  1.00  0.00     0.043 A 
HETATM   26  C   UNL     1      10.765  -0.109  24.248  1.00  0.00     0.063 A 
HETATM   27 CL   UNL     1       9.505   0.650  24.796  1.00  0.00    -0.082 Cl
ENDBRANCH  18  20
ENDBRANCH  15  16
ENDBRANCH   1  15
TORSDOF 6
ENDMDL
MODEL 3
REMARK VINA RESULT:    -6.902      2.933      5.739
REMARK INTER + INTRA:         -10.473
REMARK INTER:                  -9.629
REMARK INTRA:                  -0.843
REMARK UNBOUND:                -1.150
REMARK  6 active torsions:
REMARK  status: ('A' for Active; 'I' for Inactive)
REMARK    1  A    between atoms: S_2  and  N_5 
REMARK    2  A    between atoms: N_5  and  C_7 
REMARK    3  A    between atoms: C_8  and  C_9 
REMARK    4  A    between atoms: C_9  and  C_15 
REMARK    5  A    between atoms: C_15  and  C_16 
REMARK       I    between atoms: C_16  and  N_18 
REMARK    6  A    between atoms: N_18  and  C_20 
ROOT
HETATM    1  C   UNL     1      10.178  -0.640  23.241  1.00  0.00     0.076 C 
HETATM    2  C   UNL     1      11.621  -1.540  22.768  1.00  0.00     0.003 C 
HETATM    3  C   UNL     1      12.567  -1.342  23.204  1.00  0.00    -0.002 C 
HETATM    4  C   UNL     1      13.064  -0.393  24.074  1.00  0.00    -0.001 C 
HETATM    5  C   UNL     1      11.992   0.580  24.467  1.00  0.00    -0.002 C 
HETATM    6  C   UNL     1      11.016   0.603  24.168  1.00  0.00     0.003 C 
ENDROOT
BRANCH   1   7
HETATM    7  C   UNL     1       9.237  -0.310  22.532  1.00  0.00     0.021 C 
HETATM    8  C   UNL     1       8.092  -0.486  22.070  1.00  0.00     0.098 C 
BRANCH   8   9
HETATM    9  N   UNL     1       7.011  -0.133  21.637  1.00  0.00    -0.296 N 
ATOM     10  HN  UNL     1       6.241  -0.097  22.305  1.00  0.00     0.177 HD
BRANCH   9  11
HETATM   11  S   UNL     1       6.671   0.283  20.120  1.00  0.00     0.226 S 
HETATM   12  C   UNL     1       5.677  -0.965  19.525  1.00  0.00     0.186 C 
HETATM   13  O   UNL     1       5.905   1.492  20.053  1.00  0.00    -0.206 OA
HETATM   14  O   UNL     1       7.844   0.340  19.288  1.00  0.00    -0.206 OA
ENDBRANCH   9  11
ENDBRANCH   8   9
ENDBRANCH   1   7
BRANCH   1  15
HETATM   15  C   UNL     1       9.557  -1.285  24.042  1.00  0.00    -0.061 C 
BRANCH  15  16
HETATM   16  C   UNL     1       8.860  -2.015  24.908  1.00  0.00     0.290 C 
HETATM   17  O   UNL     1       8.604  -1.506  25.880  1.00  0.00    -0.259 OA
HETATM   18  N   UNL     1       8.642  -3.264  24.430  1.00  0.00    -0.314 N 
ATOM     19  HN  UNL     1       9.003  -3.535  23.515  1.00  0.00     0.170 HD
BRANCH  18  20
HETATM   20  C   UNL     1       7.999  -4.074  25.116  1.00  0.00     0.072 A 
HETATM   21  C   UNL     1       8.256  -4.929  26.107  1.00  0.00     0.119 A 
HETATM   22  N   UNL     1       7.975  -5.783  26.921  1.00  0.00    -0.373 N 
HETATM   23  C   UNL     1       6.638  -5.847  26.608  1.00  0.00     0.089 A 
ATOM     24  HN  UNL     1       8.540  -6.284  27.606  1.00  0.00     0.164 HD
HETATM   25  C   UNL     1       6.016  -5.221  25.787  1.00  0.00     0.043 A 
HETATM   26  C   UNL     1       6.428  -4.266  24.946  1.00  0.00     0.063 A 
HETATM   27 CL   UNL     1       5.640  -3.418  23.885  1.00  0.00    -0.082 Cl
ENDBRANCH  18  20
ENDBRANCH  15  16
ENDBRANCH   1  15
TORSDOF 6
ENDMDL
MODEL 4
REMARK VINA RESULT:    -6.586      4.298      6.497
REMARK INTER + INTRA:         -10.046
REMARK INTER:                  -9.609
REMARK INTRA:                  -0.437
REMARK UNBOUND:                -1.150
REMARK  6 active torsions:
REMARK  status: ('A' for Active; 'I' for Inactive)
REMARK    1  A    between atoms: S_2  and  N_5 
REMARK    2  A    between atoms: N_5  and  C_7 
REMARK    3  A    between atoms: C_8  and  C_9 
REMARK    4  A    between atoms: C_9  and  C_15 
REMARK    5  A    between atoms: C_15  and  C_16 
REMARK       I    between atoms: C_16  and  N_18 
REMARK    6  A    between atoms: N_18  and  C_20 
ROOT
HETATM    1  C   UNL     1       7.034  -4.756  24.353  1.00  0.00     0.076 C 
HETATM    2  C   UNL     1       7.729  -5.594  22.964  1.00  0.00     0.003 C 
HETATM    3  C   UNL     1       7.156  -5.796  22.094  1.00  0.00    -0.002 C 
HETATM    4  C   UNL     1       5.831  -5.655  21.740  1.00  0.00    -0.001 C 
HETATM    5  C   UNL     1       5.033  -5.094  22.881  1.00  0.00    -0.002 C 
HETATM    6  C   UNL     1       5.358  -4.837  23.814  1.00  0.00     0.003 C 
ENDROOT
BRANCH   1   7
HETATM    7  C   UNL     1       7.281  -4.940  25.537  1.00  0.00     0.021 C 
HETATM    8  C   UNL     1       7.093  -5.524  26.623  1.00  0.00     0.098 C 
BRANCH   8   9
HETATM    9  N   UNL     1       7.424  -5.986  27.698  1.00  0.00    -0.296 N 
ATOM     10  HN  UNL     1       8.420  -6.153  27.837  1.00  0.00     0.177 HD
BRANCH   9  11
HETATM   11  S   UNL     1       6.451  -6.362  28.924  1.00  0.00     0.226 S 
HETATM   12  C   UNL     1       4.898  -6.500  28.238  1.00  0.00     0.186 C 
HETATM   13  O   UNL     1       6.770  -7.637  29.492  1.00  0.00    -0.206 OA
HETATM   14  O   UNL     1       6.395  -5.325  29.922  1.00  0.00    -0.206 OA
ENDBRANCH   9  11
ENDBRANCH   8   9
ENDBRANCH   1   7
BRANCH   1  15
HETATM   15  C   UNL     1       7.339  -3.595  24.304  1.00  0.00    -0.061 C 
BRANCH  15  16
HETATM   16  C   UNL     1       7.701  -2.315  24.262  1.00  0.00     0.290 C 
HETATM   17  O   UNL     1       6.881  -1.584  24.010  1.00  0.00    -0.259 OA
HETATM   18  N   UNL     1       9.027  -2.175  24.499  1.00  0.00    -0.314 N 
ATOM     19  HN  UNL     1       9.609  -2.995  24.674  1.00  0.00     0.170 HD
BRANCH  18  20
HETATM   20  C   UNL     1       9.528  -1.040  24.502  1.00  0.00     0.072 A 
HETATM   21  C   UNL     1       9.260   0.140  25.064  1.00  0.00     0.119 A 
HETATM   22  N   UNL     1       9.446   1.318  25.285  1.00  0.00    -0.373 N 
HETATM   23  C   UNL     1      10.579   1.434  24.516  1.00  0.00     0.089 A 
ATOM     24  HN  UNL     1       8.933   1.995  25.850  1.00  0.00     0.164 HD
HETATM   25  C   UNL     1      11.151   0.592  23.870  1.00  0.00     0.043 A 
HETATM   26  C   UNL     1      10.871  -0.706  23.714  1.00  0.00     0.063 A 
HETATM   27 CL   UNL     1      11.608  -1.829  22.901  1.00  0.00    -0.082 Cl
ENDBRANCH  18  20
ENDBRANCH  15  16
ENDBRANCH   1  15
TORSDOF 6
ENDMDL
MODEL 5
REMARK VINA RESULT:    -6.431      2.823      4.989
REMARK INTER + INTRA:          -9.836
REMARK INTER:                  -8.550
REMARK INTRA:                  -1.286
REMARK UNBOUND:                -1.150
REMARK  6 active torsions:
REMARK  status: ('A' for Active; 'I' for Inactive)
REMARK    1  A    between atoms: S_2  and  N_5 
REMARK    2  A    between atoms: N_5  and  C_7 
REMARK    3  A    between atoms: C_8  and  C_9 
REMARK    4  A    between atoms: C_9  and  C_15 
REMARK    5  A    between atoms: C_15  and  C_16 
REMARK       I    between atoms: C_16  and  N_18 
REMARK    6  A    between atoms: N_18  and  C_20 
ROOT
HETATM    1  C   UNL     1       9.819  -0.344  22.519  1.00  0.00     0.076 C 
HETATM    2  C   UNL     1      11.303  -1.296  22.583  1.00  0.00     0.003 C 
HETATM    3  C   UNL     1      12.025  -1.148  23.346  1.00  0.00    -0.002 C 
HETATM    4  C   UNL     1      12.193  -0.242  24.373  1.00  0.00    -0.001 C 
HETATM    5  C   UNL     1      11.084   0.769  24.376  1.00  0.00    -0.002 C 
HETATM    6  C   UNL     1      10.290   0.840  23.736  1.00  0.00     0.003 C 
ENDROOT
BRANCH   1   7
HETATM    7  C   UNL     1       9.220   0.043  21.524  1.00  0.00     0.021 C 
HETATM    8  C   UNL     1       8.694  -0.153  20.410  1.00  0.00     0.098 C 
BRANCH   8   9
HETATM    9  N   UNL     1       7.882   0.038  19.526  1.00  0.00    -0.296 N 
ATOM     10  HN  UNL     1       8.226   0.487  18.678  1.00  0.00     0.177 HD
BRANCH   9  11
HETATM   11  S   UNL     1       6.319  -0.347  19.555  1.00  0.00     0.226 S 
HETATM   12  C   UNL     1       5.512   1.088  19.993  1.00  0.00     0.186 C 
HETATM   13  O   UNL     1       5.832  -0.719  18.261  1.00  0.00    -0.206 OA
HETATM   14  O   UNL     1       6.014  -1.339  20.553  1.00  0.00    -0.206 OA
ENDBRANCH   9  11
ENDBRANCH   8   9
ENDBRANCH   1   7
BRANCH   1  15
HETATM   15  C   UNL     1       8.923  -0.978  23.008  1.00  0.00    -0.061 C 
BRANCH  15  16
HETATM   16  C   UNL     1       7.913  -1.667  23.534  1.00  0.00     0.290 C 
HETATM   17  O   UNL     1       7.450  -1.223  24.459  1.00  0.00    -0.259 OA
HETATM   18  N   UNL     1       7.687  -2.808  22.839  1.00  0.00    -0.314 N 
ATOM     19  HN  UNL     1       8.264  -3.042  22.030  1.00  0.00     0.170 HD
BRANCH  18  20
HETATM   20  C   UNL     1       6.772  -3.565  23.196  1.00  0.00     0.072 A 
HETATM   21  C   UNL     1       5.467  -3.698  22.951  1.00  0.00     0.119 A 
HETATM   22  N   UNL     1       4.372  -4.203  23.078  1.00  0.00    -0.373 N 
HETATM   23  C   UNL     1       4.764  -5.180  23.960  1.00  0.00     0.089 A 
ATOM     24  HN  UNL     1       3.465  -3.978  22.667  1.00  0.00     0.164 HD
HETATM   25  C   UNL     1       5.859  -5.407  24.409  1.00  0.00     0.043 A 
HETATM   26  C   UNL     1       7.025  -4.794  24.177  1.00  0.00     0.063 A 
HETATM   27 CL   UNL     1       8.467  -5.080  24.727  1.00  0.00    -0.082 Cl
ENDBRANCH  18  20
ENDBRANCH  15  16
ENDBRANCH   1  15
TORSDOF 6
ENDMDL
MODEL 6
REMARK VINA RESULT:    -6.339     15.003     16.224
REMARK INTER + INTRA:          -9.713
REMARK INTER:                  -8.839
REMARK INTRA:                  -0.874
REMARK UNBOUND:                -1.150
REMARK  6 active torsions:
REMARK  status: ('A' for Active; 'I' for Inactive)
REMARK    1  A    between atoms: S_2  and  N_5 
REMARK    2  A    between atoms: N_5  and  C_7 
REMARK    3  A    between atoms: C_8  and  C_9 
REMARK    4  A    between atoms: C_9  and  C_15 
REMARK    5  A    between atoms: C_15  and  C_16 
REMARK       I    between atoms: C_16  and  N_18 
REMARK    6  A    between atoms: N_18  and  C_20 
ROOT
HETATM    1  C   UNL     1      23.221  -1.967  23.877  1.00  0.00     0.076 C 
HETATM    2  C   UNL     1      21.502  -1.629  24.083  1.00  0.00     0.003 C 
HETATM    3  C   UNL     1      21.162  -0.716  24.502  1.00  0.00    -0.002 C 
HETATM    4  C   UNL     1      21.765   0.374  25.095  1.00  0.00    -0.001 C 
HETATM    5  C   UNL     1      23.253   0.188  25.158  1.00  0.00    -0.002 C 
HETATM    6  C   UNL     1      23.806  -0.608  24.834  1.00  0.00     0.003 C 
ENDROOT
BRANCH   1   7
HETATM    7  C   UNL     1      23.789  -3.047  23.981  1.00  0.00     0.021 C 
HETATM    8  C   UNL     1      23.787  -4.276  24.192  1.00  0.00     0.098 C 
BRANCH   8   9
HETATM    9  N   UNL     1      24.175  -5.420  24.050  1.00  0.00    -0.296 N 
ATOM     10  HN  UNL     1      24.418  -5.707  23.103  1.00  0.00     0.177 HD
BRANCH   9  11
HETATM   11  S   UNL     1      24.345  -6.528  25.205  1.00  0.00     0.226 S 
HETATM   12  C   UNL     1      26.025  -6.662  25.455  1.00  0.00     0.186 C 
HETATM   13  O   UNL     1      23.773  -6.103  26.447  1.00  0.00    -0.206 OA
HETATM   14  O   UNL     1      23.861  -7.823  24.803  1.00  0.00    -0.206 OA
ENDBRANCH   9  11
ENDBRANCH   8   9
ENDBRANCH   1   7
BRANCH   1  15
HETATM   15  C   UNL     1      23.536  -1.729  22.742  1.00  0.00    -0.061 C 
BRANCH  15  16
HETATM   16  C   UNL     1      23.913  -1.464  21.494  1.00  0.00     0.290 C 
HETATM   17  O   UNL     1      24.886  -0.907  21.386  1.00  0.00    -0.259 OA
HETATM   18  N   UNL     1      22.989  -1.899  20.603  1.00  0.00    -0.314 N 
ATOM     19  HN  UNL     1      22.137  -2.358  20.927  1.00  0.00     0.170 HD
BRANCH  18  20
HETATM   20  C   UNL     1      23.190  -1.733  19.390  1.00  0.00     0.072 A 
HETATM   21  C   UNL     1      22.921  -0.797  18.479  1.00  0.00     0.119 A 
HETATM   22  N   UNL     1      22.920  -0.317  17.364  1.00  0.00    -0.373 N 
HETATM   23  C   UNL     1      23.595  -1.351  16.761  1.00  0.00     0.089 A 
ATOM     24  HN  UNL     1      22.544   0.558  16.999  1.00  0.00     0.164 HD
HETATM   25  C   UNL     1      24.027  -2.366  17.246  1.00  0.00     0.043 A 
HETATM   26  C   UNL     1      23.997  -2.790  18.514  1.00  0.00     0.063 A 
HETATM   27 CL   UNL     1      24.569  -4.092  19.179  1.00  0.00    -0.082 Cl
ENDBRANCH  18  20
ENDBRANCH  15  16
ENDBRANCH   1  15
TORSDOF 6
ENDMDL
MODEL 7
REMARK VINA RESULT:    -6.266      3.599      6.117
REMARK INTER + INTRA:          -9.614
REMARK INTER:                  -8.725
REMARK INTRA:                  -0.890
REMARK UNBOUND:                -1.150
REMARK  6 active torsions:
REMARK  status: ('A' for Active; 'I' for Inactive)
REMARK    1  A    between atoms: S_2  and  N_5 
REMARK    2  A    between atoms: N_5  and  C_7 
REMARK    3  A    between atoms: C_8  and  C_9 
REMARK    4  A    between atoms: C_9  and  C_15 
REMARK    5  A    between atoms: C_15  and  C_16 
REMARK       I    between atoms: C_16  and  N_18 
REMARK    6  A    between atoms: N_18  and  C_20 
ROOT
HETATM    1  C   UNL     1       7.745   3.178  23.159  1.00  0.00     0.076 C 
HETATM    2  C   UNL     1       8.180   4.886  23.062  1.00  0.00     0.003 C 
HETATM    3  C   UNL     1       8.425   5.447  23.928  1.00  0.00    -0.002 C 
HETATM    4  C   UNL     1       8.402   5.209  25.286  1.00  0.00    -0.001 C 
HETATM    5  C   UNL     1       7.892   3.828  25.576  1.00  0.00    -0.002 C 
HETATM    6  C   UNL     1       7.583   3.115  24.913  1.00  0.00     0.003 C 
ENDROOT
BRANCH   1   7
HETATM    7  C   UNL     1       6.934   2.573  22.471  1.00  0.00     0.021 C 
HETATM    8  C   UNL     1       6.624   1.908  21.463  1.00  0.00     0.098 C 
BRANCH   8   9
HETATM    9  N   UNL     1       6.001   1.065  20.846  1.00  0.00    -0.296 N 
ATOM     10  HN  UNL     1       5.044   0.890  21.151  1.00  0.00     0.177 HD
BRANCH   9  11
HETATM   11  S   UNL     1       6.531   0.197  19.598  1.00  0.00     0.226 S 
HETATM   12  C   UNL     1       5.902   0.969  18.216  1.00  0.00     0.186 C 
HETATM   13  O   UNL     1       7.958   0.236  19.483  1.00  0.00    -0.206 OA
HETATM   14  O   UNL     1       6.027  -1.151  19.610  1.00  0.00    -0.206 OA
ENDBRANCH   9  11
ENDBRANCH   8   9
ENDBRANCH   1   7
BRANCH   1  15
HETATM   15  C   UNL     1       8.709   2.512  22.895  1.00  0.00    -0.061 C 
BRANCH  15  16
HETATM   16  C   UNL     1       9.778   1.765  22.630  1.00  0.00     0.290 C 
HETATM   17  O   UNL     1      10.240   1.918  21.614  1.00  0.00    -0.259 OA
HETATM   18  N   UNL     1      10.057   0.930  23.659  1.00  0.00    -0.314 N 
ATOM     19  HN  UNL     1       9.472   0.929  24.495  1.00  0.00     0.170 HD
BRANCH  18  20
HETATM   20  C   UNL     1      11.031   0.166  23.575  1.00  0.00     0.072 A 
HETATM   21  C   UNL     1      12.276   0.121  24.051  1.00  0.00     0.119 A 
HETATM   22  N   UNL     1      13.385  -0.354  24.184  1.00  0.00    -0.373 N 
HETATM   23  C   UNL     1      13.164  -1.461  23.401  1.00  0.00     0.089 A 
ATOM     24  HN  UNL     1      14.204  -0.038  24.703  1.00  0.00     0.164 HD
HETATM   25  C   UNL     1      12.165  -1.792  22.813  1.00  0.00     0.043 A 
HETATM   26  C   UNL     1      10.968  -1.198  22.755  1.00  0.00     0.063 A 
HETATM   27 CL   UNL     1       9.645  -1.615  22.020  1.00  0.00    -0.082 Cl
ENDBRANCH  18  20
ENDBRANCH  15  16
ENDBRANCH   1  15
TORSDOF 6
ENDMDL
MODEL 8
REMARK VINA RESULT:    -6.211     23.605     26.924
REMARK INTER + INTRA:          -9.540
REMARK INTER:                  -8.509
REMARK INTRA:                  -1.030
REMARK UNBOUND:                -1.150
REMARK  6 active torsions:
REMARK  status: ('A' for Active; 'I' for Inactive)
REMARK    1  A    between atoms: S_2  and  N_5 
REMARK    2  A    between atoms: N_5  and  C_7 
REMARK    3  A    between atoms: C_8  and  C_9 
REMARK    4  A    between atoms: C_9  and  C_15 
REMARK    5  A    between atoms: C_15  and  C_16 
REMARK       I    between atoms: C_16  and  N_18 
REMARK    6  A    between atoms: N_18  and  C_20 
ROOT
HETATM    1  C   UNL     1       8.427  17.340   1.501  1.00  0.00     0.076 C 
HETATM    2  C   UNL     1       9.268  18.057   0.125  1.00  0.00     0.003 C 
HETATM    3  C   UNL     1       8.996  19.008  -0.257  1.00  0.00    -0.002 C 
HETATM    4  C   UNL     1       7.980  19.909  -0.010  1.00  0.00    -0.001 C 
HETATM    5  C   UNL     1       7.049  19.384   1.042  1.00  0.00    -0.002 C 
HETATM    6  C   UNL     1       7.095  18.494   1.543  1.00  0.00     0.003 C 
ENDROOT
BRANCH   1   7
HETATM    7  C   UNL     1       8.184  16.156   1.695  1.00  0.00     0.021 C 
HETATM    8  C   UNL     1       8.520  14.956   1.735  1.00  0.00     0.098 C 
BRANCH   8   9
HETATM    9  N   UNL     1       8.486  13.815   2.155  1.00  0.00    -0.296 N 
ATOM     10  HN  UNL     1       8.276  13.083   1.476  1.00  0.00     0.177 HD
BRANCH   9  11
HETATM   11  S   UNL     1       8.741  13.340   3.672  1.00  0.00     0.226 S 
HETATM   12  C   UNL     1       7.467  14.021   4.575  1.00  0.00     0.186 C 
HETATM   13  O   UNL     1       8.637  11.918   3.815  1.00  0.00    -0.206 OA
HETATM   14  O   UNL     1       9.976  13.848   4.209  1.00  0.00    -0.206 OA
ENDBRANCH   9  11
ENDBRANCH   8   9
ENDBRANCH   1   7
BRANCH   1  15
HETATM   15  C   UNL     1       9.064  17.539   2.499  1.00  0.00    -0.061 C 
BRANCH  15  16
HETATM   16  C   UNL     1       9.747  17.770   3.617  1.00  0.00     0.290 C 
HETATM   17  O   UNL     1       9.410  17.193   4.524  1.00  0.00    -0.259 OA
HETATM   18  N   UNL     1      10.701  18.712   3.420  1.00  0.00    -0.314 N 
ATOM     19  HN  UNL     1      10.816  19.146   2.504  1.00  0.00     0.170 HD
BRANCH  18  20
HETATM   20  C   UNL     1      11.434  19.042   4.366  1.00  0.00     0.072 A 
HETATM   21  C   UNL     1      12.610  18.659   4.864  1.00  0.00     0.119 A 
HETATM   22  N   UNL     1      13.532  18.692   5.652  1.00  0.00    -0.373 N 
HETATM   23  C   UNL     1      13.037  19.724   6.413  1.00  0.00     0.089 A 
ATOM     24  HN  UNL     1      14.387  18.140   5.725  1.00  0.00     0.164 HD
HETATM   25  C   UNL     1      12.017  20.350   6.275  1.00  0.00     0.043 A 
HETATM   26  C   UNL     1      11.067  20.248   5.339  1.00  0.00     0.063 A 
HETATM   27 CL   UNL     1       9.743  21.062   5.121  1.00  0.00    -0.082 Cl
ENDBRANCH  18  20
ENDBRANCH  15  16
ENDBRANCH   1  15
TORSDOF 6
ENDMDL
MODEL 9
REMARK VINA RESULT:    -6.092      4.723      8.184
REMARK INTER + INTRA:          -9.378
REMARK INTER:                  -8.616
REMARK INTRA:                  -0.762
REMARK UNBOUND:                -1.150
REMARK  6 active torsions:
REMARK  status: ('A' for Active; 'I' for Inactive)
REMARK    1  A    between atoms: S_2  and  N_5 
REMARK    2  A    between atoms: N_5  and  C_7 
REMARK    3  A    between atoms: C_8  and  C_9 
REMARK    4  A    between atoms: C_9  and  C_15 
REMARK    5  A    between atoms: C_15  and  C_16 
REMARK       I    between atoms: C_16  and  N_18 
REMARK    6  A    between atoms: N_18  and  C_20 
ROOT
HETATM    1  C   UNL     1       7.491  -3.951  23.770  1.00  0.00     0.076 C 
HETATM    2  C   UNL     1       5.846  -3.482  23.337  1.00  0.00     0.003 C 
HETATM    3  C   UNL     1       5.192  -4.149  22.835  1.00  0.00    -0.002 C 
HETATM    4  C   UNL     1       5.315  -5.402  22.271  1.00  0.00    -0.001 C 
HETATM    5  C   UNL     1       6.722  -5.906  22.401  1.00  0.00    -0.002 C 
HETATM    6  C   UNL     1       7.525  -5.441  22.829  1.00  0.00     0.003 C 
ENDROOT
BRANCH   1   7
HETATM    7  C   UNL     1       8.490  -3.245  23.789  1.00  0.00     0.021 C 
HETATM    8  C   UNL     1       9.078  -2.176  24.048  1.00  0.00     0.098 C 
BRANCH   8   9
HETATM    9  N   UNL     1      10.029  -1.491  24.373  1.00  0.00    -0.296 N 
ATOM     10  HN  UNL     1      10.102  -1.249  25.361  1.00  0.00     0.177 HD
BRANCH   9  11
HETATM   11  S   UNL     1      11.185  -0.929  23.405  1.00  0.00     0.226 S 
HETATM   12  C   UNL     1      12.280  -0.127  24.434  1.00  0.00     0.186 C 
HETATM   13  O   UNL     1      11.913  -1.984  22.766  1.00  0.00    -0.206 OA
HETATM   14  O   UNL     1      10.691   0.037  22.459  1.00  0.00    -0.206 OA
ENDBRANCH   9  11
ENDBRANCH   8   9
ENDBRANCH   1   7
BRANCH   1  15
HETATM   15  C   UNL     1       7.513  -4.291  24.922  1.00  0.00    -0.061 C 
BRANCH  15  16
HETATM   16  C   UNL     1       7.527  -4.641  26.206  1.00  0.00     0.290 C 
HETATM   17  O   UNL     1       8.490  -4.441  26.755  1.00  0.00    -0.259 OA
HETATM   18  N   UNL     1       6.357  -5.220  26.567  1.00  0.00    -0.314 N 
ATOM     19  HN  UNL     1       5.609  -5.340  25.884  1.00  0.00     0.170 HD
BRANCH  18  20
HETATM   20  C   UNL     1       6.203  -5.601  27.738  1.00  0.00     0.072 A 
HETATM   21  C   UNL     1       6.544  -6.665  28.467  1.00  0.00     0.119 A 
HETATM   22  N   UNL     1       6.579  -7.342  29.473  1.00  0.00    -0.373 N 
HETATM   23  C   UNL     1       5.875  -6.464  30.262  1.00  0.00     0.089 A 
ATOM     24  HN  UNL     1       6.992  -8.254  29.668  1.00  0.00     0.164 HD
HETATM   25  C   UNL     1       5.414  -5.387  29.980  1.00  0.00     0.043 A 
HETATM   26  C   UNL     1       5.458  -4.711  28.827  1.00  0.00     0.063 A 
HETATM   27 CL   UNL     1       4.889  -3.301  28.437  1.00  0.00    -0.082 Cl
ENDBRANCH  18  20
ENDBRANCH  15  16
ENDBRANCH   1  15
TORSDOF 6
ENDMDL
