REMARK  6 active torsions:
REMARK  status: ('A' for Active; 'I' for Inactive)
REMARK    1  A    between atoms: S_2  and  N_5 
REMARK    2  A    between atoms: N_5  and  C_7 
REMARK    3  A    between atoms: C_8  and  C_9 
REMARK    4  A    between atoms: C_9  and  C_15 
REMARK    5  A    between atoms: C_15  and  C_16 
REMARK       I    between atoms: C_16  and  N_18 
REMARK    6  A    between atoms: N_18  and  C_20 
ROOT
HETATM    1  C   UNL     1      10.311  -1.155  23.230  1.00  0.00     0.076 C 
HETATM    2  C   UNL     1      11.059   0.028  24.305  1.00  0.00     0.003 C 
HETATM    3  C   UNL     1      12.085   0.283  24.222  1.00  0.00    -0.002 C 
HETATM    4  C   UNL     1      13.152  -0.180  23.480  1.00  0.00    -0.001 C 
HETATM    5  C   UNL     1      12.733  -1.324  22.604  1.00  0.00    -0.002 C 
HETATM    6  C   UNL     1      11.810  -1.754  22.522  1.00  0.00     0.003 C 
ENDROOT
BRANCH   1   7
HETATM    7  C   UNL     1       9.427  -1.957  23.500  1.00  0.00     0.021 C 
HETATM    8  C   UNL     1       8.974  -2.918  24.153  1.00  0.00     0.098 C 
BRANCH   8   9
HETATM    9  N   UNL     1       8.102  -3.570  24.695  1.00  0.00    -0.296 N 
ATOM     10  HN  UNL     1       7.219  -3.660  24.193  1.00  0.00     0.177 HD
BRANCH   9  11
HETATM   11  S   UNL     1       8.198  -4.306  26.123  1.00  0.00     0.226 S 
HETATM   12  C   UNL     1       6.613  -4.826  26.467  1.00  0.00     0.186 C 
HETATM   13  O   UNL     1       9.018  -5.479  26.070  1.00  0.00    -0.206 OA
HETATM   14  O   UNL     1       8.601  -3.413  27.178  1.00  0.00    -0.206 OA
ENDBRANCH   9  11
ENDBRANCH   8   9
ENDBRANCH   1   7
BRANCH   1  15
HETATM   15  C   UNL     1       9.739  -0.577  22.346  1.00  0.00    -0.061 C 
BRANCH  15  16
HETATM   16  C   UNL     1       9.082   0.064  21.383  1.00  0.00     0.290 C 
HETATM   17  O   UNL     1       9.556   1.020  21.022  1.00  0.00    -0.259 OA
HETATM   18  N   UNL     1       7.929  -0.575  21.070  1.00  0.00    -0.314 N 
ATOM     19  HN  UNL     1       7.665  -1.431  21.559  1.00  0.00     0.170 HD
BRANCH  18  20
HETATM   20  C   UNL     1       7.197  -0.109  20.183  1.00  0.00     0.072 A 
HETATM   21  C   UNL     1       7.217  -0.021  18.852  1.00  0.00     0.119 A 
HETATM   22  N   UNL     1       6.788   0.311  17.767  1.00  0.00    -0.373 N 
HETATM   23  C   UNL     1       5.641   0.903  18.239  1.00  0.00     0.089 A 
ATOM     24  HN  UNL     1       7.155   0.191  16.823  1.00  0.00     0.164 HD
HETATM   25  C   UNL     1       5.250   1.010  19.374  1.00  0.00     0.043 A 
HETATM   26  C   UNL     1       5.798   0.576  20.514  1.00  0.00     0.063 A 
HETATM   27 CL   UNL     1       5.303   0.679  22.000  1.00  0.00    -0.082 Cl
ENDBRANCH  18  20
ENDBRANCH  15  16
ENDBRANCH   1  15
TORSDOF 6
