stable:False satoms:15 tatoms:24 sratio:0.625
  -OEChem-07092417413D

 24 25  0     1  0  0  0  0  0999 V2000
    6.3469   -4.8766   26.4963 Cl  0  0  0  0  0  0  0  0  0  0  0  0
    8.1968   -4.3800   26.1569 S   0  0  0  0  0  0  0  0  0  0  0  0
    8.9185   -5.6104   26.0159 O   0  0  0  0  0  0  0  0  0  0  0  0
    8.6358   -3.5400   27.2270 O   0  0  0  0  0  0  0  0  0  0  0  0
    8.0183   -3.6066   24.7668 N   0  0  0  0  0  0  0  0  0  0  0  0
    8.8853   -2.9530   24.1510 C   0  0  0  0  0  0  0  0  0  0  0  0
    9.4657   -2.2703   23.6112 C   0  0  0  0  0  0  0  0  0  0  0  0
   10.3314   -1.3185   23.1599 C   0  0  0  0  0  0  0  0  0  0  0  0
   10.1623    0.5194   23.5446 H   0  0  0  0  0  0  0  0  0  0  0  0
   12.5239    0.2156   23.9887 H   0  0  0  0  0  0  0  0  0  0  0  0
   12.7167   -0.6071   23.2789 C   0  0  0  0  0  0  0  0  0  0  0  0
   13.5633   -0.8525   22.7695 H   0  0  0  0  0  0  0  0  0  0  0  0
   11.6852   -1.2915   23.0463 C   0  0  0  0  0  0  0  0  0  0  0  0
    9.8745   -0.1629   22.7799 C   0  0  0  0  0  0  0  0  0  0  0  0
    9.0618    0.1746   21.5364 C   0  0  0  0  0  0  0  0  0  0  0  0
    9.4666    1.0406   20.8268 O   0  0  0  0  0  0  0  0  0  0  0  0
    7.8740   -0.4851   21.3098 N   0  0  0  0  0  0  0  0  0  0  0  0
    7.0900   -0.0619   20.4028 C   0  0  0  0  0  0  0  0  0  0  0  0
    7.4757   -0.0723   18.7073 S   0  3  1  0  0  0  0  0  0  0  0  0
    6.4834    0.4361   17.3867 N   0  0  0  0  0  0  0  0  0  0  0  0
    6.1813    0.5529   18.3418 C   0  0  0  0  0  0  0  0  0  0  0  0
    5.4794    0.8080   19.5134 C   0  0  0  0  0  0  0  0  0  0  0  0
    5.8099    0.4880   20.6371 C   0  0  0  0  0  0  0  0  0  0  0  0
    5.3371    0.5636   21.6419 H   0  0  0  0  0  0  0  0  0  0  0  0
 20 21  1  0  0  0  0
 19 20  1  0  0  0  0
 19 21  1  0  0  0  0
 21 22  2  0  0  0  0
 18 19  1  0  0  0  0
 22 23  1  0  0  0  0
 18 23  2  0  0  0  0
 17 18  1  0  0  0  0
 23 24  1  0  0  0  0
 15 16  2  0  0  0  0
 15 17  1  0  0  0  0
 14 15  1  0  0  0  0
 11 12  1  0  0  0  0
  8 14  2  3  0  0  0
  9 14  1  0  0  0  0
  8 13  1  0  0  0  0
 11 13  2  0  0  0  0
  7  8  1  0  0  0  0
 10 11  1  0  0  0  0
  6  7  3  0  0  0  0
  5  6  1  0  0  0  0
  2  5  1  0  0  0  0
  2  3  2  0  0  0  0
  1  2  1  0  0  0  0
  2  4  2  0  0  0  0
M  CHG  1  19   1
M  END
> <Shapegauss>
-247.732590

$$$$
