stable:False satoms:15 tatoms:24 sratio:0.625
  -OEChem-08062411163D

 29 30  0     1  0  0  0  0  0999 V2000
   -5.9100   -4.3627  -24.7741 Cl  0  0  0  0  0  0  0  0  0  0  0  0
   -7.7311   -4.4334  -24.0940 S   0  0  0  0  0  0  0  0  0  0  0  0
   -7.6584   -5.1149  -22.8351 O   0  0  0  0  0  0  0  0  0  0  0  0
   -8.5500   -5.0676  -25.0792 O   0  0  0  0  0  0  0  0  0  0  0  0
   -8.0200   -2.8673  -23.9320 N   0  0  0  0  0  0  0  0  0  0  0  0
   -9.1092   -2.3269  -23.6494 C   0  0  0  0  0  0  0  0  0  0  0  0
   -9.9743   -1.7457  -23.5589 C   0  0  0  0  0  0  0  0  0  0  0  0
  -11.2248   -1.2027  -23.5761 C   0  0  0  0  0  0  0  0  0  0  0  0
  -12.0909   -0.6149  -25.1441 H   0  0  0  0  0  0  0  0  0  0  0  0
  -13.8920   -1.8669  -24.1168 H   0  0  0  0  0  0  0  0  0  0  0  0
  -13.6070   -1.7217  -23.0606 C   0  0  0  0  0  0  0  0  0  0  0  0
  -14.1837   -1.6803  -22.2227 H   0  0  0  0  0  0  0  0  0  0  0  0
  -12.3713   -1.5222  -22.9204 C   0  0  0  0  0  0  0  0  0  0  0  0
  -11.4823   -0.2079  -24.3715 C   0  0  0  0  0  0  0  0  0  0  0  0
  -11.0005    1.2340  -24.2752 C   0  0  0  0  0  0  0  0  0  0  0  0
  -11.8213    2.0961  -24.2959 O   0  0  0  0  0  0  0  0  0  0  0  0
   -9.6478    1.4893  -24.2260 N   0  0  0  0  0  0  0  0  0  0  0  0
   -9.2341    2.6834  -24.3649 C   0  0  0  0  0  0  0  0  0  0  0  0
   -9.5659    3.9610  -23.2330 S   0  3  1  0  0  0  0  0  0  0  0  0
   -9.0288    5.6026  -23.2931 N   0  0  0  0  0  0  0  0  0  0  0  0
   -8.8321    4.9611  -24.0461 C   0  0  0  0  0  0  0  0  0  0  0  0
   -8.3755    4.3304  -25.1968 C   0  0  0  0  0  0  0  0  0  0  0  0
   -8.4653    3.1475  -25.4556 C   0  0  0  0  0  0  0  0  0  0  0  0
   -8.1029    2.4995  -26.2848 H   0  0  0  0  0  0  0  0  0  0  0  0
   -7.7532   -2.4649  -24.8077 H   0  0  0  0  0  0  0  0  0  0  0  0
  -12.1298   -1.6570  -21.8764 H   0  0  0  0  0  0  0  0  0  0  0  0
   -8.9978    0.7430  -24.0824 H   0  0  0  0  0  0  0  0  0  0  0  0
   -8.2927    5.9133  -22.6918 H   0  0  0  0  0  0  0  0  0  0  0  0
   -7.8928    4.9543  -25.9344 H   0  0  0  0  0  0  0  0  0  0  0  0
 20 21  1  0  0  0  0
 19 20  1  0  0  0  0
 19 21  1  0  0  0  0
 21 22  2  0  0  0  0
 18 19  1  0  0  0  0
 22 23  1  0  0  0  0
 18 23  2  0  0  0  0
 17 18  1  0  0  0  0
 23 24  1  0  0  0  0
 15 16  2  0  0  0  0
 15 17  1  0  0  0  0
 14 15  1  0  0  0  0
 11 12  1  0  0  0  0
  8 14  2  3  0  0  0
  9 14  1  0  0  0  0
  8 13  1  0  0  0  0
 11 13  2  0  0  0  0
  7  8  1  0  0  0  0
 10 11  1  0  0  0  0
  6  7  3  0  0  0  0
  5  6  1  0  0  0  0
  2  5  1  0  0  0  0
  2  3  2  0  0  0  0
  1  2  1  0  0  0  0
  2  4  2  0  0  0  0
  5 25  1  0  0  0  0
 13 26  1  0  0  0  0
 17 27  1  0  0  0  0
 20 28  1  0  0  0  0
 22 29  1  0  0  0  0
M  CHG  1  19   1
M  END
> <Chemgauss4>
-7.473924

$$$$
