stable:False satoms:15 tatoms:24 sratio:0.625
  -OEChem-08062411163D

 29 30  0     1  0  0  0  0  0999 V2000
    5.8725   -3.7750   23.4657 Cl  0  0  0  0  0  0  0  0  0  0  0  0
    7.7570   -4.0839   23.0953 S   0  0  0  0  0  0  0  0  0  0  0  0
    7.8116   -4.6975   21.8010 O   0  0  0  0  0  0  0  0  0  0  0  0
    8.2973   -4.8690   24.1607 O   0  0  0  0  0  0  0  0  0  0  0  0
    8.2815   -2.5715   23.0837 N   0  0  0  0  0  0  0  0  0  0  0  0
    9.4668   -2.1852   23.0214 C   0  0  0  0  0  0  0  0  0  0  0  0
   10.4058   -1.7334   23.1134 C   0  0  0  0  0  0  0  0  0  0  0  0
   11.6967   -1.3797   23.3732 C   0  0  0  0  0  0  0  0  0  0  0  0
   12.3492   -0.9866   25.0978 H   0  0  0  0  0  0  0  0  0  0  0  0
   14.1127   -2.4466   24.3071 H   0  0  0  0  0  0  0  0  0  0  0  0
   14.0383   -2.2201   23.2297 C   0  0  0  0  0  0  0  0  0  0  0  0
   14.7521   -2.2304   22.5038 H   0  0  0  0  0  0  0  0  0  0  0  0
   12.8850   -1.8371   22.8986 C   0  0  0  0  0  0  0  0  0  0  0  0
   11.9458   -0.4651   24.2620 C   0  0  0  0  0  0  0  0  0  0  0  0
   11.6903    1.0344   24.1788 C   0  0  0  0  0  0  0  0  0  0  0  0
   12.6053    1.7660   24.3908 O   0  0  0  0  0  0  0  0  0  0  0  0
   10.4147    1.4860   23.9214 N   0  0  0  0  0  0  0  0  0  0  0  0
   10.1507    2.7213   24.0652 C   0  0  0  0  0  0  0  0  0  0  0  0
   10.8463    3.9802   23.0880 S   0  3  1  0  0  0  0  0  0  0  0  0
   10.5370    5.6790   23.1622 N   0  0  0  0  0  0  0  0  0  0  0  0
   10.1263    5.0441   23.8295 C   0  0  0  0  0  0  0  0  0  0  0  0
    9.3946    4.4420   24.8456 C   0  0  0  0  0  0  0  0  0  0  0  0
    9.2750    3.2494   25.0399 C   0  0  0  0  0  0  0  0  0  0  0  0
    8.6886    2.6291   25.7542 H   0  0  0  0  0  0  0  0  0  0  0  0
    7.9241   -2.1692   23.9266 H   0  0  0  0  0  0  0  0  0  0  0  0
   12.8127   -1.8941   21.8225 H   0  0  0  0  0  0  0  0  0  0  0  0
    9.7036    0.8487   23.6244 H   0  0  0  0  0  0  0  0  0  0  0  0
    9.9663    6.1172   22.4678 H   0  0  0  0  0  0  0  0  0  0  0  0
    8.8810    5.1002   25.5308 H   0  0  0  0  0  0  0  0  0  0  0  0
 20 21  1  0  0  0  0
 19 20  1  0  0  0  0
 19 21  1  0  0  0  0
 21 22  2  0  0  0  0
 18 19  1  0  0  0  0
 22 23  1  0  0  0  0
 18 23  2  0  0  0  0
 17 18  1  0  0  0  0
 23 24  1  0  0  0  0
 15 16  2  0  0  0  0
 15 17  1  0  0  0  0
 14 15  1  0  0  0  0
 11 12  1  0  0  0  0
  8 14  2  3  0  0  0
  9 14  1  0  0  0  0
  8 13  1  0  0  0  0
 11 13  2  0  0  0  0
  7  8  1  0  0  0  0
 10 11  1  0  0  0  0
  6  7  3  0  0  0  0
  5  6  1  0  0  0  0
  2  5  1  0  0  0  0
  2  3  2  0  0  0  0
  1  2  1  0  0  0  0
  2  4  2  0  0  0  0
  5 25  1  0  0  0  0
 13 26  1  0  0  0  0
 17 27  1  0  0  0  0
 20 28  1  0  0  0  0
 22 29  1  0  0  0  0
M  CHG  1  19   1
M  END
> <Chemgauss4>
-7.561212

$$$$
