stable:False satoms:18 tatoms:24 sratio:0.75
  -OEChem-07092417273D

 24 24  0     0  0  0  0  0  0999 V2000
    7.1183   -5.5394   25.2007 H   0  0  0  0  0  0  0  0  0  0  0  0
   11.2782   -0.3468   19.8283 N   0  0  0  0  0  0  0  0  0  0  0  0
    7.2580   -4.5103   24.9409 C   0  0  0  0  0  0  0  0  0  0  0  0
    7.2793   -3.4182   25.8372 C   0  0  0  0  0  0  0  0  0  0  0  0
    9.1429   -0.5308   21.0410 C   0  0  0  0  0  0  0  0  0  0  0  0
    7.5650   -1.9758   22.9558 H   0  0  0  0  0  0  0  0  0  0  0  0
    9.0314   -1.5686   20.7885 H   0  0  0  0  0  0  0  0  0  0  0  0
   11.6241   -1.2257   19.2158 C   0  0  0  0  0  2  0  0  0  0  0  0
    8.1598    0.1437   21.7316 C   0  0  0  0  0  0  0  0  0  0  0  0
   12.0446   -1.9445   18.6707 H   0  0  0  0  0  0  0  0  0  0  0  0
    7.5167   -2.2790   25.1482 C   0  0  0  0  0  0  0  0  0  0  0  0
    9.5900    3.1489   22.0217 H   0  0  0  0  0  0  0  0  0  0  0  0
    7.2131   -0.3414   21.9110 H   0  0  0  0  0  0  0  0  0  0  0  0
   10.4675    1.4799   21.0905 C   0  0  0  0  0  0  0  0  0  0  0  0
    7.1226   -3.5321   26.9082 H   0  0  0  0  0  0  0  0  0  0  0  0
    7.4981   -4.5829   22.7737 H   0  0  0  0  0  0  0  0  0  0  0  0
   11.3756    1.9915   20.8504 H   0  0  0  0  0  0  0  0  0  0  0  0
    7.5618    1.9550   22.7259 H   0  0  0  0  0  0  0  0  0  0  0  0
    8.3253    1.4422   22.1660 C   0  0  0  0  0  0  0  0  0  0  0  0
    9.4810    2.1068   21.7983 C   0  0  0  0  0  0  0  0  0  0  0  0
   10.3024    0.1802   20.6565 C   0  0  0  0  0  0  0  0  0  0  0  0
    7.4454   -4.0121   23.6833 C   0  0  0  0  0  0  0  0  0  0  0  0
    7.5449   -2.6402   23.7809 C   0  5  0  0  0  0  0  0  0  0  0  0
    7.6380   -1.2905   25.5719 H   0  0  0  0  0  0  0  0  0  0  0  0
  8 10  1  0  0  0  0
  2  8  1  0  0  0  0
  2 21  1  0  0  0  0
  5 21  2  0  0  0  0
 14 21  1  0  0  0  0
  5  7  1  0  0  0  0
 14 17  1  0  0  0  0
  5  9  1  0  0  0  0
 14 20  2  0  0  0  0
  9 13  1  0  0  0  0
  9 19  2  0  0  0  0
 12 20  1  0  0  0  0
 19 20  1  0  0  0  0
 18 19  1  0  0  0  0
 16 22  1  0  0  0  0
  6 23  1  0  0  0  0
 22 23  1  0  0  0  0
  3 22  2  0  0  0  0
 11 23  1  0  0  0  0
  1  3  1  0  0  0  0
  3  4  1  0  0  0  0
 11 24  1  0  0  0  0
  4 11  2  0  0  0  0
  4 15  1  0  0  0  0
M  CHG  1  23  -1
M  END
> <Shapegauss>
-90.270927

$$$$
