MODEL 1
REMARK VINA RESULT:    -4.630      0.000      0.000
REMARK INTER + INTRA:          -4.791
REMARK INTER:                  -5.171
REMARK INTRA:                   0.381
REMARK UNBOUND:                 0.381
REMARK  2 active torsions:
REMARK  status: ('A' for Active; 'I' for Inactive)
REMARK    1  A    between atoms: C_3  and  C_5 
REMARK       I    between atoms: N_6  and  C_11 
REMARK    2  A    between atoms: C_9  and  C_11 
ROOT
HETATM    1  C   UNL     1       1.633 -19.367   9.395  1.00  0.00     0.130 A 
HETATM    2  C   UNL     1       0.462 -17.288   9.993  1.00  0.00     0.160 C 
HETATM    3  C   UNL     1       1.455 -18.537   8.135  1.00  0.00     0.153 A 
HETATM    4  N   UNL     1       0.842 -18.246   9.261  1.00  0.00    -0.373 N 
ENDROOT
BRANCH   1   5
HETATM    5  C   UNL     1       2.106 -20.739   9.014  1.00  0.00    -0.064 C 
HETATM    6  C   UNL     1       1.186 -21.785   9.470  1.00  0.00     0.045 C 
HETATM    7  C   UNL     1       3.300 -20.911   8.437  1.00  0.00    -0.026 C 
HETATM    8  C   UNL     1       3.648 -22.066   7.581  1.00  0.00     0.036 C 
ENDBRANCH   1   5
BRANCH   2   9
HETATM    9  C   UNL     1       0.197 -16.078   9.253  1.00  0.00     0.254 C 
HETATM   10  N   UNL     1       1.195 -15.153   9.302  1.00  0.00    -0.366 N 
HETATM   11  H   UNL     1       2.124 -15.472   9.373  1.00  0.00     0.159 HD
HETATM   12  H   UNL     1       0.969 -14.255   8.928  1.00  0.00     0.159 HD
HETATM   13  O   UNL     1      -0.846 -15.878   8.645  1.00  0.00    -0.267 OA
ENDBRANCH   2   9
TORSDOF 2
ENDMDL
MODEL 2
REMARK VINA RESULT:    -4.540     21.556     23.212
REMARK INTER + INTRA:          -4.690
REMARK INTER:                  -5.015
REMARK INTRA:                   0.325
REMARK UNBOUND:                 0.381
REMARK  2 active torsions:
REMARK  status: ('A' for Active; 'I' for Inactive)
REMARK    1  A    between atoms: C_3  and  C_5 
REMARK       I    between atoms: N_6  and  C_11 
REMARK    2  A    between atoms: C_9  and  C_11 
ROOT
HETATM    1  C   UNL     1       8.779  -0.001  20.640  1.00  0.00     0.130 A 
HETATM    2  C   UNL     1       7.124   0.326  18.850  1.00  0.00     0.160 C 
HETATM    3  C   UNL     1       7.406  -0.357  21.186  1.00  0.00     0.153 A 
HETATM    4  N   UNL     1       7.568   0.252  20.032  1.00  0.00    -0.373 N 
ENDROOT
BRANCH   1   5
HETATM    5  C   UNL     1       9.756   0.058  21.777  1.00  0.00    -0.064 C 
HETATM    6  C   UNL     1      10.197   1.427  22.056  1.00  0.00     0.045 C 
HETATM    7  C   UNL     1      10.217  -1.066  22.338  1.00  0.00    -0.026 C 
HETATM    8  C   UNL     1      10.738  -1.151  23.718  1.00  0.00     0.036 C 
ENDBRANCH   1   5
BRANCH   2   9
HETATM    9  C   UNL     1       5.729  -0.024  18.746  1.00  0.00     0.254 C 
HETATM   10  N   UNL     1       5.490  -1.244  18.189  1.00  0.00    -0.366 N 
HETATM   11  H   UNL     1       6.149  -1.961  18.335  1.00  0.00     0.159 HD
HETATM   12  H   UNL     1       4.535  -1.438  17.968  1.00  0.00     0.159 HD
HETATM   13  O   UNL     1       4.822   0.716  19.103  1.00  0.00    -0.267 OA
ENDBRANCH   2   9
TORSDOF 2
ENDMDL
MODEL 3
REMARK VINA RESULT:    -4.457     24.884     26.977
REMARK INTER + INTRA:          -4.598
REMARK INTER:                  -4.978
REMARK INTRA:                   0.380
REMARK UNBOUND:                 0.381
REMARK  2 active torsions:
REMARK  status: ('A' for Active; 'I' for Inactive)
REMARK    1  A    between atoms: C_3  and  C_5 
REMARK       I    between atoms: N_6  and  C_11 
REMARK    2  A    between atoms: C_9  and  C_11 
ROOT
HETATM    1  C   UNL     1      10.887   2.050  23.006  1.00  0.00     0.130 A 
HETATM    2  C   UNL     1      10.633  -0.235  22.129  1.00  0.00     0.160 C 
HETATM    3  C   UNL     1      11.338   1.071  24.078  1.00  0.00     0.153 A 
HETATM    4  N   UNL     1      10.700   0.684  22.996  1.00  0.00    -0.373 N 
ENDROOT
BRANCH   1   5
HETATM    5  C   UNL     1      10.788   3.421  23.607  1.00  0.00    -0.064 C 
HETATM    6  C   UNL     1       9.509   3.632  24.292  1.00  0.00     0.045 C 
HETATM    7  C   UNL     1      11.746   4.330  23.391  1.00  0.00    -0.026 C 
HETATM    8  C   UNL     1      12.026   5.468  24.291  1.00  0.00     0.036 C 
ENDBRANCH   1   5
BRANCH   2   9
HETATM    9  C   UNL     1      11.068  -1.517  22.627  1.00  0.00     0.254 C 
HETATM   10  N   UNL     1      10.067  -2.311  23.098  1.00  0.00    -0.366 N 
HETATM   11  H   UNL     1       9.179  -2.242  22.677  1.00  0.00     0.159 HD
HETATM   12  H   UNL     1      10.360  -3.132  23.585  1.00  0.00     0.159 HD
HETATM   13  O   UNL     1      12.241  -1.864  22.653  1.00  0.00    -0.267 OA
ENDBRANCH   2   9
TORSDOF 2
ENDMDL
MODEL 4
REMARK VINA RESULT:    -4.446      2.957      3.846
REMARK INTER + INTRA:          -4.585
REMARK INTER:                  -4.951
REMARK INTRA:                   0.365
REMARK UNBOUND:                 0.381
REMARK  2 active torsions:
REMARK  status: ('A' for Active; 'I' for Inactive)
REMARK    1  A    between atoms: C_3  and  C_5 
REMARK       I    between atoms: N_6  and  C_11 
REMARK    2  A    between atoms: C_9  and  C_11 
ROOT
HETATM    1  C   UNL     1       2.451 -22.628   9.417  1.00  0.00     0.130 A 
HETATM    2  C   UNL     1       1.897 -20.241   9.193  1.00  0.00     0.160 C 
HETATM    3  C   UNL     1       3.102 -22.101   8.149  1.00  0.00     0.153 A 
HETATM    4  N   UNL     1       2.208 -21.409   8.820  1.00  0.00    -0.373 N 
ENDROOT
BRANCH   1   5
HETATM    5  C   UNL     1       2.557 -24.124   9.436  1.00  0.00    -0.064 C 
HETATM    6  C   UNL     1       1.523 -24.760   8.615  1.00  0.00     0.045 C 
HETATM    7  C   UNL     1       3.442 -24.734  10.232  1.00  0.00    -0.026 C 
HETATM    8  C   UNL     1       3.989 -26.084   9.983  1.00  0.00     0.036 C 
ENDBRANCH   1   5
BRANCH   2   9
HETATM    9  C   UNL     1       2.382 -19.214   8.304  1.00  0.00     0.254 C 
HETATM   10  N   UNL     1       3.414 -18.476   8.799  1.00  0.00    -0.366 N 
HETATM   11  H   UNL     1       4.050 -18.914   9.410  1.00  0.00     0.159 HD
HETATM   12  H   UNL     1       3.659 -17.667   8.267  1.00  0.00     0.159 HD
HETATM   13  O   UNL     1       1.898 -18.998   7.201  1.00  0.00    -0.267 OA
ENDBRANCH   2   9
TORSDOF 2
ENDMDL
MODEL 5
REMARK VINA RESULT:    -4.355      1.943      2.685
REMARK INTER + INTRA:          -4.483
REMARK INTER:                  -4.912
REMARK INTRA:                   0.429
REMARK UNBOUND:                 0.381
REMARK  2 active torsions:
REMARK  status: ('A' for Active; 'I' for Inactive)
REMARK    1  A    between atoms: C_3  and  C_5 
REMARK       I    between atoms: N_6  and  C_11 
REMARK    2  A    between atoms: C_9  and  C_11 
ROOT
HETATM    1  C   UNL     1       2.674 -21.258   9.062  1.00  0.00     0.130 A 
HETATM    2  C   UNL     1       2.159 -18.939   9.704  1.00  0.00     0.160 C 
HETATM    3  C   UNL     1       1.218 -20.979   8.727  1.00  0.00     0.153 A 
HETATM    4  N   UNL     1       1.941 -20.161   9.460  1.00  0.00    -0.373 N 
ENDROOT
BRANCH   1   5
HETATM    5  C   UNL     1       2.936 -22.728   8.922  1.00  0.00    -0.064 C 
HETATM    6  C   UNL     1       3.419 -23.077   7.583  1.00  0.00     0.045 C 
HETATM    7  C   UNL     1       2.620 -23.573   9.910  1.00  0.00    -0.026 C 
HETATM    8  C   UNL     1       3.264 -24.888  10.113  1.00  0.00     0.036 C 
ENDBRANCH   1   5
BRANCH   2   9
HETATM    9  C   UNL     1       1.014 -18.098   9.456  1.00  0.00     0.254 C 
HETATM   10  N   UNL     1       1.103 -17.336   8.330  1.00  0.00    -0.366 N 
HETATM   11  H   UNL     1       1.603 -17.695   7.562  1.00  0.00     0.159 HD
HETATM   12  H   UNL     1       0.396 -16.639   8.225  1.00  0.00     0.159 HD
HETATM   13  O   UNL     1       0.046 -18.045  10.202  1.00  0.00    -0.267 OA
ENDBRANCH   2   9
TORSDOF 2
ENDMDL
MODEL 6
REMARK VINA RESULT:    -4.322     33.195     35.850
REMARK INTER + INTRA:          -4.447
REMARK INTER:                  -4.878
REMARK INTRA:                   0.431
REMARK UNBOUND:                 0.381
REMARK  2 active torsions:
REMARK  status: ('A' for Active; 'I' for Inactive)
REMARK    1  A    between atoms: C_3  and  C_5 
REMARK       I    between atoms: N_6  and  C_11 
REMARK    2  A    between atoms: C_9  and  C_11 
ROOT
HETATM    1  C   UNL     1       7.559  16.062   2.329  1.00  0.00     0.130 A 
HETATM    2  C   UNL     1       7.592  13.914   3.528  1.00  0.00     0.160 C 
HETATM    3  C   UNL     1       8.933  15.436   2.154  1.00  0.00     0.153 A 
HETATM    4  N   UNL     1       8.054  14.974   3.016  1.00  0.00    -0.373 N 
ENDROOT
BRANCH   1   5
HETATM    5  C   UNL     1       7.599  17.476   1.832  1.00  0.00    -0.064 C 
HETATM    6  C   UNL     1       7.324  18.444   2.898  1.00  0.00     0.045 C 
HETATM    7  C   UNL     1       7.752  17.736   0.529  1.00  0.00    -0.026 C 
HETATM    8  C   UNL     1       8.305  18.998  -0.006  1.00  0.00     0.036 C 
ENDBRANCH   1   5
BRANCH   2   9
HETATM    9  C   UNL     1       8.547  12.833   3.551  1.00  0.00     0.254 C 
HETATM   10  N   UNL     1       8.164  11.722   2.863  1.00  0.00    -0.366 N 
HETATM   11  H   UNL     1       7.600  11.840   2.064  1.00  0.00     0.159 HD
HETATM   12  H   UNL     1       8.737  10.915   2.994  1.00  0.00     0.159 HD
HETATM   13  O   UNL     1       9.609  12.889   4.158  1.00  0.00    -0.267 OA
ENDBRANCH   2   9
TORSDOF 2
ENDMDL
MODEL 7
REMARK VINA RESULT:    -4.192     33.117     35.511
REMARK INTER + INTRA:          -4.301
REMARK INTER:                  -4.601
REMARK INTRA:                   0.300
REMARK UNBOUND:                 0.381
REMARK  2 active torsions:
REMARK  status: ('A' for Active; 'I' for Inactive)
REMARK    1  A    between atoms: C_3  and  C_5 
REMARK       I    between atoms: N_6  and  C_11 
REMARK    2  A    between atoms: C_9  and  C_11 
ROOT
HETATM    1  C   UNL     1       7.658  14.881   2.100  1.00  0.00     0.130 A 
HETATM    2  C   UNL     1       8.092  17.234   1.527  1.00  0.00     0.160 C 
HETATM    3  C   UNL     1       9.143  15.041   1.817  1.00  0.00     0.153 A 
HETATM    4  N   UNL     1       8.269  15.982   1.537  1.00  0.00    -0.373 N 
ENDROOT
BRANCH   1   5
HETATM    5  C   UNL     1       7.333  13.420   2.194  1.00  0.00    -0.064 C 
HETATM    6  C   UNL     1       6.780  12.896   0.942  1.00  0.00     0.045 C 
HETATM    7  C   UNL     1       7.446  12.771   3.359  1.00  0.00    -0.026 C 
HETATM    8  C   UNL     1       7.656  11.313   3.478  1.00  0.00     0.036 C 
ENDBRANCH   1   5
BRANCH   2   9
HETATM    9  C   UNL     1       9.315  17.978   1.351  1.00  0.00     0.254 C 
HETATM   10  N   UNL     1       9.799  18.552   2.487  1.00  0.00    -0.366 N 
HETATM   11  H   UNL     1       9.642  18.094   3.345  1.00  0.00     0.159 HD
HETATM   12  H   UNL     1      10.553  19.193   2.359  1.00  0.00     0.159 HD
HETATM   13  O   UNL     1       9.870  18.111   0.268  1.00  0.00    -0.267 OA
ENDBRANCH   2   9
TORSDOF 2
ENDMDL
MODEL 8
REMARK VINA RESULT:    -4.179     21.842     23.672
REMARK INTER + INTRA:          -4.287
REMARK INTER:                  -4.732
REMARK INTRA:                   0.445
REMARK UNBOUND:                 0.381
REMARK  2 active torsions:
REMARK  status: ('A' for Active; 'I' for Inactive)
REMARK    1  A    between atoms: C_3  and  C_5 
REMARK       I    between atoms: N_6  and  C_11 
REMARK    2  A    between atoms: C_9  and  C_11 
ROOT
HETATM    1  C   UNL     1       9.535  -1.949  24.179  1.00  0.00     0.130 A 
HETATM    2  C   UNL     1       8.092  -3.909  23.823  1.00  0.00     0.160 C 
HETATM    3  C   UNL     1       8.959  -1.872  22.775  1.00  0.00     0.153 A 
HETATM    4  N   UNL     1       8.861  -2.953  23.517  1.00  0.00    -0.373 N 
ENDROOT
BRANCH   1   5
HETATM    5  C   UNL     1      10.611  -0.914  24.323  1.00  0.00    -0.064 C 
HETATM    6  C   UNL     1      10.150   0.261  25.068  1.00  0.00     0.045 C 
HETATM    7  C   UNL     1      11.789  -1.066  23.708  1.00  0.00    -0.026 C 
HETATM    8  C   UNL     1      13.047  -0.433  24.157  1.00  0.00     0.036 C 
ENDBRANCH   1   5
BRANCH   2   9
HETATM    9  C   UNL     1       7.167  -4.252  22.770  1.00  0.00     0.254 C 
HETATM   10  N   UNL     1       7.613  -5.211  21.912  1.00  0.00    -0.366 N 
HETATM   11  H   UNL     1       8.212  -5.909  22.264  1.00  0.00     0.159 HD
HETATM   12  H   UNL     1       7.058  -5.350  21.095  1.00  0.00     0.159 HD
HETATM   13  O   UNL     1       6.076  -3.714  22.634  1.00  0.00    -0.267 OA
ENDBRANCH   2   9
TORSDOF 2
ENDMDL
MODEL 9
REMARK VINA RESULT:    -4.118     20.207     22.160
REMARK INTER + INTRA:          -4.218
REMARK INTER:                  -4.533
REMARK INTRA:                   0.315
REMARK UNBOUND:                 0.381
REMARK  2 active torsions:
REMARK  status: ('A' for Active; 'I' for Inactive)
REMARK    1  A    between atoms: C_3  and  C_5 
REMARK       I    between atoms: N_6  and  C_11 
REMARK    2  A    between atoms: C_9  and  C_11 
ROOT
HETATM    1  C   UNL     1       8.266  -3.581  23.677  1.00  0.00     0.130 A 
HETATM    2  C   UNL     1       7.255  -5.489  22.499  1.00  0.00     0.160 C 
HETATM    3  C   UNL     1       7.031  -3.090  22.940  1.00  0.00     0.153 A 
HETATM    4  N   UNL     1       7.547  -4.281  22.732  1.00  0.00    -0.373 N 
ENDROOT
BRANCH   1   5
HETATM    5  C   UNL     1       9.036  -2.397  24.183  1.00  0.00    -0.064 C 
HETATM    6  C   UNL     1      10.054  -1.952  23.227  1.00  0.00     0.045 C 
HETATM    7  C   UNL     1       8.841  -1.937  25.424  1.00  0.00    -0.026 C 
HETATM    8  C   UNL     1       9.121  -0.549  25.847  1.00  0.00     0.036 C 
ENDBRANCH   1   5
BRANCH   2   9
HETATM    9  C   UNL     1       5.997  -5.646  21.810  1.00  0.00     0.254 C 
HETATM   10  N   UNL     1       4.975  -6.095  22.590  1.00  0.00    -0.366 N 
HETATM   11  H   UNL     1       4.966  -5.840  23.541  1.00  0.00     0.159 HD
HETATM   12  H   UNL     1       4.144  -6.356  22.102  1.00  0.00     0.159 HD
HETATM   13  O   UNL     1       5.854  -5.419  20.616  1.00  0.00    -0.267 OA
ENDBRANCH   2   9
TORSDOF 2
ENDMDL
