MODEL 1
REMARK VINA RESULT:    -5.070      0.000      0.000
REMARK INTER + INTRA:          -7.003
REMARK INTER:                  -6.404
REMARK INTRA:                  -0.599
REMARK UNBOUND:                -0.599
REMARK  5 active torsions:
REMARK  status: ('A' for Active; 'I' for Inactive)
REMARK    1  A    between atoms: O_1  and  C_3 
REMARK    2  A    between atoms: C_3  and  O_4 
REMARK    3  A    between atoms: O_4  and  S_6 
REMARK    4  A    between atoms: C_10  and  N_11 
REMARK       I    between atoms: N_11  and  C_13 
REMARK    5  A    between atoms: C_13  and  C_14 
ROOT
HETATM    1  C   UNL     1       7.540  14.248   1.495  1.00  0.00     0.039 C 
HETATM    2  S   UNL     1       8.832  13.848   3.462  1.00  0.00    -0.014 SA
HETATM    3  C   UNL     1       7.689  12.694   3.076  1.00  0.00     0.068 C 
HETATM    4  C   UNL     1       7.052  13.022   1.990  1.00  0.00     0.011 C 
HETATM    5 BR   UNL     1       7.863  14.606   5.058  1.00  0.00     0.005 Br
HETATM    6  C   UNL     1       8.564  14.765   2.088  1.00  0.00     0.091 C 
ENDROOT
BRANCH   6   7
HETATM    7  N   UNL     1       9.321  15.749   1.645  1.00  0.00    -0.314 N 
HETATM    8  C   UNL     1       9.040  16.998   1.983  1.00  0.00     0.291 C 
HETATM    9  O   UNL     1       8.792  17.395   3.112  1.00  0.00    -0.264 OA
ATOM     10  HN  UNL     1      10.121  15.549   1.045  1.00  0.00     0.170 HD
BRANCH   8  11
HETATM   11  C   UNL     1       9.145  18.012   0.877  1.00  0.00     0.212 C 
HETATM   12  C   UNL     1       7.795  18.409   0.359  1.00  0.00     0.102 C 
HETATM   13  O   UNL     1      10.201  18.415   0.423  1.00  0.00    -0.288 OA
ENDBRANCH   8  11
ENDBRANCH   6   7
BRANCH   2  14
HETATM   14  O   UNL     1      10.350  14.255   3.813  1.00  0.00    -0.297 OA
BRANCH  14  15
HETATM   15  C   UNL     1      10.998  14.991   4.824  1.00  0.00     0.350 C 
BRANCH  15  16
HETATM   16  O   UNL     1      11.887  15.864   4.182  1.00  0.00    -0.376 OA
HETATM   17  H   UNL     1      11.585  16.723   4.542  1.00  0.00     0.212 HD
ENDBRANCH  15  16
ENDBRANCH  14  15
ENDBRANCH   2  14
TORSDOF 5
ENDMDL
MODEL 2
REMARK VINA RESULT:    -5.024     25.516     26.885
REMARK INTER + INTRA:          -6.945
REMARK INTER:                  -6.511
REMARK INTRA:                  -0.433
REMARK UNBOUND:                -0.599
REMARK  5 active torsions:
REMARK  status: ('A' for Active; 'I' for Inactive)
REMARK    1  A    between atoms: O_1  and  C_3 
REMARK    2  A    between atoms: C_3  and  O_4 
REMARK    3  A    between atoms: O_4  and  S_6 
REMARK    4  A    between atoms: C_10  and  N_11 
REMARK       I    between atoms: N_11  and  C_13 
REMARK    5  A    between atoms: C_13  and  C_14 
ROOT
HETATM    1  C   UNL     1       8.895  -0.472  21.236  1.00  0.00     0.039 C 
HETATM    2  S   UNL     1       7.519  -2.056  22.373  1.00  0.00    -0.014 SA
HETATM    3  C   UNL     1       6.766  -1.104  21.228  1.00  0.00     0.068 C 
HETATM    4  C   UNL     1       7.615  -0.285  20.680  1.00  0.00     0.011 C 
HETATM    5 BR   UNL     1       6.687  -1.177  23.985  1.00  0.00     0.005 Br
HETATM    6  C   UNL     1       9.048  -1.452  22.065  1.00  0.00     0.091 C 
ENDROOT
BRANCH   6   7
HETATM    7  N   UNL     1      10.189  -1.953  22.496  1.00  0.00    -0.314 N 
HETATM    8  C   UNL     1      10.791  -1.410  23.543  1.00  0.00     0.291 C 
HETATM    9  O   UNL     1      10.257  -1.119  24.603  1.00  0.00    -0.264 OA
ATOM     10  HN  UNL     1      10.606  -2.755  22.025  1.00  0.00     0.170 HD
BRANCH   8  11
HETATM   11  C   UNL     1      12.282  -1.246  23.425  1.00  0.00     0.212 C 
HETATM   12  C   UNL     1      12.762  -0.021  24.141  1.00  0.00     0.102 C 
HETATM   13  O   UNL     1      12.998  -1.990  22.778  1.00  0.00    -0.288 OA
ENDBRANCH   8  11
ENDBRANCH   6   7
BRANCH   2  14
HETATM   14  O   UNL     1       7.876  -3.506  22.976  1.00  0.00    -0.297 OA
BRANCH  14  15
HETATM   15  C   UNL     1       7.311  -4.795  22.929  1.00  0.00     0.350 C 
BRANCH  15  16
HETATM   16  O   UNL     1       7.722  -5.374  21.721  1.00  0.00    -0.376 OA
HETATM   17  H   UNL     1       7.118  -6.143  21.678  1.00  0.00     0.212 HD
ENDBRANCH  15  16
ENDBRANCH  14  15
ENDBRANCH   2  14
TORSDOF 5
ENDMDL
MODEL 3
REMARK VINA RESULT:    -4.879      3.194      4.678
REMARK INTER + INTRA:          -6.762
REMARK INTER:                  -6.310
REMARK INTRA:                  -0.452
REMARK UNBOUND:                -0.599
REMARK  5 active torsions:
REMARK  status: ('A' for Active; 'I' for Inactive)
REMARK    1  A    between atoms: O_1  and  C_3 
REMARK    2  A    between atoms: C_3  and  O_4 
REMARK    3  A    between atoms: O_4  and  S_6 
REMARK    4  A    between atoms: C_10  and  N_11 
REMARK       I    between atoms: N_11  and  C_13 
REMARK    5  A    between atoms: C_13  and  C_14 
ROOT
HETATM    1  C   UNL     1       5.931  14.222   3.848  1.00  0.00     0.039 C 
HETATM    2  S   UNL     1       5.838  11.896   3.316  1.00  0.00    -0.014 SA
HETATM    3  C   UNL     1       4.443  12.574   3.933  1.00  0.00     0.068 C 
HETATM    4  C   UNL     1       4.617  13.838   4.182  1.00  0.00     0.011 C 
HETATM    5 BR   UNL     1       6.315  10.821   4.953  1.00  0.00     0.005 Br
HETATM    6  C   UNL     1       6.678  13.343   3.265  1.00  0.00     0.091 C 
ENDROOT
BRANCH   6   7
HETATM    7  N   UNL     1       7.824  13.561   2.651  1.00  0.00    -0.314 N 
HETATM    8  C   UNL     1       8.955  13.528   3.339  1.00  0.00     0.291 C 
HETATM    9  O   UNL     1       9.285  12.657   4.131  1.00  0.00    -0.264 OA
ATOM     10  HN  UNL     1       7.839  13.754   1.650  1.00  0.00     0.170 HD
BRANCH   8  11
HETATM   11  C   UNL     1       9.944  14.615   3.018  1.00  0.00     0.212 C 
HETATM   12  C   UNL     1      10.729  15.024   4.228  1.00  0.00     0.102 C 
HETATM   13  O   UNL     1      10.051  15.135   1.922  1.00  0.00    -0.288 OA
ENDBRANCH   8  11
ENDBRANCH   6   7
BRANCH   2  14
HETATM   14  O   UNL     1       6.603  11.056   2.175  1.00  0.00    -0.297 OA
BRANCH  14  15
HETATM   15  C   UNL     1       6.246  10.411   0.975  1.00  0.00     0.350 C 
BRANCH  15  16
HETATM   16  O   UNL     1       7.103  10.902  -0.019  1.00  0.00    -0.376 OA
HETATM   17  H   UNL     1       6.552  10.760  -0.815  1.00  0.00     0.212 HD
ENDBRANCH  15  16
ENDBRANCH  14  15
ENDBRANCH   2  14
TORSDOF 5
ENDMDL
MODEL 4
REMARK VINA RESULT:    -4.762     24.813     27.012
REMARK INTER + INTRA:          -6.613
REMARK INTER:                  -5.742
REMARK INTRA:                  -0.871
REMARK UNBOUND:                -0.599
REMARK  5 active torsions:
REMARK  status: ('A' for Active; 'I' for Inactive)
REMARK    1  A    between atoms: O_1  and  C_3 
REMARK    2  A    between atoms: C_3  and  O_4 
REMARK    3  A    between atoms: O_4  and  S_6 
REMARK    4  A    between atoms: C_10  and  N_11 
REMARK       I    between atoms: N_11  and  C_13 
REMARK    5  A    between atoms: C_13  and  C_14 
ROOT
HETATM    1  C   UNL     1      10.430  -1.901  23.120  1.00  0.00     0.039 C 
HETATM    2  S   UNL     1       9.146  -0.341  21.848  1.00  0.00    -0.014 SA
HETATM    3  C   UNL     1      10.645   0.178  22.367  1.00  0.00     0.068 C 
HETATM    4  C   UNL     1      11.246  -0.754  23.046  1.00  0.00     0.011 C 
HETATM    5 BR   UNL     1       8.060   0.804  23.102  1.00  0.00     0.005 Br
HETATM    6  C   UNL     1       9.331  -1.896  22.439  1.00  0.00     0.091 C 
ENDROOT
BRANCH   6   7
HETATM    7  N   UNL     1       8.564  -2.932  22.167  1.00  0.00    -0.314 N 
HETATM    8  C   UNL     1       7.631  -3.303  23.030  1.00  0.00     0.291 C 
HETATM    9  O   UNL     1       6.825  -2.563  23.575  1.00  0.00    -0.264 OA
ATOM     10  HN  UNL     1       8.689  -3.446  21.296  1.00  0.00     0.170 HD
BRANCH   8  11
HETATM   11  C   UNL     1       7.509  -4.785  23.261  1.00  0.00     0.212 C 
HETATM   12  C   UNL     1       7.096  -5.506  22.013  1.00  0.00     0.102 C 
HETATM   13  O   UNL     1       7.671  -5.320  24.343  1.00  0.00    -0.288 OA
ENDBRANCH   8  11
ENDBRANCH   6   7
BRANCH   2  14
HETATM   14  O   UNL     1       8.079  -0.586  20.667  1.00  0.00    -0.297 OA
BRANCH  14  15
HETATM   15  C   UNL     1       6.725  -0.274  20.439  1.00  0.00     0.350 C 
BRANCH  15  16
HETATM   16  O   UNL     1       5.971  -1.337  20.954  1.00  0.00    -0.376 OA
HETATM   17  H   UNL     1       5.405  -1.543  20.182  1.00  0.00     0.212 HD
ENDBRANCH  15  16
ENDBRANCH  14  15
ENDBRANCH   2  14
TORSDOF 5
ENDMDL
MODEL 5
REMARK VINA RESULT:    -4.742     26.953     28.792
REMARK INTER + INTRA:          -6.589
REMARK INTER:                  -6.121
REMARK INTRA:                  -0.468
REMARK UNBOUND:                -0.599
REMARK  5 active torsions:
REMARK  status: ('A' for Active; 'I' for Inactive)
REMARK    1  A    between atoms: O_1  and  C_3 
REMARK    2  A    between atoms: C_3  and  O_4 
REMARK    3  A    between atoms: O_4  and  S_6 
REMARK    4  A    between atoms: C_10  and  N_11 
REMARK       I    between atoms: N_11  and  C_13 
REMARK    5  A    between atoms: C_13  and  C_14 
ROOT
HETATM    1  C   UNL     1       6.810  -4.514  22.031  1.00  0.00     0.039 C 
HETATM    2  S   UNL     1       6.826  -5.149  24.332  1.00  0.00    -0.014 SA
HETATM    3  C   UNL     1       5.760  -5.967  23.342  1.00  0.00     0.068 C 
HETATM    4  C   UNL     1       5.843  -5.534  22.119  1.00  0.00     0.011 C 
HETATM    5 BR   UNL     1       5.439  -4.077  25.327  1.00  0.00     0.005 Br
HETATM    6  C   UNL     1       7.511  -4.264  23.087  1.00  0.00     0.091 C 
ENDROOT
BRANCH   6   7
HETATM    7  N   UNL     1       8.614  -3.546  23.153  1.00  0.00    -0.314 N 
HETATM    8  C   UNL     1       8.536  -2.225  23.202  1.00  0.00     0.291 C 
HETATM    9  O   UNL     1       7.802  -1.579  23.934  1.00  0.00    -0.264 OA
ATOM     10  HN  UNL     1       9.524  -4.006  23.167  1.00  0.00     0.170 HD
BRANCH   8  11
HETATM   11  C   UNL     1       9.525  -1.482  22.345  1.00  0.00     0.212 C 
HETATM   12  C   UNL     1      10.934  -1.707  22.804  1.00  0.00     0.102 C 
HETATM   13  O   UNL     1       9.209  -0.745  21.428  1.00  0.00    -0.288 OA
ENDBRANCH   8  11
ENDBRANCH   6   7
BRANCH   2  14
HETATM   14  O   UNL     1       8.027  -5.152  25.405  1.00  0.00    -0.297 OA
BRANCH  14  15
HETATM   15  C   UNL     1       8.202  -4.729  26.736  1.00  0.00     0.350 C 
BRANCH  15  16
HETATM   16  O   UNL     1       8.097  -5.871  27.541  1.00  0.00    -0.376 OA
HETATM   17  H   UNL     1       9.034  -6.149  27.581  1.00  0.00     0.212 HD
ENDBRANCH  15  16
ENDBRANCH  14  15
ENDBRANCH   2  14
TORSDOF 5
ENDMDL
MODEL 6
REMARK VINA RESULT:    -4.735     23.914     25.753
REMARK INTER + INTRA:          -6.579
REMARK INTER:                  -5.654
REMARK INTRA:                  -0.925
REMARK UNBOUND:                -0.599
REMARK  5 active torsions:
REMARK  status: ('A' for Active; 'I' for Inactive)
REMARK    1  A    between atoms: O_1  and  C_3 
REMARK    2  A    between atoms: C_3  and  O_4 
REMARK    3  A    between atoms: O_4  and  S_6 
REMARK    4  A    between atoms: C_10  and  N_11 
REMARK       I    between atoms: N_11  and  C_13 
REMARK    5  A    between atoms: C_13  and  C_14 
ROOT
HETATM    1  C   UNL     1       6.742  -0.614  23.799  1.00  0.00     0.039 C 
HETATM    2  S   UNL     1       9.028  -1.143  24.235  1.00  0.00    -0.014 SA
HETATM    3  C   UNL     1       8.018  -1.063  25.561  1.00  0.00     0.068 C 
HETATM    4  C   UNL     1       6.804  -0.768  25.197  1.00  0.00     0.011 C 
HETATM    5 BR   UNL     1      10.042   0.557  24.616  1.00  0.00     0.005 Br
HETATM    6  C   UNL     1       7.806  -0.892  23.120  1.00  0.00     0.091 C 
ENDROOT
BRANCH   6   7
HETATM    7  N   UNL     1       7.891  -1.059  21.815  1.00  0.00    -0.314 N 
HETATM    8  C   UNL     1       8.038  -0.006  21.026  1.00  0.00     0.291 C 
HETATM    9  O   UNL     1       8.837   0.904  21.191  1.00  0.00    -0.264 OA
ATOM     10  HN  UNL     1       7.844  -1.995  21.415  1.00  0.00     0.170 HD
BRANCH   8  11
HETATM   11  C   UNL     1       7.208  -0.011  19.772  1.00  0.00     0.212 C 
HETATM   12  C   UNL     1       5.935  -0.780  19.953  1.00  0.00     0.102 C 
HETATM   13  O   UNL     1       7.559   0.501  18.723  1.00  0.00    -0.288 OA
ENDBRANCH   8  11
ENDBRANCH   6   7
BRANCH   2  14
HETATM   14  O   UNL     1      10.105  -1.937  23.339  1.00  0.00    -0.297 OA
BRANCH  14  15
HETATM   15  C   UNL     1      11.358  -1.652  22.763  1.00  0.00     0.350 C 
BRANCH  15  16
HETATM   16  O   UNL     1      11.107  -1.042  21.527  1.00  0.00    -0.376 OA
HETATM   17  H   UNL     1      10.651  -0.227  21.820  1.00  0.00     0.212 HD
ENDBRANCH  15  16
ENDBRANCH  14  15
ENDBRANCH   2  14
TORSDOF 5
ENDMDL
MODEL 7
REMARK VINA RESULT:    -4.699     23.409     25.296
REMARK INTER + INTRA:          -6.535
REMARK INTER:                  -6.061
REMARK INTRA:                  -0.474
REMARK UNBOUND:                -0.599
REMARK  5 active torsions:
REMARK  status: ('A' for Active; 'I' for Inactive)
REMARK    1  A    between atoms: O_1  and  C_3 
REMARK    2  A    between atoms: C_3  and  O_4 
REMARK    3  A    between atoms: O_4  and  S_6 
REMARK    4  A    between atoms: C_10  and  N_11 
REMARK       I    between atoms: N_11  and  C_13 
REMARK    5  A    between atoms: C_13  and  C_14 
ROOT
HETATM    1  C   UNL     1       6.946   0.564  22.627  1.00  0.00     0.039 C 
HETATM    2  S   UNL     1       7.978  -1.581  22.816  1.00  0.00    -0.014 SA
HETATM    3  C   UNL     1       7.979  -0.632  24.189  1.00  0.00     0.068 C 
HETATM    4  C   UNL     1       7.392   0.507  23.962  1.00  0.00     0.011 C 
HETATM    5 BR   UNL     1       9.946  -1.409  22.415  1.00  0.00     0.005 Br
HETATM    6  C   UNL     1       7.070  -0.505  21.911  1.00  0.00     0.091 C 
ENDROOT
BRANCH   6   7
HETATM    7  N   UNL     1       6.501  -0.747  20.747  1.00  0.00    -0.314 N 
HETATM    8  C   UNL     1       6.892  -0.079  19.673  1.00  0.00     0.291 C 
HETATM    9  O   UNL     1       8.050   0.102  19.325  1.00  0.00    -0.264 OA
ATOM     10  HN  UNL     1       5.764  -1.447  20.673  1.00  0.00     0.170 HD
BRANCH   8  11
HETATM   11  C   UNL     1       5.791   0.397  18.765  1.00  0.00     0.212 C 
HETATM   12  C   UNL     1       5.045   1.554  19.359  1.00  0.00     0.102 C 
HETATM   13  O   UNL     1       5.508  -0.132  17.705  1.00  0.00    -0.288 OA
ENDBRANCH   8  11
ENDBRANCH   6   7
BRANCH   2  14
HETATM   14  O   UNL     1       7.642  -2.969  22.071  1.00  0.00    -0.297 OA
BRANCH  14  15
HETATM   15  C   UNL     1       6.855  -4.104  22.342  1.00  0.00     0.350 C 
BRANCH  15  16
HETATM   16  O   UNL     1       7.739  -5.178  22.517  1.00  0.00    -0.376 OA
HETATM   17  H   UNL     1       8.154  -4.930  23.368  1.00  0.00     0.212 HD
ENDBRANCH  15  16
ENDBRANCH  14  15
ENDBRANCH   2  14
TORSDOF 5
ENDMDL
MODEL 8
REMARK VINA RESULT:    -4.665     23.320     24.833
REMARK INTER + INTRA:          -6.492
REMARK INTER:                  -5.650
REMARK INTRA:                  -0.841
REMARK UNBOUND:                -0.599
REMARK  5 active torsions:
REMARK  status: ('A' for Active; 'I' for Inactive)
REMARK    1  A    between atoms: O_1  and  C_3 
REMARK    2  A    between atoms: C_3  and  O_4 
REMARK    3  A    between atoms: O_4  and  S_6 
REMARK    4  A    between atoms: C_10  and  N_11 
REMARK       I    between atoms: N_11  and  C_13 
REMARK    5  A    between atoms: C_13  and  C_14 
ROOT
HETATM    1  C   UNL     1       7.638  -2.211  22.156  1.00  0.00     0.039 C 
HETATM    2  S   UNL     1       9.422  -0.780  22.840  1.00  0.00    -0.014 SA
HETATM    3  C   UNL     1       9.308  -2.251  23.620  1.00  0.00     0.068 C 
HETATM    4  C   UNL     1       8.303  -2.937  23.163  1.00  0.00     0.011 C 
HETATM    5 BR   UNL     1       8.809   0.351  24.392  1.00  0.00     0.005 Br
HETATM    6  C   UNL     1       8.170  -1.095  21.776  1.00  0.00     0.091 C 
ENDROOT
BRANCH   6   7
HETATM    7  N   UNL     1       7.863  -0.399  20.700  1.00  0.00    -0.314 N 
HETATM    8  C   UNL     1       6.774   0.353  20.692  1.00  0.00     0.291 C 
HETATM    9  O   UNL     1       6.438   1.135  21.570  1.00  0.00    -0.264 OA
ATOM     10  HN  UNL     1       8.463  -0.439  19.877  1.00  0.00     0.170 HD
BRANCH   8  11
HETATM   11  C   UNL     1       5.952   0.297  19.434  1.00  0.00     0.212 C 
HETATM   12  C   UNL     1       4.856   1.320  19.442  1.00  0.00     0.102 C 
HETATM   13  O   UNL     1       6.125  -0.519  18.546  1.00  0.00    -0.288 OA
ENDBRANCH   8  11
ENDBRANCH   6   7
BRANCH   2  14
HETATM   14  O   UNL     1      10.273   0.301  22.002  1.00  0.00    -0.297 OA
BRANCH  14  15
HETATM   15  C   UNL     1      10.480   1.693  22.052  1.00  0.00     0.350 C 
BRANCH  15  16
HETATM   16  O   UNL     1       9.375   2.289  21.429  1.00  0.00    -0.376 OA
HETATM   17  H   UNL     1       8.945   2.714  22.199  1.00  0.00     0.212 HD
ENDBRANCH  15  16
ENDBRANCH  14  15
ENDBRANCH   2  14
TORSDOF 5
ENDMDL
MODEL 9
REMARK VINA RESULT:    -4.353     31.622     33.346
REMARK INTER + INTRA:          -6.097
REMARK INTER:                  -5.767
REMARK INTRA:                  -0.330
REMARK UNBOUND:                -0.599
REMARK  5 active torsions:
REMARK  status: ('A' for Active; 'I' for Inactive)
REMARK    1  A    between atoms: O_1  and  C_3 
REMARK    2  A    between atoms: C_3  and  O_4 
REMARK    3  A    between atoms: O_4  and  S_6 
REMARK    4  A    between atoms: C_10  and  N_11 
REMARK       I    between atoms: N_11  and  C_13 
REMARK    5  A    between atoms: C_13  and  C_14 
ROOT
HETATM    1  C   UNL     1      21.669  -2.641  24.952  1.00  0.00     0.039 C 
HETATM    2  S   UNL     1      22.798  -1.113  26.396  1.00  0.00    -0.014 SA
HETATM    3  C   UNL     1      21.235  -0.713  25.966  1.00  0.00     0.068 C 
HETATM    4  C   UNL     1      20.729  -1.617  25.180  1.00  0.00     0.011 C 
HETATM    5 BR   UNL     1      23.711   0.300  25.286  1.00  0.00     0.005 Br
HETATM    6  C   UNL     1      22.778  -2.592  25.614  1.00  0.00     0.091 C 
ENDROOT
BRANCH   6   7
HETATM    7  N   UNL     1      23.666  -3.557  25.743  1.00  0.00    -0.314 N 
HETATM    8  C   UNL     1      23.809  -4.451  24.777  1.00  0.00     0.291 C 
HETATM    9  O   UNL     1      23.914  -4.205  23.585  1.00  0.00    -0.264 OA
ATOM     10  HN  UNL     1      24.241  -3.614  26.583  1.00  0.00     0.170 HD
BRANCH   8  11
HETATM   11  C   UNL     1      23.958  -5.879  25.228  1.00  0.00     0.212 C 
HETATM   12  C   UNL     1      24.559  -5.966  26.598  1.00  0.00     0.102 C 
HETATM   13  O   UNL     1      23.675  -6.842  24.538  1.00  0.00    -0.288 OA
ENDBRANCH   8  11
ENDBRANCH   6   7
BRANCH   2  14
HETATM   14  O   UNL     1      23.917  -1.375  27.523  1.00  0.00    -0.297 OA
BRANCH  14  15
HETATM   15  C   UNL     1      23.928  -1.775  28.873  1.00  0.00     0.350 C 
BRANCH  15  16
HETATM   16  O   UNL     1      23.830  -3.173  28.883  1.00  0.00    -0.376 OA
HETATM   17  H   UNL     1      23.013  -3.298  28.358  1.00  0.00     0.212 HD
ENDBRANCH  15  16
ENDBRANCH  14  15
ENDBRANCH   2  14
TORSDOF 5
ENDMDL
