stable:False satoms:5 tatoms:24 sratio:0.20833333333333334
  -OEChem-08062415193D

 40 41  0     1  0  0  0  0  0999 V2000
    6.2869   -5.1648   26.2331 C   0  0  0  0  0  0  0  0  0  0  0  0
    7.9986   -4.4948   26.0693 S   0  0  0  0  0  0  0  0  0  0  0  0
    8.8810   -5.6368   26.0140 O   0  0  0  0  0  0  0  0  0  0  0  0
    8.2129   -3.6614   27.1808 O   0  0  0  0  0  0  0  0  0  0  0  0
    7.8947   -3.7104   24.6357 N   0  0  0  0  0  0  0  0  0  0  0  0
    8.7715   -3.0346   24.2159 C   0  0  0  0  0  0  0  0  0  0  0  0
    9.3052   -2.1011   23.6615 C   0  0  0  0  0  0  0  0  0  0  0  0
   10.2061   -1.2293   23.4803 C   0  0  1  0  0  0  0  0  0  0  0  0
   10.7779   -0.1077   24.6307 C   0  0  0  0  0  0  0  0  0  0  0  0
   11.8631    0.1935   24.6665 C   0  0  0  0  0  0  0  0  0  0  0  0
   12.9357   -0.1995   23.9739 C   0  0  0  0  0  0  0  0  0  0  0  0
   12.6220   -1.2896   23.1071 C   0  0  0  0  0  0  0  0  0  0  0  0
   11.7109   -1.7581   22.8725 C   0  0  0  0  0  0  0  0  0  0  0  0
    9.6051   -0.6725   22.5901 C   0  0  0  0  0  0  0  0  0  0  0  0
    9.0286    0.0070   21.5884 C   0  0  0  0  0  0  0  0  0  0  0  0
    9.5437    0.9696   21.2411 O   0  0  0  0  0  0  0  0  0  0  0  0
    7.9497   -0.5975   21.2083 N   0  0  0  0  0  0  0  0  0  0  0  0
    7.2926   -0.0899   20.2663 C   0  0  0  0  0  0  0  0  0  0  0  0
    7.4230    0.0380   18.9774 C   0  0  0  0  0  0  0  0  0  0  0  0
    6.9508    0.4286   17.8470 N   0  0  0  0  0  0  0  0  0  0  0  0
    5.9067    0.8939   18.2913 C   0  0  0  0  0  0  0  0  0  0  0  0
    5.4200    0.9435   19.3903 C   0  0  0  0  0  0  0  0  0  0  0  0
    5.8909    0.5134   20.5580 C   0  0  0  0  0  0  0  0  0  0  0  0
    5.2175    0.5508   21.9701 Cl  0  0  0  0  0  0  0  0  0  0  0  0
    6.2023   -5.7303   27.1728 H   0  0  0  0  0  0  0  0  0  0  0  0
    5.5668   -4.3332   26.2397 H   0  0  0  0  0  0  0  0  0  0  0  0
    6.0709   -5.8301   25.3842 H   0  0  0  0  0  0  0  0  0  0  0  0
    7.0931   -3.1162   24.7016 H   0  0  0  0  0  0  0  0  0  0  0  0
   10.0858    0.3227   25.3394 H   0  0  0  0  0  0  0  0  0  0  0  0
   12.0787    0.9493   25.4072 H   0  0  0  0  0  0  0  0  0  0  0  0
   13.9142    0.2497   24.0587 H   0  0  0  0  0  0  0  0  0  0  0  0
   13.4777   -1.7098   22.5995 H   0  0  0  0  0  0  0  0  0  0  0  0
   11.6246   -1.7198   21.7765 H   0  0  0  0  0  0  0  0  0  0  0  0
   11.8168   -2.8042   23.1956 H   0  0  0  0  0  0  0  0  0  0  0  0
    8.7715   -0.4335   23.2669 H   0  0  0  0  0  0  0  0  0  0  0  0
    9.4069   -1.6313   22.0887 H   0  0  0  0  0  0  0  0  0  0  0  0
    7.6486   -1.4422   21.6507 H   0  0  0  0  0  0  0  0  0  0  0  0
    8.3892   -0.3867   18.7480 H   0  0  0  0  0  0  0  0  0  0  0  0
    5.2928    1.3586   17.5339 H   0  0  0  0  0  0  0  0  0  0  0  0
    4.4475    1.4109   19.4364 H   0  0  0  0  0  0  0  0  0  0  0  0
 20 21  2  0  0  0  0
 19 20  1  0  0  0  0
 21 22  1  0  0  0  0
 18 19  2  0  0  0  0
 22 23  2  0  0  0  0
 18 23  1  0  0  0  0
 17 18  1  0  0  0  0
 23 24  1  0  0  0  0
 15 16  2  0  0  0  0
 15 17  1  0  0  0  0
 14 15  1  0  0  0  0
  8 14  1  0  0  0  0
 12 13  1  0  0  0  0
  8 13  1  0  0  0  0
 11 12  2  0  0  0  0
  7  8  1  0  0  0  0
  8  9  1  0  0  0  0
 10 11  1  0  0  0  0
  6  7  3  0  0  0  0
  5  6  1  0  0  0  0
  9 10  2  0  0  0  0
  2  5  1  0  0  0  0
  2  3  2  0  0  0  0
  1  2  1  0  0  0  0
  2  4  2  0  0  0  0
  1 25  1  0  0  0  0
  1 26  1  0  0  0  0
  1 27  1  0  0  0  0
  5 28  1  0  0  0  0
  9 29  1  0  0  0  0
 10 30  1  0  0  0  0
 11 31  1  0  0  0  0
 12 32  1  0  0  0  0
 13 33  1  0  0  0  0
 13 34  1  0  0  0  0
 14 35  1  0  0  0  0
 14 36  1  0  0  0  0
 17 37  1  0  0  0  0
 19 38  1  0  0  0  0
 21 39  1  0  0  0  0
 22 40  1  0  0  0  0
M  END
> <Chemgauss4>
-13.298560

$$$$
