
 OpenBabel07202414153D

 50 53  0  0  1  0  0  0  0  0999 V2000
    4.3221    0.2685    1.2637 C   0  0  0  0  0  0  0  0  0  0  0  0
    2.9802   -0.0243    0.1198 S   0  0  0  0  0  0  0  0  0  0  0  0
    2.9031   -1.4451   -0.1292 O   0  0  0  0  0  0  0  0  0  0  0  0
    1.8229    0.7241    0.5609 O   0  0  0  0  0  0  0  0  0  0  0  0
    3.5402    0.6977   -1.3128 N   0  0  0  0  0  0  0  0  0  0  0  0
    4.8202    0.1553   -1.8479 C   0  0  0  0  0  0  0  0  0  0  0  0
    5.0176    0.5782   -3.2977 C   0  0  3  0  0  0  0  0  0  0  0  0
    4.2069   -0.2449   -4.2900 C   0  0  0  0  0  0  0  0  0  0  0  0
    4.7034   -0.4621   -5.3969 O   0  0  0  0  0  0  0  0  0  0  0  0
    2.9299   -0.6147   -3.9101 N   0  0  0  0  0  0  0  0  0  0  0  0
    2.0373   -1.3801   -4.7058 C   0  0  0  0  0  0  0  0  0  0  0  0
    2.4914   -2.1135   -5.8116 C   0  0  0  0  0  0  0  0  0  0  0  0
    1.7107   -2.8253   -6.6564 N   0  0  0  0  0  0  0  0  0  0  0  0
    0.3976   -2.8186   -6.3912 C   0  0  0  0  0  0  0  0  0  0  0  0
   -0.1754   -2.1753   -5.2968 C   0  0  0  0  0  0  0  0  0  0  0  0
    0.6582   -1.4338   -4.4254 C   0  0  0  0  0  0  0  0  0  0  0  0
    0.0462   -0.7558   -3.2155 C   0  0  0  0  0  0  0  0  0  0  0  0
   -1.4688   -0.5531   -3.3278 C   0  0  0  0  0  0  0  0  0  0  0  0
   -2.1511   -1.8420   -3.7621 C   0  0  0  0  0  0  0  0  0  0  0  0
   -1.6725   -2.2320   -5.1526 C   0  0  0  0  0  0  0  0  0  0  0  0
    4.8024    2.0642   -3.5113 C   0  0  0  0  0  0  0  0  0  0  0  0
    5.3422    2.6890   -4.6469 C   0  0  0  0  0  0  0  0  0  0  0  0
    5.1125    4.0421   -4.8736 C   0  0  0  0  0  0  0  0  0  0  0  0
    5.7675    4.7999   -6.2745 Cl  0  0  0  0  0  0  0  0  0  0  0  0
    4.3535    4.7860   -3.9778 C   0  0  0  0  0  0  0  0  0  0  0  0
    3.8229    4.1716   -2.8410 C   0  0  0  0  0  0  0  0  0  0  0  0
    4.0386    2.8069   -2.5965 C   0  0  0  0  0  0  0  0  0  0  0  0
    3.4839    2.1836   -1.3327 C   0  0  0  0  0  0  0  0  0  0  0  0
    4.0500   -0.1760    2.2221 H   0  0  0  0  0  0  0  0  0  0  0  0
    4.4711    1.3420    1.3837 H   0  0  0  0  0  0  0  0  0  0  0  0
    5.2259   -0.2147    0.8882 H   0  0  0  0  0  0  0  0  0  0  0  0
    4.8368   -0.9376   -1.7743 H   0  0  0  0  0  0  0  0  0  0  0  0
    5.6482    0.5474   -1.2450 H   0  0  0  0  0  0  0  0  0  0  0  0
    6.0712    0.3523   -3.5261 H   0  0  0  0  0  0  0  0  0  0  0  0
    2.5678   -0.2108   -3.0458 H   0  0  0  0  0  0  0  0  0  0  0  0
    3.5419   -2.1855   -6.0673 H   0  0  0  0  0  0  0  0  0  0  0  0
   -0.2088   -3.3627   -7.1102 H   0  0  0  0  0  0  0  0  0  0  0  0
    0.4981    0.2283   -3.0536 H   0  0  0  0  0  0  0  0  0  0  0  0
    0.2599   -1.3734   -2.3335 H   0  0  0  0  0  0  0  0  0  0  0  0
   -1.6827    0.2374   -4.0588 H   0  0  0  0  0  0  0  0  0  0  0  0
   -1.8735   -0.2188   -2.3663 H   0  0  0  0  0  0  0  0  0  0  0  0
   -3.2397   -1.7157   -3.7716 H   0  0  0  0  0  0  0  0  0  0  0  0
   -1.9245   -2.6432   -3.0475 H   0  0  0  0  0  0  0  0  0  0  0  0
   -2.1073   -1.5477   -5.8928 H   0  0  0  0  0  0  0  0  0  0  0  0
   -2.0351   -3.2406   -5.3852 H   0  0  0  0  0  0  0  0  0  0  0  0
    5.9271    2.1131   -5.3653 H   0  0  0  0  0  0  0  0  0  0  0  0
    4.1691    5.8410   -4.1578 H   0  0  0  0  0  0  0  0  0  0  0  0
    3.2320    4.7692   -2.1475 H   0  0  0  0  0  0  0  0  0  0  0  0
    2.4351    2.4896   -1.2407 H   0  0  0  0  0  0  0  0  0  0  0  0
    4.0536    2.5856   -0.4884 H   0  0  0  0  0  0  0  0  0  0  0  0
  1  2  1  0  0  0  0
  1 29  1  0  0  0  0
  1 30  1  0  0  0  0
  1 31  1  0  0  0  0
  2  3  2  0  0  0  0
  2  4  2  0  0  0  0
  2  5  1  0  0  0  0
  5  6  1  0  0  0  0
  5 28  1  0  0  0  0
  6  7  1  0  0  0  0
  6 32  1  0  0  0  0
  6 33  1  0  0  0  0
  7  8  1  0  0  0  0
  7 21  1  0  0  0  0
  7 34  1  0  0  0  0
  8  9  2  0  0  0  0
  8 10  1  0  0  0  0
 10 11  1  0  0  0  0
 10 35  1  0  0  0  0
 11 12  1  0  0  0  0
 11 16  2  0  0  0  0
 12 13  2  0  0  0  0
 12 36  1  0  0  0  0
 13 14  1  0  0  0  0
 14 15  2  0  0  0  0
 14 37  1  0  0  0  0
 15 16  1  0  0  0  0
 15 20  1  0  0  0  0
 16 17  1  0  0  0  0
 17 18  1  0  0  0  0
 17 38  1  0  0  0  0
 17 39  1  0  0  0  0
 18 19  1  0  0  0  0
 18 40  1  0  0  0  0
 18 41  1  0  0  0  0
 19 20  1  0  0  0  0
 19 42  1  0  0  0  0
 19 43  1  0  0  0  0
 20 44  1  0  0  0  0
 20 45  1  0  0  0  0
 21 22  1  0  0  0  0
 21 27  2  0  0  0  0
 22 23  2  0  0  0  0
 22 46  1  0  0  0  0
 23 24  1  0  0  0  0
 23 25  1  0  0  0  0
 25 26  2  0  0  0  0
 25 47  1  0  0  0  0
 26 27  1  0  0  0  0
 26 48  1  0  0  0  0
 27 28  1  0  0  0  0
 28 49  1  0  0  0  0
 28 50  1  0  0  0  0
M  END
$$$$
