MODEL 1
REMARK VINA RESULT:    -6.379      0.000      0.000
REMARK INTER + INTRA:         -11.028
REMARK INTER:                  -9.549
REMARK INTRA:                  -1.480
REMARK UNBOUND:                -1.480
REMARK  9 active torsions:
REMARK  status: ('A' for Active; 'I' for Inactive)
REMARK    1  A    between atoms: S_2  and  N_5 
REMARK    2  A    between atoms: N_5  and  C_7 
REMARK    3  A    between atoms: C_8  and  C_9 
REMARK    4  A    between atoms: C_9  and  C_14 
REMARK    5  A    between atoms: C_9  and  C_10 
REMARK    6  A    between atoms: C_10  and  C_11 
REMARK    7  A    between atoms: C_14  and  C_15 
REMARK       I    between atoms: C_15  and  N_17 
REMARK    8  A    between atoms: N_17  and  C_19 
REMARK    9  A    between atoms: N_21  and  C_24 
ROOT
HETATM    1  C   UNL     1       9.853  -1.490  23.482  1.00  0.00     0.070 C 
ENDROOT
BRANCH   1   2
HETATM    2  C   UNL     1       9.243  -2.601  23.649  1.00  0.00    -0.035 C 
HETATM    3  C   UNL     1       8.543  -3.416  23.573  1.00  0.00     0.026 C 
BRANCH   3   4
HETATM    4  N   UNL     1       8.111  -4.441  23.311  1.00  0.00    -0.243 N 
ATOM      5  HN  UNL     1       8.614  -5.264  23.643  1.00  0.00     0.189 HD
BRANCH   4   6
HETATM    6  S   UNL     1       6.762  -4.687  22.453  1.00  0.00     0.233 S 
HETATM    7  C   UNL     1       5.670  -5.186  23.655  1.00  0.00     0.186 C 
HETATM    8  O   UNL     1       6.323  -3.484  21.871  1.00  0.00    -0.205 OA
HETATM    9  O   UNL     1       6.888  -5.719  21.503  1.00  0.00    -0.205 OA
ENDBRANCH   4   6
ENDBRANCH   3   4
ENDBRANCH   1   2
BRANCH   1  10
HETATM   10  C   UNL     1       9.466  -1.068  22.452  1.00  0.00    -0.035 C 
BRANCH  10  11
HETATM   11  C   UNL     1       8.936  -0.386  21.458  1.00  0.00     0.294 C 
HETATM   12  O   UNL     1       9.576   0.446  21.054  1.00  0.00    -0.258 OA
HETATM   13  N   UNL     1       7.665  -0.832  21.142  1.00  0.00    -0.316 N 
ATOM     14  HN  UNL     1       7.348  -1.734  21.500  1.00  0.00     0.170 HD
BRANCH  13  15
HETATM   15  C   UNL     1       6.890  -0.142  20.417  1.00  0.00     0.044 A 
HETATM   16  C   UNL     1       6.428  -0.270  19.147  1.00  0.00     0.066 A 
HETATM   17  C   UNL     1       5.623   0.238  18.414  1.00  0.00     0.069 A 
HETATM   18  S   UNL     1       5.151   1.581  19.487  1.00  0.00    -0.082 SA
HETATM   19  C   UNL     1       6.145   0.994  20.689  1.00  0.00     0.081 A 
BRANCH  17  20
HETATM   20  N   UNL     1       5.550  -0.305  17.543  1.00  0.00    -0.393 N 
ATOM     21  HN2 UNL     1       5.236  -0.435  16.582  1.00  0.00     0.156 HD
ATOM     22  HN1 UNL     1       6.004  -1.211  17.657  1.00  0.00     0.156 HD
ENDBRANCH  17  20
ENDBRANCH  13  15
ENDBRANCH  10  11
ENDBRANCH   1  10
BRANCH   1  23
HETATM   23  C   UNL     1      10.773  -0.576  24.340  1.00  0.00     0.029 C 
BRANCH  23  24
HETATM   24  C   UNL     1      11.735  -0.141  24.262  1.00  0.00     0.001 C 
HETATM   25  C   UNL     1      11.976   1.171  24.062  1.00  0.00    -0.010 C 
HETATM   26  C   UNL     1      11.157   1.963  23.941  1.00  0.00     0.011 C 
ENDBRANCH  23  24
ENDBRANCH   1  23
TORSDOF 9
ENDMDL
MODEL 2
REMARK VINA RESULT:    -5.893      2.328      5.802
REMARK INTER + INTRA:         -10.301
REMARK INTER:                  -9.339
REMARK INTRA:                  -0.962
REMARK UNBOUND:                -1.480
REMARK  9 active torsions:
REMARK  status: ('A' for Active; 'I' for Inactive)
REMARK    1  A    between atoms: S_2  and  N_5 
REMARK    2  A    between atoms: N_5  and  C_7 
REMARK    3  A    between atoms: C_8  and  C_9 
REMARK    4  A    between atoms: C_9  and  C_14 
REMARK    5  A    between atoms: C_9  and  C_10 
REMARK    6  A    between atoms: C_10  and  C_11 
REMARK    7  A    between atoms: C_14  and  C_15 
REMARK       I    between atoms: C_15  and  N_17 
REMARK    8  A    between atoms: N_17  and  C_19 
REMARK    9  A    between atoms: N_21  and  C_24 
ROOT
HETATM    1  C   UNL     1       9.269  -0.824  21.981  1.00  0.00     0.070 C 
ENDROOT
BRANCH   1   2
HETATM    2  C   UNL     1       8.531  -0.344  21.056  1.00  0.00    -0.035 C 
HETATM    3  C   UNL     1       8.163   0.010  20.106  1.00  0.00     0.026 C 
BRANCH   3   4
HETATM    4  N   UNL     1       7.572   0.046  19.128  1.00  0.00    -0.243 N 
ATOM      5  HN  UNL     1       8.086   0.266  18.275  1.00  0.00     0.189 HD
BRANCH   4   6
HETATM    6  S   UNL     1       5.984  -0.224  18.995  1.00  0.00     0.233 S 
HETATM    7  C   UNL     1       5.331   1.197  19.659  1.00  0.00     0.186 C 
HETATM    8  O   UNL     1       5.616  -0.339  17.642  1.00  0.00    -0.205 OA
HETATM    9  O   UNL     1       5.541  -1.322  19.758  1.00  0.00    -0.205 OA
ENDBRANCH   4   6
ENDBRANCH   3   4
ENDBRANCH   1   2
BRANCH   1  10
HETATM   10  C   UNL     1       8.588  -1.591  22.563  1.00  0.00    -0.035 C 
BRANCH  10  11
HETATM   11  C   UNL     1       7.759  -2.224  23.367  1.00  0.00     0.294 C 
HETATM   12  O   UNL     1       7.066  -1.562  23.955  1.00  0.00    -0.258 OA
HETATM   13  N   UNL     1       7.949  -3.593  23.334  1.00  0.00    -0.316 N 
ATOM     14  HN  UNL     1       8.498  -4.005  22.579  1.00  0.00     0.170 HD
BRANCH  13  15
HETATM   15  C   UNL     1       7.453  -4.345  24.224  1.00  0.00     0.044 A 
HETATM   16  C   UNL     1       7.943  -4.914  25.355  1.00  0.00     0.066 A 
HETATM   17  C   UNL     1       7.551  -5.527  26.310  1.00  0.00     0.069 A 
HETATM   18  S   UNL     1       5.862  -5.730  25.777  1.00  0.00    -0.082 SA
HETATM   19  C   UNL     1       6.164  -4.817  24.415  1.00  0.00     0.081 A 
BRANCH  17  20
HETATM   20  N   UNL     1       8.315  -5.646  26.989  1.00  0.00    -0.393 N 
ATOM     21  HN2 UNL     1       9.251  -5.450  27.341  1.00  0.00     0.156 HD
ATOM     22  HN1 UNL     1       8.047  -6.327  27.700  1.00  0.00     0.156 HD
ENDBRANCH  17  20
ENDBRANCH  13  15
ENDBRANCH  10  11
ENDBRANCH   1  10
BRANCH   1  23
HETATM   23  C   UNL     1      10.775  -0.757  22.364  1.00  0.00     0.029 C 
BRANCH  23  24
HETATM   24  C   UNL     1      11.529  -1.423  22.692  1.00  0.00     0.001 C 
HETATM   25  C   UNL     1      12.483  -1.127  23.596  1.00  0.00    -0.010 C 
HETATM   26  C   UNL     1      12.592  -0.105  24.104  1.00  0.00     0.011 C 
ENDBRANCH  23  24
ENDBRANCH   1  23
TORSDOF 9
ENDMDL
MODEL 3
REMARK VINA RESULT:    -5.872      2.891      5.908
REMARK INTER + INTRA:         -10.270
REMARK INTER:                  -9.115
REMARK INTRA:                  -1.155
REMARK UNBOUND:                -1.480
REMARK  9 active torsions:
REMARK  status: ('A' for Active; 'I' for Inactive)
REMARK    1  A    between atoms: S_2  and  N_5 
REMARK    2  A    between atoms: N_5  and  C_7 
REMARK    3  A    between atoms: C_8  and  C_9 
REMARK    4  A    between atoms: C_9  and  C_14 
REMARK    5  A    between atoms: C_9  and  C_10 
REMARK    6  A    between atoms: C_10  and  C_11 
REMARK    7  A    between atoms: C_14  and  C_15 
REMARK       I    between atoms: C_15  and  N_17 
REMARK    8  A    between atoms: N_17  and  C_19 
REMARK    9  A    between atoms: N_21  and  C_24 
ROOT
HETATM    1  C   UNL     1       8.420   0.045  20.952  1.00  0.00     0.070 C 
ENDROOT
BRANCH   1   2
HETATM    2  C   UNL     1       9.439   0.541  21.543  1.00  0.00    -0.035 C 
HETATM    3  C   UNL     1      10.146   0.859  22.291  1.00  0.00     0.026 C 
BRANCH   3   4
HETATM    4  N   UNL     1      11.094   0.892  22.930  1.00  0.00    -0.243 N 
ATOM      5  HN  UNL     1      11.725   1.682  22.797  1.00  0.00     0.189 HD
BRANCH   4   6
HETATM    6  S   UNL     1      11.510  -0.220  24.027  1.00  0.00     0.233 S 
HETATM    7  C   UNL     1      11.939  -1.538  23.044  1.00  0.00     0.186 C 
HETATM    8  O   UNL     1      12.625   0.212  24.767  1.00  0.00    -0.205 OA
HETATM    9  O   UNL     1      10.441  -0.608  24.859  1.00  0.00    -0.205 OA
ENDBRANCH   4   6
ENDBRANCH   3   4
ENDBRANCH   1   2
BRANCH   1  10
HETATM   10  C   UNL     1       8.199  -0.973  21.504  1.00  0.00    -0.035 C 
BRANCH  10  11
HETATM   11  C   UNL     1       7.716  -1.981  22.199  1.00  0.00     0.294 C 
HETATM   12  O   UNL     1       8.460  -2.507  22.859  1.00  0.00    -0.258 OA
HETATM   13  N   UNL     1       6.376  -2.198  21.935  1.00  0.00    -0.316 N 
ATOM     14  HN  UNL     1       5.838  -1.478  21.452  1.00  0.00     0.170 HD
BRANCH  13  15
HETATM   15  C   UNL     1       5.805  -3.273  22.284  1.00  0.00     0.044 A 
HETATM   16  C   UNL     1       5.905  -4.565  21.879  1.00  0.00     0.066 A 
HETATM   17  C   UNL     1       5.517  -5.654  22.203  1.00  0.00     0.069 A 
HETATM   18  S   UNL     1       4.423  -5.129  23.509  1.00  0.00    -0.082 SA
HETATM   19  C   UNL     1       4.892  -3.545  23.291  1.00  0.00     0.081 A 
BRANCH  17  20
HETATM   20  N   UNL     1       5.974  -6.375  21.629  1.00  0.00    -0.393 N 
ATOM     21  HN2 UNL     1       6.265  -7.335  21.444  1.00  0.00     0.156 HD
ATOM     22  HN1 UNL     1       6.384  -5.951  20.797  1.00  0.00     0.156 HD
ENDBRANCH  17  20
ENDBRANCH  13  15
ENDBRANCH  10  11
ENDBRANCH   1  10
BRANCH   1  23
HETATM   23  C   UNL     1       7.400   0.526  19.882  1.00  0.00     0.029 C 
BRANCH  23  24
HETATM   24  C   UNL     1       7.161   0.304  18.875  1.00  0.00     0.001 C 
HETATM   25  C   UNL     1       6.058   0.735  18.229  1.00  0.00    -0.010 C 
HETATM   26  C   UNL     1       5.245   1.384  18.709  1.00  0.00     0.011 C 
ENDBRANCH  23  24
ENDBRANCH   1  23
TORSDOF 9
ENDMDL
MODEL 4
REMARK VINA RESULT:    -5.833      2.329      2.433
REMARK INTER + INTRA:         -10.211
REMARK INTER:                  -9.539
REMARK INTRA:                  -0.672
REMARK UNBOUND:                -1.480
REMARK  9 active torsions:
REMARK  status: ('A' for Active; 'I' for Inactive)
REMARK    1  A    between atoms: S_2  and  N_5 
REMARK    2  A    between atoms: N_5  and  C_7 
REMARK    3  A    between atoms: C_8  and  C_9 
REMARK    4  A    between atoms: C_9  and  C_14 
REMARK    5  A    between atoms: C_9  and  C_10 
REMARK    6  A    between atoms: C_10  and  C_11 
REMARK    7  A    between atoms: C_14  and  C_15 
REMARK       I    between atoms: C_15  and  N_17 
REMARK    8  A    between atoms: N_17  and  C_19 
REMARK    9  A    between atoms: N_21  and  C_24 
ROOT
HETATM    1  C   UNL     1       9.521  -1.392  23.536  1.00  0.00     0.070 C 
ENDROOT
BRANCH   1   2
HETATM    2  C   UNL     1       8.971  -1.962  24.539  1.00  0.00    -0.035 C 
HETATM    3  C   UNL     1       8.626  -2.696  25.249  1.00  0.00     0.026 C 
BRANCH   3   4
HETATM    4  N   UNL     1       8.545  -3.303  26.214  1.00  0.00    -0.243 N 
ATOM      5  HN  UNL     1       8.805  -2.840  27.085  1.00  0.00     0.189 HD
BRANCH   4   6
HETATM    6  S   UNL     1       8.049  -4.839  26.304  1.00  0.00     0.233 S 
HETATM    7  C   UNL     1       6.560  -4.773  25.488  1.00  0.00     0.186 C 
HETATM    8  O   UNL     1       8.938  -5.685  25.618  1.00  0.00    -0.205 OA
HETATM    9  O   UNL     1       7.819  -5.272  27.625  1.00  0.00    -0.205 OA
ENDBRANCH   4   6
ENDBRANCH   3   4
ENDBRANCH   1   2
BRANCH   1  10
HETATM   10  C   UNL     1       8.701  -0.668  23.095  1.00  0.00    -0.035 C 
BRANCH  10  11
HETATM   11  C   UNL     1       7.675  -0.097  22.500  1.00  0.00     0.294 C 
HETATM   12  O   UNL     1       6.752   0.008  23.134  1.00  0.00    -0.258 OA
HETATM   13  N   UNL     1       7.954   0.229  21.185  1.00  0.00    -0.316 N 
ATOM     14  HN  UNL     1       8.922   0.230  20.864  1.00  0.00     0.170 HD
BRANCH  13  15
HETATM   15  C   UNL     1       7.029   0.526  20.373  1.00  0.00     0.044 A 
HETATM   16  C   UNL     1       6.602  -0.003  19.198  1.00  0.00     0.066 A 
HETATM   17  C   UNL     1       5.693   0.113  18.423  1.00  0.00     0.069 A 
HETATM   18  S   UNL     1       4.917   1.523  19.189  1.00  0.00    -0.082 SA
HETATM   19  C   UNL     1       6.032   1.488  20.427  1.00  0.00     0.081 A 
BRANCH  17  20
HETATM   20  N   UNL     1       5.746  -0.622  17.705  1.00  0.00    -0.393 N 
ATOM     21  HN2 UNL     1       6.248  -1.171  17.007  1.00  0.00     0.156 HD
ATOM     22  HN1 UNL     1       4.829  -1.048  17.573  1.00  0.00     0.156 HD
ENDBRANCH  17  20
ENDBRANCH  13  15
ENDBRANCH  10  11
ENDBRANCH   1  10
BRANCH   1  23
HETATM   23  C   UNL     1      10.952  -1.319  22.933  1.00  0.00     0.029 C 
BRANCH  23  24
HETATM   24  C   UNL     1      11.950  -1.420  23.273  1.00  0.00     0.001 C 
HETATM   25  C   UNL     1      12.620  -0.495  23.989  1.00  0.00    -0.010 C 
HETATM   26  C   UNL     1      12.184   0.518  24.298  1.00  0.00     0.011 C 
ENDBRANCH  23  24
ENDBRANCH   1  23
TORSDOF 9
ENDMDL
MODEL 5
REMARK VINA RESULT:    -5.763      4.181      6.492
REMARK INTER + INTRA:         -10.107
REMARK INTER:                  -9.068
REMARK INTRA:                  -1.039
REMARK UNBOUND:                -1.480
REMARK  9 active torsions:
REMARK  status: ('A' for Active; 'I' for Inactive)
REMARK    1  A    between atoms: S_2  and  N_5 
REMARK    2  A    between atoms: N_5  and  C_7 
REMARK    3  A    between atoms: C_8  and  C_9 
REMARK    4  A    between atoms: C_9  and  C_14 
REMARK    5  A    between atoms: C_9  and  C_10 
REMARK    6  A    between atoms: C_10  and  C_11 
REMARK    7  A    between atoms: C_14  and  C_15 
REMARK       I    between atoms: C_15  and  N_17 
REMARK    8  A    between atoms: N_17  and  C_19 
REMARK    9  A    between atoms: N_21  and  C_24 
ROOT
HETATM    1  C   UNL     1       7.147  -4.407  24.789  1.00  0.00     0.070 C 
ENDROOT
BRANCH   1   2
HETATM    2  C   UNL     1       7.547  -4.882  25.905  1.00  0.00    -0.035 C 
HETATM    3  C   UNL     1       7.584  -5.248  26.918  1.00  0.00     0.026 C 
BRANCH   3   4
HETATM    4  N   UNL     1       7.666  -5.975  27.796  1.00  0.00    -0.243 N 
ATOM      5  HN  UNL     1       8.601  -6.238  28.106  1.00  0.00     0.189 HD
BRANCH   4   6
HETATM    6  S   UNL     1       6.410  -6.620  28.584  1.00  0.00     0.233 S 
HETATM    7  C   UNL     1       5.758  -5.263  29.372  1.00  0.00     0.186 C 
HETATM    8  O   UNL     1       5.475  -7.145  27.675  1.00  0.00    -0.205 OA
HETATM    9  O   UNL     1       6.790  -7.565  29.557  1.00  0.00    -0.205 OA
ENDBRANCH   4   6
ENDBRANCH   3   4
ENDBRANCH   1   2
BRANCH   1  10
HETATM   10  C   UNL     1       7.895  -3.533  24.530  1.00  0.00    -0.035 C 
BRANCH  10  11
HETATM   11  C   UNL     1       8.594  -2.553  23.998  1.00  0.00     0.294 C 
HETATM   12  O   UNL     1       8.822  -2.668  22.903  1.00  0.00    -0.258 OA
HETATM   13  N   UNL     1       8.928  -1.588  24.931  1.00  0.00    -0.316 N 
ATOM     14  HN  UNL     1       8.450  -1.575  25.831  1.00  0.00     0.170 HD
BRANCH  13  15
HETATM   15  C   UNL     1       9.818  -0.721  24.686  1.00  0.00     0.044 A 
HETATM   16  C   UNL     1      11.163  -0.776  24.512  1.00  0.00     0.066 A 
HETATM   17  C   UNL     1      12.067  -0.065  24.169  1.00  0.00     0.069 A 
HETATM   18  S   UNL     1      11.137   1.451  24.053  1.00  0.00    -0.082 SA
HETATM   19  C   UNL     1       9.731   0.638  24.425  1.00  0.00     0.081 A 
BRANCH  17  20
HETATM   20  N   UNL     1      12.933  -0.614  24.080  1.00  0.00    -0.393 N 
ATOM     21  HN2 UNL     1      13.909  -0.807  24.300  1.00  0.00     0.156 HD
ATOM     22  HN1 UNL     1      12.796  -1.375  23.414  1.00  0.00     0.156 HD
ENDBRANCH  17  20
ENDBRANCH  13  15
ENDBRANCH  10  11
ENDBRANCH   1  10
BRANCH   1  23
HETATM   23  C   UNL     1       6.096  -4.803  23.713  1.00  0.00     0.029 C 
BRANCH  23  24
HETATM   24  C   UNL     1       5.759  -5.687  23.238  1.00  0.00     0.001 C 
HETATM   25  C   UNL     1       6.256  -6.184  22.087  1.00  0.00    -0.010 C 
HETATM   26  C   UNL     1       7.097  -5.692  21.485  1.00  0.00     0.011 C 
ENDBRANCH  23  24
ENDBRANCH   1  23
TORSDOF 9
ENDMDL
MODEL 6
REMARK VINA RESULT:    -5.705      2.849      6.334
REMARK INTER + INTRA:         -10.020
REMARK INTER:                  -8.558
REMARK INTRA:                  -1.461
REMARK UNBOUND:                -1.480
REMARK  9 active torsions:
REMARK  status: ('A' for Active; 'I' for Inactive)
REMARK    1  A    between atoms: S_2  and  N_5 
REMARK    2  A    between atoms: N_5  and  C_7 
REMARK    3  A    between atoms: C_8  and  C_9 
REMARK    4  A    between atoms: C_9  and  C_14 
REMARK    5  A    between atoms: C_9  and  C_10 
REMARK    6  A    between atoms: C_10  and  C_11 
REMARK    7  A    between atoms: C_14  and  C_15 
REMARK       I    between atoms: C_15  and  N_17 
REMARK    8  A    between atoms: N_17  and  C_19 
REMARK    9  A    between atoms: N_21  and  C_24 
ROOT
HETATM    1  C   UNL     1       6.920  -3.685  22.466  1.00  0.00     0.070 C 
ENDROOT
BRANCH   1   2
HETATM    2  C   UNL     1       6.397  -2.745  21.776  1.00  0.00    -0.035 C 
HETATM    3  C   UNL     1       6.214  -1.803  21.286  1.00  0.00     0.026 C 
BRANCH   3   4
HETATM    4  N   UNL     1       6.109  -1.027  20.453  1.00  0.00    -0.243 N 
ATOM      5  HN  UNL     1       5.280  -1.080  19.861  1.00  0.00     0.189 HD
BRANCH   4   6
HETATM    6  S   UNL     1       7.175   0.148  20.142  1.00  0.00     0.233 S 
HETATM    7  C   UNL     1       6.693   1.355  21.237  1.00  0.00     0.186 C 
HETATM    8  O   UNL     1       8.481  -0.280  20.440  1.00  0.00    -0.205 OA
HETATM    9  O   UNL     1       7.072   0.660  18.834  1.00  0.00    -0.205 OA
ENDBRANCH   4   6
ENDBRANCH   3   4
ENDBRANCH   1   2
BRANCH   1  10
HETATM   10  C   UNL     1       7.918  -3.238  22.905  1.00  0.00    -0.035 C 
BRANCH  10  11
HETATM   11  C   UNL     1       8.862  -2.614  23.579  1.00  0.00     0.294 C 
HETATM   12  O   UNL     1       8.822  -2.748  24.695  1.00  0.00    -0.258 OA
HETATM   13  N   UNL     1       9.696  -1.886  22.750  1.00  0.00    -0.316 N 
ATOM     14  HN  UNL     1       9.679  -2.061  21.745  1.00  0.00     0.170 HD
BRANCH  13  15
HETATM   15  C   UNL     1      10.480  -1.009  23.216  1.00  0.00     0.044 A 
HETATM   16  C   UNL     1      11.769  -1.029  23.641  1.00  0.00     0.066 A 
HETATM   17  C   UNL     1      12.629  -0.263  23.980  1.00  0.00     0.069 A 
HETATM   18  S   UNL     1      11.637   1.217  23.968  1.00  0.00    -0.082 SA
HETATM   19  C   UNL     1      10.327   0.357  23.400  1.00  0.00     0.081 A 
BRANCH  17  20
HETATM   20  N   UNL     1      13.518  -0.766  24.107  1.00  0.00    -0.393 N 
ATOM     21  HN2 UNL     1      14.505  -0.925  23.904  1.00  0.00     0.156 HD
ATOM     22  HN1 UNL     1      13.393  -1.536  24.764  1.00  0.00     0.156 HD
ENDBRANCH  17  20
ENDBRANCH  13  15
ENDBRANCH  10  11
ENDBRANCH   1  10
BRANCH   1  23
HETATM   23  C   UNL     1       6.483  -5.097  22.949  1.00  0.00     0.029 C 
BRANCH  23  24
HETATM   24  C   UNL     1       5.620  -5.549  23.363  1.00  0.00     0.001 C 
HETATM   25  C   UNL     1       5.405  -5.743  24.680  1.00  0.00    -0.010 C 
HETATM   26  C   UNL     1       6.147  -5.450  25.502  1.00  0.00     0.011 C 
ENDBRANCH  23  24
ENDBRANCH   1  23
TORSDOF 9
ENDMDL
MODEL 7
REMARK VINA RESULT:    -5.668      2.916      6.606
REMARK INTER + INTRA:          -9.964
REMARK INTER:                  -8.560
REMARK INTRA:                  -1.405
REMARK UNBOUND:                -1.480
REMARK  9 active torsions:
REMARK  status: ('A' for Active; 'I' for Inactive)
REMARK    1  A    between atoms: S_2  and  N_5 
REMARK    2  A    between atoms: N_5  and  C_7 
REMARK    3  A    between atoms: C_8  and  C_9 
REMARK    4  A    between atoms: C_9  and  C_14 
REMARK    5  A    between atoms: C_9  and  C_10 
REMARK    6  A    between atoms: C_10  and  C_11 
REMARK    7  A    between atoms: C_14  and  C_15 
REMARK       I    between atoms: C_15  and  N_17 
REMARK    8  A    between atoms: N_17  and  C_19 
REMARK    9  A    between atoms: N_21  and  C_24 
ROOT
HETATM    1  C   UNL     1       7.452  -0.745  21.074  1.00  0.00     0.070 C 
ENDROOT
BRANCH   1   2
HETATM    2  C   UNL     1       8.582  -0.235  21.382  1.00  0.00    -0.035 C 
HETATM    3  C   UNL     1       9.437   0.126  21.929  1.00  0.00     0.026 C 
BRANCH   3   4
HETATM    4  N   UNL     1      10.499   0.184  22.348  1.00  0.00    -0.243 N 
ATOM      5  HN  UNL     1      11.065   0.993  22.091  1.00  0.00     0.189 HD
BRANCH   4   6
HETATM    6  S   UNL     1      11.174  -0.920  23.318  1.00  0.00     0.233 S 
HETATM    7  C   UNL     1      12.226   0.032  24.252  1.00  0.00     0.186 C 
HETATM    8  O   UNL     1      10.200  -1.513  24.141  1.00  0.00    -0.205 OA
HETATM    9  O   UNL     1      11.935  -1.880  22.622  1.00  0.00    -0.205 OA
ENDBRANCH   4   6
ENDBRANCH   3   4
ENDBRANCH   1   2
BRANCH   1  10
HETATM   10  C   UNL     1       7.275  -1.615  21.850  1.00  0.00    -0.035 C 
BRANCH  10  11
HETATM   11  C   UNL     1       7.122  -2.752  22.495  1.00  0.00     0.294 C 
HETATM   12  O   UNL     1       6.651  -3.581  21.898  1.00  0.00    -0.258 OA
HETATM   13  N   UNL     1       7.556  -2.668  23.805  1.00  0.00    -0.316 N 
ATOM     14  HN  UNL     1       8.138  -1.880  24.090  1.00  0.00     0.170 HD
BRANCH  13  15
HETATM   15  C   UNL     1       7.244  -3.551  24.657  1.00  0.00     0.044 A 
HETATM   16  C   UNL     1       7.945  -4.503  25.325  1.00  0.00     0.066 A 
HETATM   17  C   UNL     1       7.788  -5.293  26.216  1.00  0.00     0.069 A 
HETATM   18  S   UNL     1       6.040  -5.038  26.445  1.00  0.00    -0.082 SA
HETATM   19  C   UNL     1       6.046  -3.831  25.296  1.00  0.00     0.081 A 
BRANCH  17  20
HETATM   20  N   UNL     1       8.686  -5.735  26.455  1.00  0.00    -0.393 N 
ATOM     21  HN2 UNL     1       9.644  -5.708  26.805  1.00  0.00     0.156 HD
ATOM     22  HN1 UNL     1       8.660  -6.728  26.221  1.00  0.00     0.156 HD
ENDBRANCH  17  20
ENDBRANCH  13  15
ENDBRANCH  10  11
ENDBRANCH   1  10
BRANCH   1  23
HETATM   23  C   UNL     1       6.290  -0.393  20.102  1.00  0.00     0.029 C 
BRANCH  23  24
HETATM   24  C   UNL     1       6.171  -0.171  19.074  1.00  0.00     0.001 C 
HETATM   25  C   UNL     1       5.454   0.860  18.583  1.00  0.00    -0.010 C 
HETATM   26  C   UNL     1       4.879   1.609  19.232  1.00  0.00     0.011 C 
ENDBRANCH  23  24
ENDBRANCH   1  23
TORSDOF 9
ENDMDL
MODEL 8
REMARK VINA RESULT:    -5.636     24.241     27.456
REMARK INTER + INTRA:          -9.916
REMARK INTER:                  -8.803
REMARK INTRA:                  -1.113
REMARK UNBOUND:                -1.480
REMARK  9 active torsions:
REMARK  status: ('A' for Active; 'I' for Inactive)
REMARK    1  A    between atoms: S_2  and  N_5 
REMARK    2  A    between atoms: N_5  and  C_7 
REMARK    3  A    between atoms: C_8  and  C_9 
REMARK    4  A    between atoms: C_9  and  C_14 
REMARK    5  A    between atoms: C_9  and  C_10 
REMARK    6  A    between atoms: C_10  and  C_11 
REMARK    7  A    between atoms: C_14  and  C_15 
REMARK       I    between atoms: C_15  and  N_17 
REMARK    8  A    between atoms: N_17  and  C_19 
REMARK    9  A    between atoms: N_21  and  C_24 
ROOT
HETATM    1  C   UNL     1       8.982  17.391   1.272  1.00  0.00     0.070 C 
ENDROOT
BRANCH   1   2
HETATM    2  C   UNL     1       8.905  16.131   1.470  1.00  0.00    -0.035 C 
HETATM    3  C   UNL     1       9.150  15.094   1.632  1.00  0.00     0.026 C 
BRANCH   3   4
HETATM    4  N   UNL     1       9.284  14.091   2.164  1.00  0.00    -0.243 N 
ATOM      5  HN  UNL     1       9.304  13.250   1.588  1.00  0.00     0.189 HD
BRANCH   4   6
HETATM    6  S   UNL     1       9.441  13.905   3.762  1.00  0.00     0.233 S 
HETATM    7  C   UNL     1       8.119  14.795   4.350  1.00  0.00     0.186 C 
HETATM    8  O   UNL     1       9.306  12.550   4.116  1.00  0.00    -0.205 OA
HETATM    9  O   UNL     1      10.626  14.469   4.273  1.00  0.00    -0.205 OA
ENDBRANCH   4   6
ENDBRANCH   3   4
ENDBRANCH   1   2
BRANCH   1  10
HETATM   10  C   UNL     1       9.343  17.851   2.296  1.00  0.00    -0.035 C 
BRANCH  10  11
HETATM   11  C   UNL     1       9.645  18.603   3.333  1.00  0.00     0.294 C 
HETATM   12  O   UNL     1       8.842  19.322   3.653  1.00  0.00    -0.258 OA
HETATM   13  N   UNL     1      10.927  18.362   3.793  1.00  0.00    -0.316 N 
ATOM     14  HN  UNL     1      11.420  17.524   3.484  1.00  0.00     0.170 HD
BRANCH  13  15
HETATM   15  C   UNL     1      11.499  19.162   4.590  1.00  0.00     0.044 A 
HETATM   16  C   UNL     1      12.096  20.372   4.441  1.00  0.00     0.066 A 
HETATM   17  C   UNL     1      12.553  21.252   5.118  1.00  0.00     0.069 A 
HETATM   18  S   UNL     1      12.409  20.430   6.693  1.00  0.00    -0.082 SA
HETATM   19  C   UNL     1      11.664  19.128   5.966  1.00  0.00     0.081 A 
BRANCH  17  20
HETATM   20  N   UNL     1      12.798  22.059   4.528  1.00  0.00    -0.393 N 
ATOM     21  HN2 UNL     1      12.617  22.709   3.764  1.00  0.00     0.156 HD
ATOM     22  HN1 UNL     1      13.707  22.431   4.805  1.00  0.00     0.156 HD
ENDBRANCH  17  20
ENDBRANCH  13  15
ENDBRANCH  10  11
ENDBRANCH   1  10
BRANCH   1  23
HETATM   23  C   UNL     1       8.881  18.342   0.046  1.00  0.00     0.029 C 
BRANCH  23  24
HETATM   24  C   UNL     1       8.227  19.097  -0.306  1.00  0.00     0.001 C 
HETATM   25  C   UNL     1       8.508  20.415  -0.327  1.00  0.00    -0.010 C 
HETATM   26  C   UNL     1       9.490  20.869   0.052  1.00  0.00     0.011 C 
ENDBRANCH  23  24
ENDBRANCH   1  23
TORSDOF 9
ENDMDL
MODEL 9
REMARK VINA RESULT:    -5.400     14.479     16.009
REMARK INTER + INTRA:          -9.563
REMARK INTER:                  -8.466
REMARK INTRA:                  -1.097
REMARK UNBOUND:                -1.480
REMARK  9 active torsions:
REMARK  status: ('A' for Active; 'I' for Inactive)
REMARK    1  A    between atoms: S_2  and  N_5 
REMARK    2  A    between atoms: N_5  and  C_7 
REMARK    3  A    between atoms: C_8  and  C_9 
REMARK    4  A    between atoms: C_9  and  C_14 
REMARK    5  A    between atoms: C_9  and  C_10 
REMARK    6  A    between atoms: C_10  and  C_11 
REMARK    7  A    between atoms: C_14  and  C_15 
REMARK       I    between atoms: C_15  and  N_17 
REMARK    8  A    between atoms: N_17  and  C_19 
REMARK    9  A    between atoms: N_21  and  C_24 
ROOT
HETATM    1  C   UNL     1      23.706  -2.318  23.419  1.00  0.00     0.070 C 
ENDROOT
BRANCH   1   2
HETATM    2  C   UNL     1      24.073  -3.473  23.823  1.00  0.00    -0.035 C 
HETATM    3  C   UNL     1      24.115  -4.530  24.031  1.00  0.00     0.026 C 
BRANCH   3   4
HETATM    4  N   UNL     1      24.435  -5.625  23.969  1.00  0.00    -0.243 N 
ATOM      5  HN  UNL     1      24.787  -5.964  23.074  1.00  0.00     0.189 HD
BRANCH   4   6
HETATM    6  S   UNL     1      24.371  -6.679  25.193  1.00  0.00     0.233 S 
HETATM    7  C   UNL     1      26.011  -6.826  25.613  1.00  0.00     0.186 C 
HETATM    8  O   UNL     1      23.644  -6.140  26.270  1.00  0.00    -0.205 OA
HETATM    9  O   UNL     1      23.889  -7.946  24.811  1.00  0.00    -0.205 OA
ENDBRANCH   4   6
ENDBRANCH   3   4
ENDBRANCH   1   2
BRANCH   1  10
HETATM   10  C   UNL     1      24.235  -2.163  22.377  1.00  0.00    -0.035 C 
BRANCH  10  11
HETATM   11  C   UNL     1      24.584  -2.086  21.110  1.00  0.00     0.294 C 
HETATM   12  O   UNL     1      25.678  -1.902  20.925  1.00  0.00    -0.258 OA
HETATM   13  N   UNL     1      23.498  -2.219  20.264  1.00  0.00    -0.316 N 
ATOM     14  HN  UNL     1      22.617  -2.579  20.632  1.00  0.00     0.170 HD
BRANCH  13  15
HETATM   15  C   UNL     1      23.577  -1.901  19.041  1.00  0.00     0.044 A 
HETATM   16  C   UNL     1      23.370  -0.749  18.353  1.00  0.00     0.066 A 
HETATM   17  C   UNL     1      23.523  -0.309  17.246  1.00  0.00     0.069 A 
HETATM   18  S   UNL     1      24.044  -1.824  16.465  1.00  0.00    -0.082 SA
HETATM   19  C   UNL     1      23.990  -2.619  17.929  1.00  0.00     0.081 A 
BRANCH  17  20
HETATM   20  N   UNL     1      23.315   0.699  17.237  1.00  0.00    -0.393 N 
ATOM     21  HN2 UNL     1      23.327   1.622  16.804  1.00  0.00     0.156 HD
ATOM     22  HN1 UNL     1      22.876   0.973  18.117  1.00  0.00     0.156 HD
ENDBRANCH  17  20
ENDBRANCH  13  15
ENDBRANCH  10  11
ENDBRANCH   1  10
BRANCH   1  23
HETATM   23  C   UNL     1      22.674  -1.247  23.874  1.00  0.00     0.029 C 
BRANCH  23  24
HETATM   24  C   UNL     1      21.688  -0.955  23.624  1.00  0.00     0.001 C 
HETATM   25  C   UNL     1      20.615  -1.082  24.431  1.00  0.00    -0.010 C 
HETATM   26  C   UNL     1      20.652  -1.535  25.482  1.00  0.00     0.011 C 
ENDBRANCH  23  24
ENDBRANCH   1  23
TORSDOF 9
ENDMDL
