MODEL 1
REMARK VINA RESULT:    -8.113      0.000      0.000
REMARK INTER + INTRA:         -10.682
REMARK INTER:                 -10.011
REMARK INTRA:                  -0.672
REMARK UNBOUND:                -0.672
REMARK  4 active torsions:
REMARK  status: ('A' for Active; 'I' for Inactive)
REMARK    1  A    between atoms: S_2  and  N_5 
REMARK    2  A    between atoms: N_5  and  C_7 
REMARK    3  A    between atoms: C_15  and  C_16 
REMARK       I    between atoms: C_16  and  N_18 
REMARK    4  A    between atoms: N_18  and  C_20 
ROOT
HETATM    1  C   UNL     1       8.214  -3.720  23.546  1.00  0.00     0.109 C 
HETATM    2  C   UNL     1       8.680  -2.577  23.189  1.00  0.00    -0.008 A 
HETATM    3  C   UNL     1       9.452  -1.552  23.319  1.00  0.00     0.057 A 
HETATM    4  C   UNL     1       9.600  -0.538  24.620  1.00  0.00    -0.007 C 
HETATM    5  C   UNL     1      10.470  -0.018  24.922  1.00  0.00    -0.025 C 
HETATM    6  C   UNL     1      11.844  -0.086  24.478  1.00  0.00     0.053 C 
HETATM    7  C   UNL     1      11.889  -1.106  23.425  1.00  0.00    -0.025 C 
HETATM    8  C   UNL     1      11.182  -1.629  23.003  1.00  0.00    -0.007 C 
HETATM    9  C   UNL     1       8.916  -1.127  22.370  1.00  0.00     0.040 A 
ENDROOT
BRANCH   9  10
HETATM   10  C   UNL     1       8.471  -0.384  21.271  1.00  0.00     0.254 C 
HETATM   11  O   UNL     1       9.207   0.370  20.802  1.00  0.00    -0.268 OA
HETATM   12  N   UNL     1       7.252  -0.739  21.034  1.00  0.00    -0.320 N 
ATOM     13  HN  UNL     1       6.797  -1.457  21.598  1.00  0.00     0.169 HD
BRANCH  12  14
HETATM   14  C   UNL     1       6.645  -0.180  20.097  1.00  0.00     0.072 C 
HETATM   15  C   UNL     1       6.349  -0.443  18.879  1.00  0.00     0.119 C 
HETATM   16  N   UNL     1       5.762  -0.241  17.746  1.00  0.00    -0.373 N 
HETATM   17  C   UNL     1       5.348   0.876  18.106  1.00  0.00     0.089 C 
ATOM     18  HN  UNL     1       5.672  -0.786  16.888  1.00  0.00     0.164 HD
HETATM   19  C   UNL     1       5.390   1.541  19.121  1.00  0.00     0.043 C 
HETATM   20  C   UNL     1       5.932   1.253  20.298  1.00  0.00     0.063 C 
HETATM   21 CL   UNL     1       5.985   2.047  21.660  1.00  0.00    -0.082 Cl
ENDBRANCH  12  14
ENDBRANCH   9  10
BRANCH   1  22
HETATM   22  N   UNL     1       7.482  -4.533  23.711  1.00  0.00    -0.295 N 
ATOM     23  HN  UNL     1       7.430  -4.912  24.656  1.00  0.00     0.177 HD
BRANCH  22  24
HETATM   24  S   UNL     1       6.460  -5.202  22.594  1.00  0.00     0.226 S 
HETATM   25  C   UNL     1       5.264  -6.120  23.536  1.00  0.00     0.186 C 
HETATM   26  O   UNL     1       5.744  -4.198  21.872  1.00  0.00    -0.206 OA
HETATM   27  O   UNL     1       7.136  -6.103  21.748  1.00  0.00    -0.206 OA
ENDBRANCH  22  24
ENDBRANCH   1  22
TORSDOF 4
ENDMDL
MODEL 2
REMARK VINA RESULT:    -7.580      4.030      6.221
REMARK INTER + INTRA:         -10.024
REMARK INTER:                  -9.263
REMARK INTRA:                  -0.762
REMARK UNBOUND:                -0.672
REMARK  4 active torsions:
REMARK  status: ('A' for Active; 'I' for Inactive)
REMARK    1  A    between atoms: S_2  and  N_5 
REMARK    2  A    between atoms: N_5  and  C_7 
REMARK    3  A    between atoms: C_15  and  C_16 
REMARK       I    between atoms: C_16  and  N_18 
REMARK    4  A    between atoms: N_18  and  C_20 
ROOT
HETATM    1  C   UNL     1       7.059  -5.675  26.719  1.00  0.00     0.109 C 
HETATM    2  C   UNL     1       7.060  -4.983  25.637  1.00  0.00    -0.008 A 
HETATM    3  C   UNL     1       6.894  -4.823  24.367  1.00  0.00     0.057 A 
HETATM    4  C   UNL     1       7.601  -5.662  23.127  1.00  0.00    -0.007 C 
HETATM    5  C   UNL     1       7.181  -5.861  22.176  1.00  0.00    -0.025 C 
HETATM    6  C   UNL     1       5.854  -5.657  21.641  1.00  0.00     0.053 C 
HETATM    7  C   UNL     1       5.054  -5.074  22.723  1.00  0.00    -0.025 C 
HETATM    8  C   UNL     1       5.299  -4.787  23.623  1.00  0.00    -0.007 C 
HETATM    9  C   UNL     1       7.252  -3.723  24.540  1.00  0.00     0.040 A 
ENDROOT
BRANCH   9  10
HETATM   10  C   UNL     1       7.629  -2.379  24.443  1.00  0.00     0.254 C 
HETATM   11  O   UNL     1       6.789  -1.593  24.355  1.00  0.00    -0.268 OA
HETATM   12  N   UNL     1       8.920  -2.338  24.468  1.00  0.00    -0.320 N 
ATOM     13  HN  UNL     1       9.468  -3.192  24.564  1.00  0.00     0.169 HD
BRANCH  12  14
HETATM   14  C   UNL     1       9.477  -1.225  24.372  1.00  0.00     0.072 C 
HETATM   15  C   UNL     1      10.002  -0.365  25.163  1.00  0.00     0.119 C 
HETATM   16  N   UNL     1      10.666   0.704  25.458  1.00  0.00    -0.373 N 
HETATM   17  C   UNL     1      10.706   1.065  24.267  1.00  0.00     0.089 C 
ATOM     18  HN  UNL     1      11.021   1.099  26.329  1.00  0.00     0.164 HD
HETATM   19  C   UNL     1      10.342   0.611  23.202  1.00  0.00     0.043 C 
HETATM   20  C   UNL     1       9.738  -0.541  22.935  1.00  0.00     0.063 C 
HETATM   21 CL   UNL     1       9.281  -1.205  21.580  1.00  0.00    -0.082 Cl
ENDBRANCH  12  14
ENDBRANCH   9  10
BRANCH   1  22
HETATM   22  N   UNL     1       7.373  -6.032  27.719  1.00  0.00    -0.295 N 
ATOM     23  HN  UNL     1       8.376  -6.140  27.867  1.00  0.00     0.177 HD
BRANCH  22  24
HETATM   24  S   UNL     1       6.396  -6.410  29.000  1.00  0.00     0.226 S 
HETATM   25  C   UNL     1       4.765  -6.590  28.316  1.00  0.00     0.186 C 
HETATM   26  O   UNL     1       6.750  -7.669  29.575  1.00  0.00    -0.206 OA
HETATM   27  O   UNL     1       6.360  -5.369  29.948  1.00  0.00    -0.206 OA
ENDBRANCH  22  24
ENDBRANCH   1  22
TORSDOF 4
ENDMDL
MODEL 3
REMARK VINA RESULT:    -7.153     14.904     16.151
REMARK INTER + INTRA:          -9.497
REMARK INTER:                  -8.726
REMARK INTRA:                  -0.771
REMARK UNBOUND:                -0.672
REMARK  4 active torsions:
REMARK  status: ('A' for Active; 'I' for Inactive)
REMARK    1  A    between atoms: S_2  and  N_5 
REMARK    2  A    between atoms: N_5  and  C_7 
REMARK    3  A    between atoms: C_15  and  C_16 
REMARK       I    between atoms: C_16  and  N_18 
REMARK    4  A    between atoms: N_18  and  C_20 
ROOT
HETATM    1  C   UNL     1      24.042  -4.252  24.263  1.00  0.00     0.109 C 
HETATM    2  C   UNL     1      23.730  -3.130  23.722  1.00  0.00    -0.008 A 
HETATM    3  C   UNL     1      23.146  -1.980  23.703  1.00  0.00     0.057 A 
HETATM    4  C   UNL     1      21.541  -1.640  23.926  1.00  0.00    -0.007 C 
HETATM    5  C   UNL     1      21.132  -0.758  24.344  1.00  0.00    -0.025 C 
HETATM    6  C   UNL     1      21.740   0.372  25.008  1.00  0.00     0.053 C 
HETATM    7  C   UNL     1      23.182   0.107  25.043  1.00  0.00    -0.025 C 
HETATM    8  C   UNL     1      23.713  -0.619  24.664  1.00  0.00    -0.007 C 
HETATM    9  C   UNL     1      23.568  -1.873  22.617  1.00  0.00     0.040 A 
ENDROOT
BRANCH   9  10
HETATM   10  C   UNL     1      23.936  -1.469  21.329  1.00  0.00     0.254 C 
HETATM   11  O   UNL     1      24.873  -0.805  21.224  1.00  0.00    -0.268 OA
HETATM   12  N   UNL     1      23.071  -1.965  20.508  1.00  0.00    -0.320 N 
ATOM     13  HN  UNL     1      22.306  -2.550  20.844  1.00  0.00     0.169 HD
BRANCH  12  14
HETATM   14  C   UNL     1      23.197  -1.710  19.292  1.00  0.00     0.072 C 
HETATM   15  C   UNL     1      22.868  -0.767  18.490  1.00  0.00     0.119 C 
HETATM   16  N   UNL     1      22.864  -0.136  17.362  1.00  0.00    -0.373 N 
HETATM   17  C   UNL     1      23.463  -1.063  16.787  1.00  0.00     0.089 C 
ATOM     18  HN  UNL     1      22.507   0.770  17.059  1.00  0.00     0.164 HD
HETATM   19  C   UNL     1      23.943  -2.130  17.111  1.00  0.00     0.043 C 
HETATM   20  C   UNL     1      24.004  -2.702  18.308  1.00  0.00     0.063 C 
HETATM   21 CL   UNL     1      24.646  -4.055  18.802  1.00  0.00    -0.082 Cl
ENDBRANCH  12  14
ENDBRANCH   9  10
BRANCH   1  22
HETATM   22  N   UNL     1      24.274  -5.331  24.347  1.00  0.00    -0.295 N 
ATOM     23  HN  UNL     1      24.412  -5.834  23.470  1.00  0.00     0.177 HD
BRANCH  22  24
HETATM   24  S   UNL     1      24.420  -6.221  25.735  1.00  0.00     0.226 S 
HETATM   25  C   UNL     1      26.166  -6.309  26.060  1.00  0.00     0.186 C 
HETATM   26  O   UNL     1      23.820  -5.557  26.848  1.00  0.00    -0.206 OA
HETATM   27  O   UNL     1      23.941  -7.534  25.561  1.00  0.00    -0.206 OA
ENDBRANCH  22  24
ENDBRANCH   1  22
TORSDOF 4
ENDMDL
MODEL 4
REMARK VINA RESULT:    -7.062     15.128     17.748
REMARK INTER + INTRA:          -9.385
REMARK INTER:                  -8.690
REMARK INTRA:                  -0.695
REMARK UNBOUND:                -0.672
REMARK  4 active torsions:
REMARK  status: ('A' for Active; 'I' for Inactive)
REMARK    1  A    between atoms: S_2  and  N_5 
REMARK    2  A    between atoms: N_5  and  C_7 
REMARK    3  A    between atoms: C_15  and  C_16 
REMARK       I    between atoms: C_16  and  N_18 
REMARK    4  A    between atoms: N_18  and  C_20 
ROOT
HETATM    1  C   UNL     1      23.639  -4.721  24.623  1.00  0.00     0.109 C 
HETATM    2  C   UNL     1      23.367  -3.601  25.190  1.00  0.00    -0.008 A 
HETATM    3  C   UNL     1      22.812  -2.437  25.244  1.00  0.00     0.057 A 
HETATM    4  C   UNL     1      22.960  -1.180  24.176  1.00  0.00    -0.007 C 
HETATM    5  C   UNL     1      22.228  -0.449  23.953  1.00  0.00    -0.025 C 
HETATM    6  C   UNL     1      20.834  -0.329  24.318  1.00  0.00     0.053 C 
HETATM    7  C   UNL     1      20.516  -1.506  25.134  1.00  0.00    -0.025 C 
HETATM    8  C   UNL     1      21.078  -2.230  25.467  1.00  0.00    -0.007 C 
HETATM    9  C   UNL     1      23.340  -2.321  26.281  1.00  0.00     0.040 A 
ENDROOT
BRANCH   9  10
HETATM   10  C   UNL     1      23.827  -1.909  27.527  1.00  0.00     0.254 C 
HETATM   11  O   UNL     1      24.294  -0.858  27.598  1.00  0.00    -0.268 OA
HETATM   12  N   UNL     1      23.630  -2.880  28.356  1.00  0.00    -0.320 N 
ATOM     13  HN  UNL     1      23.175  -3.741  28.056  1.00  0.00     0.169 HD
BRANCH  12  14
HETATM   14  C   UNL     1      24.011  -2.735  29.537  1.00  0.00     0.072 C 
HETATM   15  C   UNL     1      23.480  -2.461  30.669  1.00  0.00     0.119 C 
HETATM   16  N   UNL     1      23.468  -2.317  31.954  1.00  0.00    -0.373 N 
HETATM   17  C   UNL     1      24.700  -2.475  32.031  1.00  0.00     0.089 C 
ATOM     18  HN  UNL     1      22.733  -2.142  32.639  1.00  0.00     0.164 HD
HETATM   19  C   UNL     1      25.601  -2.728  31.257  1.00  0.00     0.043 C 
HETATM   20  C   UNL     1      25.554  -2.958  29.951  1.00  0.00     0.063 C 
HETATM   21 CL   UNL     1      26.672  -3.332  28.903  1.00  0.00    -0.082 Cl
ENDBRANCH  12  14
ENDBRANCH   9  10
BRANCH   1  22
HETATM   22  N   UNL     1      24.219  -5.615  24.324  1.00  0.00    -0.295 N 
ATOM     23  HN  UNL     1      24.638  -5.593  23.394  1.00  0.00     0.177 HD
BRANCH  22  24
HETATM   24  S   UNL     1      24.481  -6.984  25.216  1.00  0.00     0.226 S 
HETATM   25  C   UNL     1      26.248  -7.180  25.274  1.00  0.00     0.186 C 
HETATM   26  O   UNL     1      24.032  -6.825  26.562  1.00  0.00    -0.206 OA
HETATM   27  O   UNL     1      23.936  -8.122  24.590  1.00  0.00    -0.206 OA
ENDBRANCH  22  24
ENDBRANCH   1  22
TORSDOF 4
ENDMDL
MODEL 5
REMARK VINA RESULT:    -7.035      4.453      8.089
REMARK INTER + INTRA:          -9.352
REMARK INTER:                  -8.620
REMARK INTRA:                  -0.732
REMARK UNBOUND:                -0.672
REMARK  4 active torsions:
REMARK  status: ('A' for Active; 'I' for Inactive)
REMARK    1  A    between atoms: S_2  and  N_5 
REMARK    2  A    between atoms: N_5  and  C_7 
REMARK    3  A    between atoms: C_15  and  C_16 
REMARK       I    between atoms: C_16  and  N_18 
REMARK    4  A    between atoms: N_18  and  C_20 
ROOT
HETATM    1  C   UNL     1       9.318  -2.135  23.975  1.00  0.00     0.109 C 
HETATM    2  C   UNL     1       8.440  -3.034  24.241  1.00  0.00    -0.008 A 
HETATM    3  C   UNL     1       7.471  -3.829  23.936  1.00  0.00     0.057 A 
HETATM    4  C   UNL     1       6.010  -3.451  23.255  1.00  0.00    -0.007 C 
HETATM    5  C   UNL     1       5.430  -4.065  22.617  1.00  0.00    -0.025 C 
HETATM    6  C   UNL     1       5.707  -5.328  21.972  1.00  0.00     0.053 C 
HETATM    7  C   UNL     1       7.075  -5.697  22.353  1.00  0.00    -0.025 C 
HETATM    8  C   UNL     1       7.711  -5.275  22.961  1.00  0.00    -0.007 C 
HETATM    9  C   UNL     1       7.471  -4.134  25.065  1.00  0.00     0.040 A 
ENDROOT
BRANCH   9  10
HETATM   10  C   UNL     1       7.245  -4.691  26.329  1.00  0.00     0.254 C 
HETATM   11  O   UNL     1       8.134  -4.731  27.062  1.00  0.00    -0.268 OA
HETATM   12  N   UNL     1       6.009  -5.062  26.370  1.00  0.00    -0.320 N 
ATOM     13  HN  UNL     1       5.390  -4.910  25.575  1.00  0.00     0.169 HD
BRANCH  12  14
HETATM   14  C   UNL     1       5.591  -5.611  27.412  1.00  0.00     0.072 C 
HETATM   15  C   UNL     1       5.554  -6.793  27.901  1.00  0.00     0.119 C 
HETATM   16  N   UNL     1       5.339  -7.675  28.822  1.00  0.00    -0.373 N 
HETATM   17  C   UNL     1       4.811  -6.832  29.571  1.00  0.00     0.089 C 
ATOM     18  HN  UNL     1       5.529  -8.673  28.904  1.00  0.00     0.164 HD
HETATM   19  C   UNL     1       4.605  -5.636  29.537  1.00  0.00     0.043 C 
HETATM   20  C   UNL     1       4.926  -4.749  28.602  1.00  0.00     0.063 C 
HETATM   21 CL   UNL     1       4.729  -3.187  28.516  1.00  0.00    -0.082 Cl
ENDBRANCH  12  14
ENDBRANCH   9  10
BRANCH   1  22
HETATM   22  N   UNL     1       9.972  -1.254  24.117  1.00  0.00    -0.295 N 
ATOM     23  HN  UNL     1       9.769  -0.664  24.924  1.00  0.00     0.177 HD
BRANCH  22  24
HETATM   24  S   UNL     1      11.243  -0.784  23.166  1.00  0.00     0.226 S 
HETATM   25  C   UNL     1      12.402  -0.013  24.273  1.00  0.00     0.186 C 
HETATM   26  O   UNL     1      11.904  -1.908  22.584  1.00  0.00    -0.206 OA
HETATM   27  O   UNL     1      10.849   0.173  22.210  1.00  0.00    -0.206 OA
ENDBRANCH  22  24
ENDBRANCH   1  22
TORSDOF 4
ENDMDL
MODEL 6
REMARK VINA RESULT:    -6.954      2.466      2.797
REMARK INTER + INTRA:          -9.252
REMARK INTER:                  -8.816
REMARK INTRA:                  -0.435
REMARK UNBOUND:                -0.672
REMARK  4 active torsions:
REMARK  status: ('A' for Active; 'I' for Inactive)
REMARK    1  A    between atoms: S_2  and  N_5 
REMARK    2  A    between atoms: N_5  and  C_7 
REMARK    3  A    between atoms: C_15  and  C_16 
REMARK       I    between atoms: C_16  and  N_18 
REMARK    4  A    between atoms: N_18  and  C_20 
ROOT
HETATM    1  C   UNL     1       6.649  -4.141  25.166  1.00  0.00     0.109 C 
HETATM    2  C   UNL     1       6.992  -3.219  24.340  1.00  0.00    -0.008 A 
HETATM    3  C   UNL     1       7.715  -2.221  23.956  1.00  0.00     0.057 A 
HETATM    4  C   UNL     1       7.984  -0.789  24.742  1.00  0.00    -0.007 C 
HETATM    5  C   UNL     1       8.857  -0.193  24.692  1.00  0.00    -0.025 C 
HETATM    6  C   UNL     1      10.157  -0.425  24.103  1.00  0.00     0.053 C 
HETATM    7  C   UNL     1      10.113  -1.769  23.517  1.00  0.00    -0.025 C 
HETATM    8  C   UNL     1       9.385  -2.413  23.434  1.00  0.00    -0.007 C 
HETATM    9  C   UNL     1       7.027  -2.190  23.011  1.00  0.00     0.040 A 
ENDROOT
BRANCH   9  10
HETATM   10  C   UNL     1       6.391  -1.920  21.794  1.00  0.00     0.254 C 
HETATM   11  O   UNL     1       5.682  -2.725  21.371  1.00  0.00    -0.268 OA
HETATM   12  N   UNL     1       6.785  -0.753  21.404  1.00  0.00    -0.320 N 
ATOM     13  HN  UNL     1       7.432  -0.204  21.969  1.00  0.00     0.169 HD
BRANCH  12  14
HETATM   14  C   UNL     1       6.352  -0.316  20.317  1.00  0.00     0.072 C 
HETATM   15  C   UNL     1       6.188  -0.755  19.126  1.00  0.00     0.119 C 
HETATM   16  N   UNL     1       5.767  -0.702  17.905  1.00  0.00    -0.373 N 
HETATM   17  C   UNL     1       5.413   0.485  18.028  1.00  0.00     0.089 C 
ATOM     18  HN  UNL     1       5.737  -1.372  17.137  1.00  0.00     0.164 HD
HETATM   19  C   UNL     1       5.387   1.303  18.926  1.00  0.00     0.043 C 
HETATM   20  C   UNL     1       5.749   1.176  20.196  1.00  0.00     0.063 C 
HETATM   21 CL   UNL     1       5.702   2.177  21.414  1.00  0.00    -0.082 Cl
ENDBRANCH  12  14
ENDBRANCH   9  10
BRANCH   1  22
HETATM   22  N   UNL     1       5.994  -4.830  25.733  1.00  0.00    -0.295 N 
ATOM     23  HN  UNL     1       5.076  -5.018  25.329  1.00  0.00     0.177 HD
BRANCH  22  24
HETATM   24  S   UNL     1       6.338  -5.592  27.162  1.00  0.00     0.226 S 
HETATM   25  C   UNL     1       5.581  -4.594  28.424  1.00  0.00     0.186 C 
HETATM   26  O   UNL     1       5.730  -6.883  27.226  1.00  0.00    -0.206 OA
HETATM   27  O   UNL     1       7.725  -5.630  27.407  1.00  0.00    -0.206 OA
ENDBRANCH  22  24
ENDBRANCH   1  22
TORSDOF 4
ENDMDL
MODEL 7
REMARK VINA RESULT:    -6.911      3.050      6.351
REMARK INTER + INTRA:          -9.199
REMARK INTER:                  -8.418
REMARK INTRA:                  -0.781
REMARK UNBOUND:                -0.672
REMARK  4 active torsions:
REMARK  status: ('A' for Active; 'I' for Inactive)
REMARK    1  A    between atoms: S_2  and  N_5 
REMARK    2  A    between atoms: N_5  and  C_7 
REMARK    3  A    between atoms: C_15  and  C_16 
REMARK       I    between atoms: C_16  and  N_18 
REMARK    4  A    between atoms: N_18  and  C_20 
ROOT
HETATM    1  C   UNL     1       9.511  -0.128  21.321  1.00  0.00     0.109 C 
HETATM    2  C   UNL     1       8.266  -0.359  21.110  1.00  0.00    -0.008 A 
HETATM    3  C   UNL     1       7.094  -0.059  20.660  1.00  0.00     0.057 A 
HETATM    4  C   UNL     1       6.176   1.276  21.002  1.00  0.00    -0.007 C 
HETATM    5  C   UNL     1       5.482   1.749  20.358  1.00  0.00    -0.025 C 
HETATM    6  C   UNL     1       5.176   1.565  18.958  1.00  0.00     0.053 C 
HETATM    7  C   UNL     1       6.072   0.509  18.473  1.00  0.00    -0.025 C 
HETATM    8  C   UNL     1       6.719  -0.052  18.940  1.00  0.00    -0.007 C 
HETATM    9  C   UNL     1       6.745  -1.078  21.116  1.00  0.00     0.040 A 
ENDROOT
BRANCH   9  10
HETATM   10  C   UNL     1       6.054  -2.218  21.541  1.00  0.00     0.254 C 
HETATM   11  O   UNL     1       5.552  -2.871  20.734  1.00  0.00    -0.268 OA
HETATM   12  N   UNL     1       6.143  -2.264  22.829  1.00  0.00    -0.320 N 
ATOM     13  HN  UNL     1       6.664  -1.554  23.343  1.00  0.00     0.169 HD
BRANCH  12  14
HETATM   14  C   UNL     1       5.573  -3.200  23.427  1.00  0.00     0.072 C 
HETATM   15  C   UNL     1       4.431  -3.415  23.966  1.00  0.00     0.119 C 
HETATM   16  N   UNL     1       3.517  -4.136  24.528  1.00  0.00    -0.373 N 
HETATM   17  C   UNL     1       4.283  -5.112  24.628  1.00  0.00     0.089 C 
ATOM     18  HN  UNL     1       2.546  -3.970  24.789  1.00  0.00     0.164 HD
HETATM   19  C   UNL     1       5.422  -5.371  24.295  1.00  0.00     0.043 C 
HETATM   20  C   UNL     1       6.300  -4.625  23.636  1.00  0.00     0.063 C 
HETATM   21 CL   UNL     1       7.768  -4.913  23.137  1.00  0.00    -0.082 Cl
ENDBRANCH  12  14
ENDBRANCH   9  10
BRANCH   1  22
HETATM   22  N   UNL     1      10.490  -0.126  21.839  1.00  0.00    -0.295 N 
ATOM     23  HN  UNL     1      11.311   0.033  21.254  1.00  0.00     0.177 HD
BRANCH  22  24
HETATM   24  S   UNL     1      10.770  -0.352  23.454  1.00  0.00     0.226 S 
HETATM   25  C   UNL     1      10.445   1.222  24.216  1.00  0.00     0.186 C 
HETATM   26  O   UNL     1       9.852  -1.289  24.018  1.00  0.00    -0.206 OA
HETATM   27  O   UNL     1      12.115  -0.689  23.704  1.00  0.00    -0.206 OA
ENDBRANCH  22  24
ENDBRANCH   1  22
TORSDOF 4
ENDMDL
MODEL 8
REMARK VINA RESULT:    -6.812     23.588     26.963
REMARK INTER + INTRA:          -9.077
REMARK INTER:                  -8.322
REMARK INTRA:                  -0.755
REMARK UNBOUND:                -0.672
REMARK  4 active torsions:
REMARK  status: ('A' for Active; 'I' for Inactive)
REMARK    1  A    between atoms: S_2  and  N_5 
REMARK    2  A    between atoms: N_5  and  C_7 
REMARK    3  A    between atoms: C_15  and  C_16 
REMARK       I    between atoms: C_16  and  N_18 
REMARK    4  A    between atoms: N_18  and  C_20 
ROOT
HETATM    1  C   UNL     1       7.920  14.642   1.948  1.00  0.00     0.109 C 
HETATM    2  C   UNL     1       8.323  15.850   2.118  1.00  0.00    -0.008 A 
HETATM    3  C   UNL     1       8.520  17.067   1.737  1.00  0.00     0.057 A 
HETATM    4  C   UNL     1       9.358  17.604   0.413  1.00  0.00    -0.007 C 
HETATM    5  C   UNL     1       9.167  18.484  -0.143  1.00  0.00    -0.025 C 
HETATM    6  C   UNL     1       8.081  19.437  -0.108  1.00  0.00     0.053 C 
HETATM    7  C   UNL     1       7.149  18.967   0.923  1.00  0.00    -0.025 C 
HETATM    8  C   UNL     1       7.203  18.219   1.548  1.00  0.00    -0.007 C 
HETATM    9  C   UNL     1       9.015  17.231   2.784  1.00  0.00     0.040 A 
ENDROOT
BRANCH   9  10
HETATM   10  C   UNL     1       9.640  17.718   3.937  1.00  0.00     0.254 C 
HETATM   11  O   UNL     1       9.201  17.404   4.957  1.00  0.00    -0.268 OA
HETATM   12  N   UNL     1      10.624  18.462   3.556  1.00  0.00    -0.320 N 
ATOM     13  HN  UNL     1      10.831  18.589   2.566  1.00  0.00     0.169 HD
BRANCH  12  14
HETATM   14  C   UNL     1      11.315  19.023   4.433  1.00  0.00     0.072 C 
HETATM   15  C   UNL     1      12.290  18.712   5.202  1.00  0.00     0.119 C 
HETATM   16  N   UNL     1      13.228  18.948   6.060  1.00  0.00    -0.373 N 
HETATM   17  C   UNL     1      12.846  20.121   6.225  1.00  0.00     0.089 C 
ATOM     18  HN  UNL     1      13.987  18.390   6.450  1.00  0.00     0.164 HD
HETATM   19  C   UNL     1      11.985  20.837   5.755  1.00  0.00     0.043 C 
HETATM   20  C   UNL     1      11.095  20.577   4.805  1.00  0.00     0.063 C 
HETATM   21 CL   UNL     1       9.986  21.467   4.123  1.00  0.00    -0.082 Cl
ENDBRANCH  12  14
ENDBRANCH   9  10
BRANCH   1  22
HETATM   22  N   UNL     1       7.897  13.539   2.028  1.00  0.00    -0.295 N 
ATOM     23  HN  UNL     1       7.916  13.020   1.150  1.00  0.00     0.177 HD
BRANCH  22  24
HETATM   24  S   UNL     1       7.835  12.635   3.414  1.00  0.00     0.226 S 
HETATM   25  C   UNL     1       7.146  11.070   2.929  1.00  0.00     0.186 C 
HETATM   26  O   UNL     1       9.142  12.376   3.929  1.00  0.00    -0.206 OA
HETATM   27  O   UNL     1       6.977  13.213   4.370  1.00  0.00    -0.206 OA
ENDBRANCH  22  24
ENDBRANCH   1  22
TORSDOF 4
ENDMDL
MODEL 9
REMARK VINA RESULT:    -6.666      2.959      3.983
REMARK INTER + INTRA:          -8.896
REMARK INTER:                  -8.390
REMARK INTRA:                  -0.506
REMARK UNBOUND:                -0.672
REMARK  4 active torsions:
REMARK  status: ('A' for Active; 'I' for Inactive)
REMARK    1  A    between atoms: S_2  and  N_5 
REMARK    2  A    between atoms: N_5  and  C_7 
REMARK    3  A    between atoms: C_15  and  C_16 
REMARK       I    between atoms: C_16  and  N_18 
REMARK    4  A    between atoms: N_18  and  C_20 
ROOT
HETATM    1  C   UNL     1       3.840  -5.250  24.283  1.00  0.00     0.109 C 
HETATM    2  C   UNL     1       4.789  -4.510  23.834  1.00  0.00    -0.008 A 
HETATM    3  C   UNL     1       5.899  -3.861  23.943  1.00  0.00     0.057 A 
HETATM    4  C   UNL     1       6.291  -2.675  25.030  1.00  0.00    -0.007 C 
HETATM    5  C   UNL     1       7.252  -2.466  25.421  1.00  0.00    -0.025 C 
HETATM    6  C   UNL     1       8.512  -3.168  25.324  1.00  0.00     0.053 C 
HETATM    7  C   UNL     1       8.258  -4.367  24.519  1.00  0.00    -0.025 C 
HETATM    8  C   UNL     1       7.457  -4.672  24.051  1.00  0.00    -0.007 C 
HETATM    9  C   UNL     1       5.724  -3.532  22.835  1.00  0.00     0.040 A 
ENDROOT
BRANCH   9  10
HETATM   10  C   UNL     1       5.785  -2.994  21.544  1.00  0.00     0.254 C 
HETATM   11  O   UNL     1       5.541  -3.694  20.661  1.00  0.00    -0.268 OA
HETATM   12  N   UNL     1       6.135  -1.756  21.660  1.00  0.00    -0.320 N 
ATOM     13  HN  UNL     1       6.293  -1.340  22.577  1.00  0.00     0.169 HD
BRANCH  12  14
HETATM   14  C   UNL     1       6.272  -1.081  20.618  1.00  0.00     0.072 C 
HETATM   15  C   UNL     1       5.564  -0.776  19.595  1.00  0.00     0.119 C 
HETATM   16  N   UNL     1       5.300  -0.144  18.499  1.00  0.00    -0.373 N 
HETATM   17  C   UNL     1       6.442   0.350  18.453  1.00  0.00     0.089 C 
ATOM     18  HN  UNL     1       4.477  -0.077  17.902  1.00  0.00     0.164 HD
HETATM   19  C   UNL     1       7.432   0.335  19.156  1.00  0.00     0.043 C 
HETATM   20  C   UNL     1       7.629  -0.259  20.327  1.00  0.00     0.063 C 
HETATM   21 CL   UNL     1       8.866  -0.282  21.305  1.00  0.00    -0.082 Cl
ENDBRANCH  12  14
ENDBRANCH   9  10
BRANCH   1  22
HETATM   22  N   UNL     1       2.817  -5.648  24.424  1.00  0.00    -0.295 N 
ATOM     23  HN  UNL     1       2.096  -4.967  24.661  1.00  0.00     0.177 HD
BRANCH  22  24
HETATM   24  S   UNL     1       2.327  -7.223  24.293  1.00  0.00     0.226 S 
HETATM   25  C   UNL     1       0.979  -7.397  25.440  1.00  0.00     0.186 C 
HETATM   26  O   UNL     1       1.808  -7.503  22.992  1.00  0.00    -0.206 OA
HETATM   27  O   UNL     1       3.346  -8.116  24.677  1.00  0.00    -0.206 OA
ENDBRANCH  22  24
ENDBRANCH   1  22
TORSDOF 4
ENDMDL
