stable:False satoms:14 tatoms:24 sratio:0.5833333333333334
  -OEChem-08062407233D

 30 30  0     0  0  0  0  0  0999 V2000
  -13.4084    0.3795  -23.6118 H   0  0  0  0  0  0  0  0  0  0  0  0
  -12.8119   -0.3699  -24.1790 C   0  0  0  0  0  0  0  0  0  0  0  0
  -12.9058   -0.1142  -25.2531 H   0  0  0  0  0  0  0  0  0  0  0  0
  -13.2590   -1.3729  -24.0320 H   0  0  0  0  0  0  0  0  0  0  0  0
  -11.4652   -0.3393  -23.7249 N   0  0  0  0  0  0  0  0  0  0  0  0
  -10.5059   -1.0666  -23.9425 N   0  0  0  0  0  0  0  0  0  0  0  0
   -9.5646   -1.2860  -23.0850 N   0  0  0  0  0  0  0  0  0  0  0  0
   -8.8978   -3.1280  -23.7326 C   0  0  0  0  0  0  0  0  0  0  0  0
   -9.6417   -3.8973  -23.5517 H   0  0  0  0  0  0  0  0  0  0  0  0
   -8.8246   -5.6816  -24.8109 H   0  0  0  0  0  0  0  0  0  0  0  0
   -7.8668   -5.4106  -24.9068 N   0  3  0  0  0  0  0  0  0  0  0  0
   -7.8146   -4.3993  -25.2868 C   0  0  0  0  0  0  0  0  0  0  0  0
   -8.2278   -3.4717  -24.8200 C   0  0  0  0  0  0  0  0  0  0  0  0
   -8.6150   -2.0984  -22.9614 C   0  0  0  0  0  0  0  0  0  0  0  0
   -7.3793   -1.9426  -22.0098 C   0  0  0  0  0  0  0  0  0  0  0  0
   -6.7417   -2.9114  -21.6983 O   0  0  0  0  0  0  0  0  0  0  0  0
   -7.0815   -0.7114  -21.5989 N   0  0  0  0  0  0  0  0  0  0  0  0
   -6.6522   -0.3333  -20.4053 C   0  0  0  0  0  0  0  0  0  0  0  0
   -5.5110    0.1461  -19.9027 C   0  0  0  0  0  0  0  0  0  0  0  0
   -4.5231    0.2868  -20.3055 H   0  0  0  0  0  0  0  0  0  0  0  0
   -5.1286    0.8878  -17.8492 H   0  0  0  0  0  0  0  0  0  0  0  0
   -7.0036    0.1457  -18.1630 N   0  0  0  0  0  0  0  0  0  0  0  0
   -5.8588    0.4348  -18.5509 C   0  0  0  0  0  0  0  0  0  0  0  0
   -7.6354   -0.3362  -19.2391 O   0  0  0  0  0  0  0  0  0  0  0  0
   -9.6020   -0.6414  -22.3214 H   0  0  0  0  0  0  0  0  0  0  0  0
   -7.4072   -6.0300  -25.5432 H   0  0  0  0  0  0  0  0  0  0  0  0
   -7.3025   -4.2707  -26.2290 H   0  0  0  0  0  0  0  0  0  0  0  0
   -8.0202   -2.6072  -25.4332 H   0  0  0  0  0  0  0  0  0  0  0  0
   -7.1963    0.0166  -22.2748 H   0  0  0  0  0  0  0  0  0  0  0  0
   -7.4169   -5.4551  -24.0148 H   0  0  0  0  0  0  0  0  0  0  0  0
 19 20  1  0  0  0  0
 21 23  1  0  0  0  0
 19 23  1  0  0  0  0
 18 19  2  0  0  0  0
 22 23  2  0  0  0  0
 17 18  1  0  0  0  0
 18 24  1  0  0  0  0
 22 24  1  0  0  0  0
 15 17  1  0  0  0  0
 15 16  2  0  0  0  0
 14 15  1  0  0  0  0
  7 14  1  0  0  0  0
  8 14  2  3  0  0  0
 12 13  2  0  0  0  0
 11 12  1  0  0  0  0
  8 13  1  0  0  0  0
  6  7  1  0  0  0  0
 10 11  1  0  0  0  0
  8  9  1  0  0  0  0
  5  6  2  3  0  0  0
  2  5  1  0  0  0  0
  2  3  1  0  0  0  0
  1  2  1  0  0  0  0
  2  4  1  0  0  0  0
  7 25  1  0  0  0  0
 11 26  1  0  0  0  0
 12 27  1  0  0  0  0
 13 28  1  0  0  0  0
 17 29  1  0  0  0  0
 11 30  1  0  0  0  0
M  CHG  1  11   1
M  END
> <Chemgauss4>
-8.211955

$$$$
