stable:False satoms:14 tatoms:24 sratio:0.5833333333333334
  -OEChem-08062407233D

 30 30  0     0  0  0  0  0  0999 V2000
   13.3588    0.6868   24.0409 H   0  0  0  0  0  0  0  0  0  0  0  0
   12.7718   -0.0866   24.5852 C   0  0  0  0  0  0  0  0  0  0  0  0
   12.7865    0.1898   25.6581 H   0  0  0  0  0  0  0  0  0  0  0  0
   13.2818   -1.0649   24.4832 H   0  0  0  0  0  0  0  0  0  0  0  0
   11.4553   -0.1388   24.0516 N   0  0  0  0  0  0  0  0  0  0  0  0
   10.5264   -0.9158   24.2251 N   0  0  0  0  0  0  0  0  0  0  0  0
    9.6521   -1.2006   23.3174 N   0  0  0  0  0  0  0  0  0  0  0  0
    9.0506   -3.0676   23.9577 C   0  0  0  0  0  0  0  0  0  0  0  0
    9.8455   -3.7962   23.8352 H   0  0  0  0  0  0  0  0  0  0  0  0
    9.0543   -5.6049   25.0760 H   0  0  0  0  0  0  0  0  0  0  0  0
    8.0789   -5.3870   25.1099 N   0  3  0  0  0  0  0  0  0  0  0  0
    7.9479   -4.3748   25.4678 C   0  0  0  0  0  0  0  0  0  0  0  0
    8.3364   -3.4323   25.0095 C   0  0  0  0  0  0  0  0  0  0  0  0
    8.7582   -2.0671   23.1525 C   0  0  0  0  0  0  0  0  0  0  0  0
    7.5753   -1.9954   22.1266 C   0  0  0  0  0  0  0  0  0  0  0  0
    7.0123   -3.0031   21.7955 O   0  0  0  0  0  0  0  0  0  0  0  0
    7.2350   -0.7892   21.6764 N   0  0  0  0  0  0  0  0  0  0  0  0
    6.8580   -0.4536   20.4528 C   0  0  0  0  0  0  0  0  0  0  0  0
    5.7244   -0.0469   19.8748 C   0  0  0  0  0  0  0  0  0  0  0  0
    4.7076    0.0437   20.2157 H   0  0  0  0  0  0  0  0  0  0  0  0
    5.4258    0.6414   17.7891 H   0  0  0  0  0  0  0  0  0  0  0  0
    7.3167    0.0111   18.2270 N   0  0  0  0  0  0  0  0  0  0  0  0
    6.1364    0.2409   18.5410 C   0  0  0  0  0  0  0  0  0  0  0  0
    7.9083   -0.4184   19.3472 O   0  0  0  0  0  0  0  0  0  0  0  0
    9.6996   -0.5663   22.5458 H   0  0  0  0  0  0  0  0  0  0  0  0
    7.6169   -6.0219   25.7292 H   0  0  0  0  0  0  0  0  0  0  0  0
    7.3737   -4.2613   26.3754 H   0  0  0  0  0  0  0  0  0  0  0  0
    8.0447   -2.5720   25.5935 H   0  0  0  0  0  0  0  0  0  0  0  0
    7.2683   -0.0459   22.3446 H   0  0  0  0  0  0  0  0  0  0  0  0
    7.6867   -5.4700   24.1938 H   0  0  0  0  0  0  0  0  0  0  0  0
 19 20  1  0  0  0  0
 21 23  1  0  0  0  0
 19 23  1  0  0  0  0
 18 19  2  0  0  0  0
 22 23  2  0  0  0  0
 17 18  1  0  0  0  0
 18 24  1  0  0  0  0
 22 24  1  0  0  0  0
 15 17  1  0  0  0  0
 15 16  2  0  0  0  0
 14 15  1  0  0  0  0
  7 14  1  0  0  0  0
  8 14  2  3  0  0  0
 12 13  2  0  0  0  0
 11 12  1  0  0  0  0
  8 13  1  0  0  0  0
  6  7  1  0  0  0  0
 10 11  1  0  0  0  0
  8  9  1  0  0  0  0
  5  6  2  3  0  0  0
  2  5  1  0  0  0  0
  2  3  1  0  0  0  0
  1  2  1  0  0  0  0
  2  4  1  0  0  0  0
  7 25  1  0  0  0  0
 11 26  1  0  0  0  0
 12 27  1  0  0  0  0
 13 28  1  0  0  0  0
 17 29  1  0  0  0  0
 11 30  1  0  0  0  0
M  CHG  1  11   1
M  END
> <Chemgauss4>
-8.092772

$$$$
