
 OpenBabel07202414153D

 47 50  0  0  1  0  0  0  0  0999 V2000
    0.9491   -0.3600   -0.0294 C   0  0  0  0  0  0  0  0  0  0  0  0
    2.4505   -0.0904    0.0500 C   0  0  2  0  0  0  0  0  0  0  0  0
    3.0722   -0.7407    1.2896 C   0  0  0  0  0  0  0  0  0  0  0  0
    2.6641   -0.0379    2.5747 C   0  0  0  0  0  0  0  0  0  0  0  0
    3.0330    1.4461    2.5318 C   0  0  1  0  0  0  0  0  0  0  0  0
    2.5430    2.1488    1.2651 C   0  0  0  0  0  0  0  0  0  0  0  0
    2.7842    1.3692    0.0137 N   0  0  0  0  0  0  0  0  0  0  0  0
    2.3945    2.1879   -1.4327 S   0  0  0  0  0  0  0  0  0  0  0  0
    3.7160    3.3782   -1.5472 C   0  0  0  0  0  0  0  0  0  0  0  0
    2.5488    1.2581   -2.5316 O   0  0  0  0  0  0  0  0  0  0  0  0
    1.1528    2.8943   -1.2106 O   0  0  0  0  0  0  0  0  0  0  0  0
    2.5642    2.0762    3.7506 N   0  0  0  0  0  0  0  0  0  0  0  0
    3.5780    2.2500    4.6722 C   0  0  0  0  0  0  0  0  0  0  0  0
    3.3704    2.6542    5.8024 O   0  0  0  0  0  0  0  0  0  0  0  0
    4.7673    1.9529    4.0540 N   0  0  0  0  0  0  0  0  0  0  0  0
    6.0333    2.1709    4.6309 C   0  0  0  0  0  0  0  0  0  0  0  0
    6.9435    3.0152    3.9939 C   0  0  0  0  0  0  0  0  0  0  0  0
    8.1548    3.3484    4.4909 N   0  0  0  0  0  0  0  0  0  0  0  0
    8.4945    2.7785    5.6676 C   0  0  0  0  0  0  0  0  0  0  0  0
    7.6986    1.8703    6.3691 C   0  0  0  0  0  0  0  0  0  0  0  0
    8.1523    1.2647    7.5582 C   0  0  0  0  0  0  0  0  0  0  0  0
    7.3666    0.3202    8.2160 C   0  0  0  0  0  0  0  0  0  0  0  0
    6.1264   -0.0261    7.6991 C   0  0  0  0  0  0  0  0  0  0  0  0
    5.6613    0.5787    6.5309 C   0  0  0  0  0  0  0  0  0  0  0  0
    6.4284    1.5527    5.8431 C   0  0  0  0  0  0  0  0  0  0  0  0
    4.5488    1.6435    2.7346 C   0  0  0  0  0  0  0  0  0  0  0  0
    5.4038    1.4578    1.8803 O   0  0  0  0  0  0  0  0  0  0  0  0
    0.7272   -1.3976    0.2454 H   0  0  0  0  0  0  0  0  0  0  0  0
    0.5813   -0.2164   -1.0506 H   0  0  0  0  0  0  0  0  0  0  0  0
    0.3695    0.2949    0.6271 H   0  0  0  0  0  0  0  0  0  0  0  0
    2.9320   -0.5713   -0.8108 H   0  0  0  0  0  0  0  0  0  0  0  0
    4.1647   -0.7282    1.1971 H   0  0  0  0  0  0  0  0  0  0  0  0
    2.7860   -1.7977    1.3466 H   0  0  0  0  0  0  0  0  0  0  0  0
    3.1384   -0.5400    3.4274 H   0  0  0  0  0  0  0  0  0  0  0  0
    1.5810   -0.1432    2.7253 H   0  0  0  0  0  0  0  0  0  0  0  0
    3.0552    3.1142    1.1824 H   0  0  0  0  0  0  0  0  0  0  0  0
    1.4709    2.3601    1.3569 H   0  0  0  0  0  0  0  0  0  0  0  0
    4.6709    2.8612   -1.4368 H   0  0  0  0  0  0  0  0  0  0  0  0
    3.5883    4.1420   -0.7793 H   0  0  0  0  0  0  0  0  0  0  0  0
    3.6615    3.8426   -2.5345 H   0  0  0  0  0  0  0  0  0  0  0  0
    1.5985    2.1755    4.0424 H   0  0  0  0  0  0  0  0  0  0  0  0
    6.7024    3.5049    3.0528 H   0  0  0  0  0  0  0  0  0  0  0  0
    9.4766    3.0681    6.0344 H   0  0  0  0  0  0  0  0  0  0  0  0
    9.1272    1.5183    7.9701 H   0  0  0  0  0  0  0  0  0  0  0  0
    7.7293   -0.1514    9.1275 H   0  0  0  0  0  0  0  0  0  0  0  0
    5.5156   -0.7761    8.2009 H   0  0  0  0  0  0  0  0  0  0  0  0
    4.6910    0.2614    6.1534 H   0  0  0  0  0  0  0  0  0  0  0  0
  1  2  1  0  0  0  0
  1 28  1  0  0  0  0
  1 29  1  0  0  0  0
  1 30  1  0  0  0  0
  2  3  1  0  0  0  0
  2  7  1  0  0  0  0
  2 31  1  6  0  0  0
  3  4  1  0  0  0  0
  3 32  1  0  0  0  0
  3 33  1  0  0  0  0
  4  5  1  0  0  0  0
  4 34  1  0  0  0  0
  4 35  1  0  0  0  0
  5  6  1  0  0  0  0
  5 12  1  0  0  0  0
  5 26  1  1  0  0  0
  6  7  1  0  0  0  0
  6 36  1  0  0  0  0
  6 37  1  0  0  0  0
  7  8  1  0  0  0  0
  8  9  1  0  0  0  0
  8 10  2  0  0  0  0
  8 11  2  0  0  0  0
  9 38  1  0  0  0  0
  9 39  1  0  0  0  0
  9 40  1  0  0  0  0
 12 13  1  0  0  0  0
 12 41  1  0  0  0  0
 13 14  2  0  0  0  0
 13 15  1  0  0  0  0
 15 16  1  0  0  0  0
 15 26  1  0  0  0  0
 16 17  1  0  0  0  0
 16 25  2  0  0  0  0
 17 18  2  0  0  0  0
 17 42  1  0  0  0  0
 18 19  1  0  0  0  0
 19 20  2  0  0  0  0
 19 43  1  0  0  0  0
 20 21  1  0  0  0  0
 20 25  1  0  0  0  0
 21 22  2  0  0  0  0
 21 44  1  0  0  0  0
 22 23  1  0  0  0  0
 22 45  1  0  0  0  0
 23 24  2  0  0  0  0
 23 46  1  0  0  0  0
 24 25  1  0  0  0  0
 24 47  1  0  0  0  0
 26 27  2  0  0  0  0
M  END
$$$$
