FMN(B-177)
  -OEChem-07012409273D

 51 53  0     1  0  0  0  0  0999 V2000
    0.8672   53.1025   23.7066 P   0  0  0  0  0  0  0  0  0  0  0  0
   -0.2219   61.7726   24.7518 N   0  0  0  0  0  0  0  0  0  0  0  0
   -0.4640   62.4552   25.9214 C   0  0  0  0  0  0  0  0  0  0  0  0
    0.4163   62.6374   26.7186 O   0  0  0  0  0  0  0  0  0  0  0  0
   -1.7384   62.9466   26.2338 N   0  0  0  0  0  0  0  0  0  0  0  0
   -2.8255   62.7235   25.4384 C   0  0  0  0  0  0  0  0  0  0  0  0
   -3.9282   63.1158   25.7246 O   0  0  0  0  0  0  0  0  0  0  0  0
   -3.6131   61.8124   23.3639 N   0  0  0  0  0  0  0  0  0  0  0  0
   -4.4113   61.0467   21.2036 C   0  0  0  0  0  0  0  0  0  0  0  0
   -4.1944   60.3703   19.9837 C   0  0  0  0  0  0  0  0  0  0  0  0
   -2.8947   59.7630   19.7272 C   0  0  0  0  0  0  0  0  0  0  0  0
   -1.9585   59.7658   20.7331 C   0  0  0  0  0  0  0  0  0  0  0  0
    0.2353   60.0726   22.6223 C   0  0  0  0  0  0  0  0  0  0  0  0
   -1.2358   61.5172   23.9517 C   0  0  0  0  0  0  0  0  0  0  0  0
   -1.0720   60.6941   22.8736 N   0  3  0  0  0  0  0  0  0  0  0  0
    1.5029   52.4620   22.5931 O   0  5  0  0  0  0  0  0  0  0  0  0
    0.3059   58.6233   23.1061 C   0  0  2  0  0  0  0  0  0  0  0  0
    0.1413   58.4649   24.5217 O   0  0  0  0  0  0  0  0  0  0  0  0
   -0.5833   53.1651   23.6229 O   0  5  0  0  0  0  0  0  0  0  0  0
    1.6424   58.0080   22.6740 C   0  0  2  0  0  0  0  0  0  0  0  0
    1.6654   57.8574   21.2408 O   0  0  0  0  0  0  0  0  0  0  0  0
    1.2563   52.3504   24.8607 O   0  0  0  0  0  0  0  0  0  0  0  0
    2.1179   56.7089   23.3797 C   0  0  2  0  0  0  0  0  0  0  0  0
    3.4887   56.4424   23.0483 O   0  0  0  0  0  0  0  0  0  0  0  0
   -2.5993   61.9752   24.1856 C   0  0  0  0  0  0  0  0  0  0  0  0
    1.1153   55.5618   23.1952 C   0  0  0  0  0  0  0  0  0  0  0  0
    1.4454   54.4326   24.0104 O   0  0  0  0  0  0  0  0  0  0  0  0
   -3.3915   61.1098   22.2063 C   0  0  0  0  0  0  0  0  0  0  0  0
   -5.3013   60.2570   18.9611 C   0  0  0  0  0  0  0  0  0  0  0  0
   -2.5379   59.1241   18.3953 C   0  0  0  0  0  0  0  0  0  0  0  0
   -2.1394   60.4692   21.9489 C   0  0  0  0  0  0  0  0  0  0  0  0
   -1.8568   63.4809   27.0709 H   0  0  0  0  0  0  0  0  0  0  0  0
   -5.3635   61.5246   21.3837 H   0  0  0  0  0  0  0  0  0  0  0  0
   -1.0452   59.2072   20.5910 H   0  0  0  0  0  0  0  0  0  0  0  0
    0.4314   60.0916   21.5398 H   0  0  0  0  0  0  0  0  0  0  0  0
    0.1119   55.9181   23.4699 H   0  0  0  0  0  0  0  0  0  0  0  0
    1.0082   60.6559   23.1449 H   0  0  0  0  0  0  0  0  0  0  0  0
    1.1181   55.2525   22.1398 H   0  0  0  0  0  0  0  0  0  0  0  0
   -0.4934   58.0658   22.5952 H   0  0  0  0  0  0  0  0  0  0  0  0
   -0.6450   58.9180   24.8021 H   0  0  0  0  0  0  0  0  0  0  0  0
    2.4032   58.7635   22.9184 H   0  0  0  0  0  0  0  0  0  0  0  0
    2.3980   58.3442   20.8826 H   0  0  0  0  0  0  0  0  0  0  0  0
    2.0980   56.9420   24.4549 H   0  0  0  0  0  0  0  0  0  0  0  0
    3.8562   57.1907   22.5927 H   0  0  0  0  0  0  0  0  0  0  0  0
   -6.2028   60.7605   19.3391 H   0  0  0  0  0  0  0  0  0  0  0  0
   -2.6121   59.8759   17.5959 H   0  0  0  0  0  0  0  0  0  0  0  0
   -4.9824   60.7323   18.0215 H   0  0  0  0  0  0  0  0  0  0  0  0
   -1.5098   58.7358   18.4393 H   0  0  0  0  0  0  0  0  0  0  0  0
   -5.5242   59.1951   18.7778 H   0  0  0  0  0  0  0  0  0  0  0  0
   -3.2331   58.2973   18.1876 H   0  0  0  0  0  0  0  0  0  0  0  0
    0.7036   61.4771   24.5147 H   0  0  0  0  0  0  0  0  0  0  0  0
  1 16  1  0  0  0  0
  1 19  1  0  0  0  0
  1 22  2  0  0  0  0
  1 27  1  0  0  0  0
  2  3  1  0  0  0  0
  2 14  1  0  0  0  0
  3  4  2  0  0  0  0
  3  5  1  0  0  0  0
  5  6  1  0  0  0  0
  5 32  1  0  0  0  0
  6  7  2  0  0  0  0
  6 25  1  0  0  0  0
  8 25  2  0  0  0  0
  8 28  1  0  0  0  0
  9 10  2  0  0  0  0
  9 28  1  0  0  0  0
  9 33  1  0  0  0  0
 10 11  1  0  0  0  0
 10 29  1  0  0  0  0
 11 12  2  0  0  0  0
 11 30  1  0  0  0  0
 12 31  1  0  0  0  0
 12 34  1  0  0  0  0
 13 15  1  0  0  0  0
 13 17  1  0  0  0  0
 13 35  1  0  0  0  0
 13 37  1  0  0  0  0
 14 15  2  0  0  0  0
 14 25  1  0  0  0  0
 15 31  1  0  0  0  0
 17 18  1  0  0  0  0
 17 20  1  0  0  0  0
 17 39  1  0  0  0  0
 18 40  1  0  0  0  0
 20 21  1  0  0  0  0
 20 23  1  0  0  0  0
 20 41  1  0  0  0  0
 21 42  1  0  0  0  0
 23 24  1  0  0  0  0
 23 26  1  0  0  0  0
 23 43  1  0  0  0  0
 24 44  1  0  0  0  0
 26 27  1  0  0  0  0
 26 36  1  0  0  0  0
 26 38  1  0  0  0  0
 28 31  2  0  0  0  0
 29 45  1  0  0  0  0
 29 47  1  0  0  0  0
 29 49  1  0  0  0  0
 30 46  1  0  0  0  0
 30 48  1  0  0  0  0
 30 50  1  0  0  0  0
  2 51  1  0  0  0  0
M  CHG  3  15   1  16  -1  19  -1
M  END
> <Chemgauss4>
-27.355122

$$$$
