stable:False satoms:21 tatoms:24 sratio:0.875
  -OEChem-07092417303D

 24 23  0     1  0  0  0  0  0999 V2000
    8.1916   -1.9458   23.0574 C   0  0  1  0  0  0  0  0  0  0  0  0
    6.6428   -2.3762   21.6500 H   0  0  0  0  0  0  0  0  0  0  0  0
    8.1289   -1.7850   20.8706 H   0  0  0  0  0  0  0  0  0  0  0  0
    7.4419   -1.6288   21.6972 C   0  0  0  0  0  0  0  0  0  0  0  0
   11.4584    0.6971   22.5159 H   0  0  0  0  0  0  0  0  0  0  0  0
    9.7952   -2.9755   22.0071 H   0  0  0  0  0  0  0  0  0  0  0  0
    9.9717    0.5587   23.4581 H   0  0  0  0  0  0  0  0  0  0  0  0
    6.0097   -0.3655   20.7039 H   0  0  0  0  0  0  0  0  0  0  0  0
    8.5779   -0.3512   24.3755 H   0  0  0  0  0  0  0  0  0  0  0  0
   10.5277    0.1270   22.6118 C   0  0  0  0  0  0  0  0  0  0  0  0
    6.9025   -0.8895   24.1472 H   0  0  0  0  0  0  0  0  0  0  0  0
    8.7189    0.3746   21.2926 H   0  0  0  0  0  0  0  0  0  0  0  0
    7.5585    0.8136   21.1193 O   0  0  0  0  0  0  0  0  0  0  0  0
    9.8383    0.2146   21.4267 O   0  0  0  0  0  0  0  0  0  0  0  0
    6.2309    0.0601   22.4072 H   0  0  0  0  0  0  0  0  0  0  0  0
   11.5734   -1.6570   22.1213 H   0  0  0  0  0  0  0  0  0  0  0  0
    6.7697   -0.2392   21.4925 C   0  0  0  0  0  0  0  0  0  0  0  0
    7.8845   -0.8845   23.9330 N   0  0  0  0  0  0  0  0  0  0  0  0
   10.8842   -1.3571   22.9019 C   0  0  0  0  0  0  0  0  0  0  0  0
    7.5536   -3.0311   23.6618 O   0  0  0  0  0  0  0  0  0  0  0  0
    7.9285   -3.8506   23.3101 H   0  0  0  0  0  0  0  0  0  0  0  0
    9.8973   -3.0327   23.7620 H   0  0  0  0  0  0  0  0  0  0  0  0
   11.3815   -1.3889   23.8639 H   0  0  0  0  0  0  0  0  0  0  0  0
    9.7165   -2.3772   22.9098 C   0  0  0  0  0  0  0  0  0  0  0  0
  8 17  1  0  0  0  0
  3  4  1  0  0  0  0
 13 17  1  0  0  0  0
 12 14  1  0  0  0  0
 10 14  1  0  0  0  0
  4 17  1  0  0  0  0
 15 17  1  0  0  0  0
  2  4  1  0  0  0  0
  1  4  1  0  0  0  0
  6 24  1  0  0  0  0
 16 19  1  0  0  0  0
  5 10  1  0  0  0  0
 10 19  1  0  0  0  0
  7 10  1  0  0  0  0
 19 24  1  0  0  0  0
 19 23  1  0  0  0  0
  1 24  1  0  0  0  0
 22 24  1  0  0  0  0
  1 20  1  0  0  0  0
  1 18  1  0  0  0  0
 20 21  1  0  0  0  0
 11 18  1  0  0  0  0
  9 18  1  0  0  0  0
M  END
> <Shapegauss>
-89.063461

$$$$
