MODEL 1
REMARK VINA RESULT:    -4.421      0.000      0.000
REMARK INTER + INTRA:          -6.710
REMARK INTER:                  -6.230
REMARK INTRA:                  -0.480
REMARK UNBOUND:                -0.480
REMARK  9 active torsions:
REMARK  status: ('A' for Active; 'I' for Inactive)
REMARK    1  A    between atoms: C_1  and  C_2 
REMARK    2  A    between atoms: C_1  and  C_15 
REMARK    3  A    between atoms: C_1  and  O_13 
REMARK    4  A    between atoms: C_1  and  N_11 
REMARK    5  A    between atoms: C_2  and  C_10 
REMARK    6  A    between atoms: C_4  and  O_9 
REMARK    7  A    between atoms: C_4  and  C_12 
REMARK    8  A    between atoms: O_7  and  C_10 
REMARK    9  A    between atoms: C_12  and  C_15 
ROOT
HETATM    1  C   UNL     1       9.203  14.400   3.013  1.00  0.00     0.127 C 
ENDROOT
BRANCH   1   2
HETATM    2  C   UNL     1       9.483  15.185   4.362  1.00  0.00     0.086 C 
BRANCH   2   3
HETATM    3  C   UNL     1      10.949  15.500   4.782  1.00  0.00     0.169 C 
BRANCH   3   4
HETATM    4  O   UNL     1      11.872  14.493   4.721  1.00  0.00    -0.401 OA
ATOM      5  HO  UNL     1      11.929  13.889   5.453  1.00  0.00     0.209 HD
ENDBRANCH   3   4
ENDBRANCH   2   3
ENDBRANCH   1   2
BRANCH   1   6
HETATM    6  C   UNL     1       7.670  14.237   2.626  1.00  0.00     0.062 C 
BRANCH   6   7
HETATM    7  C   UNL     1       7.034  12.872   2.254  1.00  0.00     0.031 C 
BRANCH   7   8
HETATM    8  C   UNL     1       6.605  12.670   0.775  1.00  0.00     0.164 C 
BRANCH   8   9
HETATM    9  O   UNL     1       7.032  11.441   0.332  1.00  0.00    -0.401 OA
HETATM   10  H   UNL     1       7.250  11.135  -0.743  1.00  0.00     0.209 HD
ENDBRANCH   8   9
ENDBRANCH   7   8
ENDBRANCH   6   7
ENDBRANCH   1   6
BRANCH   1  11
HETATM   11  O   UNL     1       9.693  13.100   3.158  1.00  0.00    -0.371 OA
HETATM   12  H   UNL     1      10.619  13.081   2.879  1.00  0.00     0.212 HD
ENDBRANCH   1  11
BRANCH   1  13
HETATM   13  N   UNL     1      10.076  14.949   2.050  1.00  0.00    -0.401 N 
HETATM   14  H   UNL     1      10.880  14.482   1.743  1.00  0.00     0.152 HD
HETATM   15  H   UNL     1       9.839  15.913   1.882  1.00  0.00     0.152 HD
ENDBRANCH   1  13
TORSDOF 9
ENDMDL
MODEL 2
REMARK VINA RESULT:    -4.213     32.651     34.009
REMARK INTER + INTRA:          -6.417
REMARK INTER:                  -5.844
REMARK INTRA:                  -0.573
REMARK UNBOUND:                -0.480
REMARK  9 active torsions:
REMARK  status: ('A' for Active; 'I' for Inactive)
REMARK    1  A    between atoms: C_1  and  C_2 
REMARK    2  A    between atoms: C_1  and  C_15 
REMARK    3  A    between atoms: C_1  and  O_13 
REMARK    4  A    between atoms: C_1  and  N_11 
REMARK    5  A    between atoms: C_2  and  C_10 
REMARK    6  A    between atoms: C_4  and  O_9 
REMARK    7  A    between atoms: C_4  and  C_12 
REMARK    8  A    between atoms: O_7  and  C_10 
REMARK    9  A    between atoms: C_12  and  C_15 
ROOT
HETATM    1  C   UNL     1       2.448 -19.088   8.731  1.00  0.00     0.127 C 
ENDROOT
BRANCH   1   2
HETATM    2  C   UNL     1       2.628 -20.630   9.048  1.00  0.00     0.086 C 
BRANCH   2   3
HETATM    3  C   UNL     1       3.272 -21.567   7.984  1.00  0.00     0.169 C 
BRANCH   3   4
HETATM    4  O   UNL     1       4.260 -21.059   7.186  1.00  0.00    -0.401 OA
ATOM      5  HO  UNL     1       4.906 -21.658   6.831  1.00  0.00     0.209 HD
ENDBRANCH   3   4
ENDBRANCH   2   3
ENDBRANCH   1   2
BRANCH   1   6
HETATM    6  C   UNL     1       1.206 -18.387   9.435  1.00  0.00     0.062 C 
BRANCH   6   7
HETATM    7  C   UNL     1       0.192 -17.500   8.669  1.00  0.00     0.031 C 
BRANCH   7   8
HETATM    8  C   UNL     1       0.143 -15.993   9.043  1.00  0.00     0.164 C 
BRANCH   8   9
HETATM    9  O   UNL     1       1.404 -15.556   9.372  1.00  0.00    -0.401 OA
HETATM   10  H   UNL     1       2.265 -15.339   8.660  1.00  0.00     0.209 HD
ENDBRANCH   8   9
ENDBRANCH   7   8
ENDBRANCH   6   7
ENDBRANCH   1   6
BRANCH   1  11
HETATM   11  O   UNL     1       2.227 -18.949   7.359  1.00  0.00    -0.371 OA
HETATM   12  H   UNL     1       1.293 -19.124   7.173  1.00  0.00     0.212 HD
ENDBRANCH   1  11
BRANCH   1  13
HETATM   13  N   UNL     1       3.721 -18.501   8.896  1.00  0.00    -0.401 N 
HETATM   14  H   UNL     1       4.543 -19.033   8.935  1.00  0.00     0.152 HD
HETATM   15  H   UNL     1       3.622 -17.528   9.129  1.00  0.00     0.152 HD
ENDBRANCH   1  13
TORSDOF 9
ENDMDL
MODEL 3
REMARK VINA RESULT:    -4.146     32.453     33.744
REMARK INTER + INTRA:          -6.323
REMARK INTER:                  -5.662
REMARK INTRA:                  -0.661
REMARK UNBOUND:                -0.480
REMARK  9 active torsions:
REMARK  status: ('A' for Active; 'I' for Inactive)
REMARK    1  A    between atoms: C_1  and  C_2 
REMARK    2  A    between atoms: C_1  and  C_15 
REMARK    3  A    between atoms: C_1  and  O_13 
REMARK    4  A    between atoms: C_1  and  N_11 
REMARK    5  A    between atoms: C_2  and  C_10 
REMARK    6  A    between atoms: C_4  and  O_9 
REMARK    7  A    between atoms: C_4  and  C_12 
REMARK    8  A    between atoms: O_7  and  C_10 
REMARK    9  A    between atoms: C_12  and  C_15 
ROOT
HETATM    1  C   UNL     1       1.166 -18.104   9.200  1.00  0.00     0.127 C 
ENDROOT
BRANCH   1   2
HETATM    2  C   UNL     1      -0.045 -17.194   8.733  1.00  0.00     0.086 C 
BRANCH   2   3
HETATM    3  C   UNL     1      -0.017 -15.664   9.020  1.00  0.00     0.169 C 
BRANCH   3   4
HETATM    4  O   UNL     1       1.170 -15.096   9.393  1.00  0.00    -0.401 OA
ATOM      5  HO  UNL     1       1.518 -14.389   8.862  1.00  0.00     0.209 HD
ENDBRANCH   3   4
ENDBRANCH   2   3
ENDBRANCH   1   2
BRANCH   1   6
HETATM    6  C   UNL     1       0.944 -19.670   9.037  1.00  0.00     0.062 C 
BRANCH   6   7
HETATM    7  C   UNL     1       2.046 -20.715   9.352  1.00  0.00     0.031 C 
BRANCH   7   8
HETATM    8  C   UNL     1       3.037 -21.067   8.208  1.00  0.00     0.164 C 
BRANCH   8   9
HETATM    9  O   UNL     1       3.000 -20.088   7.245  1.00  0.00    -0.401 OA
HETATM   10  H   UNL     1       2.954 -20.234   6.117  1.00  0.00     0.209 HD
ENDBRANCH   8   9
ENDBRANCH   7   8
ENDBRANCH   6   7
ENDBRANCH   1   6
BRANCH   1  11
HETATM   11  O   UNL     1       1.365 -17.894  10.566  1.00  0.00    -0.371 OA
HETATM   12  H   UNL     1       1.158 -18.711  11.042  1.00  0.00     0.212 HD
ENDBRANCH   1  11
BRANCH   1  13
HETATM   13  N   UNL     1       2.326 -17.536   8.632  1.00  0.00    -0.401 N 
HETATM   14  H   UNL     1       2.653 -17.788   7.744  1.00  0.00     0.152 HD
HETATM   15  H   UNL     1       2.820 -17.000   9.325  1.00  0.00     0.152 HD
ENDBRANCH   1  13
TORSDOF 9
ENDMDL
MODEL 4
REMARK VINA RESULT:    -4.060      2.568      4.449
REMARK INTER + INTRA:          -6.202
REMARK INTER:                  -5.611
REMARK INTRA:                  -0.590
REMARK UNBOUND:                -0.480
REMARK  9 active torsions:
REMARK  status: ('A' for Active; 'I' for Inactive)
REMARK    1  A    between atoms: C_1  and  C_2 
REMARK    2  A    between atoms: C_1  and  C_15 
REMARK    3  A    between atoms: C_1  and  O_13 
REMARK    4  A    between atoms: C_1  and  N_11 
REMARK    5  A    between atoms: C_2  and  C_10 
REMARK    6  A    between atoms: C_4  and  O_9 
REMARK    7  A    between atoms: C_4  and  C_12 
REMARK    8  A    between atoms: O_7  and  C_10 
REMARK    9  A    between atoms: C_12  and  C_15 
ROOT
HETATM    1  C   UNL     1       8.834  15.044   1.939  1.00  0.00     0.127 C 
ENDROOT
BRANCH   1   2
HETATM    2  C   UNL     1       8.221  16.486   1.701  1.00  0.00     0.086 C 
BRANCH   2   3
HETATM    3  C   UNL     1       9.064  17.572   0.968  1.00  0.00     0.169 C 
BRANCH   3   4
HETATM    4  O   UNL     1       9.439  17.338  -0.326  1.00  0.00    -0.401 OA
ATOM      5  HO  UNL     1       8.761  17.140  -0.963  1.00  0.00     0.209 HD
ENDBRANCH   3   4
ENDBRANCH   2   3
ENDBRANCH   1   2
BRANCH   1   6
HETATM    6  C   UNL     1       8.853  14.553   3.451  1.00  0.00     0.062 C 
BRANCH   6   7
HETATM    7  C   UNL     1       9.564  15.338   4.584  1.00  0.00     0.031 C 
BRANCH   7   8
HETATM    8  C   UNL     1      10.977  14.850   5.006  1.00  0.00     0.164 C 
BRANCH   8   9
HETATM    9  O   UNL     1      11.875  15.104   3.997  1.00  0.00    -0.401 OA
HETATM   10  H   UNL     1      12.522  16.032   3.870  1.00  0.00     0.209 HD
ENDBRANCH   8   9
ENDBRANCH   7   8
ENDBRANCH   6   7
ENDBRANCH   1   6
BRANCH   1  11
HETATM   11  O   UNL     1      10.172  15.070   1.538  1.00  0.00    -0.371 OA
HETATM   12  H   UNL     1      10.214  14.958   0.578  1.00  0.00     0.212 HD
ENDBRANCH   1  11
BRANCH   1  13
HETATM   13  N   UNL     1       8.243  14.201   0.975  1.00  0.00    -0.401 N 
HETATM   14  H   UNL     1       7.582  13.517   1.210  1.00  0.00     0.152 HD
HETATM   15  H   UNL     1       8.721  14.298   0.095  1.00  0.00     0.152 HD
ENDBRANCH   1  13
TORSDOF 9
ENDMDL
MODEL 5
REMARK VINA RESULT:    -3.944     34.186     35.234
REMARK INTER + INTRA:          -6.038
REMARK INTER:                  -5.154
REMARK INTRA:                  -0.884
REMARK UNBOUND:                -0.480
REMARK  9 active torsions:
REMARK  status: ('A' for Active; 'I' for Inactive)
REMARK    1  A    between atoms: C_1  and  C_2 
REMARK    2  A    between atoms: C_1  and  C_15 
REMARK    3  A    between atoms: C_1  and  O_13 
REMARK    4  A    between atoms: C_1  and  N_11 
REMARK    5  A    between atoms: C_2  and  C_10 
REMARK    6  A    between atoms: C_4  and  O_9 
REMARK    7  A    between atoms: C_4  and  C_12 
REMARK    8  A    between atoms: O_7  and  C_10 
REMARK    9  A    between atoms: C_12  and  C_15 
ROOT
HETATM    1  C   UNL     1      -1.991 -16.425  16.862  1.00  0.00     0.127 C 
ENDROOT
BRANCH   1   2
HETATM    2  C   UNL     1      -3.038 -16.094  18.006  1.00  0.00     0.086 C 
BRANCH   2   3
HETATM    3  C   UNL     1      -2.626 -16.259  19.499  1.00  0.00     0.169 C 
BRANCH   3   4
HETATM    4  O   UNL     1      -1.646 -17.162  19.806  1.00  0.00    -0.401 OA
ATOM      5  HO  UNL     1      -1.223 -17.627  19.093  1.00  0.00     0.209 HD
ENDBRANCH   3   4
ENDBRANCH   2   3
ENDBRANCH   1   2
BRANCH   1   6
HETATM    6  C   UNL     1      -2.433 -16.005  15.393  1.00  0.00     0.062 C 
BRANCH   6   7
HETATM    7  C   UNL     1      -1.892 -16.702  14.117  1.00  0.00     0.031 C 
BRANCH   7   8
HETATM    8  C   UNL     1      -0.382 -16.525  13.799  1.00  0.00     0.164 C 
BRANCH   8   9
HETATM    9  O   UNL     1       0.362 -17.345  14.612  1.00  0.00    -0.401 OA
HETATM   10  H   UNL     1       0.463 -18.476  14.542  1.00  0.00     0.209 HD
ENDBRANCH   8   9
ENDBRANCH   7   8
ENDBRANCH   6   7
ENDBRANCH   1   6
BRANCH   1  11
HETATM   11  O   UNL     1      -1.819 -17.810  16.818  1.00  0.00    -0.371 OA
HETATM   12  H   UNL     1      -1.337 -18.041  16.011  1.00  0.00     0.212 HD
ENDBRANCH   1  11
BRANCH   1  13
HETATM   13  N   UNL     1      -0.739 -15.976  17.331  1.00  0.00    -0.401 N 
HETATM   14  H   UNL     1      -0.018 -15.704  16.726  1.00  0.00     0.152 HD
HETATM   15  H   UNL     1      -0.663 -16.144  18.320  1.00  0.00     0.152 HD
ENDBRANCH   1  13
TORSDOF 9
ENDMDL
MODEL 6
REMARK VINA RESULT:    -3.917     32.980     34.242
REMARK INTER + INTRA:          -6.000
REMARK INTER:                  -5.519
REMARK INTRA:                  -0.480
REMARK UNBOUND:                -0.480
REMARK  9 active torsions:
REMARK  status: ('A' for Active; 'I' for Inactive)
REMARK    1  A    between atoms: C_1  and  C_2 
REMARK    2  A    between atoms: C_1  and  C_15 
REMARK    3  A    between atoms: C_1  and  O_13 
REMARK    4  A    between atoms: C_1  and  N_11 
REMARK    5  A    between atoms: C_2  and  C_10 
REMARK    6  A    between atoms: C_4  and  O_9 
REMARK    7  A    between atoms: C_4  and  C_12 
REMARK    8  A    between atoms: O_7  and  C_10 
REMARK    9  A    between atoms: C_12  and  C_15 
ROOT
HETATM    1  C   UNL     1       2.019 -18.311   8.320  1.00  0.00     0.127 C 
ENDROOT
BRANCH   1   2
HETATM    2  C   UNL     1       1.118 -17.993   9.584  1.00  0.00     0.086 C 
BRANCH   2   3
HETATM    3  C   UNL     1       0.455 -16.590   9.726  1.00  0.00     0.169 C 
BRANCH   3   4
HETATM    4  O   UNL     1       1.186 -15.489   9.374  1.00  0.00    -0.401 OA
ATOM      5  HO  UNL     1       2.134 -15.557   9.380  1.00  0.00     0.209 HD
ENDBRANCH   3   4
ENDBRANCH   2   3
ENDBRANCH   1   2
BRANCH   1   6
HETATM    6  C   UNL     1       2.579 -19.798   8.239  1.00  0.00     0.062 C 
BRANCH   6   7
HETATM    7  C   UNL     1       2.269 -20.875   9.311  1.00  0.00     0.031 C 
BRANCH   7   8
HETATM    8  C   UNL     1       0.882 -21.570   9.238  1.00  0.00     0.164 C 
BRANCH   8   9
HETATM    9  O   UNL     1       0.822 -22.583  10.164  1.00  0.00    -0.401 OA
HETATM   10  H   UNL     1       0.077 -23.443  10.195  1.00  0.00     0.209 HD
ENDBRANCH   8   9
ENDBRANCH   7   8
ENDBRANCH   6   7
ENDBRANCH   1   6
BRANCH   1  11
HETATM   11  O   UNL     1       3.148 -17.490   8.373  1.00  0.00    -0.371 OA
HETATM   12  H   UNL     1       3.103 -16.947   9.172  1.00  0.00     0.212 HD
ENDBRANCH   1  11
BRANCH   1  13
HETATM   13  N   UNL     1       1.324 -17.803   7.202  1.00  0.00    -0.401 N 
HETATM   14  H   UNL     1       1.160 -18.338   6.398  1.00  0.00     0.152 HD
HETATM   15  H   UNL     1       1.196 -16.810   7.300  1.00  0.00     0.152 HD
ENDBRANCH   1  13
TORSDOF 9
ENDMDL
MODEL 7
REMARK VINA RESULT:    -3.852      1.990      2.385
REMARK INTER + INTRA:          -5.908
REMARK INTER:                  -5.027
REMARK INTRA:                  -0.882
REMARK UNBOUND:                -0.480
REMARK  9 active torsions:
REMARK  status: ('A' for Active; 'I' for Inactive)
REMARK    1  A    between atoms: C_1  and  C_2 
REMARK    2  A    between atoms: C_1  and  C_15 
REMARK    3  A    between atoms: C_1  and  O_13 
REMARK    4  A    between atoms: C_1  and  N_11 
REMARK    5  A    between atoms: C_2  and  C_10 
REMARK    6  A    between atoms: C_4  and  O_9 
REMARK    7  A    between atoms: C_4  and  C_12 
REMARK    8  A    between atoms: O_7  and  C_10 
REMARK    9  A    between atoms: C_12  and  C_15 
ROOT
HETATM    1  C   UNL     1      10.026  14.775   3.961  1.00  0.00     0.127 C 
ENDROOT
BRANCH   1   2
HETATM    2  C   UNL     1       9.994  16.340   4.211  1.00  0.00     0.086 C 
BRANCH   2   3
HETATM    3  C   UNL     1       9.367  17.280   3.138  1.00  0.00     0.169 C 
BRANCH   3   4
HETATM    4  O   UNL     1       9.453  16.912   1.824  1.00  0.00    -0.401 OA
ATOM      5  HO  UNL     1       9.423  17.594   1.162  1.00  0.00     0.209 HD
ENDBRANCH   3   4
ENDBRANCH   2   3
ENDBRANCH   1   2
BRANCH   1   6
HETATM    6  C   UNL     1       8.614  14.046   4.020  1.00  0.00     0.062 C 
BRANCH   6   7
HETATM    7  C   UNL     1       8.041  13.219   2.840  1.00  0.00     0.031 C 
BRANCH   7   8
HETATM    8  C   UNL     1       7.474  14.010   1.629  1.00  0.00     0.164 C 
BRANCH   8   9
HETATM    9  O   UNL     1       8.487  14.297   0.747  1.00  0.00    -0.401 OA
HETATM   10  H   UNL     1       8.385  14.742  -0.296  1.00  0.00     0.209 HD
ENDBRANCH   8   9
ENDBRANCH   7   8
ENDBRANCH   6   7
ENDBRANCH   1   6
BRANCH   1  11
HETATM   11  O   UNL     1      10.791  14.190   4.972  1.00  0.00    -0.371 OA
HETATM   12  H   UNL     1      11.683  14.566   4.949  1.00  0.00     0.212 HD
ENDBRANCH   1  11
BRANCH   1  13
HETATM   13  N   UNL     1      10.828  14.576   2.817  1.00  0.00    -0.401 N 
HETATM   14  H   UNL     1      10.812  13.742   2.304  1.00  0.00     0.152 HD
HETATM   15  H   UNL     1      11.501  15.319   2.736  1.00  0.00     0.152 HD
ENDBRANCH   1  13
TORSDOF 9
ENDMDL
MODEL 8
REMARK VINA RESULT:    -3.827     21.130     21.460
REMARK INTER + INTRA:          -5.874
REMARK INTER:                  -5.586
REMARK INTRA:                  -0.288
REMARK UNBOUND:                -0.480
REMARK  9 active torsions:
REMARK  status: ('A' for Active; 'I' for Inactive)
REMARK    1  A    between atoms: C_1  and  C_2 
REMARK    2  A    between atoms: C_1  and  C_15 
REMARK    3  A    between atoms: C_1  and  O_13 
REMARK    4  A    between atoms: C_1  and  N_11 
REMARK    5  A    between atoms: C_2  and  C_10 
REMARK    6  A    between atoms: C_4  and  O_9 
REMARK    7  A    between atoms: C_4  and  C_12 
REMARK    8  A    between atoms: O_7  and  C_10 
REMARK    9  A    between atoms: C_12  and  C_15 
ROOT
HETATM    1  C   UNL     1       6.059   0.175  18.730  1.00  0.00     0.127 C 
ENDROOT
BRANCH   1   2
HETATM    2  C   UNL     1       6.429  -0.330  20.187  1.00  0.00     0.086 C 
BRANCH   2   3
HETATM    3  C   UNL     1       7.702   0.220  20.894  1.00  0.00     0.169 C 
BRANCH   3   4
HETATM    4  O   UNL     1       8.925  -0.107  20.376  1.00  0.00    -0.401 OA
ATOM      5  HO  UNL     1       9.689   0.358  20.696  1.00  0.00     0.209 HD
ENDBRANCH   3   4
ENDBRANCH   2   3
ENDBRANCH   1   2
BRANCH   1   6
HETATM    6  C   UNL     1       4.896   1.257  18.660  1.00  0.00     0.062 C 
BRANCH   6   7
HETATM    7  C   UNL     1       4.324   1.964  19.916  1.00  0.00     0.031 C 
BRANCH   7   8
HETATM    8  C   UNL     1       2.911   2.598  19.792  1.00  0.00     0.164 C 
BRANCH   8   9
HETATM    9  O   UNL     1       2.823   3.310  18.621  1.00  0.00    -0.401 OA
HETATM   10  H   UNL     1       3.496   3.217  17.707  1.00  0.00     0.209 HD
ENDBRANCH   8   9
ENDBRANCH   7   8
ENDBRANCH   6   7
ENDBRANCH   1   6
BRANCH   1  11
HETATM   11  O   UNL     1       5.596  -0.919  17.996  1.00  0.00    -0.371 OA
HETATM   12  H   UNL     1       5.376  -1.637  18.607  1.00  0.00     0.212 HD
ENDBRANCH   1  11
BRANCH   1  13
HETATM   13  N   UNL     1       7.282   0.474  18.095  1.00  0.00    -0.401 N 
HETATM   14  H   UNL     1       7.396   0.416  17.123  1.00  0.00     0.152 HD
HETATM   15  H   UNL     1       8.010   0.573  18.781  1.00  0.00     0.152 HD
ENDBRANCH   1  13
TORSDOF 9
ENDMDL
MODEL 9
REMARK VINA RESULT:    -3.698      3.531      4.229
REMARK INTER + INTRA:          -5.691
REMARK INTER:                  -5.241
REMARK INTRA:                  -0.450
REMARK UNBOUND:                -0.480
REMARK  9 active torsions:
REMARK  status: ('A' for Active; 'I' for Inactive)
REMARK    1  A    between atoms: C_1  and  C_2 
REMARK    2  A    between atoms: C_1  and  C_15 
REMARK    3  A    between atoms: C_1  and  O_13 
REMARK    4  A    between atoms: C_1  and  N_11 
REMARK    5  A    between atoms: C_2  and  C_10 
REMARK    6  A    between atoms: C_4  and  O_9 
REMARK    7  A    between atoms: C_4  and  C_12 
REMARK    8  A    between atoms: O_7  and  C_10 
REMARK    9  A    between atoms: C_12  and  C_15 
ROOT
HETATM    1  C   UNL     1       7.179  11.526   2.966  1.00  0.00     0.127 C 
ENDROOT
BRANCH   1   2
HETATM    2  C   UNL     1       7.205  12.907   3.744  1.00  0.00     0.086 C 
BRANCH   2   3
HETATM    3  C   UNL     1       8.379  13.904   3.510  1.00  0.00     0.169 C 
BRANCH   3   4
HETATM    4  O   UNL     1       9.584  13.402   3.102  1.00  0.00    -0.401 OA
ATOM      5  HO  UNL     1       9.589  12.743   2.417  1.00  0.00     0.209 HD
ENDBRANCH   3   4
ENDBRANCH   2   3
ENDBRANCH   1   2
BRANCH   1   6
HETATM    6  C   UNL     1       6.095  10.479   3.473  1.00  0.00     0.062 C 
BRANCH   6   7
HETATM    7  C   UNL     1       6.068   9.927   4.922  1.00  0.00     0.031 C 
BRANCH   7   8
HETATM    8  C   UNL     1       5.494   8.498   5.126  1.00  0.00     0.164 C 
BRANCH   8   9
HETATM    9  O   UNL     1       6.524   7.606   5.305  1.00  0.00    -0.401 OA
HETATM   10  H   UNL     1       7.266   7.246   4.520  1.00  0.00     0.209 HD
ENDBRANCH   8   9
ENDBRANCH   7   8
ENDBRANCH   6   7
ENDBRANCH   1   6
BRANCH   1  11
HETATM   11  O   UNL     1       8.415  10.902   3.150  1.00  0.00    -0.371 OA
HETATM   12  H   UNL     1       8.283  10.085   3.651  1.00  0.00     0.212 HD
ENDBRANCH   1  11
BRANCH   1  13
HETATM   13  N   UNL     1       7.200  11.847   1.593  1.00  0.00    -0.401 N 
HETATM   14  H   UNL     1       7.129  11.165   0.893  1.00  0.00     0.152 HD
HETATM   15  H   UNL     1       7.463  12.810   1.469  1.00  0.00     0.152 HD
ENDBRANCH   1  13
TORSDOF 9
ENDMDL
