stable:False satoms:19 tatoms:24 sratio:0.7916666666666666
  -OEChem-07092417333D

 24 23  0     0  0  0  0  0  0999 V2000
    7.5179   -4.6403   24.1967 H   0  0  0  0  0  0  0  0  0  0  0  0
    6.7918   -3.0973   24.6311 H   0  0  0  0  0  0  0  0  0  0  0  0
    9.6352   -2.0773   24.7958 H   0  0  0  0  0  0  0  0  0  0  0  0
    8.3138   -3.6111   25.4108 H   0  0  0  0  0  0  0  0  0  0  0  0
    7.7350   -3.6227   24.4814 C   0  0  0  0  0  0  0  0  0  0  0  0
    7.5849   -1.3511   21.2702 N   0  0  0  0  0  0  0  0  0  0  0  0
    9.1937   -0.5245   20.3186 C   0  0  0  0  0  0  0  0  0  0  0  0
   10.6556    0.8679   23.6465 C   0  0  0  0  0  0  0  0  0  0  0  0
    7.3006   -1.1620   22.2043 H   0  0  0  0  0  0  0  0  0  0  0  0
    8.4483   -3.0264   23.3965 O   0  0  0  0  0  0  0  0  0  0  0  0
   10.3101   -2.2682   23.1484 H   0  0  0  0  0  0  0  0  0  0  0  0
   11.0537    0.3439   24.5160 H   0  0  0  0  0  0  0  0  0  0  0  0
   11.4928    1.1583   23.0261 H   0  0  0  0  0  0  0  0  0  0  0  0
    8.9185   -1.5210   21.1317 N   0  0  0  0  0  0  0  0  0  0  0  0
    9.3919   -2.0285   23.7200 C   0  0  0  0  0  0  0  0  0  0  0  0
    9.8049    0.0618   22.8341 O   0  0  0  0  0  0  0  0  0  0  0  0
    8.0804   -0.4289   19.3751 N   0  0  0  0  0  0  0  0  0  0  0  0
    7.9853   -0.1170   18.4074 H   0  0  0  0  0  0  0  0  0  0  0  0
    7.0171   -0.7476   20.1099 C   0  0  0  0  0  0  0  0  0  0  0  0
   10.1064    0.2721   20.2920 O   0  0  0  0  0  0  0  0  0  0  0  0
    5.4372   -0.5267   19.7302 S   0  0  0  0  0  0  0  0  0  0  0  0
    7.8833   -0.2976   23.4263 H   0  0  0  0  0  0  0  0  0  0  0  0
   10.0343    1.7418   23.8862 H   0  0  0  0  0  0  0  0  0  0  0  0
    8.8915   -0.6878   23.3412 C   0  3  0  0  0  0  0  0  0  0  0  0
 17 18  1  0  0  0  0
 17 19  1  0  0  0  0
  7 17  1  0  0  0  0
 19 21  2  0  0  0  0
  6 19  1  0  0  0  0
  7 20  2  0  0  0  0
  7 14  1  0  0  0  0
  6 14  1  0  0  0  0
  6  9  1  0  0  0  0
 16 24  1  0  0  0  0
  8 16  1  0  0  0  0
  8 13  1  0  0  0  0
 11 15  1  0  0  0  0
 22 24  1  0  0  0  0
 15 24  1  0  0  0  0
 10 15  1  0  0  0  0
  5 10  1  0  0  0  0
  8 23  1  0  0  0  0
  8 12  1  0  0  0  0
  3 15  1  0  0  0  0
  1  5  1  0  0  0  0
  2  5  1  0  0  0  0
  4  5  1  0  0  0  0
M  CHG  1  24   1
M  END
> <Shapegauss>
-119.355644

$$$$
