stable:False satoms:9 tatoms:24 sratio:0.375
  -OEChem-08062411083D

 32 33  0     0  0  0  0  0  0999 V2000
   -6.2484   -4.9876  -25.9181 Cl  0  0  0  0  0  0  0  0  0  0  0  0
   -7.9671   -4.3889  -25.7425 S   0  0  0  0  0  0  0  0  0  0  0  0
   -8.7840   -5.5631  -25.6203 O   0  0  0  0  0  0  0  0  0  0  0  0
   -8.2362   -3.5775  -26.8583 O   0  0  0  0  0  0  0  0  0  0  0  0
   -7.9189   -3.5835  -24.3585 N   0  0  0  0  0  0  0  0  0  0  0  0
   -8.8497   -2.8498  -24.0344 C   0  0  0  0  0  0  0  0  0  0  0  0
   -9.4804   -2.0447  -23.6296 C   0  0  0  0  0  0  0  0  0  0  0  0
  -10.2983   -1.1940  -23.1459 C   0  0  0  0  0  0  0  0  0  0  0  0
  -11.5110    0.2748  -24.7247 H   0  0  0  0  0  0  0  0  0  0  0  0
  -12.3414   -0.1436  -24.3192 C   0  0  0  0  0  0  0  0  0  0  0  0
  -13.2955    0.0167  -24.6014 H   0  0  0  0  0  0  0  0  0  0  0  0
  -12.6909   -1.1383  -23.0125 C   0  0  0  0  0  0  0  0  0  0  0  0
  -11.7325   -1.1624  -23.2001 C   0  0  0  0  0  0  0  0  0  0  0  0
  -10.0018   -0.2525  -22.3543 C   0  0  0  0  0  0  0  0  0  0  0  0
   -9.3516    0.3916  -21.4277 C   0  0  0  0  0  0  0  0  0  0  0  0
   -9.7899    1.4056  -21.0801 O   0  0  0  0  0  0  0  0  0  0  0  0
   -8.2323   -0.2579  -20.9842 N   0  0  0  0  0  0  0  0  0  0  0  0
   -7.6172    0.2536  -19.9565 C   0  0  0  0  0  0  0  0  0  0  0  0
   -7.9900    0.2674  -18.6857 N   0  0  0  0  0  0  0  0  0  0  0  0
   -7.4629    0.6353  -17.6781 N   0  0  0  0  0  0  0  0  0  0  0  0
   -6.4100    1.1651  -17.9857 C   0  0  0  0  0  0  0  0  0  0  0  0
   -5.9407    1.2273  -19.1001 C   0  0  0  0  0  0  0  0  0  0  0  0
   -6.2743    0.8409  -20.2389 C   0  0  0  0  0  0  0  0  0  0  0  0
   -5.8188    0.8922  -21.1797 H   0  0  0  0  0  0  0  0  0  0  0  0
   -7.0991   -3.0116  -24.3875 H   0  0  0  0  0  0  0  0  0  0  0  0
  -13.2793   -2.0494  -23.1957 H   0  0  0  0  0  0  0  0  0  0  0  0
  -13.0254   -0.6678  -22.0762 H   0  0  0  0  0  0  0  0  0  0  0  0
  -11.7903   -2.0289  -23.8752 H   0  0  0  0  0  0  0  0  0  0  0  0
  -10.7671    0.4682  -22.6021 H   0  0  0  0  0  0  0  0  0  0  0  0
   -7.9008   -1.0895  -21.4299 H   0  0  0  0  0  0  0  0  0  0  0  0
   -5.8416    1.6224  -17.1894 H   0  0  0  0  0  0  0  0  0  0  0  0
   -4.9949    1.7485  -19.1114 H   0  0  0  0  0  0  0  0  0  0  0  0
 20 21  2  0  0  0  0
 19 20  1  0  0  0  0
 21 22  1  0  0  0  0
 18 19  2  0  0  0  0
 22 23  2  0  0  0  0
 18 23  1  0  0  0  0
 17 18  1  0  0  0  0
 23 24  1  0  0  0  0
 15 16  2  0  0  0  0
 15 17  1  0  0  0  0
 14 15  1  0  0  0  0
  8 14  2  3  0  0  0
 12 13  1  0  0  0  0
 10 12  1  0  0  0  0
  8 13  1  0  0  0  0
 10 13  1  0  0  0  0
  7  8  1  0  0  0  0
  6  7  3  0  0  0  0
 10 11  1  0  0  0  0
  9 10  1  0  0  0  0
  5  6  1  0  0  0  0
  2  5  1  0  0  0  0
  2  3  2  0  0  0  0
  1  2  1  0  0  0  0
  2  4  2  0  0  0  0
  5 25  1  0  0  0  0
 12 26  1  0  0  0  0
 12 27  1  0  0  0  0
 13 28  1  0  0  0  0
 14 29  1  0  0  0  0
 17 30  1  0  0  0  0
 21 31  1  0  0  0  0
 22 32  1  0  0  0  0
M  END
> <Chemgauss4>
-11.614499

$$$$
