stable:False satoms:9 tatoms:24 sratio:0.375
  -OEChem-08062411083D

 32 33  0     0  0  0  0  0  0999 V2000
    6.0684   -5.2872   25.8685 Cl  0  0  0  0  0  0  0  0  0  0  0  0
    7.7871   -4.6885   25.6928 S   0  0  0  0  0  0  0  0  0  0  0  0
    8.6040   -5.8627   25.5706 O   0  0  0  0  0  0  0  0  0  0  0  0
    8.0562   -3.8771   26.8086 O   0  0  0  0  0  0  0  0  0  0  0  0
    7.7389   -3.8831   24.3088 N   0  0  0  0  0  0  0  0  0  0  0  0
    8.6696   -3.1494   23.9847 C   0  0  0  0  0  0  0  0  0  0  0  0
    9.3004   -2.3443   23.5800 C   0  0  0  0  0  0  0  0  0  0  0  0
   10.1183   -1.4936   23.0963 C   0  0  0  0  0  0  0  0  0  0  0  0
   11.3309   -0.0248   24.6750 H   0  0  0  0  0  0  0  0  0  0  0  0
   12.1614   -0.4432   24.2695 C   0  0  0  0  0  0  0  0  0  0  0  0
   13.1155   -0.2829   24.5517 H   0  0  0  0  0  0  0  0  0  0  0  0
   12.5109   -1.4379   22.9628 C   0  0  0  0  0  0  0  0  0  0  0  0
   11.5525   -1.4620   23.1504 C   0  0  0  0  0  0  0  0  0  0  0  0
    9.8218   -0.5521   22.3046 C   0  0  0  0  0  0  0  0  0  0  0  0
    9.1716    0.0920   21.3780 C   0  0  0  0  0  0  0  0  0  0  0  0
    9.6098    1.1060   21.0304 O   0  0  0  0  0  0  0  0  0  0  0  0
    8.0523   -0.5575   20.9346 N   0  0  0  0  0  0  0  0  0  0  0  0
    7.4372   -0.0460   19.9068 C   0  0  0  0  0  0  0  0  0  0  0  0
    7.8100   -0.0322   18.6360 N   0  0  0  0  0  0  0  0  0  0  0  0
    7.2829    0.3357   17.6284 N   0  0  0  0  0  0  0  0  0  0  0  0
    6.2300    0.8655   17.9361 C   0  0  0  0  0  0  0  0  0  0  0  0
    5.7607    0.9277   19.0504 C   0  0  0  0  0  0  0  0  0  0  0  0
    6.0943    0.5413   20.1892 C   0  0  0  0  0  0  0  0  0  0  0  0
    5.6387    0.5926   21.1300 H   0  0  0  0  0  0  0  0  0  0  0  0
    6.9191   -3.3112   24.3378 H   0  0  0  0  0  0  0  0  0  0  0  0
   13.0993   -2.3490   23.1460 H   0  0  0  0  0  0  0  0  0  0  0  0
   12.8454   -0.9674   22.0265 H   0  0  0  0  0  0  0  0  0  0  0  0
   11.6103   -2.3285   23.8255 H   0  0  0  0  0  0  0  0  0  0  0  0
   10.5871    0.1686   22.5524 H   0  0  0  0  0  0  0  0  0  0  0  0
    7.7207   -1.3891   21.3802 H   0  0  0  0  0  0  0  0  0  0  0  0
    5.6616    1.3228   17.1397 H   0  0  0  0  0  0  0  0  0  0  0  0
    4.8148    1.4489   19.0617 H   0  0  0  0  0  0  0  0  0  0  0  0
 20 21  2  0  0  0  0
 19 20  1  0  0  0  0
 21 22  1  0  0  0  0
 18 19  2  0  0  0  0
 22 23  2  0  0  0  0
 18 23  1  0  0  0  0
 17 18  1  0  0  0  0
 23 24  1  0  0  0  0
 15 16  2  0  0  0  0
 15 17  1  0  0  0  0
 14 15  1  0  0  0  0
  8 14  2  3  0  0  0
 12 13  1  0  0  0  0
 10 12  1  0  0  0  0
  8 13  1  0  0  0  0
 10 13  1  0  0  0  0
  7  8  1  0  0  0  0
  6  7  3  0  0  0  0
 10 11  1  0  0  0  0
  9 10  1  0  0  0  0
  5  6  1  0  0  0  0
  2  5  1  0  0  0  0
  2  3  2  0  0  0  0
  1  2  1  0  0  0  0
  2  4  2  0  0  0  0
  5 25  1  0  0  0  0
 12 26  1  0  0  0  0
 12 27  1  0  0  0  0
 13 28  1  0  0  0  0
 14 29  1  0  0  0  0
 17 30  1  0  0  0  0
 21 31  1  0  0  0  0
 22 32  1  0  0  0  0
M  END
> <Chemgauss4>
-11.991386

$$$$
