MODEL 1
REMARK VINA RESULT:    -7.549      0.000      0.000
REMARK INTER + INTRA:         -11.154
REMARK INTER:                 -10.197
REMARK INTRA:                  -0.957
REMARK UNBOUND:                -0.957
REMARK  6 active torsions:
REMARK  status: ('A' for Active; 'I' for Inactive)
REMARK    1  A    between atoms: S_2  and  N_5 
REMARK    2  A    between atoms: N_5  and  C_7 
REMARK    3  A    between atoms: C_8  and  C_9 
REMARK    4  A    between atoms: C_9  and  C_15 
REMARK    5  A    between atoms: C_15  and  C_16 
REMARK       I    between atoms: C_16  and  N_18 
REMARK    6  A    between atoms: N_18  and  C_20 
ROOT
HETATM    1  C   UNL     1       9.458  -1.556  23.428  1.00  0.00     0.076 C 
HETATM    2  C   UNL     1       9.292  -0.549  24.863  1.00  0.00     0.003 C 
HETATM    3  C   UNL     1      10.072   0.066  25.209  1.00  0.00    -0.002 C 
HETATM    4  C   UNL     1      11.456   0.242  24.779  1.00  0.00    -0.001 C 
HETATM    5  C   UNL     1      11.783  -0.672  23.743  1.00  0.00    -0.002 C 
HETATM    6  C   UNL     1      11.220  -1.354  23.222  1.00  0.00     0.003 C 
ENDROOT
BRANCH   1   7
HETATM    7  C   UNL     1       8.961  -2.667  23.216  1.00  0.00     0.021 C 
HETATM    8  C   UNL     1       8.018  -3.392  22.855  1.00  0.00     0.098 C 
BRANCH   8   9
HETATM    9  N   UNL     1       7.546  -4.366  22.332  1.00  0.00    -0.296 N 
ATOM     10  HN  UNL     1       8.144  -5.186  22.229  1.00  0.00     0.177 HD
BRANCH   9  11
HETATM   11  S   UNL     1       6.016  -4.466  21.776  1.00  0.00     0.226 S 
HETATM   12  C   UNL     1       5.078  -5.080  23.143  1.00  0.00     0.186 C 
HETATM   13  O   UNL     1       5.469  -3.168  21.456  1.00  0.00    -0.206 OA
HETATM   14  O   UNL     1       5.905  -5.389  20.715  1.00  0.00    -0.206 OA
ENDBRANCH   9  11
ENDBRANCH   8   9
ENDBRANCH   1   7
BRANCH   1  15
HETATM   15  C   UNL     1       9.010  -0.963  22.459  1.00  0.00    -0.061 C 
BRANCH  15  16
HETATM   16  C   UNL     1       8.492  -0.409  21.374  1.00  0.00     0.290 C 
HETATM   17  O   UNL     1       9.246   0.157  20.707  1.00  0.00    -0.259 OA
HETATM   18  N   UNL     1       7.195  -0.608  21.249  1.00  0.00    -0.315 N 
ATOM     19  HN  UNL     1       6.687  -1.139  21.957  1.00  0.00     0.170 HD
BRANCH  18  20
HETATM   20  C   UNL     1       6.577  -0.134  20.241  1.00  0.00     0.057 A 
HETATM   21  C   UNL     1       6.308  -0.591  19.015  1.00  0.00     0.117 A 
HETATM   22  N   UNL     1       5.804  -0.409  17.931  1.00  0.00    -0.373 N 
HETATM   23  C   UNL     1       5.307   0.784  18.059  1.00  0.00     0.088 A 
ATOM     24  HN  UNL     1       5.776  -1.031  17.124  1.00  0.00     0.164 HD
HETATM   25  C   UNL     1       5.369   1.531  19.148  1.00  0.00     0.026 A 
HETATM   26  C   UNL     1       5.941   1.263  20.269  1.00  0.00    -0.033 A 
HETATM   27  C   UNL     1       6.023   2.158  21.532  1.00  0.00     0.050 C 
ENDBRANCH  18  20
ENDBRANCH  15  16
ENDBRANCH   1  15
TORSDOF 6
ENDMDL
MODEL 2
REMARK VINA RESULT:    -7.305      2.729      5.841
REMARK INTER + INTRA:         -10.824
REMARK INTER:                  -9.881
REMARK INTRA:                  -0.943
REMARK UNBOUND:                -0.957
REMARK  6 active torsions:
REMARK  status: ('A' for Active; 'I' for Inactive)
REMARK    1  A    between atoms: S_2  and  N_5 
REMARK    2  A    between atoms: N_5  and  C_7 
REMARK    3  A    between atoms: C_8  and  C_9 
REMARK    4  A    between atoms: C_9  and  C_15 
REMARK    5  A    between atoms: C_15  and  C_16 
REMARK       I    between atoms: C_16  and  N_18 
REMARK    6  A    between atoms: N_18  and  C_20 
ROOT
HETATM    1  C   UNL     1      10.249  -0.801  23.360  1.00  0.00     0.076 C 
HETATM    2  C   UNL     1      11.724  -1.609  22.837  1.00  0.00     0.003 C 
HETATM    3  C   UNL     1      12.663  -1.386  23.255  1.00  0.00    -0.002 C 
HETATM    4  C   UNL     1      13.101  -0.386  24.225  1.00  0.00    -0.001 C 
HETATM    5  C   UNL     1      12.029   0.475  24.580  1.00  0.00    -0.002 C 
HETATM    6  C   UNL     1      11.032   0.472  24.338  1.00  0.00     0.003 C 
ENDROOT
BRANCH   1   7
HETATM    7  C   UNL     1       9.263  -0.502  22.678  1.00  0.00     0.021 C 
HETATM    8  C   UNL     1       8.364  -0.791  21.870  1.00  0.00     0.098 C 
BRANCH   8   9
HETATM    9  N   UNL     1       7.253  -0.709  21.419  1.00  0.00    -0.296 N 
ATOM     10  HN  UNL     1       6.504  -1.199  21.908  1.00  0.00     0.177 HD
BRANCH   9  11
HETATM   11  S   UNL     1       6.860   0.131  20.076  1.00  0.00     0.226 S 
HETATM   12  C   UNL     1       5.585  -0.820  19.306  1.00  0.00     0.186 C 
HETATM   13  O   UNL     1       6.278   1.415  20.391  1.00  0.00    -0.206 OA
HETATM   14  O   UNL     1       7.946   0.221  19.180  1.00  0.00    -0.206 OA
ENDBRANCH   9  11
ENDBRANCH   8   9
ENDBRANCH   1   7
BRANCH   1  15
HETATM   15  C   UNL     1       9.691  -1.479  24.209  1.00  0.00    -0.061 C 
BRANCH  15  16
HETATM   16  C   UNL     1       8.998  -2.186  25.088  1.00  0.00     0.290 C 
HETATM   17  O   UNL     1       8.754  -1.635  26.073  1.00  0.00    -0.259 OA
HETATM   18  N   UNL     1       8.708  -3.403  24.674  1.00  0.00    -0.315 N 
ATOM     19  HN  UNL     1       9.021  -3.721  23.756  1.00  0.00     0.170 HD
BRANCH  18  20
HETATM   20  C   UNL     1       8.035  -4.182  25.424  1.00  0.00     0.057 A 
HETATM   21  C   UNL     1       8.343  -4.988  26.444  1.00  0.00     0.117 A 
HETATM   22  N   UNL     1       7.979  -5.783  27.280  1.00  0.00    -0.373 N 
HETATM   23  C   UNL     1       6.704  -5.857  27.049  1.00  0.00     0.088 A 
ATOM     24  HN  UNL     1       8.532  -6.270  27.985  1.00  0.00     0.164 HD
HETATM   25  C   UNL     1       6.049  -5.180  26.121  1.00  0.00     0.026 A 
HETATM   26  C   UNL     1       6.519  -4.352  25.255  1.00  0.00    -0.033 A 
HETATM   27  C   UNL     1       5.741  -3.580  24.159  1.00  0.00     0.050 C 
ENDBRANCH  18  20
ENDBRANCH  15  16
ENDBRANCH   1  15
TORSDOF 6
ENDMDL
MODEL 3
REMARK VINA RESULT:    -7.087      2.241      5.978
REMARK INTER + INTRA:         -10.529
REMARK INTER:                  -9.474
REMARK INTRA:                  -1.055
REMARK UNBOUND:                -0.957
REMARK  6 active torsions:
REMARK  status: ('A' for Active; 'I' for Inactive)
REMARK    1  A    between atoms: S_2  and  N_5 
REMARK    2  A    between atoms: N_5  and  C_7 
REMARK    3  A    between atoms: C_8  and  C_9 
REMARK    4  A    between atoms: C_9  and  C_15 
REMARK    5  A    between atoms: C_15  and  C_16 
REMARK       I    between atoms: C_16  and  N_18 
REMARK    6  A    between atoms: N_18  and  C_20 
ROOT
HETATM    1  C   UNL     1       7.182   0.464  20.458  1.00  0.00     0.076 C 
HETATM    2  C   UNL     1       6.107   1.691  21.121  1.00  0.00     0.003 C 
HETATM    3  C   UNL     1       5.294   2.078  20.576  1.00  0.00    -0.002 C 
HETATM    4  C   UNL     1       4.839   1.875  19.204  1.00  0.00    -0.001 C 
HETATM    5  C   UNL     1       5.747   1.051  18.487  1.00  0.00    -0.002 C 
HETATM    6  C   UNL     1       6.590   0.542  18.775  1.00  0.00     0.003 C 
ENDROOT
BRANCH   1   7
HETATM    7  C   UNL     1       8.394   0.328  20.653  1.00  0.00     0.021 C 
HETATM    8  C   UNL     1       9.354  -0.045  21.349  1.00  0.00     0.098 C 
BRANCH   8   9
HETATM    9  N   UNL     1      10.454  -0.501  21.513  1.00  0.00    -0.296 N 
ATOM     10  HN  UNL     1      11.151  -0.331  20.788  1.00  0.00     0.177 HD
BRANCH   9  11
HETATM   11  S   UNL     1      10.909  -1.374  22.814  1.00  0.00     0.226 S 
HETATM   12  C   UNL     1      10.963  -0.209  24.143  1.00  0.00     0.186 C 
HETATM   13  O   UNL     1       9.918  -2.362  23.177  1.00  0.00    -0.206 OA
HETATM   14  O   UNL     1      12.199  -1.920  22.652  1.00  0.00    -0.206 OA
ENDBRANCH   9  11
ENDBRANCH   8   9
ENDBRANCH   1   7
BRANCH   1  15
HETATM   15  C   UNL     1       6.809  -0.642  20.817  1.00  0.00    -0.061 C 
BRANCH  15  16
HETATM   16  C   UNL     1       6.372  -1.857  21.111  1.00  0.00     0.290 C 
HETATM   17  O   UNL     1       5.492  -2.229  20.464  1.00  0.00    -0.259 OA
HETATM   18  N   UNL     1       7.031  -2.428  22.100  1.00  0.00    -0.315 N 
ATOM     19  HN  UNL     1       7.791  -1.931  22.564  1.00  0.00     0.170 HD
BRANCH  18  20
HETATM   20  C   UNL     1       6.714  -3.604  22.473  1.00  0.00     0.057 A 
HETATM   21  C   UNL     1       7.004  -4.831  22.031  1.00  0.00     0.117 A 
HETATM   22  N   UNL     1       6.874  -6.028  22.144  1.00  0.00    -0.373 N 
HETATM   23  C   UNL     1       6.092  -6.121  23.176  1.00  0.00     0.088 A 
ATOM     24  HN  UNL     1       7.275  -6.773  21.575  1.00  0.00     0.164 HD
HETATM   25  C   UNL     1       5.619  -5.106  23.878  1.00  0.00     0.026 A 
HETATM   26  C   UNL     1       5.800  -3.846  23.682  1.00  0.00    -0.033 A 
HETATM   27  C   UNL     1       5.223  -2.665  24.503  1.00  0.00     0.050 C 
ENDBRANCH  18  20
ENDBRANCH  15  16
ENDBRANCH   1  15
TORSDOF 6
ENDMDL
MODEL 4
REMARK VINA RESULT:    -6.990      2.584      5.817
REMARK INTER + INTRA:         -10.398
REMARK INTER:                  -9.643
REMARK INTRA:                  -0.755
REMARK UNBOUND:                -0.957
REMARK  6 active torsions:
REMARK  status: ('A' for Active; 'I' for Inactive)
REMARK    1  A    between atoms: S_2  and  N_5 
REMARK    2  A    between atoms: N_5  and  C_7 
REMARK    3  A    between atoms: C_8  and  C_9 
REMARK    4  A    between atoms: C_9  and  C_15 
REMARK    5  A    between atoms: C_15  and  C_16 
REMARK       I    between atoms: C_16  and  N_18 
REMARK    6  A    between atoms: N_18  and  C_20 
ROOT
HETATM    1  C   UNL     1       6.739  -2.912  22.624  1.00  0.00     0.076 C 
HETATM    2  C   UNL     1       6.429  -3.280  24.319  1.00  0.00     0.003 C 
HETATM    3  C   UNL     1       6.667  -4.213  24.742  1.00  0.00    -0.002 C 
HETATM    4  C   UNL     1       7.177  -5.457  24.170  1.00  0.00    -0.001 C 
HETATM    5  C   UNL     1       7.281  -5.357  22.758  1.00  0.00    -0.002 C 
HETATM    6  C   UNL     1       7.133  -4.576  22.108  1.00  0.00     0.003 C 
ENDROOT
BRANCH   1   7
HETATM    7  C   UNL     1       6.074  -2.199  21.866  1.00  0.00     0.021 C 
HETATM    8  C   UNL     1       5.954  -1.508  20.840  1.00  0.00     0.098 C 
BRANCH   8   9
HETATM    9  N   UNL     1       5.349  -1.074  19.897  1.00  0.00    -0.296 N 
ATOM     10  HN  UNL     1       4.384  -1.380  19.771  1.00  0.00     0.177 HD
BRANCH   9  11
HETATM   11  S   UNL     1       5.965  -0.032  18.803  1.00  0.00     0.226 S 
HETATM   12  C   UNL     1       5.113   1.488  19.098  1.00  0.00     0.186 C 
HETATM   13  O   UNL     1       7.366   0.233  19.036  1.00  0.00    -0.206 OA
HETATM   14  O   UNL     1       5.693  -0.442  17.480  1.00  0.00    -0.206 OA
ENDBRANCH   9  11
ENDBRANCH   8   9
ENDBRANCH   1   7
BRANCH   1  15
HETATM   15  C   UNL     1       7.815  -2.343  22.520  1.00  0.00    -0.061 C 
BRANCH  15  16
HETATM   16  C   UNL     1       9.011  -1.776  22.490  1.00  0.00     0.290 C 
HETATM   17  O   UNL     1       9.287  -1.272  21.490  1.00  0.00    -0.259 OA
HETATM   18  N   UNL     1       9.676  -1.890  23.623  1.00  0.00    -0.315 N 
ATOM     19  HN  UNL     1       9.263  -2.386  24.413  1.00  0.00     0.170 HD
BRANCH  18  20
HETATM   20  C   UNL     1      10.837  -1.377  23.727  1.00  0.00     0.057 A 
HETATM   21  C   UNL     1      12.053  -1.731  23.304  1.00  0.00     0.117 A 
HETATM   22  N   UNL     1      13.238  -1.494  23.246  1.00  0.00    -0.373 N 
HETATM   23  C   UNL     1      13.325  -0.379  23.904  1.00  0.00     0.088 A 
ATOM     24  HN  UNL     1      13.978  -2.032  22.795  1.00  0.00     0.164 HD
HETATM   25  C   UNL     1      12.314   0.273  24.452  1.00  0.00     0.026 A 
HETATM   26  C   UNL     1      11.070  -0.058  24.478  1.00  0.00    -0.033 A 
HETATM   27  C   UNL     1       9.897   0.708  25.141  1.00  0.00     0.050 C 
ENDBRANCH  18  20
ENDBRANCH  15  16
ENDBRANCH   1  15
TORSDOF 6
ENDMDL
MODEL 5
REMARK VINA RESULT:    -6.927      2.113      5.007
REMARK INTER + INTRA:         -10.314
REMARK INTER:                  -9.475
REMARK INTRA:                  -0.839
REMARK UNBOUND:                -0.957
REMARK  6 active torsions:
REMARK  status: ('A' for Active; 'I' for Inactive)
REMARK    1  A    between atoms: S_2  and  N_5 
REMARK    2  A    between atoms: N_5  and  C_7 
REMARK    3  A    between atoms: C_8  and  C_9 
REMARK    4  A    between atoms: C_9  and  C_15 
REMARK    5  A    between atoms: C_15  and  C_16 
REMARK       I    between atoms: C_16  and  N_18 
REMARK    6  A    between atoms: N_18  and  C_20 
ROOT
HETATM    1  C   UNL     1       9.550  -0.459  22.117  1.00  0.00     0.076 C 
HETATM    2  C   UNL     1      11.134  -1.195  22.342  1.00  0.00     0.003 C 
HETATM    3  C   UNL     1      11.696  -1.057  23.221  1.00  0.00    -0.002 C 
HETATM    4  C   UNL     1      11.488  -0.234  24.409  1.00  0.00    -0.001 C 
HETATM    5  C   UNL     1      10.330   0.575  24.265  1.00  0.00    -0.002 C 
HETATM    6  C   UNL     1       9.611   0.627  23.534  1.00  0.00     0.003 C 
ENDROOT
BRANCH   1   7
HETATM    7  C   UNL     1       9.048  -0.038  21.070  1.00  0.00     0.021 C 
HETATM    8  C   UNL     1       8.208  -0.104  20.157  1.00  0.00     0.098 C 
BRANCH   8   9
HETATM    9  N   UNL     1       7.462   0.370  19.342  1.00  0.00    -0.296 N 
ATOM     10  HN  UNL     1       7.806   1.148  18.779  1.00  0.00     0.177 HD
BRANCH   9  11
HETATM   11  S   UNL     1       5.938  -0.147  19.073  1.00  0.00     0.226 S 
HETATM   12  C   UNL     1       4.911   1.212  19.550  1.00  0.00     0.186 C 
HETATM   13  O   UNL     1       5.683  -0.379  17.670  1.00  0.00    -0.206 OA
HETATM   14  O   UNL     1       5.611  -1.254  19.885  1.00  0.00    -0.206 OA
ENDBRANCH   9  11
ENDBRANCH   8   9
ENDBRANCH   1   7
BRANCH   1  15
HETATM   15  C   UNL     1       8.681  -1.256  22.434  1.00  0.00    -0.061 C 
BRANCH  15  16
HETATM   16  C   UNL     1       7.698  -2.106  22.686  1.00  0.00     0.290 C 
HETATM   17  O   UNL     1       6.698  -1.619  22.993  1.00  0.00    -0.259 OA
HETATM   18  N   UNL     1       8.043  -3.370  22.537  1.00  0.00    -0.315 N 
ATOM     19  HN  UNL     1       8.994  -3.612  22.260  1.00  0.00     0.170 HD
BRANCH  18  20
HETATM   20  C   UNL     1       7.183  -4.287  22.739  1.00  0.00     0.057 A 
HETATM   21  C   UNL     1       6.379  -5.001  21.947  1.00  0.00     0.117 A 
HETATM   22  N   UNL     1       5.528  -5.854  21.835  1.00  0.00    -0.373 N 
HETATM   23  C   UNL     1       5.342  -6.217  23.067  1.00  0.00     0.088 A 
ATOM     24  HN  UNL     1       5.073  -6.199  20.990  1.00  0.00     0.164 HD
HETATM   25  C   UNL     1       5.983  -5.732  24.118  1.00  0.00     0.026 A 
HETATM   26  C   UNL     1       6.877  -4.807  24.151  1.00  0.00    -0.033 A 
HETATM   27  C   UNL     1       7.606  -4.235  25.394  1.00  0.00     0.050 C 
ENDBRANCH  18  20
ENDBRANCH  15  16
ENDBRANCH   1  15
TORSDOF 6
ENDMDL
MODEL 6
REMARK VINA RESULT:    -6.680      2.848      6.552
REMARK INTER + INTRA:          -9.980
REMARK INTER:                  -8.564
REMARK INTRA:                  -1.415
REMARK UNBOUND:                -0.957
REMARK  6 active torsions:
REMARK  status: ('A' for Active; 'I' for Inactive)
REMARK    1  A    between atoms: S_2  and  N_5 
REMARK    2  A    between atoms: N_5  and  C_7 
REMARK    3  A    between atoms: C_8  and  C_9 
REMARK    4  A    between atoms: C_9  and  C_15 
REMARK    5  A    between atoms: C_15  and  C_16 
REMARK       I    between atoms: C_16  and  N_18 
REMARK    6  A    between atoms: N_18  and  C_20 
ROOT
HETATM    1  C   UNL     1       7.759   0.721  21.287  1.00  0.00     0.076 C 
HETATM    2  C   UNL     1       6.470   1.920  21.251  1.00  0.00     0.003 C 
HETATM    3  C   UNL     1       5.670   1.862  20.570  1.00  0.00    -0.002 C 
HETATM    4  C   UNL     1       5.383   0.962  19.457  1.00  0.00    -0.001 C 
HETATM    5  C   UNL     1       6.459   0.060  19.247  1.00  0.00    -0.002 C 
HETATM    6  C   UNL     1       7.331  -0.106  19.763  1.00  0.00     0.003 C 
ENDROOT
BRANCH   1   7
HETATM    7  C   UNL     1       8.954   0.895  21.550  1.00  0.00     0.021 C 
HETATM    8  C   UNL     1       9.859   1.356  22.266  1.00  0.00     0.098 C 
BRANCH   8   9
HETATM    9  N   UNL     1      10.945   1.329  22.781  1.00  0.00    -0.296 N 
ATOM     10  HN  UNL     1      11.608   2.063  22.530  1.00  0.00     0.177 HD
BRANCH   9  11
HETATM   11  S   UNL     1      11.432   0.200  23.854  1.00  0.00     0.226 S 
HETATM   12  C   UNL     1      10.295   0.338  25.201  1.00  0.00     0.186 C 
HETATM   13  O   UNL     1      11.286  -1.140  23.333  1.00  0.00    -0.206 OA
HETATM   14  O   UNL     1      12.729   0.466  24.340  1.00  0.00    -0.206 OA
ENDBRANCH   9  11
ENDBRANCH   8   9
ENDBRANCH   1   7
BRANCH   1  15
HETATM   15  C   UNL     1       7.504  -0.128  22.127  1.00  0.00    -0.061 C 
BRANCH  15  16
HETATM   16  C   UNL     1       7.324  -1.041  23.069  1.00  0.00     0.290 C 
HETATM   17  O   UNL     1       6.367  -0.909  23.700  1.00  0.00    -0.259 OA
HETATM   18  N   UNL     1       8.281  -1.947  23.114  1.00  0.00    -0.315 N 
ATOM     19  HN  UNL     1       9.067  -1.895  22.466  1.00  0.00     0.170 HD
BRANCH  18  20
HETATM   20  C   UNL     1       8.220  -2.887  23.970  1.00  0.00     0.057 A 
HETATM   21  C   UNL     1       8.556  -2.997  25.259  1.00  0.00     0.117 A 
HETATM   22  N   UNL     1       8.626  -3.679  26.255  1.00  0.00    -0.373 N 
HETATM   23  C   UNL     1       8.143  -4.812  25.843  1.00  0.00     0.088 A 
ATOM     24  HN  UNL     1       8.974  -3.429  27.180  1.00  0.00     0.164 HD
HETATM   25  C   UNL     1       7.694  -5.060  24.625  1.00  0.00     0.026 A 
HETATM   26  C   UNL     1       7.665  -4.272  23.608  1.00  0.00    -0.033 A 
HETATM   27  C   UNL     1       7.152  -4.583  22.178  1.00  0.00     0.050 C 
ENDBRANCH  18  20
ENDBRANCH  15  16
ENDBRANCH   1  15
TORSDOF 6
ENDMDL
MODEL 7
REMARK VINA RESULT:    -6.601      3.937      6.200
REMARK INTER + INTRA:          -9.873
REMARK INTER:                  -9.298
REMARK INTRA:                  -0.576
REMARK UNBOUND:                -0.957
REMARK  6 active torsions:
REMARK  status: ('A' for Active; 'I' for Inactive)
REMARK    1  A    between atoms: S_2  and  N_5 
REMARK    2  A    between atoms: N_5  and  C_7 
REMARK    3  A    between atoms: C_8  and  C_9 
REMARK    4  A    between atoms: C_9  and  C_15 
REMARK    5  A    between atoms: C_15  and  C_16 
REMARK       I    between atoms: C_16  and  N_18 
REMARK    6  A    between atoms: N_18  and  C_20 
ROOT
HETATM    1  C   UNL     1       7.005  -4.242  23.948  1.00  0.00     0.076 C 
HETATM    2  C   UNL     1       7.541  -5.667  23.063  1.00  0.00     0.003 C 
HETATM    3  C   UNL     1       7.176  -5.901  22.104  1.00  0.00    -0.002 C 
HETATM    4  C   UNL     1       6.145  -5.298  21.265  1.00  0.00    -0.001 C 
HETATM    5  C   UNL     1       5.485  -4.246  21.954  1.00  0.00    -0.002 C 
HETATM    6  C   UNL     1       5.647  -3.813  22.870  1.00  0.00     0.003 C 
ENDROOT
BRANCH   1   7
HETATM    7  C   UNL     1       6.855  -4.115  25.168  1.00  0.00     0.021 C 
HETATM    8  C   UNL     1       6.138  -3.944  26.168  1.00  0.00     0.098 C 
BRANCH   8   9
HETATM    9  N   UNL     1       5.835  -4.114  27.319  1.00  0.00    -0.296 N 
ATOM     10  HN  UNL     1       5.231  -3.419  27.759  1.00  0.00     0.177 HD
BRANCH   9  11
HETATM   11  S   UNL     1       6.324  -5.379  28.227  1.00  0.00     0.226 S 
HETATM   12  C   UNL     1       5.205  -6.686  27.819  1.00  0.00     0.186 C 
HETATM   13  O   UNL     1       7.641  -5.838  27.852  1.00  0.00    -0.206 OA
HETATM   14  O   UNL     1       6.204  -5.109  29.606  1.00  0.00    -0.206 OA
ENDBRANCH   9  11
ENDBRANCH   8   9
ENDBRANCH   1   7
BRANCH   1  15
HETATM   15  C   UNL     1       7.790  -3.325  23.760  1.00  0.00    -0.061 C 
BRANCH  15  16
HETATM   16  C   UNL     1       8.684  -2.388  23.484  1.00  0.00     0.290 C 
HETATM   17  O   UNL     1       8.762  -2.102  22.369  1.00  0.00    -0.259 OA
HETATM   18  N   UNL     1       9.328  -1.946  24.546  1.00  0.00    -0.315 N 
ATOM     19  HN  UNL     1       9.122  -2.332  25.468  1.00  0.00     0.170 HD
BRANCH  18  20
HETATM   20  C   UNL     1      10.208  -1.035  24.416  1.00  0.00     0.057 A 
HETATM   21  C   UNL     1      11.486  -1.024  24.028  1.00  0.00     0.117 A 
HETATM   22  N   UNL     1      12.499  -0.395  23.820  1.00  0.00    -0.373 N 
HETATM   23  C   UNL     1      12.136   0.814  24.123  1.00  0.00     0.088 A 
ATOM     24  HN  UNL     1      13.405  -0.729  23.493  1.00  0.00     0.164 HD
HETATM   25  C   UNL     1      10.931   1.177  24.530  1.00  0.00     0.026 A 
HETATM   26  C   UNL     1       9.900   0.434  24.737  1.00  0.00    -0.033 A 
HETATM   27  C   UNL     1       8.499   0.872  25.233  1.00  0.00     0.050 C 
ENDBRANCH  18  20
ENDBRANCH  15  16
ENDBRANCH   1  15
TORSDOF 6
ENDMDL
MODEL 8
REMARK VINA RESULT:    -6.505      3.097      5.764
REMARK INTER + INTRA:          -9.743
REMARK INTER:                  -8.586
REMARK INTRA:                  -1.156
REMARK UNBOUND:                -0.957
REMARK  6 active torsions:
REMARK  status: ('A' for Active; 'I' for Inactive)
REMARK    1  A    between atoms: S_2  and  N_5 
REMARK    2  A    between atoms: N_5  and  C_7 
REMARK    3  A    between atoms: C_8  and  C_9 
REMARK    4  A    between atoms: C_9  and  C_15 
REMARK    5  A    between atoms: C_15  and  C_16 
REMARK       I    between atoms: C_16  and  N_18 
REMARK    6  A    between atoms: N_18  and  C_20 
ROOT
HETATM    1  C   UNL     1       9.456  -1.047  23.664  1.00  0.00     0.076 C 
HETATM    2  C   UNL     1      11.150  -1.350  23.287  1.00  0.00     0.003 C 
HETATM    3  C   UNL     1      11.922  -0.734  23.647  1.00  0.00    -0.002 C 
HETATM    4  C   UNL     1      11.920   0.512  24.409  1.00  0.00    -0.001 C 
HETATM    5  C   UNL     1      10.594   0.979  24.607  1.00  0.00    -0.002 C 
HETATM    6  C   UNL     1       9.679   0.575  24.379  1.00  0.00     0.003 C 
ENDROOT
BRANCH   1   7
HETATM    7  C   UNL     1       8.469  -1.248  22.949  1.00  0.00     0.021 C 
HETATM    8  C   UNL     1       7.801  -1.965  22.185  1.00  0.00     0.098 C 
BRANCH   8   9
HETATM    9  N   UNL     1       6.773  -2.386  21.726  1.00  0.00    -0.296 N 
ATOM     10  HN  UNL     1       6.224  -1.760  21.137  1.00  0.00     0.177 HD
BRANCH   9  11
HETATM   11  S   UNL     1       6.196  -3.891  21.980  1.00  0.00     0.226 S 
HETATM   12  C   UNL     1       4.854  -3.674  23.111  1.00  0.00     0.186 C 
HETATM   13  O   UNL     1       5.629  -4.465  20.781  1.00  0.00    -0.206 OA
HETATM   14  O   UNL     1       7.158  -4.724  22.589  1.00  0.00    -0.206 OA
ENDBRANCH   9  11
ENDBRANCH   8   9
ENDBRANCH   1   7
BRANCH   1  15
HETATM   15  C   UNL     1       9.127  -1.717  24.631  1.00  0.00    -0.061 C 
BRANCH  15  16
HETATM   16  C   UNL     1       8.693  -2.379  25.692  1.00  0.00     0.290 C 
HETATM   17  O   UNL     1       9.013  -1.934  26.708  1.00  0.00    -0.259 OA
HETATM   18  N   UNL     1       7.965  -3.436  25.393  1.00  0.00    -0.315 N 
ATOM     19  HN  UNL     1       7.791  -3.679  24.417  1.00  0.00     0.170 HD
BRANCH  18  20
HETATM   20  C   UNL     1       7.479  -4.153  26.327  1.00  0.00     0.057 A 
HETATM   21  C   UNL     1       7.868  -5.275  26.937  1.00  0.00     0.117 A 
HETATM   22  N   UNL     1       7.655  -6.128  27.769  1.00  0.00    -0.373 N 
HETATM   23  C   UNL     1       6.528  -5.735  28.279  1.00  0.00     0.088 A 
ATOM     24  HN  UNL     1       8.216  -6.945  28.008  1.00  0.00     0.164 HD
HETATM   25  C   UNL     1       5.860  -4.649  27.927  1.00  0.00     0.026 A 
HETATM   26  C   UNL     1       6.155  -3.791  27.014  1.00  0.00    -0.033 A 
HETATM   27  C   UNL     1       5.351  -2.532  26.598  1.00  0.00     0.050 C 
ENDBRANCH  18  20
ENDBRANCH  15  16
ENDBRANCH   1  15
TORSDOF 6
ENDMDL
MODEL 9
REMARK VINA RESULT:    -6.473     14.843     16.235
REMARK INTER + INTRA:          -9.700
REMARK INTER:                  -8.852
REMARK INTRA:                  -0.849
REMARK UNBOUND:                -0.957
REMARK  6 active torsions:
REMARK  status: ('A' for Active; 'I' for Inactive)
REMARK    1  A    between atoms: S_2  and  N_5 
REMARK    2  A    between atoms: N_5  and  C_7 
REMARK    3  A    between atoms: C_8  and  C_9 
REMARK    4  A    between atoms: C_9  and  C_15 
REMARK    5  A    between atoms: C_15  and  C_16 
REMARK       I    between atoms: C_16  and  N_18 
REMARK    6  A    between atoms: N_18  and  C_20 
ROOT
HETATM    1  C   UNL     1      23.242  -1.698  23.686  1.00  0.00     0.076 C 
HETATM    2  C   UNL     1      21.765  -1.281  24.549  1.00  0.00     0.003 C 
HETATM    3  C   UNL     1      21.578  -0.307  24.900  1.00  0.00    -0.002 C 
HETATM    4  C   UNL     1      22.385   0.910  24.918  1.00  0.00    -0.001 C 
HETATM    5  C   UNL     1      23.692   0.655  24.427  1.00  0.00    -0.002 C 
HETATM    6  C   UNL     1      24.125  -0.181  24.016  1.00  0.00     0.003 C 
ENDROOT
BRANCH   1   7
HETATM    7  C   UNL     1      23.866  -2.764  23.716  1.00  0.00     0.021 C 
HETATM    8  C   UNL     1      23.960  -3.968  24.011  1.00  0.00     0.098 C 
BRANCH   8   9
HETATM    9  N   UNL     1      24.327  -5.098  23.826  1.00  0.00    -0.296 N 
ATOM     10  HN  UNL     1      24.695  -5.333  22.905  1.00  0.00     0.177 HD
BRANCH   9  11
HETATM   11  S   UNL     1      24.276  -6.281  24.949  1.00  0.00     0.226 S 
HETATM   12  C   UNL     1      25.914  -6.345  25.612  1.00  0.00     0.186 C 
HETATM   13  O   UNL     1      23.403  -5.945  26.051  1.00  0.00    -0.206 OA
HETATM   14  O   UNL     1      23.982  -7.534  24.374  1.00  0.00    -0.206 OA
ENDBRANCH   9  11
ENDBRANCH   8   9
ENDBRANCH   1   7
BRANCH   1  15
HETATM   15  C   UNL     1      23.045  -1.631  22.482  1.00  0.00    -0.061 C 
BRANCH  15  16
HETATM   16  C   UNL     1      22.785  -1.648  21.184  1.00  0.00     0.290 C 
HETATM   17  O   UNL     1      21.675  -1.802  20.911  1.00  0.00    -0.259 OA
HETATM   18  N   UNL     1      23.855  -1.481  20.431  1.00  0.00    -0.315 N 
ATOM     19  HN  UNL     1      24.772  -1.364  20.862  1.00  0.00     0.170 HD
BRANCH  18  20
HETATM   20  C   UNL     1      23.738  -1.468  19.163  1.00  0.00     0.057 A 
HETATM   21  C   UNL     1      23.331  -0.556  18.275  1.00  0.00     0.117 A 
HETATM   22  N   UNL     1      23.116  -0.259  17.122  1.00  0.00    -0.373 N 
HETATM   23  C   UNL     1      23.445  -1.347  16.495  1.00  0.00     0.088 A 
ATOM     24  HN  UNL     1      22.767   0.620  16.742  1.00  0.00     0.164 HD
HETATM   25  C   UNL     1      23.907  -2.450  17.058  1.00  0.00     0.026 A 
HETATM   26  C   UNL     1      24.098  -2.690  18.308  1.00  0.00    -0.033 A 
HETATM   27  C   UNL     1      24.623  -3.998  18.955  1.00  0.00     0.050 C 
ENDBRANCH  18  20
ENDBRANCH  15  16
ENDBRANCH   1  15
TORSDOF 6
ENDMDL
