REMARK  6 active torsions:
REMARK  status: ('A' for Active; 'I' for Inactive)
REMARK    1  A    between atoms: S_2  and  N_5 
REMARK    2  A    between atoms: N_5  and  C_7 
REMARK    3  A    between atoms: C_8  and  C_9 
REMARK    4  A    between atoms: C_9  and  C_15 
REMARK    5  A    between atoms: C_15  and  C_16 
REMARK       I    between atoms: C_16  and  N_18 
REMARK    6  A    between atoms: N_18  and  C_20 
ROOT
HETATM    1  C   UNL     1      10.297  -1.154  23.259  1.00  0.00     0.076 C 
HETATM    2  C   UNL     1      11.040   0.011  24.351  1.00  0.00     0.003 C 
HETATM    3  C   UNL     1      12.052   0.287  24.271  1.00  0.00    -0.002 C 
HETATM    4  C   UNL     1      13.141  -0.184  23.420  1.00  0.00    -0.001 C 
HETATM    5  C   UNL     1      12.719  -1.279  22.621  1.00  0.00    -0.002 C 
HETATM    6  C   UNL     1      11.805  -1.729  22.494  1.00  0.00     0.003 C 
ENDROOT
BRANCH   1   7
HETATM    7  C   UNL     1       9.411  -1.977  23.512  1.00  0.00     0.021 C 
HETATM    8  C   UNL     1       8.958  -2.926  24.174  1.00  0.00     0.098 C 
BRANCH   8   9
HETATM    9  N   UNL     1       8.075  -3.548  24.702  1.00  0.00    -0.296 N 
ATOM     10  HN  UNL     1       7.175  -3.594  24.224  1.00  0.00     0.177 HD
BRANCH   9  11
HETATM   11  S   UNL     1       8.217  -4.323  26.131  1.00  0.00     0.226 S 
HETATM   12  C   UNL     1       6.588  -4.909  26.490  1.00  0.00     0.186 C 
HETATM   13  O   UNL     1       9.059  -5.493  26.032  1.00  0.00    -0.206 OA
HETATM   14  O   UNL     1       8.609  -3.446  27.164  1.00  0.00    -0.206 OA
ENDBRANCH   9  11
ENDBRANCH   8   9
ENDBRANCH   1   7
BRANCH   1  15
HETATM   15  C   UNL     1       9.747  -0.562  22.343  1.00  0.00    -0.061 C 
BRANCH  15  16
HETATM   16  C   UNL     1       9.064   0.038  21.381  1.00  0.00     0.290 C 
HETATM   17  O   UNL     1       9.567   0.978  20.939  1.00  0.00    -0.259 OA
HETATM   18  N   UNL     1       7.921  -0.555  21.098  1.00  0.00    -0.315 N 
ATOM     19  HN  UNL     1       7.636  -1.390  21.610  1.00  0.00     0.170 HD
BRANCH  18  20
HETATM   20  C   UNL     1       7.174  -0.081  20.182  1.00  0.00     0.057 A 
HETATM   21  C   UNL     1       7.263  -0.011  18.851  1.00  0.00     0.117 A 
HETATM   22  N   UNL     1       6.781   0.342  17.799  1.00  0.00    -0.373 N 
HETATM   23  C   UNL     1       5.673   0.900  18.181  1.00  0.00     0.088 A 
ATOM     24  HN  UNL     1       7.150   0.230  16.855  1.00  0.00     0.164 HD
HETATM   25  C   UNL     1       5.250   0.996  19.430  1.00  0.00     0.026 A 
HETATM   26  C   UNL     1       5.836   0.599  20.505  1.00  0.00    -0.033 A 
HETATM   27  C   UNL     1       5.336   0.736  21.966  1.00  0.00     0.050 C 
ENDBRANCH  18  20
ENDBRANCH  15  16
ENDBRANCH   1  15
TORSDOF 6
