REMARK  7 active torsions:
REMARK  status: ('A' for Active; 'I' for Inactive)
REMARK    1  A    between atoms: S_2  and  N_5 
REMARK    2  A    between atoms: N_5  and  C_7 
REMARK    3  A    between atoms: C_7  and  C_8 
REMARK    4  A    between atoms: C_8  and  C_9 
REMARK    5  A    between atoms: C_9  and  C_15 
REMARK    6  A    between atoms: C_15  and  C_16 
REMARK       I    between atoms: C_16  and  N_18 
REMARK    7  A    between atoms: N_18  and  C_20 
ROOT
HETATM    1  C   UNL     1      10.375  -1.179  23.211  1.00  0.00     0.068 C 
HETATM    2  C   UNL     1      11.019  -0.020  24.267  1.00  0.00     0.000 C 
HETATM    3  C   UNL     1      12.072   0.270  24.222  1.00  0.00    -0.002 C 
HETATM    4  C   UNL     1      13.127  -0.183  23.425  1.00  0.00    -0.001 C 
HETATM    5  C   UNL     1      12.759  -1.227  22.677  1.00  0.00    -0.002 C 
HETATM    6  C   UNL     1      11.710  -1.694  22.557  1.00  0.00     0.000 C 
ENDROOT
BRANCH   1   7
HETATM    7  C   UNL     1       9.443  -2.029  23.555  1.00  0.00     0.135 C 
BRANCH   7   8
HETATM    8  C   UNL     1       8.963  -2.863  24.153  1.00  0.00    -0.058 C 
BRANCH   8   9
HETATM    9  N   UNL     1       8.088  -3.537  24.729  1.00  0.00    -0.254 N 
ATOM     10  HN  UNL     1       7.192  -3.600  24.246  1.00  0.00     0.188 HD
BRANCH   9  11
HETATM   11  S   UNL     1       8.176  -4.314  26.117  1.00  0.00     0.233 S 
HETATM   12  C   UNL     1       6.657  -4.825  26.430  1.00  0.00     0.186 C 
HETATM   13  O   UNL     1       9.052  -5.476  26.020  1.00  0.00    -0.206 OA
HETATM   14  O   UNL     1       8.615  -3.456  27.179  1.00  0.00    -0.206 OA
ENDBRANCH   9  11
ENDBRANCH   8   9
ENDBRANCH   7   8
ENDBRANCH   1   7
BRANCH   1  15
HETATM   15  C   UNL     1       9.713  -0.534  22.350  1.00  0.00    -0.064 C 
BRANCH  15  16
HETATM   16  C   UNL     1       9.036   0.070  21.408  1.00  0.00     0.290 C 
HETATM   17  O   UNL     1       9.524   1.012  21.002  1.00  0.00    -0.259 OA
HETATM   18  N   UNL     1       7.875  -0.582  21.142  1.00  0.00    -0.315 N 
ATOM     19  HN  UNL     1       7.546  -1.383  21.681  1.00  0.00     0.170 HD
BRANCH  18  20
HETATM   20  C   UNL     1       7.257  -0.110  20.185  1.00  0.00     0.060 A 
HETATM   21  C   UNL     1       7.274   0.004  18.911  1.00  0.00     0.117 A 
HETATM   22  N   UNL     1       6.691   0.385  17.782  1.00  0.00    -0.373 N 
HETATM   23  C   UNL     1       5.662   0.849  18.285  1.00  0.00     0.088 A 
ATOM     24  HN  UNL     1       6.995   0.317  16.811  1.00  0.00     0.164 HD
HETATM   25  C   UNL     1       5.252   0.942  19.446  1.00  0.00     0.030 A 
HETATM   26  C   UNL     1       5.773   0.570  20.619  1.00  0.00    -0.016 A 
HETATM   27  C   UNL     1       5.472   0.637  21.622  1.00  0.00     0.026 C 
ENDBRANCH  18  20
ENDBRANCH  15  16
ENDBRANCH   1  15
TORSDOF 7
