REMARK  6 active torsions:
REMARK  status: ('A' for Active; 'I' for Inactive)
REMARK    1  A    between atoms: C_6  and  C_7 
REMARK    2  A    between atoms: C_7  and  C_12 
REMARK    3  A    between atoms: N_10  and  C_12 
REMARK    4  A    between atoms: C_13  and  C_14 
REMARK       I    between atoms: C_14  and  N_16 
REMARK    5  A    between atoms: N_16  and  C_18 
REMARK    6  A    between atoms: N_20  and  C_22 
ROOT
HETATM    1  C   UNL     1       8.133  -4.320  26.075  1.00  0.00     0.136 C 
HETATM    2  N   UNL     1       8.172  -3.550  24.867  1.00  0.00    -0.434 N 
ATOM      3  HN  UNL     1       7.327  -3.443  24.305  1.00  0.00     0.149 HD
HETATM    4  H   UNL     1       9.011  -3.124  24.577  1.00  0.00     0.149 HD
ENDROOT
TORSDOF 6
