MODEL 1
REMARK VINA RESULT:    -5.571      0.000      0.000
REMARK INTER + INTRA:          -8.771
REMARK INTER:                  -8.176
REMARK INTRA:                  -0.595
REMARK UNBOUND:                -0.595
REMARK  8 active torsions:
REMARK  status: ('A' for Active; 'I' for Inactive)
REMARK    1  A    between atoms: C_1  and  N_3 
REMARK    2  A    between atoms: N_3  and  N_5 
REMARK    3  A    between atoms: N_7  and  N_10 
REMARK    4  A    between atoms: C_9  and  C_14 
REMARK    5  A    between atoms: C_9  and  C_13 
REMARK       I    between atoms: C_14  and  N_16 
REMARK    6  A    between atoms: N_16  and  C_18 
REMARK    7  A    between atoms: C_18  and  C_21 
REMARK    8  A    between atoms: C_20  and  C_21 
ROOT
HETATM    1  N   UNL     1      10.737  14.654   2.686  1.00  0.00    -0.282 N 
ATOM      2  HN  UNL     1      11.743  14.552   2.550  1.00  0.00     0.189 HD
HETATM    3  C   UNL     1      10.887  15.076   4.931  1.00  0.00     0.079 C 
HETATM    4  C   UNL     1      10.172  14.361   3.693  1.00  0.00     0.073 C 
ENDROOT
BRANCH   4   5
HETATM    5  C   UNL     1       9.390  13.747   3.568  1.00  0.00    -0.029 C 
BRANCH   5   6
HETATM    6  C   UNL     1       8.154  12.667   3.347  1.00  0.00     0.294 C 
HETATM    7  N   UNL     1       8.138  11.367   3.578  1.00  0.00    -0.327 N 
ATOM      8  HN  UNL     1       8.992  10.827   3.720  1.00  0.00     0.169 HD
HETATM    9  O   UNL     1       7.653  13.644   2.994  1.00  0.00    -0.258 OA
BRANCH   7  10
HETATM   10  C   UNL     1       7.222  10.944   3.603  1.00  0.00     0.092 C 
BRANCH  10  11
HETATM   11  C   UNL     1       6.181  10.480   2.510  1.00  0.00     0.016 C 
BRANCH  11  12
HETATM   12  C   UNL     1       5.465   9.713   3.396  1.00  0.00    -0.009 C 
HETATM   13  C   UNL     1       4.791   8.908   2.672  1.00  0.00     0.011 C 
ENDBRANCH  11  12
ENDBRANCH  10  11
ENDBRANCH   7  10
ENDBRANCH   5   6
ENDBRANCH   4   5
BRANCH   1  14
HETATM   14  N   UNL     1       9.941  15.109   1.796  1.00  0.00    -0.228 N 
HETATM   15  N   UNL     1       9.467  16.171   1.477  1.00  0.00    -0.230 N 
ATOM     16  HN  UNL     1       9.039  16.665   2.260  1.00  0.00     0.209 HD
ATOM     17  HN  UNL     1       9.616  14.363   1.180  1.00  0.00     0.210 HD
BRANCH  15  18
HETATM   18  N   UNL     1       9.382  16.800   0.404  1.00  0.00    -0.293 N 
ATOM     19  HN  UNL     1       9.531  16.330  -0.489  1.00  0.00     0.184 HD
BRANCH  18  20
HETATM   20  C   UNL     1       9.077  18.174   0.453  1.00  0.00     0.363 C 
HETATM   21  F   UNL     1      10.190  18.953   0.732  1.00  0.00    -0.233 F 
ENDBRANCH  18  20
ENDBRANCH  15  18
ENDBRANCH   1  14
TORSDOF 8
ENDMDL
MODEL 2
REMARK VINA RESULT:    -5.570      2.452      6.144
REMARK INTER + INTRA:          -8.770
REMARK INTER:                  -7.467
REMARK INTRA:                  -1.303
REMARK UNBOUND:                -0.595
REMARK  8 active torsions:
REMARK  status: ('A' for Active; 'I' for Inactive)
REMARK    1  A    between atoms: C_1  and  N_3 
REMARK    2  A    between atoms: N_3  and  N_5 
REMARK    3  A    between atoms: N_7  and  N_10 
REMARK    4  A    between atoms: C_9  and  C_14 
REMARK    5  A    between atoms: C_9  and  C_13 
REMARK       I    between atoms: C_14  and  N_16 
REMARK    6  A    between atoms: N_16  and  C_18 
REMARK    7  A    between atoms: C_18  and  C_21 
REMARK    8  A    between atoms: C_20  and  C_21 
ROOT
HETATM    1  N   UNL     1       9.414  13.221   3.472  1.00  0.00    -0.282 N 
ATOM      2  HN  UNL     1       9.656  12.231   3.422  1.00  0.00     0.189 HD
HETATM    3  C   UNL     1       7.164  12.884   3.223  1.00  0.00     0.079 C 
HETATM    4  C   UNL     1       8.493  13.709   2.895  1.00  0.00     0.073 C 
ENDROOT
BRANCH   4   5
HETATM    5  C   UNL     1       8.727  14.509   2.338  1.00  0.00    -0.029 C 
BRANCH   5   6
HETATM    6  C   UNL     1       9.117  15.778   1.349  1.00  0.00     0.294 C 
HETATM    7  N   UNL     1       8.343  16.754   0.910  1.00  0.00    -0.327 N 
ATOM      8  HN  UNL     1       7.325  16.710   0.961  1.00  0.00     0.169 HD
HETATM    9  O   UNL     1      10.132  15.235   1.411  1.00  0.00    -0.258 OA
BRANCH   7  10
HETATM   10  C   UNL     1       8.829  17.549   0.519  1.00  0.00     0.092 C 
BRANCH  10  11
HETATM   11  C   UNL     1       9.493  18.850   1.117  1.00  0.00     0.016 C 
BRANCH  11  12
HETATM   12  C   UNL     1       9.127  19.630   0.047  1.00  0.00    -0.009 C 
HETATM   13  C   UNL     1       9.593  20.788   0.303  1.00  0.00     0.011 C 
ENDBRANCH  11  12
ENDBRANCH  10  11
ENDBRANCH   7  10
ENDBRANCH   5   6
ENDBRANCH   4   5
BRANCH   1  14
HETATM   14  N   UNL     1      10.065  14.078   4.161  1.00  0.00    -0.228 N 
HETATM   15  N   UNL     1      11.177  14.546   4.190  1.00  0.00    -0.230 N 
ATOM     16  HN  UNL     1      11.907  13.834   4.193  1.00  0.00     0.209 HD
ATOM     17  HN  UNL     1       9.480  14.480   4.894  1.00  0.00     0.210 HD
BRANCH  15  18
HETATM   18  N   UNL     1      11.632  15.706   4.216  1.00  0.00    -0.293 N 
ATOM     19  HN  UNL     1      12.532  15.924   3.787  1.00  0.00     0.184 HD
BRANCH  18  20
HETATM   20  C   UNL     1      10.876  16.710   4.853  1.00  0.00     0.363 C 
HETATM   21  F   UNL     1      10.049  17.389   3.970  1.00  0.00    -0.233 F 
ENDBRANCH  18  20
ENDBRANCH  15  18
ENDBRANCH   1  14
TORSDOF 8
ENDMDL
MODEL 3
REMARK VINA RESULT:    -5.271     31.947     33.583
REMARK INTER + INTRA:          -8.332
REMARK INTER:                  -7.346
REMARK INTRA:                  -0.986
REMARK UNBOUND:                -0.595
REMARK  8 active torsions:
REMARK  status: ('A' for Active; 'I' for Inactive)
REMARK    1  A    between atoms: C_1  and  N_3 
REMARK    2  A    between atoms: N_3  and  N_5 
REMARK    3  A    between atoms: N_7  and  N_10 
REMARK    4  A    between atoms: C_9  and  C_14 
REMARK    5  A    between atoms: C_9  and  C_13 
REMARK       I    between atoms: C_14  and  N_16 
REMARK    6  A    between atoms: N_16  and  C_18 
REMARK    7  A    between atoms: C_18  and  C_21 
REMARK    8  A    between atoms: C_20  and  C_21 
ROOT
HETATM    1  N   UNL     1      -1.761 -15.829   9.810  1.00  0.00    -0.282 N 
ATOM      2  HN  UNL     1      -2.781 -15.844   9.834  1.00  0.00     0.189 HD
HETATM    3  C   UNL     1      -1.626 -15.120   7.638  1.00  0.00     0.079 C 
HETATM    4  C   UNL     1      -1.117 -16.051   8.834  1.00  0.00     0.073 C 
ENDROOT
BRANCH   4   5
HETATM    5  C   UNL     1      -0.410 -16.752   8.951  1.00  0.00    -0.029 C 
BRANCH   5   6
HETATM    6  C   UNL     1       0.784 -17.893   9.065  1.00  0.00     0.294 C 
HETATM    7  N   UNL     1       1.501 -18.442   8.101  1.00  0.00    -0.327 N 
ATOM      8  HN  UNL     1       1.236 -18.376   7.118  1.00  0.00     0.169 HD
HETATM    9  O   UNL     1       0.494 -17.774  10.174  1.00  0.00    -0.258 OA
BRANCH   7  10
HETATM   10  C   UNL     1       2.330 -18.932   8.404  1.00  0.00     0.092 C 
BRANCH  10  11
HETATM   11  C   UNL     1       2.603 -20.232   9.257  1.00  0.00     0.016 C 
BRANCH  11  12
HETATM   12  C   UNL     1       2.506 -21.067   8.172  1.00  0.00    -0.009 C 
HETATM   13  C   UNL     1       3.702 -21.213   7.755  1.00  0.00     0.011 C 
ENDBRANCH  11  12
ENDBRANCH  10  11
ENDBRANCH   7  10
ENDBRANCH   5   6
ENDBRANCH   4   5
BRANCH   1  14
HETATM   14  N   UNL     1      -1.031 -15.570  10.827  1.00  0.00    -0.228 N 
HETATM   15  N   UNL     1      -0.999 -15.847  12.001  1.00  0.00    -0.230 N 
ATOM     16  HN  UNL     1      -1.890 -15.686  12.470  1.00  0.00     0.209 HD
ATOM     17  HN  UNL     1      -0.255 -14.957  10.574  1.00  0.00     0.210 HD
BRANCH  15  18
HETATM   18  N   UNL     1      -0.120 -16.285  12.768  1.00  0.00    -0.293 N 
ATOM     19  HN  UNL     1       0.835 -16.430  12.439  1.00  0.00     0.184 HD
BRANCH  18  20
HETATM   20  C   UNL     1      -0.475 -16.576  14.100  1.00  0.00     0.363 C 
HETATM   21  F   UNL     1       0.632 -16.787  14.909  1.00  0.00    -0.233 F 
ENDBRANCH  18  20
ENDBRANCH  15  18
ENDBRANCH   1  14
TORSDOF 8
ENDMDL
MODEL 4
REMARK VINA RESULT:    -5.265     23.264     25.166
REMARK INTER + INTRA:          -8.323
REMARK INTER:                  -7.300
REMARK INTRA:                  -1.022
REMARK UNBOUND:                -0.595
REMARK  8 active torsions:
REMARK  status: ('A' for Active; 'I' for Inactive)
REMARK    1  A    between atoms: C_1  and  N_3 
REMARK    2  A    between atoms: N_3  and  N_5 
REMARK    3  A    between atoms: N_7  and  N_10 
REMARK    4  A    between atoms: C_9  and  C_14 
REMARK    5  A    between atoms: C_9  and  C_13 
REMARK       I    between atoms: C_14  and  N_16 
REMARK    6  A    between atoms: N_16  and  C_18 
REMARK    7  A    between atoms: C_18  and  C_21 
REMARK    8  A    between atoms: C_20  and  C_21 
ROOT
HETATM    1  N   UNL     1      10.841  -0.938  21.707  1.00  0.00    -0.282 N 
ATOM      2  HN  UNL     1      11.677  -1.013  21.128  1.00  0.00     0.189 HD
HETATM    3  C   UNL     1      11.974  -1.002  23.695  1.00  0.00     0.079 C 
HETATM    4  C   UNL     1      10.734  -1.434  22.784  1.00  0.00     0.073 C 
ENDROOT
BRANCH   4   5
HETATM    5  C   UNL     1       9.917  -2.004  22.901  1.00  0.00    -0.029 C 
BRANCH   5   6
HETATM    6  C   UNL     1       8.554  -2.906  23.169  1.00  0.00     0.294 C 
HETATM    7  N   UNL     1       8.453  -4.195  23.436  1.00  0.00    -0.327 N 
ATOM      8  HN  UNL     1       9.224  -4.846  23.287  1.00  0.00     0.169 HD
HETATM    9  O   UNL     1       8.091  -1.866  22.983  1.00  0.00    -0.258 OA
BRANCH   7  10
HETATM   10  C   UNL     1       7.559  -4.492  23.798  1.00  0.00     0.092 C 
BRANCH  10  11
HETATM   11  C   UNL     1       6.144  -4.786  23.163  1.00  0.00     0.016 C 
BRANCH  11  12
HETATM   12  C   UNL     1       6.571  -5.928  22.531  1.00  0.00    -0.009 C 
HETATM   13  C   UNL     1       6.137  -5.831  21.336  1.00  0.00     0.011 C 
ENDBRANCH  11  12
ENDBRANCH  10  11
ENDBRANCH   7  10
ENDBRANCH   5   6
ENDBRANCH   4   5
BRANCH   1  14
HETATM   14  N   UNL     1       9.790  -0.300  21.358  1.00  0.00    -0.228 N 
HETATM   15  N   UNL     1       9.000  -0.305  20.446  1.00  0.00    -0.230 N 
ATOM     16  HN  UNL     1       9.450  -0.271  19.531  1.00  0.00     0.209 HD
ATOM     17  HN  UNL     1       9.550   0.415  22.045  1.00  0.00     0.210 HD
BRANCH  15  18
HETATM   18  N   UNL     1       7.757  -0.344  20.371  1.00  0.00    -0.293 N 
ATOM     19  HN  UNL     1       7.238  -1.148  20.722  1.00  0.00     0.184 HD
BRANCH  18  20
HETATM   20  C   UNL     1       7.085   0.750  19.790  1.00  0.00     0.363 C 
HETATM   21  F   UNL     1       7.139   0.728  18.404  1.00  0.00    -0.233 F 
ENDBRANCH  18  20
ENDBRANCH  15  18
ENDBRANCH   1  14
TORSDOF 8
ENDMDL
MODEL 5
REMARK VINA RESULT:    -5.107     23.206     24.650
REMARK INTER + INTRA:          -8.091
REMARK INTER:                  -7.043
REMARK INTRA:                  -1.048
REMARK UNBOUND:                -0.595
REMARK  8 active torsions:
REMARK  status: ('A' for Active; 'I' for Inactive)
REMARK    1  A    between atoms: C_1  and  N_3 
REMARK    2  A    between atoms: N_3  and  N_5 
REMARK    3  A    between atoms: N_7  and  N_10 
REMARK    4  A    between atoms: C_9  and  C_14 
REMARK    5  A    between atoms: C_9  and  C_13 
REMARK       I    between atoms: C_14  and  N_16 
REMARK    6  A    between atoms: N_16  and  C_18 
REMARK    7  A    between atoms: C_18  and  C_21 
REMARK    8  A    between atoms: C_20  and  C_21 
ROOT
HETATM    1  N   UNL     1      11.465  -1.431  23.080  1.00  0.00    -0.282 N 
ATOM      2  HN  UNL     1      11.337  -2.350  23.504  1.00  0.00     0.189 HD
HETATM    3  C   UNL     1      13.538  -1.085  23.987  1.00  0.00     0.079 C 
HETATM    4  C   UNL     1      12.087  -0.549  23.584  1.00  0.00     0.073 C 
ENDROOT
BRANCH   4   5
HETATM    5  C   UNL     1      11.594   0.321  23.654  1.00  0.00    -0.029 C 
BRANCH   5   6
HETATM    6  C   UNL     1      10.810   1.779  23.691  1.00  0.00     0.294 C 
HETATM    7  N   UNL     1      11.319   2.991  23.815  1.00  0.00    -0.327 N 
ATOM      8  HN  UNL     1      12.276   3.152  24.130  1.00  0.00     0.169 HD
HETATM    9  O   UNL     1       9.917   1.058  23.577  1.00  0.00    -0.258 OA
BRANCH   7  10
HETATM   10  C   UNL     1      10.696   3.749  23.575  1.00  0.00     0.092 C 
BRANCH  10  11
HETATM   11  C   UNL     1      10.535   5.247  24.045  1.00  0.00     0.016 C 
BRANCH  11  12
HETATM   12  C   UNL     1      11.881   5.507  23.962  1.00  0.00    -0.009 C 
HETATM   13  C   UNL     1      12.118   6.341  24.896  1.00  0.00     0.011 C 
ENDBRANCH  11  12
ENDBRANCH  10  11
ENDBRANCH   7  10
ENDBRANCH   5   6
ENDBRANCH   4   5
BRANCH   1  14
HETATM   14  N   UNL     1      10.975  -1.095  21.948  1.00  0.00    -0.228 N 
HETATM   15  N   UNL     1       9.896  -1.082  21.407  1.00  0.00    -0.230 N 
ATOM     16  HN  UNL     1       9.410  -1.976  21.469  1.00  0.00     0.209 HD
ATOM     17  HN  UNL     1      11.701  -0.738  21.327  1.00  0.00     0.210 HD
BRANCH  15  18
HETATM   18  N   UNL     1       9.244  -0.218  20.789  1.00  0.00    -0.293 N 
ATOM     19  HN  UNL     1       9.713   0.463  20.194  1.00  0.00     0.184 HD
BRANCH  18  20
HETATM   20  C   UNL     1       7.842  -0.205  20.934  1.00  0.00     0.363 C 
HETATM   21  F   UNL     1       7.358   1.047  21.284  1.00  0.00    -0.233 F 
ENDBRANCH  18  20
ENDBRANCH  15  18
ENDBRANCH   1  14
TORSDOF 8
ENDMDL
MODEL 6
REMARK VINA RESULT:    -5.105     22.962     25.228
REMARK INTER + INTRA:          -8.088
REMARK INTER:                  -7.309
REMARK INTRA:                  -0.779
REMARK UNBOUND:                -0.595
REMARK  8 active torsions:
REMARK  status: ('A' for Active; 'I' for Inactive)
REMARK    1  A    between atoms: C_1  and  N_3 
REMARK    2  A    between atoms: N_3  and  N_5 
REMARK    3  A    between atoms: N_7  and  N_10 
REMARK    4  A    between atoms: C_9  and  C_14 
REMARK    5  A    between atoms: C_9  and  C_13 
REMARK       I    between atoms: C_14  and  N_16 
REMARK    6  A    between atoms: N_16  and  C_18 
REMARK    7  A    between atoms: C_18  and  C_21 
REMARK    8  A    between atoms: C_20  and  C_21 
ROOT
HETATM    1  N   UNL     1       5.663  -2.851  21.866  1.00  0.00    -0.282 N 
ATOM      2  HN  UNL     1       4.707  -3.060  22.152  1.00  0.00     0.189 HD
HETATM    3  C   UNL     1       6.323  -5.041  21.774  1.00  0.00     0.079 C 
HETATM    4  C   UNL     1       6.605  -3.516  22.163  1.00  0.00     0.073 C 
ENDROOT
BRANCH   4   5
HETATM    5  C   UNL     1       7.359  -3.006  22.583  1.00  0.00    -0.029 C 
BRANCH   5   6
HETATM    6  C   UNL     1       8.660  -2.219  23.239  1.00  0.00     0.294 C 
HETATM    7  N   UNL     1       9.936  -2.313  22.913  1.00  0.00    -0.327 N 
ATOM      8  HN  UNL     1      10.299  -3.075  22.341  1.00  0.00     0.169 HD
HETATM    9  O   UNL     1       7.802  -1.788  23.878  1.00  0.00    -0.258 OA
BRANCH   7  10
HETATM   10  C   UNL     1      10.529  -1.577  23.271  1.00  0.00     0.092 C 
BRANCH  10  11
HETATM   11  C   UNL     1      10.876  -0.107  22.811  1.00  0.00     0.016 C 
BRANCH  11  12
HETATM   12  C   UNL     1      11.848   0.052  23.768  1.00  0.00    -0.009 C 
HETATM   13  C   UNL     1      11.225   0.413  24.820  1.00  0.00     0.011 C 
ENDBRANCH  11  12
ENDBRANCH  10  11
ENDBRANCH   7  10
ENDBRANCH   5   6
ENDBRANCH   4   5
BRANCH   1  14
HETATM   14  N   UNL     1       5.986  -1.844  21.147  1.00  0.00    -0.228 N 
HETATM   15  N   UNL     1       5.559  -1.259  20.182  1.00  0.00    -0.230 N 
ATOM     16  HN  UNL     1       5.352  -1.881  19.401  1.00  0.00     0.209 HD
ATOM     17  HN  UNL     1       6.846  -1.413  21.486  1.00  0.00     0.210 HD
BRANCH  15  18
HETATM   18  N   UNL     1       5.316  -0.064  19.926  1.00  0.00    -0.293 N 
ATOM     19  HN  UNL     1       4.595   0.443  20.439  1.00  0.00     0.184 HD
BRANCH  18  20
HETATM   20  C   UNL     1       6.061   0.571  18.912  1.00  0.00     0.363 C 
HETATM   21  F   UNL     1       5.568   0.297  17.644  1.00  0.00    -0.233 F 
ENDBRANCH  18  20
ENDBRANCH  15  18
ENDBRANCH   1  14
TORSDOF 8
ENDMDL
MODEL 7
REMARK VINA RESULT:    -5.037     24.692     25.996
REMARK INTER + INTRA:          -7.988
REMARK INTER:                  -6.502
REMARK INTRA:                  -1.486
REMARK UNBOUND:                -0.595
REMARK  8 active torsions:
REMARK  status: ('A' for Active; 'I' for Inactive)
REMARK    1  A    between atoms: C_1  and  N_3 
REMARK    2  A    between atoms: N_3  and  N_5 
REMARK    3  A    between atoms: N_7  and  N_10 
REMARK    4  A    between atoms: C_9  and  C_14 
REMARK    5  A    between atoms: C_9  and  C_13 
REMARK       I    between atoms: C_14  and  N_16 
REMARK    6  A    between atoms: N_16  and  C_18 
REMARK    7  A    between atoms: C_18  and  C_21 
REMARK    8  A    between atoms: C_20  and  C_21 
ROOT
HETATM    1  N   UNL     1      23.789   0.462  14.184  1.00  0.00    -0.282 N 
ATOM      2  HN  UNL     1      23.202   0.810  13.425  1.00  0.00     0.189 HD
HETATM    3  C   UNL     1      25.115  -0.823  12.831  1.00  0.00     0.079 C 
HETATM    4  C   UNL     1      24.297  -0.615  14.189  1.00  0.00     0.073 C 
ENDROOT
BRANCH   4   5
HETATM    5  C   UNL     1      24.117  -1.157  15.013  1.00  0.00    -0.029 C 
BRANCH   5   6
HETATM    6  C   UNL     1      23.896  -2.088  16.364  1.00  0.00     0.294 C 
HETATM    7  N   UNL     1      24.640  -3.082  16.816  1.00  0.00    -0.327 N 
ATOM      8  HN  UNL     1      25.344  -3.543  16.240  1.00  0.00     0.169 HD
HETATM    9  O   UNL     1      22.981  -1.390  16.432  1.00  0.00    -0.258 OA
BRANCH   7  10
HETATM   10  C   UNL     1      24.463  -3.353  17.773  1.00  0.00     0.092 C 
BRANCH  10  11
HETATM   11  C   UNL     1      25.168  -3.071  19.157  1.00  0.00     0.016 C 
BRANCH  11  12
HETATM   12  C   UNL     1      24.074  -3.461  19.890  1.00  0.00    -0.009 C 
HETATM   13  C   UNL     1      23.786  -2.458  20.621  1.00  0.00     0.011 C 
ENDBRANCH  11  12
ENDBRANCH  10  11
ENDBRANCH   7  10
ENDBRANCH   5   6
ENDBRANCH   4   5
BRANCH   1  14
HETATM   14  N   UNL     1      24.062   1.134  15.237  1.00  0.00    -0.228 N 
HETATM   15  N   UNL     1      23.463   1.725  16.102  1.00  0.00    -0.230 N 
ATOM     16  HN  UNL     1      22.781   2.387  15.731  1.00  0.00     0.209 HD
ATOM     17  HN  UNL     1      25.069   1.183  15.389  1.00  0.00     0.210 HD
BRANCH  15  18
HETATM   18  N   UNL     1      23.494   1.709  17.348  1.00  0.00    -0.293 N 
ATOM     19  HN  UNL     1      22.678   1.986  17.893  1.00  0.00     0.184 HD
BRANCH  18  20
HETATM   20  C   UNL     1      24.681   1.298  17.985  1.00  0.00     0.363 C 
HETATM   21  F   UNL     1      24.495   0.174  18.776  1.00  0.00    -0.233 F 
ENDBRANCH  18  20
ENDBRANCH  15  18
ENDBRANCH   1  14
TORSDOF 8
ENDMDL
MODEL 8
REMARK VINA RESULT:    -5.033     31.448     32.900
REMARK INTER + INTRA:          -7.982
REMARK INTER:                  -6.854
REMARK INTRA:                  -1.127
REMARK UNBOUND:                -0.595
REMARK  8 active torsions:
REMARK  status: ('A' for Active; 'I' for Inactive)
REMARK    1  A    between atoms: C_1  and  N_3 
REMARK    2  A    between atoms: N_3  and  N_5 
REMARK    3  A    between atoms: N_7  and  N_10 
REMARK    4  A    between atoms: C_9  and  C_14 
REMARK    5  A    between atoms: C_9  and  C_13 
REMARK       I    between atoms: C_14  and  N_16 
REMARK    6  A    between atoms: N_16  and  C_18 
REMARK    7  A    between atoms: C_18  and  C_21 
REMARK    8  A    between atoms: C_20  and  C_21 
ROOT
HETATM    1  N   UNL     1      21.083  -1.448  26.297  1.00  0.00    -0.282 N 
ATOM      2  HN  UNL     1      20.091  -1.308  26.490  1.00  0.00     0.189 HD
HETATM    3  C   UNL     1      20.891  -1.102  24.042  1.00  0.00     0.079 C 
HETATM    4  C   UNL     1      21.501  -1.907  25.280  1.00  0.00     0.073 C 
ENDROOT
BRANCH   4   5
HETATM    5  C   UNL     1      22.128  -2.681  25.400  1.00  0.00    -0.029 C 
BRANCH   5   6
HETATM    6  C   UNL     1      23.121  -3.999  25.534  1.00  0.00     0.294 C 
HETATM    7  N   UNL     1      23.135  -5.103  24.810  1.00  0.00    -0.327 N 
ATOM      8  HN  UNL     1      22.360  -5.367  24.200  1.00  0.00     0.169 HD
HETATM    9  O   UNL     1      23.521  -3.340  26.392  1.00  0.00    -0.258 OA
BRANCH   7  10
HETATM   10  C   UNL     1      23.966  -5.670  24.901  1.00  0.00     0.092 C 
BRANCH  10  11
HETATM   11  C   UNL     1      24.247  -7.185  25.242  1.00  0.00     0.016 C 
BRANCH  11  12
HETATM   12  C   UNL     1      25.282  -7.283  24.345  1.00  0.00    -0.009 C 
HETATM   13  C   UNL     1      26.309  -6.863  24.973  1.00  0.00     0.011 C 
ENDBRANCH  11  12
ENDBRANCH  10  11
ENDBRANCH   7  10
ENDBRANCH   5   6
ENDBRANCH   4   5
BRANCH   1  14
HETATM   14  N   UNL     1      22.016  -1.152  27.117  1.00  0.00    -0.228 N 
HETATM   15  N   UNL     1      22.194  -1.152  28.311  1.00  0.00    -0.230 N 
ATOM     16  HN  UNL     1      21.451  -0.674  28.822  1.00  0.00     0.209 HD
ATOM     17  HN  UNL     1      22.847  -0.823  26.624  1.00  0.00     0.210 HD
BRANCH  15  18
HETATM   18  N   UNL     1      23.081  -1.605  29.059  1.00  0.00    -0.293 N 
ATOM     19  HN  UNL     1      22.917  -2.444  29.614  1.00  0.00     0.184 HD
BRANCH  18  20
HETATM   20  C   UNL     1      24.317  -0.930  29.119  1.00  0.00     0.363 C 
HETATM   21  F   UNL     1      25.136  -1.228  28.040  1.00  0.00    -0.233 F 
ENDBRANCH  18  20
ENDBRANCH  15  18
ENDBRANCH   1  14
TORSDOF 8
ENDMDL
MODEL 9
REMARK VINA RESULT:    -5.015     24.118     25.969
REMARK INTER + INTRA:          -7.956
REMARK INTER:                  -6.914
REMARK INTRA:                  -1.042
REMARK UNBOUND:                -0.595
REMARK  8 active torsions:
REMARK  status: ('A' for Active; 'I' for Inactive)
REMARK    1  A    between atoms: C_1  and  N_3 
REMARK    2  A    between atoms: N_3  and  N_5 
REMARK    3  A    between atoms: N_7  and  N_10 
REMARK    4  A    between atoms: C_9  and  C_14 
REMARK    5  A    between atoms: C_9  and  C_13 
REMARK       I    between atoms: C_14  and  N_16 
REMARK    6  A    between atoms: N_16  and  C_18 
REMARK    7  A    between atoms: C_18  and  C_21 
REMARK    8  A    between atoms: C_20  and  C_21 
ROOT
HETATM    1  N   UNL     1      10.953  -0.999  21.742  1.00  0.00    -0.282 N 
ATOM      2  HN  UNL     1      11.708  -1.104  21.065  1.00  0.00     0.189 HD
HETATM    3  C   UNL     1      12.330  -0.998  23.571  1.00  0.00     0.079 C 
HETATM    4  C   UNL     1      10.981  -1.452  22.843  1.00  0.00     0.073 C 
ENDROOT
BRANCH   4   5
HETATM    5  C   UNL     1      10.184  -2.010  23.085  1.00  0.00    -0.029 C 
BRANCH   5   6
HETATM    6  C   UNL     1       8.895  -2.932  23.565  1.00  0.00     0.294 C 
HETATM    7  N   UNL     1       8.677  -3.505  24.735  1.00  0.00    -0.327 N 
ATOM      8  HN  UNL     1       9.413  -3.625  25.431  1.00  0.00     0.169 HD
HETATM    9  O   UNL     1       8.596  -2.695  22.477  1.00  0.00    -0.258 OA
BRANCH   7  10
HETATM   10  C   UNL     1       7.729  -3.817  24.893  1.00  0.00     0.092 C 
BRANCH  10  11
HETATM   11  C   UNL     1       6.796  -3.942  26.160  1.00  0.00     0.016 C 
BRANCH  11  12
HETATM   12  C   UNL     1       7.760  -4.569  26.912  1.00  0.00    -0.009 C 
HETATM   13  C   UNL     1       7.189  -5.604  27.390  1.00  0.00     0.011 C 
ENDBRANCH  11  12
ENDBRANCH  10  11
ENDBRANCH   7  10
ENDBRANCH   5   6
ENDBRANCH   4   5
BRANCH   1  14
HETATM   14  N   UNL     1       9.869  -0.365  21.505  1.00  0.00    -0.228 N 
HETATM   15  N   UNL     1       9.030  -0.317  20.639  1.00  0.00    -0.230 N 
ATOM     16  HN  UNL     1       9.428  -0.194  19.708  1.00  0.00     0.209 HD
ATOM     17  HN  UNL     1       9.651   0.284  22.262  1.00  0.00     0.210 HD
BRANCH  15  18
HETATM   18  N   UNL     1       7.786  -0.385  20.629  1.00  0.00    -0.293 N 
ATOM     19  HN  UNL     1       7.298  -1.103  21.163  1.00  0.00     0.184 HD
BRANCH  18  20
HETATM   20  C   UNL     1       7.069   0.554  19.860  1.00  0.00     0.363 C 
HETATM   21  F   UNL     1       7.421   0.519  18.519  1.00  0.00    -0.233 F 
ENDBRANCH  18  20
ENDBRANCH  15  18
ENDBRANCH   1  14
TORSDOF 8
ENDMDL
