stable:False satoms:14 tatoms:24 sratio:0.5833333333333334
  -OEChem-07092417383D

 24 23  0     1  0  0  0  0  0999 V2000
    7.0307   -4.8783   26.8197 H   0  0  0  0  0  0  0  0  0  0  0  0
    8.3263   -4.0574   25.5835 N   0  3  0  0  0  0  0  0  0  0  0  0
    8.9232   -5.5415   26.7683 O   0  0  0  0  0  0  0  0  0  0  0  0
    8.1295   -4.7013   26.6269 N   0  3  0  0  0  0  0  0  0  0  0  0
    8.5031   -3.5091   24.7030 N   0  0  0  0  0  0  0  0  0  0  0  0
    8.9768   -2.6887   24.0091 C   0  0  0  0  0  0  0  0  0  0  0  0
    9.3148   -1.8274   23.2833 C   0  0  0  0  0  0  0  0  0  0  0  0
   11.3166   -0.9977   22.8770 C   0  0  0  0  0  0  0  0  0  0  0  0
   11.7218   -0.3048   24.0677 C   0  5  0  0  0  0  0  0  0  0  0  0
   11.2577    0.5345   24.4364 H   0  0  0  0  0  0  0  0  0  0  0  0
   12.6594   -0.5843   24.4442 H   0  0  0  0  0  0  0  0  0  0  0  0
   11.9381   -0.5500   22.1096 H   0  0  0  0  0  0  0  0  0  0  0  0
   11.5854   -2.0562   22.8854 H   0  0  0  0  0  0  0  0  0  0  0  0
    9.8703   -0.9356   22.6078 C   0  0  3  0  0  0  0  0  0  0  0  0
    9.2024   -0.0239   21.6301 C   0  0  0  0  0  0  0  0  0  0  0  0
    9.6405    1.0399   21.3463 O   0  0  0  0  0  0  0  0  0  0  0  0
    8.0293   -0.5300   21.1050 N   0  0  0  0  0  0  0  0  0  0  0  0
    7.1457    0.0383   20.6071 C   0  0  0  0  0  0  0  0  0  0  0  0
    7.3484    0.0781   18.3158 H   0  0  0  0  0  0  0  0  0  0  0  0
    6.5923    0.5831   18.0147 O   0  0  0  0  0  0  0  0  0  0  0  0
    4.8750    1.2257   18.5738 H   0  0  0  0  0  0  0  0  0  0  0  0
    5.7228    0.8640   18.9920 C   0  3  0  0  0  0  0  0  0  0  0  0
    6.0290    0.6346   20.3243 C   0  0  0  0  0  0  0  0  0  0  0  0
    5.4450    0.8979   21.1658 H   0  0  0  0  0  0  0  0  0  0  0  0
 19 20  1  0  0  0  0
 20 22  1  0  0  0  0
 21 22  1  0  0  0  0
 22 23  1  0  0  0  0
 18 23  2  0  0  0  0
 23 24  1  0  0  0  0
 17 18  1  0  0  0  0
 15 17  1  0  0  0  0
 15 16  2  0  0  0  0
 14 15  1  0  0  0  0
  8 12  1  0  0  0  0
  8 14  1  0  0  0  0
  7 14  1  0  0  0  0
  8 13  1  0  0  0  0
  8  9  1  0  0  0  0
  6  7  3  0  0  0  0
  5  6  1  0  0  0  0
  9 10  1  0  0  0  0
  9 11  1  0  0  0  0
  2  5  2  0  0  0  0
  2  4  2  0  0  0  0
  3  4  1  0  0  0  0
  1  4  1  0  0  0  0
M  CHG  4   2   1   4   1   9  -1  22   1
M  END
> <Shapegauss>
-195.175507

$$$$
