stable:False satoms:14 tatoms:24 sratio:0.5833333333333334
  -OEChem-08062407443D

 27 26  0     1  0  0  0  0  0999 V2000
  -12.2205   -1.3636  -23.2214 N   0  3  0  0  0  0  0  0  0  0  0  0
  -13.7389   -1.4454  -24.5060 O   0  0  0  0  0  0  0  0  0  0  0  0
  -13.4440   -1.5035  -23.3810 N   0  0  0  0  0  0  0  0  0  0  0  0
  -11.1820   -1.2538  -23.0925 N   0  0  0  0  0  0  0  0  0  0  0  0
  -10.0528   -1.5719  -23.0392 C   0  0  0  0  0  0  0  0  0  0  0  0
   -8.9209   -1.8307  -22.8533 C   0  0  0  0  0  0  0  0  0  0  0  0
   -7.5215   -3.0669  -24.0255 C   0  0  0  0  0  0  0  0  0  0  0  0
   -7.9686   -4.4254  -23.8964 C   0  0  0  0  0  0  0  0  0  0  0  0
   -7.7678   -4.9685  -24.8317 H   0  0  0  0  0  0  0  0  0  0  0  0
   -7.4316   -4.9109  -23.0682 H   0  0  0  0  0  0  0  0  0  0  0  0
   -6.4815   -3.1775  -24.3115 H   0  0  0  0  0  0  0  0  0  0  0  0
   -7.9947   -2.5377  -24.8554 H   0  0  0  0  0  0  0  0  0  0  0  0
   -7.7426   -2.2443  -22.8245 C   0  0  3  0  0  0  0  0  0  0  0  0
   -6.7097   -1.8960  -21.8023 C   0  0  0  0  0  0  0  0  0  0  0  0
   -5.7885   -2.6006  -21.5590 O   0  0  0  0  0  0  0  0  0  0  0  0
   -6.9378   -0.6920  -21.1647 N   0  0  0  0  0  0  0  0  0  0  0  0
   -6.5325   -0.3181  -20.1412 C   0  0  0  0  0  0  0  0  0  0  0  0
   -4.6379    0.9616  -20.3972 H   0  0  0  0  0  0  0  0  0  0  0  0
   -4.3800    1.1934  -19.5044 O   0  0  0  0  0  0  0  0  0  0  0  0
   -5.2848    0.8380  -18.5851 C   0  0  0  0  0  2  0  0  0  0  0  0
   -6.3576    0.0190  -18.9009 C   0  0  0  0  0  0  0  0  0  0  0  0
   -7.0724   -0.3797  -18.2312 H   0  0  0  0  0  0  0  0  0  0  0  0
  -14.6784   -1.5558  -24.5936 H   0  0  0  0  0  0  0  0  0  0  0  0
   -9.0490   -4.4376  -23.6901 H   0  0  0  0  0  0  0  0  0  0  0  0
   -8.0430   -3.1314  -22.2476 H   0  0  0  0  0  0  0  0  0  0  0  0
   -7.5343   -0.0535  -21.6510 H   0  0  0  0  0  0  0  0  0  0  0  0
   -5.5506   -0.0340  -20.4897 H   0  0  0  0  0  0  0  0  0  0  0  0
 18 19  1  0  0  0  0
 19 20  1  0  0  0  0
 20 21  1  0  0  0  0
 17 21  2  0  0  0  0
 21 22  1  0  0  0  0
 16 17  1  0  0  0  0
 14 16  1  0  0  0  0
 14 15  2  0  0  0  0
 13 14  1  0  0  0  0
  7 11  1  0  0  0  0
  7 13  1  0  0  0  0
  6 13  1  0  0  0  0
  7 12  1  0  0  0  0
  7  8  1  0  0  0  0
  5  6  3  0  0  0  0
  4  5  1  0  0  0  0
  8  9  1  0  0  0  0
  8 10  1  0  0  0  0
  1  4  2  0  0  0  0
  1  3  2  0  0  0  0
  2  3  1  0  0  0  0
  2 23  1  0  0  0  0
  8 24  1  0  0  0  0
 13 25  1  0  0  0  0
 16 26  1  0  0  0  0
 17 27  1  0  0  0  0
M  CHG  1   1   1
M  END
> <Chemgauss4>
-7.343571

$$$$
