stable:False satoms:14 tatoms:24 sratio:0.5833333333333334
  -OEChem-08062407443D

 27 26  0     1  0  0  0  0  0999 V2000
   12.5746   -1.5197   23.0926 N   0  3  0  0  0  0  0  0  0  0  0  0
   14.2671   -1.4977   24.1403 O   0  0  0  0  0  0  0  0  0  0  0  0
   13.8006   -1.7174   23.0963 N   0  0  0  0  0  0  0  0  0  0  0  0
   11.5347   -1.3595   23.0975 N   0  0  0  0  0  0  0  0  0  0  0  0
   10.3976   -1.6018   23.2626 C   0  0  0  0  0  0  0  0  0  0  0  0
    9.2400   -1.8071   23.2886 C   0  0  0  0  0  0  0  0  0  0  0  0
    7.9829   -2.7340   24.8446 C   0  0  0  0  0  0  0  0  0  0  0  0
    8.3430   -4.1234   24.8878 C   0  0  0  0  0  0  0  0  0  0  0  0
    8.2640   -4.4913   25.9215 H   0  0  0  0  0  0  0  0  0  0  0  0
    7.6638   -4.6984   24.2412 H   0  0  0  0  0  0  0  0  0  0  0  0
    6.9952   -2.7230   25.2919 H   0  0  0  0  0  0  0  0  0  0  0  0
    8.6013   -2.1112   25.4945 H   0  0  0  0  0  0  0  0  0  0  0  0
    8.0538   -2.1359   23.5010 C   0  0  3  0  0  0  0  0  0  0  0  0
    6.8929   -1.8870   22.5935 C   0  0  0  0  0  0  0  0  0  0  0  0
    5.9145   -2.5552   22.6099 O   0  0  0  0  0  0  0  0  0  0  0  0
    7.0745   -0.8222   21.7325 N   0  0  0  0  0  0  0  0  0  0  0  0
    6.5342   -0.5925   20.7291 C   0  0  0  0  0  0  0  0  0  0  0  0
    4.7611    0.8419   21.0313 H   0  0  0  0  0  0  0  0  0  0  0  0
    4.3798    0.9426   20.1584 O   0  0  0  0  0  0  0  0  0  0  0  0
    5.1157    0.3793   19.1934 C   0  0  0  0  0  2  0  0  0  0  0  0
    6.1862   -0.4507   19.4876 C   0  0  0  0  0  0  0  0  0  0  0  0
    6.7708   -1.0026   18.8006 H   0  0  0  0  0  0  0  0  0  0  0  0
   15.2030   -1.6581   24.1095 H   0  0  0  0  0  0  0  0  0  0  0  0
    9.3772   -4.2452   24.5335 H   0  0  0  0  0  0  0  0  0  0  0  0
    8.2216   -3.1241   23.0479 H   0  0  0  0  0  0  0  0  0  0  0  0
    7.7668   -0.1565   22.0110 H   0  0  0  0  0  0  0  0  0  0  0  0
    5.6312   -0.1870   21.1611 H   0  0  0  0  0  0  0  0  0  0  0  0
 18 19  1  0  0  0  0
 19 20  1  0  0  0  0
 20 21  1  0  0  0  0
 17 21  2  0  0  0  0
 21 22  1  0  0  0  0
 16 17  1  0  0  0  0
 14 16  1  0  0  0  0
 14 15  2  0  0  0  0
 13 14  1  0  0  0  0
  7 11  1  0  0  0  0
  7 13  1  0  0  0  0
  6 13  1  0  0  0  0
  7 12  1  0  0  0  0
  7  8  1  0  0  0  0
  5  6  3  0  0  0  0
  4  5  1  0  0  0  0
  8  9  1  0  0  0  0
  8 10  1  0  0  0  0
  1  4  2  0  0  0  0
  1  3  2  0  0  0  0
  2  3  1  0  0  0  0
  2 23  1  0  0  0  0
  8 24  1  0  0  0  0
 13 25  1  0  0  0  0
 16 26  1  0  0  0  0
 17 27  1  0  0  0  0
M  CHG  1   1   1
M  END
> <Chemgauss4>
-6.990203

$$$$
