stable:False satoms:8 tatoms:24 sratio:0.3333333333333333
  -OEChem-07092417473D

 24 24  0     1  0  0  0  0  0999 V2000
    6.5996   -4.8962   26.4224 C   0  0  0  0  0  0  0  0  0  0  0  0
    8.2287   -4.3359   26.1050 S   0  0  0  0  0  0  0  0  0  0  0  0
    9.0744   -5.5087   26.0668 O   0  0  0  0  0  0  0  0  0  0  0  0
    8.6154   -3.4635   27.1704 O   0  0  0  0  0  0  0  0  0  0  0  0
    8.1331   -3.5850   24.6890 N   0  0  0  0  0  0  0  0  0  0  0  0
    8.9731   -2.9321   24.1372 C   0  0  0  0  0  0  0  0  0  0  0  0
    9.4022   -1.9712   23.5116 C   0  0  0  0  0  0  0  0  0  0  0  0
   10.3067   -1.1408   23.2105 C   0  0  1  0  0  0  0  0  0  0  0  0
   11.0408    0.0553   24.3655 C   0  0  0  0  0  0  0  0  0  0  0  0
   12.0134    0.3061   24.2657 C   0  0  0  0  0  0  0  0  0  0  0  0
   13.1356   -0.1761   23.4564 C   0  0  0  0  0  0  0  0  0  0  0  0
   12.7166   -1.2619   22.6679 C   0  0  0  0  0  0  0  0  0  0  0  0
   11.8132   -1.7178   22.5210 C   0  0  0  0  0  0  0  0  0  0  0  0
    9.7389   -0.5663   22.3698 C   0  0  0  0  0  0  0  0  0  0  0  0
    9.0639    0.0738   21.3835 C   0  0  0  0  0  0  0  0  0  0  0  0
    9.5669    0.9921   20.9768 O   0  0  0  0  0  0  0  0  0  0  0  0
    7.9153   -0.4794   21.1081 N   0  0  0  0  0  0  0  0  0  0  0  0
    7.2094   -0.0887   20.1456 C   0  0  0  0  0  0  0  0  0  0  0  0
    7.2491   -0.0138   18.8473 C   0  0  0  0  0  0  0  0  0  0  0  0
    6.8255    0.2934   17.7582 N   0  0  0  0  0  0  0  0  0  0  0  0
    5.6095    0.8793   18.2417 C   0  0  0  0  0  0  0  0  0  0  0  0
    5.2538    0.9589   19.3565 C   0  0  0  0  0  0  0  0  0  0  0  0
    5.7818    0.5810   20.5220 C   0  0  0  0  0  0  0  0  0  0  0  0
    5.3173    0.7073   21.9978 C   0  0  0  0  0  0  0  0  0  0  0  0
 20 21  2  0  0  0  0
 19 20  1  0  0  0  0
 21 22  1  0  0  0  0
 18 19  2  0  0  0  0
 22 23  2  0  0  0  0
 18 23  1  0  0  0  0
 17 18  1  0  0  0  0
 23 24  1  0  0  0  0
 15 16  2  0  0  0  0
 15 17  1  0  0  0  0
 14 15  1  0  0  0  0
  8 14  1  0  0  0  0
 12 13  2  0  0  0  0
  8 13  1  0  0  0  0
 11 12  1  0  0  0  0
  7  8  1  0  0  0  0
 10 11  1  0  0  0  0
  6  7  2  3  0  0  0
  5  6  1  0  0  0  0
  9 10  2  0  0  0  0
  2  5  1  0  0  0  0
  2  3  2  0  0  0  0
  1  2  1  0  0  0  0
  2  4  2  0  0  0  0
M  END
> <Shapegauss>
-286.453827

$$$$
