stable:False satoms:8 tatoms:24 sratio:0.3333333333333333
  -OEChem-08062417023D

 47 47  0     1  0  0  0  0  0999 V2000
    6.3888   -5.1471   26.2478 C   0  0  0  0  0  0  0  0  0  0  0  0
    8.0236   -4.5456   26.0624 S   0  0  0  0  0  0  0  0  0  0  0  0
    8.8932   -5.7009   26.0306 O   0  0  0  0  0  0  0  0  0  0  0  0
    8.3226   -3.7138   27.1869 O   0  0  0  0  0  0  0  0  0  0  0  0
    8.0054   -3.7357   24.6762 N   0  0  0  0  0  0  0  0  0  0  0  0
    8.8663   -3.0451   24.2090 C   0  0  0  0  0  0  0  0  0  0  0  0
    9.3159   -2.0507   23.6541 C   0  0  0  0  0  0  0  0  0  0  0  0
   10.2213   -1.1926   23.4486 C   0  0  1  0  0  0  0  0  0  0  0  0
   10.8546   -0.0353   24.6989 C   0  0  0  0  0  0  0  0  0  0  0  0
   11.8264    0.2362   24.6741 C   0  0  0  0  0  0  0  0  0  0  0  0
   13.0084   -0.1910   23.9209 C   0  0  0  0  0  0  0  0  0  0  0  0
   12.6634   -1.2486   23.0614 C   0  0  0  0  0  0  0  0  0  0  0  0
   11.7808   -1.7132   22.8361 C   0  0  0  0  0  0  0  0  0  0  0  0
    9.6981   -0.5920   22.5973 C   0  0  0  0  0  0  0  0  0  0  0  0
    9.0761    0.0787   21.5966 C   0  0  0  0  0  0  0  0  0  0  0  0
    9.5860    1.0223   21.2630 O   0  0  0  0  0  0  0  0  0  0  0  0
    7.9591   -0.4817   21.2230 N   0  0  0  0  0  0  0  0  0  0  0  0
    7.3097   -0.0618   20.2334 C   0  0  0  0  0  0  0  0  0  0  0  0
    7.4324    0.0701   18.9448 C   0  0  0  0  0  0  0  0  0  0  0  0
    7.0745    0.4170   17.8441 N   0  0  0  0  0  0  0  0  0  0  0  0
    5.8182    0.9604   18.2707 C   0  0  0  0  0  0  0  0  0  0  0  0
    5.3891    0.9854   19.3620 C   0  0  0  0  0  0  0  0  0  0  0  0
    5.8476    0.5663   20.5428 C   0  0  0  0  0  0  0  0  0  0  0  0
    5.2855    0.6204   21.9888 C   0  0  0  0  0  0  0  0  0  0  0  0
    6.3124   -5.7204   27.1835 H   0  0  0  0  0  0  0  0  0  0  0  0
    5.6878   -4.2999   26.2788 H   0  0  0  0  0  0  0  0  0  0  0  0
    6.1392   -5.7985   25.3973 H   0  0  0  0  0  0  0  0  0  0  0  0
    7.2099   -3.1337   24.7464 H   0  0  0  0  0  0  0  0  0  0  0  0
    9.7527   -3.6410   24.3690 H   0  0  0  0  0  0  0  0  0  0  0  0
    8.5198   -1.7461   22.9909 H   0  0  0  0  0  0  0  0  0  0  0  0
   10.4384   -0.5978   24.3481 H   0  0  0  0  0  0  0  0  0  0  0  0
   10.4973   -0.8227   24.0518 H   0  0  0  0  0  0  0  0  0  0  0  0
   10.1721    0.4615   25.3726 H   0  0  0  0  0  0  0  0  0  0  0  0
   12.0482    1.0324   25.3693 H   0  0  0  0  0  0  0  0  0  0  0  0
   13.7868   -0.5277   24.6214 H   0  0  0  0  0  0  0  0  0  0  0  0
   13.3893    0.6534   23.3277 H   0  0  0  0  0  0  0  0  0  0  0  0
   13.5084   -1.6562   22.5264 H   0  0  0  0  0  0  0  0  0  0  0  0
   11.8102   -2.5735   22.1839 H   0  0  0  0  0  0  0  0  0  0  0  0
   10.6696   -0.1912   22.2724 H   0  0  0  0  0  0  0  0  0  0  0  0
    9.2515    0.0860   23.3396 H   0  0  0  0  0  0  0  0  0  0  0  0
    7.6111   -1.2654   21.7374 H   0  0  0  0  0  0  0  0  0  0  0  0
    8.3916   -0.3862   18.7498 H   0  0  0  0  0  0  0  0  0  0  0  0
    5.1975    1.3952   17.5012 H   0  0  0  0  0  0  0  0  0  0  0  0
    4.4144    1.4462   19.4244 H   0  0  0  0  0  0  0  0  0  0  0  0
    4.7102   -0.2945   22.1936 H   0  0  0  0  0  0  0  0  0  0  0  0
    6.1185    0.6972   22.7032 H   0  0  0  0  0  0  0  0  0  0  0  0
    4.6298    1.4972   22.0946 H   0  0  0  0  0  0  0  0  0  0  0  0
 20 21  2  0  0  0  0
 19 20  1  0  0  0  0
 21 22  1  0  0  0  0
 18 19  2  0  0  0  0
 22 23  2  0  0  0  0
 18 23  1  0  0  0  0
 17 18  1  0  0  0  0
 23 24  1  0  0  0  0
 15 16  2  0  0  0  0
 15 17  1  0  0  0  0
 14 15  1  0  0  0  0
  8 14  1  0  0  0  0
 12 13  2  0  0  0  0
  8 13  1  0  0  0  0
 11 12  1  0  0  0  0
  7  8  1  0  0  0  0
 10 11  1  0  0  0  0
  6  7  2  3  0  0  0
  5  6  1  0  0  0  0
  9 10  2  0  0  0  0
  2  5  1  0  0  0  0
  2  3  2  0  0  0  0
  1  2  1  0  0  0  0
  2  4  2  0  0  0  0
  1 25  1  0  0  0  0
  1 26  1  0  0  0  0
  1 27  1  0  0  0  0
  5 28  1  0  0  0  0
  6 29  1  0  0  0  0
  7 30  1  0  0  0  0
  8 31  1  0  0  0  0
  9 32  1  0  0  0  0
  9 33  1  0  0  0  0
 10 34  1  0  0  0  0
 11 35  1  0  0  0  0
 11 36  1  0  0  0  0
 12 37  1  0  0  0  0
 13 38  1  0  0  0  0
 14 39  1  0  0  0  0
 14 40  1  0  0  0  0
 17 41  1  0  0  0  0
 19 42  1  0  0  0  0
 21 43  1  0  0  0  0
 22 44  1  0  0  0  0
 24 45  1  0  0  0  0
 24 46  1  0  0  0  0
 24 47  1  0  0  0  0
M  END
> <Chemgauss4>
-13.360494

$$$$
