stable:False satoms:8 tatoms:24 sratio:0.3333333333333333
  -OEChem-07092417453D

 24 25  0     1  0  0  0  0  0999 V2000
    6.7475   -4.8702   26.4103 C   0  0  0  0  0  0  0  0  0  0  0  0
    8.1835   -4.3491   26.0963 S   0  0  0  0  0  0  0  0  0  0  0  0
    9.0915   -5.4822   25.9761 O   0  0  0  0  0  0  0  0  0  0  0  0
    8.6317   -3.4411   27.1394 O   0  0  0  0  0  0  0  0  0  0  0  0
    8.1216   -3.5811   24.6769 N   0  0  0  0  0  0  0  0  0  0  0  0
    8.9526   -2.9147   24.1541 C   0  0  0  0  0  0  0  0  0  0  0  0
    9.4451   -1.9894   23.5099 C   0  0  0  0  0  0  0  0  0  0  0  0
   10.3486   -1.1463   23.2189 C   0  0  1  0  0  0  0  0  0  0  0  0
   11.0696    0.0341   24.2432 C   0  0  0  0  0  0  0  0  0  0  0  0
   12.0603    0.2983   24.2248 C   0  0  0  0  0  0  0  0  0  0  0  0
   13.1559   -0.1690   23.4582 C   0  0  0  0  0  0  0  0  0  0  0  0
   12.7583   -1.2634   22.6531 C   0  0  0  0  0  0  0  0  0  0  0  0
   11.8325   -1.7209   22.5405 C   0  0  0  0  0  0  0  0  0  0  0  0
    9.6640   -0.5830   22.3780 C   0  0  0  0  0  0  0  0  0  0  0  0
    9.0059    0.0339   21.4055 C   0  0  0  0  0  0  0  0  0  0  0  0
    9.5288    0.9699   20.9825 O   0  0  0  0  0  0  0  0  0  0  0  0
    7.8523   -0.5537   21.1459 N   0  0  0  0  0  0  0  0  0  0  0  0
    7.2018   -0.0849   20.1693 C   0  0  0  0  0  0  0  0  0  0  0  0
    7.2432    0.0283   18.9174 C   0  0  0  0  0  0  0  0  0  0  0  0
    6.8061    0.3206   17.7283 N   0  0  0  0  0  0  0  0  0  0  0  0
    5.6826    0.8880   18.2420 C   0  0  0  0  0  0  0  0  0  0  0  0
    5.2958    0.9816   19.4013 C   0  0  0  0  0  0  0  0  0  0  0  0
    5.7501    0.6008   20.5456 C   0  0  0  0  0  0  0  0  0  0  0  0
    5.1548    0.7033   22.0791 Br  0  0  0  0  0  0  0  0  0  0  0  0
 20 21  2  0  0  0  0
 19 20  1  0  0  0  0
 21 22  1  0  0  0  0
 18 19  2  0  0  0  0
 22 23  2  0  0  0  0
 18 23  1  0  0  0  0
 17 18  1  0  0  0  0
 23 24  1  0  0  0  0
 15 16  2  0  0  0  0
 15 17  1  0  0  0  0
 14 15  1  0  0  0  0
  8 14  1  0  0  0  0
 12 13  1  0  0  0  0
  8 13  1  0  0  0  0
 11 12  2  0  0  0  0
  7  8  1  0  0  0  0
  8  9  1  0  0  0  0
 10 11  1  0  0  0  0
  6  7  2  3  0  0  0
  5  6  1  0  0  0  0
  9 10  2  0  0  0  0
  2  5  1  0  0  0  0
  2  3  2  0  0  0  0
  1  2  1  0  0  0  0
  2  4  2  0  0  0  0
M  END
> <Shapegauss>
-286.068573

$$$$
