stable:False satoms:8 tatoms:24 sratio:0.3333333333333333
  -OEChem-08062414553D

 42 43  0     1  0  0  0  0  0999 V2000
   -6.1974   -5.1210  -25.8161 C   0  0  0  0  0  0  0  0  0  0  0  0
   -7.6656   -4.6083  -25.6995 S   0  0  0  0  0  0  0  0  0  0  0  0
   -8.5686   -5.7485  -25.6133 O   0  0  0  0  0  0  0  0  0  0  0  0
   -8.0020   -3.7729  -26.8407 O   0  0  0  0  0  0  0  0  0  0  0  0
   -7.7749   -3.7555  -24.3324 N   0  0  0  0  0  0  0  0  0  0  0  0
   -8.6676   -3.0742  -23.9492 C   0  0  0  0  0  0  0  0  0  0  0  0
   -9.2409   -2.1210  -23.4233 C   0  0  0  0  0  0  0  0  0  0  0  0
  -10.1812   -1.2786  -23.2891 C   0  0  1  0  0  0  0  0  0  0  0  0
  -10.7937   -0.1751  -24.4594 C   0  0  0  0  0  0  0  0  0  0  0  0
  -11.7830    0.0716  -24.5697 C   0  0  0  0  0  0  0  0  0  0  0  0
  -12.9536   -0.3687  -23.9048 C   0  0  0  0  0  0  0  0  0  0  0  0
  -12.6382   -1.4054  -22.9938 C   0  0  0  0  0  0  0  0  0  0  0  0
  -11.7263   -1.8384  -22.7491 C   0  0  0  0  0  0  0  0  0  0  0  0
   -9.6035   -0.6535  -22.4124 C   0  0  0  0  0  0  0  0  0  0  0  0
   -9.0677    0.0326  -21.4116 C   0  0  0  0  0  0  0  0  0  0  0  0
   -9.6460    0.9826  -21.1091 O   0  0  0  0  0  0  0  0  0  0  0  0
   -7.9448   -0.5172  -20.9872 N   0  0  0  0  0  0  0  0  0  0  0  0
   -7.4154    0.0211  -19.9739 C   0  0  0  0  0  0  0  0  0  0  0  0
   -7.6008    0.2085  -18.7442 C   0  0  0  0  0  0  0  0  0  0  0  0
   -7.3057    0.5795  -17.5335 N   0  0  0  0  0  0  0  0  0  0  0  0
   -6.1373    1.1354  -17.9507 C   0  0  0  0  0  0  0  0  0  0  0  0
   -5.6217    1.1663  -19.0622 C   0  0  0  0  0  0  0  0  0  0  0  0
   -5.9380    0.7093  -20.2249 C   0  0  0  0  0  0  0  0  0  0  0  0
   -5.1727    0.7304  -21.6845 Br  0  0  0  0  0  0  0  0  0  0  0  0
   -6.0858   -5.7084  -26.7394 H   0  0  0  0  0  0  0  0  0  0  0  0
   -5.5103   -4.2624  -25.8425 H   0  0  0  0  0  0  0  0  0  0  0  0
   -5.9602   -5.7539  -24.9482 H   0  0  0  0  0  0  0  0  0  0  0  0
   -6.9861   -3.1414  -24.3580 H   0  0  0  0  0  0  0  0  0  0  0  0
   -9.5153   -3.6676  -24.2586 H   0  0  0  0  0  0  0  0  0  0  0  0
   -8.5627   -1.8466  -22.6289 H   0  0  0  0  0  0  0  0  0  0  0  0
  -10.0842    0.2917  -25.1265 H   0  0  0  0  0  0  0  0  0  0  0  0
  -11.9672    0.8069  -25.3390 H   0  0  0  0  0  0  0  0  0  0  0  0
  -13.9441    0.0291  -24.0691 H   0  0  0  0  0  0  0  0  0  0  0  0
  -13.4869   -1.8141  -22.4655 H   0  0  0  0  0  0  0  0  0  0  0  0
  -11.6776   -1.8166  -21.6504 H   0  0  0  0  0  0  0  0  0  0  0  0
  -11.7960   -2.8811  -23.0924 H   0  0  0  0  0  0  0  0  0  0  0  0
   -9.2171    0.0684  -23.1470 H   0  0  0  0  0  0  0  0  0  0  0  0
   -8.8744   -1.4662  -22.2786 H   0  0  0  0  0  0  0  0  0  0  0  0
   -7.5383   -1.3109  -21.4398 H   0  0  0  0  0  0  0  0  0  0  0  0
   -8.6086   -0.1588  -18.6186 H   0  0  0  0  0  0  0  0  0  0  0  0
   -5.5708    1.6309  -17.1760 H   0  0  0  0  0  0  0  0  0  0  0  0
   -4.6836    1.7013  -19.0688 H   0  0  0  0  0  0  0  0  0  0  0  0
 20 21  2  0  0  0  0
 19 20  1  0  0  0  0
 21 22  1  0  0  0  0
 18 19  2  0  0  0  0
 22 23  2  0  0  0  0
 18 23  1  0  0  0  0
 17 18  1  0  0  0  0
 23 24  1  0  0  0  0
 15 16  2  0  0  0  0
 15 17  1  0  0  0  0
 14 15  1  0  0  0  0
  8 14  1  0  0  0  0
 12 13  1  0  0  0  0
  8 13  1  0  0  0  0
 11 12  2  0  0  0  0
  7  8  1  0  0  0  0
  8  9  1  0  0  0  0
 10 11  1  0  0  0  0
  6  7  2  3  0  0  0
  5  6  1  0  0  0  0
  9 10  2  0  0  0  0
  2  5  1  0  0  0  0
  2  3  2  0  0  0  0
  1  2  1  0  0  0  0
  2  4  2  0  0  0  0
  1 25  1  0  0  0  0
  1 26  1  0  0  0  0
  1 27  1  0  0  0  0
  5 28  1  0  0  0  0
  6 29  1  0  0  0  0
  7 30  1  0  0  0  0
  9 31  1  0  0  0  0
 10 32  1  0  0  0  0
 11 33  1  0  0  0  0
 12 34  1  0  0  0  0
 13 35  1  0  0  0  0
 13 36  1  0  0  0  0
 14 37  1  0  0  0  0
 14 38  1  0  0  0  0
 17 39  1  0  0  0  0
 19 40  1  0  0  0  0
 21 41  1  0  0  0  0
 22 42  1  0  0  0  0
M  END
> <Chemgauss4>
-12.858151

$$$$
