stable:False satoms:8 tatoms:24 sratio:0.3333333333333333
  -OEChem-08062414553D

 42 43  0     1  0  0  0  0  0999 V2000
    6.1396   -5.2139   26.1236 C   0  0  0  0  0  0  0  0  0  0  0  0
    7.6078   -4.7012   26.0071 S   0  0  0  0  0  0  0  0  0  0  0  0
    8.5108   -5.8414   25.9208 O   0  0  0  0  0  0  0  0  0  0  0  0
    7.9442   -3.8657   27.1483 O   0  0  0  0  0  0  0  0  0  0  0  0
    7.7171   -3.8484   24.6399 N   0  0  0  0  0  0  0  0  0  0  0  0
    8.6098   -3.1671   24.2567 C   0  0  0  0  0  0  0  0  0  0  0  0
    9.1831   -2.2139   23.7308 C   0  0  0  0  0  0  0  0  0  0  0  0
   10.1234   -1.3715   23.5966 C   0  0  1  0  0  0  0  0  0  0  0  0
   10.7359   -0.2680   24.7669 C   0  0  0  0  0  0  0  0  0  0  0  0
   11.7252   -0.0213   24.8772 C   0  0  0  0  0  0  0  0  0  0  0  0
   12.8958   -0.4616   24.2123 C   0  0  0  0  0  0  0  0  0  0  0  0
   12.5804   -1.4983   23.3014 C   0  0  0  0  0  0  0  0  0  0  0  0
   11.6685   -1.9313   23.0566 C   0  0  0  0  0  0  0  0  0  0  0  0
    9.5457   -0.7463   22.7200 C   0  0  0  0  0  0  0  0  0  0  0  0
    9.0099   -0.0603   21.7191 C   0  0  0  0  0  0  0  0  0  0  0  0
    9.5882    0.8897   21.4166 O   0  0  0  0  0  0  0  0  0  0  0  0
    7.8870   -0.6101   21.2947 N   0  0  0  0  0  0  0  0  0  0  0  0
    7.3576   -0.0718   20.2815 C   0  0  0  0  0  0  0  0  0  0  0  0
    7.5430    0.1156   19.0517 C   0  0  0  0  0  0  0  0  0  0  0  0
    7.2479    0.4866   17.8411 N   0  0  0  0  0  0  0  0  0  0  0  0
    6.0795    1.0426   18.2582 C   0  0  0  0  0  0  0  0  0  0  0  0
    5.5639    1.0735   19.3697 C   0  0  0  0  0  0  0  0  0  0  0  0
    5.8802    0.6165   20.5325 C   0  0  0  0  0  0  0  0  0  0  0  0
    5.1149    0.6376   21.9920 Br  0  0  0  0  0  0  0  0  0  0  0  0
    6.0280   -5.8013   27.0469 H   0  0  0  0  0  0  0  0  0  0  0  0
    5.4525   -4.3553   26.1500 H   0  0  0  0  0  0  0  0  0  0  0  0
    5.9024   -5.8467   25.2557 H   0  0  0  0  0  0  0  0  0  0  0  0
    6.9283   -3.2343   24.6655 H   0  0  0  0  0  0  0  0  0  0  0  0
    9.4575   -3.7605   24.5661 H   0  0  0  0  0  0  0  0  0  0  0  0
    8.5049   -1.9395   22.9364 H   0  0  0  0  0  0  0  0  0  0  0  0
   10.0264    0.1988   25.4340 H   0  0  0  0  0  0  0  0  0  0  0  0
   11.9094    0.7140   25.6465 H   0  0  0  0  0  0  0  0  0  0  0  0
   13.8863   -0.0638   24.3767 H   0  0  0  0  0  0  0  0  0  0  0  0
   13.4291   -1.9070   22.7730 H   0  0  0  0  0  0  0  0  0  0  0  0
   11.6198   -1.9095   21.9579 H   0  0  0  0  0  0  0  0  0  0  0  0
   11.7382   -2.9740   23.3999 H   0  0  0  0  0  0  0  0  0  0  0  0
    9.1593   -0.0245   23.4546 H   0  0  0  0  0  0  0  0  0  0  0  0
    8.8166   -1.5591   22.5861 H   0  0  0  0  0  0  0  0  0  0  0  0
    7.4805   -1.4038   21.7473 H   0  0  0  0  0  0  0  0  0  0  0  0
    8.5508   -0.2517   18.9261 H   0  0  0  0  0  0  0  0  0  0  0  0
    5.5130    1.5380   17.4835 H   0  0  0  0  0  0  0  0  0  0  0  0
    4.6257    1.6084   19.3763 H   0  0  0  0  0  0  0  0  0  0  0  0
 20 21  2  0  0  0  0
 19 20  1  0  0  0  0
 21 22  1  0  0  0  0
 18 19  2  0  0  0  0
 22 23  2  0  0  0  0
 18 23  1  0  0  0  0
 17 18  1  0  0  0  0
 23 24  1  0  0  0  0
 15 16  2  0  0  0  0
 15 17  1  0  0  0  0
 14 15  1  0  0  0  0
  8 14  1  0  0  0  0
 12 13  1  0  0  0  0
  8 13  1  0  0  0  0
 11 12  2  0  0  0  0
  7  8  1  0  0  0  0
  8  9  1  0  0  0  0
 10 11  1  0  0  0  0
  6  7  2  3  0  0  0
  5  6  1  0  0  0  0
  9 10  2  0  0  0  0
  2  5  1  0  0  0  0
  2  3  2  0  0  0  0
  1  2  1  0  0  0  0
  2  4  2  0  0  0  0
  1 25  1  0  0  0  0
  1 26  1  0  0  0  0
  1 27  1  0  0  0  0
  5 28  1  0  0  0  0
  6 29  1  0  0  0  0
  7 30  1  0  0  0  0
  9 31  1  0  0  0  0
 10 32  1  0  0  0  0
 11 33  1  0  0  0  0
 12 34  1  0  0  0  0
 13 35  1  0  0  0  0
 13 36  1  0  0  0  0
 14 37  1  0  0  0  0
 14 38  1  0  0  0  0
 17 39  1  0  0  0  0
 19 40  1  0  0  0  0
 21 41  1  0  0  0  0
 22 42  1  0  0  0  0
M  END
> <Chemgauss4>
-12.722006

$$$$
