stable:False satoms:12 tatoms:24 sratio:0.5
  -OEChem-07092417403D

 24 25  0     1  0  0  0  0  0999 V2000
    6.4515   -4.9790   26.4552 Br  0  0  0  0  0  0  0  0  0  0  0  0
    8.2910   -4.3013   26.1052 S   0  0  0  0  0  0  0  0  0  0  0  0
    9.0979   -5.4809   25.9887 O   0  0  0  0  0  0  0  0  0  0  0  0
    8.6148   -3.4236   27.1882 O   0  0  0  0  0  0  0  0  0  0  0  0
    8.1413   -3.5352   24.6651 N   0  0  0  0  0  0  0  0  0  0  0  0
    8.8738   -2.7968   24.1805 C   0  0  0  0  0  0  0  0  0  0  0  0
    9.4717   -1.8230   23.4669 C   0  0  0  0  0  0  0  0  0  0  0  0
   10.6911   -1.1508   23.2453 C   0  0  1  0  0  0  0  0  0  0  0  0
   11.2305   -0.3739   24.1466 C   0  0  0  0  0  0  0  0  0  0  0  0
   12.9193    0.7075   24.2180 H   0  0  0  0  0  0  0  0  0  0  0  0
   12.5694   -0.1102   23.7765 C   0  5  3  0  0  0  0  0  0  0  0  0
   12.7984   -1.0359   22.9504 C   0  0  0  0  0  0  0  0  0  0  0  0
   11.7926   -1.7079   22.6325 O   0  0  0  0  0  0  0  0  0  0  0  0
    9.6225   -0.8450   22.5761 C   0  0  3  0  0  0  0  0  0  0  0  0
    8.9530   -0.0367   21.4117 C   0  0  0  0  0  0  0  0  0  0  0  0
    9.5143    0.9099   20.9513 O   0  0  0  0  0  0  0  0  0  0  0  0
    7.7848   -0.5864   21.0810 N   0  0  0  0  0  0  0  0  0  0  0  0
    7.0194   -0.0435   20.1459 C   0  0  3  0  0  0  0  0  0  0  0  0
    7.1436   -0.0457   18.7312 C   0  0  0  0  0  0  0  0  0  0  0  0
    7.0988    0.0700   17.6220 N   0  0  0  0  0  0  0  0  0  0  0  0
    5.1309    1.1717   18.3701 H   0  0  0  0  0  0  0  0  0  0  0  0
    5.2379    0.9672   19.3971 C   0  5  0  0  0  0  0  0  0  0  0  0
    5.7600    0.5479   20.4755 C   0  0  0  0  0  0  0  0  0  0  0  0
    5.3757    0.6117   21.5155 H   0  0  0  0  0  0  0  0  0  0  0  0
 19 20  3  0  0  0  0
 21 22  1  0  0  0  0
 18 19  1  0  0  0  0
 22 23  2  0  0  0  0
 18 23  1  0  0  0  0
 17 18  1  0  0  0  0
 23 24  1  0  0  0  0
 15 16  2  0  0  0  0
 15 17  1  0  0  0  0
 14 15  1  0  0  0  0
  8 14  1  0  0  0  0
  7 14  1  0  0  0  0
 12 13  1  0  0  0  0
  8 13  1  0  0  0  0
 11 12  1  0  0  0  0
  7  8  1  0  0  0  0
  8  9  1  0  0  0  0
  6  7  2  0  0  0  0
  9 11  1  0  0  0  0
 10 11  1  0  0  0  0
  5  6  1  0  0  0  0
  2  5  1  0  0  0  0
  2  3  2  0  0  0  0
  1  2  1  0  0  0  0
  2  4  2  0  0  0  0
M  CHG  2  11  -1  22  -1
M  END
> <Shapegauss>
-248.407455

$$$$
