stable:False satoms:12 tatoms:24 sratio:0.5
  -OEChem-08062412283D

 35 36  0     1  0  0  0  0  0999 V2000
    6.5337   -4.6852   26.7681 Br  0  0  0  0  0  0  0  0  0  0  0  0
    8.3815   -4.0057   26.4692 S   0  0  0  0  0  0  0  0  0  0  0  0
    9.2013   -5.1817   26.4355 O   0  0  0  0  0  0  0  0  0  0  0  0
    8.6522   -3.0819   27.5283 O   0  0  0  0  0  0  0  0  0  0  0  0
    8.2881   -3.2999   24.9940 N   0  0  0  0  0  0  0  0  0  0  0  0
    9.0353   -2.5752   24.5112 C   0  0  0  0  0  0  0  0  0  0  0  0
    9.6562   -1.6257   23.7845 C   0  0  0  0  0  0  0  0  0  0  0  0
   10.8790   -0.9521   23.5877 C   0  0  1  0  0  0  0  0  0  0  0  0
   11.3736   -0.1344   24.4787 C   0  0  0  0  0  0  0  0  0  0  0  0
   13.3621    0.1057   25.0520 H   0  0  0  0  0  0  0  0  0  0  0  0
   12.7252    0.1261   24.1554 C   0  0  3  0  0  0  0  0  0  0  0  0
   12.9961   -0.8302   23.3783 C   0  0  0  0  0  0  0  0  0  0  0  0
   12.0098   -1.5235   23.0456 O   0  0  0  0  0  0  0  0  0  0  0  0
    9.8379   -0.6833   22.8617 C   0  0  3  0  0  0  0  0  0  0  0  0
    9.2131    0.0711   21.6379 C   0  0  0  0  0  0  0  0  0  0  0  0
    9.7867    1.0033   21.1635 O   0  0  0  0  0  0  0  0  0  0  0  0
    8.0642   -0.5020   21.2805 N   0  0  0  0  0  0  0  0  0  0  0  0
    7.3356   -0.0044   20.2923 C   0  0  3  0  0  0  0  0  0  0  0  0
    7.5204   -0.0628   18.8854 C   0  0  0  0  0  0  0  0  0  0  0  0
    7.5223    0.0075   17.7715 N   0  0  0  0  0  0  0  0  0  0  0  0
    4.6205    1.4522   19.3888 H   0  0  0  0  0  0  0  0  0  0  0  0
    5.5805    0.9590   19.4277 C   0  0  0  0  0  0  0  0  0  0  0  0
    6.0590    0.5885   20.5436 C   0  0  0  0  0  0  0  0  0  0  0  0
    5.6300    0.6909   21.5628 H   0  0  0  0  0  0  0  0  0  0  0  0
    7.4219   -2.8004   25.0061 H   0  0  0  0  0  0  0  0  0  0  0  0
    9.9067   -2.9099   25.0545 H   0  0  0  0  0  0  0  0  0  0  0  0
   10.8040    0.8066   24.4738 H   0  0  0  0  0  0  0  0  0  0  0  0
   11.3138   -0.5941   25.4762 H   0  0  0  0  0  0  0  0  0  0  0  0
   12.8355    1.0965   23.6492 H   0  0  0  0  0  0  0  0  0  0  0  0
   13.7231   -1.4855   23.8804 H   0  0  0  0  0  0  0  0  0  0  0  0
   13.4471   -0.4139   22.4654 H   0  0  0  0  0  0  0  0  0  0  0  0
    9.5135    0.1077   23.5539 H   0  0  0  0  0  0  0  0  0  0  0  0
    7.7481   -1.3181   21.7644 H   0  0  0  0  0  0  0  0  0  0  0  0
    7.8421    0.9700   20.3560 H   0  0  0  0  0  0  0  0  0  0  0  0
    6.1335    0.7811   18.5172 H   0  0  0  0  0  0  0  0  0  0  0  0
 19 20  3  0  0  0  0
 21 22  1  0  0  0  0
 18 19  1  0  0  0  0
 22 23  2  0  0  0  0
 18 23  1  0  0  0  0
 17 18  1  0  0  0  0
 23 24  1  0  0  0  0
 15 16  2  0  0  0  0
 15 17  1  0  0  0  0
 14 15  1  0  0  0  0
  8 14  1  0  0  0  0
  7 14  1  0  0  0  0
 12 13  1  0  0  0  0
  8 13  1  0  0  0  0
 11 12  1  0  0  0  0
  7  8  1  0  0  0  0
  8  9  1  0  0  0  0
  6  7  2  0  0  0  0
  9 11  1  0  0  0  0
 10 11  1  0  0  0  0
  5  6  1  0  0  0  0
  2  5  1  0  0  0  0
  2  3  2  0  0  0  0
  1  2  1  0  0  0  0
  2  4  2  0  0  0  0
  5 25  1  0  0  0  0
  6 26  1  0  0  0  0
  9 27  1  0  0  0  0
  9 28  1  0  0  0  0
 11 29  1  0  0  0  0
 12 30  1  0  0  0  0
 12 31  1  0  0  0  0
 14 32  1  0  0  0  0
 17 33  1  0  0  0  0
 18 34  1  0  0  0  0
 22 35  1  0  0  0  0
M  END
> <Chemgauss4>
-8.989275

$$$$
