stable:False satoms:12 tatoms:24 sratio:0.5
  -OEChem-08062412283D

 35 36  0     1  0  0  0  0  0999 V2000
   -6.6101   -4.7030  -26.6841 Br  0  0  0  0  0  0  0  0  0  0  0  0
   -8.4608   -4.0278  -26.3929 S   0  0  0  0  0  0  0  0  0  0  0  0
   -9.2720   -5.2080  -26.3208 O   0  0  0  0  0  0  0  0  0  0  0  0
   -8.7443   -3.1363  -27.4759 O   0  0  0  0  0  0  0  0  0  0  0  0
   -8.3633   -3.2801  -24.9388 N   0  0  0  0  0  0  0  0  0  0  0  0
   -9.1125   -2.5470  -24.4720 C   0  0  0  0  0  0  0  0  0  0  0  0
   -9.7355   -1.5817  -23.7685 C   0  0  0  0  0  0  0  0  0  0  0  0
  -10.9618   -0.9111  -23.5831 C   0  0  1  0  0  0  0  0  0  0  0  0
  -11.4675   -0.1223  -24.4936 C   0  0  0  0  0  0  0  0  0  0  0  0
  -13.4611    0.0880  -25.0609 H   0  0  0  0  0  0  0  0  0  0  0  0
  -12.8189    0.1381  -24.1693 C   0  0  3  0  0  0  0  0  0  0  0  0
  -13.0784   -0.7977  -23.3638 C   0  0  0  0  0  0  0  0  0  0  0  0
  -12.0853   -1.4747  -23.0179 O   0  0  0  0  0  0  0  0  0  0  0  0
   -9.9182   -0.6148  -22.8715 C   0  0  3  0  0  0  0  0  0  0  0  0
   -9.2911    0.1781  -21.6734 C   0  0  0  0  0  0  0  0  0  0  0  0
   -9.8683    1.1194  -21.2219 O   0  0  0  0  0  0  0  0  0  0  0  0
   -8.1361   -0.3769  -21.3072 N   0  0  0  0  0  0  0  0  0  0  0  0
   -7.4050    0.1534  -20.3381 C   0  0  3  0  0  0  0  0  0  0  0  0
   -7.5808    0.1336  -18.9290 C   0  0  0  0  0  0  0  0  0  0  0  0
   -7.5764    0.2353  -17.8175 N   0  0  0  0  0  0  0  0  0  0  0  0
   -4.6947    1.6534  -19.4932 H   0  0  0  0  0  0  0  0  0  0  0  0
   -5.6514    1.1528  -19.5121 C   0  0  0  0  0  0  0  0  0  0  0  0
   -6.1341    0.7476  -20.6140 C   0  0  0  0  0  0  0  0  0  0  0  0
   -5.7121    0.8241  -21.6384 H   0  0  0  0  0  0  0  0  0  0  0  0
   -7.5006   -2.7752  -24.9705 H   0  0  0  0  0  0  0  0  0  0  0  0
   -9.9848   -2.9029  -25.0001 H   0  0  0  0  0  0  0  0  0  0  0  0
  -10.9045    0.8223  -24.5189 H   0  0  0  0  0  0  0  0  0  0  0  0
  -11.4106   -0.6096  -25.4781 H   0  0  0  0  0  0  0  0  0  0  0  0
  -12.9329    1.1216  -23.6900 H   0  0  0  0  0  0  0  0  0  0  0  0
  -13.8039   -1.4719  -23.8426 H   0  0  0  0  0  0  0  0  0  0  0  0
  -13.5266   -0.3588  -22.4602 H   0  0  0  0  0  0  0  0  0  0  0  0
   -9.6036    0.1585  -23.5878 H   0  0  0  0  0  0  0  0  0  0  0  0
   -7.8173   -1.2041  -21.7699 H   0  0  0  0  0  0  0  0  0  0  0  0
   -7.9187    1.1221  -20.4261 H   0  0  0  0  0  0  0  0  0  0  0  0
   -6.1976    0.9970  -18.5935 H   0  0  0  0  0  0  0  0  0  0  0  0
 19 20  3  0  0  0  0
 21 22  1  0  0  0  0
 18 19  1  0  0  0  0
 22 23  2  0  0  0  0
 18 23  1  0  0  0  0
 17 18  1  0  0  0  0
 23 24  1  0  0  0  0
 15 16  2  0  0  0  0
 15 17  1  0  0  0  0
 14 15  1  0  0  0  0
  8 14  1  0  0  0  0
  7 14  1  0  0  0  0
 12 13  1  0  0  0  0
  8 13  1  0  0  0  0
 11 12  1  0  0  0  0
  7  8  1  0  0  0  0
  8  9  1  0  0  0  0
  6  7  2  0  0  0  0
  9 11  1  0  0  0  0
 10 11  1  0  0  0  0
  5  6  1  0  0  0  0
  2  5  1  0  0  0  0
  2  3  2  0  0  0  0
  1  2  1  0  0  0  0
  2  4  2  0  0  0  0
  5 25  1  0  0  0  0
  6 26  1  0  0  0  0
  9 27  1  0  0  0  0
  9 28  1  0  0  0  0
 11 29  1  0  0  0  0
 12 30  1  0  0  0  0
 12 31  1  0  0  0  0
 14 32  1  0  0  0  0
 17 33  1  0  0  0  0
 18 34  1  0  0  0  0
 22 35  1  0  0  0  0
M  END
> <Chemgauss4>
-9.066596

$$$$
