stable:False satoms:9 tatoms:24 sratio:0.375
  -OEChem-07092417423D

 24 24  0     1  0  0  0  0  0999 V2000
    6.4623   -5.0229   26.4438 Cl  0  0  0  0  0  0  0  0  0  0  0  0
    8.2631   -4.3998   26.1912 S   0  0  0  0  0  0  0  0  0  0  0  0
    9.1210   -5.5330   26.2346 O   0  0  0  0  0  0  0  0  0  0  0  0
    8.5221   -3.4298   27.1497 O   0  0  0  0  0  0  0  0  0  0  0  0
    8.1147   -3.8106   24.6987 N   0  0  0  0  0  0  0  0  0  0  0  0
    8.8365   -2.9510   24.2556 C   0  0  0  0  0  0  0  0  0  0  0  0
    9.2528   -2.1572   23.7830 C   0  0  0  0  0  0  0  0  0  0  0  0
   10.1830   -1.4616   23.0408 C   0  0  0  0  0  0  0  0  0  0  0  0
   11.5245   -0.1019   24.0028 C   0  0  0  0  0  0  0  0  0  0  0  0
   12.7055    0.4921   24.3407 C   0  0  0  0  0  0  0  0  0  0  0  0
   12.5424   -0.2068   23.7461 C   0  5  0  0  0  0  0  0  0  0  0  0
   13.1293   -0.8656   23.0741 H   0  0  0  0  0  0  0  0  0  0  0  0
   11.1710   -1.5313   22.5798 C   0  0  0  0  0  0  0  0  0  0  0  0
    9.9422   -0.6834   22.1858 C   0  0  0  0  0  0  0  0  0  0  0  0
    9.1244    0.1608   21.3590 C   0  0  0  0  0  0  0  0  0  0  0  0
    9.5160    1.1865   21.0389 O   0  0  0  0  0  0  0  0  0  0  0  0
    7.9841   -0.4681   21.0448 N   0  0  0  0  0  0  0  0  0  0  0  0
    7.1097    0.0259   20.2084 C   0  0  3  0  0  0  0  0  0  0  0  0
    7.1140    0.0972   18.7639 C   0  0  0  0  0  0  0  0  0  0  0  0
    7.2809    0.0872   17.6642 N   0  0  0  0  0  0  0  0  0  0  0  0
    5.0016    1.1658   18.3632 H   0  0  0  0  0  0  0  0  0  0  0  0
    5.4457    0.8863   19.2590 C   0  5  0  0  0  0  0  0  0  0  0  0
    5.8610    0.5639   20.4416 C   0  0  0  0  0  0  0  0  0  0  0  0
    5.3761    0.6671   21.4269 H   0  0  0  0  0  0  0  0  0  0  0  0
 19 20  3  0  0  0  0
 21 22  1  0  0  0  0
 18 19  1  0  0  0  0
 22 23  2  0  0  0  0
 18 23  1  0  0  0  0
 17 18  1  0  0  0  0
 23 24  1  0  0  0  0
 15 16  2  0  0  0  0
 15 17  1  0  0  0  0
 14 15  1  0  0  0  0
 13 14  1  0  0  0  0
  8 14  2  0  0  0  0
  8 13  1  0  0  0  0
  7  8  1  0  0  0  0
 11 12  1  0  0  0  0
  9 11  1  0  0  0  0
 10 11  1  0  0  0  0
  6  7  3  0  0  0  0
  9 10  1  0  0  0  0
  5  6  1  0  0  0  0
  2  5  1  0  0  0  0
  2  3  2  0  0  0  0
  1  2  1  0  0  0  0
  2  4  2  0  0  0  0
M  CHG  2  11  -1  22  -1
M  END
> <Shapegauss>
-251.527237

$$$$
