REMARK  1 active torsions:
REMARK  status: ('A' for Active; 'I' for Inactive)
REMARK    1  A    between atoms: C_1  and  C_4 
ROOT
HETATM    1  C   UNL     1       9.982  -1.437  23.925  1.00  0.00     0.267 A 
HETATM    2  O   UNL     1       8.651  -1.196  24.637  1.00  0.00    -0.350 OA
HETATM    3  C   UNL     1       6.934  -0.631  22.827  1.00  0.00     0.189 C 
HETATM    4  C   UNL     1      11.236  -0.813  23.069  1.00  0.00     0.268 C 
HETATM    5  H   UNL     1      11.538   0.800  22.071  1.00  0.00     0.168 HD
HETATM    6  O   UNL     1      12.383  -1.094  23.148  1.00  0.00    -0.269 OA
HETATM    7  N   UNL     1      10.749   0.161  22.244  1.00  0.00    -0.337 N 
HETATM    8  C   UNL     1       8.127  -1.258  20.971  1.00  0.00    -0.009 C 
HETATM    9  C   UNL     1       9.532   0.393  21.723  1.00  0.00     0.082 C 
HETATM   10  O   UNL     1       5.885  -0.211  22.210  1.00  0.00    -0.386 OA
HETATM   11  C   UNL     1       6.910  -1.372  20.384  1.00  0.00    -0.004 C 
HETATM   12  C   UNL     1       8.290  -0.470  22.173  1.00  0.00     0.061 C 
HETATM   13  C   UNL     1       5.669  -1.220  21.202  1.00  0.00     0.194 C 
HETATM   14  C   UNL     1       8.869  -1.049  23.508  1.00  0.00     0.196 A 
ENDROOT
BRANCH   1  15
HETATM   15  C   UNL     1      10.543  -2.591  24.840  1.00  0.00     0.430 C 
HETATM   16  F   UNL     1      11.218  -3.571  24.231  1.00  0.00    -0.167 F 
HETATM   17  F   UNL     1       9.541  -3.178  25.468  1.00  0.00    -0.167 F 
HETATM   18  F   UNL     1      11.395  -2.015  25.716  1.00  0.00    -0.167 F 
ENDBRANCH   1  15
TORSDOF 1
