MODEL 1
REMARK VINA RESULT:    -6.356      0.000      0.000
REMARK INTER + INTRA:          -6.339
REMARK INTER:                  -6.728
REMARK INTRA:                   0.389
REMARK UNBOUND:                 0.389
REMARK  1 active torsions:
REMARK  status: ('A' for Active; 'I' for Inactive)
REMARK    1  A    between atoms: C_1  and  C_4 
ROOT
HETATM    1  C   UNL     1       8.011  12.988   2.933  1.00  0.00     0.267 A 
HETATM    2  O   UNL     1       9.236  12.715   3.806  1.00  0.00    -0.350 OA
HETATM    3  C   UNL     1      10.511  14.924   4.006  1.00  0.00     0.189 C 
HETATM    4  C   UNL     1       7.412  13.353   1.449  1.00  0.00     0.268 C 
HETATM    5  H   UNL     1       8.139  14.077  -0.175  1.00  0.00     0.168 HD
HETATM    6  O   UNL     1       6.428  12.939   0.939  1.00  0.00    -0.269 OA
HETATM    7  N   UNL     1       8.281  14.211   0.836  1.00  0.00    -0.337 N 
HETATM    8  C   UNL     1       8.913  16.352   3.187  1.00  0.00    -0.009 C 
HETATM    9  C   UNL     1       9.202  15.070   1.307  1.00  0.00     0.082 C 
HETATM   10  O   UNL     1      11.427  15.805   4.207  1.00  0.00    -0.386 OA
HETATM   11  C   UNL     1       9.584  17.300   3.888  1.00  0.00    -0.004 C 
HETATM   12  C   UNL     1       9.556  15.103   2.844  1.00  0.00     0.061 C 
HETATM   13  C   UNL     1      10.703  16.905   4.796  1.00  0.00     0.194 C 
HETATM   14  C   UNL     1       8.986  13.702   3.253  1.00  0.00     0.196 A 
ENDROOT
BRANCH   1  15
HETATM   15  C   UNL     1       6.982  12.035   3.653  1.00  0.00     0.430 C 
HETATM   16  F   UNL     1       7.240  11.719   4.926  1.00  0.00    -0.167 F 
HETATM   17  F   UNL     1       6.917  10.889   3.001  1.00  0.00    -0.167 F 
HETATM   18  F   UNL     1       5.789  12.670   3.641  1.00  0.00    -0.167 F 
ENDBRANCH   1  15
TORSDOF 1
ENDMDL
MODEL 2
REMARK VINA RESULT:    -5.927     23.991     25.695
REMARK INTER + INTRA:          -5.885
REMARK INTER:                  -6.276
REMARK INTRA:                   0.391
REMARK UNBOUND:                 0.389
REMARK  1 active torsions:
REMARK  status: ('A' for Active; 'I' for Inactive)
REMARK    1  A    between atoms: C_1  and  C_4 
ROOT
HETATM    1  C   UNL     1       6.467  -4.129  22.200  1.00  0.00     0.267 A 
HETATM    2  O   UNL     1       5.457  -3.457  21.271  1.00  0.00    -0.350 OA
HETATM    3  C   UNL     1       6.282  -1.066  20.885  1.00  0.00     0.189 C 
HETATM    4  C   UNL     1       7.135  -4.223  23.697  1.00  0.00     0.268 C 
HETATM    5  H   UNL     1       7.198  -3.077  25.236  1.00  0.00     0.168 HD
HETATM    6  O   UNL     1       7.470  -5.194  24.285  1.00  0.00    -0.269 OA
HETATM    7  N   UNL     1       7.208  -2.960  24.213  1.00  0.00    -0.337 N 
HETATM    8  C   UNL     1       8.407  -1.264  21.725  1.00  0.00    -0.009 C 
HETATM    9  C   UNL     1       7.248  -1.742  23.647  1.00  0.00     0.082 C 
HETATM   10  O   UNL     1       6.343   0.184  20.585  1.00  0.00    -0.386 OA
HETATM   11  C   UNL     1       8.681  -0.194  20.939  1.00  0.00    -0.004 C 
HETATM   12  C   UNL     1       7.043  -1.575  22.091  1.00  0.00     0.061 C 
HETATM   13  C   UNL     1       7.648   0.317  19.987  1.00  0.00     0.194 C 
HETATM   14  C   UNL     1       6.365  -2.954  21.787  1.00  0.00     0.196 A 
ENDROOT
BRANCH   1  15
HETATM   15  C   UNL     1       6.429  -5.583  21.592  1.00  0.00     0.430 C 
HETATM   16  F   UNL     1       5.943  -5.706  20.353  1.00  0.00    -0.167 F 
HETATM   17  F   UNL     1       5.677  -6.356  22.354  1.00  0.00    -0.167 F 
HETATM   18  F   UNL     1       7.705  -6.026  21.558  1.00  0.00    -0.167 F 
ENDBRANCH   1  15
TORSDOF 1
ENDMDL
MODEL 3
REMARK VINA RESULT:    -5.850     21.259     22.819
REMARK INTER + INTRA:          -5.803
REMARK INTER:                  -6.189
REMARK INTRA:                   0.386
REMARK UNBOUND:                 0.389
REMARK  1 active torsions:
REMARK  status: ('A' for Active; 'I' for Inactive)
REMARK    1  A    between atoms: C_1  and  C_4 
ROOT
HETATM    1  C   UNL     1       6.913   0.690  20.006  1.00  0.00     0.267 A 
HETATM    2  O   UNL     1       8.247   0.177  19.462  1.00  0.00    -0.350 OA
HETATM    3  C   UNL     1       9.652  -0.521  21.482  1.00  0.00     0.189 C 
HETATM    4  C   UNL     1       6.104   1.846  20.845  1.00  0.00     0.268 C 
HETATM    5  H   UNL     1       6.597   3.239  22.071  1.00  0.00     0.168 HD
HETATM    6  O   UNL     1       5.030   2.290  20.621  1.00  0.00    -0.269 OA
HETATM    7  N   UNL     1       6.907   2.279  21.861  1.00  0.00    -0.337 N 
HETATM    8  C   UNL     1       8.023  -0.502  23.096  1.00  0.00    -0.009 C 
HETATM    9  C   UNL     1       7.936   1.716  22.516  1.00  0.00     0.082 C 
HETATM   10  O   UNL     1      10.635  -0.843  22.249  1.00  0.00    -0.386 OA
HETATM   11  C   UNL     1       8.847  -1.352  23.758  1.00  0.00    -0.004 C 
HETATM   12  C   UNL     1       8.534   0.337  22.035  1.00  0.00     0.061 C 
HETATM   13  C   UNL     1      10.075  -1.875  23.087  1.00  0.00     0.194 C 
HETATM   14  C   UNL     1       7.963   0.322  20.577  1.00  0.00     0.196 A 
ENDROOT
BRANCH   1  15
HETATM   15  C   UNL     1       5.964   0.161  18.865  1.00  0.00     0.430 C 
HETATM   16  F   UNL     1       6.446  -0.806  18.078  1.00  0.00    -0.167 F 
HETATM   17  F   UNL     1       5.649   1.159  18.060  1.00  0.00    -0.167 F 
HETATM   18  F   UNL     1       4.866  -0.340  19.471  1.00  0.00    -0.167 F 
ENDBRANCH   1  15
TORSDOF 1
ENDMDL
MODEL 4
REMARK VINA RESULT:    -5.811     23.426     24.642
REMARK INTER + INTRA:          -5.761
REMARK INTER:                  -6.150
REMARK INTRA:                   0.389
REMARK UNBOUND:                 0.389
REMARK  1 active torsions:
REMARK  status: ('A' for Active; 'I' for Inactive)
REMARK    1  A    between atoms: C_1  and  C_4 
ROOT
HETATM    1  C   UNL     1       7.549  -2.591  22.309  1.00  0.00     0.267 A 
HETATM    2  O   UNL     1       9.015  -2.247  22.049  1.00  0.00    -0.350 OA
HETATM    3  C   UNL     1       9.115   0.266  21.583  1.00  0.00     0.189 C 
HETATM    4  C   UNL     1       6.027  -2.741  21.712  1.00  0.00     0.268 C 
HETATM    5  H   UNL     1       5.110  -2.120  20.142  1.00  0.00     0.168 HD
HETATM    6  O   UNL     1       5.218  -3.563  21.977  1.00  0.00    -0.269 OA
HETATM    7  N   UNL     1       5.833  -1.760  20.781  1.00  0.00    -0.337 N 
HETATM    8  C   UNL     1       7.013   0.860  22.281  1.00  0.00    -0.009 C 
HETATM    9  C   UNL     1       6.407  -0.561  20.584  1.00  0.00     0.082 C 
HETATM   10  O   UNL     1       9.495   1.436  21.201  1.00  0.00    -0.386 OA
HETATM   11  C   UNL     1       7.551   2.096  22.433  1.00  0.00    -0.004 C 
HETATM   12  C   UNL     1       7.659  -0.122  21.438  1.00  0.00     0.061 C 
HETATM   13  C   UNL     1       9.021   2.297  22.257  1.00  0.00     0.194 C 
HETATM   14  C   UNL     1       8.108  -1.532  21.951  1.00  0.00     0.196 A 
ENDROOT
BRANCH   1  15
HETATM   15  C   UNL     1       7.749  -3.696  23.415  1.00  0.00     0.430 C 
HETATM   16  F   UNL     1       8.918  -3.696  24.064  1.00  0.00    -0.167 F 
HETATM   17  F   UNL     1       7.641  -4.891  22.865  1.00  0.00    -0.167 F 
HETATM   18  F   UNL     1       6.787  -3.499  24.342  1.00  0.00    -0.167 F 
ENDBRANCH   1  15
TORSDOF 1
ENDMDL
MODEL 5
REMARK VINA RESULT:    -5.791     30.623     31.865
REMARK INTER + INTRA:          -5.740
REMARK INTER:                  -6.132
REMARK INTRA:                   0.392
REMARK UNBOUND:                 0.389
REMARK  1 active torsions:
REMARK  status: ('A' for Active; 'I' for Inactive)
REMARK    1  A    between atoms: C_1  and  C_4 
ROOT
HETATM    1  C   UNL     1      22.463  -1.784  25.291  1.00  0.00     0.267 A 
HETATM    2  O   UNL     1      22.300  -2.652  24.044  1.00  0.00    -0.350 OA
HETATM    3  C   UNL     1      23.693  -4.763  24.423  1.00  0.00     0.189 C 
HETATM    4  C   UNL     1      23.443  -0.851  26.221  1.00  0.00     0.268 C 
HETATM    5  H   UNL     1      25.341  -0.611  26.386  1.00  0.00     0.168 HD
HETATM    6  O   UNL     1      23.169   0.147  26.795  1.00  0.00    -0.269 OA
HETATM    7  N   UNL     1      24.697  -1.392  26.196  1.00  0.00    -0.337 N 
HETATM    8  C   UNL     1      24.102  -4.543  26.669  1.00  0.00    -0.009 C 
HETATM    9  C   UNL     1      25.153  -2.633  25.955  1.00  0.00     0.082 C 
HETATM   10  O   UNL     1      24.360  -5.850  24.244  1.00  0.00    -0.386 OA
HETATM   11  C   UNL     1      24.292  -5.885  26.637  1.00  0.00    -0.004 C 
HETATM   12  C   UNL     1      24.173  -3.763  25.453  1.00  0.00     0.061 C 
HETATM   13  C   UNL     1      24.000  -6.651  25.388  1.00  0.00     0.194 C 
HETATM   14  C   UNL     1      23.001  -2.857  24.944  1.00  0.00     0.196 A 
ENDROOT
BRANCH   1  15
HETATM   15  C   UNL     1      21.008  -1.181  25.361  1.00  0.00     0.430 C 
HETATM   16  F   UNL     1      20.040  -1.868  24.746  1.00  0.00    -0.167 F 
HETATM   17  F   UNL     1      21.005   0.019  24.813  1.00  0.00    -0.167 F 
HETATM   18  F   UNL     1      20.673  -1.120  26.668  1.00  0.00    -0.167 F 
ENDBRANCH   1  15
TORSDOF 1
ENDMDL
MODEL 6
REMARK VINA RESULT:    -5.771     22.560     24.152
REMARK INTER + INTRA:          -5.719
REMARK INTER:                  -6.111
REMARK INTRA:                   0.391
REMARK UNBOUND:                 0.389
REMARK  1 active torsions:
REMARK  status: ('A' for Active; 'I' for Inactive)
REMARK    1  A    between atoms: C_1  and  C_4 
ROOT
HETATM    1  C   UNL     1      10.500   0.893  22.866  1.00  0.00     0.267 A 
HETATM    2  O   UNL     1      10.291   1.588  21.521  1.00  0.00    -0.350 OA
HETATM    3  C   UNL     1       8.430   0.316  20.311  1.00  0.00     0.189 C 
HETATM    4  C   UNL     1      11.013  -0.436  23.682  1.00  0.00     0.268 C 
HETATM    5  H   UNL     1      11.381  -2.263  23.219  1.00  0.00     0.168 HD
HETATM    6  O   UNL     1      11.592  -0.479  24.713  1.00  0.00    -0.269 OA
HETATM    7  N   UNL     1      10.702  -1.540  22.940  1.00  0.00    -0.337 N 
HETATM    8  C   UNL     1       7.641  -0.943  22.058  1.00  0.00    -0.009 C 
HETATM    9  C   UNL     1       9.778  -1.775  21.993  1.00  0.00     0.082 C 
HETATM   10  O   UNL     1       7.640  -0.149  19.407  1.00  0.00    -0.386 OA
HETATM   11  C   UNL     1       6.499  -1.007  21.329  1.00  0.00    -0.004 C 
HETATM   12  C   UNL     1       8.895  -0.597  21.426  1.00  0.00     0.061 C 
HETATM   13  C   UNL     1       6.364  -0.200  20.079  1.00  0.00     0.194 C 
HETATM   14  C   UNL     1       9.782   0.611  21.882  1.00  0.00     0.196 A 
ENDROOT
BRANCH   1  15
HETATM   15  C   UNL     1      10.819   2.159  23.748  1.00  0.00     0.430 C 
HETATM   16  F   UNL     1      10.478   3.349  23.243  1.00  0.00    -0.167 F 
HETATM   17  F   UNL     1      12.119   2.221  23.972  1.00  0.00    -0.167 F 
HETATM   18  F   UNL     1      10.133   2.014  24.903  1.00  0.00    -0.167 F 
ENDBRANCH   1  15
TORSDOF 1
ENDMDL
MODEL 7
REMARK VINA RESULT:    -5.708     26.958     28.690
REMARK INTER + INTRA:          -5.653
REMARK INTER:                  -6.086
REMARK INTRA:                   0.433
REMARK UNBOUND:                 0.389
REMARK  1 active torsions:
REMARK  status: ('A' for Active; 'I' for Inactive)
REMARK    1  A    between atoms: C_1  and  C_4 
ROOT
HETATM    1  C   UNL     1       6.688  -4.907  23.171  1.00  0.00     0.267 A 
HETATM    2  O   UNL     1       7.937  -5.507  23.817  1.00  0.00    -0.350 OA
HETATM    3  C   UNL     1       7.668  -5.235  26.346  1.00  0.00     0.189 C 
HETATM    4  C   UNL     1       5.803  -3.566  22.833  1.00  0.00     0.268 C 
HETATM    5  H   UNL     1       5.743  -1.767  23.503  1.00  0.00     0.168 HD
HETATM    6  O   UNL     1       5.200  -3.322  21.845  1.00  0.00    -0.269 OA
HETATM    7  N   UNL     1       5.907  -2.707  23.891  1.00  0.00    -0.337 N 
HETATM    8  C   UNL     1       5.445  -4.672  26.427  1.00  0.00    -0.009 C 
HETATM    9  C   UNL     1       6.192  -2.889  25.191  1.00  0.00     0.082 C 
HETATM   10  O   UNL     1       7.900  -5.155  27.610  1.00  0.00    -0.386 OA
HETATM   11  C   UNL     1       5.508  -5.126  27.703  1.00  0.00    -0.004 C 
HETATM   12  C   UNL     1       6.652  -4.302  25.721  1.00  0.00     0.061 C 
HETATM   13  C   UNL     1       6.749  -5.794  28.199  1.00  0.00     0.194 C 
HETATM   14  C   UNL     1       7.081  -4.943  24.358  1.00  0.00     0.196 A 
ENDROOT
BRANCH   1  15
HETATM   15  C   UNL     1       6.528  -5.913  21.969  1.00  0.00     0.430 C 
HETATM   16  F   UNL     1       6.953  -7.165  22.167  1.00  0.00    -0.167 F 
HETATM   17  F   UNL     1       7.202  -5.462  20.928  1.00  0.00    -0.167 F 
HETATM   18  F   UNL     1       5.206  -5.988  21.697  1.00  0.00    -0.167 F 
ENDBRANCH   1  15
TORSDOF 1
ENDMDL
MODEL 8
REMARK VINA RESULT:    -5.626      2.858      5.261
REMARK INTER + INTRA:          -5.566
REMARK INTER:                  -6.129
REMARK INTRA:                   0.563
REMARK UNBOUND:                 0.389
REMARK  1 active torsions:
REMARK  status: ('A' for Active; 'I' for Inactive)
REMARK    1  A    between atoms: C_1  and  C_4 
ROOT
HETATM    1  C   UNL     1       8.232  14.180   2.200  1.00  0.00     0.267 A 
HETATM    2  O   UNL     1       7.314  13.886   1.013  1.00  0.00    -0.350 OA
HETATM    3  C   UNL     1       5.438  12.380   1.883  1.00  0.00     0.189 C 
HETATM    4  C   UNL     1       9.324  13.616   3.288  1.00  0.00     0.268 C 
HETATM    5  H   UNL     1       9.842  11.880   3.927  1.00  0.00     0.168 HD
HETATM    6  O   UNL     1      10.287  14.163   3.703  1.00  0.00    -0.269 OA
HETATM    7  N   UNL     1       8.970  12.341   3.628  1.00  0.00    -0.337 N 
HETATM    8  C   UNL     1       5.781  12.620   4.138  1.00  0.00    -0.009 C 
HETATM    9  C   UNL     1       7.802  11.677   3.597  1.00  0.00     0.082 C 
HETATM   10  O   UNL     1       4.456  11.551   1.956  1.00  0.00    -0.386 OA
HETATM   11  C   UNL     1       4.480  12.251   4.246  1.00  0.00    -0.004 C 
HETATM   12  C   UNL     1       6.527  12.329   2.933  1.00  0.00     0.061 C 
HETATM   13  C   UNL     1       3.644  12.095   3.018  1.00  0.00     0.194 C 
HETATM   14  C   UNL     1       7.238  13.431   2.077  1.00  0.00     0.196 A 
ENDROOT
BRANCH   1  15
HETATM   15  C   UNL     1       8.619  15.666   1.847  1.00  0.00     0.430 C 
HETATM   16  F   UNL     1       9.063  16.429   2.851  1.00  0.00    -0.167 F 
HETATM   17  F   UNL     1       7.562  16.289   1.359  1.00  0.00    -0.167 F 
HETATM   18  F   UNL     1       9.612  15.605   0.934  1.00  0.00    -0.167 F 
ENDBRANCH   1  15
TORSDOF 1
ENDMDL
MODEL 9
REMARK VINA RESULT:    -5.495     27.649     29.501
REMARK INTER + INTRA:          -5.427
REMARK INTER:                  -5.830
REMARK INTRA:                   0.403
REMARK UNBOUND:                 0.389
REMARK  1 active torsions:
REMARK  status: ('A' for Active; 'I' for Inactive)
REMARK    1  A    between atoms: C_1  and  C_4 
ROOT
HETATM    1  C   UNL     1       5.906  -5.191  26.096  1.00  0.00     0.267 A 
HETATM    2  O   UNL     1       4.841  -4.407  25.328  1.00  0.00    -0.350 OA
HETATM    3  C   UNL     1       5.603  -4.320  22.887  1.00  0.00     0.189 C 
HETATM    4  C   UNL     1       7.440  -5.255  26.675  1.00  0.00     0.268 C 
HETATM    5  H   UNL     1       9.074  -4.310  26.318  1.00  0.00     0.168 HD
HETATM    6  O   UNL     1       7.811  -5.703  27.706  1.00  0.00    -0.269 OA
HETATM    7  N   UNL     1       8.264  -4.642  25.774  1.00  0.00    -0.337 N 
HETATM    8  C   UNL     1       7.266  -5.898  22.958  1.00  0.00    -0.009 C 
HETATM    9  C   UNL     1       8.163  -4.408  24.455  1.00  0.00     0.082 C 
HETATM   10  O   UNL     1       5.742  -3.995  21.649  1.00  0.00    -0.386 OA
HETATM   11  C   UNL     1       7.053  -5.998  21.622  1.00  0.00    -0.004 C 
HETATM   12  C   UNL     1       6.823  -4.729  23.685  1.00  0.00     0.061 C 
HETATM   13  C   UNL     1       5.913  -5.267  20.991  1.00  0.00     0.194 C 
HETATM   14  C   UNL     1       5.850  -4.797  24.911  1.00  0.00     0.196 A 
ENDROOT
BRANCH   1  15
HETATM   15  C   UNL     1       4.968  -5.940  27.117  1.00  0.00     0.430 C 
HETATM   16  F   UNL     1       3.698  -6.128  26.745  1.00  0.00    -0.167 F 
HETATM   17  F   UNL     1       4.917  -5.258  28.246  1.00  0.00    -0.167 F 
HETATM   18  F   UNL     1       5.503  -7.165  27.312  1.00  0.00    -0.167 F 
ENDBRANCH   1  15
TORSDOF 1
ENDMDL
