stable:False satoms:9 tatoms:24 sratio:0.375
  -OEChem-07092417423D

 24 24  0     0  0  0  0  0  0999 V2000
    6.7306   -4.8215   26.3030 O   0  0  0  0  0  0  0  0  0  0  0  0
    8.1361   -4.3940   26.0361 S   0  0  0  0  0  0  0  0  0  0  0  0
    9.0120   -5.5581   25.9821 O   0  0  0  0  0  0  0  0  0  0  0  0
    8.5536   -3.4948   27.0472 O   0  5  0  0  0  0  0  0  0  0  0  0
    8.1507   -3.6642   24.6115 N   0  0  0  0  0  0  0  0  0  0  0  0
    9.1259   -3.0374   24.2667 C   0  0  0  0  0  0  0  0  0  0  0  0
    9.6464   -2.1490   23.7584 C   0  0  0  0  0  0  0  0  0  0  0  0
   10.3158   -1.2923   23.0166 C   0  0  0  0  0  0  0  0  0  0  0  0
   11.5007    0.2668   24.5664 H   0  0  0  0  0  0  0  0  0  0  0  0
   12.4186    0.3790   24.3515 N   0  5  0  0  0  0  0  0  0  0  0  0
   13.0511   -0.2591   23.5946 C   0  0  0  0  0  0  0  0  0  0  0  0
   12.7858   -1.0953   22.8724 C   0  0  0  0  0  0  0  0  0  0  0  0
   11.6389   -1.4478   22.7984 C   0  0  0  0  0  0  0  0  0  0  0  0
    9.7409   -0.4382   22.3014 C   0  0  0  0  0  0  0  0  0  0  0  0
    9.0096    0.0739   21.2861 C   0  0  0  0  0  0  0  0  0  0  0  0
    9.4746    0.9990   20.6805 O   0  0  0  0  0  0  0  0  0  0  0  0
    7.8411   -0.5809   21.1151 N   0  0  0  0  0  0  0  0  0  0  0  0
    7.0515   -0.0312   20.2172 C   0  0  0  0  0  0  0  0  0  0  0  0
    7.0314    0.0487   18.8988 C   0  0  0  0  0  0  0  0  0  0  0  0
    6.4919    0.3136   17.8527 N   0  0  0  0  0  0  0  0  0  0  0  0
    5.4731    0.7762   18.2415 C   0  0  0  0  0  0  0  0  0  0  0  0
    5.2161    0.8674   19.3935 C   0  0  0  0  0  0  0  0  0  0  0  0
    5.7727    0.5572   20.5457 C   0  0  0  0  0  0  0  0  0  0  0  0
    5.4150    0.6917   21.5594 H   0  0  0  0  0  0  0  0  0  0  0  0
 20 21  2  0  0  0  0
 19 20  1  0  0  0  0
 21 22  1  0  0  0  0
 18 19  2  0  0  0  0
 22 23  2  0  0  0  0
 18 23  1  0  0  0  0
 17 18  1  0  0  0  0
 23 24  1  0  0  0  0
 15 16  2  0  0  0  0
 15 17  1  0  0  0  0
 14 15  1  0  0  0  0
  8 14  2  3  0  0  0
 12 13  2  0  0  0  0
  8 13  1  0  0  0  0
 11 12  1  0  0  0  0
  7  8  1  0  0  0  0
 10 11  1  0  0  0  0
  6  7  2  3  0  0  0
  5  6  1  0  0  0  0
  9 10  1  0  0  0  0
  2  5  1  0  0  0  0
  2  3  2  0  0  0  0
  1  2  2  0  0  0  0
  2  4  1  0  0  0  0
M  CHG  2   4  -1  10  -1
M  END
> <Shapegauss>
-270.272797

$$$$
