stable:False satoms:9 tatoms:24 sratio:0.375
  -OEChem-08062410593D

 38 38  0     0  0  0  0  0  0999 V2000
    6.8601   -5.0929   26.3108 O   0  0  0  0  0  0  0  0  0  0  0  0
    8.2721   -4.6519   26.1077 S   0  0  0  0  0  0  0  0  0  0  0  0
    9.1622   -5.8065   26.1064 O   0  0  0  0  0  0  0  0  0  0  0  0
    8.6308   -3.7393   27.1293 O   0  5  0  0  0  0  0  0  0  0  0  0
    8.3472   -3.9343   24.6788 N   0  0  0  0  0  0  0  0  0  0  0  0
    9.3310   -3.2996   24.3754 C   0  0  0  0  0  0  0  0  0  0  0  0
    9.8656   -2.4098   23.8845 C   0  0  0  0  0  0  0  0  0  0  0  0
   10.5606   -1.5520   23.1678 C   0  0  0  0  0  0  0  0  0  0  0  0
   12.1296   -0.4500   25.2448 H   0  0  0  0  0  0  0  0  0  0  0  0
   12.5786    0.1543   24.5866 N   0  3  0  0  0  0  0  0  0  0  0  0
   13.2536   -0.4831   23.8668 C   0  0  0  0  0  0  0  0  0  0  0  0
   13.0324   -1.3285   23.1404 C   0  0  0  0  0  0  0  0  0  0  0  0
   11.8942   -1.6945   23.0147 C   0  0  0  0  0  0  0  0  0  0  0  0
   10.0115   -0.7107   22.4181 C   0  0  0  0  0  0  0  0  0  0  0  0
    9.3243   -0.2157   21.3642 C   0  0  0  0  0  0  0  0  0  0  0  0
    9.8078    0.7094   20.7731 O   0  0  0  0  0  0  0  0  0  0  0  0
    8.1725   -0.8850   21.1434 N   0  0  0  0  0  0  0  0  0  0  0  0
    7.4210   -0.3521   20.2037 C   0  0  0  0  0  0  0  0  0  0  0  0
    7.4634   -0.2838   18.8852 C   0  0  0  0  0  0  0  0  0  0  0  0
    6.9720   -0.0340   17.8120 N   0  0  0  0  0  0  0  0  0  0  0  0
    5.9307    0.4204   18.1473 C   0  0  0  0  0  0  0  0  0  0  0  0
    5.6177    0.5186   19.2847 C   0  0  0  0  0  0  0  0  0  0  0  0
    6.1216    0.2247   20.4651 C   0  0  0  0  0  0  0  0  0  0  0  0
    5.7142    0.3639   21.4592 H   0  0  0  0  0  0  0  0  0  0  0  0
    7.5708   -3.3061   24.6292 H   0  0  0  0  0  0  0  0  0  0  0  0
   10.1416   -3.8824   24.7871 H   0  0  0  0  0  0  0  0  0  0  0  0
    9.4934   -1.6747   24.5828 H   0  0  0  0  0  0  0  0  0  0  0  0
   13.1457    0.8171   25.0755 H   0  0  0  0  0  0  0  0  0  0  0  0
   14.0017   -0.9211   24.5439 H   0  0  0  0  0  0  0  0  0  0  0  0
   13.7336    0.2763   23.2320 H   0  0  0  0  0  0  0  0  0  0  0  0
   13.8271   -1.7928   22.5754 H   0  0  0  0  0  0  0  0  0  0  0  0
   11.9896   -2.6444   22.5098 H   0  0  0  0  0  0  0  0  0  0  0  0
   10.2212    0.1999   22.9596 H   0  0  0  0  0  0  0  0  0  0  0  0
    7.9145   -1.7094   21.6473 H   0  0  0  0  0  0  0  0  0  0  0  0
    8.4551   -0.6343   18.6400 H   0  0  0  0  0  0  0  0  0  0  0  0
    5.2415    0.7575   17.3872 H   0  0  0  0  0  0  0  0  0  0  0  0
    4.6454    0.9787   19.3814 H   0  0  0  0  0  0  0  0  0  0  0  0
   11.8858    0.6385   24.0522 H   0  0  0  0  0  0  0  0  0  0  0  0
 20 21  2  0  0  0  0
 19 20  1  0  0  0  0
 21 22  1  0  0  0  0
 18 19  2  0  0  0  0
 22 23  2  0  0  0  0
 18 23  1  0  0  0  0
 17 18  1  0  0  0  0
 23 24  1  0  0  0  0
 15 16  2  0  0  0  0
 15 17  1  0  0  0  0
 14 15  1  0  0  0  0
  8 14  2  3  0  0  0
 12 13  2  0  0  0  0
  8 13  1  0  0  0  0
 11 12  1  0  0  0  0
  7  8  1  0  0  0  0
 10 11  1  0  0  0  0
  6  7  2  3  0  0  0
  5  6  1  0  0  0  0
  9 10  1  0  0  0  0
  2  5  1  0  0  0  0
  2  3  2  0  0  0  0
  1  2  2  0  0  0  0
  2  4  1  0  0  0  0
  5 25  1  0  0  0  0
  6 26  1  0  0  0  0
  7 27  1  0  0  0  0
 10 28  1  0  0  0  0
 11 29  1  0  0  0  0
 11 30  1  0  0  0  0
 12 31  1  0  0  0  0
 13 32  1  0  0  0  0
 14 33  1  0  0  0  0
 17 34  1  0  0  0  0
 19 35  1  0  0  0  0
 21 36  1  0  0  0  0
 22 37  1  0  0  0  0
 10 38  1  0  0  0  0
M  CHG  2   4  -1  10   1
M  END
> <Chemgauss4>
-10.836624

$$$$
