stable:False satoms:9 tatoms:24 sratio:0.375
  -OEChem-08062410593D

 38 38  0     0  0  0  0  0  0999 V2000
   -6.5774   -5.0929  -26.2438 O   0  0  0  0  0  0  0  0  0  0  0  0
   -7.9894   -4.6519  -26.0407 S   0  0  0  0  0  0  0  0  0  0  0  0
   -8.8795   -5.8065  -26.0394 O   0  0  0  0  0  0  0  0  0  0  0  0
   -8.3481   -3.7393  -27.0623 O   0  5  0  0  0  0  0  0  0  0  0  0
   -8.0645   -3.9343  -24.6118 N   0  0  0  0  0  0  0  0  0  0  0  0
   -9.0483   -3.2996  -24.3084 C   0  0  0  0  0  0  0  0  0  0  0  0
   -9.5830   -2.4098  -23.8175 C   0  0  0  0  0  0  0  0  0  0  0  0
  -10.2779   -1.5520  -23.1008 C   0  0  0  0  0  0  0  0  0  0  0  0
  -11.8469   -0.4500  -25.1778 H   0  0  0  0  0  0  0  0  0  0  0  0
  -12.2959    0.1543  -24.5196 N   0  3  0  0  0  0  0  0  0  0  0  0
  -12.9709   -0.4831  -23.7998 C   0  0  0  0  0  0  0  0  0  0  0  0
  -12.7497   -1.3285  -23.0734 C   0  0  0  0  0  0  0  0  0  0  0  0
  -11.6115   -1.6945  -22.9477 C   0  0  0  0  0  0  0  0  0  0  0  0
   -9.7288   -0.7107  -22.3511 C   0  0  0  0  0  0  0  0  0  0  0  0
   -9.0416   -0.2157  -21.2972 C   0  0  0  0  0  0  0  0  0  0  0  0
   -9.5251    0.7094  -20.7062 O   0  0  0  0  0  0  0  0  0  0  0  0
   -7.8898   -0.8850  -21.0764 N   0  0  0  0  0  0  0  0  0  0  0  0
   -7.1383   -0.3521  -20.1367 C   0  0  0  0  0  0  0  0  0  0  0  0
   -7.1807   -0.2838  -18.8182 C   0  0  0  0  0  0  0  0  0  0  0  0
   -6.6893   -0.0340  -17.7450 N   0  0  0  0  0  0  0  0  0  0  0  0
   -5.6480    0.4204  -18.0803 C   0  0  0  0  0  0  0  0  0  0  0  0
   -5.3350    0.5186  -19.2178 C   0  0  0  0  0  0  0  0  0  0  0  0
   -5.8389    0.2247  -20.3981 C   0  0  0  0  0  0  0  0  0  0  0  0
   -5.4315    0.3639  -21.3922 H   0  0  0  0  0  0  0  0  0  0  0  0
   -7.2881   -3.3061  -24.5622 H   0  0  0  0  0  0  0  0  0  0  0  0
   -9.8590   -3.8824  -24.7202 H   0  0  0  0  0  0  0  0  0  0  0  0
   -9.2107   -1.6747  -24.5158 H   0  0  0  0  0  0  0  0  0  0  0  0
  -12.8630    0.8171  -25.0085 H   0  0  0  0  0  0  0  0  0  0  0  0
  -13.7190   -0.9211  -24.4769 H   0  0  0  0  0  0  0  0  0  0  0  0
  -13.4509    0.2763  -23.1650 H   0  0  0  0  0  0  0  0  0  0  0  0
  -13.5444   -1.7928  -22.5084 H   0  0  0  0  0  0  0  0  0  0  0  0
  -11.7069   -2.6444  -22.4428 H   0  0  0  0  0  0  0  0  0  0  0  0
   -9.9385    0.1999  -22.8926 H   0  0  0  0  0  0  0  0  0  0  0  0
   -7.6318   -1.7094  -21.5803 H   0  0  0  0  0  0  0  0  0  0  0  0
   -8.1724   -0.6343  -18.5730 H   0  0  0  0  0  0  0  0  0  0  0  0
   -4.9588    0.7575  -17.3202 H   0  0  0  0  0  0  0  0  0  0  0  0
   -4.3627    0.9787  -19.3144 H   0  0  0  0  0  0  0  0  0  0  0  0
  -11.6031    0.6385  -23.9852 H   0  0  0  0  0  0  0  0  0  0  0  0
 20 21  2  0  0  0  0
 19 20  1  0  0  0  0
 21 22  1  0  0  0  0
 18 19  2  0  0  0  0
 22 23  2  0  0  0  0
 18 23  1  0  0  0  0
 17 18  1  0  0  0  0
 23 24  1  0  0  0  0
 15 16  2  0  0  0  0
 15 17  1  0  0  0  0
 14 15  1  0  0  0  0
  8 14  2  3  0  0  0
 12 13  2  0  0  0  0
  8 13  1  0  0  0  0
 11 12  1  0  0  0  0
  7  8  1  0  0  0  0
 10 11  1  0  0  0  0
  6  7  2  3  0  0  0
  5  6  1  0  0  0  0
  9 10  1  0  0  0  0
  2  5  1  0  0  0  0
  2  3  2  0  0  0  0
  1  2  2  0  0  0  0
  2  4  1  0  0  0  0
  5 25  1  0  0  0  0
  6 26  1  0  0  0  0
  7 27  1  0  0  0  0
 10 28  1  0  0  0  0
 11 29  1  0  0  0  0
 11 30  1  0  0  0  0
 12 31  1  0  0  0  0
 13 32  1  0  0  0  0
 14 33  1  0  0  0  0
 17 34  1  0  0  0  0
 19 35  1  0  0  0  0
 21 36  1  0  0  0  0
 22 37  1  0  0  0  0
 10 38  1  0  0  0  0
M  CHG  2   4  -1  10   1
M  END
> <Chemgauss4>
-11.344856

$$$$
