stable:False satoms:8 tatoms:24 sratio:0.3333333333333333
  -OEChem-08062417543D

 47 47  0     1  0  0  0  0  0999 V2000
    6.3528   -5.1352   26.2797 C   0  0  0  0  0  0  0  0  0  0  0  0
    7.9017   -4.5699   26.0419 S   0  0  0  0  0  0  0  0  0  0  0  0
    8.7895   -5.7287   25.9787 O   0  0  0  0  0  0  0  0  0  0  0  0
    8.2589   -3.7061   27.1481 O   0  0  0  0  0  0  0  0  0  0  0  0
    7.8761   -3.7786   24.6588 N   0  0  0  0  0  0  0  0  0  0  0  0
    8.8164   -3.0850   24.1804 C   0  0  0  0  0  0  0  0  0  0  0  0
    9.2518   -2.0977   23.6127 C   0  0  0  0  0  0  0  0  0  0  0  0
   10.1316   -1.2217   23.5039 C   0  0  2  0  0  0  0  0  0  0  0  0
   10.8035   -0.1343   24.6340 C   0  0  0  0  0  0  0  0  0  0  0  0
   11.8001    0.1757   24.6508 C   0  0  0  0  0  0  0  0  0  0  0  0
   12.9630   -0.2188   23.8674 C   0  0  0  0  0  0  0  0  0  0  0  0
   12.6000   -1.3075   22.9841 C   0  0  0  0  0  0  0  0  0  0  0  0
   11.7492   -1.7961   22.7599 C   0  0  0  0  0  0  0  0  0  0  0  0
    9.6492   -0.6399   22.5572 C   0  0  0  0  0  0  0  0  0  0  0  0
    9.0359   -0.0068   21.5494 C   0  0  0  0  0  0  0  0  0  0  0  0
    9.4814    0.9804   21.1967 O   0  0  0  0  0  0  0  0  0  0  0  0
    7.9349   -0.6212   21.1639 N   0  0  0  0  0  0  0  0  0  0  0  0
    7.2108   -0.1327   20.2412 C   0  0  0  0  0  0  0  0  0  0  0  0
    7.3671    0.0055   18.9295 C   0  0  0  0  0  0  0  0  0  0  0  0
    6.9980    0.3905   17.8347 N   0  0  0  0  0  0  0  0  0  0  0  0
    5.8091    0.9426   18.2355 C   0  0  0  0  0  0  0  0  0  0  0  0
    5.3293    0.9758   19.3622 C   0  0  0  0  0  0  0  0  0  0  0  0
    5.8385    0.4853   20.5379 C   0  0  0  0  0  0  0  0  0  0  0  0
    5.2393    0.5517   21.9959 C   0  0  0  0  0  0  0  0  0  0  0  0
    6.3071   -5.6941   27.2260 H   0  0  0  0  0  0  0  0  0  0  0  0
    5.6551   -4.2858   26.3215 H   0  0  0  0  0  0  0  0  0  0  0  0
    6.0732   -5.7988   25.4482 H   0  0  0  0  0  0  0  0  0  0  0  0
    7.0995   -3.1527   24.7299 H   0  0  0  0  0  0  0  0  0  0  0  0
    9.6978   -3.6772   24.3774 H   0  0  0  0  0  0  0  0  0  0  0  0
    8.5350   -1.8780   22.8354 H   0  0  0  0  0  0  0  0  0  0  0  0
   11.0290   -1.7367   23.1305 H   0  0  0  0  0  0  0  0  0  0  0  0
   10.1458    0.2648   25.3920 H   0  0  0  0  0  0  0  0  0  0  0  0
   12.0090    0.9341   25.3907 H   0  0  0  0  0  0  0  0  0  0  0  0
   13.7669   -0.5464   24.5429 H   0  0  0  0  0  0  0  0  0  0  0  0
   13.3115    0.6373   23.2709 H   0  0  0  0  0  0  0  0  0  0  0  0
   13.4474   -1.6870   22.4326 H   0  0  0  0  0  0  0  0  0  0  0  0
   11.7620   -2.5993   22.0381 H   0  0  0  0  0  0  0  0  0  0  0  0
   10.8235   -1.5172   23.2411 H   0  0  0  0  0  0  0  0  0  0  0  0
   10.1088   -1.3535   21.8574 H   0  0  0  0  0  0  0  0  0  0  0  0
   10.3270    0.2131   22.7088 H   0  0  0  0  0  0  0  0  0  0  0  0
    7.6673   -1.4796   21.6016 H   0  0  0  0  0  0  0  0  0  0  0  0
    8.3149   -0.4722   18.7299 H   0  0  0  0  0  0  0  0  0  0  0  0
    5.2201    1.4076   17.4588 H   0  0  0  0  0  0  0  0  0  0  0  0
    4.3675    1.4608   19.4414 H   0  0  0  0  0  0  0  0  0  0  0  0
    4.6329   -0.3464   22.1849 H   0  0  0  0  0  0  0  0  0  0  0  0
    6.0594    0.6008   22.7273 H   0  0  0  0  0  0  0  0  0  0  0  0
    4.6079    1.4473   22.0923 H   0  0  0  0  0  0  0  0  0  0  0  0
 20 21  2  0  0  0  0
 19 20  1  0  0  0  0
 21 22  1  0  0  0  0
 18 19  2  0  0  0  0
 22 23  2  0  0  0  0
 18 23  1  0  0  0  0
 17 18  1  0  0  0  0
 23 24  1  0  0  0  0
 15 16  2  0  0  0  0
 15 17  1  0  0  0  0
 14 15  1  0  0  0  0
  8 14  1  0  0  0  0
 12 13  2  0  0  0  0
 11 12  1  0  0  0  0
  7  8  1  0  0  0  0
  8  9  1  0  0  0  0
 10 11  1  0  0  0  0
  6  7  2  3  0  0  0
  5  6  1  0  0  0  0
  9 10  2  0  0  0  0
  2  5  1  0  0  0  0
  2  3  2  0  0  0  0
  1  2  1  0  0  0  0
  2  4  2  0  0  0  0
  1 25  1  0  0  0  0
  1 26  1  0  0  0  0
  1 27  1  0  0  0  0
  5 28  1  0  0  0  0
  6 29  1  0  0  0  0
  7 30  1  0  0  0  0
  8 31  1  0  0  0  0
  9 32  1  0  0  0  0
 10 33  1  0  0  0  0
 11 34  1  0  0  0  0
 11 35  1  0  0  0  0
 12 36  1  0  0  0  0
 13 37  1  0  0  0  0
 13 38  1  0  0  0  0
 14 39  1  0  0  0  0
 14 40  1  0  0  0  0
 17 41  1  0  0  0  0
 19 42  1  0  0  0  0
 21 43  1  0  0  0  0
 22 44  1  0  0  0  0
 24 45  1  0  0  0  0
 24 46  1  0  0  0  0
 24 47  1  0  0  0  0
M  END
> <Chemgauss4>
-13.180975

$$$$
