stable:False satoms:8 tatoms:24 sratio:0.3333333333333333
  -OEChem-08062417543D

 47 47  0     1  0  0  0  0  0999 V2000
   -6.6941   -5.3091  -26.2677 C   0  0  0  0  0  0  0  0  0  0  0  0
   -8.2430   -4.7438  -26.0300 S   0  0  0  0  0  0  0  0  0  0  0  0
   -9.1308   -5.9026  -25.9667 O   0  0  0  0  0  0  0  0  0  0  0  0
   -8.6001   -3.8800  -27.1361 O   0  0  0  0  0  0  0  0  0  0  0  0
   -8.2174   -3.9525  -24.6469 N   0  0  0  0  0  0  0  0  0  0  0  0
   -9.1577   -3.2589  -24.1684 C   0  0  0  0  0  0  0  0  0  0  0  0
   -9.5931   -2.2716  -23.6008 C   0  0  0  0  0  0  0  0  0  0  0  0
  -10.4729   -1.3956  -23.4920 C   0  0  2  0  0  0  0  0  0  0  0  0
  -11.1448   -0.3082  -24.6221 C   0  0  0  0  0  0  0  0  0  0  0  0
  -12.1413    0.0018  -24.6388 C   0  0  0  0  0  0  0  0  0  0  0  0
  -13.3043   -0.3926  -23.8554 C   0  0  0  0  0  0  0  0  0  0  0  0
  -12.9413   -1.4814  -22.9722 C   0  0  0  0  0  0  0  0  0  0  0  0
  -12.0905   -1.9700  -22.7480 C   0  0  0  0  0  0  0  0  0  0  0  0
   -9.9905   -0.8138  -22.5452 C   0  0  0  0  0  0  0  0  0  0  0  0
   -9.3771   -0.1807  -21.5375 C   0  0  0  0  0  0  0  0  0  0  0  0
   -9.8227    0.8065  -21.1848 O   0  0  0  0  0  0  0  0  0  0  0  0
   -8.2762   -0.7951  -21.1519 N   0  0  0  0  0  0  0  0  0  0  0  0
   -7.5521   -0.3066  -20.2292 C   0  0  0  0  0  0  0  0  0  0  0  0
   -7.7084   -0.1683  -18.9175 C   0  0  0  0  0  0  0  0  0  0  0  0
   -7.3393    0.2166  -17.8228 N   0  0  0  0  0  0  0  0  0  0  0  0
   -6.1503    0.7687  -18.2235 C   0  0  0  0  0  0  0  0  0  0  0  0
   -5.6706    0.8019  -19.3503 C   0  0  0  0  0  0  0  0  0  0  0  0
   -6.1797    0.3114  -20.5260 C   0  0  0  0  0  0  0  0  0  0  0  0
   -5.5806    0.3778  -21.9840 C   0  0  0  0  0  0  0  0  0  0  0  0
   -6.6484   -5.8679  -27.2141 H   0  0  0  0  0  0  0  0  0  0  0  0
   -5.9963   -4.4597  -26.3096 H   0  0  0  0  0  0  0  0  0  0  0  0
   -6.4144   -5.9727  -25.4362 H   0  0  0  0  0  0  0  0  0  0  0  0
   -7.4407   -3.3266  -24.7180 H   0  0  0  0  0  0  0  0  0  0  0  0
  -10.0391   -3.8511  -24.3655 H   0  0  0  0  0  0  0  0  0  0  0  0
   -8.8763   -2.0519  -22.8234 H   0  0  0  0  0  0  0  0  0  0  0  0
  -11.3703   -1.9106  -23.1186 H   0  0  0  0  0  0  0  0  0  0  0  0
  -10.4870    0.0909  -25.3800 H   0  0  0  0  0  0  0  0  0  0  0  0
  -12.3502    0.7602  -25.3787 H   0  0  0  0  0  0  0  0  0  0  0  0
  -14.1081   -0.7203  -24.5310 H   0  0  0  0  0  0  0  0  0  0  0  0
  -13.6527    0.4634  -23.2590 H   0  0  0  0  0  0  0  0  0  0  0  0
  -13.7887   -1.8609  -22.4206 H   0  0  0  0  0  0  0  0  0  0  0  0
  -12.1033   -2.7732  -22.0261 H   0  0  0  0  0  0  0  0  0  0  0  0
  -11.1647   -1.6911  -23.2292 H   0  0  0  0  0  0  0  0  0  0  0  0
  -10.4501   -1.5274  -21.8455 H   0  0  0  0  0  0  0  0  0  0  0  0
  -10.6683    0.0392  -22.6969 H   0  0  0  0  0  0  0  0  0  0  0  0
   -8.0086   -1.6535  -21.5897 H   0  0  0  0  0  0  0  0  0  0  0  0
   -8.6562   -0.6461  -18.7180 H   0  0  0  0  0  0  0  0  0  0  0  0
   -5.5614    1.2337  -17.4468 H   0  0  0  0  0  0  0  0  0  0  0  0
   -4.7088    1.2869  -19.4294 H   0  0  0  0  0  0  0  0  0  0  0  0
   -4.9742   -0.5203  -22.1730 H   0  0  0  0  0  0  0  0  0  0  0  0
   -6.4007    0.4270  -22.7154 H   0  0  0  0  0  0  0  0  0  0  0  0
   -4.9492    1.2734  -22.0803 H   0  0  0  0  0  0  0  0  0  0  0  0
 20 21  2  0  0  0  0
 19 20  1  0  0  0  0
 21 22  1  0  0  0  0
 18 19  2  0  0  0  0
 22 23  2  0  0  0  0
 18 23  1  0  0  0  0
 17 18  1  0  0  0  0
 23 24  1  0  0  0  0
 15 16  2  0  0  0  0
 15 17  1  0  0  0  0
 14 15  1  0  0  0  0
  8 14  1  0  0  0  0
 12 13  2  0  0  0  0
 11 12  1  0  0  0  0
  7  8  1  0  0  0  0
  8  9  1  0  0  0  0
 10 11  1  0  0  0  0
  6  7  2  3  0  0  0
  5  6  1  0  0  0  0
  9 10  2  0  0  0  0
  2  5  1  0  0  0  0
  2  3  2  0  0  0  0
  1  2  1  0  0  0  0
  2  4  2  0  0  0  0
  1 25  1  0  0  0  0
  1 26  1  0  0  0  0
  1 27  1  0  0  0  0
  5 28  1  0  0  0  0
  6 29  1  0  0  0  0
  7 30  1  0  0  0  0
  8 31  1  0  0  0  0
  9 32  1  0  0  0  0
 10 33  1  0  0  0  0
 11 34  1  0  0  0  0
 11 35  1  0  0  0  0
 12 36  1  0  0  0  0
 13 37  1  0  0  0  0
 13 38  1  0  0  0  0
 14 39  1  0  0  0  0
 14 40  1  0  0  0  0
 17 41  1  0  0  0  0
 19 42  1  0  0  0  0
 21 43  1  0  0  0  0
 22 44  1  0  0  0  0
 24 45  1  0  0  0  0
 24 46  1  0  0  0  0
 24 47  1  0  0  0  0
M  END
> <Chemgauss4>
-12.725694

$$$$
