
 OpenBabel07202414173D

 44 47  0  0  0  0  0  0  0  0999 V2000
    1.6151   -2.3438   -1.7809 Cl  0  0  0  0  0  0  0  0  0  0  0  0
    1.1806   -1.0120   -0.7754 C   0  0  0  0  0  0  0  0  0  0  0  0
    1.8512    0.2021   -0.9010 C   0  0  0  0  0  0  0  0  0  0  0  0
    1.5191    1.2829   -0.0636 C   0  0  0  0  0  0  0  0  0  0  0  0
    2.2874    2.5858   -0.1251 C   0  0  0  0  0  0  0  0  0  0  0  0
    1.4342    3.8260   -0.3635 C   0  0  0  0  0  0  0  0  0  0  0  0
    1.4473    4.7648    0.4288 O   0  0  0  0  0  0  0  0  0  0  0  0
    0.6752    3.7935   -1.5192 N   0  0  0  0  0  0  0  0  0  0  0  0
   -0.1523    4.8899   -1.8652 C   0  0  0  0  0  0  0  0  0  0  0  0
    0.3826    6.1755   -1.9737 C   0  0  0  0  0  0  0  0  0  0  0  0
   -0.3212    7.2630   -2.3602 N   0  0  0  0  0  0  0  0  0  0  0  0
   -1.6304    7.0610   -2.6265 C   0  0  0  0  0  0  0  0  0  0  0  0
   -2.2844    5.8289   -2.5262 C   0  0  0  0  0  0  0  0  0  0  0  0
   -3.6588    5.6946   -2.7927 C   0  0  0  0  0  0  0  0  0  0  0  0
   -4.2946    4.4612   -2.6527 C   0  0  0  0  0  0  0  0  0  0  0  0
   -3.5698    3.3533   -2.2316 C   0  0  0  0  0  0  0  0  0  0  0  0
   -2.2041    3.4719   -1.9710 C   0  0  0  0  0  0  0  0  0  0  0  0
   -1.5265    4.7036   -2.1328 C   0  0  0  0  0  0  0  0  0  0  0  0
    0.4918    1.1149    0.8755 C   0  0  0  0  0  0  0  0  0  0  0  0
   -0.2187   -0.0948    0.9728 C   0  0  0  0  0  0  0  0  0  0  0  0
   -1.3844   -0.2534    1.9220 C   0  0  0  0  0  0  0  0  0  0  0  0
   -1.0267   -0.7769    3.2653 C   0  0  0  0  0  0  0  0  0  0  0  0
   -1.4205   -1.9086    3.9469 C   0  0  0  0  0  0  0  0  0  0  0  0
   -0.8661   -1.7687    5.2327 C   0  0  0  0  0  0  0  0  0  0  0  0
   -0.1363   -0.6580    5.3493 N   0  0  0  0  0  0  0  0  0  0  0  0
   -0.2304   -0.0851    4.1393 N   0  0  0  0  0  0  0  0  0  0  0  0
    0.1522   -1.1691    0.1502 C   0  0  0  0  0  0  0  0  0  0  0  0
    2.6438    0.2986   -1.6420 H   0  0  0  0  0  0  0  0  0  0  0  0
    3.0519    2.5616   -0.9140 H   0  0  0  0  0  0  0  0  0  0  0  0
    2.8125    2.7242    0.8215 H   0  0  0  0  0  0  0  0  0  0  0  0
    0.3676    2.8743   -1.8111 H   0  0  0  0  0  0  0  0  0  0  0  0
    1.4359    6.3675   -1.7861 H   0  0  0  0  0  0  0  0  0  0  0  0
   -2.1653    7.9580   -2.9303 H   0  0  0  0  0  0  0  0  0  0  0  0
   -4.2458    6.5562   -3.1055 H   0  0  0  0  0  0  0  0  0  0  0  0
   -5.3567    4.3684   -2.8618 H   0  0  0  0  0  0  0  0  0  0  0  0
   -4.0649    2.3947   -2.0994 H   0  0  0  0  0  0  0  0  0  0  0  0
   -1.6858    2.5893   -1.6086 H   0  0  0  0  0  0  0  0  0  0  0  0
    0.2373    1.9415    1.5409 H   0  0  0  0  0  0  0  0  0  0  0  0
   -2.1266   -0.9127    1.4577 H   0  0  0  0  0  0  0  0  0  0  0  0
   -1.8920    0.7185    2.0332 H   0  0  0  0  0  0  0  0  0  0  0  0
   -2.0603   -2.7045    3.5899 H   0  0  0  0  0  0  0  0  0  0  0  0
   -0.9721   -2.4200    6.0911 H   0  0  0  0  0  0  0  0  0  0  0  0
    0.2546    0.7924    3.9855 H   0  0  0  0  0  0  0  0  0  0  0  0
   -0.3647   -2.1201    0.2309 H   0  0  0  0  0  0  0  0  0  0  0  0
  1  2  1  0  0  0  0
  2  3  1  0  0  0  0
  2 27  2  0  0  0  0
  3  4  2  0  0  0  0
  3 28  1  0  0  0  0
  4  5  1  0  0  0  0
  4 19  1  0  0  0  0
  5  6  1  0  0  0  0
  5 29  1  0  0  0  0
  5 30  1  0  0  0  0
  6  7  2  0  0  0  0
  6  8  1  0  0  0  0
  8  9  1  0  0  0  0
  8 31  1  0  0  0  0
  9 10  1  0  0  0  0
  9 18  2  0  0  0  0
 10 11  2  0  0  0  0
 10 32  1  0  0  0  0
 11 12  1  0  0  0  0
 12 13  2  0  0  0  0
 12 33  1  0  0  0  0
 13 14  1  0  0  0  0
 13 18  1  0  0  0  0
 14 15  2  0  0  0  0
 14 34  1  0  0  0  0
 15 16  1  0  0  0  0
 15 35  1  0  0  0  0
 16 17  2  0  0  0  0
 16 36  1  0  0  0  0
 17 18  1  0  0  0  0
 17 37  1  0  0  0  0
 19 20  2  0  0  0  0
 19 38  1  0  0  0  0
 20 21  1  0  0  0  0
 20 27  1  0  0  0  0
 21 22  1  0  0  0  0
 21 39  1  0  0  0  0
 21 40  1  0  0  0  0
 22 23  2  0  0  0  0
 22 26  1  0  0  0  0
 23 24  1  0  0  0  0
 23 41  1  0  0  0  0
 24 25  2  0  0  0  0
 24 42  1  0  0  0  0
 25 26  1  0  0  0  0
 26 43  1  0  0  0  0
 27 44  1  0  0  0  0
M  END
$$$$
