stable:False satoms:17 tatoms:24 sratio:0.7083333333333334
  -OEChem-07092417383D

 24 24  0     1  0  0  0  0  0999 V2000
    7.1424   -4.8394   26.1017 H   0  0  0  0  0  0  0  0  0  0  0  0
    8.1869   -4.4999   26.0202 C   0  0  0  0  0  0  0  0  0  0  0  0
    8.8423   -5.3986   26.1467 H   0  0  0  0  0  0  0  0  0  0  0  0
    8.4127   -3.8172   26.8603 H   0  0  0  0  0  0  0  0  0  0  0  0
    8.3670   -3.8566   24.7470 N   0  0  0  0  0  0  0  0  0  0  0  0
    9.1624   -3.0718   24.2802 C   0  0  0  0  0  0  0  0  0  0  0  0
    9.9070   -2.3051   23.6679 C   0  0  0  0  0  0  0  0  0  0  0  0
   10.5552   -1.1366   23.2112 C   0  0  1  0  0  0  0  0  0  0  0  0
   11.1789   -0.1089   24.0524 O   0  0  0  0  0  0  0  0  0  0  0  0
   12.9360    0.7859   24.0928 H   0  0  0  0  0  0  0  0  0  0  0  0
   12.4437   -0.0403   23.6845 C   0  3  0  0  0  0  0  0  0  0  0  0
   12.9205   -0.7493   23.0297 H   0  0  0  0  0  0  0  0  0  0  0  0
   11.1641   -2.1832   22.9254 O   0  0  0  0  0  0  0  0  0  0  0  0
    9.8407   -0.5726   22.2545 C   0  0  0  0  0  0  0  0  0  0  0  0
    8.5466    0.1414   20.7589 C   0  0  0  0  0  0  0  0  0  0  0  0
    9.3165    0.8653   20.4608 H   0  0  0  0  0  0  0  0  0  0  0  0
    8.6966   -0.7089   21.6857 N   0  0  0  0  0  0  0  0  0  0  0  0
    7.3862    0.0829   20.1327 N   0  0  0  0  0  0  0  0  0  0  0  0
    6.7879    0.3367   19.0628 C   0  3  0  0  0  0  0  0  0  0  0  0
    7.1844    0.1669   18.0896 H   0  0  0  0  0  0  0  0  0  0  0  0
    4.8848    1.1465   18.4544 H   0  0  0  0  0  0  0  0  0  0  0  0
    5.4992    0.8350   19.2487 C   0  5  3  0  0  0  0  0  0  0  0  0
    5.1903    0.8187   20.5738 C   0  0  0  0  0  0  0  0  0  0  0  0
    5.0315    0.8188   21.7548 N   0  0  0  0  0  0  0  0  0  0  0  0
 19 20  1  0  0  0  0
 21 22  1  0  0  0  0
 19 22  1  0  0  0  0
 18 19  1  0  0  0  0
 22 23  1  0  0  0  0
 15 18  1  0  0  0  0
 15 16  1  0  0  0  0
 23 24  3  0  0  0  0
 15 17  2  0  0  0  0
 14 17  1  0  0  0  0
  8 14  1  0  0  0  0
  8 13  1  0  0  0  0
  7 13  1  0  0  0  0
 11 12  1  0  0  0  0
  7  8  1  0  0  0  0
  8  9  1  0  0  0  0
  6  7  2  3  0  0  0
  9 11  1  0  0  0  0
 10 11  1  0  0  0  0
  5  6  1  0  0  0  0
  2  5  1  0  0  0  0
  1  2  1  0  0  0  0
  2  3  1  0  0  0  0
  2  4  1  0  0  0  0
M  CHG  3  11   1  19   1  22  -1
M  END
> <Shapegauss>
-182.136673

$$$$
