stable:False satoms:17 tatoms:24 sratio:0.7083333333333334
  -OEChem-08062404013D

 30 30  0     1  0  0  0  0  0999 V2000
  -10.6714    6.3741  -23.3101 H   0  0  0  0  0  0  0  0  0  0  0  0
  -11.2999    5.6350  -23.8313 C   0  0  0  0  0  0  0  0  0  0  0  0
  -11.4829    6.0210  -24.8661 H   0  0  0  0  0  0  0  0  0  0  0  0
  -12.2843    5.5791  -23.3308 H   0  0  0  0  0  0  0  0  0  0  0  0
  -10.6249    4.3655  -23.8240 N   0  3  0  0  0  0  0  0  0  0  0  0
  -10.9575    3.2092  -23.9616 C   0  0  0  0  0  0  0  0  0  0  0  0
  -11.1444    2.0008  -24.1102 C   0  0  0  0  0  0  0  0  0  0  0  0
  -11.5222    0.6592  -23.8837 C   0  0  1  0  0  0  0  0  0  0  0  0
  -12.8382    0.1966  -23.4288 O   0  0  0  0  0  0  0  0  0  0  0  0
  -13.2856   -0.6297  -24.3545 H   0  0  0  0  0  0  0  0  0  0  0  0
  -13.2856   -0.6297  -24.3545 C   0  0  0  0  0  2  0  0  0  0  0  0
  -11.3167    0.9189  -25.0829 O   0  0  0  0  0  0  0  0  0  0  0  0
  -10.5645    0.0283  -23.2292 C   0  0  0  0  0  0  0  0  0  0  0  0
   -8.9155   -0.7673  -22.1950 C   0  0  0  0  0  0  0  0  0  0  0  0
   -9.3442   -1.7709  -22.3160 H   0  0  0  0  0  0  0  0  0  0  0  0
   -9.4448    0.2877  -22.6546 N   0  3  0  0  0  0  0  0  0  0  0  0
   -7.7670   -0.5869  -21.5701 N   0  0  0  0  0  0  0  0  0  0  0  0
   -6.6905   -1.1293  -21.2327 C   0  0  0  0  0  0  0  0  0  0  0  0
   -6.1127   -1.7719  -21.8543 H   0  0  0  0  0  0  0  0  0  0  0  0
   -5.4112   -1.1898  -19.4985 H   0  0  0  0  0  0  0  0  0  0  0  0
   -6.2673   -0.7802  -19.9511 C   0  0  3  0  0  0  0  0  0  0  0  0
   -7.1060    0.1579  -19.4333 C   0  0  0  0  0  0  0  0  0  0  0  0
   -7.9233    0.9326  -19.0434 N   0  0  0  0  0  0  0  0  0  0  0  0
  -10.1800    4.3597  -22.9285 H   0  0  0  0  0  0  0  0  0  0  0  0
  -12.0121    3.4342  -23.9016 H   0  0  0  0  0  0  0  0  0  0  0  0
  -10.2662   -0.7391  -23.9587 H   0  0  0  0  0  0  0  0  0  0  0  0
  -11.1289   -0.4432  -22.4112 H   0  0  0  0  0  0  0  0  0  0  0  0
   -7.7502    0.3546  -21.2334 H   0  0  0  0  0  0  0  0  0  0  0  0
   -9.9348    4.4808  -24.5384 H   0  0  0  0  0  0  0  0  0  0  0  0
   -9.0445    1.2011  -22.5802 H   0  0  0  0  0  0  0  0  0  0  0  0
 18 19  1  0  0  0  0
 20 21  1  0  0  0  0
 18 21  2  0  0  0  0
 17 18  1  0  0  0  0
 21 22  1  0  0  0  0
 14 17  1  0  0  0  0
 14 15  1  0  0  0  0
 22 23  3  0  0  0  0
 14 16  2  0  0  0  0
 13 16  1  0  0  0  0
  8 13  1  0  0  0  0
  8 12  1  0  0  0  0
  7 12  1  0  0  0  0
  7  8  1  0  0  0  0
  8  9  1  0  0  0  0
  6  7  2  3  0  0  0
  9 11  1  0  0  0  0
 10 11  1  0  0  0  0
  5  6  1  0  0  0  0
  2  5  1  0  0  0  0
  1  2  1  0  0  0  0
  2  3  1  0  0  0  0
  2  4  1  0  0  0  0
  5 24  1  0  0  0  0
  6 25  1  0  0  0  0
 13 26  1  0  0  0  0
 13 27  1  0  0  0  0
 17 28  1  0  0  0  0
  5 29  1  0  0  0  0
 16 30  1  0  0  0  0
M  CHG  2   5   1  16   1
M  END
> <Chemgauss4>
-5.641261

$$$$
