stable:False satoms:17 tatoms:24 sratio:0.7083333333333334
  -OEChem-08062404013D

 30 30  0     1  0  0  0  0  0999 V2000
   10.6503    6.1419   23.1477 H   0  0  0  0  0  0  0  0  0  0  0  0
   11.2788    5.4028   23.6690 C   0  0  0  0  0  0  0  0  0  0  0  0
   11.4619    5.7888   24.7038 H   0  0  0  0  0  0  0  0  0  0  0  0
   12.2633    5.3469   23.1685 H   0  0  0  0  0  0  0  0  0  0  0  0
   10.6039    4.1333   23.6617 N   0  3  0  0  0  0  0  0  0  0  0  0
   10.9365    2.9770   23.7993 C   0  0  0  0  0  0  0  0  0  0  0  0
   11.1233    1.7687   23.9479 C   0  0  0  0  0  0  0  0  0  0  0  0
   11.5012    0.4270   23.7214 C   0  0  1  0  0  0  0  0  0  0  0  0
   12.8172   -0.0356   23.2665 O   0  0  0  0  0  0  0  0  0  0  0  0
   13.2646   -0.8619   24.1921 H   0  0  0  0  0  0  0  0  0  0  0  0
   13.2646   -0.8619   24.1921 C   0  0  0  0  0  2  0  0  0  0  0  0
   11.2956    0.6867   24.9206 O   0  0  0  0  0  0  0  0  0  0  0  0
   10.5434   -0.2039   23.0668 C   0  0  0  0  0  0  0  0  0  0  0  0
    8.8945   -0.9995   22.0327 C   0  0  0  0  0  0  0  0  0  0  0  0
    9.3232   -2.0031   22.1537 H   0  0  0  0  0  0  0  0  0  0  0  0
    9.4238    0.0555   22.4923 N   0  3  0  0  0  0  0  0  0  0  0  0
    7.7460   -0.8191   21.4078 N   0  0  0  0  0  0  0  0  0  0  0  0
    6.6694   -1.3615   21.0704 C   0  0  0  0  0  0  0  0  0  0  0  0
    6.0916   -2.0041   21.6920 H   0  0  0  0  0  0  0  0  0  0  0  0
    5.3902   -1.4220   19.3362 H   0  0  0  0  0  0  0  0  0  0  0  0
    6.2463   -1.0124   19.7887 C   0  0  3  0  0  0  0  0  0  0  0  0
    7.0849   -0.0743   19.2709 C   0  0  0  0  0  0  0  0  0  0  0  0
    7.9022    0.7004   18.8811 N   0  0  0  0  0  0  0  0  0  0  0  0
   10.1589    4.1275   22.7662 H   0  0  0  0  0  0  0  0  0  0  0  0
   11.9911    3.2020   23.7392 H   0  0  0  0  0  0  0  0  0  0  0  0
   10.2452   -0.9713   23.7964 H   0  0  0  0  0  0  0  0  0  0  0  0
   11.1079   -0.6754   22.2488 H   0  0  0  0  0  0  0  0  0  0  0  0
    7.7292    0.1224   21.0710 H   0  0  0  0  0  0  0  0  0  0  0  0
    9.9137    4.2486   24.3761 H   0  0  0  0  0  0  0  0  0  0  0  0
    9.0235    0.9689   22.4179 H   0  0  0  0  0  0  0  0  0  0  0  0
 18 19  1  0  0  0  0
 20 21  1  0  0  0  0
 18 21  2  0  0  0  0
 17 18  1  0  0  0  0
 21 22  1  0  0  0  0
 14 17  1  0  0  0  0
 14 15  1  0  0  0  0
 22 23  3  0  0  0  0
 14 16  2  0  0  0  0
 13 16  1  0  0  0  0
  8 13  1  0  0  0  0
  8 12  1  0  0  0  0
  7 12  1  0  0  0  0
  7  8  1  0  0  0  0
  8  9  1  0  0  0  0
  6  7  2  3  0  0  0
  9 11  1  0  0  0  0
 10 11  1  0  0  0  0
  5  6  1  0  0  0  0
  2  5  1  0  0  0  0
  1  2  1  0  0  0  0
  2  3  1  0  0  0  0
  2  4  1  0  0  0  0
  5 24  1  0  0  0  0
  6 25  1  0  0  0  0
 13 26  1  0  0  0  0
 13 27  1  0  0  0  0
 17 28  1  0  0  0  0
  5 29  1  0  0  0  0
 16 30  1  0  0  0  0
M  CHG  2   5   1  16   1
M  END
> <Chemgauss4>
-5.657457

$$$$
