stable:False satoms:9 tatoms:24 sratio:0.375
  -OEChem-07092417423D

 24 25  0     0  0  0  0  0  0999 V2000
    6.5438   -4.9428   26.5045 Cl  0  0  0  0  0  0  0  0  0  0  0  0
    8.2188   -4.3343   26.0954 S   0  0  0  0  0  0  0  0  0  0  0  0
    9.0399   -5.5032   25.9525 O   0  0  0  0  0  0  0  0  0  0  0  0
    8.5972   -3.4503   27.1207 O   0  0  0  0  0  0  0  0  0  0  0  0
    7.9967   -3.6191   24.6792 N   0  0  0  0  0  0  0  0  0  0  0  0
    8.8694   -2.8955   24.2055 C   0  0  0  0  0  0  0  0  0  0  0  0
    9.4335   -2.1097   23.6819 C   0  0  0  0  0  0  0  0  0  0  0  0
   10.1735   -1.2809   23.0557 C   0  0  0  0  0  0  0  0  0  0  0  0
   11.5287    0.3007   24.3907 H   0  0  0  0  0  0  0  0  0  0  0  0
   12.3157   -0.1318   23.9188 C   0  0  0  0  0  0  0  0  0  0  0  0
   13.2923    0.0584   24.0787 H   0  0  0  0  0  0  0  0  0  0  0  0
   12.5336   -1.2029   22.6443 C   0  0  0  0  0  0  0  0  0  0  0  0
   11.6036   -1.2274   22.9422 C   0  0  0  0  0  0  0  0  0  0  0  0
    9.7697   -0.3955   22.2470 C   0  0  0  0  0  0  0  0  0  0  0  0
    9.0051    0.1800   21.3636 C   0  0  0  0  0  0  0  0  0  0  0  0
    9.3803    1.1754   20.9060 O   0  0  0  0  0  0  0  0  0  0  0  0
    7.8558   -0.5108   21.0929 N   0  0  0  0  0  0  0  0  0  0  0  0
    7.1172   -0.0736   20.1133 C   0  0  0  0  0  0  0  0  0  0  0  0
    7.3421   -0.1357   18.8096 N   0  0  0  0  0  0  0  0  0  0  0  0
    6.6961    0.1606   17.8487 N   0  0  0  0  0  0  0  0  0  0  0  0
    5.6748    0.6952   18.2424 C   0  0  0  0  0  0  0  0  0  0  0  0
    5.3346    0.8220   19.3974 C   0  0  0  0  0  0  0  0  0  0  0  0
    5.8038    0.5131   20.5118 C   0  0  0  0  0  0  0  0  0  0  0  0
    5.4577    0.6181   21.4939 H   0  0  0  0  0  0  0  0  0  0  0  0
 20 21  2  0  0  0  0
 19 20  1  0  0  0  0
 21 22  1  0  0  0  0
 18 19  2  0  0  0  0
 22 23  2  0  0  0  0
 18 23  1  0  0  0  0
 17 18  1  0  0  0  0
 23 24  1  0  0  0  0
 15 16  2  0  0  0  0
 15 17  1  0  0  0  0
 14 15  1  0  0  0  0
  8 14  2  3  0  0  0
 12 13  1  0  0  0  0
 10 12  1  0  0  0  0
  8 13  1  0  0  0  0
 10 13  1  0  0  0  0
  7  8  1  0  0  0  0
  6  7  3  0  0  0  0
 10 11  1  0  0  0  0
  9 10  1  0  0  0  0
  5  6  1  0  0  0  0
  2  5  1  0  0  0  0
  2  3  2  0  0  0  0
  1  2  1  0  0  0  0
  2  4  2  0  0  0  0
M  END
> <Shapegauss>
-261.086060

$$$$
