REMARK  5 active torsions:
REMARK  status: ('A' for Active; 'I' for Inactive)
REMARK    1  A    between atoms: S_2  and  N_5 
REMARK    2  A    between atoms: N_5  and  C_7 
REMARK    3  A    between atoms: C_8  and  C_9 
REMARK    4  A    between atoms: C_9  and  C_12 
REMARK    5  A    between atoms: C_13  and  C_14 
REMARK       I    between atoms: C_14  and  N_16 
ROOT
HETATM    1  C   UNL     1      10.174  -1.281  23.056  1.00  0.00     0.027 C 
HETATM    2  C   UNL     1       9.770  -0.396  22.247  1.00  0.00     0.095 C 
ENDROOT
BRANCH   2   3
HETATM    3  C   UNL     1       9.005   0.180  21.364  1.00  0.00     0.248 C 
HETATM    4  O   UNL     1       9.380   1.175  20.906  1.00  0.00    -0.268 OA
HETATM    5  N   UNL     1       7.856  -0.511  21.093  1.00  0.00    -0.308 N 
HETATM    6  C   UNL     1       7.117  -0.074  20.113  1.00  0.00     0.122 A 
ATOM      7  HN  UNL     1       7.589  -1.333  21.635  1.00  0.00     0.170 HD
HETATM    8  N   UNL     1       7.342  -0.136  18.810  1.00  0.00    -0.286 N 
HETATM    9  C   UNL     1       5.804   0.513  20.512  1.00  0.00     0.051 A 
HETATM   10  N   UNL     1       6.696   0.161  17.849  1.00  0.00    -0.310 N 
ATOM     11  HN  UNL     1       8.259  -0.517  18.577  1.00  0.00     0.188 HD
HETATM   12  C   UNL     1       5.675   0.695  18.242  1.00  0.00     0.107 A 
ATOM     13  HN  UNL     1       6.954  -0.003  16.876  1.00  0.00     0.186 HD
HETATM   14  C   UNL     1       5.335   0.822  19.397  1.00  0.00     0.022 A 
ENDBRANCH   2   3
BRANCH   1  15
HETATM   15  C   UNL     1       9.434  -2.110  23.682  1.00  0.00    -0.043 C 
HETATM   16  C   UNL     1       8.869  -2.896  24.206  1.00  0.00     0.027 C 
BRANCH  16  17
HETATM   17  N   UNL     1       7.997  -3.619  24.679  1.00  0.00    -0.229 N 
ATOM     18  HN  UNL     1       7.127  -3.765  24.168  1.00  0.00     0.190 HD
BRANCH  17  19
HETATM   19  S   UNL     1       8.219  -4.334  26.095  1.00  0.00     0.327 S 
HETATM   20 CL   UNL     1       6.544  -4.943  26.505  1.00  0.00     0.042 Cl
HETATM   21  O   UNL     1       9.040  -5.503  25.953  1.00  0.00    -0.188 OA
HETATM   22  O   UNL     1       8.597  -3.450  27.121  1.00  0.00    -0.188 OA
ENDBRANCH  17  19
ENDBRANCH  16  17
ENDBRANCH   1  15
BRANCH   1  23
HETATM   23  C   UNL     1      11.604  -1.227  22.942  1.00  0.00    -0.060 A 
HETATM   24  C   UNL     1      12.316  -0.132  23.919  1.00  0.00     0.040 A 
HETATM   25  C   UNL     1      12.534  -1.203  22.644  1.00  0.00     0.040 A 
ENDBRANCH   1  23
TORSDOF 5
