MODEL 1
REMARK VINA RESULT:    -7.052      0.000      0.000
REMARK INTER + INTRA:          -9.782
REMARK INTER:                  -9.113
REMARK INTRA:                  -0.670
REMARK UNBOUND:                -0.670
REMARK  5 active torsions:
REMARK  status: ('A' for Active; 'I' for Inactive)
REMARK    1  A    between atoms: S_2  and  N_5 
REMARK    2  A    between atoms: N_5  and  C_7 
REMARK    3  A    between atoms: C_8  and  C_9 
REMARK    4  A    between atoms: C_9  and  C_12 
REMARK    5  A    between atoms: C_13  and  C_14 
REMARK       I    between atoms: C_14  and  N_16 
ROOT
HETATM    1  C   UNL     1       9.511  -1.712  22.798  1.00  0.00     0.027 C 
HETATM    2  C   UNL     1       9.230  -0.662  22.151  1.00  0.00     0.095 C 
ENDROOT
BRANCH   2   3
HETATM    3  C   UNL     1       8.617   0.108  21.298  1.00  0.00     0.248 C 
HETATM    4  O   UNL     1       9.142   1.096  21.003  1.00  0.00    -0.268 OA
HETATM    5  N   UNL     1       7.424  -0.396  20.856  1.00  0.00    -0.308 N 
HETATM    6  C   UNL     1       6.829   0.246  19.891  1.00  0.00     0.122 A 
ATOM      7  HN  UNL     1       7.018  -1.237  21.265  1.00  0.00     0.170 HD
HETATM    8  N   UNL     1       7.158   0.315  18.611  1.00  0.00    -0.286 N 
HETATM    9  C   UNL     1       5.562   0.940  20.268  1.00  0.00     0.051 A 
HETATM   10  N   UNL     1       6.637   0.805  17.653  1.00  0.00    -0.310 N 
ATOM     11  HN  UNL     1       8.042  -0.147  18.397  1.00  0.00     0.188 HD
HETATM   12  C   UNL     1       5.654   1.411  18.038  1.00  0.00     0.107 A 
ATOM     13  HN  UNL     1       6.959   0.729  16.688  1.00  0.00     0.186 HD
HETATM   14  C   UNL     1       5.231   1.438  19.172  1.00  0.00     0.022 A 
ENDBRANCH   2   3
BRANCH   1  15
HETATM   15  C   UNL     1       8.698  -2.655  23.076  1.00  0.00    -0.043 C 
HETATM   16  C   UNL     1       7.986  -3.482  23.215  1.00  0.00     0.027 C 
BRANCH  16  17
HETATM   17  N   UNL     1       7.111  -4.244  23.618  1.00  0.00    -0.229 N 
ATOM     18  HN  UNL     1       7.088  -4.513  24.601  1.00  0.00     0.190 HD
BRANCH  17  19
HETATM   19  S   UNL     1       6.008  -4.816  22.608  1.00  0.00     0.327 S 
HETATM   20 CL   UNL     1       6.980  -5.949  21.551  1.00  0.00     0.042 Cl
HETATM   21  O   UNL     1       5.060  -5.641  23.302  1.00  0.00    -0.188 OA
HETATM   22  O   UNL     1       5.455  -3.838  21.762  1.00  0.00    -0.188 OA
ENDBRANCH  17  19
ENDBRANCH  16  17
ENDBRANCH   1  15
BRANCH   1  23
HETATM   23  C   UNL     1      10.936  -1.648  22.959  1.00  0.00    -0.060 A 
HETATM   24  C   UNL     1      11.440  -0.575  24.079  1.00  0.00     0.040 A 
HETATM   25  C   UNL     1      11.906  -1.612  22.843  1.00  0.00     0.040 A 
ENDBRANCH   1  23
TORSDOF 5
ENDMDL
MODEL 2
REMARK VINA RESULT:    -6.840     15.445     17.674
REMARK INTER + INTRA:          -9.509
REMARK INTER:                  -8.907
REMARK INTRA:                  -0.602
REMARK UNBOUND:                -0.670
REMARK  5 active torsions:
REMARK  status: ('A' for Active; 'I' for Inactive)
REMARK    1  A    between atoms: S_2  and  N_5 
REMARK    2  A    between atoms: N_5  and  C_7 
REMARK    3  A    between atoms: C_8  and  C_9 
REMARK    4  A    between atoms: C_9  and  C_12 
REMARK    5  A    between atoms: C_13  and  C_14 
REMARK       I    between atoms: C_14  and  N_16 
ROOT
HETATM    1  C   UNL     1      22.809  -2.222  25.194  1.00  0.00     0.027 C 
HETATM    2  C   UNL     1      23.043  -1.609  26.276  1.00  0.00     0.095 C 
ENDROOT
BRANCH   2   3
HETATM    3  C   UNL     1      23.334  -1.441  27.535  1.00  0.00     0.248 C 
HETATM    4  O   UNL     1      23.295  -0.360  27.948  1.00  0.00    -0.268 OA
HETATM    5  N   UNL     1      23.629  -2.602  28.194  1.00  0.00    -0.308 N 
HETATM    6  C   UNL     1      23.782  -2.530  29.486  1.00  0.00     0.122 A 
ATOM      7  HN  UNL     1      23.725  -3.488  27.696  1.00  0.00     0.170 HD
HETATM    8  N   UNL     1      22.865  -2.349  30.423  1.00  0.00    -0.286 N 
HETATM    9  C   UNL     1      25.172  -2.752  29.981  1.00  0.00     0.051 A 
HETATM   10  N   UNL     1      22.899  -2.348  31.618  1.00  0.00    -0.310 N 
ATOM     11  HN  UNL     1      21.933  -2.173  30.047  1.00  0.00     0.188 HD
HETATM   12  C   UNL     1      24.064  -2.462  31.953  1.00  0.00     0.107 A 
ATOM     13  HN  UNL     1      22.098  -2.265  32.244  1.00  0.00     0.186 HD
HETATM   14  C   UNL     1      25.006  -2.635  31.213  1.00  0.00     0.022 A 
ENDBRANCH   2   3
BRANCH   1  15
HETATM   15  C   UNL     1      23.272  -3.365  24.871  1.00  0.00    -0.043 C 
HETATM   16  C   UNL     1      23.749  -4.302  24.547  1.00  0.00     0.027 C 
BRANCH  16  17
HETATM   17  N   UNL     1      23.991  -5.445  24.169  1.00  0.00    -0.229 N 
ATOM     18  HN  UNL     1      24.010  -5.656  23.172  1.00  0.00     0.190 HD
BRANCH  17  19
HETATM   19  S   UNL     1      24.276  -6.606  25.235  1.00  0.00     0.327 S 
HETATM   20 CL   UNL     1      26.104  -6.667  25.284  1.00  0.00     0.042 Cl
HETATM   21  O   UNL     1      23.859  -6.206  26.549  1.00  0.00    -0.188 OA
HETATM   22  O   UNL     1      23.835  -7.875  24.820  1.00  0.00    -0.188 OA
ENDBRANCH  17  19
ENDBRANCH  16  17
ENDBRANCH   1  15
BRANCH   1  23
HETATM   23  C   UNL     1      21.802  -1.422  24.556  1.00  0.00    -0.060 A 
HETATM   24  C   UNL     1      20.344  -1.467  25.286  1.00  0.00     0.040 A 
HETATM   25  C   UNL     1      21.203  -0.966  23.933  1.00  0.00     0.040 A 
ENDBRANCH   1  23
TORSDOF 5
ENDMDL
MODEL 3
REMARK VINA RESULT:    -6.786      3.573      6.882
REMARK INTER + INTRA:          -9.440
REMARK INTER:                  -8.828
REMARK INTRA:                  -0.612
REMARK UNBOUND:                -0.670
REMARK  5 active torsions:
REMARK  status: ('A' for Active; 'I' for Inactive)
REMARK    1  A    between atoms: S_2  and  N_5 
REMARK    2  A    between atoms: N_5  and  C_7 
REMARK    3  A    between atoms: C_8  and  C_9 
REMARK    4  A    between atoms: C_9  and  C_12 
REMARK    5  A    between atoms: C_13  and  C_14 
REMARK       I    between atoms: C_14  and  N_16 
ROOT
HETATM    1  C   UNL     1       8.896  -2.055  22.768  1.00  0.00     0.027 C 
HETATM    2  C   UNL     1       8.696  -3.082  23.479  1.00  0.00     0.095 C 
ENDROOT
BRANCH   2   3
HETATM    3  C   UNL     1       8.072  -3.898  24.280  1.00  0.00     0.248 C 
HETATM    4  O   UNL     1       7.631  -4.863  23.816  1.00  0.00    -0.268 OA
HETATM    5  N   UNL     1       8.055  -3.487  25.585  1.00  0.00    -0.308 N 
HETATM    6  C   UNL     1       7.582  -4.323  26.465  1.00  0.00     0.122 A 
ATOM      7  HN  UNL     1       8.397  -2.565  25.857  1.00  0.00     0.170 HD
HETATM    8  N   UNL     1       8.125  -5.438  26.929  1.00  0.00    -0.286 N 
HETATM    9  C   UNL     1       6.283  -3.934  27.087  1.00  0.00     0.051 A 
HETATM   10  N   UNL     1       7.809  -6.215  27.781  1.00  0.00    -0.310 N 
ATOM     11  HN  UNL     1       8.997  -5.686  26.462  1.00  0.00     0.188 HD
HETATM   12  C   UNL     1       6.714  -5.880  28.195  1.00  0.00     0.107 A 
ATOM     13  HN  UNL     1       8.356  -7.013  28.102  1.00  0.00     0.186 HD
HETATM   14  C   UNL     1       6.098  -4.891  27.868  1.00  0.00     0.022 A 
ENDBRANCH   2   3
BRANCH   1  15
HETATM   15  C   UNL     1       7.994  -1.359  22.196  1.00  0.00    -0.043 C 
HETATM   16  C   UNL     1       7.218  -0.827  21.624  1.00  0.00     0.027 C 
BRANCH  16  17
HETATM   17  N   UNL     1       6.478   0.014  21.121  1.00  0.00    -0.229 N 
ATOM     18  HN  UNL     1       5.948   0.646  21.719  1.00  0.00     0.190 HD
BRANCH  17  19
HETATM   19  S   UNL     1       6.342   0.121  19.528  1.00  0.00     0.327 S 
HETATM   20 CL   UNL     1       5.249   1.572  19.316  1.00  0.00     0.042 Cl
HETATM   21  O   UNL     1       7.597   0.482  18.932  1.00  0.00    -0.188 OA
HETATM   22  O   UNL     1       5.686  -0.976  18.942  1.00  0.00    -0.188 OA
ENDBRANCH  17  19
ENDBRANCH  16  17
ENDBRANCH   1  15
BRANCH   1  23
HETATM   23  C   UNL     1      10.299  -1.794  22.924  1.00  0.00    -0.060 A 
HETATM   24  C   UNL     1      10.662  -0.768  24.139  1.00  0.00     0.040 A 
HETATM   25  C   UNL     1      11.250  -1.603  22.806  1.00  0.00     0.040 A 
ENDBRANCH   1  23
TORSDOF 5
ENDMDL
MODEL 4
REMARK VINA RESULT:    -6.616      4.307      5.644
REMARK INTER + INTRA:          -9.220
REMARK INTER:                  -8.558
REMARK INTRA:                  -0.662
REMARK UNBOUND:                -0.670
REMARK  5 active torsions:
REMARK  status: ('A' for Active; 'I' for Inactive)
REMARK    1  A    between atoms: S_2  and  N_5 
REMARK    2  A    between atoms: N_5  and  C_7 
REMARK    3  A    between atoms: C_8  and  C_9 
REMARK    4  A    between atoms: C_9  and  C_12 
REMARK    5  A    between atoms: C_13  and  C_14 
REMARK       I    between atoms: C_14  and  N_16 
ROOT
HETATM    1  C   UNL     1       7.886  -4.564  23.661  1.00  0.00     0.027 C 
HETATM    2  C   UNL     1       8.288  -3.462  23.187  1.00  0.00     0.095 C 
ENDROOT
BRANCH   2   3
HETATM    3  C   UNL     1       8.631  -2.205  23.165  1.00  0.00     0.248 C 
HETATM    4  O   UNL     1       8.002  -1.495  22.502  1.00  0.00    -0.268 OA
HETATM    5  N   UNL     1       9.699  -1.910  23.968  1.00  0.00    -0.308 N 
HETATM    6  C   UNL     1      10.003  -0.651  24.113  1.00  0.00     0.122 A 
ATOM      7  HN  UNL     1      10.234  -2.643  24.433  1.00  0.00     0.170 HD
HETATM    8  N   UNL     1       9.361   0.286  24.792  1.00  0.00    -0.286 N 
HETATM    9  C   UNL     1      11.289  -0.226  23.486  1.00  0.00     0.051 A 
HETATM   10  N   UNL     1       9.602   1.430  25.044  1.00  0.00    -0.310 N 
ATOM     11  HN  UNL     1       8.475  -0.034  25.183  1.00  0.00     0.188 HD
HETATM   12  C   UNL     1      10.620   1.731  24.449  1.00  0.00     0.107 A 
ATOM     13  HN  UNL     1       9.054   2.042  25.648  1.00  0.00     0.186 HD
HETATM   14  C   UNL     1      11.311   0.985  23.792  1.00  0.00     0.022 A 
ENDBRANCH   2   3
BRANCH   1  15
HETATM   15  C   UNL     1       8.032  -4.952  24.867  1.00  0.00    -0.043 C 
HETATM   16  C   UNL     1       8.194  -5.376  25.870  1.00  0.00     0.027 C 
BRANCH  16  17
HETATM   17  N   UNL     1       8.129  -5.677  27.058  1.00  0.00    -0.229 N 
ATOM     18  HN  UNL     1       8.984  -5.864  27.581  1.00  0.00     0.190 HD
BRANCH  17  19
HETATM   19  S   UNL     1       6.709  -5.778  27.792  1.00  0.00     0.327 S 
HETATM   20 CL   UNL     1       5.983  -4.126  27.490  1.00  0.00     0.042 Cl
HETATM   21  O   UNL     1       5.853  -6.714  27.119  1.00  0.00    -0.188 OA
HETATM   22  O   UNL     1       6.803  -5.937  29.185  1.00  0.00    -0.188 OA
ENDBRANCH  17  19
ENDBRANCH  16  17
ENDBRANCH   1  15
BRANCH   1  23
HETATM   23  C   UNL     1       7.112  -5.137  22.597  1.00  0.00    -0.060 A 
HETATM   24  C   UNL     1       5.510  -4.845  22.698  1.00  0.00     0.040 A 
HETATM   25  C   UNL     1       6.717  -5.705  21.907  1.00  0.00     0.040 A 
ENDBRANCH   1  23
TORSDOF 5
ENDMDL
MODEL 5
REMARK VINA RESULT:    -6.506      1.874      1.985
REMARK INTER + INTRA:          -9.077
REMARK INTER:                  -8.391
REMARK INTRA:                  -0.686
REMARK UNBOUND:                -0.670
REMARK  5 active torsions:
REMARK  status: ('A' for Active; 'I' for Inactive)
REMARK    1  A    between atoms: S_2  and  N_5 
REMARK    2  A    between atoms: N_5  and  C_7 
REMARK    3  A    between atoms: C_8  and  C_9 
REMARK    4  A    between atoms: C_9  and  C_12 
REMARK    5  A    between atoms: C_13  and  C_14 
REMARK       I    between atoms: C_14  and  N_16 
ROOT
HETATM    1  C   UNL     1       9.982  -1.277  23.375  1.00  0.00     0.027 C 
HETATM    2  C   UNL     1       9.631  -0.334  22.607  1.00  0.00     0.095 C 
ENDROOT
BRANCH   2   3
HETATM    3  C   UNL     1       9.026   0.264  21.621  1.00  0.00     0.248 C 
HETATM    4  O   UNL     1       9.604   1.107  21.077  1.00  0.00    -0.268 OA
HETATM    5  N   UNL     1       7.775  -0.225  21.361  1.00  0.00    -0.308 N 
HETATM    6  C   UNL     1       7.172   0.222  20.296  1.00  0.00     0.122 A 
ATOM      7  HN  UNL     1       7.334  -0.909  21.975  1.00  0.00     0.170 HD
HETATM    8  N   UNL     1       7.429  -0.040  19.024  1.00  0.00    -0.286 N 
HETATM    9  C   UNL     1       5.985   1.090  20.548  1.00  0.00     0.051 A 
HETATM   10  N   UNL     1       6.889   0.255  17.999  1.00  0.00    -0.310 N 
ATOM     11  HN  UNL     1       8.262  -0.613  18.890  1.00  0.00     0.188 HD
HETATM   12  C   UNL     1       5.977   1.016  18.268  1.00  0.00     0.107 A 
ATOM     13  HN  UNL     1       7.145  -0.072  17.067  1.00  0.00     0.186 HD
HETATM   14  C   UNL     1       5.626   1.344  19.379  1.00  0.00     0.022 A 
ENDBRANCH   2   3
BRANCH   1  15
HETATM   15  C   UNL     1       9.292  -2.317  23.637  1.00  0.00    -0.043 C 
HETATM   16  C   UNL     1       8.773  -3.271  23.819  1.00  0.00     0.027 C 
BRANCH  16  17
HETATM   17  N   UNL     1       7.943  -4.160  23.985  1.00  0.00    -0.229 N 
ATOM     18  HN  UNL     1       7.721  -4.795  23.219  1.00  0.00     0.190 HD
BRANCH  17  19
HETATM   19  S   UNL     1       7.207  -4.326  25.398  1.00  0.00     0.327 S 
HETATM   20 CL   UNL     1       8.605  -4.372  26.576  1.00  0.00     0.042 Cl
HETATM   21  O   UNL     1       6.455  -3.148  25.723  1.00  0.00    -0.188 OA
HETATM   22  O   UNL     1       6.515  -5.543  25.534  1.00  0.00    -0.188 OA
ENDBRANCH  17  19
ENDBRANCH  16  17
ENDBRANCH   1  15
BRANCH   1  23
HETATM   23  C   UNL     1      11.346  -0.970  23.699  1.00  0.00    -0.060 A 
HETATM   24  C   UNL     1      11.551   0.451  24.473  1.00  0.00     0.040 A 
HETATM   25  C   UNL     1      12.314  -0.837  23.711  1.00  0.00     0.040 A 
ENDBRANCH   1  23
TORSDOF 5
ENDMDL
MODEL 6
REMARK VINA RESULT:    -6.387     19.990     22.608
REMARK INTER + INTRA:          -8.923
REMARK INTER:                  -8.265
REMARK INTRA:                  -0.658
REMARK UNBOUND:                -0.670
REMARK  5 active torsions:
REMARK  status: ('A' for Active; 'I' for Inactive)
REMARK    1  A    between atoms: S_2  and  N_5 
REMARK    2  A    between atoms: N_5  and  C_7 
REMARK    3  A    between atoms: C_8  and  C_9 
REMARK    4  A    between atoms: C_9  and  C_12 
REMARK    5  A    between atoms: C_13  and  C_14 
REMARK       I    between atoms: C_14  and  N_16 
ROOT
HETATM    1  C   UNL     1       5.610  11.804   3.211  1.00  0.00     0.027 C 
HETATM    2  C   UNL     1       5.071  10.670   3.369  1.00  0.00     0.095 C 
ENDROOT
BRANCH   2   3
HETATM    3  C   UNL     1       4.949   9.374   3.353  1.00  0.00     0.248 C 
HETATM    4  O   UNL     1       5.151   8.835   2.348  1.00  0.00    -0.268 OA
HETATM    5  N   UNL     1       4.613   8.834   4.564  1.00  0.00    -0.308 N 
HETATM    6  C   UNL     1       4.621   7.535   4.658  1.00  0.00     0.122 A 
ATOM      7  HN  UNL     1       4.366   9.424   5.359  1.00  0.00     0.170 HD
HETATM    8  N   UNL     1       5.656   6.710   4.692  1.00  0.00    -0.286 N 
HETATM    9  C   UNL     1       3.283   6.895   4.824  1.00  0.00     0.051 A 
HETATM   10  N   UNL     1       5.763   5.530   4.854  1.00  0.00    -0.310 N 
ATOM     11  HN  UNL     1       6.550   7.179   4.548  1.00  0.00     0.188 HD
HETATM   12  C   UNL     1       4.640   5.063   4.911  1.00  0.00     0.107 A 
ATOM     13  HN  UNL     1       6.636   5.010   4.931  1.00  0.00     0.186 HD
HETATM   14  C   UNL     1       3.604   5.690   4.894  1.00  0.00     0.022 A 
ENDBRANCH   2   3
BRANCH   1  15
HETATM   15  C   UNL     1       6.862  12.044   3.248  1.00  0.00    -0.043 C 
HETATM   16  C   UNL     1       7.945  12.202   3.370  1.00  0.00     0.027 C 
BRANCH  16  17
HETATM   17  N   UNL     1       9.092  12.637   3.351  1.00  0.00    -0.229 N 
ATOM     18  HN  UNL     1       9.880  11.994   3.432  1.00  0.00     0.190 HD
BRANCH  17  19
HETATM   19  S   UNL     1       9.360  14.209   3.197  1.00  0.00     0.327 S 
HETATM   20 CL   UNL     1       8.587  14.593   1.585  1.00  0.00     0.042 Cl
HETATM   21  O   UNL     1       8.618  14.950   4.177  1.00  0.00    -0.188 OA
HETATM   22  O   UNL     1      10.721  14.542   3.090  1.00  0.00    -0.188 OA
ENDBRANCH  17  19
ENDBRANCH  16  17
ENDBRANCH   1  15
BRANCH   1  23
HETATM   23  C   UNL     1       4.521  12.654   2.820  1.00  0.00    -0.060 A 
HETATM   24  C   UNL     1       3.321  12.759   3.920  1.00  0.00     0.040 A 
HETATM   25  C   UNL     1       3.806  13.129   2.355  1.00  0.00     0.040 A 
ENDBRANCH   1  23
TORSDOF 5
ENDMDL
MODEL 7
REMARK VINA RESULT:    -6.293     19.702     22.205
REMARK INTER + INTRA:          -8.802
REMARK INTER:                  -8.153
REMARK INTRA:                  -0.648
REMARK UNBOUND:                -0.670
REMARK  5 active torsions:
REMARK  status: ('A' for Active; 'I' for Inactive)
REMARK    1  A    between atoms: S_2  and  N_5 
REMARK    2  A    between atoms: N_5  and  C_7 
REMARK    3  A    between atoms: C_8  and  C_9 
REMARK    4  A    between atoms: C_9  and  C_12 
REMARK    5  A    between atoms: C_13  and  C_14 
REMARK       I    between atoms: C_14  and  N_16 
ROOT
HETATM    1  C   UNL     1       5.694  10.738   3.262  1.00  0.00     0.027 C 
HETATM    2  C   UNL     1       6.695  11.510   3.243  1.00  0.00     0.095 C 
ENDROOT
BRANCH   2   3
HETATM    3  C   UNL     1       7.774  12.107   3.664  1.00  0.00     0.248 C 
HETATM    4  O   UNL     1       8.557  11.459   4.218  1.00  0.00    -0.268 OA
HETATM    5  N   UNL     1       7.823  13.440   3.360  1.00  0.00    -0.308 N 
HETATM    6  C   UNL     1       8.936  14.067   3.616  1.00  0.00     0.122 A 
ATOM      7  HN  UNL     1       7.023  13.922   2.950  1.00  0.00     0.170 HD
HETATM    8  N   UNL     1      10.100  13.985   2.991  1.00  0.00    -0.286 N 
HETATM    9  C   UNL     1       8.868  15.069   4.720  1.00  0.00     0.051 A 
HETATM   10  N   UNL     1      11.136  14.570   3.102  1.00  0.00    -0.310 N 
ATOM     11  HN  UNL     1      10.116  13.272   2.262  1.00  0.00     0.188 HD
HETATM   12  C   UNL     1      11.037  15.316   4.059  1.00  0.00     0.107 A 
ATOM     13  HN  UNL     1      11.955  14.464   2.504  1.00  0.00     0.186 HD
HETATM   14  C   UNL     1      10.041  15.497   4.723  1.00  0.00     0.022 A 
ENDBRANCH   2   3
BRANCH   1  15
HETATM   15  C   UNL     1       5.604   9.653   3.927  1.00  0.00    -0.043 C 
HETATM   16  C   UNL     1       5.535   8.666   4.410  1.00  0.00     0.027 C 
BRANCH  16  17
HETATM   17  N   UNL     1       5.278   7.719   5.147  1.00  0.00    -0.229 N 
ATOM     18  HN  UNL     1       5.851   7.548   5.973  1.00  0.00     0.190 HD
BRANCH  17  19
HETATM   19  S   UNL     1       4.046   6.749   4.818  1.00  0.00     0.327 S 
HETATM   20 CL   UNL     1       4.107   6.626   2.994  1.00  0.00     0.042 Cl
HETATM   21  O   UNL     1       4.294   5.424   5.312  1.00  0.00    -0.188 OA
HETATM   22  O   UNL     1       2.794   7.294   5.151  1.00  0.00    -0.188 OA
ENDBRANCH  17  19
ENDBRANCH  16  17
ENDBRANCH   1  15
BRANCH   1  23
HETATM   23  C   UNL     1       4.687  11.458   2.535  1.00  0.00    -0.060 A 
HETATM   24  C   UNL     1       3.472  10.528   1.969  1.00  0.00     0.040 A 
HETATM   25  C   UNL     1       4.179  12.051   1.948  1.00  0.00     0.040 A 
ENDBRANCH   1  23
TORSDOF 5
ENDMDL
MODEL 8
REMARK VINA RESULT:    -6.291      5.054      8.534
REMARK INTER + INTRA:          -8.800
REMARK INTER:                  -8.235
REMARK INTRA:                  -0.564
REMARK UNBOUND:                -0.670
REMARK  5 active torsions:
REMARK  status: ('A' for Active; 'I' for Inactive)
REMARK    1  A    between atoms: S_2  and  N_5 
REMARK    2  A    between atoms: N_5  and  C_7 
REMARK    3  A    between atoms: C_8  and  C_9 
REMARK    4  A    between atoms: C_9  and  C_12 
REMARK    5  A    between atoms: C_13  and  C_14 
REMARK       I    between atoms: C_14  and  N_16 
ROOT
HETATM    1  C   UNL     1       7.212  -4.605  23.750  1.00  0.00     0.027 C 
HETATM    2  C   UNL     1       6.461  -5.189  24.584  1.00  0.00     0.095 C 
ENDROOT
BRANCH   2   3
HETATM    3  C   UNL     1       6.050  -5.643  25.734  1.00  0.00     0.248 C 
HETATM    4  O   UNL     1       5.243  -6.474  25.717  1.00  0.00    -0.268 OA
HETATM    5  N   UNL     1       6.668  -5.067  26.809  1.00  0.00    -0.308 N 
HETATM    6  C   UNL     1       6.417  -5.577  27.982  1.00  0.00     0.122 A 
ATOM      7  HN  UNL     1       7.298  -4.272  26.699  1.00  0.00     0.170 HD
HETATM    8  N   UNL     1       6.824  -6.728  28.492  1.00  0.00    -0.286 N 
HETATM    9  C   UNL     1       5.621  -4.712  28.901  1.00  0.00     0.051 A 
HETATM   10  N   UNL     1       6.713  -7.236  29.569  1.00  0.00    -0.310 N 
ATOM     11  HN  UNL     1       7.341  -7.304  27.828  1.00  0.00     0.188 HD
HETATM   12  C   UNL     1       5.998  -6.517  30.243  1.00  0.00     0.107 A 
ATOM     13  HN  UNL     1       7.139  -8.112  29.869  1.00  0.00     0.186 HD
HETATM   14  C   UNL     1       5.554  -5.440  29.913  1.00  0.00     0.022 A 
ENDBRANCH   2   3
BRANCH   1  15
HETATM   15  C   UNL     1       8.008  -3.643  24.012  1.00  0.00    -0.043 C 
HETATM   16  C   UNL     1       8.772  -2.882  24.234  1.00  0.00     0.027 C 
BRANCH  16  17
HETATM   17  N   UNL     1       9.395  -1.907  24.644  1.00  0.00    -0.229 N 
ATOM     18  HN  UNL     1       9.362  -1.664  25.633  1.00  0.00     0.190 HD
BRANCH  17  19
HETATM   19  S   UNL     1      10.259  -1.015  23.632  1.00  0.00     0.327 S 
HETATM   20 CL   UNL     1      11.295  -0.016  24.760  1.00  0.00     0.042 Cl
HETATM   21  O   UNL     1      11.169  -1.833  22.880  1.00  0.00    -0.188 OA
HETATM   22  O   UNL     1       9.489  -0.114  22.875  1.00  0.00    -0.188 OA
ENDBRANCH  17  19
ENDBRANCH  16  17
ENDBRANCH   1  15
BRANCH   1  23
HETATM   23  C   UNL     1       7.075  -5.387  22.554  1.00  0.00    -0.060 A 
HETATM   24  C   UNL     1       5.532  -5.635  22.086  1.00  0.00     0.040 A 
HETATM   25  C   UNL     1       7.141  -6.045  21.836  1.00  0.00     0.040 A 
ENDBRANCH   1  23
TORSDOF 5
ENDMDL
MODEL 9
REMARK VINA RESULT:    -6.203     24.693     26.332
REMARK INTER + INTRA:          -8.686
REMARK INTER:                  -7.948
REMARK INTRA:                  -0.738
REMARK UNBOUND:                -0.670
REMARK  5 active torsions:
REMARK  status: ('A' for Active; 'I' for Inactive)
REMARK    1  A    between atoms: S_2  and  N_5 
REMARK    2  A    between atoms: N_5  and  C_7 
REMARK    3  A    between atoms: C_8  and  C_9 
REMARK    4  A    between atoms: C_9  and  C_12 
REMARK    5  A    between atoms: C_13  and  C_14 
REMARK       I    between atoms: C_14  and  N_16 
ROOT
HETATM    1  C   UNL     1       8.837  17.346   1.630  1.00  0.00     0.027 C 
HETATM    2  C   UNL     1       9.407  18.094   2.477  1.00  0.00     0.095 C 
ENDROOT
BRANCH   2   3
HETATM    3  C   UNL     1       9.809  18.520   3.640  1.00  0.00     0.248 C 
HETATM    4  O   UNL     1       8.997  18.869   4.387  1.00  0.00    -0.268 OA
HETATM    5  N   UNL     1      11.166  18.468   3.808  1.00  0.00    -0.308 N 
HETATM    6  C   UNL     1      11.627  18.736   4.997  1.00  0.00     0.122 A 
ATOM      7  HN  UNL     1      11.789  18.231   3.037  1.00  0.00     0.170 HD
HETATM    8  N   UNL     1      11.564  18.004   6.098  1.00  0.00    -0.286 N 
HETATM    9  C   UNL     1      12.395  20.011   5.115  1.00  0.00     0.051 A 
HETATM   10  N   UNL     1      12.020  18.129   7.196  1.00  0.00    -0.310 N 
ATOM     11  HN  UNL     1      11.009  17.155   5.986  1.00  0.00     0.188 HD
HETATM   12  C   UNL     1      12.570  19.214   7.245  1.00  0.00     0.107 A 
ATOM     13  HN  UNL     1      11.959  17.450   7.954  1.00  0.00     0.186 HD
HETATM   14  C   UNL     1      12.707  19.987   6.324  1.00  0.00     0.022 A 
ENDBRANCH   2   3
BRANCH   1  15
HETATM   15  C   UNL     1       8.637  16.093   1.760  1.00  0.00    -0.043 C 
HETATM   16  C   UNL     1       8.393  15.035   1.942  1.00  0.00     0.027 C 
BRANCH  16  17
HETATM   17  N   UNL     1       8.419  13.816   2.082  1.00  0.00    -0.229 N 
ATOM     18  HN  UNL     1       8.313  13.209   1.269  1.00  0.00     0.190 HD
BRANCH  17  19
HETATM   19  S   UNL     1       8.618  13.172   3.535  1.00  0.00     0.327 S 
HETATM   20 CL   UNL     1       7.255  13.922   4.497  1.00  0.00     0.042 Cl
HETATM   21  O   UNL     1       8.353  11.762   3.509  1.00  0.00    -0.188 OA
HETATM   22  O   UNL     1       9.819  13.551   4.161  1.00  0.00    -0.188 OA
ENDBRANCH  17  19
ENDBRANCH  16  17
ENDBRANCH   1  15
BRANCH   1  23
HETATM   23  C   UNL     1       8.343  18.259   0.639  1.00  0.00    -0.060 A 
HETATM   24  C   UNL     1       7.236  19.321   1.194  1.00  0.00     0.040 A 
HETATM   25  C   UNL     1       8.000  18.696  -0.165  1.00  0.00     0.040 A 
ENDBRANCH   1  23
TORSDOF 5
ENDMDL
