stable:False satoms:13 tatoms:24 sratio:0.5416666666666666
  -OEChem-08062402423D

 31 31  0     1  0  0  0  0  0999 V2000
  -13.7934   -0.3954  -24.2202 O   0  0  0  0  0  0  0  0  0  0  0  0
  -12.5544   -0.0421  -24.2622 C   0  0  0  0  0  0  0  0  0  0  0  0
  -13.8175   -1.3668  -23.3862 O   0  0  0  0  0  0  0  0  0  0  0  0
  -11.6428   -1.9013  -23.7799 N   0  0  0  0  0  0  0  0  0  0  0  0
  -12.6443   -1.9449  -23.4060 N   0  0  0  0  0  0  0  0  0  0  0  0
  -11.3711    0.7196  -24.5398 C   0  0  0  0  0  0  0  0  0  0  0  0
  -10.3941   -1.5106  -24.0213 C   0  0  0  0  0  0  0  0  0  0  0  0
   -9.5537   -0.8503  -24.2738 C   0  0  0  0  0  0  0  0  0  0  0  0
  -11.6947    1.6197  -24.8972 H   0  0  0  0  0  0  0  0  0  0  0  0
   -8.9380    1.7676  -25.0524 Cl  0  0  0  0  0  0  0  0  0  0  0  0
   -6.5580   -0.1913  -24.1025 N   0  0  0  0  0  0  0  0  0  0  0  0
   -7.3579    0.2242  -23.7281 H   0  0  0  0  0  0  0  0  0  0  0  0
   -9.9853    0.5498  -24.5092 C   0  0  3  0  0  0  0  0  0  0  0  0
   -6.5706   -1.4790  -24.2840 N   0  3  0  0  0  0  0  0  0  0  0  0
   -8.6106   -1.7338  -24.3934 C   0  0  0  0  0  0  0  0  0  0  0  0
   -7.4633   -2.2966  -24.5587 C   0  0  0  0  0  0  0  0  0  0  0  0
   -7.7090   -4.1270  -26.1185 C   0  0  0  0  0  0  0  0  0  0  0  0
   -6.7012   -4.2978  -24.3695 H   0  0  0  0  0  0  0  0  0  0  0  0
   -7.2211   -5.4981  -26.4972 C   0  0  0  0  0  0  0  0  0  0  0  0
   -7.2252   -3.7064  -24.9616 N   0  0  0  0  0  0  0  0  0  0  0  0
   -7.3186   -6.2385  -25.7366 H   0  0  0  0  0  0  0  0  0  0  0  0
   -6.2042   -5.4417  -26.8010 H   0  0  0  0  0  0  0  0  0  0  0  0
   -7.8248   -5.7669  -27.3465 H   0  0  0  0  0  0  0  0  0  0  0  0
   -8.4340   -3.5408  -26.9029 O   0  0  0  0  0  0  0  0  0  0  0  0
  -12.1119   -0.8771  -23.7394 H   0  0  0  0  0  0  0  0  0  0  0  0
  -11.9067   -1.9516  -24.7432 H   0  0  0  0  0  0  0  0  0  0  0  0
  -12.9079   -2.8529  -23.7317 H   0  0  0  0  0  0  0  0  0  0  0  0
  -10.1918   -2.2558  -24.8047 H   0  0  0  0  0  0  0  0  0  0  0  0
   -9.9788   -1.8618  -23.0652 H   0  0  0  0  0  0  0  0  0  0  0  0
   -9.8882    0.8412  -23.4529 H   0  0  0  0  0  0  0  0  0  0  0  0
   -9.2078   -2.6240  -24.2619 H   0  0  0  0  0  0  0  0  0  0  0  0
 19 21  1  0  0  0  0
 19 22  1  0  0  0  0
 18 20  1  0  0  0  0
 19 23  1  0  0  0  0
 17 19  1  0  0  0  0
 17 20  1  0  0  0  0
 16 20  1  0  0  0  0
 17 24  2  0  0  0  0
 14 16  2  0  0  0  0
 11 14  2  0  0  0  0
 15 16  1  0  0  0  0
 11 12  1  0  0  0  0
  8 15  2  0  0  0  0
  7  8  1  0  0  0  0
  8 13  1  0  0  0  0
  4  7  1  0  0  0  0
  4  5  1  0  0  0  0
  3  5  1  0  0  0  0
 10 13  1  0  0  0  0
  6 13  1  0  0  0  0
  1  3  1  0  0  0  0
  2  6  2  0  0  0  0
  6  9  1  0  0  0  0
  1  2  1  0  0  0  0
  2 25  1  0  0  0  0
  4 26  1  0  0  0  0
  5 27  1  0  0  0  0
  7 28  1  0  0  0  0
  7 29  1  0  0  0  0
 13 30  1  0  0  0  0
 15 31  1  0  0  0  0
M  CHG  1  14   1
M  END
> <Chemgauss4>
-6.964556

$$$$
