stable:False satoms:13 tatoms:24 sratio:0.5416666666666666
  -OEChem-08062402423D

 31 31  0     1  0  0  0  0  0999 V2000
   12.9102   -1.8737   22.9376 O   0  0  0  0  0  0  0  0  0  0  0  0
   11.7340   -1.5873   23.3804 C   0  0  0  0  0  0  0  0  0  0  0  0
   13.7050   -1.2465   23.7216 O   0  0  0  0  0  0  0  0  0  0  0  0
   12.1360    0.3156   24.2391 N   0  0  0  0  0  0  0  0  0  0  0  0
   13.0718   -0.2004   24.1860 N   0  0  0  0  0  0  0  0  0  0  0  0
   10.3130   -1.6217   23.5731 C   0  0  0  0  0  0  0  0  0  0  0  0
   10.8679    0.6204   24.5018 C   0  0  0  0  0  0  0  0  0  0  0  0
    9.7787    0.5068   24.5844 C   0  0  0  0  0  0  0  0  0  0  0  0
    9.9850   -2.4595   23.0904 H   0  0  0  0  0  0  0  0  0  0  0  0
    7.6793   -1.2632   24.0378 Cl  0  0  0  0  0  0  0  0  0  0  0  0
    7.1248    1.3034   25.9111 N   0  0  0  0  0  0  0  0  0  0  0  0
    7.6630    0.4892   25.9250 H   0  0  0  0  0  0  0  0  0  0  0  0
    9.3160   -0.8366   24.1562 C   0  0  3  0  0  0  0  0  0  0  0  0
    7.7445    2.4389   25.7774 N   0  3  0  0  0  0  0  0  0  0  0  0
    9.4533    1.7291   24.8748 C   0  0  0  0  0  0  0  0  0  0  0  0
    8.7852    2.7834   25.1950 C   0  0  0  0  0  0  0  0  0  0  0  0
    9.4226    4.5895   23.7201 C   0  0  0  0  0  0  0  0  0  0  0  0
    9.2839    4.8049   25.7296 H   0  0  0  0  0  0  0  0  0  0  0  0
    9.6260    6.0751   23.6064 C   0  0  0  0  0  0  0  0  0  0  0  0
    9.1982    4.1909   24.9612 N   0  0  0  0  0  0  0  0  0  0  0  0
   10.3349    6.4876   24.2872 H   0  0  0  0  0  0  0  0  0  0  0  0
    8.6942    6.5714   23.7297 H   0  0  0  0  0  0  0  0  0  0  0  0
    9.9663    6.2175   22.5955 H   0  0  0  0  0  0  0  0  0  0  0  0
    9.4359    3.9301   22.6956 O   0  0  0  0  0  0  0  0  0  0  0  0
   11.9880   -0.7874   24.0601 H   0  0  0  0  0  0  0  0  0  0  0  0
   12.0573    0.4562   23.2522 H   0  0  0  0  0  0  0  0  0  0  0  0
   13.6456    0.5267   23.8091 H   0  0  0  0  0  0  0  0  0  0  0  0
   10.8402    1.5309   23.8852 H   0  0  0  0  0  0  0  0  0  0  0  0
   11.0331    0.8951   25.5541 H   0  0  0  0  0  0  0  0  0  0  0  0
    9.4316   -1.2823   25.1552 H   0  0  0  0  0  0  0  0  0  0  0  0
   10.4304    2.1803   24.7845 H   0  0  0  0  0  0  0  0  0  0  0  0
 19 21  1  0  0  0  0
 19 22  1  0  0  0  0
 18 20  1  0  0  0  0
 19 23  1  0  0  0  0
 17 19  1  0  0  0  0
 17 20  1  0  0  0  0
 16 20  1  0  0  0  0
 17 24  2  0  0  0  0
 14 16  2  0  0  0  0
 11 14  2  0  0  0  0
 15 16  1  0  0  0  0
 11 12  1  0  0  0  0
  8 15  2  0  0  0  0
  7  8  1  0  0  0  0
  8 13  1  0  0  0  0
  4  7  1  0  0  0  0
  4  5  1  0  0  0  0
  3  5  1  0  0  0  0
 10 13  1  0  0  0  0
  6 13  1  0  0  0  0
  1  3  1  0  0  0  0
  2  6  2  0  0  0  0
  6  9  1  0  0  0  0
  1  2  1  0  0  0  0
  2 25  1  0  0  0  0
  4 26  1  0  0  0  0
  5 27  1  0  0  0  0
  7 28  1  0  0  0  0
  7 29  1  0  0  0  0
 13 30  1  0  0  0  0
 15 31  1  0  0  0  0
M  CHG  1  14   1
M  END
> <Chemgauss4>
-6.891127

$$$$
