stable:False satoms:19 tatoms:24 sratio:0.7916666666666666
  -OEChem-08062405483D

 27 28  0     0  0  0  0  0  0999 V2000
   13.2191   -0.0229   22.8875 H   0  0  0  0  0  0  0  0  0  0  0  0
   12.6656   -0.6938   23.6184 C   0  0  0  0  0  0  0  0  0  0  0  0
   12.8089   -0.2332   24.6888 H   0  0  0  0  0  0  0  0  0  0  0  0
   13.3629   -1.8672   23.6267 F   0  0  0  0  0  0  0  0  0  0  0  0
   11.3519   -0.7791   23.1505 N   0  0  0  0  0  0  0  0  0  0  0  0
   10.4863   -1.4703   23.3354 C   0  0  0  0  0  0  0  0  0  0  0  0
    9.3067   -1.7366   23.0610 O   0  0  0  0  0  0  0  0  0  0  0  0
    8.6980   -3.7361   24.2331 C   0  0  0  0  0  0  0  0  0  0  0  0
    9.3464   -2.7437   23.6558 C   0  0  0  0  0  0  0  0  0  0  0  0
    8.8187   -4.8760   24.6722 O   0  0  0  0  0  0  0  0  0  0  0  0
    7.2722   -5.0509   25.5096 O   0  0  0  0  0  0  0  0  0  0  0  0
    6.7599   -3.9760   25.1847 N   0  0  0  0  0  0  0  0  0  0  0  0
    7.4767   -3.3060   24.1323 C   0  0  0  0  0  0  0  0  0  0  0  0
    7.3305   -2.5700   23.0812 N   0  0  0  0  0  0  0  0  0  0  0  0
    6.6823   -2.3989   21.9071 C   0  0  0  0  0  0  0  0  0  0  0  0
    5.7574   -3.1062   21.6176 O   0  0  0  0  0  0  0  0  0  0  0  0
    7.1455   -1.3719   21.0941 N   0  0  0  0  0  0  0  0  0  0  0  0
    6.2388   -0.9027   20.2797 C   0  0  0  0  0  2  0  0  0  0  0  0
    4.4303    0.1165   18.7484 H   0  0  0  0  0  0  0  0  0  0  0  0
    5.3276   -0.2290   18.2340 C   0  0  0  0  0  0  0  0  0  0  0  0
    5.3515   -0.2075   17.1701 H   0  0  0  0  0  0  0  0  0  0  0  0
    6.3977   -0.7071   18.9013 C   0  0  0  0  0  0  0  0  0  0  0  0
    7.3398   -0.9810   18.4211 H   0  0  0  0  0  0  0  0  0  0  0  0
   11.4736   -0.8376   22.1597 H   0  0  0  0  0  0  0  0  0  0  0  0
    6.7384   -3.3783   25.9861 H   0  0  0  0  0  0  0  0  0  0  0  0
    7.9644   -1.8025   23.1757 H   0  0  0  0  0  0  0  0  0  0  0  0
    8.0829   -1.0253   21.1292 H   0  0  0  0  0  0  0  0  0  0  0  0
 19 20  1  0  0  0  0
 20 21  1  0  0  0  0
 20 22  2  0  0  0  0
 18 22  1  0  0  0  0
 22 23  1  0  0  0  0
 17 18  1  0  0  0  0
 15 16  2  0  0  0  0
 15 17  1  0  0  0  0
 14 15  1  0  0  0  0
 13 14  1  0  0  0  0
 12 13  1  0  0  0  0
 11 12  1  0  0  0  0
  8 13  2  0  0  0  0
 10 11  1  0  0  0  0
  7  9  1  0  0  0  0
  6  7  1  0  0  0  0
  8  9  1  0  0  0  0
  8 10  1  0  0  0  0
  6  9  2  0  0  0  0
  5  6  1  0  0  0  0
  2  5  1  0  0  0  0
  2  3  1  0  0  0  0
  1  2  1  0  0  0  0
  2  4  1  0  0  0  0
  5 24  1  0  0  0  0
 12 25  1  0  0  0  0
 14 26  1  0  0  0  0
 17 27  1  0  0  0  0
M  END
> <Chemgauss4>
-5.870272

$$$$
