stable:False satoms:19 tatoms:24 sratio:0.7916666666666666
  -OEChem-08062405473D

 27 28  0     0  0  0  0  0  0999 V2000
  -12.9938   -0.4470  -23.1397 H   0  0  0  0  0  0  0  0  0  0  0  0
  -12.3290   -1.1147  -23.7742 C   0  0  0  0  0  0  0  0  0  0  0  0
  -12.4494   -0.7656  -24.8887 H   0  0  0  0  0  0  0  0  0  0  0  0
  -12.9009   -2.3526  -23.7129 F   0  0  0  0  0  0  0  0  0  0  0  0
  -11.0462   -1.0180  -23.2291 N   0  0  0  0  0  0  0  0  0  0  0  0
  -10.1045   -1.6255  -23.3018 C   0  0  0  0  0  0  0  0  0  0  0  0
   -8.9240   -1.7391  -22.9397 O   0  0  0  0  0  0  0  0  0  0  0  0
   -8.0403   -3.7547  -23.8879 C   0  0  0  0  0  0  0  0  0  0  0  0
   -8.8224   -2.7919  -23.4407 C   0  0  0  0  0  0  0  0  0  0  0  0
   -8.0155   -4.9344  -24.2263 O   0  0  0  0  0  0  0  0  0  0  0  0
   -6.4087   -5.0133  -24.9579 O   0  0  0  0  0  0  0  0  0  0  0  0
   -6.0307   -3.8657  -24.7055 N   0  0  0  0  0  0  0  0  0  0  0  0
   -6.8783   -3.1889  -23.7602 C   0  0  0  0  0  0  0  0  0  0  0  0
   -6.8758   -2.3541  -22.7747 N   0  0  0  0  0  0  0  0  0  0  0  0
   -6.3253   -2.0144  -21.5875 C   0  0  0  0  0  0  0  0  0  0  0  0
   -5.3535   -2.5909  -21.1839 O   0  0  0  0  0  0  0  0  0  0  0  0
   -6.9422   -0.9772  -20.8991 N   0  0  0  0  0  0  0  0  0  0  0  0
   -6.1423   -0.3453  -20.0826 C   0  0  0  0  0  2  0  0  0  0  0  0
   -4.5495    0.9896  -18.5546 H   0  0  0  0  0  0  0  0  0  0  0  0
   -5.4380    0.5951  -18.0607 C   0  0  0  0  0  0  0  0  0  0  0  0
   -5.5322    0.7050  -17.0062 H   0  0  0  0  0  0  0  0  0  0  0  0
   -6.4086   -0.0506  -18.7389 C   0  0  0  0  0  0  0  0  0  0  0  0
   -7.3467   -0.3819  -18.2881 H   0  0  0  0  0  0  0  0  0  0  0  0
  -11.2247   -1.0041  -22.2453 H   0  0  0  0  0  0  0  0  0  0  0  0
   -6.0188   -3.3400  -25.5561 H   0  0  0  0  0  0  0  0  0  0  0  0
   -7.5774   -1.6700  -22.9740 H   0  0  0  0  0  0  0  0  0  0  0  0
   -7.9058   -0.7377  -21.0173 H   0  0  0  0  0  0  0  0  0  0  0  0
 19 20  1  0  0  0  0
 20 21  1  0  0  0  0
 20 22  2  0  0  0  0
 18 22  1  0  0  0  0
 22 23  1  0  0  0  0
 17 18  1  0  0  0  0
 15 16  2  0  0  0  0
 15 17  1  0  0  0  0
 14 15  1  0  0  0  0
 13 14  1  0  0  0  0
 12 13  1  0  0  0  0
 11 12  1  0  0  0  0
  8 13  2  0  0  0  0
 10 11  1  0  0  0  0
  7  9  1  0  0  0  0
  6  7  1  0  0  0  0
  8  9  1  0  0  0  0
  8 10  1  0  0  0  0
  6  9  2  0  0  0  0
  5  6  1  0  0  0  0
  2  5  1  0  0  0  0
  2  3  1  0  0  0  0
  1  2  1  0  0  0  0
  2  4  1  0  0  0  0
  5 24  1  0  0  0  0
 12 25  1  0  0  0  0
 14 26  1  0  0  0  0
 17 27  1  0  0  0  0
M  END
> <Chemgauss4>
-5.928450

$$$$
