
 OpenBabel07202414163D

 51 53  0  0  1  0  0  0  0  0999 V2000
    0.8170    1.4593   -3.1942 C   0  0  0  0  0  0  0  0  0  0  0  0
    0.6512    0.5327   -2.0197 C   0  0  0  0  0  0  0  0  0  0  0  0
    0.7449   -0.8497   -2.2775 C   0  0  0  0  0  0  0  0  0  0  0  0
    0.5368   -1.7862   -1.2723 C   0  0  0  0  0  0  0  0  0  0  0  0
    0.2206   -1.3541    0.0094 C   0  0  0  0  0  0  0  0  0  0  0  0
    0.1113    0.0173    0.3045 C   0  0  0  0  0  0  0  0  0  0  0  0
   -0.2067    0.3997    1.7239 C   0  0  0  0  0  0  0  0  0  0  0  0
    0.3398    0.9753   -0.7099 C   0  0  0  0  0  0  0  0  0  0  0  0
    0.1981    2.3653   -0.3999 N   0  0  0  0  0  0  0  0  0  0  0  0
    1.2791    3.2243   -0.4599 C   0  0  0  0  0  0  0  0  0  0  0  0
    2.4059    2.8588   -0.8143 O   0  0  0  0  0  0  0  0  0  0  0  0
    1.0843    4.6980   -0.0965 C   0  0  2  0  0  0  0  0  0  0  0  0
    2.1291    5.1348    0.9624 C   0  0  0  0  0  0  0  0  0  0  0  0
    2.3208    6.6026    0.9535 N   0  0  0  0  0  0  0  0  0  0  0  0
    3.5213    7.2458    1.2867 C   0  0  0  0  0  0  0  0  0  0  0  0
    3.5682    8.4737    1.3771 O   0  0  0  0  0  0  0  0  0  0  0  0
    4.7356    6.3542    1.5204 C   0  0  0  0  0  0  0  0  0  0  0  0
    6.1993    7.3058    1.8521 Cl  0  0  0  0  0  0  0  0  0  0  0  0
    1.0984    7.4225    0.9448 C   0  0  0  0  0  0  0  0  0  0  0  0
   -0.0138    6.8830    0.0227 C   0  0  0  0  0  0  0  0  0  0  0  0
   -0.2307    5.3904    0.1686 N   0  0  0  0  0  0  0  0  0  0  0  0
   -1.0933    4.9407    1.5655 S   0  0  0  0  0  0  0  0  0  0  0  0
   -1.2558    3.5078    1.5308 O   0  0  0  0  0  0  0  0  0  0  0  0
   -0.5175    5.5967    2.7191 O   0  0  0  0  0  0  0  0  0  0  0  0
   -2.7090    5.5643    1.4457 C   0  0  0  0  0  0  0  0  0  0  0  0
   -3.3074    6.4770    2.3693 C   0  0  0  0  0  0  0  0  0  0  0  0
   -4.6118    6.7728    2.0337 C   0  0  0  0  0  0  0  0  0  0  0  0
   -5.1045    5.9725    0.6035 S   0  0  0  0  0  0  0  0  0  0  0  0
   -3.5786    5.2164    0.4320 C   0  0  0  0  0  0  0  0  0  0  0  0
    0.9762    0.8950   -4.1221 H   0  0  0  0  0  0  0  0  0  0  0  0
    1.6858    2.1085   -3.0747 H   0  0  0  0  0  0  0  0  0  0  0  0
   -0.0866    2.0587   -3.3379 H   0  0  0  0  0  0  0  0  0  0  0  0
    0.9677   -1.2103   -3.2810 H   0  0  0  0  0  0  0  0  0  0  0  0
    0.6157   -2.8477   -1.4884 H   0  0  0  0  0  0  0  0  0  0  0  0
    0.0695   -2.1001    0.7870 H   0  0  0  0  0  0  0  0  0  0  0  0
   -0.1980   -0.4749    2.3844 H   0  0  0  0  0  0  0  0  0  0  0  0
   -1.2035    0.8436    1.7810 H   0  0  0  0  0  0  0  0  0  0  0  0
    0.5427    1.0979    2.1096 H   0  0  0  0  0  0  0  0  0  0  0  0
   -0.4398    2.5698    0.3707 H   0  0  0  0  0  0  0  0  0  0  0  0
    1.4151    5.1595   -1.0446 H   0  0  0  0  0  0  0  0  0  0  0  0
    3.0845    4.6352    0.7925 H   0  0  0  0  0  0  0  0  0  0  0  0
    1.8159    4.8529    1.9741 H   0  0  0  0  0  0  0  0  0  0  0  0
    4.9396    5.7543    0.6308 H   0  0  0  0  0  0  0  0  0  0  0  0
    4.5575    5.7124    2.3872 H   0  0  0  0  0  0  0  0  0  0  0  0
    1.3373    8.4472    0.6375 H   0  0  0  0  0  0  0  0  0  0  0  0
    0.7550    7.4937    1.9814 H   0  0  0  0  0  0  0  0  0  0  0  0
    0.2662    7.0753   -1.0219 H   0  0  0  0  0  0  0  0  0  0  0  0
   -0.9485    7.4290    0.1848 H   0  0  0  0  0  0  0  0  0  0  0  0
   -2.8154    6.8892    3.2443 H   0  0  0  0  0  0  0  0  0  0  0  0
   -5.3048    7.4173    2.5603 H   0  0  0  0  0  0  0  0  0  0  0  0
   -3.3979    4.5440   -0.3961 H   0  0  0  0  0  0  0  0  0  0  0  0
  1  2  1  0  0  0  0
  1 30  1  0  0  0  0
  1 31  1  0  0  0  0
  1 32  1  0  0  0  0
  2  3  1  0  0  0  0
  2  8  2  0  0  0  0
  3  4  2  0  0  0  0
  3 33  1  0  0  0  0
  4  5  1  0  0  0  0
  4 34  1  0  0  0  0
  5  6  2  0  0  0  0
  5 35  1  0  0  0  0
  6  7  1  0  0  0  0
  6  8  1  0  0  0  0
  7 36  1  0  0  0  0
  7 37  1  0  0  0  0
  7 38  1  0  0  0  0
  8  9  1  0  0  0  0
  9 10  1  0  0  0  0
  9 39  1  0  0  0  0
 10 11  2  0  0  0  0
 10 12  1  0  0  0  0
 12 13  1  0  0  0  0
 12 21  1  0  0  0  0
 12 40  1  6  0  0  0
 13 14  1  0  0  0  0
 13 41  1  0  0  0  0
 13 42  1  0  0  0  0
 14 15  1  0  0  0  0
 14 19  1  0  0  0  0
 15 16  2  0  0  0  0
 15 17  1  0  0  0  0
 17 18  1  0  0  0  0
 17 43  1  0  0  0  0
 17 44  1  0  0  0  0
 19 20  1  0  0  0  0
 19 45  1  0  0  0  0
 19 46  1  0  0  0  0
 20 21  1  0  0  0  0
 20 47  1  0  0  0  0
 20 48  1  0  0  0  0
 21 22  1  0  0  0  0
 22 23  2  0  0  0  0
 22 24  2  0  0  0  0
 22 25  1  0  0  0  0
 25 26  1  0  0  0  0
 25 29  2  0  0  0  0
 26 27  2  0  0  0  0
 26 49  1  0  0  0  0
 27 28  1  0  0  0  0
 27 50  1  0  0  0  0
 28 29  1  0  0  0  0
 29 51  1  0  0  0  0
M  END
$$$$
