REMARK  8 active torsions:
REMARK  status: ('A' for Active; 'I' for Inactive)
REMARK    1  A    between atoms: S_2  and  N_5 
REMARK    2  A    between atoms: N_5  and  C_7 
REMARK    3  A    between atoms: C_8  and  C_9 
REMARK    4  A    between atoms: C_9  and  C_13 
REMARK    5  A    between atoms: C_9  and  O_10 
REMARK    6  A    between atoms: O_10  and  C_11 
REMARK    7  A    between atoms: C_13  and  C_14 
REMARK       I    between atoms: C_14  and  N_16 
REMARK    8  A    between atoms: N_16  and  C_18 
ROOT
HETATM    1  C   UNL     1       9.813  -0.362  22.323  1.00  0.00    -0.039 C 
ENDROOT
BRANCH   1   2
HETATM    2  C   UNL     1      10.172  -1.024  23.334  1.00  0.00     0.279 C 
BRANCH   2   3
HETATM    3  C   UNL     1       9.382  -2.072  23.640  1.00  0.00    -0.038 C 
HETATM    4  C   UNL     1       8.865  -2.956  24.169  1.00  0.00     0.025 C 
BRANCH   4   5
HETATM    5  N   UNL     1       8.093  -3.679  24.724  1.00  0.00    -0.230 N 
ATOM      6  HN  UNL     1       7.207  -3.856  24.251  1.00  0.00     0.190 HD
BRANCH   5   7
HETATM    7  S   UNL     1       8.310  -4.391  26.124  1.00  0.00     0.327 S 
HETATM    8 CL   UNL     1       6.511  -4.972  26.439  1.00  0.00     0.042 Cl
HETATM    9  O   UNL     1       9.094  -5.561  26.037  1.00  0.00    -0.188 OA
HETATM   10  O   UNL     1       8.670  -3.469  27.124  1.00  0.00    -0.188 OA
ENDBRANCH   5   7
ENDBRANCH   4   5
ENDBRANCH   2   3
BRANCH   2  11
HETATM   11  O   UNL     1      11.112  -0.697  24.202  1.00  0.00    -0.362 OA
BRANCH  11  12
HETATM   12  C   UNL     1      12.361  -0.535  23.410  1.00  0.00     0.097 C 
HETATM   13  C   UNL     1      13.057  -1.133  23.195  1.00  0.00     0.101 C 
ENDBRANCH  11  12
ENDBRANCH   2  11
ENDBRANCH   1   2
BRANCH   1  14
HETATM   14  C   UNL     1       9.105   0.183  21.319  1.00  0.00     0.292 C 
HETATM   15  O   UNL     1       9.482   1.178  20.807  1.00  0.00    -0.259 OA
HETATM   16  N   UNL     1       7.977  -0.542  21.076  1.00  0.00    -0.317 N 
ATOM     17  HN  UNL     1       7.787  -1.426  21.547  1.00  0.00     0.169 HD
BRANCH  16  18
HETATM   18  C   UNL     1       7.155  -0.029  20.199  1.00  0.00     0.059 A 
HETATM   19  C   UNL     1       7.067   0.099  18.877  1.00  0.00     0.155 A 
HETATM   20  N   UNL     1       6.653   0.338  17.799  1.00  0.00    -0.400 N 
HETATM   21  C   UNL     1       5.698   0.825  18.418  1.00  0.00     0.130 A 
ATOM     22  HN  UNL     1       6.941   0.207  16.829  1.00  0.00     0.154 HD
HETATM   23  C   UNL     1       5.162   0.990  19.443  1.00  0.00     0.026 A 
HETATM   24  C   UNL     1       5.825   0.568  20.451  1.00  0.00     0.057 A 
HETATM   25 CL   UNL     1       5.280   0.663  21.990  1.00  0.00    -0.082 Cl
ENDBRANCH  16  18
ENDBRANCH   1  14
TORSDOF 8
