MODEL 1
REMARK VINA RESULT:    -6.271      0.000      0.000
REMARK INTER + INTRA:         -10.220
REMARK INTER:                  -9.204
REMARK INTRA:                  -1.016
REMARK UNBOUND:                -1.016
REMARK  8 active torsions:
REMARK  status: ('A' for Active; 'I' for Inactive)
REMARK    1  A    between atoms: S_2  and  N_5 
REMARK    2  A    between atoms: N_5  and  C_7 
REMARK    3  A    between atoms: C_8  and  C_9 
REMARK    4  A    between atoms: C_9  and  C_13 
REMARK    5  A    between atoms: C_9  and  O_10 
REMARK    6  A    between atoms: O_10  and  C_11 
REMARK    7  A    between atoms: C_13  and  C_14 
REMARK       I    between atoms: C_14  and  N_16 
REMARK    8  A    between atoms: N_16  and  C_18 
ROOT
HETATM    1  C   UNL     1       8.865  -0.904  22.332  1.00  0.00    -0.039 C 
ENDROOT
BRANCH   1   2
HETATM    2  C   UNL     1       9.213  -1.705  23.242  1.00  0.00     0.279 C 
BRANCH   2   3
HETATM    3  C   UNL     1       8.307  -2.656  23.543  1.00  0.00    -0.038 C 
HETATM    4  C   UNL     1       7.366  -3.320  23.584  1.00  0.00     0.025 C 
BRANCH   4   5
HETATM    5  N   UNL     1       6.577  -4.213  23.497  1.00  0.00    -0.230 N 
ATOM      6  HN  UNL     1       6.505  -4.843  24.296  1.00  0.00     0.190 HD
BRANCH   5   7
HETATM    7  S   UNL     1       5.631  -4.514  22.261  1.00  0.00     0.327 S 
HETATM    8 CL   UNL     1       6.592  -5.993  21.510  1.00  0.00     0.042 Cl
HETATM    9  O   UNL     1       4.367  -5.015  22.638  1.00  0.00    -0.188 OA
HETATM   10  O   UNL     1       5.634  -3.455  21.335  1.00  0.00    -0.188 OA
ENDBRANCH   5   7
ENDBRANCH   4   5
ENDBRANCH   2   3
BRANCH   2  11
HETATM   11  O   UNL     1      10.268  -1.598  24.030  1.00  0.00    -0.362 OA
BRANCH  11  12
HETATM   12  C   UNL     1       9.905  -0.593  25.065  1.00  0.00     0.097 C 
HETATM   13  C   UNL     1      10.085   0.328  25.145  1.00  0.00     0.101 C 
ENDBRANCH  11  12
ENDBRANCH   2  11
ENDBRANCH   1   2
BRANCH   1  14
HETATM   14  C   UNL     1       8.385  -0.365  21.199  1.00  0.00     0.292 C 
HETATM   15  O   UNL     1       9.063   0.362  20.561  1.00  0.00    -0.259 OA
HETATM   16  N   UNL     1       7.096  -0.753  20.989  1.00  0.00    -0.317 N 
ATOM     17  HN  UNL     1       6.631  -1.439  21.582  1.00  0.00     0.169 HD
BRANCH  16  18
HETATM   18  C   UNL     1       6.495  -0.186  19.976  1.00  0.00     0.059 A 
HETATM   19  C   UNL     1       6.139  -0.498  18.731  1.00  0.00     0.155 A 
HETATM   20  N   UNL     1       5.654  -0.447  17.658  1.00  0.00    -0.400 N 
HETATM   21  C   UNL     1       5.338   0.700  18.001  1.00  0.00     0.130 A 
ATOM     22  HN  UNL     1       5.547  -1.052  16.843  1.00  0.00     0.154 HD
HETATM   23  C   UNL     1       5.283   1.501  18.850  1.00  0.00     0.026 A 
HETATM   24  C   UNL     1       5.844   1.142  19.941  1.00  0.00     0.057 A 
HETATM   25 CL   UNL     1       5.882   2.076  21.283  1.00  0.00    -0.082 Cl
ENDBRANCH  16  18
ENDBRANCH   1  14
TORSDOF 8
ENDMDL
MODEL 2
REMARK VINA RESULT:    -6.200      4.541      6.036
REMARK INTER + INTRA:         -10.115
REMARK INTER:                  -9.329
REMARK INTRA:                  -0.786
REMARK UNBOUND:                -1.016
REMARK  8 active torsions:
REMARK  status: ('A' for Active; 'I' for Inactive)
REMARK    1  A    between atoms: S_2  and  N_5 
REMARK    2  A    between atoms: N_5  and  C_7 
REMARK    3  A    between atoms: C_8  and  C_9 
REMARK    4  A    between atoms: C_9  and  C_13 
REMARK    5  A    between atoms: C_9  and  O_10 
REMARK    6  A    between atoms: O_10  and  C_11 
REMARK    7  A    between atoms: C_13  and  C_14 
REMARK       I    between atoms: C_14  and  N_16 
REMARK    8  A    between atoms: N_16  and  C_18 
ROOT
HETATM    1  C   UNL     1       8.406  -3.496  23.835  1.00  0.00    -0.039 C 
ENDROOT
BRANCH   1   2
HETATM    2  C   UNL     1       8.046  -4.674  24.104  1.00  0.00     0.279 C 
BRANCH   2   3
HETATM    3  C   UNL     1       8.116  -5.009  25.408  1.00  0.00    -0.038 C 
HETATM    4  C   UNL     1       7.867  -5.303  26.494  1.00  0.00     0.025 C 
BRANCH   4   5
HETATM    5  N   UNL     1       7.731  -5.875  27.534  1.00  0.00    -0.230 N 
ATOM      6  HN  UNL     1       8.556  -6.334  27.918  1.00  0.00     0.190 HD
BRANCH   5   7
HETATM    7  S   UNL     1       6.392  -5.989  28.376  1.00  0.00     0.327 S 
HETATM    8 CL   UNL     1       5.192  -5.161  27.133  1.00  0.00     0.042 Cl
HETATM    9  O   UNL     1       5.946  -7.319  28.532  1.00  0.00    -0.188 OA
HETATM   10  O   UNL     1       6.447  -5.206  29.544  1.00  0.00    -0.188 OA
ENDBRANCH   5   7
ENDBRANCH   4   5
ENDBRANCH   2   3
BRANCH   2  11
HETATM   11  O   UNL     1       7.787  -5.640  23.241  1.00  0.00    -0.362 OA
BRANCH  11  12
HETATM   12  C   UNL     1       6.584  -5.200  22.485  1.00  0.00     0.097 C 
HETATM   13  C   UNL     1       6.136  -5.564  21.740  1.00  0.00     0.101 C 
ENDBRANCH  11  12
ENDBRANCH   2  11
ENDBRANCH   1   2
BRANCH   1  14
HETATM   14  C   UNL     1       9.124  -2.398  23.543  1.00  0.00     0.292 C 
HETATM   15  O   UNL     1       9.312  -2.102  22.416  1.00  0.00    -0.259 OA
HETATM   16  N   UNL     1       9.572  -1.798  24.682  1.00  0.00    -0.317 N 
ATOM     17  HN  UNL     1       9.291  -2.115  25.609  1.00  0.00     0.169 HD
BRANCH  16  18
HETATM   18  C   UNL     1      10.383  -0.789  24.506  1.00  0.00     0.059 A 
HETATM   19  C   UNL     1      11.683  -0.584  24.304  1.00  0.00     0.155 A 
HETATM   20  N   UNL     1      12.712  -0.057  24.072  1.00  0.00    -0.400 N 
HETATM   21  C   UNL     1      12.036   0.980  24.103  1.00  0.00     0.130 A 
ATOM     22  HN  UNL     1      13.685  -0.324  23.921  1.00  0.00     0.154 HD
HETATM   23  C   UNL     1      10.978   1.472  24.165  1.00  0.00     0.026 A 
HETATM   24  C   UNL     1      10.028   0.639  24.360  1.00  0.00     0.057 A 
HETATM   25 CL   UNL     1       8.455   1.077  24.461  1.00  0.00    -0.082 Cl
ENDBRANCH  16  18
ENDBRANCH   1  14
TORSDOF 8
ENDMDL
MODEL 3
REMARK VINA RESULT:    -6.108      2.850      4.415
REMARK INTER + INTRA:          -9.980
REMARK INTER:                  -9.594
REMARK INTRA:                  -0.385
REMARK UNBOUND:                -1.016
REMARK  8 active torsions:
REMARK  status: ('A' for Active; 'I' for Inactive)
REMARK    1  A    between atoms: S_2  and  N_5 
REMARK    2  A    between atoms: N_5  and  C_7 
REMARK    3  A    between atoms: C_8  and  C_9 
REMARK    4  A    between atoms: C_9  and  C_13 
REMARK    5  A    between atoms: C_9  and  O_10 
REMARK    6  A    between atoms: O_10  and  C_11 
REMARK    7  A    between atoms: C_13  and  C_14 
REMARK       I    between atoms: C_14  and  N_16 
REMARK    8  A    between atoms: N_16  and  C_18 
ROOT
HETATM    1  C   UNL     1       6.656  -2.681  22.412  1.00  0.00    -0.039 C 
ENDROOT
BRANCH   1   2
HETATM    2  C   UNL     1       7.457  -3.187  23.243  1.00  0.00     0.279 C 
BRANCH   2   3
HETATM    3  C   UNL     1       8.423  -2.357  23.684  1.00  0.00    -0.038 C 
HETATM    4  C   UNL     1       9.368  -1.913  24.172  1.00  0.00     0.025 C 
BRANCH   4   5
HETATM    5  N   UNL     1      10.430  -1.410  24.387  1.00  0.00    -0.230 N 
ATOM      6  HN  UNL     1      10.706  -1.319  25.365  1.00  0.00     0.190 HD
BRANCH   5   7
HETATM    7  S   UNL     1      11.453  -0.871  23.302  1.00  0.00     0.327 S 
HETATM    8 CL   UNL     1      12.661   0.050  24.471  1.00  0.00     0.042 Cl
HETATM    9  O   UNL     1      12.202  -1.896  22.687  1.00  0.00    -0.188 OA
HETATM   10  O   UNL     1      10.850   0.067  22.443  1.00  0.00    -0.188 OA
ENDBRANCH   5   7
ENDBRANCH   4   5
ENDBRANCH   2   3
BRANCH   2  11
HETATM   11  O   UNL     1       7.551  -4.462  23.577  1.00  0.00    -0.362 OA
BRANCH  11  12
HETATM   12  C   UNL     1       7.217  -5.232  22.349  1.00  0.00     0.097 C 
HETATM   13  C   UNL     1       7.190  -6.157  22.169  1.00  0.00     0.101 C 
ENDBRANCH  11  12
ENDBRANCH   2  11
ENDBRANCH   1   2
BRANCH   1  14
HETATM   14  C   UNL     1       6.110  -2.115  21.322  1.00  0.00     0.292 C 
HETATM   15  O   UNL     1       5.366  -2.737  20.648  1.00  0.00    -0.259 OA
HETATM   16  N   UNL     1       6.574  -0.845  21.154  1.00  0.00    -0.317 N 
ATOM     17  HN  UNL     1       7.174  -0.390  21.842  1.00  0.00     0.169 HD
BRANCH  16  18
HETATM   18  C   UNL     1       6.199  -0.248  20.054  1.00  0.00     0.059 A 
HETATM   19  C   UNL     1       6.028  -0.550  18.769  1.00  0.00     0.155 A 
HETATM   20  N   UNL     1       5.732  -0.477  17.630  1.00  0.00    -0.400 N 
HETATM   21  C   UNL     1       5.462   0.698  17.912  1.00  0.00     0.130 A 
ATOM     22  HN  UNL     1       5.709  -1.085  16.811  1.00  0.00     0.154 HD
HETATM   23  C   UNL     1       5.337   1.515  18.738  1.00  0.00     0.026 A 
HETATM   24  C   UNL     1       5.679   1.129  19.908  1.00  0.00     0.057 A 
HETATM   25 CL   UNL     1       5.575   2.080  21.234  1.00  0.00    -0.082 Cl
ENDBRANCH  16  18
ENDBRANCH   1  14
TORSDOF 8
ENDMDL
MODEL 4
REMARK VINA RESULT:    -5.941      3.284      7.209
REMARK INTER + INTRA:          -9.735
REMARK INTER:                  -8.833
REMARK INTRA:                  -0.902
REMARK UNBOUND:                -1.016
REMARK  8 active torsions:
REMARK  status: ('A' for Active; 'I' for Inactive)
REMARK    1  A    between atoms: S_2  and  N_5 
REMARK    2  A    between atoms: N_5  and  C_7 
REMARK    3  A    between atoms: C_8  and  C_9 
REMARK    4  A    between atoms: C_9  and  C_13 
REMARK    5  A    between atoms: C_9  and  O_10 
REMARK    6  A    between atoms: O_10  and  C_11 
REMARK    7  A    between atoms: C_13  and  C_14 
REMARK       I    between atoms: C_14  and  N_16 
REMARK    8  A    between atoms: N_16  and  C_18 
ROOT
HETATM    1  C   UNL     1       7.815  -1.017  21.405  1.00  0.00    -0.039 C 
ENDROOT
BRANCH   1   2
HETATM    2  C   UNL     1       8.380  -0.150  20.685  1.00  0.00     0.279 C 
BRANCH   2   3
HETATM    3  C   UNL     1       9.040   0.811  21.362  1.00  0.00    -0.038 C 
HETATM    4  C   UNL     1       9.853   1.482  21.828  1.00  0.00     0.025 C 
BRANCH   4   5
HETATM    5  N   UNL     1      10.591   2.380  22.107  1.00  0.00    -0.230 N 
ATOM      6  HN  UNL     1      10.898   2.978  21.341  1.00  0.00     0.190 HD
BRANCH   5   7
HETATM    7  S   UNL     1      11.138   2.733  23.553  1.00  0.00     0.327 S 
HETATM    8 CL   UNL     1       9.469   2.790  24.492  1.00  0.00     0.042 Cl
HETATM    9  O   UNL     1      11.884   1.686  24.136  1.00  0.00    -0.188 OA
HETATM   10  O   UNL     1      11.722   4.012  23.587  1.00  0.00    -0.188 OA
ENDBRANCH   5   7
ENDBRANCH   4   5
ENDBRANCH   2   3
BRANCH   2  11
HETATM   11  O   UNL     1       8.244   0.009  19.381  1.00  0.00    -0.362 OA
BRANCH  11  12
HETATM   12  C   UNL     1       6.856   0.502  19.172  1.00  0.00     0.097 C 
HETATM   13  C   UNL     1       6.251   0.405  18.457  1.00  0.00     0.101 C 
ENDBRANCH  11  12
ENDBRANCH   2  11
ENDBRANCH   1   2
BRANCH   1  14
HETATM   14  C   UNL     1       7.496  -1.866  22.396  1.00  0.00     0.292 C 
HETATM   15  O   UNL     1       6.407  -1.856  22.851  1.00  0.00    -0.259 OA
HETATM   16  N   UNL     1       8.576  -2.619  22.751  1.00  0.00    -0.317 N 
ATOM     17  HN  UNL     1       9.457  -2.580  22.240  1.00  0.00     0.169 HD
BRANCH  16  18
HETATM   18  C   UNL     1       8.406  -3.393  23.790  1.00  0.00     0.059 A 
HETATM   19  C   UNL     1       8.544  -3.324  25.112  1.00  0.00     0.155 A 
HETATM   20  N   UNL     1       8.500  -3.593  26.260  1.00  0.00    -0.400 N 
HETATM   21  C   UNL     1       8.088  -4.687  25.851  1.00  0.00     0.130 A 
ATOM     22  HN  UNL     1       8.702  -3.144  27.153  1.00  0.00     0.154 HD
HETATM   23  C   UNL     1       7.724  -5.335  24.950  1.00  0.00     0.026 A 
HETATM   24  C   UNL     1       7.830  -4.755  23.816  1.00  0.00     0.057 A 
HETATM   25 CL   UNL     1       7.368  -5.444  22.406  1.00  0.00    -0.082 Cl
ENDBRANCH  16  18
ENDBRANCH   1  14
TORSDOF 8
ENDMDL
MODEL 5
REMARK VINA RESULT:    -5.910      3.037      6.259
REMARK INTER + INTRA:          -9.690
REMARK INTER:                  -8.846
REMARK INTRA:                  -0.844
REMARK UNBOUND:                -1.016
REMARK  8 active torsions:
REMARK  status: ('A' for Active; 'I' for Inactive)
REMARK    1  A    between atoms: S_2  and  N_5 
REMARK    2  A    between atoms: N_5  and  C_7 
REMARK    3  A    between atoms: C_8  and  C_9 
REMARK    4  A    between atoms: C_9  and  C_13 
REMARK    5  A    between atoms: C_9  and  O_10 
REMARK    6  A    between atoms: O_10  and  C_11 
REMARK    7  A    between atoms: C_13  and  C_14 
REMARK       I    between atoms: C_14  and  N_16 
REMARK    8  A    between atoms: N_16  and  C_18 
ROOT
HETATM    1  C   UNL     1       8.795  -1.829  22.519  1.00  0.00    -0.039 C 
ENDROOT
BRANCH   1   2
HETATM    2  C   UNL     1       9.331  -0.764  22.110  1.00  0.00     0.279 C 
BRANCH   2   3
HETATM    3  C   UNL     1       8.751  -0.213  21.025  1.00  0.00    -0.038 C 
HETATM    4  C   UNL     1       8.202  -0.041  20.026  1.00  0.00     0.025 C 
BRANCH   4   5
HETATM    5  N   UNL     1       7.415   0.245  19.175  1.00  0.00    -0.230 N 
ATOM      6  HN  UNL     1       7.722   0.915  18.470  1.00  0.00     0.190 HD
BRANCH   5   7
HETATM    7  S   UNL     1       5.938  -0.315  19.033  1.00  0.00     0.327 S 
HETATM    8 CL   UNL     1       4.976   1.261  19.547  1.00  0.00     0.042 Cl
HETATM    9  O   UNL     1       5.572  -0.584  17.697  1.00  0.00    -0.188 OA
HETATM   10  O   UNL     1       5.677  -1.331  19.971  1.00  0.00    -0.188 OA
ENDBRANCH   5   7
ENDBRANCH   4   5
ENDBRANCH   2   3
BRANCH   2  11
HETATM   11  O   UNL     1      10.477  -0.248  22.515  1.00  0.00    -0.362 OA
BRANCH  11  12
HETATM   12  C   UNL     1      11.463  -1.361  22.477  1.00  0.00     0.097 C 
HETATM   13  C   UNL     1      12.202  -1.572  23.022  1.00  0.00     0.101 C 
ENDBRANCH  11  12
ENDBRANCH   2  11
ENDBRANCH   1   2
BRANCH   1  14
HETATM   14  C   UNL     1       8.306  -2.819  23.286  1.00  0.00     0.292 C 
HETATM   15  O   UNL     1       7.538  -3.591  22.829  1.00  0.00    -0.259 OA
HETATM   16  N   UNL     1       8.790  -2.728  24.556  1.00  0.00    -0.317 N 
ATOM     17  HN  UNL     1       9.502  -2.048  24.819  1.00  0.00     0.169 HD
BRANCH  16  18
HETATM   18  C   UNL     1       8.282  -3.572  25.415  1.00  0.00     0.059 A 
HETATM   19  C   UNL     1       8.596  -4.746  25.959  1.00  0.00     0.155 A 
HETATM   20  N   UNL     1       8.577  -5.704  26.646  1.00  0.00    -0.400 N 
HETATM   21  C   UNL     1       7.504  -5.234  27.045  1.00  0.00     0.130 A 
ATOM     22  HN  UNL     1       9.161  -6.522  26.825  1.00  0.00     0.154 HD
HETATM   23  C   UNL     1       6.752  -4.339  27.044  1.00  0.00     0.026 A 
HETATM   24  C   UNL     1       7.064  -3.398  26.237  1.00  0.00     0.057 A 
HETATM   25 CL   UNL     1       6.185  -2.029  26.068  1.00  0.00    -0.082 Cl
ENDBRANCH  16  18
ENDBRANCH   1  14
TORSDOF 8
ENDMDL
MODEL 6
REMARK VINA RESULT:    -5.759      4.060      5.833
REMARK INTER + INTRA:          -9.469
REMARK INTER:                  -8.696
REMARK INTRA:                  -0.773
REMARK UNBOUND:                -1.016
REMARK  8 active torsions:
REMARK  status: ('A' for Active; 'I' for Inactive)
REMARK    1  A    between atoms: S_2  and  N_5 
REMARK    2  A    between atoms: N_5  and  C_7 
REMARK    3  A    between atoms: C_8  and  C_9 
REMARK    4  A    between atoms: C_9  and  C_13 
REMARK    5  A    between atoms: C_9  and  O_10 
REMARK    6  A    between atoms: O_10  and  C_11 
REMARK    7  A    between atoms: C_13  and  C_14 
REMARK       I    between atoms: C_14  and  N_16 
REMARK    8  A    between atoms: N_16  and  C_18 
ROOT
HETATM    1  C   UNL     1      10.888   0.340  22.669  1.00  0.00    -0.039 C 
ENDROOT
BRANCH   1   2
HETATM    2  C   UNL     1      10.573  -0.881  22.690  1.00  0.00     0.279 C 
BRANCH   2   3
HETATM    3  C   UNL     1       9.354  -1.165  22.191  1.00  0.00    -0.038 C 
HETATM    4  C   UNL     1       8.281  -1.099  21.776  1.00  0.00     0.025 C 
BRANCH   4   5
HETATM    5  N   UNL     1       7.306  -1.114  21.086  1.00  0.00    -0.230 N 
ATOM      6  HN  UNL     1       6.692  -1.924  21.176  1.00  0.00     0.190 HD
BRANCH   5   7
HETATM    7  S   UNL     1       6.872  -0.000  20.045  1.00  0.00     0.327 S 
HETATM    8 CL   UNL     1       5.548  -0.998  19.083  1.00  0.00     0.042 Cl
HETATM    9  O   UNL     1       6.194   1.084  20.641  1.00  0.00    -0.188 OA
HETATM   10  O   UNL     1       7.921   0.324  19.165  1.00  0.00    -0.188 OA
ENDBRANCH   5   7
ENDBRANCH   4   5
ENDBRANCH   2   3
BRANCH   2  11
HETATM   11  O   UNL     1      11.224  -1.856  23.299  1.00  0.00    -0.362 OA
BRANCH  11  12
HETATM   12  C   UNL     1      12.652  -1.441  23.322  1.00  0.00     0.097 C 
HETATM   13  C   UNL     1      13.439  -1.862  23.019  1.00  0.00     0.101 C 
ENDBRANCH  11  12
ENDBRANCH   2  11
ENDBRANCH   1   2
BRANCH   1  14
HETATM   14  C   UNL     1      10.856   1.682  22.610  1.00  0.00     0.292 C 
HETATM   15  O   UNL     1      10.642   2.220  21.581  1.00  0.00    -0.259 OA
HETATM   16  N   UNL     1      11.134   2.224  23.829  1.00  0.00    -0.317 N 
ATOM     17  HN  UNL     1      11.244   1.652  24.666  1.00  0.00     0.169 HD
BRANCH  16  18
HETATM   18  C   UNL     1      11.249   3.526  23.855  1.00  0.00     0.059 A 
HETATM   19  C   UNL     1      12.194   4.442  23.662  1.00  0.00     0.155 A 
HETATM   20  N   UNL     1      12.739   5.479  23.521  1.00  0.00    -0.400 N 
HETATM   21  C   UNL     1      11.628   5.950  23.800  1.00  0.00     0.130 A 
ATOM     22  HN  UNL     1      13.670   5.821  23.283  1.00  0.00     0.154 HD
HETATM   23  C   UNL     1      10.493   5.759  24.002  1.00  0.00     0.026 A 
HETATM   24  C   UNL     1      10.172   4.523  24.038  1.00  0.00     0.057 A 
HETATM   25 CL   UNL     1       8.642   3.998  24.283  1.00  0.00    -0.082 Cl
ENDBRANCH  16  18
ENDBRANCH   1  14
TORSDOF 8
ENDMDL
MODEL 7
REMARK VINA RESULT:    -5.727      3.351      6.604
REMARK INTER + INTRA:          -9.422
REMARK INTER:                  -8.190
REMARK INTRA:                  -1.232
REMARK UNBOUND:                -1.016
REMARK  8 active torsions:
REMARK  status: ('A' for Active; 'I' for Inactive)
REMARK    1  A    between atoms: S_2  and  N_5 
REMARK    2  A    between atoms: N_5  and  C_7 
REMARK    3  A    between atoms: C_8  and  C_9 
REMARK    4  A    between atoms: C_9  and  C_13 
REMARK    5  A    between atoms: C_9  and  O_10 
REMARK    6  A    between atoms: O_10  and  C_11 
REMARK    7  A    between atoms: C_13  and  C_14 
REMARK       I    between atoms: C_14  and  N_16 
REMARK    8  A    between atoms: N_16  and  C_18 
ROOT
HETATM    1  C   UNL     1       7.713  -0.798  21.579  1.00  0.00    -0.039 C 
ENDROOT
BRANCH   1   2
HETATM    2  C   UNL     1       8.254   0.208  21.047  1.00  0.00     0.279 C 
BRANCH   2   3
HETATM    3  C   UNL     1       9.433   0.575  21.587  1.00  0.00    -0.038 C 
HETATM    4  C   UNL     1      10.271   0.900  22.309  1.00  0.00     0.025 C 
BRANCH   4   5
HETATM    5  N   UNL     1      11.239   0.953  23.007  1.00  0.00    -0.230 N 
ATOM      6  HN  UNL     1      11.845   1.765  22.892  1.00  0.00     0.190 HD
BRANCH   5   7
HETATM    7  S   UNL     1      11.674  -0.115  24.095  1.00  0.00     0.327 S 
HETATM    8 CL   UNL     1      12.076  -1.579  22.924  1.00  0.00     0.042 Cl
HETATM    9  O   UNL     1      12.882   0.214  24.745  1.00  0.00    -0.188 OA
HETATM   10  O   UNL     1      10.596  -0.480  24.923  1.00  0.00    -0.188 OA
ENDBRANCH   5   7
ENDBRANCH   4   5
ENDBRANCH   2   3
BRANCH   2  11
HETATM   11  O   UNL     1       7.712   1.023  20.160  1.00  0.00    -0.362 OA
BRANCH  11  12
HETATM   12  C   UNL     1       6.859   0.170  19.290  1.00  0.00     0.097 C 
HETATM   13  C   UNL     1       6.465   0.319  18.447  1.00  0.00     0.101 C 
ENDBRANCH  11  12
ENDBRANCH   2  11
ENDBRANCH   1   2
BRANCH   1  14
HETATM   14  C   UNL     1       7.429  -1.847  22.371  1.00  0.00     0.292 C 
HETATM   15  O   UNL     1       6.377  -2.377  22.290  1.00  0.00    -0.259 OA
HETATM   16  N   UNL     1       8.468  -2.109  23.214  1.00  0.00    -0.317 N 
ATOM     17  HN  UNL     1       9.358  -1.616  23.149  1.00  0.00     0.169 HD
BRANCH  16  18
HETATM   18  C   UNL     1       8.247  -3.034  24.110  1.00  0.00     0.059 A 
HETATM   19  C   UNL     1       8.413  -4.348  24.243  1.00  0.00     0.155 A 
HETATM   20  N   UNL     1       8.456  -5.431  24.707  1.00  0.00    -0.400 N 
HETATM   21  C   UNL     1       7.957  -4.883  25.698  1.00  0.00     0.130 A 
ATOM     22  HN  UNL     1       8.758  -6.365  24.428  1.00  0.00     0.154 HD
HETATM   23  C   UNL     1       7.638  -3.890  26.226  1.00  0.00     0.026 A 
HETATM   24  C   UNL     1       7.761  -2.849  25.495  1.00  0.00     0.057 A 
HETATM   25 CL   UNL     1       7.401  -1.340  26.012  1.00  0.00    -0.082 Cl
ENDBRANCH  16  18
ENDBRANCH   1  14
TORSDOF 8
ENDMDL
MODEL 8
REMARK VINA RESULT:    -5.725      3.222      6.321
REMARK INTER + INTRA:          -9.419
REMARK INTER:                  -8.465
REMARK INTRA:                  -0.953
REMARK UNBOUND:                -1.016
REMARK  8 active torsions:
REMARK  status: ('A' for Active; 'I' for Inactive)
REMARK    1  A    between atoms: S_2  and  N_5 
REMARK    2  A    between atoms: N_5  and  C_7 
REMARK    3  A    between atoms: C_8  and  C_9 
REMARK    4  A    between atoms: C_9  and  C_13 
REMARK    5  A    between atoms: C_9  and  O_10 
REMARK    6  A    between atoms: O_10  and  C_11 
REMARK    7  A    between atoms: C_13  and  C_14 
REMARK       I    between atoms: C_14  and  N_16 
REMARK    8  A    between atoms: N_16  and  C_18 
ROOT
HETATM    1  C   UNL     1       7.455  -0.708  21.610  1.00  0.00    -0.039 C 
ENDROOT
BRANCH   1   2
HETATM    2  C   UNL     1       8.130   0.099  20.916  1.00  0.00     0.279 C 
BRANCH   2   3
HETATM    3  C   UNL     1       9.319   0.450  21.445  1.00  0.00    -0.038 C 
HETATM    4  C   UNL     1      10.159   0.815  22.145  1.00  0.00     0.025 C 
BRANCH   4   5
HETATM    5  N   UNL     1      11.106   0.898  22.868  1.00  0.00    -0.230 N 
ATOM      6  HN  UNL     1      11.700   1.720  22.756  1.00  0.00     0.190 HD
BRANCH   5   7
HETATM    7  S   UNL     1      11.530  -0.143  23.986  1.00  0.00     0.327 S 
HETATM    8 CL   UNL     1      11.922  -1.641  22.857  1.00  0.00     0.042 Cl
HETATM    9  O   UNL     1      12.740   0.195  24.629  1.00  0.00    -0.188 OA
HETATM   10  O   UNL     1      10.449  -0.476  24.822  1.00  0.00    -0.188 OA
ENDBRANCH   5   7
ENDBRANCH   4   5
ENDBRANCH   2   3
BRANCH   2  11
HETATM   11  O   UNL     1       7.724   0.754  19.844  1.00  0.00    -0.362 OA
BRANCH  11  12
HETATM   12  C   UNL     1       6.639  -0.071  19.247  1.00  0.00     0.097 C 
HETATM   13  C   UNL     1       6.189  -0.024  18.420  1.00  0.00     0.101 C 
ENDBRANCH  11  12
ENDBRANCH   2  11
ENDBRANCH   1   2
BRANCH   1  14
HETATM   14  C   UNL     1       7.034  -1.555  22.565  1.00  0.00     0.292 C 
HETATM   15  O   UNL     1       7.572  -1.567  23.617  1.00  0.00    -0.259 OA
HETATM   16  N   UNL     1       6.012  -2.330  22.107  1.00  0.00    -0.317 N 
ATOM     17  HN  UNL     1       5.588  -2.184  21.191  1.00  0.00     0.169 HD
BRANCH  16  18
HETATM   18  C   UNL     1       5.610  -3.272  22.919  1.00  0.00     0.059 A 
HETATM   19  C   UNL     1       4.729  -3.423  23.905  1.00  0.00     0.155 A 
HETATM   20  N   UNL     1       4.054  -3.911  24.741  1.00  0.00    -0.400 N 
HETATM   21  C   UNL     1       4.697  -4.935  24.477  1.00  0.00     0.130 A 
ATOM     22  HN  UNL     1       3.305  -3.627  25.372  1.00  0.00     0.154 HD
HETATM   23  C   UNL     1       5.475  -5.466  23.785  1.00  0.00     0.026 A 
HETATM   24  C   UNL     1       6.010  -4.696  22.916  1.00  0.00     0.057 A 
HETATM   25 CL   UNL     1       7.110  -5.206  21.819  1.00  0.00    -0.082 Cl
ENDBRANCH  16  18
ENDBRANCH   1  14
TORSDOF 8
ENDMDL
MODEL 9
REMARK VINA RESULT:    -5.648      3.856      5.502
REMARK INTER + INTRA:          -9.306
REMARK INTER:                  -8.501
REMARK INTRA:                  -0.805
REMARK UNBOUND:                -1.016
REMARK  8 active torsions:
REMARK  status: ('A' for Active; 'I' for Inactive)
REMARK    1  A    between atoms: S_2  and  N_5 
REMARK    2  A    between atoms: N_5  and  C_7 
REMARK    3  A    between atoms: C_8  and  C_9 
REMARK    4  A    between atoms: C_9  and  C_13 
REMARK    5  A    between atoms: C_9  and  O_10 
REMARK    6  A    between atoms: O_10  and  C_11 
REMARK    7  A    between atoms: C_13  and  C_14 
REMARK       I    between atoms: C_14  and  N_16 
REMARK    8  A    between atoms: N_16  and  C_18 
ROOT
HETATM    1  C   UNL     1       7.352  -3.331  23.899  1.00  0.00    -0.039 C 
ENDROOT
BRANCH   1   2
HETATM    2  C   UNL     1       6.887  -4.457  24.223  1.00  0.00     0.279 C 
BRANCH   2   3
HETATM    3  C   UNL     1       7.384  -4.973  25.364  1.00  0.00    -0.038 C 
HETATM    4  C   UNL     1       7.533  -5.326  26.451  1.00  0.00     0.025 C 
BRANCH   4   5
HETATM    5  N   UNL     1       7.667  -5.967  27.449  1.00  0.00    -0.230 N 
ATOM      6  HN  UNL     1       8.599  -6.337  27.637  1.00  0.00     0.190 HD
BRANCH   5   7
HETATM    7  S   UNL     1       6.540  -6.301  28.513  1.00  0.00     0.327 S 
HETATM    8 CL   UNL     1       5.140  -6.809  27.306  1.00  0.00     0.042 Cl
HETATM    9  O   UNL     1       6.828  -7.443  29.289  1.00  0.00    -0.188 OA
HETATM   10  O   UNL     1       6.135  -5.151  29.217  1.00  0.00    -0.188 OA
ENDBRANCH   5   7
ENDBRANCH   4   5
ENDBRANCH   2   3
BRANCH   2  11
HETATM   11  O   UNL     1       6.120  -5.239  23.485  1.00  0.00    -0.362 OA
BRANCH  11  12
HETATM   12  C   UNL     1       7.005  -5.805  22.433  1.00  0.00     0.097 C 
HETATM   13  C   UNL     1       6.907  -5.887  21.499  1.00  0.00     0.101 C 
ENDBRANCH  11  12
ENDBRANCH   2  11
ENDBRANCH   1   2
BRANCH   1  14
HETATM   14  C   UNL     1       8.073  -2.198  23.839  1.00  0.00     0.292 C 
HETATM   15  O   UNL     1       8.291  -1.588  24.826  1.00  0.00    -0.259 OA
HETATM   16  N   UNL     1       8.419  -1.914  22.552  1.00  0.00    -0.317 N 
ATOM     17  HN  UNL     1       8.224  -2.554  21.783  1.00  0.00     0.169 HD
BRANCH  16  18
HETATM   18  C   UNL     1       9.019  -0.768  22.369  1.00  0.00     0.059 A 
HETATM   19  C   UNL     1       8.688   0.499  22.129  1.00  0.00     0.155 A 
HETATM   20  N   UNL     1       8.758   1.666  21.973  1.00  0.00    -0.400 N 
HETATM   21  C   UNL     1       9.977   1.471  22.064  1.00  0.00     0.130 A 
ATOM     22  HN  UNL     1       8.123   2.452  21.832  1.00  0.00     0.154 HD
HETATM   23  C   UNL     1      10.847   0.727  22.297  1.00  0.00     0.026 A 
HETATM   24  C   UNL     1      10.465  -0.477  22.490  1.00  0.00     0.057 A 
HETATM   25 CL   UNL     1      11.489  -1.699  22.854  1.00  0.00    -0.082 Cl
ENDBRANCH  16  18
ENDBRANCH   1  14
TORSDOF 8
ENDMDL
