stable:False satoms:11 tatoms:24 sratio:0.4583333333333333
  -OEChem-07092417423D

 24 25  0     1  0  0  0  0  0999 V2000
    6.5111   -4.9724   26.4390 Cl  0  0  0  0  0  0  0  0  0  0  0  0
    8.3105   -4.3909   26.1244 S   0  0  0  0  0  0  0  0  0  0  0  0
    9.0944   -5.5611   26.0374 O   0  0  0  0  0  0  0  0  0  0  0  0
    8.6696   -3.4690   27.1240 O   0  0  0  0  0  0  0  0  0  0  0  0
    8.0926   -3.6793   24.7236 N   0  0  0  0  0  0  0  0  0  0  0  0
    8.8654   -2.9561   24.1694 C   0  0  0  0  0  0  0  0  0  0  0  0
    9.3815   -2.0725   23.6396 C   0  0  0  0  0  0  0  0  0  0  0  0
   10.1719   -1.0243   23.3343 C   0  0  3  0  0  0  0  0  0  0  0  0
   11.1124   -0.6973   24.2016 O   0  0  0  0  0  0  0  0  0  0  0  0
   12.5901    0.4935   23.7333 H   0  0  0  0  0  0  0  0  0  0  0  0
   12.3615   -0.5348   23.4100 C   0  3  0  0  0  0  0  0  0  0  0  0
   13.0568   -1.1330   23.1948 C   0  0  0  0  0  2  0  0  0  0  0  0
   12.1473   -1.2031   22.4632 H   0  0  0  0  0  0  0  0  0  0  0  0
    9.8130   -0.3622   22.3235 C   0  0  0  0  0  0  0  0  0  0  0  0
    9.1055    0.1833   21.3191 C   0  0  0  0  0  0  0  0  0  0  0  0
    9.4824    1.1783   20.8072 O   0  0  0  0  0  0  0  0  0  0  0  0
    7.9773   -0.5421   21.0759 N   0  0  0  0  0  0  0  0  0  0  0  0
    7.1551   -0.0295   20.1993 C   0  0  0  0  0  0  0  0  0  0  0  0
    7.0672    0.0985   18.8765 C   0  0  0  0  0  0  0  0  0  0  0  0
    6.6531    0.3377   17.7992 N   0  0  0  0  0  0  0  0  0  0  0  0
    5.6981    0.8249   18.4182 C   0  0  0  0  0  0  0  0  0  0  0  0
    5.1619    0.9904   19.4427 C   0  0  0  0  0  0  0  0  0  0  0  0
    5.8251    0.5681   20.4510 C   0  0  0  0  0  0  0  0  0  0  0  0
    5.2803    0.6629   21.9896 Cl  0  0  0  0  0  0  0  0  0  0  0  0
 20 21  2  0  0  0  0
 19 20  1  0  0  0  0
 19 21  1  0  0  0  0
 21 22  1  0  0  0  0
 18 19  2  0  0  0  0
 22 23  2  0  0  0  0
 18 23  1  0  0  0  0
 17 18  1  0  0  0  0
 23 24  1  0  0  0  0
 15 16  2  0  0  0  0
 15 17  1  0  0  0  0
 14 15  1  0  0  0  0
  8 14  1  0  0  0  0
 12 13  1  0  0  0  0
 11 12  1  0  0  0  0
  7  8  1  0  0  0  0
  8  9  1  0  0  0  0
 10 11  1  0  0  0  0
  9 11  1  0  0  0  0
  6  7  3  0  0  0  0
  5  6  1  0  0  0  0
  2  5  1  0  0  0  0
  2  3  2  0  0  0  0
  1  2  1  0  0  0  0
  2  4  2  0  0  0  0
M  CHG  1  11   1
M  END
> <Shapegauss>
-263.190216

$$$$
