stable:False satoms:22 tatoms:24 sratio:0.9166666666666666
  -OEChem-07092417333D

 24 24  0     0  0  0  0  0  0999 V2000
    9.9500   -3.6210   24.2469 C   0  0  0  0  0  0  0  0  0  0  0  0
    8.7359   -3.5776   24.5025 O   0  5  0  0  0  0  0  0  0  0  0  0
   10.6969   -4.5642   24.4555 O   0  0  0  0  0  0  0  0  0  0  0  0
    8.0068    0.1964   23.5635 C   0  3  0  0  0  0  0  0  0  0  0  0
    8.5272   -0.9824   23.7656 N   0  0  0  0  0  0  0  0  0  0  0  0
    9.9103   -1.2230   23.3981 C   0  0  0  0  0  0  0  0  0  0  0  0
    8.1231   -1.7985   24.1746 H   0  0  0  0  0  0  0  0  0  0  0  0
    8.7302   -0.6028   21.1792 N   0  0  0  0  0  0  0  0  0  0  0  0
    8.5564    1.0423   23.9558 H   0  0  0  0  0  0  0  0  0  0  0  0
   10.4351   -0.1596   22.6022 C   0  0  0  0  0  0  0  0  0  0  0  0
   11.4394    0.2259   22.6924 H   0  0  0  0  0  0  0  0  0  0  0  0
   10.5939   -2.3439   23.6172 C   0  0  0  0  0  0  0  0  0  0  0  0
   11.6425   -2.4215   23.3645 H   0  0  0  0  0  0  0  0  0  0  0  0
    8.8286   -3.4219   22.2137 H   0  0  0  0  0  0  0  0  0  0  0  0
    6.1006   -0.3313   22.7951 H   0  0  0  0  0  0  0  0  0  0  0  0
    8.3653   -1.9264   20.9131 C   0  0  0  0  0  0  0  0  0  0  0  0
    9.5960    0.2429   21.6834 N   0  0  0  0  0  0  0  0  0  0  0  0
    8.1814   -2.9179   21.6289 N   0  0  0  0  0  0  0  0  0  0  0  0
    8.0837   -2.0385   19.8530 H   0  0  0  0  0  0  0  0  0  0  0  0
    7.5208    0.1052   19.2251 O   0  0  0  0  0  0  0  0  0  0  0  0
    6.7777    0.5176   22.6965 C   0  0  0  0  0  0  0  0  0  0  0  0
    7.6008    0.1327   20.4154 C   0  0  0  0  0  0  0  0  0  0  0  0
    6.8917    0.7445   21.2912 O   0  0  0  0  0  0  0  0  0  0  0  0
    6.2901    1.4328   23.0634 H   0  0  0  0  0  0  0  0  0  0  0  0
 20 22  2  0  0  0  0
 16 19  1  0  0  0  0
  8 22  1  0  0  0  0
 22 23  1  0  0  0  0
  8 16  1  0  0  0  0
 16 18  2  3  0  0  0
  8 17  1  0  0  0  0
 21 23  1  0  0  0  0
 14 18  1  0  0  0  0
 10 17  2  3  0  0  0
 10 11  1  0  0  0  0
  6 10  1  0  0  0  0
 15 21  1  0  0  0  0
 21 24  1  0  0  0  0
  4 21  1  0  0  0  0
 12 13  1  0  0  0  0
  6 12  2  0  0  0  0
  5  6  1  0  0  0  0
  4  5  1  0  0  0  0
  4  9  1  0  0  0  0
  1 12  1  0  0  0  0
  5  7  1  0  0  0  0
  1  3  2  0  0  0  0
  1  2  1  0  0  0  0
M  CHG  2   2  -1   4   1
M  END
> <Shapegauss>
-132.176193

$$$$
