stable:False satoms:22 tatoms:24 sratio:0.9166666666666666
  -OEChem-08052420053D

 25 25  0     0  0  0  0  0  0999 V2000
    7.2769   -1.6535   22.1802 C   0  0  0  0  0  0  0  0  0  0  0  0
    7.5339   -0.5465   21.6805 O   0  5  0  0  0  0  0  0  0  0  0  0
    6.5574   -2.5130   21.6960 O   0  0  0  0  0  0  0  0  0  0  0  0
    9.6276    1.0353   24.6421 C   0  0  0  0  0  2  0  0  0  0  0  0
    8.9405    0.2646   23.8450 N   0  3  0  0  0  0  0  0  0  0  0  0
    8.6656   -1.1044   24.2400 C   0  0  0  0  0  0  0  0  0  0  0  0
    9.4386    0.2235   22.9788 H   0  0  0  0  0  0  0  0  0  0  0  0
   11.2469   -0.9523   24.1183 N   0  0  0  0  0  0  0  0  0  0  0  0
    9.4416   -1.4896   25.3754 C   0  0  0  0  0  0  0  0  0  0  0  0
    9.0718   -2.1055   26.1812 H   0  0  0  0  0  0  0  0  0  0  0  0
    7.9152   -1.9759   23.5698 C   0  0  0  0  0  0  0  0  0  0  0  0
    7.7111   -2.9620   23.9638 H   0  0  0  0  0  0  0  0  0  0  0  0
    9.5588   -0.7897   22.0145 H   0  0  0  0  0  0  0  0  0  0  0  0
   10.9104    2.0050   23.2577 H   0  0  0  0  0  0  0  0  0  0  0  0
   11.2801   -1.2861   22.7606 C   0  0  0  0  0  0  0  0  0  0  0  0
   10.6844   -1.0907   25.2945 N   0  0  0  0  0  0  0  0  0  0  0  0
   10.4612   -1.1836   21.8396 N   0  3  0  0  0  0  0  0  0  0  0  0
   12.2976   -1.5944   22.4686 H   0  0  0  0  0  0  0  0  0  0  0  0
   13.6282   -0.6206   24.0772 O   0  0  0  0  0  0  0  0  0  0  0  0
   10.9550    1.7396   24.3143 C   0  0  0  0  0  0  0  0  0  0  0  0
   12.5519   -0.1227   24.2101 C   0  0  0  0  0  0  0  0  0  0  0  0
   12.2120    1.0833   24.4828 O   0  0  0  0  0  0  0  0  0  0  0  0
   11.0578    2.6476   24.9267 H   0  0  0  0  0  0  0  0  0  0  0  0
    8.0565    0.7092   23.7004 H   0  0  0  0  0  0  0  0  0  0  0  0
   10.7013   -1.4947   20.9201 H   0  0  0  0  0  0  0  0  0  0  0  0
 19 21  2  0  0  0  0
 15 18  1  0  0  0  0
  8 21  1  0  0  0  0
 21 22  1  0  0  0  0
  8 15  1  0  0  0  0
 15 17  2  3  0  0  0
  8 16  1  0  0  0  0
 20 22  1  0  0  0  0
 13 17  1  0  0  0  0
  9 16  2  3  0  0  0
  9 10  1  0  0  0  0
  6  9  1  0  0  0  0
 14 20  1  0  0  0  0
 20 23  1  0  0  0  0
  4 20  1  0  0  0  0
 11 12  1  0  0  0  0
  6 11  2  0  0  0  0
  5  6  1  0  0  0  0
  4  5  1  0  0  0  0
  1 11  1  0  0  0  0
  5  7  1  0  0  0  0
  1  3  2  0  0  0  0
  1  2  1  0  0  0  0
  5 24  1  0  0  0  0
 17 25  1  0  0  0  0
M  CHG  3   2  -1   5   1  17   1
M  END
> <Chemgauss4>
-6.963746

$$$$
