stable:False satoms:22 tatoms:24 sratio:0.9166666666666666
  -OEChem-08052420053D

 25 25  0     0  0  0  0  0  0999 V2000
   -7.1525   -1.3808  -21.8065 C   0  0  0  0  0  0  0  0  0  0  0  0
   -7.5204   -0.2558  -21.4319 O   0  5  0  0  0  0  0  0  0  0  0  0
   -6.3596   -2.1086  -21.2298 O   0  0  0  0  0  0  0  0  0  0  0  0
   -9.7207    0.7829  -24.5522 C   0  0  0  0  0  2  0  0  0  0  0  0
   -8.9724    0.1740  -23.6743 N   0  3  0  0  0  0  0  0  0  0  0  0
   -8.5627   -1.1970  -23.9160 C   0  0  0  0  0  0  0  0  0  0  0  0
   -9.4745    0.1799  -22.8095 H   0  0  0  0  0  0  0  0  0  0  0  0
  -11.1479   -1.2827  -23.8152 N   0  0  0  0  0  0  0  0  0  0  0  0
   -9.2845   -1.7772  -25.0032 C   0  0  0  0  0  0  0  0  0  0  0  0
   -8.8478   -2.4388  -25.7359 H   0  0  0  0  0  0  0  0  0  0  0  0
   -7.7402   -1.9133  -23.1530 C   0  0  0  0  0  0  0  0  0  0  0  0
   -7.4377   -2.9122  -23.4360 H   0  0  0  0  0  0  0  0  0  0  0  0
   -9.5085   -0.7287  -21.7398 H   0  0  0  0  0  0  0  0  0  0  0  0
  -11.1071    1.7695  -23.2845 H   0  0  0  0  0  0  0  0  0  0  0  0
  -11.1652   -1.4677  -22.4291 C   0  0  0  0  0  0  0  0  0  0  0  0
  -10.5608   -1.4938  -24.9684 N   0  0  0  0  0  0  0  0  0  0  0  0
  -10.3710   -1.1866  -21.5239 N   0  3  0  0  0  0  0  0  0  0  0  0
  -12.1518   -1.8392  -22.1063 H   0  0  0  0  0  0  0  0  0  0  0  0
  -13.5504   -1.1804  -23.8141 O   0  0  0  0  0  0  0  0  0  0  0  0
  -11.1134    1.3871  -24.3056 C   0  0  0  0  0  0  0  0  0  0  0  0
  -12.5254   -0.5982  -23.9994 C   0  0  0  0  0  0  0  0  0  0  0  0
  -12.2995    0.5979  -24.4026 O   0  0  0  0  0  0  0  0  0  0  0  0
  -11.2955    2.2085  -25.0142 H   0  0  0  0  0  0  0  0  0  0  0  0
   -8.1370    0.7151  -23.5783 H   0  0  0  0  0  0  0  0  0  0  0  0
  -10.5911   -1.4171  -20.5761 H   0  0  0  0  0  0  0  0  0  0  0  0
 19 21  2  0  0  0  0
 15 18  1  0  0  0  0
  8 21  1  0  0  0  0
 21 22  1  0  0  0  0
  8 15  1  0  0  0  0
 15 17  2  3  0  0  0
  8 16  1  0  0  0  0
 20 22  1  0  0  0  0
 13 17  1  0  0  0  0
  9 16  2  3  0  0  0
  9 10  1  0  0  0  0
  6  9  1  0  0  0  0
 14 20  1  0  0  0  0
 20 23  1  0  0  0  0
  4 20  1  0  0  0  0
 11 12  1  0  0  0  0
  6 11  2  0  0  0  0
  5  6  1  0  0  0  0
  4  5  1  0  0  0  0
  1 11  1  0  0  0  0
  5  7  1  0  0  0  0
  1  3  2  0  0  0  0
  1  2  1  0  0  0  0
  5 24  1  0  0  0  0
 17 25  1  0  0  0  0
M  CHG  3   2  -1   5   1  17   1
M  END
> <Chemgauss4>
-7.064386

$$$$
