stable:False satoms:13 tatoms:24 sratio:0.5416666666666666
  -OEChem-07092417483D

 24 24  0     1  0  0  0  0  0999 V2000
    6.6025   -4.8595   26.4766 C   0  0  0  0  0  0  0  0  0  0  0  0
    8.2063   -4.3078   26.1272 S   0  0  0  0  0  0  0  0  0  0  0  0
    9.0674   -5.4717   26.0735 O   0  0  0  0  0  0  0  0  0  0  0  0
    8.6311   -3.4002   27.1582 O   0  0  0  0  0  0  0  0  0  0  0  0
    8.1080   -3.5764   24.6559 N   0  0  0  0  0  0  0  0  0  0  0  0
    8.9802   -2.9453   24.1364 C   0  0  0  0  0  0  0  0  0  0  0  0
    9.4244   -1.9779   23.4721 C   0  0  0  0  0  0  0  0  0  0  0  0
   10.3665   -1.2219   23.1320 C   0  0  1  0  0  0  0  0  0  0  0  0
   11.0437    0.0919   24.3319 C   0  0  0  0  0  0  0  0  0  0  0  0
   11.9977    0.3360   24.2939 C   0  0  0  0  0  0  0  0  0  0  0  0
   13.1955   -0.1437   23.4469 C   0  0  0  0  0  0  0  0  0  0  0  0
   12.7420   -1.2266   22.6859 C   0  0  0  0  0  0  0  0  0  0  0  0
   11.7680   -1.7026   22.5697 C   0  0  0  0  0  0  0  0  0  0  0  0
    9.7242   -0.5174   22.3296 C   0  0  0  0  0  0  0  0  0  0  0  0
    9.0601    0.0467   21.3745 C   0  0  0  0  0  0  0  0  0  0  0  0
    9.5418    0.9784   20.9491 O   0  0  0  0  0  0  0  0  0  0  0  0
    7.9104   -0.5906   21.0748 N   0  0  0  0  0  0  0  0  0  0  0  0
    7.1919   -0.1316   20.1785 C   0  0  0  0  0  0  0  0  0  0  0  0
    7.2202   -0.0128   18.8250 C   0  0  0  0  0  0  0  0  0  0  0  0
    6.7678    0.3098   17.7632 N   0  0  0  0  0  0  0  0  0  0  0  0
    5.6293    0.8505   18.2383 C   0  0  0  0  0  0  0  0  0  0  0  0
    5.2474    0.9447   19.4425 C   0  0  0  0  0  0  0  0  0  0  0  0
    5.8294    0.5491   20.5451 C   0  0  0  0  0  0  0  0  0  0  0  0
    5.3283    0.6887   22.0162 C   0  0  0  0  0  0  0  0  0  0  0  0
 20 21  2  0  0  0  0
 19 20  1  0  0  0  0
 21 22  1  0  0  0  0
 18 19  2  0  0  0  0
 22 23  2  0  0  0  0
 18 23  1  0  0  0  0
 17 18  1  0  0  0  0
 23 24  1  0  0  0  0
 15 16  2  0  0  0  0
 15 17  1  0  0  0  0
 14 15  1  0  0  0  0
  8 14  1  0  0  0  0
 12 13  2  0  0  0  0
  8 13  1  0  0  0  0
 11 12  1  0  0  0  0
  7  8  1  0  0  0  0
 10 11  1  0  0  0  0
  6  7  2  0  0  0  0
  5  6  1  0  0  0  0
  9 10  2  0  0  0  0
  2  5  1  0  0  0  0
  2  3  2  0  0  0  0
  1  2  1  0  0  0  0
  2  4  2  0  0  0  0
M  END
> <Shapegauss>
-286.398773

$$$$
