stable:False satoms:13 tatoms:24 sratio:0.5416666666666666
  -OEChem-08062415313D

 47 47  0     1  0  0  0  0  0999 V2000
   -6.7513   -5.2426  -26.2559 C   0  0  0  0  0  0  0  0  0  0  0  0
   -8.3620   -4.6443  -26.0412 S   0  0  0  0  0  0  0  0  0  0  0  0
   -9.2508   -5.7875  -25.9945 O   0  0  0  0  0  0  0  0  0  0  0  0
   -8.6962   -3.7768  -27.1381 O   0  0  0  0  0  0  0  0  0  0  0  0
   -8.3462   -3.8482  -24.6006 N   0  0  0  0  0  0  0  0  0  0  0  0
   -9.2368   -3.1770  -24.1703 C   0  0  0  0  0  0  0  0  0  0  0  0
   -9.7026   -2.1717  -23.5814 C   0  0  0  0  0  0  0  0  0  0  0  0
  -10.6482   -1.3827  -23.3401 C   0  0  1  0  0  0  0  0  0  0  0  0
  -11.2136   -0.1124  -24.6405 C   0  0  0  0  0  0  0  0  0  0  0  0
  -12.1622    0.1518  -24.6784 C   0  0  0  0  0  0  0  0  0  0  0  0
  -13.4246   -0.2651  -23.8944 C   0  0  0  0  0  0  0  0  0  0  0  0
  -13.0477   -1.3206  -23.0569 C   0  0  0  0  0  0  0  0  0  0  0  0
  -12.0947   -1.8096  -22.8536 C   0  0  0  0  0  0  0  0  0  0  0  0
  -10.0454   -0.6547  -22.5280 C   0  0  0  0  0  0  0  0  0  0  0  0
   -9.4343   -0.0604  -21.5560 C   0  0  0  0  0  0  0  0  0  0  0  0
   -9.9223    0.8990  -21.2062 O   0  0  0  0  0  0  0  0  0  0  0  0
   -8.3220   -0.7056  -21.1507 N   0  0  0  0  0  0  0  0  0  0  0  0
   -7.6550   -0.2200  -20.2289 C   0  0  0  0  0  0  0  0  0  0  0  0
   -7.7714   -0.0387  -18.8871 C   0  0  0  0  0  0  0  0  0  0  0  0
   -7.3840    0.3234  -17.8124 N   0  0  0  0  0  0  0  0  0  0  0  0
   -6.2043    0.8194  -18.2325 C   0  0  0  0  0  0  0  0  0  0  0  0
   -5.7405    0.8508  -19.4110 C   0  0  0  0  0  0  0  0  0  0  0  0
   -6.2560    0.4164  -20.5319 C   0  0  0  0  0  0  0  0  0  0  0  0
   -5.6543    0.4786  -21.9703 C   0  0  0  0  0  0  0  0  0  0  0  0
   -6.6869   -5.7907  -27.2074 H   0  0  0  0  0  0  0  0  0  0  0  0
   -6.0457   -4.3988  -26.2705 H   0  0  0  0  0  0  0  0  0  0  0  0
   -6.4976   -5.9183  -25.4258 H   0  0  0  0  0  0  0  0  0  0  0  0
   -7.5532   -3.2404  -24.6428 H   0  0  0  0  0  0  0  0  0  0  0  0
  -10.1196   -3.7432  -24.4283 H   0  0  0  0  0  0  0  0  0  0  0  0
   -8.8813   -1.8011  -22.9861 H   0  0  0  0  0  0  0  0  0  0  0  0
  -10.8357   -0.7933  -24.2498 H   0  0  0  0  0  0  0  0  0  0  0  0
  -10.8870   -0.8513  -23.9238 H   0  0  0  0  0  0  0  0  0  0  0  0
  -10.5005    0.3371  -25.3158 H   0  0  0  0  0  0  0  0  0  0  0  0
  -12.3625    0.8964  -25.4346 H   0  0  0  0  0  0  0  0  0  0  0  0
  -14.2108   -0.5949  -24.5894 H   0  0  0  0  0  0  0  0  0  0  0  0
  -13.7954    0.5800  -23.2957 H   0  0  0  0  0  0  0  0  0  0  0  0
  -13.8711   -1.7370  -22.4956 H   0  0  0  0  0  0  0  0  0  0  0  0
  -12.1426   -2.6989  -22.2426 H   0  0  0  0  0  0  0  0  0  0  0  0
  -10.7872    0.1520  -22.6225 H   0  0  0  0  0  0  0  0  0  0  0  0
   -9.2160   -0.4740  -23.2276 H   0  0  0  0  0  0  0  0  0  0  0  0
   -8.0414   -1.5605  -21.5871 H   0  0  0  0  0  0  0  0  0  0  0  0
   -8.7494   -0.4424  -18.6705 H   0  0  0  0  0  0  0  0  0  0  0  0
   -5.5729    1.2449  -17.4666 H   0  0  0  0  0  0  0  0  0  0  0  0
   -4.7665    1.3080  -19.5048 H   0  0  0  0  0  0  0  0  0  0  0  0
   -5.0611   -0.4282  -22.1596 H   0  0  0  0  0  0  0  0  0  0  0  0
   -6.4695    0.5436  -22.7060 H   0  0  0  0  0  0  0  0  0  0  0  0
   -5.0084    1.3645  -22.0594 H   0  0  0  0  0  0  0  0  0  0  0  0
 20 21  2  0  0  0  0
 19 20  1  0  0  0  0
 21 22  1  0  0  0  0
 18 19  2  0  0  0  0
 22 23  2  0  0  0  0
 18 23  1  0  0  0  0
 17 18  1  0  0  0  0
 23 24  1  0  0  0  0
 15 16  2  0  0  0  0
 15 17  1  0  0  0  0
 14 15  1  0  0  0  0
  8 14  1  0  0  0  0
 12 13  2  0  0  0  0
  8 13  1  0  0  0  0
 11 12  1  0  0  0  0
  7  8  1  0  0  0  0
 10 11  1  0  0  0  0
  6  7  2  0  0  0  0
  5  6  1  0  0  0  0
  9 10  2  0  0  0  0
  2  5  1  0  0  0  0
  2  3  2  0  0  0  0
  1  2  1  0  0  0  0
  2  4  2  0  0  0  0
  1 25  1  0  0  0  0
  1 26  1  0  0  0  0
  1 27  1  0  0  0  0
  5 28  1  0  0  0  0
  6 29  1  0  0  0  0
  7 30  1  0  0  0  0
  8 31  1  0  0  0  0
  9 32  1  0  0  0  0
  9 33  1  0  0  0  0
 10 34  1  0  0  0  0
 11 35  1  0  0  0  0
 11 36  1  0  0  0  0
 12 37  1  0  0  0  0
 13 38  1  0  0  0  0
 14 39  1  0  0  0  0
 14 40  1  0  0  0  0
 17 41  1  0  0  0  0
 19 42  1  0  0  0  0
 21 43  1  0  0  0  0
 22 44  1  0  0  0  0
 24 45  1  0  0  0  0
 24 46  1  0  0  0  0
 24 47  1  0  0  0  0
M  END
> <Chemgauss4>
-12.893250

$$$$
