stable:False satoms:13 tatoms:24 sratio:0.5416666666666666
  -OEChem-08062415313D

 47 47  0     1  0  0  0  0  0999 V2000
    6.4100   -5.0687   26.2678 C   0  0  0  0  0  0  0  0  0  0  0  0
    8.0208   -4.4704   26.0532 S   0  0  0  0  0  0  0  0  0  0  0  0
    8.9096   -5.6136   26.0065 O   0  0  0  0  0  0  0  0  0  0  0  0
    8.3549   -3.6030   27.1500 O   0  0  0  0  0  0  0  0  0  0  0  0
    8.0049   -3.6743   24.6126 N   0  0  0  0  0  0  0  0  0  0  0  0
    8.8955   -3.0031   24.1822 C   0  0  0  0  0  0  0  0  0  0  0  0
    9.3614   -1.9978   23.5933 C   0  0  0  0  0  0  0  0  0  0  0  0
   10.3069   -1.2088   23.3521 C   0  0  1  0  0  0  0  0  0  0  0  0
   10.8723    0.0615   24.6525 C   0  0  0  0  0  0  0  0  0  0  0  0
   11.8209    0.3257   24.6904 C   0  0  0  0  0  0  0  0  0  0  0  0
   13.0834   -0.0912   23.9063 C   0  0  0  0  0  0  0  0  0  0  0  0
   12.7064   -1.1467   23.0688 C   0  0  0  0  0  0  0  0  0  0  0  0
   11.7534   -1.6358   22.8656 C   0  0  0  0  0  0  0  0  0  0  0  0
    9.7041   -0.4808   22.5400 C   0  0  0  0  0  0  0  0  0  0  0  0
    9.0930    0.1134   21.5679 C   0  0  0  0  0  0  0  0  0  0  0  0
    9.5810    1.0729   21.2181 O   0  0  0  0  0  0  0  0  0  0  0  0
    7.9807   -0.5317   21.1627 N   0  0  0  0  0  0  0  0  0  0  0  0
    7.3137   -0.0461   20.2409 C   0  0  0  0  0  0  0  0  0  0  0  0
    7.4301    0.1352   18.8991 C   0  0  0  0  0  0  0  0  0  0  0  0
    7.0428    0.4973   17.8243 N   0  0  0  0  0  0  0  0  0  0  0  0
    5.8631    0.9933   18.2445 C   0  0  0  0  0  0  0  0  0  0  0  0
    5.3992    1.0247   19.4229 C   0  0  0  0  0  0  0  0  0  0  0  0
    5.9147    0.5903   20.5438 C   0  0  0  0  0  0  0  0  0  0  0  0
    5.3131    0.6525   21.9822 C   0  0  0  0  0  0  0  0  0  0  0  0
    6.3456   -5.6168   27.2193 H   0  0  0  0  0  0  0  0  0  0  0  0
    5.7045   -4.2249   26.2824 H   0  0  0  0  0  0  0  0  0  0  0  0
    6.1563   -5.7444   25.4377 H   0  0  0  0  0  0  0  0  0  0  0  0
    7.2119   -3.0665   24.6547 H   0  0  0  0  0  0  0  0  0  0  0  0
    9.7783   -3.5693   24.4402 H   0  0  0  0  0  0  0  0  0  0  0  0
    8.5400   -1.6272   22.9980 H   0  0  0  0  0  0  0  0  0  0  0  0
   10.4944   -0.6195   24.2618 H   0  0  0  0  0  0  0  0  0  0  0  0
   10.5457   -0.6774   23.9357 H   0  0  0  0  0  0  0  0  0  0  0  0
   10.1592    0.5110   25.3277 H   0  0  0  0  0  0  0  0  0  0  0  0
   12.0212    1.0703   25.4465 H   0  0  0  0  0  0  0  0  0  0  0  0
   13.8696   -0.4210   24.6014 H   0  0  0  0  0  0  0  0  0  0  0  0
   13.4541    0.7539   23.3077 H   0  0  0  0  0  0  0  0  0  0  0  0
   13.5298   -1.5631   22.5076 H   0  0  0  0  0  0  0  0  0  0  0  0
   11.8013   -2.5250   22.2545 H   0  0  0  0  0  0  0  0  0  0  0  0
   10.4459    0.3259   22.6345 H   0  0  0  0  0  0  0  0  0  0  0  0
    8.8747   -0.3001   23.2395 H   0  0  0  0  0  0  0  0  0  0  0  0
    7.7001   -1.3866   21.5990 H   0  0  0  0  0  0  0  0  0  0  0  0
    8.4081   -0.2685   18.6824 H   0  0  0  0  0  0  0  0  0  0  0  0
    5.2317    1.4188   17.4785 H   0  0  0  0  0  0  0  0  0  0  0  0
    4.4253    1.4818   19.5167 H   0  0  0  0  0  0  0  0  0  0  0  0
    4.7198   -0.2543   22.1716 H   0  0  0  0  0  0  0  0  0  0  0  0
    6.1282    0.7175   22.7180 H   0  0  0  0  0  0  0  0  0  0  0  0
    4.6671    1.5384   22.0713 H   0  0  0  0  0  0  0  0  0  0  0  0
 20 21  2  0  0  0  0
 19 20  1  0  0  0  0
 21 22  1  0  0  0  0
 18 19  2  0  0  0  0
 22 23  2  0  0  0  0
 18 23  1  0  0  0  0
 17 18  1  0  0  0  0
 23 24  1  0  0  0  0
 15 16  2  0  0  0  0
 15 17  1  0  0  0  0
 14 15  1  0  0  0  0
  8 14  1  0  0  0  0
 12 13  2  0  0  0  0
  8 13  1  0  0  0  0
 11 12  1  0  0  0  0
  7  8  1  0  0  0  0
 10 11  1  0  0  0  0
  6  7  2  0  0  0  0
  5  6  1  0  0  0  0
  9 10  2  0  0  0  0
  2  5  1  0  0  0  0
  2  3  2  0  0  0  0
  1  2  1  0  0  0  0
  2  4  2  0  0  0  0
  1 25  1  0  0  0  0
  1 26  1  0  0  0  0
  1 27  1  0  0  0  0
  5 28  1  0  0  0  0
  6 29  1  0  0  0  0
  7 30  1  0  0  0  0
  8 31  1  0  0  0  0
  9 32  1  0  0  0  0
  9 33  1  0  0  0  0
 10 34  1  0  0  0  0
 11 35  1  0  0  0  0
 11 36  1  0  0  0  0
 12 37  1  0  0  0  0
 13 38  1  0  0  0  0
 14 39  1  0  0  0  0
 14 40  1  0  0  0  0
 17 41  1  0  0  0  0
 19 42  1  0  0  0  0
 21 43  1  0  0  0  0
 22 44  1  0  0  0  0
 24 45  1  0  0  0  0
 24 46  1  0  0  0  0
 24 47  1  0  0  0  0
M  END
> <Chemgauss4>
-13.267458

$$$$
