MODEL 1
REMARK VINA RESULT:    -6.666      0.000      0.000
REMARK INTER + INTRA:         -10.090
REMARK INTER:                  -9.394
REMARK INTRA:                  -0.696
REMARK UNBOUND:                -0.696
REMARK  7 active torsions:
REMARK  status: ('A' for Active; 'I' for Inactive)
REMARK    1  A    between atoms: S_2  and  N_5 
REMARK    2  A    between atoms: N_5  and  C_7 
REMARK    3  A    between atoms: C_8  and  C_9 
REMARK    4  A    between atoms: C_9  and  C_13 
REMARK    5  A    between atoms: C_9  and  C_10 
REMARK    6  A    between atoms: C_13  and  C_14 
REMARK       I    between atoms: C_14  and  N_16 
REMARK    7  A    between atoms: N_16  and  C_18 
ROOT
HETATM    1  C   UNL     1       9.062  -1.280  22.212  1.00  0.00    -0.034 C 
ENDROOT
BRANCH   1   2
HETATM    2  C   UNL     1       9.628  -1.659  23.280  1.00  0.00     0.078 C 
BRANCH   2   3
HETATM    3  C   UNL     1       8.980  -2.676  23.914  1.00  0.00    -0.034 C 
HETATM    4  C   UNL     1       8.363  -3.499  24.464  1.00  0.00     0.027 C 
BRANCH   4   5
HETATM    5  N   UNL     1       7.787  -4.515  24.843  1.00  0.00    -0.229 N 
ATOM      6  HN  UNL     1       7.488  -5.171  24.122  1.00  0.00     0.190 HD
BRANCH   5   7
HETATM    7  S   UNL     1       7.457  -4.915  26.375  1.00  0.00     0.327 S 
HETATM    8 CL   UNL     1       6.362  -3.450  26.918  1.00  0.00     0.042 Cl
HETATM    9  O   UNL     1       6.656  -6.082  26.403  1.00  0.00    -0.188 OA
HETATM   10  O   UNL     1       8.581  -4.920  27.259  1.00  0.00    -0.188 OA
ENDBRANCH   5   7
ENDBRANCH   4   5
ENDBRANCH   2   3
BRANCH   2  11
HETATM   11  C   UNL     1      10.811  -0.930  23.801  1.00  0.00    -0.028 C 
HETATM   12  C   UNL     1      11.934  -1.495  22.920  1.00  0.00     0.024 C 
HETATM   13  C   UNL     1      11.076  -0.185  24.533  1.00  0.00     0.024 C 
ENDBRANCH   2  11
ENDBRANCH   1   2
BRANCH   1  14
HETATM   14  C   UNL     1       8.463  -0.538  21.226  1.00  0.00     0.294 C 
HETATM   15  O   UNL     1       9.115   0.311  20.645  1.00  0.00    -0.258 OA
HETATM   16  N   UNL     1       7.139  -0.851  21.061  1.00  0.00    -0.315 N 
ATOM     17  HN  UNL     1       6.666  -1.513  21.676  1.00  0.00     0.170 HD
BRANCH  16  18
HETATM   18  C   UNL     1       6.507  -0.261  20.073  1.00  0.00     0.053 A 
HETATM   19  C   UNL     1       6.181  -0.542  18.785  1.00  0.00     0.136 A 
HETATM   20  N   UNL     1       5.609  -0.295  17.769  1.00  0.00    -0.310 N 
HETATM   21  N   UNL     1       5.060   0.806  18.017  1.00  0.00    -0.312 N 
ATOM     22  HN  UNL     1       5.573  -0.844  16.910  1.00  0.00     0.186 HD
HETATM   23  C   UNL     1       5.260   1.215  19.087  1.00  0.00     0.109 A 
ATOM     24  HN  UNL     1       4.485   1.302  17.336  1.00  0.00     0.186 HD
HETATM   25  C   UNL     1       5.819   0.984  20.272  1.00  0.00     0.049 A 
ENDBRANCH  16  18
ENDBRANCH   1  14
TORSDOF 7
ENDMDL
MODEL 2
REMARK VINA RESULT:    -6.547      1.953      2.077
REMARK INTER + INTRA:          -9.922
REMARK INTER:                  -9.190
REMARK INTRA:                  -0.732
REMARK UNBOUND:                -0.696
REMARK  7 active torsions:
REMARK  status: ('A' for Active; 'I' for Inactive)
REMARK    1  A    between atoms: S_2  and  N_5 
REMARK    2  A    between atoms: N_5  and  C_7 
REMARK    3  A    between atoms: C_8  and  C_9 
REMARK    4  A    between atoms: C_9  and  C_13 
REMARK    5  A    between atoms: C_9  and  C_10 
REMARK    6  A    between atoms: C_13  and  C_14 
REMARK       I    between atoms: C_14  and  N_16 
REMARK    7  A    between atoms: N_16  and  C_18 
ROOT
HETATM    1  C   UNL     1       9.311  -0.081  22.559  1.00  0.00    -0.034 C 
ENDROOT
BRANCH   1   2
HETATM    2  C   UNL     1       9.986  -0.935  23.206  1.00  0.00     0.078 C 
BRANCH   2   3
HETATM    3  C   UNL     1       9.323  -2.105  23.427  1.00  0.00    -0.034 C 
HETATM    4  C   UNL     1       8.709  -3.088  23.554  1.00  0.00     0.027 C 
BRANCH   4   5
HETATM    5  N   UNL     1       8.297  -4.237  23.691  1.00  0.00    -0.229 N 
ATOM      6  HN  UNL     1       8.954  -4.919  24.068  1.00  0.00     0.190 HD
BRANCH   5   7
HETATM    7  S   UNL     1       6.814  -4.773  23.330  1.00  0.00     0.327 S 
HETATM    8 CL   UNL     1       7.186  -5.958  21.882  1.00  0.00     0.042 Cl
HETATM    9  O   UNL     1       6.313  -5.550  24.402  1.00  0.00    -0.188 OA
HETATM   10  O   UNL     1       5.918  -3.785  22.815  1.00  0.00    -0.188 OA
ENDBRANCH   5   7
ENDBRANCH   4   5
ENDBRANCH   2   3
BRANCH   2  11
HETATM   11  C   UNL     1      11.317  -0.578  23.756  1.00  0.00    -0.028 C 
HETATM   12  C   UNL     1      12.234  -1.546  22.995  1.00  0.00     0.024 C 
HETATM   13  C   UNL     1      11.777   0.104  24.452  1.00  0.00     0.024 C 
ENDBRANCH   2  11
ENDBRANCH   1   2
BRANCH   1  14
HETATM   14  C   UNL     1       8.643   0.606  21.576  1.00  0.00     0.294 C 
HETATM   15  O   UNL     1       9.039   1.713  21.255  1.00  0.00    -0.258 OA
HETATM   16  N   UNL     1       7.550  -0.073  21.107  1.00  0.00    -0.315 N 
ATOM     17  HN  UNL     1       7.250  -0.955  21.523  1.00  0.00     0.170 HD
BRANCH  16  18
HETATM   18  C   UNL     1       6.905   0.463  20.098  1.00  0.00     0.053 A 
HETATM   19  C   UNL     1       6.948   0.407  18.741  1.00  0.00     0.136 A 
HETATM   20  N   UNL     1       6.505   0.665  17.665  1.00  0.00    -0.310 N 
HETATM   21  N   UNL     1       5.512   1.384  17.936  1.00  0.00    -0.312 N 
ATOM     22  HN  UNL     1       6.847   0.373  16.750  1.00  0.00     0.186 HD
HETATM   23  C   UNL     1       5.340   1.561  19.072  1.00  0.00     0.109 A 
ATOM     24  HN  UNL     1       4.907   1.781  17.218  1.00  0.00     0.186 HD
HETATM   25  C   UNL     1       5.736   1.270  20.309  1.00  0.00     0.049 A 
ENDBRANCH  16  18
ENDBRANCH   1  14
TORSDOF 7
ENDMDL
MODEL 3
REMARK VINA RESULT:    -6.248      4.193      5.426
REMARK INTER + INTRA:          -9.501
REMARK INTER:                  -8.851
REMARK INTRA:                  -0.649
REMARK UNBOUND:                -0.696
REMARK  7 active torsions:
REMARK  status: ('A' for Active; 'I' for Inactive)
REMARK    1  A    between atoms: S_2  and  N_5 
REMARK    2  A    between atoms: N_5  and  C_7 
REMARK    3  A    between atoms: C_8  and  C_9 
REMARK    4  A    between atoms: C_9  and  C_13 
REMARK    5  A    between atoms: C_9  and  C_10 
REMARK    6  A    between atoms: C_13  and  C_14 
REMARK       I    between atoms: C_14  and  N_16 
REMARK    7  A    between atoms: N_16  and  C_18 
ROOT
HETATM    1  C   UNL     1       8.217  -3.457  24.129  1.00  0.00    -0.034 C 
ENDROOT
BRANCH   1   2
HETATM    2  C   UNL     1       7.653  -4.584  24.247  1.00  0.00     0.078 C 
BRANCH   2   3
HETATM    3  C   UNL     1       7.742  -5.115  25.500  1.00  0.00    -0.034 C 
HETATM    4  C   UNL     1       7.837  -5.495  26.598  1.00  0.00     0.027 C 
BRANCH   4   5
HETATM    5  N   UNL     1       7.704  -6.005  27.707  1.00  0.00    -0.229 N 
ATOM      6  HN  UNL     1       8.537  -6.418  28.126  1.00  0.00     0.190 HD
BRANCH   5   7
HETATM    7  S   UNL     1       6.337  -6.087  28.567  1.00  0.00     0.327 S 
HETATM    8 CL   UNL     1       5.230  -4.847  27.631  1.00  0.00     0.042 Cl
HETATM    9  O   UNL     1       5.758  -7.372  28.423  1.00  0.00    -0.188 OA
HETATM   10  O   UNL     1       6.431  -5.603  29.908  1.00  0.00    -0.188 OA
ENDBRANCH   5   7
ENDBRANCH   4   5
ENDBRANCH   2   3
BRANCH   2  11
HETATM   11  C   UNL     1       7.081  -5.265  23.060  1.00  0.00    -0.028 C 
HETATM   12  C   UNL     1       5.623  -5.471  23.493  1.00  0.00     0.024 C 
HETATM   13  C   UNL     1       7.363  -5.606  22.077  1.00  0.00     0.024 C 
ENDBRANCH   2  11
ENDBRANCH   1   2
BRANCH   1  14
HETATM   14  C   UNL     1       9.002  -2.409  23.720  1.00  0.00     0.294 C 
HETATM   15  O   UNL     1       9.143  -2.206  22.526  1.00  0.00    -0.258 OA
HETATM   16  N   UNL     1       9.573  -1.736  24.768  1.00  0.00    -0.315 N 
ATOM     17  HN  UNL     1       9.467  -2.057  25.730  1.00  0.00     0.170 HD
BRANCH  16  18
HETATM   18  C   UNL     1      10.263  -0.658  24.477  1.00  0.00     0.053 A 
HETATM   19  C   UNL     1      10.075   0.687  24.504  1.00  0.00     0.136 A 
HETATM   20  N   UNL     1      10.475   1.806  24.406  1.00  0.00    -0.310 N 
HETATM   21  N   UNL     1      11.675   1.645  24.072  1.00  0.00    -0.312 N 
ATOM     22  HN  UNL     1       9.968   2.678  24.556  1.00  0.00     0.186 HD
HETATM   23  C   UNL     1      12.004   0.535  23.973  1.00  0.00     0.109 A 
ATOM     24  HN  UNL     1      12.308   2.426  23.900  1.00  0.00     0.186 HD
HETATM   25  C   UNL     1      11.652  -0.740  24.120  1.00  0.00     0.049 A 
ENDBRANCH  16  18
ENDBRANCH   1  14
TORSDOF 7
ENDMDL
MODEL 4
REMARK VINA RESULT:    -6.155      3.522      4.328
REMARK INTER + INTRA:          -9.370
REMARK INTER:                  -8.582
REMARK INTRA:                  -0.788
REMARK UNBOUND:                -0.696
REMARK  7 active torsions:
REMARK  status: ('A' for Active; 'I' for Inactive)
REMARK    1  A    between atoms: S_2  and  N_5 
REMARK    2  A    between atoms: N_5  and  C_7 
REMARK    3  A    between atoms: C_8  and  C_9 
REMARK    4  A    between atoms: C_9  and  C_13 
REMARK    5  A    between atoms: C_9  and  C_10 
REMARK    6  A    between atoms: C_13  and  C_14 
REMARK       I    between atoms: C_14  and  N_16 
REMARK    7  A    between atoms: N_16  and  C_18 
ROOT
HETATM    1  C   UNL     1       7.403  -2.251  22.136  1.00  0.00    -0.034 C 
ENDROOT
BRANCH   1   2
HETATM    2  C   UNL     1       7.786  -2.799  23.212  1.00  0.00     0.078 C 
BRANCH   2   3
HETATM    3  C   UNL     1       8.735  -2.087  23.883  1.00  0.00    -0.034 C 
HETATM    4  C   UNL     1       9.588  -1.546  24.466  1.00  0.00     0.027 C 
BRANCH   4   5
HETATM    5  N   UNL     1      10.479  -0.809  24.880  1.00  0.00    -0.229 N 
ATOM      6  HN  UNL     1      10.440  -0.548  25.865  1.00  0.00     0.190 HD
BRANCH   5   7
HETATM    7  S   UNL     1      11.709  -0.213  24.014  1.00  0.00     0.327 S 
HETATM    8 CL   UNL     1      12.176  -1.718  22.940  1.00  0.00     0.042 Cl
HETATM    9  O   UNL     1      11.235   0.802  23.148  1.00  0.00    -0.188 OA
HETATM   10  O   UNL     1      12.879   0.118  24.766  1.00  0.00    -0.188 OA
ENDBRANCH   5   7
ENDBRANCH   4   5
ENDBRANCH   2   3
BRANCH   2  11
HETATM   11  C   UNL     1       7.301  -4.151  23.579  1.00  0.00    -0.028 C 
HETATM   12  C   UNL     1       5.885  -3.845  24.087  1.00  0.00     0.024 C 
HETATM   13  C   UNL     1       7.619  -5.181  23.577  1.00  0.00     0.024 C 
ENDBRANCH   2  11
ENDBRANCH   1   2
BRANCH   1  14
HETATM   14  C   UNL     1       6.685  -1.583  21.176  1.00  0.00     0.294 C 
HETATM   15  O   UNL     1       5.681  -2.101  20.720  1.00  0.00    -0.258 OA
HETATM   16  N   UNL     1       7.256  -0.387  20.827  1.00  0.00    -0.315 N 
ATOM     17  HN  UNL     1       8.159  -0.097  21.203  1.00  0.00     0.170 HD
BRANCH  16  18
HETATM   18  C   UNL     1       6.588   0.368  19.986  1.00  0.00     0.053 A 
HETATM   19  C   UNL     1       6.425   0.463  18.641  1.00  0.00     0.136 A 
HETATM   20  N   UNL     1       5.890   0.918  17.678  1.00  0.00    -0.310 N 
HETATM   21  N   UNL     1       5.103   1.764  18.168  1.00  0.00    -0.312 N 
ATOM     22  HN  UNL     1       6.035   0.678  16.697  1.00  0.00     0.186 HD
HETATM   23  C   UNL     1       5.132   1.835  19.328  1.00  0.00     0.109 A 
ATOM     24  HN  UNL     1       4.488   2.342  17.596  1.00  0.00     0.186 HD
HETATM   25  C   UNL     1       5.638   1.338  20.454  1.00  0.00     0.049 A 
ENDBRANCH  16  18
ENDBRANCH   1  14
TORSDOF 7
ENDMDL
MODEL 5
REMARK VINA RESULT:    -6.099     20.567     23.528
REMARK INTER + INTRA:          -9.291
REMARK INTER:                  -8.686
REMARK INTRA:                  -0.605
REMARK UNBOUND:                -0.696
REMARK  7 active torsions:
REMARK  status: ('A' for Active; 'I' for Inactive)
REMARK    1  A    between atoms: S_2  and  N_5 
REMARK    2  A    between atoms: N_5  and  C_7 
REMARK    3  A    between atoms: C_8  and  C_9 
REMARK    4  A    between atoms: C_9  and  C_13 
REMARK    5  A    between atoms: C_9  and  C_10 
REMARK    6  A    between atoms: C_13  and  C_14 
REMARK       I    between atoms: C_14  and  N_16 
REMARK    7  A    between atoms: N_16  and  C_18 
ROOT
HETATM    1  C   UNL     1       6.096  10.426   3.599  1.00  0.00    -0.034 C 
ENDROOT
BRANCH   1   2
HETATM    2  C   UNL     1       6.095  11.580   3.080  1.00  0.00     0.078 C 
BRANCH   2   3
HETATM    3  C   UNL     1       7.312  12.193   3.098  1.00  0.00    -0.034 C 
HETATM    4  C   UNL     1       8.325  12.766   3.171  1.00  0.00     0.027 C 
BRANCH   4   5
HETATM    5  N   UNL     1       9.495  13.129   3.265  1.00  0.00    -0.229 N 
ATOM      6  HN  UNL     1      10.184  12.409   3.480  1.00  0.00     0.190 HD
BRANCH   5   7
HETATM    7  S   UNL     1      10.047  14.637   3.082  1.00  0.00     0.327 S 
HETATM    8 CL   UNL     1       8.902  15.603   4.263  1.00  0.00     0.042 Cl
HETATM    9  O   UNL     1      11.365  14.729   3.593  1.00  0.00    -0.188 OA
HETATM   10  O   UNL     1       9.851  15.205   1.785  1.00  0.00    -0.188 OA
ENDBRANCH   5   7
ENDBRANCH   4   5
ENDBRANCH   2   3
BRANCH   2  11
HETATM   11  C   UNL     1       4.823  12.199   2.630  1.00  0.00    -0.028 C 
HETATM   12  C   UNL     1       4.894  13.576   3.305  1.00  0.00     0.024 C 
HETATM   13  C   UNL     1       3.962  11.986   2.018  1.00  0.00     0.024 C 
ENDBRANCH   2  11
ENDBRANCH   1   2
BRANCH   1  14
HETATM   14  C   UNL     1       5.786   9.302   4.324  1.00  0.00     0.294 C 
HETATM   15  O   UNL     1       6.227   9.188   5.454  1.00  0.00    -0.258 OA
HETATM   16  N   UNL     1       5.022   8.412   3.617  1.00  0.00    -0.315 N 
ATOM     17  HN  UNL     1       4.794   8.566   2.634  1.00  0.00     0.170 HD
BRANCH  16  18
HETATM   18  C   UNL     1       4.595   7.352   4.262  1.00  0.00     0.053 A 
HETATM   19  C   UNL     1       5.038   6.094   4.521  1.00  0.00     0.136 A 
HETATM   20  N   UNL     1       4.950   5.044   5.079  1.00  0.00    -0.310 N 
HETATM   21  N   UNL     1       3.879   5.158   5.723  1.00  0.00    -0.312 N 
ATOM     22  HN  UNL     1       5.587   4.249   5.041  1.00  0.00     0.186 HD
HETATM   23  C   UNL     1       3.343   6.181   5.592  1.00  0.00     0.109 A 
ATOM     24  HN  UNL     1       3.508   4.413   6.313  1.00  0.00     0.186 HD
HETATM   25  C   UNL     1       3.399   7.398   5.056  1.00  0.00     0.049 A 
ENDBRANCH  16  18
ENDBRANCH   1  14
TORSDOF 7
ENDMDL
MODEL 6
REMARK VINA RESULT:    -6.092      3.873      7.579
REMARK INTER + INTRA:          -9.281
REMARK INTER:                  -8.651
REMARK INTRA:                  -0.630
REMARK UNBOUND:                -0.696
REMARK  7 active torsions:
REMARK  status: ('A' for Active; 'I' for Inactive)
REMARK    1  A    between atoms: S_2  and  N_5 
REMARK    2  A    between atoms: N_5  and  C_7 
REMARK    3  A    between atoms: C_8  and  C_9 
REMARK    4  A    between atoms: C_9  and  C_13 
REMARK    5  A    between atoms: C_9  and  C_10 
REMARK    6  A    between atoms: C_13  and  C_14 
REMARK       I    between atoms: C_14  and  N_16 
REMARK    7  A    between atoms: N_16  and  C_18 
ROOT
HETATM    1  C   UNL     1       7.908  -2.867  23.459  1.00  0.00    -0.034 C 
ENDROOT
BRANCH   1   2
HETATM    2  C   UNL     1       8.248  -1.709  23.076  1.00  0.00     0.078 C 
BRANCH   2   3
HETATM    3  C   UNL     1       7.458  -1.204  22.087  1.00  0.00    -0.034 C 
HETATM    4  C   UNL     1       6.719  -0.802  21.279  1.00  0.00     0.027 C 
BRANCH   4   5
HETATM    5  N   UNL     1       6.069  -0.154  20.464  1.00  0.00    -0.229 N 
ATOM      6  HN  UNL     1       5.242   0.329  20.814  1.00  0.00     0.190 HD
BRANCH   5   7
HETATM    7  S   UNL     1       6.396   0.008  18.888  1.00  0.00     0.327 S 
HETATM    8 CL   UNL     1       5.374   1.557  18.449  1.00  0.00     0.042 Cl
HETATM    9  O   UNL     1       7.763   0.333  18.715  1.00  0.00    -0.188 OA
HETATM   10  O   UNL     1       5.905  -1.043  18.053  1.00  0.00    -0.188 OA
ENDBRANCH   5   7
ENDBRANCH   4   5
ENDBRANCH   2   3
BRANCH   2  11
HETATM   11  C   UNL     1       9.480  -1.075  23.605  1.00  0.00    -0.028 C 
HETATM   12  C   UNL     1      10.573  -1.848  22.854  1.00  0.00     0.024 C 
HETATM   13  C   UNL     1       9.794  -0.299  24.284  1.00  0.00     0.024 C 
ENDBRANCH   2  11
ENDBRANCH   1   2
BRANCH   1  14
HETATM   14  C   UNL     1       7.689  -4.004  24.197  1.00  0.00     0.294 C 
HETATM   15  O   UNL     1       8.193  -5.052  23.831  1.00  0.00    -0.258 OA
HETATM   16  N   UNL     1       6.861  -3.788  25.266  1.00  0.00    -0.315 N 
ATOM     17  HN  UNL     1       6.411  -2.885  25.420  1.00  0.00     0.170 HD
BRANCH  16  18
HETATM   18  C   UNL     1       6.672  -4.796  26.085  1.00  0.00     0.053 A 
HETATM   19  C   UNL     1       7.342  -5.396  27.103  1.00  0.00     0.136 A 
HETATM   20  N   UNL     1       7.406  -6.175  28.003  1.00  0.00    -0.310 N 
HETATM   21  N   UNL     1       6.296  -6.758  27.948  1.00  0.00    -0.312 N 
ATOM     22  HN  UNL     1       8.174  -6.331  28.656  1.00  0.00     0.186 HD
HETATM   23  C   UNL     1       5.594  -6.381  27.101  1.00  0.00     0.109 A 
ATOM     24  HN  UNL     1       6.030  -7.501  28.594  1.00  0.00     0.186 HD
HETATM   25  C   UNL     1       5.420  -5.499  26.119  1.00  0.00     0.049 A 
ENDBRANCH  16  18
ENDBRANCH   1  14
TORSDOF 7
ENDMDL
MODEL 7
REMARK VINA RESULT:    -6.078      3.757      6.945
REMARK INTER + INTRA:          -9.262
REMARK INTER:                  -8.659
REMARK INTRA:                  -0.603
REMARK UNBOUND:                -0.696
REMARK  7 active torsions:
REMARK  status: ('A' for Active; 'I' for Inactive)
REMARK    1  A    between atoms: S_2  and  N_5 
REMARK    2  A    between atoms: N_5  and  C_7 
REMARK    3  A    between atoms: C_8  and  C_9 
REMARK    4  A    between atoms: C_9  and  C_13 
REMARK    5  A    between atoms: C_9  and  C_10 
REMARK    6  A    between atoms: C_13  and  C_14 
REMARK       I    between atoms: C_14  and  N_16 
REMARK    7  A    between atoms: N_16  and  C_18 
ROOT
HETATM    1  C   UNL     1       9.642  -1.489  24.242  1.00  0.00    -0.034 C 
ENDROOT
BRANCH   1   2
HETATM    2  C   UNL     1      10.160  -0.482  23.675  1.00  0.00     0.078 C 
BRANCH   2   3
HETATM    3  C   UNL     1       9.312   0.168  22.829  1.00  0.00    -0.034 C 
HETATM    4  C   UNL     1       8.636   0.788  22.109  1.00  0.00     0.027 C 
BRANCH   4   5
HETATM    5  N   UNL     1       7.937   1.228  21.200  1.00  0.00    -0.229 N 
ATOM      6  HN  UNL     1       7.890   2.242  21.105  1.00  0.00     0.190 HD
BRANCH   5   7
HETATM    7  S   UNL     1       7.085   0.355  20.138  1.00  0.00     0.327 S 
HETATM    8 CL   UNL     1       5.567   1.476  19.862  1.00  0.00     0.042 Cl
HETATM    9  O   UNL     1       7.788   0.276  18.911  1.00  0.00    -0.188 OA
HETATM   10  O   UNL     1       6.578  -0.885  20.636  1.00  0.00    -0.188 OA
ENDBRANCH   5   7
ENDBRANCH   4   5
ENDBRANCH   2   3
BRANCH   2  11
HETATM   11  C   UNL     1      11.599  -0.174  23.861  1.00  0.00    -0.028 C 
HETATM   12  C   UNL     1      11.563   1.343  24.095  1.00  0.00     0.024 C 
HETATM   13  C   UNL     1      12.560  -0.662  23.891  1.00  0.00     0.024 C 
ENDBRANCH   2  11
ENDBRANCH   1   2
BRANCH   1  14
HETATM   14  C   UNL     1       8.954  -2.318  25.092  1.00  0.00     0.294 C 
HETATM   15  O   UNL     1       8.579  -1.885  26.167  1.00  0.00    -0.258 OA
HETATM   16  N   UNL     1       8.819  -3.588  24.595  1.00  0.00    -0.315 N 
ATOM     17  HN  UNL     1       9.264  -3.870  23.721  1.00  0.00     0.170 HD
BRANCH  16  18
HETATM   18  C   UNL     1       8.090  -4.426  25.294  1.00  0.00     0.053 A 
HETATM   19  C   UNL     1       8.258  -5.243  26.366  1.00  0.00     0.136 A 
HETATM   20  N   UNL     1       7.833  -5.976  27.205  1.00  0.00    -0.310 N 
HETATM   21  N   UNL     1       6.614  -6.051  26.919  1.00  0.00    -0.312 N 
ATOM     22  HN  UNL     1       8.337  -6.431  27.966  1.00  0.00     0.186 HD
HETATM   23  C   UNL     1       6.295  -5.423  25.994  1.00  0.00     0.109 A 
ATOM     24  HN  UNL     1       5.955  -6.617  27.455  1.00  0.00     0.186 HD
HETATM   25  C   UNL     1       6.678  -4.552  25.063  1.00  0.00     0.049 A 
ENDBRANCH  16  18
ENDBRANCH   1  14
TORSDOF 7
ENDMDL
MODEL 8
REMARK VINA RESULT:    -6.061     24.819     25.979
REMARK INTER + INTRA:          -9.237
REMARK INTER:                  -8.454
REMARK INTRA:                  -0.783
REMARK UNBOUND:                -0.696
REMARK  7 active torsions:
REMARK  status: ('A' for Active; 'I' for Inactive)
REMARK    1  A    between atoms: S_2  and  N_5 
REMARK    2  A    between atoms: N_5  and  C_7 
REMARK    3  A    between atoms: C_8  and  C_9 
REMARK    4  A    between atoms: C_9  and  C_13 
REMARK    5  A    between atoms: C_9  and  C_10 
REMARK    6  A    between atoms: C_13  and  C_14 
REMARK       I    between atoms: C_14  and  N_16 
REMARK    7  A    between atoms: N_16  and  C_18 
ROOT
HETATM    1  C   UNL     1       3.079 -24.034   8.711  1.00  0.00    -0.034 C 
ENDROOT
BRANCH   1   2
HETATM    2  C   UNL     1       2.802 -25.113   9.312  1.00  0.00     0.078 C 
BRANCH   2   3
HETATM    3  C   UNL     1       1.535 -25.153   9.812  1.00  0.00    -0.034 C 
HETATM    4  C   UNL     1       0.440 -25.114  10.212  1.00  0.00     0.027 C 
BRANCH   4   5
HETATM    5  N   UNL     1      -0.735 -25.303  10.513  1.00  0.00    -0.229 N 
ATOM      6  HN  UNL     1      -1.096 -26.248  10.385  1.00  0.00     0.190 HD
BRANCH   5   7
HETATM    7  S   UNL     1      -1.766 -24.200  11.093  1.00  0.00     0.327 S 
HETATM    8 CL   UNL     1      -1.092 -22.602  10.299  1.00  0.00     0.042 Cl
HETATM    9  O   UNL     1      -3.059 -24.429  10.564  1.00  0.00    -0.188 OA
HETATM   10  O   UNL     1      -1.709 -23.996  12.507  1.00  0.00    -0.188 OA
ENDBRANCH   5   7
ENDBRANCH   4   5
ENDBRANCH   2   3
BRANCH   2  11
HETATM   11  C   UNL     1       3.849 -26.141   9.529  1.00  0.00    -0.028 C 
HETATM   12  C   UNL     1       4.114 -26.002  11.034  1.00  0.00     0.024 C 
HETATM   13  C   UNL     1       4.408 -26.890   8.990  1.00  0.00     0.024 C 
ENDBRANCH   2  11
ENDBRANCH   1   2
BRANCH   1  14
HETATM   14  C   UNL     1       3.229 -22.714   8.366  1.00  0.00     0.294 C 
HETATM   15  O   UNL     1       3.740 -22.437   7.295  1.00  0.00    -0.258 OA
HETATM   16  N   UNL     1       2.795 -21.860   9.345  1.00  0.00    -0.315 N 
ATOM     17  HN  UNL     1       2.477 -22.204  10.251  1.00  0.00     0.170 HD
BRANCH  16  18
HETATM   18  C   UNL     1       2.809 -20.578   9.065  1.00  0.00     0.053 A 
HETATM   19  C   UNL     1       3.658 -19.529   9.222  1.00  0.00     0.136 A 
HETATM   20  N   UNL     1       3.977 -18.397   9.025  1.00  0.00    -0.310 N 
HETATM   21  N   UNL     1       3.009 -17.945   8.366  1.00  0.00    -0.312 N 
ATOM     22  HN  UNL     1       4.826 -17.916   9.319  1.00  0.00     0.186 HD
HETATM   23  C   UNL     1       2.162 -18.715   8.160  1.00  0.00     0.109 A 
ATOM     24  HN  UNL     1       2.968 -16.980   8.038  1.00  0.00     0.186 HD
HETATM   25  C   UNL     1       1.763 -19.978   8.285  1.00  0.00     0.049 A 
ENDBRANCH  16  18
ENDBRANCH   1  14
TORSDOF 7
ENDMDL
MODEL 9
REMARK VINA RESULT:    -5.963      4.271      6.527
REMARK INTER + INTRA:          -9.098
REMARK INTER:                  -8.480
REMARK INTRA:                  -0.619
REMARK UNBOUND:                -0.696
REMARK  7 active torsions:
REMARK  status: ('A' for Active; 'I' for Inactive)
REMARK    1  A    between atoms: S_2  and  N_5 
REMARK    2  A    between atoms: N_5  and  C_7 
REMARK    3  A    between atoms: C_8  and  C_9 
REMARK    4  A    between atoms: C_9  and  C_13 
REMARK    5  A    between atoms: C_9  and  C_10 
REMARK    6  A    between atoms: C_13  and  C_14 
REMARK       I    between atoms: C_14  and  N_16 
REMARK    7  A    between atoms: N_16  and  C_18 
ROOT
HETATM    1  C   UNL     1       7.138  -0.794  21.388  1.00  0.00    -0.034 C 
ENDROOT
BRANCH   1   2
HETATM    2  C   UNL     1       7.470   0.254  20.761  1.00  0.00     0.078 C 
BRANCH   2   3
HETATM    3  C   UNL     1       8.500   0.936  21.336  1.00  0.00    -0.034 C 
HETATM    4  C   UNL     1       9.430   1.459  21.806  1.00  0.00     0.027 C 
BRANCH   4   5
HETATM    5  N   UNL     1      10.326   2.217  22.166  1.00  0.00    -0.229 N 
ATOM      6  HN  UNL     1      10.756   2.797  21.445  1.00  0.00     0.190 HD
BRANCH   5   7
HETATM    7  S   UNL     1      10.891   2.387  23.672  1.00  0.00     0.327 S 
HETATM    8 CL   UNL     1      11.717   4.103  23.573  1.00  0.00     0.042 Cl
HETATM    9  O   UNL     1       9.809   2.484  24.581  1.00  0.00    -0.188 OA
HETATM   10  O   UNL     1      11.923   1.469  24.042  1.00  0.00    -0.188 OA
ENDBRANCH   5   7
ENDBRANCH   4   5
ENDBRANCH   2   3
BRANCH   2  11
HETATM   11  C   UNL     1       6.681   0.708  19.589  1.00  0.00    -0.028 C 
HETATM   12  C   UNL     1       5.591   1.555  20.259  1.00  0.00     0.024 C 
HETATM   13  C   UNL     1       6.666   0.633  18.513  1.00  0.00     0.024 C 
ENDBRANCH   2  11
ENDBRANCH   1   2
BRANCH   1  14
HETATM   14  C   UNL     1       7.024  -2.087  21.834  1.00  0.00     0.294 C 
HETATM   15  O   UNL     1       7.938  -2.574  22.476  1.00  0.00    -0.258 OA
HETATM   16  N   UNL     1       5.855  -2.682  21.436  1.00  0.00    -0.315 N 
ATOM     17  HN  UNL     1       5.202  -2.210  20.811  1.00  0.00     0.170 HD
BRANCH  16  18
HETATM   18  C   UNL     1       5.614  -3.887  21.898  1.00  0.00     0.053 A 
HETATM   19  C   UNL     1       5.986  -5.160  21.608  1.00  0.00     0.136 A 
HETATM   20  N   UNL     1       6.019  -6.327  21.855  1.00  0.00    -0.310 N 
HETATM   21  N   UNL     1       5.319  -6.413  22.893  1.00  0.00    -0.312 N 
ATOM     22  HN  UNL     1       6.497  -7.070  21.347  1.00  0.00     0.186 HD
HETATM   23  C   UNL     1       4.889  -5.401  23.271  1.00  0.00     0.109 A 
ATOM     24  HN  UNL     1       5.141  -7.299  23.366  1.00  0.00     0.186 HD
HETATM   25  C   UNL     1       4.854  -4.082  23.100  1.00  0.00     0.049 A 
ENDBRANCH  16  18
ENDBRANCH   1  14
TORSDOF 7
ENDMDL
