stable:False satoms:11 tatoms:24 sratio:0.4583333333333333
  -OEChem-07092417413D

 24 24  0     0  0  0  0  0  0999 V2000
    6.4492   -5.0378   26.4136 Cl  0  0  0  0  0  0  0  0  0  0  0  0
    8.2283   -4.3861   26.1959 S   0  0  0  0  0  0  0  0  0  0  0  0
    9.0790   -5.5074   26.0375 O   0  0  0  0  0  0  0  0  0  0  0  0
    8.4955   -3.5690   27.3381 O   0  0  0  0  0  0  0  0  0  0  0  0
    8.1062   -3.5906   24.7932 N   0  0  0  0  0  0  0  0  0  0  0  0
    8.9451   -2.8360   24.3086 C   0  0  0  0  0  0  0  0  0  0  0  0
    9.5447   -1.9774   23.7968 C   0  0  0  0  0  0  0  0  0  0  0  0
   10.3028   -0.9730   23.2729 C   0  0  0  0  0  0  0  0  0  0  0  0
   11.4985   -0.3691   23.9122 C   0  0  0  0  0  0  0  0  0  0  0  0
   11.7659    0.3347   24.6826 C   0  0  0  0  0  0  0  0  0  0  0  0
   13.5332   -0.5219   23.2280 H   0  0  0  0  0  0  0  0  0  0  0  0
   12.6367   -1.0233   23.1177 C   0  5  0  0  0  0  0  0  0  0  0  0
   12.3323   -1.8776   22.6066 H   0  0  0  0  0  0  0  0  0  0  0  0
    9.8356   -0.4869   22.2007 C   0  0  0  0  0  0  0  0  0  0  0  0
    9.0583    0.1535   21.2687 C   0  0  0  0  0  0  0  0  0  0  0  0
    9.4948    1.1473   20.7158 O   0  0  0  0  0  0  0  0  0  0  0  0
    7.8264   -0.4282   21.1209 N   0  0  0  0  0  0  0  0  0  0  0  0
    7.0490    0.0566   20.1810 C   0  0  0  0  0  0  0  0  0  0  0  0
    7.0375    0.1115   18.8239 C   0  0  0  0  0  0  0  0  0  0  0  0
    6.5044    0.3649   17.7883 N   0  0  0  0  0  0  0  0  0  0  0  0
    5.4142    0.8705   18.1499 N   0  0  0  0  0  0  0  0  0  0  0  0
    5.2666    0.9276   19.3015 C   0  0  0  0  0  0  0  0  0  0  0  0
    5.7672    0.6222   20.4973 C   0  0  0  0  0  0  0  0  0  0  0  0
    5.4126    0.7050   21.5449 H   0  0  0  0  0  0  0  0  0  0  0  0
 20 21  2  0  0  0  0
 19 20  1  0  0  0  0
 21 22  1  0  0  0  0
 18 19  2  0  0  0  0
 22 23  2  0  0  0  0
 18 23  1  0  0  0  0
 17 18  1  0  0  0  0
 23 24  1  0  0  0  0
 15 16  2  0  0  0  0
 15 17  1  0  0  0  0
 14 15  1  0  0  0  0
  8 14  2  3  0  0  0
 12 13  1  0  0  0  0
 11 12  1  0  0  0  0
  9 12  1  0  0  0  0
  7  8  1  0  0  0  0
  8  9  1  0  0  0  0
  6  7  3  0  0  0  0
  9 10  2  0  0  0  0
  5  6  1  0  0  0  0
  2  5  1  0  0  0  0
  2  3  2  0  0  0  0
  1  2  1  0  0  0  0
  2  4  2  0  0  0  0
M  CHG  1  12  -1
M  END
> <Shapegauss>
-258.919983

$$$$
