stable:False satoms:12 tatoms:24 sratio:0.5
  -OEChem-08062409273D

 32 35  0     1  0  0  0  0  0999 V2000
    6.4876   -5.4920   26.3374 Cl  0  0  0  0  0  0  0  0  0  0  0  0
    8.2688   -4.7861   26.0940 S   0  0  0  0  0  0  0  0  0  0  0  0
    9.1233   -5.9198   25.9732 O   0  0  0  0  0  0  0  0  0  0  0  0
    8.5166   -3.9371   27.1781 O   0  0  0  0  0  0  0  0  0  0  0  0
    8.2331   -3.9932   24.6727 N   0  0  0  0  0  0  0  0  0  0  0  0
    9.0792   -3.2560   24.2567 C   0  0  0  0  0  0  0  0  0  0  0  0
    9.6069   -2.4168   23.7750 C   0  0  0  0  0  0  0  0  0  0  0  0
   10.7724   -1.3767   23.5670 C   0  0  1  0  0  0  0  0  0  0  0  0
   11.4113   -0.4801   24.5122 C   0  0  0  0  0  0  0  0  0  0  0  0
   12.3632   -0.0045   24.8024 N   0  0  0  0  0  0  0  0  0  0  0  0
   13.1496   -0.4915   24.0378 C   0  0  0  0  0  0  0  0  0  0  0  0
   13.1366   -1.4381   23.2010 C   0  0  0  0  0  0  0  0  0  0  0  0
   12.0964   -1.8318   23.1493 C   0  0  0  0  0  0  0  0  0  0  0  0
    9.8736   -1.1352   22.7983 C   0  0  3  0  0  0  0  0  0  0  0  0
    9.2629   -0.3156   21.7652 C   0  0  0  0  0  0  0  0  0  0  0  0
    9.7983    0.7254   21.4757 O   0  0  0  0  0  0  0  0  0  0  0  0
    8.1405   -0.8241   21.2446 N   0  0  0  0  0  0  0  0  0  0  0  0
    7.4454   -0.3205   20.2372 C   0  0  0  0  0  0  0  0  0  0  0  0
    7.8302   -0.3402   18.9218 N   0  0  0  0  0  0  0  0  0  0  0  0
    7.0282    0.2496   18.1403 N   0  0  0  0  0  0  0  0  0  0  0  0
    5.9542    0.5710   18.8330 C   0  0  0  0  0  0  0  0  0  0  0  0
    5.1014    1.0375   18.6497 H   0  0  0  0  0  0  0  0  0  0  0  0
    6.1805    0.2236   20.3550 C   0  0  0  0  0  0  0  0  0  0  0  0
    5.5402    0.3207   21.2581 H   0  0  0  0  0  0  0  0  0  0  0  0
    7.3975   -3.4444   24.6997 H   0  0  0  0  0  0  0  0  0  0  0  0
    9.9438   -3.8069   24.5962 H   0  0  0  0  0  0  0  0  0  0  0  0
   13.9832   -1.8007   22.6369 H   0  0  0  0  0  0  0  0  0  0  0  0
   11.9598   -1.9973   22.0704 H   0  0  0  0  0  0  0  0  0  0  0  0
   12.1851   -2.8016   23.6607 H   0  0  0  0  0  0  0  0  0  0  0  0
   10.3222   -1.7901   22.0368 H   0  0  0  0  0  0  0  0  0  0  0  0
    7.7929   -1.6663   21.6566 H   0  0  0  0  0  0  0  0  0  0  0  0
    8.6707   -0.7815   18.6074 H   0  0  0  0  0  0  0  0  0  0  0  0
 19 20  1  0  0  0  0
 20 21  2  0  0  0  0
 21 22  1  0  0  0  0
 18 19  1  0  0  0  0
 21 23  1  0  0  0  0
 18 23  2  0  0  0  0
 17 18  1  0  0  0  0
 23 24  1  0  0  0  0
 15 17  1  0  0  0  0
 15 16  2  0  0  0  0
 14 15  1  0  0  0  0
  8 14  1  0  0  0  0
  7 14  1  0  0  0  0
 12 13  1  0  0  0  0
 11 12  2  0  0  0  0
  8 13  1  0  0  0  0
  7  8  1  0  0  0  0
  8  9  1  0  0  0  0
  9 11  1  0  0  0  0
 10 11  1  0  0  0  0
  6  7  2  0  0  0  0
  9 10  2  0  0  0  0
  5  6  1  0  0  0  0
  2  5  1  0  0  0  0
  2  3  2  0  0  0  0
  1  2  1  0  0  0  0
  2  4  2  0  0  0  0
  5 25  1  0  0  0  0
  6 26  1  0  0  0  0
 12 27  1  0  0  0  0
 13 28  1  0  0  0  0
 13 29  1  0  0  0  0
 14 30  1  0  0  0  0
 17 31  1  0  0  0  0
 19 32  1  0  0  0  0
M  END
> <Chemgauss4>
-10.537897

$$$$
