stable:False satoms:12 tatoms:24 sratio:0.5
  -OEChem-08062409273D

 32 35  0     1  0  0  0  0  0999 V2000
   -6.6756   -5.3663  -26.2758 Cl  0  0  0  0  0  0  0  0  0  0  0  0
   -8.4568   -4.6604  -26.0324 S   0  0  0  0  0  0  0  0  0  0  0  0
   -9.3113   -5.7941  -25.9116 O   0  0  0  0  0  0  0  0  0  0  0  0
   -8.7045   -3.8114  -27.1165 O   0  0  0  0  0  0  0  0  0  0  0  0
   -8.4210   -3.8675  -24.6111 N   0  0  0  0  0  0  0  0  0  0  0  0
   -9.2672   -3.1303  -24.1951 C   0  0  0  0  0  0  0  0  0  0  0  0
   -9.7949   -2.2911  -23.7133 C   0  0  0  0  0  0  0  0  0  0  0  0
  -10.9603   -1.2510  -23.5053 C   0  0  1  0  0  0  0  0  0  0  0  0
  -11.5992   -0.3544  -24.4506 C   0  0  0  0  0  0  0  0  0  0  0  0
  -12.5512    0.1213  -24.7408 N   0  0  0  0  0  0  0  0  0  0  0  0
  -13.3376   -0.3657  -23.9761 C   0  0  0  0  0  0  0  0  0  0  0  0
  -13.3246   -1.3124  -23.1394 C   0  0  0  0  0  0  0  0  0  0  0  0
  -12.2844   -1.7061  -23.0876 C   0  0  0  0  0  0  0  0  0  0  0  0
  -10.0616   -1.0095  -22.7367 C   0  0  3  0  0  0  0  0  0  0  0  0
   -9.4509   -0.1899  -21.7036 C   0  0  0  0  0  0  0  0  0  0  0  0
   -9.9863    0.8511  -21.4141 O   0  0  0  0  0  0  0  0  0  0  0  0
   -8.3285   -0.6984  -21.1830 N   0  0  0  0  0  0  0  0  0  0  0  0
   -7.6334   -0.1948  -20.1756 C   0  0  0  0  0  0  0  0  0  0  0  0
   -8.0182   -0.2145  -18.8602 N   0  0  0  0  0  0  0  0  0  0  0  0
   -7.2162    0.3753  -18.0787 N   0  0  0  0  0  0  0  0  0  0  0  0
   -6.1422    0.6967  -18.7714 C   0  0  0  0  0  0  0  0  0  0  0  0
   -5.2894    1.1632  -18.5881 H   0  0  0  0  0  0  0  0  0  0  0  0
   -6.3685    0.3493  -20.2934 C   0  0  0  0  0  0  0  0  0  0  0  0
   -5.7282    0.4464  -21.1965 H   0  0  0  0  0  0  0  0  0  0  0  0
   -7.5855   -3.3187  -24.6380 H   0  0  0  0  0  0  0  0  0  0  0  0
  -10.1318   -3.6812  -24.5346 H   0  0  0  0  0  0  0  0  0  0  0  0
  -14.1712   -1.6750  -22.5752 H   0  0  0  0  0  0  0  0  0  0  0  0
  -12.1478   -1.8716  -22.0088 H   0  0  0  0  0  0  0  0  0  0  0  0
  -12.3730   -2.6759  -23.5990 H   0  0  0  0  0  0  0  0  0  0  0  0
  -10.5102   -1.6644  -21.9752 H   0  0  0  0  0  0  0  0  0  0  0  0
   -7.9808   -1.5406  -21.5950 H   0  0  0  0  0  0  0  0  0  0  0  0
   -8.8586   -0.6558  -18.5457 H   0  0  0  0  0  0  0  0  0  0  0  0
 19 20  1  0  0  0  0
 20 21  2  0  0  0  0
 21 22  1  0  0  0  0
 18 19  1  0  0  0  0
 21 23  1  0  0  0  0
 18 23  2  0  0  0  0
 17 18  1  0  0  0  0
 23 24  1  0  0  0  0
 15 17  1  0  0  0  0
 15 16  2  0  0  0  0
 14 15  1  0  0  0  0
  8 14  1  0  0  0  0
  7 14  1  0  0  0  0
 12 13  1  0  0  0  0
 11 12  2  0  0  0  0
  8 13  1  0  0  0  0
  7  8  1  0  0  0  0
  8  9  1  0  0  0  0
  9 11  1  0  0  0  0
 10 11  1  0  0  0  0
  6  7  2  0  0  0  0
  9 10  2  0  0  0  0
  5  6  1  0  0  0  0
  2  5  1  0  0  0  0
  2  3  2  0  0  0  0
  1  2  1  0  0  0  0
  2  4  2  0  0  0  0
  5 25  1  0  0  0  0
  6 26  1  0  0  0  0
 12 27  1  0  0  0  0
 13 28  1  0  0  0  0
 13 29  1  0  0  0  0
 14 30  1  0  0  0  0
 17 31  1  0  0  0  0
 19 32  1  0  0  0  0
M  END
> <Chemgauss4>
-10.611300

$$$$
