stable:False satoms:7 tatoms:24 sratio:0.2916666666666667
  -OEChem-07092417513D

 24 25  0     1  0  0  0  0  0999 V2000
    6.5882   -4.8251   26.4482 C   0  0  0  0  0  0  0  0  0  0  0  0
    8.1906   -4.3026   26.1228 S   0  0  0  0  0  0  0  0  0  0  0  0
    9.0232   -5.4730   26.0875 O   0  0  0  0  0  0  0  0  0  0  0  0
    8.5854   -3.4122   27.1561 O   0  0  0  0  0  0  0  0  0  0  0  0
    8.1350   -3.5826   24.6602 N   0  0  0  0  0  0  0  0  0  0  0  0
    8.9567   -2.9143   24.1637 C   0  0  0  0  0  0  0  0  0  0  0  0
    9.4019   -1.9263   23.5084 C   0  0  0  0  0  0  0  0  0  0  0  0
   10.3043   -1.0820   23.3147 C   0  0  2  0  0  0  0  0  0  0  0  0
   11.0812   -0.0021   24.3074 C   0  0  0  0  0  0  0  0  0  0  0  0
   12.0186    0.3304   24.2901 C   0  0  0  0  0  0  0  0  0  0  0  0
   13.1571   -0.2227   23.3804 C   0  0  0  0  0  0  0  0  0  0  0  0
   12.7211   -1.2322   22.6505 C   0  0  0  0  0  0  0  0  0  0  0  0
   11.8523   -1.7768   22.4619 C   0  0  0  0  0  0  0  0  0  0  0  0
    9.7156   -0.5984   22.3794 C   0  0  2  0  0  0  0  0  0  0  0  0
    9.0668    0.0340   21.3822 C   0  0  0  0  0  0  0  0  0  0  0  0
    9.5602    0.9764   20.9540 O   0  0  0  0  0  0  0  0  0  0  0  0
    7.9289   -0.5528   21.0839 N   0  0  0  0  0  0  0  0  0  0  0  0
    7.1937   -0.1028   20.1808 C   0  0  0  0  0  0  0  0  0  0  0  0
    7.2463   -0.0184   18.8501 C   0  0  0  0  0  0  0  0  0  0  0  0
    6.8300    0.2617   17.7635 N   0  0  0  0  0  0  0  0  0  0  0  0
    5.6494    0.8807   18.2399 C   0  0  0  0  0  0  0  0  0  0  0  0
    5.2511    0.9589   19.3778 C   0  0  0  0  0  0  0  0  0  0  0  0
    5.8227    0.5556   20.5409 C   0  0  0  0  0  0  0  0  0  0  0  0
    5.3040    0.7363   21.9923 C   0  0  0  0  0  0  0  0  0  0  0  0
 20 21  2  0  0  0  0
 19 20  1  0  0  0  0
 21 22  1  0  0  0  0
 18 19  2  0  0  0  0
 22 23  2  0  0  0  0
 18 23  1  0  0  0  0
 17 18  1  0  0  0  0
 23 24  1  0  0  0  0
 15 16  2  0  0  0  0
 15 17  1  0  0  0  0
 14 15  1  0  0  0  0
  8 14  1  0  0  0  0
  7 14  1  0  0  0  0
 12 13  2  0  0  0  0
 11 12  1  0  0  0  0
  7  8  1  0  0  0  0
  8  9  1  0  0  0  0
 10 11  1  0  0  0  0
  6  7  2  3  0  0  0
  5  6  1  0  0  0  0
  9 10  2  0  0  0  0
  2  5  1  0  0  0  0
  2  3  2  0  0  0  0
  1  2  1  0  0  0  0
  2  4  2  0  0  0  0
M  END
> <Shapegauss>
-284.856720

$$$$
