REMARK  8 active torsions:
REMARK  status: ('A' for Active; 'I' for Inactive)
REMARK    1  A    between atoms: S_2  and  N_5 
REMARK    2  A    between atoms: N_5  and  C_7 
REMARK    3  A    between atoms: C_9  and  C_10 
REMARK    4  A    between atoms: C_10  and  C_11 
REMARK    5  A    between atoms: C_11  and  C_12 
REMARK    6  A    between atoms: C_12  and  C_13 
REMARK    7  A    between atoms: C_15  and  C_16 
REMARK       I    between atoms: C_16  and  N_18 
REMARK    8  A    between atoms: N_18  and  C_20 
ROOT
HETATM    1  C   UNL     1       8.957  -2.914  24.164  1.00  0.00     0.108 C 
HETATM    2  C   UNL     1       9.402  -1.926  23.508  1.00  0.00    -0.017 A 
HETATM    3  C   UNL     1      10.304  -1.082  23.315  1.00  0.00     0.082 A 
HETATM    4  C   UNL     1       9.716  -0.598  22.379  1.00  0.00     0.031 A 
ENDROOT
BRANCH   4   5
HETATM    5  C   UNL     1       9.067   0.034  21.382  1.00  0.00     0.253 C 
HETATM    6  O   UNL     1       9.560   0.976  20.954  1.00  0.00    -0.268 OA
HETATM    7  N   UNL     1       7.929  -0.553  21.084  1.00  0.00    -0.321 N 
ATOM      8  HN  UNL     1       7.643  -1.387  21.597  1.00  0.00     0.169 HD
BRANCH   7   9
HETATM    9  C   UNL     1       7.194  -0.103  20.181  1.00  0.00     0.056 A 
HETATM   10  C   UNL     1       7.246  -0.018  18.850  1.00  0.00     0.117 A 
HETATM   11  N   UNL     1       6.830   0.262  17.764  1.00  0.00    -0.373 N 
HETATM   12  C   UNL     1       5.649   0.881  18.240  1.00  0.00     0.088 A 
ATOM     13  HN  UNL     1       7.197   0.109  16.825  1.00  0.00     0.164 HD
HETATM   14  C   UNL     1       5.251   0.959  19.378  1.00  0.00     0.026 A 
HETATM   15  C   UNL     1       5.823   0.556  20.541  1.00  0.00    -0.033 A 
HETATM   16  C   UNL     1       5.304   0.736  21.992  1.00  0.00     0.050 C 
ENDBRANCH   7   9
ENDBRANCH   4   5
BRANCH   3  17
HETATM   17  C   UNL     1      11.081  -0.002  24.307  1.00  0.00    -0.016 C 
BRANCH  17  18
HETATM   18  C   UNL     1      12.019   0.330  24.290  1.00  0.00    -0.026 C 
BRANCH  18  19
HETATM   19  C   UNL     1      13.157  -0.223  23.380  1.00  0.00     0.053 C 
BRANCH  19  20
HETATM   20  C   UNL     1      12.721  -1.232  22.651  1.00  0.00    -0.033 C 
HETATM   21  C   UNL     1      11.852  -1.777  22.462  1.00  0.00     0.007 C 
ENDBRANCH  19  20
ENDBRANCH  18  19
ENDBRANCH  17  18
ENDBRANCH   3  17
BRANCH   1  22
HETATM   22  N   UNL     1       8.135  -3.583  24.660  1.00  0.00    -0.295 N 
ATOM     23  HN  UNL     1       7.286  -3.733  24.115  1.00  0.00     0.177 HD
BRANCH  22  24
HETATM   24  S   UNL     1       8.191  -4.303  26.123  1.00  0.00     0.226 S 
HETATM   25  C   UNL     1       6.588  -4.825  26.448  1.00  0.00     0.186 C 
HETATM   26  O   UNL     1       9.023  -5.473  26.087  1.00  0.00    -0.206 OA
HETATM   27  O   UNL     1       8.585  -3.412  27.156  1.00  0.00    -0.206 OA
ENDBRANCH  22  24
ENDBRANCH   1  22
TORSDOF 8
