
 OpenBabel07202414163D

 57 60  0  0  1  0  0  0  0  0999 V2000
    2.4714    0.3596   -1.1398 C   0  0  0  0  0  0  0  0  0  0  0  0
    0.9761    0.3577   -1.0343 C   0  0  0  0  0  0  0  0  0  0  0  0
    0.3090    1.4056   -0.4125 C   0  0  0  0  0  0  0  0  0  0  0  0
   -1.0726    1.3321   -0.1713 C   0  0  0  0  0  0  0  0  0  0  0  0
   -1.8618    0.2362   -0.5715 C   0  0  0  0  0  0  0  0  0  0  0  0
   -3.2762    0.1042   -0.1725 N   0  0  0  0  0  0  0  0  0  0  0  0
   -3.9768   -1.2249   -0.2459 C   0  0  3  0  0  0  0  0  0  0  0  0
   -4.7185   -1.2825   -1.6299 C   0  0  0  0  0  0  0  0  0  0  0  0
   -4.1495   -1.0875   -2.7021 O   0  0  0  0  0  0  0  0  0  0  0  0
   -6.0613   -1.6182   -1.5662 N   0  0  0  0  0  0  0  0  0  0  0  0
   -6.9260   -1.6956   -2.7469 C   0  0  0  0  0  0  0  0  0  0  0  0
   -7.9509   -0.5468   -2.7900 C   0  0  0  0  0  0  0  0  0  0  0  0
   -8.9228   -0.5862   -3.9481 C   0  0  0  0  0  0  0  0  0  0  0  0
   -8.4734   -0.4846   -5.2740 C   0  0  0  0  0  0  0  0  0  0  0  0
   -9.3861   -0.4358   -6.3379 C   0  0  0  0  0  0  0  0  0  0  0  0
  -10.7565   -0.4830   -6.0885 C   0  0  0  0  0  0  0  0  0  0  0  0
  -11.2045   -0.5878   -4.7814 C   0  0  0  0  0  0  0  0  0  0  0  0
  -12.5228   -0.6198   -4.5356 F   0  0  0  0  0  0  0  0  0  0  0  0
  -10.3013   -0.6412   -3.7233 C   0  0  0  0  0  0  0  0  0  0  0  0
   -3.1842   -2.5070    0.0567 C   0  0  0  0  0  0  0  0  0  0  0  0
   -2.1396   -2.5559    0.9929 C   0  0  0  0  0  0  0  0  0  0  0  0
   -1.3488   -3.7007    1.1004 C   0  0  0  0  0  0  0  0  0  0  0  0
   -1.6803   -4.8038    0.3358 C   0  0  0  0  0  0  0  0  0  0  0  0
   -2.7568   -4.8482   -0.4723 N   0  0  0  0  0  0  0  0  0  0  0  0
   -3.4814   -3.7105   -0.5889 C   0  0  0  0  0  0  0  0  0  0  0  0
   -4.0175    1.2834    0.1643 C   0  0  0  0  0  0  0  0  0  0  0  0
   -3.5367    2.4162    0.1053 O   0  0  0  0  0  0  0  0  0  0  0  0
   -5.4296    1.2338    0.5989 C   0  0  0  0  0  0  0  0  0  0  0  0
   -6.0932    2.3581    1.0621 C   0  0  0  0  0  0  0  0  0  0  0  0
   -7.3731    2.0265    1.3652 O   0  0  0  0  0  0  0  0  0  0  0  0
   -7.4416    0.7057    1.0654 C   0  0  0  0  0  0  0  0  0  0  0  0
   -6.3273    0.1744    0.6082 N   0  0  0  0  0  0  0  0  0  0  0  0
   -1.1777   -0.7508   -1.2998 C   0  0  0  0  0  0  0  0  0  0  0  0
    0.2185   -0.7203   -1.4845 C   0  0  0  0  0  0  0  0  0  0  0  0
    2.8717    1.3776   -1.0818 H   0  0  0  0  0  0  0  0  0  0  0  0
    2.7989   -0.0704   -2.0909 H   0  0  0  0  0  0  0  0  0  0  0  0
    2.9008   -0.2232   -0.3171 H   0  0  0  0  0  0  0  0  0  0  0  0
    0.8543    2.2845   -0.0744 H   0  0  0  0  0  0  0  0  0  0  0  0
   -1.4725    2.1697    0.3891 H   0  0  0  0  0  0  0  0  0  0  0  0
   -4.7129   -1.2513    0.5575 H   0  0  0  0  0  0  0  0  0  0  0  0
   -6.5129   -1.5677   -0.6552 H   0  0  0  0  0  0  0  0  0  0  0  0
   -7.4437   -2.6600   -2.6932 H   0  0  0  0  0  0  0  0  0  0  0  0
   -6.3120   -1.7009   -3.6538 H   0  0  0  0  0  0  0  0  0  0  0  0
   -7.4295    0.4154   -2.8054 H   0  0  0  0  0  0  0  0  0  0  0  0
   -8.5161   -0.5620   -1.8470 H   0  0  0  0  0  0  0  0  0  0  0  0
   -7.4097   -0.4222   -5.4939 H   0  0  0  0  0  0  0  0  0  0  0  0
   -9.0260   -0.3425   -7.3594 H   0  0  0  0  0  0  0  0  0  0  0  0
  -11.4737   -0.4267   -6.9022 H   0  0  0  0  0  0  0  0  0  0  0  0
  -10.7045   -0.7007   -2.7115 H   0  0  0  0  0  0  0  0  0  0  0  0
   -1.8712   -1.6784    1.5773 H   0  0  0  0  0  0  0  0  0  0  0  0
   -0.4712   -3.7170    1.7379 H   0  0  0  0  0  0  0  0  0  0  0  0
   -1.0706   -5.7029    0.3466 H   0  0  0  0  0  0  0  0  0  0  0  0
   -4.3264   -3.8142   -1.2652 H   0  0  0  0  0  0  0  0  0  0  0  0
   -5.8074    3.3901    1.2156 H   0  0  0  0  0  0  0  0  0  0  0  0
   -8.3990    0.2290    1.2239 H   0  0  0  0  0  0  0  0  0  0  0  0
   -1.6911   -1.6033   -1.7325 H   0  0  0  0  0  0  0  0  0  0  0  0
    0.7032   -1.5635   -1.9732 H   0  0  0  0  0  0  0  0  0  0  0  0
  1  2  1  0  0  0  0
  1 35  1  0  0  0  0
  1 36  1  0  0  0  0
  1 37  1  0  0  0  0
  2  3  1  0  0  0  0
  2 34  2  0  0  0  0
  3  4  2  0  0  0  0
  3 38  1  0  0  0  0
  4  5  1  0  0  0  0
  4 39  1  0  0  0  0
  5  6  1  0  0  0  0
  5 33  2  0  0  0  0
  6  7  1  0  0  0  0
  6 26  1  0  0  0  0
  7  8  1  0  0  0  0
  7 20  1  0  0  0  0
  7 40  1  0  0  0  0
  8  9  2  0  0  0  0
  8 10  1  0  0  0  0
 10 11  1  0  0  0  0
 10 41  1  0  0  0  0
 11 12  1  0  0  0  0
 11 42  1  0  0  0  0
 11 43  1  0  0  0  0
 12 13  1  0  0  0  0
 12 44  1  0  0  0  0
 12 45  1  0  0  0  0
 13 14  1  0  0  0  0
 13 19  2  0  0  0  0
 14 15  2  0  0  0  0
 14 46  1  0  0  0  0
 15 16  1  0  0  0  0
 15 47  1  0  0  0  0
 16 17  2  0  0  0  0
 16 48  1  0  0  0  0
 17 18  1  0  0  0  0
 17 19  1  0  0  0  0
 19 49  1  0  0  0  0
 20 21  1  0  0  0  0
 20 25  2  0  0  0  0
 21 22  2  0  0  0  0
 21 50  1  0  0  0  0
 22 23  1  0  0  0  0
 22 51  1  0  0  0  0
 23 24  2  0  0  0  0
 23 52  1  0  0  0  0
 24 25  1  0  0  0  0
 25 53  1  0  0  0  0
 26 27  2  0  0  0  0
 26 28  1  0  0  0  0
 28 29  2  0  0  0  0
 28 32  1  0  0  0  0
 29 30  1  0  0  0  0
 29 54  1  0  0  0  0
 30 31  1  0  0  0  0
 31 32  2  0  0  0  0
 31 55  1  0  0  0  0
 33 34  1  0  0  0  0
 33 56  1  0  0  0  0
 34 57  1  0  0  0  0
M  END
$$$$
