MODEL 1
REMARK VINA RESULT:    -5.665      0.000      0.000
REMARK INTER + INTRA:          -7.483
REMARK INTER:                  -7.321
REMARK INTRA:                  -0.163
REMARK UNBOUND:                -0.163
REMARK  5 active torsions:
REMARK  status: ('A' for Active; 'I' for Inactive)
REMARK    1  A    between atoms: N_2  and  C_4 
REMARK    2  A    between atoms: C_4  and  N_5 
REMARK    3  A    between atoms: N_5  and  C_7 
REMARK    4  A    between atoms: C_7  and  O_9 
REMARK       I    between atoms: N_10  and  C_12 
REMARK       I    between atoms: C_12  and  N_14 
REMARK    5  A    between atoms: N_14  and  C_16 
ROOT
HETATM    1  C   UNL     1      10.125  14.458   2.880  1.00  0.00     0.235 C 
HETATM    2  N   UNL     1       9.660  13.387   3.385  1.00  0.00    -0.274 N 
ATOM      3  HN  UNL     1      10.368  12.990   4.002  1.00  0.00     0.174 HD
HETATM    4  C   UNL     1       8.580  12.582   3.408  1.00  0.00     0.327 C 
HETATM    5  O   UNL     1       8.566  11.616   4.134  1.00  0.00    -0.247 OA
HETATM    6  N   UNL     1       7.530  12.947   2.572  1.00  0.00    -0.308 N 
ATOM      7  HN  UNL     1       7.492  13.820   2.047  1.00  0.00     0.170 HD
ENDROOT
BRANCH   1   8
HETATM    8  N   UNL     1       9.500  15.084   1.820  1.00  0.00    -0.273 N 
ATOM      9  HN  UNL     1       9.000  14.355   1.311  1.00  0.00     0.180 HD
BRANCH   8  10
HETATM   10  C   UNL     1       9.292  16.087   1.248  1.00  0.00     0.050 C 
BRANCH  10  11
HETATM   11  N   UNL     1       9.356  17.124   0.604  1.00  0.00    -0.347 N 
HETATM   12  C   UNL     1       9.447  18.525   0.840  1.00  0.00     0.157 C 
ATOM     13  HN  UNL     1       9.338  16.928  -0.397  1.00  0.00     0.170 HD
ENDBRANCH  10  11
ENDBRANCH   8  10
ENDBRANCH   1   8
BRANCH   1  14
HETATM   14  O   UNL     1      11.177  15.003   3.463  1.00  0.00    -0.326 OA
HETATM   15  C   UNL     1      10.926  15.435   4.808  1.00  0.00     0.213 C 
ENDBRANCH   1  14
BRANCH   6  16
HETATM   16  C   UNL     1       6.564  11.998   2.543  1.00  0.00     0.043 C 
HETATM   17  C   UNL     1       6.524  10.952   1.738  1.00  0.00     0.037 C 
HETATM   18  C   UNL     1       5.670  10.000   1.843  1.00  0.00     0.052 C 
HETATM   19  S   UNL     1       4.518  10.521   3.053  1.00  0.00    -0.111 SA
HETATM   20  C   UNL     1       5.435  11.837   3.395  1.00  0.00     0.079 C 
ENDBRANCH   6  16
TORSDOF 5
ENDMDL
MODEL 2
REMARK VINA RESULT:    -5.394     26.271     28.171
REMARK INTER + INTRA:          -7.134
REMARK INTER:                  -6.926
REMARK INTRA:                  -0.208
REMARK UNBOUND:                -0.163
REMARK  5 active torsions:
REMARK  status: ('A' for Active; 'I' for Inactive)
REMARK    1  A    between atoms: N_2  and  C_4 
REMARK    2  A    between atoms: C_4  and  N_5 
REMARK    3  A    between atoms: N_5  and  C_7 
REMARK    4  A    between atoms: C_7  and  O_9 
REMARK       I    between atoms: N_10  and  C_12 
REMARK       I    between atoms: C_12  and  N_14 
REMARK    5  A    between atoms: N_14  and  C_16 
ROOT
HETATM    1  C   UNL     1       7.867  -4.813  23.722  1.00  0.00     0.235 C 
HETATM    2  N   UNL     1       8.223  -3.788  23.059  1.00  0.00    -0.274 N 
ATOM      3  HN  UNL     1       7.927  -3.914  22.091  1.00  0.00     0.174 HD
HETATM    4  C   UNL     1       8.846  -2.597  23.158  1.00  0.00     0.327 C 
HETATM    5  O   UNL     1       8.915  -1.872  22.194  1.00  0.00    -0.247 OA
HETATM    6  N   UNL     1       9.368  -2.285  24.409  1.00  0.00    -0.308 N 
ATOM      7  HN  UNL     1       9.213  -2.840  25.250  1.00  0.00     0.170 HD
ENDROOT
BRANCH   1   8
HETATM    8  N   UNL     1       8.344  -5.046  24.997  1.00  0.00    -0.273 N 
ATOM      9  HN  UNL     1       9.362  -5.035  24.929  1.00  0.00     0.180 HD
BRANCH   8  10
HETATM   10  C   UNL     1       8.091  -5.250  26.124  1.00  0.00     0.050 C 
BRANCH  10  11
HETATM   11  N   UNL     1       7.878  -5.733  27.226  1.00  0.00    -0.347 N 
HETATM   12  C   UNL     1       6.798  -5.864  28.145  1.00  0.00     0.157 C 
ATOM     13  HN  UNL     1       8.721  -6.172  27.597  1.00  0.00     0.170 HD
ENDBRANCH  10  11
ENDBRANCH   8  10
ENDBRANCH   1   8
BRANCH   1  14
HETATM   14  O   UNL     1       6.955  -5.602  23.186  1.00  0.00    -0.326 OA
HETATM   15  C   UNL     1       7.106  -5.773  21.769  1.00  0.00     0.213 C 
ENDBRANCH   1  14
BRANCH   6  16
HETATM   16  C   UNL     1      10.110  -1.153  24.370  1.00  0.00     0.043 C 
HETATM   17  C   UNL     1       9.729   0.043  24.783  1.00  0.00     0.037 C 
HETATM   18  C   UNL     1      10.512   1.055  24.864  1.00  0.00     0.052 C 
HETATM   19  S   UNL     1      12.014   0.561  24.113  1.00  0.00    -0.111 SA
HETATM   20  C   UNL     1      11.466  -0.978  23.973  1.00  0.00     0.079 C 
ENDBRANCH   6  16
TORSDOF 5
ENDMDL
MODEL 3
REMARK VINA RESULT:    -5.208     22.730     24.419
REMARK INTER + INTRA:          -6.893
REMARK INTER:                  -6.714
REMARK INTRA:                  -0.178
REMARK UNBOUND:                -0.163
REMARK  5 active torsions:
REMARK  status: ('A' for Active; 'I' for Inactive)
REMARK    1  A    between atoms: N_2  and  C_4 
REMARK    2  A    between atoms: C_4  and  N_5 
REMARK    3  A    between atoms: N_5  and  C_7 
REMARK    4  A    between atoms: C_7  and  O_9 
REMARK       I    between atoms: N_10  and  C_12 
REMARK       I    between atoms: C_12  and  N_14 
REMARK    5  A    between atoms: N_14  and  C_16 
ROOT
HETATM    1  C   UNL     1      10.696  -1.287  22.856  1.00  0.00     0.235 C 
HETATM    2  N   UNL     1      10.346  -0.209  22.278  1.00  0.00    -0.274 N 
ATOM      3  HN  UNL     1      11.014   0.519  22.529  1.00  0.00     0.174 HD
HETATM    4  C   UNL     1       9.423   0.328  21.458  1.00  0.00     0.327 C 
HETATM    5  O   UNL     1       9.527   1.481  21.108  1.00  0.00    -0.247 OA
HETATM    6  N   UNL     1       8.395  -0.519  21.058  1.00  0.00    -0.308 N 
ATOM      7  HN  UNL     1       8.366  -1.519  21.257  1.00  0.00     0.170 HD
ENDROOT
BRANCH   1   8
HETATM    8  N   UNL     1       9.853  -2.380  22.909  1.00  0.00    -0.273 N 
ATOM      9  HN  UNL     1      10.096  -2.969  22.112  1.00  0.00     0.180 HD
BRANCH   8  10
HETATM   10  C   UNL     1       8.980  -2.929  23.470  1.00  0.00     0.050 C 
BRANCH  10  11
HETATM   11  N   UNL     1       8.102  -3.690  23.846  1.00  0.00    -0.347 N 
HETATM   12  C   UNL     1       7.559  -4.956  23.486  1.00  0.00     0.157 C 
ATOM     13  HN  UNL     1       7.615  -3.306  24.656  1.00  0.00     0.170 HD
ENDBRANCH  10  11
ENDBRANCH   8  10
ENDBRANCH   1   8
BRANCH   1  14
HETATM   14  O   UNL     1      11.928  -1.359  23.325  1.00  0.00    -0.326 OA
HETATM   15  C   UNL     1      12.275  -0.266  24.189  1.00  0.00     0.213 C 
ENDBRANCH   1  14
BRANCH   6  16
HETATM   16  C   UNL     1       7.436   0.149  20.373  1.00  0.00     0.043 C 
HETATM   17  C   UNL     1       7.300   0.187  19.060  1.00  0.00     0.037 C 
HETATM   18  C   UNL     1       6.295   0.710  18.460  1.00  0.00     0.052 C 
HETATM   19  S   UNL     1       5.359   1.515  19.702  1.00  0.00    -0.111 SA
HETATM   20  C   UNL     1       6.321   0.881  20.870  1.00  0.00     0.079 C 
ENDBRANCH   6  16
TORSDOF 5
ENDMDL
MODEL 4
REMARK VINA RESULT:    -5.113     23.778     25.529
REMARK INTER + INTRA:          -6.770
REMARK INTER:                  -6.601
REMARK INTRA:                  -0.169
REMARK UNBOUND:                -0.163
REMARK  5 active torsions:
REMARK  status: ('A' for Active; 'I' for Inactive)
REMARK    1  A    between atoms: N_2  and  C_4 
REMARK    2  A    between atoms: C_4  and  N_5 
REMARK    3  A    between atoms: N_5  and  C_7 
REMARK    4  A    between atoms: C_7  and  O_9 
REMARK       I    between atoms: N_10  and  C_12 
REMARK       I    between atoms: C_12  and  N_14 
REMARK    5  A    between atoms: N_14  and  C_16 
ROOT
HETATM    1  C   UNL     1       6.190  -3.019  21.844  1.00  0.00     0.235 C 
HETATM    2  N   UNL     1       7.107  -3.201  22.707  1.00  0.00    -0.274 N 
ATOM      3  HN  UNL     1       6.867  -4.023  23.261  1.00  0.00     0.174 HD
HETATM    4  C   UNL     1       8.277  -2.712  23.162  1.00  0.00     0.327 C 
HETATM    5  O   UNL     1       8.867  -3.289  24.044  1.00  0.00    -0.247 OA
HETATM    6  N   UNL     1       8.729  -1.547  22.551  1.00  0.00    -0.308 N 
ATOM      7  HN  UNL     1       8.294  -1.123  21.732  1.00  0.00     0.170 HD
ENDROOT
BRANCH   1   8
HETATM    8  N   UNL     1       6.108  -1.847  21.119  1.00  0.00    -0.273 N 
ATOM      9  HN  UNL     1       6.572  -1.131  21.677  1.00  0.00     0.180 HD
BRANCH   8  10
HETATM   10  C   UNL     1       5.737  -1.314  20.141  1.00  0.00     0.050 C 
BRANCH  10  11
HETATM   11  N   UNL     1       5.543  -0.929  18.998  1.00  0.00    -0.347 N 
HETATM   12  C   UNL     1       5.638   0.276  18.246  1.00  0.00     0.157 C 
ATOM     13  HN  UNL     1       5.216  -1.695  18.410  1.00  0.00     0.170 HD
ENDBRANCH  10  11
ENDBRANCH   8  10
ENDBRANCH   1   8
BRANCH   1  14
HETATM   14  O   UNL     1       5.371  -4.026  21.600  1.00  0.00    -0.326 OA
HETATM   15  C   UNL     1       6.042  -5.286  21.456  1.00  0.00     0.213 C 
ENDBRANCH   1  14
BRANCH   6  16
HETATM   16  C   UNL     1       9.820  -1.047  23.179  1.00  0.00     0.043 C 
HETATM   17  C   UNL     1       9.816  -0.262  24.241  1.00  0.00     0.037 C 
HETATM   18  C   UNL     1      10.871   0.068  24.891  1.00  0.00     0.052 C 
HETATM   19  S   UNL     1      12.221  -0.522  23.947  1.00  0.00    -0.111 SA
HETATM   20  C   UNL     1      11.198  -1.297  22.924  1.00  0.00     0.079 C 
ENDBRANCH   6  16
TORSDOF 5
ENDMDL
MODEL 5
REMARK VINA RESULT:    -4.986     23.217     24.627
REMARK INTER + INTRA:          -6.606
REMARK INTER:                  -6.443
REMARK INTRA:                  -0.163
REMARK UNBOUND:                -0.163
REMARK  5 active torsions:
REMARK  status: ('A' for Active; 'I' for Inactive)
REMARK    1  A    between atoms: N_2  and  C_4 
REMARK    2  A    between atoms: C_4  and  N_5 
REMARK    3  A    between atoms: N_5  and  C_7 
REMARK    4  A    between atoms: C_7  and  O_9 
REMARK       I    between atoms: N_10  and  C_12 
REMARK       I    between atoms: C_12  and  N_14 
REMARK    5  A    between atoms: N_14  and  C_16 
ROOT
HETATM    1  C   UNL     1       9.226  -0.016  21.319  1.00  0.00     0.235 C 
HETATM    2  N   UNL     1       9.405  -1.007  22.096  1.00  0.00    -0.274 N 
ATOM      3  HN  UNL     1      10.364  -0.972  22.442  1.00  0.00     0.174 HD
HETATM    4  C   UNL     1       8.800  -2.084  22.633  1.00  0.00     0.327 C 
HETATM    5  O   UNL     1       9.395  -2.774  23.427  1.00  0.00    -0.247 OA
HETATM    6  N   UNL     1       7.492  -2.317  22.222  1.00  0.00    -0.308 N 
ATOM      7  HN  UNL     1       6.950  -1.676  21.643  1.00  0.00     0.170 HD
ENDROOT
BRANCH   1   8
HETATM    8  N   UNL     1       8.112   0.068  20.506  1.00  0.00    -0.273 N 
ATOM      9  HN  UNL     1       7.311   0.179  21.128  1.00  0.00     0.180 HD
BRANCH   8  10
HETATM   10  C   UNL     1       7.684   0.068  19.414  1.00  0.00     0.050 C 
BRANCH  10  11
HETATM   11  N   UNL     1       7.031   0.223  18.393  1.00  0.00    -0.347 N 
HETATM   12  C   UNL     1       5.665   0.244  17.991  1.00  0.00     0.157 C 
ATOM     13  HN  UNL     1       7.644   0.384  17.594  1.00  0.00     0.170 HD
ENDBRANCH  10  11
ENDBRANCH   8  10
ENDBRANCH   1   8
BRANCH   1  14
HETATM   14  O   UNL     1      10.095   0.976  21.381  1.00  0.00    -0.326 OA
HETATM   15  C   UNL     1      10.680   1.144  22.680  1.00  0.00     0.213 C 
ENDBRANCH   1  14
BRANCH   6  16
HETATM   16  C   UNL     1       7.028  -3.502  22.685  1.00  0.00     0.043 C 
HETATM   17  C   UNL     1       7.156  -4.675  22.093  1.00  0.00     0.037 C 
HETATM   18  C   UNL     1       6.831  -5.790  22.635  1.00  0.00     0.052 C 
HETATM   19  S   UNL     1       6.012  -5.378  24.126  1.00  0.00    -0.111 SA
HETATM   20  C   UNL     1       6.386  -3.794  23.923  1.00  0.00     0.079 C 
ENDBRANCH   6  16
TORSDOF 5
ENDMDL
MODEL 6
REMARK VINA RESULT:    -4.878     24.116     25.583
REMARK INTER + INTRA:          -6.466
REMARK INTER:                  -6.281
REMARK INTRA:                  -0.185
REMARK UNBOUND:                -0.163
REMARK  5 active torsions:
REMARK  status: ('A' for Active; 'I' for Inactive)
REMARK    1  A    between atoms: N_2  and  C_4 
REMARK    2  A    between atoms: C_4  and  N_5 
REMARK    3  A    between atoms: N_5  and  C_7 
REMARK    4  A    between atoms: C_7  and  O_9 
REMARK       I    between atoms: N_10  and  C_12 
REMARK       I    between atoms: C_12  and  N_14 
REMARK    5  A    between atoms: N_14  and  C_16 
ROOT
HETATM    1  C   UNL     1       9.267  -0.557  21.805  1.00  0.00     0.235 C 
HETATM    2  N   UNL     1       8.094  -1.028  21.659  1.00  0.00    -0.274 N 
ATOM      3  HN  UNL     1       7.489  -0.280  21.320  1.00  0.00     0.174 HD
HETATM    4  C   UNL     1       7.353  -2.146  21.785  1.00  0.00     0.327 C 
HETATM    5  O   UNL     1       6.191  -2.137  21.455  1.00  0.00    -0.247 OA
HETATM    6  N   UNL     1       8.013  -3.260  22.294  1.00  0.00    -0.308 N 
ATOM      7  HN  UNL     1       9.017  -3.303  22.465  1.00  0.00     0.170 HD
ENDROOT
BRANCH   1   8
HETATM    8  N   UNL     1      10.244  -1.259  22.484  1.00  0.00    -0.273 N 
ATOM      9  HN  UNL     1       9.772  -2.042  22.936  1.00  0.00     0.180 HD
BRANCH   8  10
HETATM   10  C   UNL     1      11.379  -1.349  22.767  1.00  0.00     0.050 C 
BRANCH  10  11
HETATM   11  N   UNL     1      12.486  -1.271  23.277  1.00  0.00    -0.347 N 
HETATM   12  C   UNL     1      13.168  -0.470  24.236  1.00  0.00     0.157 C 
ATOM     13  HN  UNL     1      13.105  -1.993  22.907  1.00  0.00     0.170 HD
ENDBRANCH  10  11
ENDBRANCH   8  10
ENDBRANCH   1   8
BRANCH   1  14
HETATM   14  O   UNL     1       9.547   0.586  21.208  1.00  0.00    -0.326 OA
HETATM   15  C   UNL     1       8.984   1.730  21.869  1.00  0.00     0.213 C 
ENDBRANCH   1  14
BRANCH   6  16
HETATM   16  C   UNL     1       7.155  -4.280  22.534  1.00  0.00     0.043 C 
HETATM   17  C   UNL     1       7.015  -5.370  21.802  1.00  0.00     0.037 C 
HETATM   18  C   UNL     1       6.297  -6.375  22.145  1.00  0.00     0.052 C 
HETATM   19  S   UNL     1       5.426  -5.876  23.578  1.00  0.00    -0.111 SA
HETATM   20  C   UNL     1       6.279  -4.477  23.639  1.00  0.00     0.079 C 
ENDBRANCH   6  16
TORSDOF 5
ENDMDL
MODEL 7
REMARK VINA RESULT:    -4.720     22.180     23.267
REMARK INTER + INTRA:          -6.263
REMARK INTER:                  -6.123
REMARK INTRA:                  -0.139
REMARK UNBOUND:                -0.163
REMARK  5 active torsions:
REMARK  status: ('A' for Active; 'I' for Inactive)
REMARK    1  A    between atoms: N_2  and  C_4 
REMARK    2  A    between atoms: C_4  and  N_5 
REMARK    3  A    between atoms: N_5  and  C_7 
REMARK    4  A    between atoms: C_7  and  O_9 
REMARK       I    between atoms: N_10  and  C_12 
REMARK       I    between atoms: C_12  and  N_14 
REMARK    5  A    between atoms: N_14  and  C_16 
ROOT
HETATM    1  C   UNL     1      10.643   0.503  23.352  1.00  0.00     0.235 C 
HETATM    2  N   UNL     1       9.752  -0.255  22.852  1.00  0.00    -0.274 N 
ATOM      3  HN  UNL     1       9.908  -1.202  23.198  1.00  0.00     0.174 HD
HETATM    4  C   UNL     1       8.680  -0.274  22.037  1.00  0.00     0.327 C 
HETATM    5  O   UNL     1       8.061  -1.300  21.881  1.00  0.00    -0.247 OA
HETATM    6  N   UNL     1       8.357   0.934  21.428  1.00  0.00    -0.308 N 
ATOM      7  HN  UNL     1       8.804   1.824  21.645  1.00  0.00     0.170 HD
ENDROOT
BRANCH   1   8
HETATM    8  N   UNL     1      10.845   1.784  22.877  1.00  0.00    -0.273 N 
ATOM      9  HN  UNL     1      11.018   1.696  21.876  1.00  0.00     0.180 HD
BRANCH   8  10
HETATM   10  C   UNL     1      10.904   2.931  23.121  1.00  0.00     0.050 C 
BRANCH  10  11
HETATM   11  N   UNL     1      11.220   4.103  23.252  1.00  0.00    -0.347 N 
HETATM   12  C   UNL     1      12.382   4.871  23.551  1.00  0.00     0.157 C 
ATOM     13  HN  UNL     1      10.415   4.713  23.105  1.00  0.00     0.170 HD
ENDBRANCH  10  11
ENDBRANCH   8  10
ENDBRANCH   1   8
BRANCH   1  14
HETATM   14  O   UNL     1      11.309   0.058  24.400  1.00  0.00    -0.326 OA
HETATM   15  C   UNL     1      12.635  -0.394  24.087  1.00  0.00     0.213 C 
ENDBRANCH   1  14
BRANCH   6  16
HETATM   16  C   UNL     1       7.373   0.780  20.510  1.00  0.00     0.043 C 
HETATM   17  C   UNL     1       6.145   1.258  20.596  1.00  0.00     0.037 C 
HETATM   18  C   UNL     1       5.291   1.214  19.640  1.00  0.00     0.052 C 
HETATM   19  S   UNL     1       6.016   0.222  18.394  1.00  0.00    -0.111 SA
HETATM   20  C   UNL     1       7.428   0.165  19.226  1.00  0.00     0.079 C 
ENDBRANCH   6  16
TORSDOF 5
ENDMDL
MODEL 8
REMARK VINA RESULT:    -4.692     25.506     26.985
REMARK INTER + INTRA:          -6.226
REMARK INTER:                  -6.112
REMARK INTRA:                  -0.114
REMARK UNBOUND:                -0.163
REMARK  5 active torsions:
REMARK  status: ('A' for Active; 'I' for Inactive)
REMARK    1  A    between atoms: N_2  and  C_4 
REMARK    2  A    between atoms: C_4  and  N_5 
REMARK    3  A    between atoms: N_5  and  C_7 
REMARK    4  A    between atoms: C_7  and  O_9 
REMARK       I    between atoms: N_10  and  C_12 
REMARK       I    between atoms: C_12  and  N_14 
REMARK    5  A    between atoms: N_14  and  C_16 
ROOT
HETATM    1  C   UNL     1       8.549  -2.336  22.415  1.00  0.00     0.235 C 
HETATM    2  N   UNL     1       8.615  -3.426  23.067  1.00  0.00    -0.274 N 
ATOM      3  HN  UNL     1       9.553  -3.810  22.955  1.00  0.00     0.174 HD
HETATM    4  C   UNL     1       7.907  -4.263  23.850  1.00  0.00     0.327 C 
HETATM    5  O   UNL     1       8.440  -5.237  24.325  1.00  0.00    -0.247 OA
HETATM    6  N   UNL     1       6.576  -3.918  24.063  1.00  0.00    -0.308 N 
ATOM      7  HN  UNL     1       6.155  -3.040  23.760  1.00  0.00     0.170 HD
ENDROOT
BRANCH   1   8
HETATM    8  N   UNL     1       7.340  -1.716  22.171  1.00  0.00    -0.273 N 
ATOM      9  HN  UNL     1       7.135  -1.152  22.996  1.00  0.00     0.180 HD
BRANCH   8  10
HETATM   10  C   UNL     1       6.444  -1.553  21.430  1.00  0.00     0.050 C 
BRANCH  10  11
HETATM   11  N   UNL     1       5.717  -1.300  20.482  1.00  0.00    -0.347 N 
HETATM   12  C   UNL     1       5.670  -0.397  19.382  1.00  0.00     0.157 C 
ATOM     13  HN  UNL     1       4.905  -1.918  20.475  1.00  0.00     0.170 HD
ENDBRANCH  10  11
ENDBRANCH   8  10
ENDBRANCH   1   8
BRANCH   1  14
HETATM   14  O   UNL     1       9.686  -1.768  22.055  1.00  0.00    -0.326 OA
HETATM   15  C   UNL     1      10.636  -1.662  23.125  1.00  0.00     0.213 C 
ENDBRANCH   1  14
BRANCH   6  16
HETATM   16  C   UNL     1       5.909  -4.894  24.723  1.00  0.00     0.043 C 
HETATM   17  C   UNL     1       5.182  -5.850  24.174  1.00  0.00     0.037 C 
HETATM   18  C   UNL     1       4.689  -6.838  24.825  1.00  0.00     0.052 C 
HETATM   19  S   UNL     1       4.981  -6.493  26.516  1.00  0.00    -0.111 SA
HETATM   20  C   UNL     1       5.889  -5.187  26.117  1.00  0.00     0.079 C 
ENDBRANCH   6  16
TORSDOF 5
ENDMDL
MODEL 9
REMARK VINA RESULT:    -4.659     23.506     24.973
REMARK INTER + INTRA:          -6.184
REMARK INTER:                  -5.988
REMARK INTRA:                  -0.195
REMARK UNBOUND:                -0.163
REMARK  5 active torsions:
REMARK  status: ('A' for Active; 'I' for Inactive)
REMARK    1  A    between atoms: N_2  and  C_4 
REMARK    2  A    between atoms: C_4  and  N_5 
REMARK    3  A    between atoms: N_5  and  C_7 
REMARK    4  A    between atoms: C_7  and  O_9 
REMARK       I    between atoms: N_10  and  C_12 
REMARK       I    between atoms: C_12  and  N_14 
REMARK    5  A    between atoms: N_14  and  C_16 
ROOT
HETATM    1  C   UNL     1       8.208   0.030  20.670  1.00  0.00     0.235 C 
HETATM    2  N   UNL     1       7.418  -0.865  21.110  1.00  0.00    -0.274 N 
ATOM      3  HN  UNL     1       6.567  -0.845  20.548  1.00  0.00     0.174 HD
HETATM    4  C   UNL     1       7.286  -1.829  22.042  1.00  0.00     0.327 C 
HETATM    5  O   UNL     1       6.296  -2.522  22.054  1.00  0.00    -0.247 OA
HETATM    6  N   UNL     1       8.341  -1.958  22.939  1.00  0.00    -0.308 N 
ATOM      7  HN  UNL     1       9.225  -1.455  22.862  1.00  0.00     0.170 HD
ENDROOT
BRANCH   1   8
HETATM    8  N   UNL     1       9.329   0.410  21.381  1.00  0.00    -0.273 N 
ATOM      9  HN  UNL     1       9.702  -0.439  21.806  1.00  0.00     0.180 HD
BRANCH   8  10
HETATM   10  C   UNL     1      10.042   1.283  21.709  1.00  0.00     0.050 C 
BRANCH  10  11
HETATM   11  N   UNL     1      10.540   2.317  22.128  1.00  0.00    -0.347 N 
HETATM   12  C   UNL     1      11.064   2.835  23.346  1.00  0.00     0.157 C 
ATOM     13  HN  UNL     1      10.597   3.015  21.386  1.00  0.00     0.170 HD
ENDBRANCH  10  11
ENDBRANCH   8  10
ENDBRANCH   1   8
BRANCH   1  14
HETATM   14  O   UNL     1       7.970   0.519  19.468  1.00  0.00    -0.326 OA
HETATM   15  C   UNL     1       6.812  -0.049  18.838  1.00  0.00     0.213 C 
ENDBRANCH   1  14
BRANCH   6  16
HETATM   16  C   UNL     1       8.049  -2.836  23.928  1.00  0.00     0.043 C 
HETATM   17  C   UNL     1       8.331  -4.126  23.934  1.00  0.00     0.037 C 
HETATM   18  C   UNL     1       8.168  -4.890  24.951  1.00  0.00     0.052 C 
HETATM   19  S   UNL     1       7.314  -3.930  26.140  1.00  0.00    -0.111 SA
HETATM   20  C   UNL     1       7.466  -2.592  25.204  1.00  0.00     0.079 C 
ENDBRANCH   6  16
TORSDOF 5
ENDMDL
