stable:False satoms:8 tatoms:24 sratio:0.3333333333333333
  -OEChem-08062413053D

 40 42  0     1  0  0  0  0  0999 V2000
    6.5103   -5.4082   25.9771 C   0  0  0  0  0  0  0  0  0  0  0  0
    8.0518   -4.8291   25.8365 S   0  0  0  0  0  0  0  0  0  0  0  0
    8.9591   -5.9499   25.7441 O   0  0  0  0  0  0  0  0  0  0  0  0
    8.3635   -3.9763   26.9567 O   0  0  0  0  0  0  0  0  0  0  0  0
    8.0903   -3.9749   24.4363 N   0  0  0  0  0  0  0  0  0  0  0  0
    8.9482   -3.2798   24.0333 C   0  0  0  0  0  0  0  0  0  0  0  0
    9.5086   -2.2765   23.5196 C   0  0  0  0  0  0  0  0  0  0  0  0
   10.4897   -1.3729   23.4157 C   0  0  1  0  0  0  0  0  0  0  0  0
   11.0940   -0.3271   24.5474 C   0  0  0  0  0  0  0  0  0  0  0  0
   12.0820    0.0390   24.6934 C   0  0  0  0  0  0  0  0  0  0  0  0
   13.2986   -0.4821   23.9335 C   0  0  0  0  0  0  0  0  0  0  0  0
   12.9371   -1.4326   23.1020 C   0  0  0  0  0  0  0  0  0  0  0  0
   11.9866   -1.8978   22.8430 C   0  0  0  0  0  0  0  0  0  0  0  0
    9.8482   -0.8586   22.5322 C   0  0  3  0  0  0  0  0  0  0  0  0
    9.2807   -0.1630   21.5187 C   0  0  0  0  0  0  0  0  0  0  0  0
    9.8503    0.8116   21.2698 O   0  0  0  0  0  0  0  0  0  0  0  0
    8.1896   -0.7550   21.0688 N   0  0  0  0  0  0  0  0  0  0  0  0
    7.5451   -0.2189   20.1512 C   0  0  0  0  0  0  0  0  0  0  0  0
    7.6266   -0.0067   18.8598 C   0  0  0  0  0  0  0  0  0  0  0  0
    7.2327    0.3268   17.7279 N   0  0  0  0  0  0  0  0  0  0  0  0
    6.1454    0.8848   18.1743 C   0  0  0  0  0  0  0  0  0  0  0  0
    5.6524    0.8891   19.3309 C   0  0  0  0  0  0  0  0  0  0  0  0
    6.0744    0.4064   20.4587 C   0  0  0  0  0  0  0  0  0  0  0  0
    5.4305    0.3419   21.8556 Cl  0  0  0  0  0  0  0  0  0  0  0  0
    6.4212   -5.9940   26.9038 H   0  0  0  0  0  0  0  0  0  0  0  0
    5.8036   -4.5658   26.0066 H   0  0  0  0  0  0  0  0  0  0  0  0
    6.2798   -6.0502   25.1141 H   0  0  0  0  0  0  0  0  0  0  0  0
    7.2853   -3.3832   24.4794 H   0  0  0  0  0  0  0  0  0  0  0  0
    9.8089   -3.9016   24.2306 H   0  0  0  0  0  0  0  0  0  0  0  0
   10.3659    0.0444   25.2532 H   0  0  0  0  0  0  0  0  0  0  0  0
   12.2326    0.8236   25.4202 H   0  0  0  0  0  0  0  0  0  0  0  0
   14.3088   -0.1221   24.0608 H   0  0  0  0  0  0  0  0  0  0  0  0
   13.7692   -1.8458   22.5514 H   0  0  0  0  0  0  0  0  0  0  0  0
   11.9199   -1.8477   21.7462 H   0  0  0  0  0  0  0  0  0  0  0  0
   12.0739   -2.9483   23.1574 H   0  0  0  0  0  0  0  0  0  0  0  0
    9.3366   -0.2188   23.2663 H   0  0  0  0  0  0  0  0  0  0  0  0
    7.8859   -1.6232   21.4611 H   0  0  0  0  0  0  0  0  0  0  0  0
    8.6481   -0.2934   18.6575 H   0  0  0  0  0  0  0  0  0  0  0  0
    5.5771    1.4300   17.4352 H   0  0  0  0  0  0  0  0  0  0  0  0
    4.6974    1.3889   19.3982 H   0  0  0  0  0  0  0  0  0  0  0  0
 20 21  2  0  0  0  0
 19 20  1  0  0  0  0
 21 22  1  0  0  0  0
 18 19  2  0  0  0  0
 22 23  2  0  0  0  0
 18 23  1  0  0  0  0
 17 18  1  0  0  0  0
 23 24  1  0  0  0  0
 15 16  2  0  0  0  0
 15 17  1  0  0  0  0
 14 15  1  0  0  0  0
  8 14  1  0  0  0  0
  7 14  1  0  0  0  0
 12 13  1  0  0  0  0
  8 13  1  0  0  0  0
 11 12  2  0  0  0  0
  7  8  1  0  0  0  0
  8  9  1  0  0  0  0
 10 11  1  0  0  0  0
  6  7  2  3  0  0  0
  5  6  1  0  0  0  0
  9 10  2  0  0  0  0
  2  5  1  0  0  0  0
  2  3  2  0  0  0  0
  1  2  1  0  0  0  0
  2  4  2  0  0  0  0
  1 25  1  0  0  0  0
  1 26  1  0  0  0  0
  1 27  1  0  0  0  0
  5 28  1  0  0  0  0
  6 29  1  0  0  0  0
  9 30  1  0  0  0  0
 10 31  1  0  0  0  0
 11 32  1  0  0  0  0
 12 33  1  0  0  0  0
 13 34  1  0  0  0  0
 13 35  1  0  0  0  0
 14 36  1  0  0  0  0
 17 37  1  0  0  0  0
 19 38  1  0  0  0  0
 21 39  1  0  0  0  0
 22 40  1  0  0  0  0
M  END
> <Chemgauss4>
-13.553809

$$$$
