stable:False satoms:10 tatoms:24 sratio:0.4166666666666667
  -OEChem-07092417413D

 24 23  0     0  0  0  0  0  0999 V2000
    6.5976   -4.9718   26.6303 O   0  0  0  0  0  0  0  0  0  0  0  0
    8.1976   -4.4006   26.2277 S   0  0  0  0  0  0  0  0  0  0  0  0
    9.0826   -5.5338   26.1591 O   0  0  0  0  0  0  0  0  0  0  0  0
    8.5901   -3.4512   27.1998 O   0  5  0  0  0  0  0  0  0  0  0  0
    8.1079   -3.7264   24.7402 N   0  0  0  0  0  0  0  0  0  0  0  0
    8.9002   -2.9114   24.3135 C   0  0  0  0  0  0  0  0  0  0  0  0
    9.4432   -2.0446   23.8366 C   0  0  0  0  0  0  0  0  0  0  0  0
   10.1070   -0.9585   23.3863 C   0  0  0  0  0  0  0  0  0  0  0  0
   10.9800   -0.1627   24.1599 C   0  0  0  0  0  0  0  0  0  0  0  0
   12.0607    0.1807   24.2227 C   0  0  0  0  0  0  0  0  0  0  0  0
   13.0119   -0.2744   23.4036 C   0  0  0  0  0  0  0  0  0  0  0  0
   12.7833   -1.1272   22.6880 C   0  5  0  0  0  0  0  0  0  0  0  0
   12.3026   -1.8328   22.2557 H   0  0  0  0  0  0  0  0  0  0  0  0
    9.8593   -0.4383   22.2715 C   0  0  0  0  0  0  0  0  0  0  0  0
    9.1070    0.1909   21.3910 C   0  0  0  0  0  0  0  0  0  0  0  0
    9.4719    1.2780   20.9605 O   0  0  0  0  0  0  0  0  0  0  0  0
    7.9359   -0.4535   21.1252 N   0  0  0  0  0  0  0  0  0  0  0  0
    7.0951    0.0354   20.2143 C   0  0  0  0  0  0  0  0  0  0  0  0
    7.1321    0.0932   18.7616 C   0  0  0  0  0  0  0  0  0  0  0  0
    7.1589    0.2092   17.6407 N   0  0  0  0  0  0  0  0  0  0  0  0
    4.9920    1.0115   18.2850 O   0  0  0  0  0  0  0  0  0  0  0  0
    5.3088    0.8366   19.3123 C   0  0  0  0  0  0  0  0  0  0  0  0
    5.8775    0.5304   20.5377 C   0  0  0  0  0  0  0  0  0  0  0  0
    5.4809    0.6314   21.5734 H   0  0  0  0  0  0  0  0  0  0  0  0
 19 20  3  0  0  0  0
 21 22  1  0  0  0  0
 18 19  1  0  0  0  0
 22 23  1  0  0  0  0
 18 23  2  0  0  0  0
 17 18  1  0  0  0  0
 23 24  1  0  0  0  0
 15 16  2  0  0  0  0
 15 17  1  0  0  0  0
 14 15  1  0  0  0  0
 12 13  1  0  0  0  0
  8 14  2  3  0  0  0
 11 12  2  0  0  0  0
  7  8  1  0  0  0  0
  8  9  1  0  0  0  0
 10 11  1  0  0  0  0
  6  7  3  0  0  0  0
  9 10  2  0  0  0  0
  5  6  1  0  0  0  0
  2  5  1  0  0  0  0
  2  3  2  0  0  0  0
  1  2  2  0  0  0  0
  2  4  1  0  0  0  0
M  CHG  2   4  -1  12  -1
M  END
> <Shapegauss>
-260.154510

$$$$
