stable:False satoms:10 tatoms:24 sratio:0.4166666666666667
  -OEChem-08062411303D

 34 33  0     0  0  0  0  0  0999 V2000
   -6.5784   -5.6630  -26.1703 O   0  0  0  0  0  0  0  0  0  0  0  0
   -8.1762   -4.9873  -25.9732 S   0  0  0  0  0  0  0  0  0  0  0  0
   -9.1250   -6.0684  -25.9178 O   0  0  0  0  0  0  0  0  0  0  0  0
   -8.4181   -4.0944  -27.0431 O   0  5  0  0  0  0  0  0  0  0  0  0
   -8.1962   -4.2103  -24.5341 N   0  0  0  0  0  0  0  0  0  0  0  0
   -8.9803   -3.3289  -24.2474 C   0  0  0  0  0  0  0  0  0  0  0  0
   -9.5188   -2.4041  -23.8889 C   0  0  0  0  0  0  0  0  0  0  0  0
  -10.1626   -1.2571  -23.5843 C   0  0  0  0  0  0  0  0  0  0  0  0
  -10.9099   -0.4794  -24.4957 C   0  0  0  0  0  0  0  0  0  0  0  0
  -11.9585   -0.0899  -24.6919 C   0  0  0  0  0  0  0  0  0  0  0  0
  -13.0094   -0.4371  -23.9449 C   0  0  0  0  0  0  0  0  0  0  0  0
  -12.8998   -1.2448  -23.1529 C   0  0  0  0  0  0  0  0  0  0  0  0
  -11.9466   -1.7305  -23.0053 H   0  0  0  0  0  0  0  0  0  0  0  0
   -9.9974   -0.6686  -22.4883 C   0  0  0  0  0  0  0  0  0  0  0  0
   -9.3017   -0.0131  -21.5808 C   0  0  0  0  0  0  0  0  0  0  0  0
   -9.6465    1.1191  -21.2654 O   0  0  0  0  0  0  0  0  0  0  0  0
   -8.1999   -0.6918  -21.1533 N   0  0  0  0  0  0  0  0  0  0  0  0
   -7.4270   -0.1781  -20.1970 C   0  0  0  0  0  0  0  0  0  0  0  0
   -7.6035   -0.0115  -18.7631 C   0  0  0  0  0  0  0  0  0  0  0  0
   -7.7340    0.1880  -17.6614 N   0  0  0  0  0  0  0  0  0  0  0  0
   -5.4732    0.8353  -18.1346 O   0  0  0  0  0  0  0  0  0  0  0  0
   -5.6966    0.6006  -19.1745 C   0  0  0  0  0  0  0  0  0  0  0  0
   -6.1580    0.2325  -20.4276 C   0  0  0  0  0  0  0  0  0  0  0  0
   -5.6565    0.2377  -21.4219 H   0  0  0  0  0  0  0  0  0  0  0  0
   -7.2867   -3.8074  -24.4314 H   0  0  0  0  0  0  0  0  0  0  0  0
  -10.2546   -0.1339  -25.2816 H   0  0  0  0  0  0  0  0  0  0  0  0
  -12.1121    0.5896  -25.5171 H   0  0  0  0  0  0  0  0  0  0  0  0
  -13.9623    0.0491  -24.0931 H   0  0  0  0  0  0  0  0  0  0  0  0
  -13.7489   -1.5266  -22.5479 H   0  0  0  0  0  0  0  0  0  0  0  0
  -10.9740   -0.7385  -22.0327 H   0  0  0  0  0  0  0  0  0  0  0  0
   -7.9709   -1.5771  -21.5581 H   0  0  0  0  0  0  0  0  0  0  0  0
   -4.6090    1.2256  -18.0762 H   0  0  0  0  0  0  0  0  0  0  0  0
   -5.5019    1.6337  -19.4982 H   0  0  0  0  0  0  0  0  0  0  0  0
   -4.7798    0.0028  -19.2851 H   0  0  0  0  0  0  0  0  0  0  0  0
 19 20  3  0  0  0  0
 21 22  1  0  0  0  0
 18 19  1  0  0  0  0
 22 23  1  0  0  0  0
 18 23  2  0  0  0  0
 17 18  1  0  0  0  0
 23 24  1  0  0  0  0
 15 16  2  0  0  0  0
 15 17  1  0  0  0  0
 14 15  1  0  0  0  0
 12 13  1  0  0  0  0
  8 14  2  3  0  0  0
 11 12  2  0  0  0  0
  7  8  1  0  0  0  0
  8  9  1  0  0  0  0
 10 11  1  0  0  0  0
  6  7  3  0  0  0  0
  9 10  2  0  0  0  0
  5  6  1  0  0  0  0
  2  5  1  0  0  0  0
  2  3  2  0  0  0  0
  1  2  2  0  0  0  0
  2  4  1  0  0  0  0
  5 25  1  0  0  0  0
  9 26  1  0  0  0  0
 10 27  1  0  0  0  0
 11 28  1  0  0  0  0
 12 29  1  0  0  0  0
 14 30  1  0  0  0  0
 17 31  1  0  0  0  0
 21 32  1  0  0  0  0
 22 33  1  0  0  0  0
 22 34  1  0  0  0  0
M  CHG  1   4  -1
M  END
> <Chemgauss4>
-9.364471

$$$$
