stable:False satoms:10 tatoms:24 sratio:0.4166666666666667
  -OEChem-08062411303D

 34 33  0     0  0  0  0  0  0999 V2000
    6.4921   -5.7088   26.1464 O   0  0  0  0  0  0  0  0  0  0  0  0
    8.0899   -5.0331   25.9494 S   0  0  0  0  0  0  0  0  0  0  0  0
    9.0386   -6.1142   25.8939 O   0  0  0  0  0  0  0  0  0  0  0  0
    8.3317   -4.1402   27.0192 O   0  5  0  0  0  0  0  0  0  0  0  0
    8.1098   -4.2561   24.5102 N   0  0  0  0  0  0  0  0  0  0  0  0
    8.8939   -3.3746   24.2235 C   0  0  0  0  0  0  0  0  0  0  0  0
    9.4324   -2.4499   23.8651 C   0  0  0  0  0  0  0  0  0  0  0  0
   10.0762   -1.3028   23.5604 C   0  0  0  0  0  0  0  0  0  0  0  0
   10.8235   -0.5252   24.4718 C   0  0  0  0  0  0  0  0  0  0  0  0
   11.8721   -0.1357   24.6680 C   0  0  0  0  0  0  0  0  0  0  0  0
   12.9230   -0.4828   23.9210 C   0  0  0  0  0  0  0  0  0  0  0  0
   12.8135   -1.2905   23.1290 C   0  0  0  0  0  0  0  0  0  0  0  0
   11.8602   -1.7763   22.9814 H   0  0  0  0  0  0  0  0  0  0  0  0
    9.9110   -0.7143   22.4644 C   0  0  0  0  0  0  0  0  0  0  0  0
    9.2153   -0.0589   21.5570 C   0  0  0  0  0  0  0  0  0  0  0  0
    9.5601    1.0733   21.2415 O   0  0  0  0  0  0  0  0  0  0  0  0
    8.1135   -0.7375   21.1295 N   0  0  0  0  0  0  0  0  0  0  0  0
    7.3407   -0.2238   20.1732 C   0  0  0  0  0  0  0  0  0  0  0  0
    7.5171   -0.0573   18.7392 C   0  0  0  0  0  0  0  0  0  0  0  0
    7.6476    0.1422   17.6375 N   0  0  0  0  0  0  0  0  0  0  0  0
    5.3868    0.7895   18.1107 O   0  0  0  0  0  0  0  0  0  0  0  0
    5.6102    0.5548   19.1506 C   0  0  0  0  0  0  0  0  0  0  0  0
    6.0716    0.1868   20.4038 C   0  0  0  0  0  0  0  0  0  0  0  0
    5.5701    0.1919   21.3980 H   0  0  0  0  0  0  0  0  0  0  0  0
    7.2003   -3.8532   24.4076 H   0  0  0  0  0  0  0  0  0  0  0  0
   10.1683   -0.1797   25.2577 H   0  0  0  0  0  0  0  0  0  0  0  0
   12.0258    0.5438   25.4932 H   0  0  0  0  0  0  0  0  0  0  0  0
   13.8759    0.0034   24.0692 H   0  0  0  0  0  0  0  0  0  0  0  0
   13.6626   -1.5723   22.5241 H   0  0  0  0  0  0  0  0  0  0  0  0
   10.8877   -0.7843   22.0088 H   0  0  0  0  0  0  0  0  0  0  0  0
    7.8846   -1.6228   21.5342 H   0  0  0  0  0  0  0  0  0  0  0  0
    4.5227    1.1798   18.0523 H   0  0  0  0  0  0  0  0  0  0  0  0
    5.4156    1.5879   19.4743 H   0  0  0  0  0  0  0  0  0  0  0  0
    4.6935   -0.0430   19.2613 H   0  0  0  0  0  0  0  0  0  0  0  0
 19 20  3  0  0  0  0
 21 22  1  0  0  0  0
 18 19  1  0  0  0  0
 22 23  1  0  0  0  0
 18 23  2  0  0  0  0
 17 18  1  0  0  0  0
 23 24  1  0  0  0  0
 15 16  2  0  0  0  0
 15 17  1  0  0  0  0
 14 15  1  0  0  0  0
 12 13  1  0  0  0  0
  8 14  2  3  0  0  0
 11 12  2  0  0  0  0
  7  8  1  0  0  0  0
  8  9  1  0  0  0  0
 10 11  1  0  0  0  0
  6  7  3  0  0  0  0
  9 10  2  0  0  0  0
  5  6  1  0  0  0  0
  2  5  1  0  0  0  0
  2  3  2  0  0  0  0
  1  2  2  0  0  0  0
  2  4  1  0  0  0  0
  5 25  1  0  0  0  0
  9 26  1  0  0  0  0
 10 27  1  0  0  0  0
 11 28  1  0  0  0  0
 12 29  1  0  0  0  0
 14 30  1  0  0  0  0
 17 31  1  0  0  0  0
 21 32  1  0  0  0  0
 22 33  1  0  0  0  0
 22 34  1  0  0  0  0
M  CHG  1   4  -1
M  END
> <Chemgauss4>
-9.411891

$$$$
