REMARK  1 active torsions:
REMARK  status: ('A' for Active; 'I' for Inactive)
REMARK    1  A    between atoms: C_5  and  C_15 
ROOT
HETATM    1  C   UNL     1      10.293  -0.622  23.113  1.00  0.00     0.015 C 
HETATM    2  C   UNL     1       8.249  -4.400  21.991  1.00  0.00     0.070 C 
HETATM    3  C   UNL     1       9.000  -3.190  22.344  1.00  0.00     0.028 C 
HETATM    4  C   UNL     1      11.361  -1.371  22.632  1.00  0.00     0.018 C 
HETATM    5  C   UNL     1       8.890  -0.823  22.995  1.00  0.00    -0.005 C 
HETATM    6  C   UNL     1      11.280  -2.633  22.039  1.00  0.00     0.088 C 
HETATM    7 CL   UNL     1       6.810  -2.339  23.719  1.00  0.00    -0.081 Cl
HETATM    8  C   UNL     1       8.360  -2.101  22.981  1.00  0.00     0.067 C 
HETATM    9  N   UNL     1      10.226  -3.372  21.997  1.00  0.00    -0.368 N 
ATOM     10  HN  UNL     1      10.400  -4.298  21.606  1.00  0.00     0.165 HD
ENDROOT
BRANCH   5  11
HETATM   11  C   UNL     1       7.973   0.272  22.820  1.00  0.00    -0.036 C 
HETATM   12  C   UNL     1       7.691   1.261  23.779  1.00  0.00     0.015 C 
HETATM   13  C   UNL     1       7.209   2.412  23.253  1.00  0.00     0.046 C 
HETATM   14  S   UNL     1       6.594   2.236  21.679  1.00  0.00    -0.137 SA
HETATM   15  C   UNL     1       7.213   0.513  21.558  1.00  0.00     0.118 C 
ENDBRANCH   5  11
TORSDOF 1
