MODEL 1
REMARK VINA RESULT:    -4.931      0.000      0.000
REMARK INTER + INTRA:          -5.454
REMARK INTER:                  -5.219
REMARK INTRA:                  -0.235
REMARK UNBOUND:                -0.235
REMARK  1 active torsions:
REMARK  status: ('A' for Active; 'I' for Inactive)
REMARK    1  A    between atoms: C_5  and  C_15 
ROOT
HETATM    1  C   UNL     1       6.655  -1.291  21.449  1.00  0.00     0.015 C 
HETATM    2  C   UNL     1      10.854  -1.778  22.808  1.00  0.00     0.070 C 
HETATM    3  C   UNL     1       9.492  -1.548  22.313  1.00  0.00     0.028 C 
HETATM    4  C   UNL     1       7.298  -0.324  20.684  1.00  0.00     0.018 C 
HETATM    5  C   UNL     1       7.179  -2.372  22.210  1.00  0.00    -0.005 C 
HETATM    6  C   UNL     1       8.675  -0.101  20.628  1.00  0.00     0.088 C 
HETATM    7 CL   UNL     1       8.580  -3.071  24.378  1.00  0.00    -0.081 Cl
HETATM    8  C   UNL     1       8.394  -2.253  22.861  1.00  0.00     0.067 C 
HETATM    9  N   UNL     1       9.552  -0.641  21.402  1.00  0.00    -0.368 N 
ATOM     10  HN  UNL     1      10.493  -0.273  21.262  1.00  0.00     0.165 HD
ENDROOT
BRANCH   5  11
HETATM   11  C   UNL     1       6.515  -3.647  22.284  1.00  0.00    -0.036 C 
HETATM   12  C   UNL     1       7.049  -4.872  21.846  1.00  0.00     0.015 C 
HETATM   13  C   UNL     1       6.492  -5.955  22.438  1.00  0.00     0.046 C 
HETATM   14  S   UNL     1       4.988  -5.636  23.162  1.00  0.00    -0.137 SA
HETATM   15  C   UNL     1       5.157  -3.832  22.876  1.00  0.00     0.118 C 
ENDBRANCH   5  11
TORSDOF 1
ENDMDL
MODEL 2
REMARK VINA RESULT:    -4.907      3.280      5.084
REMARK INTER + INTRA:          -5.429
REMARK INTER:                  -5.198
REMARK INTRA:                  -0.231
REMARK UNBOUND:                -0.235
REMARK  1 active torsions:
REMARK  status: ('A' for Active; 'I' for Inactive)
REMARK    1  A    between atoms: C_5  and  C_15 
ROOT
HETATM    1  C   UNL     1       7.840   0.271  19.963  1.00  0.00     0.015 C 
HETATM    2  C   UNL     1       5.858  -2.970  22.260  1.00  0.00     0.070 C 
HETATM    3  C   UNL     1       6.450  -1.906  21.442  1.00  0.00     0.028 C 
HETATM    4  C   UNL     1       6.669   0.103  19.232  1.00  0.00     0.018 C 
HETATM    5  C   UNL     1       8.199  -0.190  21.260  1.00  0.00    -0.005 C 
HETATM    6  C   UNL     1       5.603  -0.736  19.567  1.00  0.00     0.088 C 
HETATM    7 CL   UNL     1       8.797  -2.324  22.755  1.00  0.00    -0.081 Cl
HETATM    8  C   UNL     1       7.745  -1.411  21.724  1.00  0.00     0.067 C 
HETATM    9  N   UNL     1       5.609  -1.608  20.514  1.00  0.00    -0.368 N 
ATOM     10  HN  UNL     1       4.769  -2.187  20.532  1.00  0.00     0.165 HD
ENDROOT
BRANCH   5  11
HETATM   11  C   UNL     1       8.985   0.607  22.164  1.00  0.00    -0.036 C 
HETATM   12  C   UNL     1      10.314   1.015  21.947  1.00  0.00     0.015 C 
HETATM   13  C   UNL     1      10.671   2.114  22.652  1.00  0.00     0.046 C 
HETATM   14  S   UNL     1       9.649   2.439  23.970  1.00  0.00    -0.137 SA
HETATM   15  C   UNL     1       8.464   1.135  23.459  1.00  0.00     0.118 C 
ENDBRANCH   5  11
TORSDOF 1
ENDMDL
MODEL 3
REMARK VINA RESULT:    -4.886      3.791      5.805
REMARK INTER + INTRA:          -5.407
REMARK INTER:                  -5.190
REMARK INTRA:                  -0.217
REMARK UNBOUND:                -0.235
REMARK  1 active torsions:
REMARK  status: ('A' for Active; 'I' for Inactive)
REMARK    1  A    between atoms: C_5  and  C_15 
ROOT
HETATM    1  C   UNL     1       8.615  -2.903  26.244  1.00  0.00     0.015 C 
HETATM    2  C   UNL     1       7.225  -4.842  22.500  1.00  0.00     0.070 C 
HETATM    3  C   UNL     1       7.664  -4.274  23.779  1.00  0.00     0.028 C 
HETATM    4  C   UNL     1       8.365  -4.196  26.689  1.00  0.00     0.018 C 
HETATM    5  C   UNL     1       8.732  -2.381  24.926  1.00  0.00    -0.005 C 
HETATM    6  C   UNL     1       7.995  -5.283  25.894  1.00  0.00     0.088 C 
HETATM    7 CL   UNL     1       7.438  -1.803  22.659  1.00  0.00    -0.081 Cl
HETATM    8  C   UNL     1       7.970  -2.897  23.893  1.00  0.00     0.067 C 
HETATM    9  N   UNL     1       7.665  -5.221  24.651  1.00  0.00    -0.368 N 
ATOM     10  HN  UNL     1       7.334  -6.111  24.278  1.00  0.00     0.165 HD
ENDROOT
BRANCH   5  11
HETATM   11  C   UNL     1       9.682  -1.353  24.593  1.00  0.00    -0.036 C 
HETATM   12  C   UNL     1       9.711  -0.059  25.143  1.00  0.00     0.015 C 
HETATM   13  C   UNL     1      10.922   0.542  25.066  1.00  0.00     0.046 C 
HETATM   14  S   UNL     1      11.957  -0.159  23.915  1.00  0.00    -0.137 SA
HETATM   15  C   UNL     1      10.797  -1.549  23.620  1.00  0.00     0.118 C 
ENDBRANCH   5  11
TORSDOF 1
ENDMDL
MODEL 4
REMARK VINA RESULT:    -4.791      3.118      4.094
REMARK INTER + INTRA:          -5.306
REMARK INTER:                  -5.060
REMARK INTRA:                  -0.246
REMARK UNBOUND:                -0.235
REMARK  1 active torsions:
REMARK  status: ('A' for Active; 'I' for Inactive)
REMARK    1  A    between atoms: C_5  and  C_15 
ROOT
HETATM    1  C   UNL     1      11.022  -1.443  23.605  1.00  0.00     0.015 C 
HETATM    2  C   UNL     1       8.974   2.276  24.902  1.00  0.00     0.070 C 
HETATM    3  C   UNL     1       9.724   1.092  24.466  1.00  0.00     0.028 C 
HETATM    4  C   UNL     1      12.098  -0.570  23.714  1.00  0.00     0.018 C 
HETATM    5  C   UNL     1       9.685  -1.334  24.078  1.00  0.00    -0.005 C 
HETATM    6  C   UNL     1      12.049   0.741  24.194  1.00  0.00     0.088 C 
HETATM    7 CL   UNL     1       7.348  -0.063  23.811  1.00  0.00    -0.081 Cl
HETATM    8  C   UNL     1       9.052  -0.104  24.122  1.00  0.00     0.067 C 
HETATM    9  N   UNL     1      10.974   1.401  24.454  1.00  0.00    -0.368 N 
ATOM     10  HN  UNL     1      11.150   2.375  24.701  1.00  0.00     0.165 HD
ENDROOT
BRANCH   5  11
HETATM   11  C   UNL     1       8.960  -2.467  24.588  1.00  0.00    -0.036 C 
HETATM   12  C   UNL     1       8.487  -3.546  23.819  1.00  0.00     0.015 C 
HETATM   13  C   UNL     1       8.285  -4.679  24.533  1.00  0.00     0.046 C 
HETATM   14  S   UNL     1       8.159  -4.416  26.207  1.00  0.00    -0.137 SA
HETATM   15  C   UNL     1       8.638  -2.653  26.033  1.00  0.00     0.118 C 
ENDBRANCH   5  11
TORSDOF 1
ENDMDL
MODEL 5
REMARK VINA RESULT:    -4.701     23.885     25.438
REMARK INTER + INTRA:          -5.211
REMARK INTER:                  -4.972
REMARK INTRA:                  -0.239
REMARK UNBOUND:                -0.235
REMARK  1 active torsions:
REMARK  status: ('A' for Active; 'I' for Inactive)
REMARK    1  A    between atoms: C_5  and  C_15 
ROOT
HETATM    1  C   UNL     1       3.597 -22.782   7.732  1.00  0.00     0.015 C 
HETATM    2  C   UNL     1      -0.263 -21.552   9.550  1.00  0.00     0.070 C 
HETATM    3  C   UNL     1       1.025 -21.876   8.926  1.00  0.00     0.028 C 
HETATM    4  C   UNL     1       3.665 -21.400   7.595  1.00  0.00     0.018 C 
HETATM    5  C   UNL     1       2.731 -23.596   8.514  1.00  0.00    -0.005 C 
HETATM    6  C   UNL     1       2.745 -20.477   8.098  1.00  0.00     0.088 C 
HETATM    7 CL   UNL     1       0.228 -24.477   8.839  1.00  0.00    -0.081 Cl
HETATM    8  C   UNL     1       1.417 -23.221   8.731  1.00  0.00     0.067 C 
HETATM    9  N   UNL     1       1.604 -20.768   8.620  1.00  0.00    -0.368 N 
ATOM     10  HN  UNL     1       1.040 -19.946   8.835  1.00  0.00     0.165 HD
ENDROOT
BRANCH   5  11
HETATM   11  C   UNL     1       3.190 -24.796   9.162  1.00  0.00    -0.036 C 
HETATM   12  C   UNL     1       3.477 -26.012   8.518  1.00  0.00     0.015 C 
HETATM   13  C   UNL     1       4.326 -26.810   9.208  1.00  0.00     0.046 C 
HETATM   14  S   UNL     1       4.445 -26.413  10.856  1.00  0.00    -0.137 SA
HETATM   15  C   UNL     1       3.450 -24.888  10.629  1.00  0.00     0.118 C 
ENDBRANCH   5  11
TORSDOF 1
ENDMDL
MODEL 6
REMARK VINA RESULT:    -4.696      3.104      4.865
REMARK INTER + INTRA:          -5.206
REMARK INTER:                  -4.936
REMARK INTRA:                  -0.270
REMARK UNBOUND:                -0.235
REMARK  1 active torsions:
REMARK  status: ('A' for Active; 'I' for Inactive)
REMARK    1  A    between atoms: C_5  and  C_15 
ROOT
HETATM    1  C   UNL     1       7.818  -2.477  24.578  1.00  0.00     0.015 C 
HETATM    2  C   UNL     1       6.900  -5.725  21.694  1.00  0.00     0.070 C 
HETATM    3  C   UNL     1       7.226  -4.713  22.704  1.00  0.00     0.028 C 
HETATM    4  C   UNL     1       8.272  -3.590  25.276  1.00  0.00     0.018 C 
HETATM    5  C   UNL     1       7.465  -2.319  23.209  1.00  0.00    -0.005 C 
HETATM    6  C   UNL     1       8.325  -4.900  24.792  1.00  0.00     0.088 C 
HETATM    7 CL   UNL     1       5.703  -2.947  21.298  1.00  0.00    -0.081 Cl
HETATM    8  C   UNL     1       6.873  -3.356  22.510  1.00  0.00     0.067 C 
HETATM    9  N   UNL     1       7.807  -5.308  23.686  1.00  0.00    -0.368 N 
ATOM     10  HN  UNL     1       7.871  -6.319  23.562  1.00  0.00     0.165 HD
ENDROOT
BRANCH   5  11
HETATM   11  C   UNL     1       7.763  -1.117  22.476  1.00  0.00    -0.036 C 
HETATM   12  C   UNL     1       8.783  -0.976  21.519  1.00  0.00     0.015 C 
HETATM   13  C   UNL     1       8.574   0.032  20.640  1.00  0.00     0.046 C 
HETATM   14  S   UNL     1       7.438   1.177  21.175  1.00  0.00    -0.137 SA
HETATM   15  C   UNL     1       6.987   0.149  22.626  1.00  0.00     0.118 C 
ENDBRANCH   5  11
TORSDOF 1
ENDMDL
MODEL 7
REMARK VINA RESULT:    -4.619      2.837      4.282
REMARK INTER + INTRA:          -5.125
REMARK INTER:                  -4.865
REMARK INTRA:                  -0.259
REMARK UNBOUND:                -0.235
REMARK  1 active torsions:
REMARK  status: ('A' for Active; 'I' for Inactive)
REMARK    1  A    between atoms: C_5  and  C_15 
ROOT
HETATM    1  C   UNL     1      11.172  -1.522  23.106  1.00  0.00     0.015 C 
HETATM    2  C   UNL     1      10.588   2.822  23.812  1.00  0.00     0.070 C 
HETATM    3  C   UNL     1      10.864   1.397  23.601  1.00  0.00     0.028 C 
HETATM    4  C   UNL     1      12.408  -1.169  23.635  1.00  0.00     0.018 C 
HETATM    5  C   UNL     1       9.936  -0.819  23.085  1.00  0.00    -0.005 C 
HETATM    6  C   UNL     1      12.758   0.085  24.142  1.00  0.00     0.088 C 
HETATM    7 CL   UNL     1       8.604   1.274  22.088  1.00  0.00    -0.081 Cl
HETATM    8  C   UNL     1       9.911   0.560  22.975  1.00  0.00     0.067 C 
HETATM    9  N   UNL     1      12.048   1.155  24.045  1.00  0.00    -0.368 N 
ATOM     10  HN  UNL     1      12.524   1.986  24.394  1.00  0.00     0.165 HD
ENDROOT
BRANCH   5  11
HETATM   11  C   UNL     1       8.672  -1.490  23.242  1.00  0.00    -0.036 C 
HETATM   12  C   UNL     1       7.792  -1.327  24.326  1.00  0.00     0.015 C 
HETATM   13  C   UNL     1       6.508  -1.651  24.042  1.00  0.00     0.046 C 
HETATM   14  S   UNL     1       6.342  -2.626  22.660  1.00  0.00    -0.137 SA
HETATM   15  C   UNL     1       8.117  -2.441  22.235  1.00  0.00     0.118 C 
ENDBRANCH   5  11
TORSDOF 1
ENDMDL
MODEL 8
REMARK VINA RESULT:    -4.355     23.543     24.925
REMARK INTER + INTRA:          -4.845
REMARK INTER:                  -4.609
REMARK INTRA:                  -0.236
REMARK UNBOUND:                -0.235
REMARK  1 active torsions:
REMARK  status: ('A' for Active; 'I' for Inactive)
REMARK    1  A    between atoms: C_5  and  C_15 
ROOT
HETATM    1  C   UNL     1      21.728 -23.225  13.921  1.00  0.00     0.015 C 
HETATM    2  C   UNL     1      20.636 -19.210  12.371  1.00  0.00     0.070 C 
HETATM    3  C   UNL     1      21.026 -20.557  12.804  1.00  0.00     0.028 C 
HETATM    4  C   UNL     1      22.276 -23.273  12.644  1.00  0.00     0.018 C 
HETATM    5  C   UNL     1      21.245 -22.125  14.683  1.00  0.00    -0.005 C 
HETATM    6  C   UNL     1      22.320 -22.220  11.727  1.00  0.00     0.088 C 
HETATM    7 CL   UNL     1      19.330 -20.273  14.914  1.00  0.00    -0.081 Cl
HETATM    8  C   UNL     1      20.619 -21.059  14.062  1.00  0.00     0.067 C 
HETATM    9  N   UNL     1      21.713 -21.092  11.856  1.00  0.00    -0.368 N 
ATOM     10  HN  UNL     1      21.793 -20.496  11.032  1.00  0.00     0.165 HD
ENDROOT
BRANCH   5  11
HETATM   11  C   UNL     1      21.439 -22.038  16.106  1.00  0.00    -0.036 C 
HETATM   12  C   UNL     1      20.889 -22.912  17.059  1.00  0.00     0.015 C 
HETATM   13  C   UNL     1      21.569 -22.945  18.230  1.00  0.00     0.046 C 
HETATM   14  S   UNL     1      22.587 -21.605  18.463  1.00  0.00    -0.137 SA
HETATM   15  C   UNL     1      22.292 -20.999  16.756  1.00  0.00     0.118 C 
ENDBRANCH   5  11
TORSDOF 1
ENDMDL
MODEL 9
REMARK VINA RESULT:    -4.314     14.525     16.635
REMARK INTER + INTRA:          -4.801
REMARK INTER:                  -4.591
REMARK INTRA:                  -0.211
REMARK UNBOUND:                -0.235
REMARK  1 active torsions:
REMARK  status: ('A' for Active; 'I' for Inactive)
REMARK    1  A    between atoms: C_5  and  C_15 
ROOT
HETATM    1  C   UNL     1      24.774  -3.014  23.290  1.00  0.00     0.015 C 
HETATM    2  C   UNL     1      24.045  -6.940  25.231  1.00  0.00     0.070 C 
HETATM    3  C   UNL     1      24.326  -5.685  24.525  1.00  0.00     0.028 C 
HETATM    4  C   UNL     1      25.227  -3.887  22.306  1.00  0.00     0.018 C 
HETATM    5  C   UNL     1      23.989  -3.252  24.452  1.00  0.00    -0.005 C 
HETATM    6  C   UNL     1      25.140  -5.281  22.340  1.00  0.00     0.088 C 
HETATM    7 CL   UNL     1      23.923  -4.375  26.877  1.00  0.00    -0.081 Cl
HETATM    8  C   UNL     1      24.113  -4.436  25.156  1.00  0.00     0.067 C 
HETATM    9  N   UNL     1      24.781  -5.982  23.359  1.00  0.00    -0.368 N 
ATOM     10  HN  UNL     1      24.878  -6.987  23.209  1.00  0.00     0.165 HD
ENDROOT
BRANCH   5  11
HETATM   11  C   UNL     1      22.996  -2.315  24.908  1.00  0.00    -0.036 C 
HETATM   12  C   UNL     1      21.623  -2.373  24.612  1.00  0.00     0.015 C 
HETATM   13  C   UNL     1      20.842  -1.720  25.504  1.00  0.00     0.046 C 
HETATM   14  S   UNL     1      21.689  -0.594  26.454  1.00  0.00    -0.137 SA
HETATM   15  C   UNL     1      23.307  -1.157  25.797  1.00  0.00     0.118 C 
ENDBRANCH   5  11
TORSDOF 1
ENDMDL
