stable:False satoms:21 tatoms:24 sratio:0.875
  -OEChem-07092417273D

 24 24  0     0  0  0  0  0  0999 V2000
   10.4508   -5.1669   21.3343 H   0  0  0  0  0  0  0  0  0  0  0  0
   11.8569   -4.6471   22.5673 F   0  0  0  0  0  0  0  0  0  0  0  0
    7.5856   -0.7856   21.7553 N   0  0  0  0  0  0  0  0  0  0  0  0
    5.7008    0.1271   21.4904 H   0  0  0  0  0  0  0  0  0  0  0  0
    9.2414    0.8469   24.2989 C   0  0  0  0  0  0  0  0  0  0  0  0
   10.1235   -1.0964   23.1468 N   0  0  0  0  0  0  0  0  0  0  0  0
    6.2744   -0.7441   21.1579 C   0  0  0  0  0  0  0  0  0  0  0  0
    6.0694   -0.0483   23.9675 H   0  0  0  0  0  0  0  0  0  0  0  0
    7.8100    2.1601   25.2738 H   0  0  0  0  0  0  0  0  0  0  0  0
    8.0238    1.3620   24.5651 C   0  0  0  0  0  0  0  0  0  0  0  0
    6.9147    0.6475   23.6843 C   0  0  0  0  0  0  0  0  0  0  0  0
   10.9574   -1.9572   22.6320 C   0  0  0  0  0  0  0  0  0  0  0  0
   10.3009   -3.0732   21.7876 C   0  0  0  0  0  0  0  0  0  0  0  0
    6.3892   -0.7061   20.0752 H   0  0  0  0  0  0  0  0  0  0  0  0
   12.1571   -1.9582   22.8141 O   0  0  0  0  0  0  0  0  0  0  0  0
    9.1793   -0.2342   23.3945 C   0  0  0  0  0  0  0  0  0  0  0  0
   10.1941    1.1841   24.7105 H   0  0  0  0  0  0  0  0  0  0  0  0
    7.8369   -0.1862   22.8891 C   0  0  0  0  0  0  0  0  0  0  0  0
   11.7935   -4.1922   20.6764 H   0  0  0  0  0  0  0  0  0  0  0  0
    5.7098   -1.6367   21.4302 H   0  0  0  0  0  0  0  0  0  0  0  0
    8.3821   -1.3716   21.4318 H   0  0  0  0  0  0  0  0  0  0  0  0
   11.1145   -4.3233   21.5243 C   0  0  0  0  0  0  0  0  0  0  0  0
    9.1711   -3.0070   21.3754 O   0  0  0  0  0  0  0  0  0  0  0  0
    6.3472    1.5166   23.3139 H   0  0  0  0  0  0  0  0  0  0  0  0
  7 14  1  0  0  0  0
 19 22  1  0  0  0  0
  7 20  1  0  0  0  0
  4  7  1  0  0  0  0
  3  7  1  0  0  0  0
  1 22  1  0  0  0  0
 13 23  2  0  0  0  0
  3 21  1  0  0  0  0
 13 22  1  0  0  0  0
  2 22  1  0  0  0  0
  3 18  1  0  0  0  0
 12 13  1  0  0  0  0
 12 15  2  0  0  0  0
  6 12  1  0  0  0  0
 16 18  2  0  0  0  0
 11 18  1  0  0  0  0
  6 16  1  0  0  0  0
 11 24  1  0  0  0  0
  5 16  1  0  0  0  0
  8 11  1  0  0  0  0
 10 11  1  0  0  0  0
  5 10  2  0  0  0  0
  5 17  1  0  0  0  0
  9 10  1  0  0  0  0
M  END
> <Shapegauss>
-81.962265

$$$$
