stable:False satoms:21 tatoms:24 sratio:0.875
  -OEChem-08052416083D

 26 26  0     0  0  0  0  0  0999 V2000
   -5.7897   -2.5846  -24.9040 H   0  0  0  0  0  0  0  0  0  0  0  0
   -6.5325   -4.1820  -24.0891 F   0  0  0  0  0  0  0  0  0  0  0  0
  -10.0109    0.4745  -24.2668 N   0  3  0  0  0  0  0  0  0  0  0  0
  -11.0450    2.2107  -24.8767 H   0  0  0  0  0  0  0  0  0  0  0  0
  -12.3080   -1.8048  -23.0816 C   0  0  0  0  0  0  0  0  0  0  0  0
   -9.9321   -2.2566  -23.2625 N   0  0  0  0  0  0  0  0  0  0  0  0
  -10.0451    1.7659  -24.9064 C   0  0  0  0  0  0  0  0  0  0  0  0
  -12.3989    0.2533  -25.6756 H   0  0  0  0  0  0  0  0  0  0  0  0
  -14.2863   -1.0704  -23.6023 H   0  0  0  0  0  0  0  0  0  0  0  0
  -13.2035   -0.9992  -23.6883 C   0  0  0  0  0  0  0  0  0  0  0  0
  -12.4606    0.1009  -24.5568 C   0  0  0  0  0  0  0  0  0  0  0  0
   -8.7458   -2.7509  -23.0394 C   0  0  0  0  0  0  0  0  0  0  0  0
   -7.6081   -2.1085  -23.8654 C   0  0  0  0  0  0  0  0  0  0  0  0
   -9.3444    2.4239  -24.3937 H   0  0  0  0  0  0  0  0  0  0  0  0
   -8.5072   -3.6772  -22.2927 O   0  0  0  0  0  0  0  0  0  0  0  0
  -10.9808   -1.5096  -23.4585 C   0  0  0  0  0  0  0  0  0  0  0  0
  -12.5291   -2.6091  -22.3781 H   0  0  0  0  0  0  0  0  0  0  0  0
  -11.0878   -0.2566  -24.1502 C   0  0  0  0  0  0  0  0  0  0  0  0
   -5.6620   -2.7301  -23.1296 H   0  0  0  0  0  0  0  0  0  0  0  0
   -9.7539    1.6736  -25.9535 H   0  0  0  0  0  0  0  0  0  0  0  0
   -9.3497   -0.0758  -24.7766 H   0  0  0  0  0  0  0  0  0  0  0  0
   -6.3131   -2.8832  -23.9956 C   0  0  0  0  0  0  0  0  0  0  0  0
   -7.7248   -1.0544  -24.4363 O   0  0  0  0  0  0  0  0  0  0  0  0
  -13.0069    1.0102  -24.2576 H   0  0  0  0  0  0  0  0  0  0  0  0
  -10.4023   -3.1343  -23.3554 H   0  0  0  0  0  0  0  0  0  0  0  0
   -9.6717    0.6279  -23.3387 H   0  0  0  0  0  0  0  0  0  0  0  0
  7 14  1  0  0  0  0
 19 22  1  0  0  0  0
  7 20  1  0  0  0  0
  4  7  1  0  0  0  0
  3  7  1  0  0  0  0
  1 22  1  0  0  0  0
 13 23  2  0  0  0  0
  3 21  1  0  0  0  0
 13 22  1  0  0  0  0
  2 22  1  0  0  0  0
  3 18  1  0  0  0  0
 12 13  1  0  0  0  0
 12 15  2  0  0  0  0
  6 12  1  0  0  0  0
 16 18  2  0  0  0  0
 11 18  1  0  0  0  0
  6 16  1  0  0  0  0
 11 24  1  0  0  0  0
  5 16  1  0  0  0  0
  8 11  1  0  0  0  0
 10 11  1  0  0  0  0
  5 10  2  0  0  0  0
  5 17  1  0  0  0  0
  9 10  1  0  0  0  0
  6 25  1  0  0  0  0
  3 26  1  0  0  0  0
M  CHG  1   3   1
M  END
> <Chemgauss4>
-6.128456

$$$$
