stable:False satoms:21 tatoms:24 sratio:0.875
  -OEChem-08052416083D

 26 26  0     0  0  0  0  0  0999 V2000
    5.8101   -2.4613   24.9034 H   0  0  0  0  0  0  0  0  0  0  0  0
    6.5528   -4.0587   24.0884 F   0  0  0  0  0  0  0  0  0  0  0  0
   10.0313    0.5978   24.2662 N   0  3  0  0  0  0  0  0  0  0  0  0
   11.0654    2.3340   24.8761 H   0  0  0  0  0  0  0  0  0  0  0  0
   12.3284   -1.6815   23.0810 C   0  0  0  0  0  0  0  0  0  0  0  0
    9.9525   -2.1333   23.2619 N   0  0  0  0  0  0  0  0  0  0  0  0
   10.0655    1.8892   24.9058 C   0  0  0  0  0  0  0  0  0  0  0  0
   12.4193    0.3766   25.6750 H   0  0  0  0  0  0  0  0  0  0  0  0
   14.3067   -0.9471   23.6017 H   0  0  0  0  0  0  0  0  0  0  0  0
   13.2238   -0.8759   23.6877 C   0  0  0  0  0  0  0  0  0  0  0  0
   12.4810    0.2243   24.5561 C   0  0  0  0  0  0  0  0  0  0  0  0
    8.7662   -2.6276   23.0388 C   0  0  0  0  0  0  0  0  0  0  0  0
    7.6284   -1.9852   23.8648 C   0  0  0  0  0  0  0  0  0  0  0  0
    9.3647    2.5472   24.3931 H   0  0  0  0  0  0  0  0  0  0  0  0
    8.5276   -3.5539   22.2921 O   0  0  0  0  0  0  0  0  0  0  0  0
   11.0012   -1.3863   23.4579 C   0  0  0  0  0  0  0  0  0  0  0  0
   12.5495   -2.4858   22.3775 H   0  0  0  0  0  0  0  0  0  0  0  0
   11.1082   -0.1333   24.1496 C   0  0  0  0  0  0  0  0  0  0  0  0
    5.6824   -2.6067   23.1290 H   0  0  0  0  0  0  0  0  0  0  0  0
    9.7743    1.7969   25.9529 H   0  0  0  0  0  0  0  0  0  0  0  0
    9.3701    0.0475   24.7760 H   0  0  0  0  0  0  0  0  0  0  0  0
    6.3334   -2.7599   23.9949 C   0  0  0  0  0  0  0  0  0  0  0  0
    7.7452   -0.9311   24.4357 O   0  0  0  0  0  0  0  0  0  0  0  0
   13.0273    1.1335   24.2570 H   0  0  0  0  0  0  0  0  0  0  0  0
   10.4226   -3.0110   23.3548 H   0  0  0  0  0  0  0  0  0  0  0  0
    9.6921    0.7512   23.3380 H   0  0  0  0  0  0  0  0  0  0  0  0
  7 14  1  0  0  0  0
 19 22  1  0  0  0  0
  7 20  1  0  0  0  0
  4  7  1  0  0  0  0
  3  7  1  0  0  0  0
  1 22  1  0  0  0  0
 13 23  2  0  0  0  0
  3 21  1  0  0  0  0
 13 22  1  0  0  0  0
  2 22  1  0  0  0  0
  3 18  1  0  0  0  0
 12 13  1  0  0  0  0
 12 15  2  0  0  0  0
  6 12  1  0  0  0  0
 16 18  2  0  0  0  0
 11 18  1  0  0  0  0
  6 16  1  0  0  0  0
 11 24  1  0  0  0  0
  5 16  1  0  0  0  0
  8 11  1  0  0  0  0
 10 11  1  0  0  0  0
  5 10  2  0  0  0  0
  5 17  1  0  0  0  0
  9 10  1  0  0  0  0
  6 25  1  0  0  0  0
  3 26  1  0  0  0  0
M  CHG  1   3   1
M  END
> <Chemgauss4>
-6.094520

$$$$
