REMARK  5 active torsions:
REMARK  status: ('A' for Active; 'I' for Inactive)
REMARK    1  A    between atoms: S_2  and  N_5 
REMARK    2  A    between atoms: N_5  and  C_7 
REMARK    3  A    between atoms: C_7  and  C_8 
REMARK    4  A    between atoms: C_18  and  C_19 
REMARK       I    between atoms: C_19  and  N_21 
REMARK    5  A    between atoms: N_21  and  C_23 
ROOT
HETATM    1  C   UNL     1       9.431  -1.789  23.480  1.00  0.00     0.059 A 
HETATM    2  C   UNL     1      10.715  -1.013  23.241  1.00  0.00     0.136 A 
HETATM    3  C   UNL     1      11.085  -0.081  24.238  1.00  0.00     0.035 C 
HETATM    4  C   UNL     1      12.201   0.062  24.065  1.00  0.00     0.107 C 
HETATM    5  N   UNL     1      13.168  -0.298  23.508  1.00  0.00    -0.298 N 
ATOM      6  HN  UNL     1      14.107   0.071  23.656  1.00  0.00     0.187 HD
HETATM    7  N   UNL     1      12.867  -1.198  22.711  1.00  0.00    -0.246 N 
ATOM      8  HN  UNL     1      13.607  -1.547  22.102  1.00  0.00     0.208 HD
HETATM    9  N   UNL     1      11.775  -1.698  22.593  1.00  0.00    -0.298 N 
ATOM     10  HN  UNL     1      11.624  -2.556  22.063  1.00  0.00     0.183 HD
HETATM   11  C   UNL     1       9.590  -0.825  22.607  1.00  0.00     0.067 A 
ENDROOT
BRANCH  11  12
HETATM   12  C   UNL     1       8.986   0.057  21.441  1.00  0.00     0.257 C 
HETATM   13  N   UNL     1       7.880  -0.488  21.011  1.00  0.00    -0.307 N 
ATOM     14  HN  UNL     1       7.621  -1.382  21.427  1.00  0.00     0.170 HD
HETATM   15  O   UNL     1       9.570   1.022  21.093  1.00  0.00    -0.267 OA
BRANCH  13  16
HETATM   16  C   UNL     1       7.068  -0.008  20.102  1.00  0.00     0.144 C 
HETATM   17  N   UNL     1       7.305  -0.066  18.760  1.00  0.00    -0.284 N 
HETATM   18  N   UNL     1       6.688   0.418  17.806  1.00  0.00    -0.310 N 
ATOM     19  HN  UNL     1       8.134  -0.601  18.500  1.00  0.00     0.188 HD
HETATM   20  C   UNL     1       5.718   0.942  18.255  1.00  0.00     0.109 C 
ATOM     21  HN  UNL     1       6.957   0.377  16.823  1.00  0.00     0.186 HD
HETATM   22  C   UNL     1       5.321   1.015  19.387  1.00  0.00     0.046 C 
HETATM   23  C   UNL     1       5.812   0.594  20.481  1.00  0.00     0.080 C 
HETATM   24 CL   UNL     1       5.199   0.713  22.004  1.00  0.00    -0.080 Cl
ENDBRANCH  13  16
ENDBRANCH  11  12
BRANCH   1  25
HETATM   25  C   UNL     1       8.907  -2.752  24.187  1.00  0.00    -0.019 C 
BRANCH  25  26
HETATM   26  N   UNL     1       8.183  -3.515  24.676  1.00  0.00    -0.236 N 
ATOM     27  HN  UNL     1       7.366  -3.712  24.098  1.00  0.00     0.189 HD
BRANCH  26  28
HETATM   28  S   UNL     1       8.178  -4.356  26.102  1.00  0.00     0.327 S 
HETATM   29 CL   UNL     1       6.431  -5.003  26.394  1.00  0.00     0.042 Cl
HETATM   30  O   UNL     1       8.987  -5.522  25.975  1.00  0.00    -0.188 OA
HETATM   31  O   UNL     1       8.519  -3.501  27.179  1.00  0.00    -0.188 OA
ENDBRANCH  26  28
ENDBRANCH  25  26
ENDBRANCH   1  25
TORSDOF 5
