stable:False satoms:9 tatoms:24 sratio:0.375
  -OEChem-07092417433D

 24 26  0     1  0  0  0  0  0999 V2000
    6.4314   -5.0027   26.3938 Cl  0  0  0  0  0  0  0  0  0  0  0  0
    8.1779   -4.3556   26.1015 S   0  0  0  0  0  0  0  0  0  0  0  0
    8.9870   -5.5224   25.9751 O   0  0  0  0  0  0  0  0  0  0  0  0
    8.5193   -3.5006   27.1790 O   0  0  0  0  0  0  0  0  0  0  0  0
    8.1828   -3.5154   24.6764 N   0  0  0  0  0  0  0  0  0  0  0  0
    8.9074   -2.7522   24.1869 C   0  0  0  0  0  0  0  0  0  0  0  0
    9.4305   -1.7891   23.4796 C   0  0  0  0  0  0  0  0  0  0  0  0
   10.7151   -1.0134   23.2414 C   0  0  1  0  0  0  0  0  0  0  0  0
   11.0846   -0.0807   24.2384 C   0  0  0  0  0  0  0  0  0  0  0  0
   12.2012    0.0625   24.0648 C   0  0  0  0  0  0  0  0  0  0  0  0
   13.1678   -0.2984   23.5077 N   0  0  0  0  0  0  0  0  0  0  0  0
   12.8668   -1.1978   22.7114 N   0  0  0  0  0  0  0  0  0  0  0  0
   11.7749   -1.6985   22.5935 N   0  0  0  0  0  0  0  0  0  0  0  0
    9.5902   -0.8250   22.6074 C   0  0  3  0  0  0  0  0  0  0  0  0
    8.9861    0.0568   21.4408 C   0  0  0  0  0  0  0  0  0  0  0  0
    9.5698    1.0225   21.0935 O   0  0  0  0  0  0  0  0  0  0  0  0
    7.8802   -0.4876   21.0108 N   0  0  0  0  0  0  0  0  0  0  0  0
    7.0676   -0.0079   20.1016 C   0  0  0  0  0  0  0  0  0  0  0  0
    7.3051   -0.0661   18.7599 N   0  0  0  0  0  0  0  0  0  0  0  0
    6.6882    0.4180   17.8058 N   0  0  0  0  0  0  0  0  0  0  0  0
    5.7184    0.9417   18.2554 C   0  0  0  0  0  0  0  0  0  0  0  0
    5.3211    1.0147   19.3869 C   0  0  0  0  0  0  0  0  0  0  0  0
    5.8122    0.5942   20.4814 C   0  0  0  0  0  0  0  0  0  0  0  0
    5.1986    0.7128   22.0037 Cl  0  0  0  0  0  0  0  0  0  0  0  0
 20 21  2  0  0  0  0
 19 20  1  0  0  0  0
 21 22  1  0  0  0  0
 18 19  2  0  0  0  0
 22 23  2  0  0  0  0
 18 23  1  0  0  0  0
 17 18  1  0  0  0  0
 23 24  1  0  0  0  0
 15 17  1  0  0  0  0
 15 16  2  0  0  0  0
 14 15  1  0  0  0  0
 12 13  1  0  0  0  0
  8 13  1  0  0  0  0
  8 14  1  0  0  0  0
  7 14  1  0  0  0  0
 11 12  2  0  0  0  0
  7  8  1  0  0  0  0
  8  9  1  0  0  0  0
  6  7  2  0  0  0  0
 10 11  1  0  0  0  0
  9 10  2  0  0  0  0
  5  6  1  0  0  0  0
  2  5  1  0  0  0  0
  2  3  2  0  0  0  0
  1  2  1  0  0  0  0
  2  4  2  0  0  0  0
M  END
> <Shapegauss>
-286.844086

$$$$
