MODEL 1
REMARK VINA RESULT:    -7.946      0.000      0.000
REMARK INTER + INTRA:         -11.100
REMARK INTER:                 -10.269
REMARK INTRA:                  -0.831
REMARK UNBOUND:                -0.831
REMARK  5 active torsions:
REMARK  status: ('A' for Active; 'I' for Inactive)
REMARK    1  A    between atoms: S_2  and  N_5 
REMARK    2  A    between atoms: N_5  and  C_7 
REMARK    3  A    between atoms: C_7  and  C_8 
REMARK    4  A    between atoms: C_18  and  C_19 
REMARK       I    between atoms: C_19  and  N_21 
REMARK    5  A    between atoms: N_21  and  C_23 
ROOT
HETATM    1  C   UNL     1       6.731  -2.535  21.774  1.00  0.00     0.059 A 
HETATM    2  C   UNL     1       6.788  -3.935  22.361  1.00  0.00     0.136 A 
HETATM    3  C   UNL     1       5.785  -4.268  23.301  1.00  0.00     0.035 C 
HETATM    4  C   UNL     1       5.778  -5.406  23.287  1.00  0.00     0.107 C 
HETATM    5  N   UNL     1       6.151  -6.390  22.770  1.00  0.00    -0.298 N 
ATOM      6  HN  UNL     1       5.866  -7.335  23.024  1.00  0.00     0.187 HD
HETATM    7  N   UNL     1       6.947  -6.097  21.866  1.00  0.00    -0.246 N 
ATOM      8  HN  UNL     1       7.410  -6.869  21.385  1.00  0.00     0.208 HD
HETATM    9  N   UNL     1       7.222  -4.979  21.504  1.00  0.00    -0.298 N 
ATOM     10  HN  UNL     1       7.731  -4.797  20.640  1.00  0.00     0.183 HD
HETATM   11  C   UNL     1       7.607  -2.961  22.650  1.00  0.00     0.067 A 
ENDROOT
BRANCH  11  12
HETATM   12  C   UNL     1       8.894  -2.675  23.525  1.00  0.00     0.257 C 
HETATM   13  N   UNL     1       9.683  -1.856  22.884  1.00  0.00    -0.307 N 
ATOM     14  HN  UNL     1       9.394  -1.588  21.943  1.00  0.00     0.170 HD
HETATM   15  O   UNL     1       9.007  -3.215  24.569  1.00  0.00    -0.267 OA
BRANCH  13  16
HETATM   16  C   UNL     1      10.805  -1.341  23.321  1.00  0.00     0.144 C 
HETATM   17  N   UNL     1      12.042  -1.751  22.915  1.00  0.00    -0.284 N 
HETATM   18  N   UNL     1      13.170  -1.430  23.302  1.00  0.00    -0.310 N 
ATOM     19  HN  UNL     1      12.032  -2.441  22.163  1.00  0.00     0.188 HD
HETATM   20  C   UNL     1      13.022  -0.575  24.117  1.00  0.00     0.109 C 
ATOM     21  HN  UNL     1      14.056  -1.822  22.985  1.00  0.00     0.186 HD
HETATM   22  C   UNL     1      12.023  -0.048  24.526  1.00  0.00     0.046 C 
HETATM   23  C   UNL     1      10.796  -0.244  24.259  1.00  0.00     0.080 C 
HETATM   24 CL   UNL     1       9.471   0.535  24.847  1.00  0.00    -0.080 Cl
ENDBRANCH  13  16
ENDBRANCH  11  12
BRANCH   1  25
HETATM   25  C   UNL     1       6.079  -1.778  20.935  1.00  0.00    -0.019 C 
BRANCH  25  26
HETATM   26  N   UNL     1       5.663  -0.883  20.325  1.00  0.00    -0.236 N 
ATOM     27  HN  UNL     1       4.785  -0.523  20.698  1.00  0.00     0.189 HD
BRANCH  26  28
HETATM   28  S   UNL     1       6.176  -0.060  18.983  1.00  0.00     0.327 S 
HETATM   29 CL   UNL     1       5.254   1.584  18.918  1.00  0.00     0.042 Cl
HETATM   30  O   UNL     1       7.548   0.293  19.131  1.00  0.00    -0.188 OA
HETATM   31  O   UNL     1       5.864  -0.789  17.809  1.00  0.00    -0.188 OA
ENDBRANCH  26  28
ENDBRANCH  25  26
ENDBRANCH   1  25
TORSDOF 5
ENDMDL
MODEL 2
REMARK VINA RESULT:    -7.939     25.164     27.375
REMARK INTER + INTRA:         -11.091
REMARK INTER:                 -10.112
REMARK INTRA:                  -0.979
REMARK UNBOUND:                -0.831
REMARK  5 active torsions:
REMARK  status: ('A' for Active; 'I' for Inactive)
REMARK    1  A    between atoms: S_2  and  N_5 
REMARK    2  A    between atoms: N_5  and  C_7 
REMARK    3  A    between atoms: C_7  and  C_8 
REMARK    4  A    between atoms: C_18  and  C_19 
REMARK       I    between atoms: C_19  and  N_21 
REMARK    5  A    between atoms: N_21  and  C_23 
ROOT
HETATM    1  C   UNL     1       7.914  14.797   2.682  1.00  0.00     0.059 A 
HETATM    2  C   UNL     1       9.307  15.221   3.116  1.00  0.00     0.136 A 
HETATM    3  C   UNL     1       9.467  15.566   4.478  1.00  0.00     0.035 C 
HETATM    4  C   UNL     1      10.586  15.452   4.649  1.00  0.00     0.107 C 
HETATM    5  N   UNL     1      11.617  15.079   4.231  1.00  0.00    -0.298 N 
ATOM      6  HN  UNL     1      12.500  15.092   4.740  1.00  0.00     0.187 HD
HETATM    7  N   UNL     1      11.460  14.668   3.073  1.00  0.00    -0.246 N 
ATOM      8  HN  UNL     1      12.297  14.386   2.562  1.00  0.00     0.208 HD
HETATM    9  N   UNL     1      10.405  14.570   2.497  1.00  0.00    -0.298 N 
ATOM     10  HN  UNL     1      10.308  14.053   1.623  1.00  0.00     0.183 HD
HETATM   11  C   UNL     1       8.492  15.936   2.389  1.00  0.00     0.067 A 
ENDROOT
BRANCH  11  12
HETATM   12  C   UNL     1       8.441  17.323   1.630  1.00  0.00     0.257 C 
HETATM   13  N   UNL     1       9.475  18.044   1.970  1.00  0.00    -0.307 N 
ATOM     14  HN  UNL     1      10.091  17.650   2.680  1.00  0.00     0.170 HD
HETATM   15  O   UNL     1       7.529  17.550   0.915  1.00  0.00    -0.267 OA
BRANCH  13  16
HETATM   16  C   UNL     1       9.805  19.219   1.495  1.00  0.00     0.144 C 
HETATM   17  N   UNL     1       9.396  19.695   0.284  1.00  0.00    -0.284 N 
HETATM   18  N   UNL     1       9.698  20.725  -0.327  1.00  0.00    -0.310 N 
ATOM     19  HN  UNL     1       8.726  19.097  -0.201  1.00  0.00     0.188 HD
HETATM   20  C   UNL     1      10.419  21.348   0.387  1.00  0.00     0.109 C 
ATOM     21  HN  UNL     1       9.389  20.992  -1.262  1.00  0.00     0.186 HD
HETATM   22  C   UNL     1      10.808  21.117   1.500  1.00  0.00     0.046 C 
HETATM   23  C   UNL     1      10.615  20.126   2.272  1.00  0.00     0.080 C 
HETATM   24 CL   UNL     1      11.168  19.884   3.803  1.00  0.00    -0.080 Cl
ENDBRANCH  13  16
ENDBRANCH  11  12
BRANCH   1  25
HETATM   25  C   UNL     1       7.050  13.822   2.747  1.00  0.00    -0.019 C 
BRANCH  25  26
HETATM   26  N   UNL     1       6.469  12.858   3.029  1.00  0.00    -0.236 N 
ATOM     27  HN  UNL     1       5.460  13.001   3.065  1.00  0.00     0.189 HD
BRANCH  26  28
HETATM   28  S   UNL     1       6.911  11.303   3.385  1.00  0.00     0.327 S 
HETATM   29 CL   UNL     1       5.979  10.770   4.936  1.00  0.00     0.042 Cl
HETATM   30  O   UNL     1       6.453  10.426   2.360  1.00  0.00    -0.188 OA
HETATM   31  O   UNL     1       8.299  11.236   3.659  1.00  0.00    -0.188 OA
ENDBRANCH  26  28
ENDBRANCH  25  26
ENDBRANCH   1  25
TORSDOF 5
ENDMDL
MODEL 3
REMARK VINA RESULT:    -7.858      3.576      5.822
REMARK INTER + INTRA:         -10.987
REMARK INTER:                  -9.872
REMARK INTRA:                  -1.115
REMARK UNBOUND:                -0.831
REMARK  5 active torsions:
REMARK  status: ('A' for Active; 'I' for Inactive)
REMARK    1  A    between atoms: S_2  and  N_5 
REMARK    2  A    between atoms: N_5  and  C_7 
REMARK    3  A    between atoms: C_7  and  C_8 
REMARK    4  A    between atoms: C_18  and  C_19 
REMARK       I    between atoms: C_19  and  N_21 
REMARK    5  A    between atoms: N_21  and  C_23 
ROOT
HETATM    1  C   UNL     1       7.673   0.955  21.193  1.00  0.00     0.059 A 
HETATM    2  C   UNL     1       6.754   0.623  20.030  1.00  0.00     0.136 A 
HETATM    3  C   UNL     1       5.473   1.223  20.046  1.00  0.00     0.035 C 
HETATM    4  C   UNL     1       5.145   1.173  18.957  1.00  0.00     0.107 C 
HETATM    5  N   UNL     1       5.441   0.946  17.846  1.00  0.00    -0.298 N 
ATOM      6  HN  UNL     1       4.836   1.074  17.035  1.00  0.00     0.187 HD
HETATM    7  N   UNL     1       6.607   0.526  17.813  1.00  0.00    -0.246 N 
ATOM      8  HN  UNL     1       6.964   0.214  16.910  1.00  0.00     0.208 HD
HETATM    9  N   UNL     1       7.356   0.453  18.757  1.00  0.00    -0.298 N 
ATOM     10  HN  UNL     1       8.355   0.282  18.646  1.00  0.00     0.183 HD
HETATM   11  C   UNL     1       7.066  -0.190  21.002  1.00  0.00     0.067 A 
ENDROOT
BRANCH  11  12
HETATM   12  C   UNL     1       6.814  -1.681  21.465  1.00  0.00     0.257 C 
HETATM   13  N   UNL     1       7.789  -2.066  22.244  1.00  0.00    -0.307 N 
ATOM     14  HN  UNL     1       8.553  -1.405  22.378  1.00  0.00     0.170 HD
HETATM   15  O   UNL     1       5.860  -2.251  21.065  1.00  0.00    -0.267 OA
BRANCH  13  16
HETATM   16  C   UNL     1       7.889  -3.211  22.872  1.00  0.00     0.144 C 
HETATM   17  N   UNL     1       7.647  -4.423  22.293  1.00  0.00    -0.284 N 
HETATM   18  N   UNL     1       7.610  -5.559  22.776  1.00  0.00    -0.310 N 
ATOM     19  HN  UNL     1       7.465  -4.383  21.290  1.00  0.00     0.188 HD
HETATM   20  C   UNL     1       7.911  -5.455  23.923  1.00  0.00     0.109 C 
ATOM     21  HN  UNL     1       7.367  -6.420  22.286  1.00  0.00     0.186 HD
HETATM   22  C   UNL     1       8.229  -4.489  24.564  1.00  0.00     0.046 C 
HETATM   23  C   UNL     1       8.316  -3.261  24.250  1.00  0.00     0.080 C 
HETATM   24 CL   UNL     1       8.781  -1.985  25.181  1.00  0.00    -0.080 Cl
ENDBRANCH  13  16
ENDBRANCH  11  12
BRANCH   1  25
HETATM   25  C   UNL     1       8.422   1.896  21.700  1.00  0.00    -0.019 C 
BRANCH  25  26
HETATM   26  N   UNL     1       9.313   2.534  22.080  1.00  0.00    -0.236 N 
ATOM     27  HN  UNL     1       9.493   3.351  21.496  1.00  0.00     0.189 HD
BRANCH  26  28
HETATM   28  S   UNL     1      10.358   2.417  23.358  1.00  0.00     0.327 S 
HETATM   29 CL   UNL     1       9.373   1.873  24.872  1.00  0.00     0.042 Cl
HETATM   30  O   UNL     1      11.287   1.363  23.124  1.00  0.00    -0.188 OA
HETATM   31  O   UNL     1      10.937   3.679  23.638  1.00  0.00    -0.188 OA
ENDBRANCH  26  28
ENDBRANCH  25  26
ENDBRANCH   1  25
TORSDOF 5
ENDMDL
MODEL 4
REMARK VINA RESULT:    -7.739      3.907      5.859
REMARK INTER + INTRA:         -10.832
REMARK INTER:                  -9.866
REMARK INTRA:                  -0.966
REMARK UNBOUND:                -0.831
REMARK  5 active torsions:
REMARK  status: ('A' for Active; 'I' for Inactive)
REMARK    1  A    between atoms: S_2  and  N_5 
REMARK    2  A    between atoms: N_5  and  C_7 
REMARK    3  A    between atoms: C_7  and  C_8 
REMARK    4  A    between atoms: C_18  and  C_19 
REMARK       I    between atoms: C_19  and  N_21 
REMARK    5  A    between atoms: N_21  and  C_23 
ROOT
HETATM    1  C   UNL     1       8.169  -3.656  23.382  1.00  0.00     0.059 A 
HETATM    2  C   UNL     1       7.154  -4.763  23.153  1.00  0.00     0.136 A 
HETATM    3  C   UNL     1       5.798  -4.369  23.064  1.00  0.00     0.035 C 
HETATM    4  C   UNL     1       5.307  -5.237  22.516  1.00  0.00     0.107 C 
HETATM    5  N   UNL     1       5.450  -6.233  21.914  1.00  0.00    -0.298 N 
ATOM      6  HN  UNL     1       4.702  -6.774  21.480  1.00  0.00     0.187 HD
HETATM    7  N   UNL     1       6.654  -6.524  21.891  1.00  0.00    -0.246 N 
ATOM      8  HN  UNL     1       6.909  -7.415  21.465  1.00  0.00     0.208 HD
HETATM    9  N   UNL     1       7.551  -5.846  22.328  1.00  0.00    -0.298 N 
ATOM     10  HN  UNL     1       8.531  -6.038  22.117  1.00  0.00     0.183 HD
HETATM   11  C   UNL     1       7.790  -4.541  24.271  1.00  0.00     0.067 A 
ENDROOT
BRANCH  11  12
HETATM   12  C   UNL     1       7.935  -5.145  25.726  1.00  0.00     0.257 C 
HETATM   13  N   UNL     1       6.830  -4.947  26.392  1.00  0.00    -0.307 N 
ATOM     14  HN  UNL     1       6.103  -4.409  25.920  1.00  0.00     0.170 HD
HETATM   15  O   UNL     1       8.958  -5.644  26.037  1.00  0.00    -0.267 OA
BRANCH  13  16
HETATM   16  C   UNL     1       6.554  -5.367  27.602  1.00  0.00     0.144 C 
HETATM   17  N   UNL     1       7.144  -6.449  28.186  1.00  0.00    -0.284 N 
HETATM   18  N   UNL     1       6.922  -7.009  29.264  1.00  0.00    -0.310 N 
ATOM     19  HN  UNL     1       7.897  -6.867  27.639  1.00  0.00     0.188 HD
HETATM   20  C   UNL     1       6.081  -6.372  29.816  1.00  0.00     0.109 C 
ATOM     21  HN  UNL     1       7.372  -7.855  29.615  1.00  0.00     0.186 HD
HETATM   22  C   UNL     1       5.521  -5.362  29.484  1.00  0.00     0.046 C 
HETATM   23  C   UNL     1       5.608  -4.658  28.429  1.00  0.00     0.080 C 
HETATM   24 CL   UNL     1       4.819  -3.264  28.048  1.00  0.00    -0.080 Cl
ENDBRANCH  13  16
ENDBRANCH  11  12
BRANCH   1  25
HETATM   25  C   UNL     1       8.781  -2.661  22.801  1.00  0.00    -0.019 C 
BRANCH  25  26
HETATM   26  N   UNL     1       9.498  -2.004  22.169  1.00  0.00    -0.236 N 
ATOM     27  HN  UNL     1       9.296  -2.045  21.170  1.00  0.00     0.189 HD
BRANCH  26  28
HETATM   28  S   UNL     1      10.778  -1.016  22.525  1.00  0.00     0.327 S 
HETATM   29 CL   UNL     1      10.824  -0.768  24.394  1.00  0.00     0.042 Cl
HETATM   30  O   UNL     1      11.999  -1.678  22.210  1.00  0.00    -0.188 OA
HETATM   31  O   UNL     1      10.605   0.251  21.915  1.00  0.00    -0.188 OA
ENDBRANCH  26  28
ENDBRANCH  25  26
ENDBRANCH   1  25
TORSDOF 5
ENDMDL
MODEL 5
REMARK VINA RESULT:    -7.731      3.446      6.800
REMARK INTER + INTRA:         -10.822
REMARK INTER:                  -9.862
REMARK INTRA:                  -0.960
REMARK UNBOUND:                -0.831
REMARK  5 active torsions:
REMARK  status: ('A' for Active; 'I' for Inactive)
REMARK    1  A    between atoms: S_2  and  N_5 
REMARK    2  A    between atoms: N_5  and  C_7 
REMARK    3  A    between atoms: C_7  and  C_8 
REMARK    4  A    between atoms: C_18  and  C_19 
REMARK       I    between atoms: C_19  and  N_21 
REMARK    5  A    between atoms: N_21  and  C_23 
ROOT
HETATM    1  C   UNL     1       6.718  -3.870  23.871  1.00  0.00     0.059 A 
HETATM    2  C   UNL     1       7.754  -2.795  23.590  1.00  0.00     0.136 A 
HETATM    3  C   UNL     1       7.713  -1.647  24.414  1.00  0.00     0.035 C 
HETATM    4  C   UNL     1       8.757  -1.207  24.307  1.00  0.00     0.107 C 
HETATM    5  N   UNL     1       9.852  -1.347  23.910  1.00  0.00    -0.298 N 
ATOM      6  HN  UNL     1      10.622  -0.696  24.059  1.00  0.00     0.187 HD
HETATM    7  N   UNL     1       9.923  -2.412  23.281  1.00  0.00    -0.246 N 
ATOM      8  HN  UNL     1      10.805  -2.618  22.812  1.00  0.00     0.208 HD
HETATM    9  N   UNL     1       9.040  -3.228  23.174  1.00  0.00    -0.298 N 
ATOM     10  HN  UNL     1       9.206  -4.165  22.810  1.00  0.00     0.183 HD
HETATM   11  C   UNL     1       6.717  -3.057  22.843  1.00  0.00     0.067 A 
ENDROOT
BRANCH  11  12
HETATM   12  C   UNL     1       6.052  -2.596  21.484  1.00  0.00     0.257 C 
HETATM   13  N   UNL     1       6.403  -1.366  21.223  1.00  0.00    -0.307 N 
ATOM     14  HN  UNL     1       6.970  -0.895  21.926  1.00  0.00     0.170 HD
HETATM   15  O   UNL     1       5.342  -3.346  20.912  1.00  0.00    -0.267 OA
BRANCH  13  16
HETATM   16  C   UNL     1       6.103  -0.673  20.152  1.00  0.00     0.144 C 
HETATM   17  N   UNL     1       5.604  -1.217  19.005  1.00  0.00    -0.284 N 
HETATM   18  N   UNL     1       5.367  -0.711  17.904  1.00  0.00    -0.310 N 
ATOM     19  HN  UNL     1       5.390  -2.213  19.068  1.00  0.00     0.188 HD
HETATM   20  C   UNL     1       5.593   0.453  18.006  1.00  0.00     0.109 C 
ATOM     21  HN  UNL     1       5.042  -1.197  17.068  1.00  0.00     0.186 HD
HETATM   22  C   UNL     1       5.954   1.101  18.951  1.00  0.00     0.046 C 
HETATM   23  C   UNL     1       6.250   0.763  20.140  1.00  0.00     0.080 C 
HETATM   24 CL   UNL     1       6.722   1.714  21.399  1.00  0.00    -0.080 Cl
ENDBRANCH  13  16
ENDBRANCH  11  12
BRANCH   1  25
HETATM   25  C   UNL     1       6.394  -4.818  24.706  1.00  0.00    -0.019 C 
BRANCH  25  26
HETATM   26  N   UNL     1       6.396  -5.620  25.544  1.00  0.00    -0.236 N 
ATOM     27  HN  UNL     1       6.268  -6.567  25.187  1.00  0.00     0.189 HD
BRANCH  26  28
HETATM   28  S   UNL     1       6.560  -5.573  27.191  1.00  0.00     0.327 S 
HETATM   29 CL   UNL     1       5.508  -4.150  27.843  1.00  0.00     0.042 Cl
HETATM   30  O   UNL     1       5.989  -6.746  27.764  1.00  0.00    -0.188 OA
HETATM   31  O   UNL     1       7.909  -5.325  27.545  1.00  0.00    -0.188 OA
ENDBRANCH  26  28
ENDBRANCH  25  26
ENDBRANCH   1  25
TORSDOF 5
ENDMDL
MODEL 6
REMARK VINA RESULT:    -7.682      3.044      4.712
REMARK INTER + INTRA:         -10.758
REMARK INTER:                  -9.942
REMARK INTRA:                  -0.817
REMARK UNBOUND:                -0.831
REMARK  5 active torsions:
REMARK  status: ('A' for Active; 'I' for Inactive)
REMARK    1  A    between atoms: S_2  and  N_5 
REMARK    2  A    between atoms: N_5  and  C_7 
REMARK    3  A    between atoms: C_7  and  C_8 
REMARK    4  A    between atoms: C_18  and  C_19 
REMARK       I    between atoms: C_19  and  N_21 
REMARK    5  A    between atoms: N_21  and  C_23 
ROOT
HETATM    1  C   UNL     1       6.831  -1.483  21.638  1.00  0.00     0.059 A 
HETATM    2  C   UNL     1       6.660  -0.172  20.890  1.00  0.00     0.136 A 
HETATM    3  C   UNL     1       6.577  -0.255  19.481  1.00  0.00     0.035 C 
HETATM    4  C   UNL     1       6.069   0.721  19.188  1.00  0.00     0.107 C 
HETATM    5  N   UNL     1       5.504   1.685  19.543  1.00  0.00    -0.298 N 
ATOM      6  HN  UNL     1       5.103   2.394  18.929  1.00  0.00     0.187 HD
HETATM    7  N   UNL     1       5.474   1.706  20.781  1.00  0.00    -0.246 N 
ATOM      8  HN  UNL     1       5.079   2.536  21.223  1.00  0.00     0.208 HD
HETATM    9  N   UNL     1       5.871   0.830  21.510  1.00  0.00    -0.298 N 
ATOM     10  HN  UNL     1       5.653   0.811  22.507  1.00  0.00     0.183 HD
HETATM   11  C   UNL     1       7.758  -0.574  21.468  1.00  0.00     0.067 A 
ENDROOT
BRANCH  11  12
HETATM   12  C   UNL     1       9.233  -0.077  21.752  1.00  0.00     0.257 C 
HETATM   13  N   UNL     1       9.782  -0.838  22.660  1.00  0.00    -0.307 N 
ATOM     14  HN  UNL     1       9.188  -1.558  23.070  1.00  0.00     0.170 HD
HETATM   15  O   UNL     1       9.636   0.873  21.178  1.00  0.00    -0.267 OA
BRANCH  13  16
HETATM   16  C   UNL     1      11.014  -0.773  23.101  1.00  0.00     0.144 C 
HETATM   17  N   UNL     1      12.012  -1.613  22.701  1.00  0.00    -0.284 N 
HETATM   18  N   UNL     1      13.177  -1.731  23.091  1.00  0.00    -0.310 N 
ATOM     19  HN  UNL     1      11.750  -2.252  21.950  1.00  0.00     0.188 HD
HETATM   20  C   UNL     1      13.355  -0.879  23.904  1.00  0.00     0.109 C 
ATOM     21  HN  UNL     1      13.857  -2.424  22.778  1.00  0.00     0.186 HD
HETATM   22  C   UNL     1      12.620  -0.018  24.309  1.00  0.00     0.046 C 
HETATM   23  C   UNL     1      11.409   0.252  24.037  1.00  0.00     0.080 C 
HETATM   24 CL   UNL     1      10.464   1.468  24.618  1.00  0.00    -0.080 Cl
ENDBRANCH  13  16
ENDBRANCH  11  12
BRANCH   1  25
HETATM   25  C   UNL     1       6.202  -2.563  22.013  1.00  0.00    -0.019 C 
BRANCH  25  26
HETATM   26  N   UNL     1       5.481  -3.469  22.090  1.00  0.00    -0.236 N 
ATOM     27  HN  UNL     1       4.532  -3.198  22.346  1.00  0.00     0.189 HD
BRANCH  26  28
HETATM   28  S   UNL     1       5.648  -5.102  21.879  1.00  0.00     0.327 S 
HETATM   29 CL   UNL     1       7.162  -5.667  22.851  1.00  0.00     0.042 Cl
HETATM   30  O   UNL     1       4.549  -5.780  22.481  1.00  0.00    -0.188 OA
HETATM   31  O   UNL     1       5.864  -5.402  20.511  1.00  0.00    -0.188 OA
ENDBRANCH  26  28
ENDBRANCH  25  26
ENDBRANCH   1  25
TORSDOF 5
ENDMDL
MODEL 7
REMARK VINA RESULT:    -7.610     18.655     20.269
REMARK INTER + INTRA:         -10.666
REMARK INTER:                  -9.635
REMARK INTRA:                  -1.031
REMARK UNBOUND:                -0.831
REMARK  5 active torsions:
REMARK  status: ('A' for Active; 'I' for Inactive)
REMARK    1  A    between atoms: S_2  and  N_5 
REMARK    2  A    between atoms: N_5  and  C_7 
REMARK    3  A    between atoms: C_7  and  C_8 
REMARK    4  A    between atoms: C_18  and  C_19 
REMARK       I    between atoms: C_19  and  N_21 
REMARK    5  A    between atoms: N_21  and  C_23 
ROOT
HETATM    1  C   UNL     1      -2.020 -16.293  10.744  1.00  0.00     0.059 A 
HETATM    2  C   UNL     1      -0.566 -16.564  10.400  1.00  0.00     0.136 A 
HETATM    3  C   UNL     1      -0.270 -17.839   9.863  1.00  0.00     0.035 C 
HETATM    4  C   UNL     1       0.724 -17.678   9.333  1.00  0.00     0.107 C 
HETATM    5  N   UNL     1       1.531 -16.914   8.957  1.00  0.00    -0.298 N 
ATOM      6  HN  UNL     1       2.359 -17.150   8.411  1.00  0.00     0.187 HD
HETATM    7  N   UNL     1       1.216 -15.774   9.329  1.00  0.00    -0.246 N 
ATOM      8  HN  UNL     1       1.877 -15.022   9.135  1.00  0.00     0.208 HD
HETATM    9  N   UNL     1       0.195 -15.477   9.900  1.00  0.00    -0.298 N 
ATOM     10  HN  UNL     1      -0.101 -14.508  10.014  1.00  0.00     0.183 HD
HETATM   11  C   UNL     1      -1.057 -16.502  11.607  1.00  0.00     0.067 A 
ENDROOT
BRANCH  11  12
HETATM   12  C   UNL     1      -0.587 -16.586  13.116  1.00  0.00     0.257 C 
HETATM   13  N   UNL     1      -1.603 -16.351  13.902  1.00  0.00    -0.307 N 
ATOM     14  HN  UNL     1      -2.482 -16.103  13.449  1.00  0.00     0.170 HD
HETATM   15  O   UNL     1       0.549 -16.806  13.349  1.00  0.00    -0.267 OA
BRANCH  13  16
HETATM   16  C   UNL     1      -1.613 -16.402  15.211  1.00  0.00     0.144 C 
HETATM   17  N   UNL     1      -0.550 -16.799  15.967  1.00  0.00    -0.284 N 
HETATM   18  N   UNL     1      -0.444 -16.984  17.184  1.00  0.00    -0.310 N 
ATOM     19  HN  UNL     1       0.304 -16.974  15.437  1.00  0.00     0.188 HD
HETATM   20  C   UNL     1      -1.485 -16.672  17.670  1.00  0.00     0.109 C 
ATOM     21  HN  UNL     1       0.376 -17.337  17.677  1.00  0.00     0.186 HD
HETATM   22  C   UNL     1      -2.483 -16.232  17.166  1.00  0.00     0.046 C 
HETATM   23  C   UNL     1      -2.777 -15.984  15.955  1.00  0.00     0.080 C 
HETATM   24 CL   UNL     1      -4.167 -15.358  15.335  1.00  0.00    -0.080 Cl
ENDBRANCH  13  16
ENDBRANCH  11  12
BRANCH   1  25
HETATM   25  C   UNL     1      -3.189 -16.042  10.222  1.00  0.00    -0.019 C 
BRANCH  25  26
HETATM   26  N   UNL     1      -4.283 -15.703  10.039  1.00  0.00    -0.236 N 
ATOM     27  HN  UNL     1      -4.815 -16.369   9.479  1.00  0.00     0.189 HD
BRANCH  26  28
HETATM   28  S   UNL     1      -5.176 -14.381  10.482  1.00  0.00     0.327 S 
HETATM   29 CL   UNL     1      -4.397 -12.857   9.689  1.00  0.00     0.042 Cl
HETATM   30  O   UNL     1      -6.479 -14.468   9.913  1.00  0.00    -0.188 OA
HETATM   31  O   UNL     1      -5.142 -14.213  11.888  1.00  0.00    -0.188 OA
ENDBRANCH  26  28
ENDBRANCH  25  26
ENDBRANCH   1  25
TORSDOF 5
ENDMDL
MODEL 8
REMARK VINA RESULT:    -7.529      2.992      6.311
REMARK INTER + INTRA:         -10.562
REMARK INTER:                  -9.596
REMARK INTRA:                  -0.965
REMARK UNBOUND:                -0.831
REMARK  5 active torsions:
REMARK  status: ('A' for Active; 'I' for Inactive)
REMARK    1  A    between atoms: S_2  and  N_5 
REMARK    2  A    between atoms: N_5  and  C_7 
REMARK    3  A    between atoms: C_7  and  C_8 
REMARK    4  A    between atoms: C_18  and  C_19 
REMARK       I    between atoms: C_19  and  N_21 
REMARK    5  A    between atoms: N_21  and  C_23 
ROOT
HETATM    1  C   UNL     1       8.905  -2.352  23.094  1.00  0.00     0.059 A 
HETATM    2  C   UNL     1      10.117  -1.444  23.212  1.00  0.00     0.136 A 
HETATM    3  C   UNL     1      10.187  -0.630  24.366  1.00  0.00     0.035 C 
HETATM    4  C   UNL     1      11.293  -0.370  24.440  1.00  0.00     0.107 C 
HETATM    5  N   UNL     1      12.381  -0.566  24.050  1.00  0.00    -0.298 N 
ATOM      6  HN  UNL     1      13.229  -0.142  24.427  1.00  0.00     0.187 HD
HETATM    7  N   UNL     1      12.338  -1.370  23.109  1.00  0.00    -0.246 N 
ATOM      8  HN  UNL     1      13.214  -1.568  22.624  1.00  0.00     0.208 HD
HETATM    9  N   UNL     1      11.350  -1.940  22.715  1.00  0.00    -0.298 N 
ATOM     10  HN  UNL     1      11.398  -2.727  22.067  1.00  0.00     0.183 HD
HETATM   11  C   UNL     1       9.119  -1.267  22.391  1.00  0.00     0.067 A 
ENDROOT
BRANCH  11  12
HETATM   12  C   UNL     1       8.652  -0.288  21.239  1.00  0.00     0.257 C 
HETATM   13  N   UNL     1       7.497  -0.681  20.775  1.00  0.00    -0.307 N 
ATOM     14  HN  UNL     1       7.122  -1.547  21.161  1.00  0.00     0.170 HD
HETATM   15  O   UNL     1       9.357   0.607  20.929  1.00  0.00    -0.267 OA
BRANCH  13  16
HETATM   16  C   UNL     1       6.769  -0.082  19.865  1.00  0.00     0.144 C 
HETATM   17  N   UNL     1       6.613  -0.540  18.590  1.00  0.00    -0.284 N 
HETATM   18  N   UNL     1       6.044  -0.041  17.613  1.00  0.00    -0.310 N 
ATOM     19  HN  UNL     1       7.037  -1.450  18.412  1.00  0.00     0.188 HD
HETATM   20  C   UNL     1       5.540   0.970  17.989  1.00  0.00     0.109 C 
ATOM     21  HN  UNL     1       6.013  -0.421  16.667  1.00  0.00     0.186 HD
HETATM   22  C   UNL     1       5.512   1.471  19.081  1.00  0.00     0.046 C 
HETATM   23  C   UNL     1       6.033   1.117  20.185  1.00  0.00     0.080 C 
HETATM   24 CL   UNL     1       5.935   1.848  21.657  1.00  0.00    -0.080 Cl
ENDBRANCH  13  16
ENDBRANCH  11  12
BRANCH   1  25
HETATM   25  C   UNL     1       8.367  -3.444  23.562  1.00  0.00    -0.019 C 
BRANCH  25  26
HETATM   26  N   UNL     1       7.757  -4.421  23.699  1.00  0.00    -0.236 N 
ATOM     27  HN  UNL     1       7.991  -4.916  24.560  1.00  0.00     0.189 HD
BRANCH  26  28
HETATM   28  S   UNL     1       6.592  -5.193  22.812  1.00  0.00     0.327 S 
HETATM   29 CL   UNL     1       5.668  -3.895  21.803  1.00  0.00     0.042 Cl
HETATM   30  O   UNL     1       7.207  -6.042  21.847  1.00  0.00    -0.188 OA
HETATM   31  O   UNL     1       5.662  -5.831  23.670  1.00  0.00    -0.188 OA
ENDBRANCH  26  28
ENDBRANCH  25  26
ENDBRANCH   1  25
TORSDOF 5
ENDMDL
MODEL 9
REMARK VINA RESULT:    -7.315      4.292      6.452
REMARK INTER + INTRA:         -10.285
REMARK INTER:                  -9.360
REMARK INTRA:                  -0.925
REMARK UNBOUND:                -0.831
REMARK  5 active torsions:
REMARK  status: ('A' for Active; 'I' for Inactive)
REMARK    1  A    between atoms: S_2  and  N_5 
REMARK    2  A    between atoms: N_5  and  C_7 
REMARK    3  A    between atoms: C_7  and  C_8 
REMARK    4  A    between atoms: C_18  and  C_19 
REMARK       I    between atoms: C_19  and  N_21 
REMARK    5  A    between atoms: N_21  and  C_23 
ROOT
HETATM    1  C   UNL     1       6.686  -4.991  25.179  1.00  0.00     0.059 A 
HETATM    2  C   UNL     1       6.414  -5.184  23.697  1.00  0.00     0.136 A 
HETATM    3  C   UNL     1       7.479  -5.696  22.921  1.00  0.00     0.035 C 
HETATM    4  C   UNL     1       6.956  -6.119  22.002  1.00  0.00     0.107 C 
HETATM    5  N   UNL     1       5.942  -6.403  21.486  1.00  0.00    -0.298 N 
ATOM      6  HN  UNL     1       5.849  -6.862  20.580  1.00  0.00     0.187 HD
HETATM    7  N   UNL     1       5.003  -6.058  22.217  1.00  0.00    -0.246 N 
ATOM      8  HN  UNL     1       4.059  -6.176  21.849  1.00  0.00     0.208 HD
HETATM    9  N   UNL     1       5.108  -5.594  23.326  1.00  0.00    -0.298 N 
ATOM     10  HN  UNL     1       4.310  -5.504  23.955  1.00  0.00     0.183 HD
HETATM   11  C   UNL     1       6.581  -4.034  24.291  1.00  0.00     0.067 A 
ENDROOT
BRANCH  11  12
HETATM   12  C   UNL     1       6.560  -2.485  23.967  1.00  0.00     0.257 C 
HETATM   13  N   UNL     1       7.248  -2.259  22.880  1.00  0.00    -0.307 N 
ATOM     14  HN  UNL     1       7.718  -3.062  22.463  1.00  0.00     0.170 HD
HETATM   15  O   UNL     1       5.995  -1.755  24.702  1.00  0.00    -0.267 OA
BRANCH  13  16
HETATM   16  C   UNL     1       7.397  -1.110  22.268  1.00  0.00     0.144 C 
HETATM   17  N   UNL     1       6.372  -0.254  21.993  1.00  0.00    -0.284 N 
HETATM   18  N   UNL     1       6.346   0.801  21.351  1.00  0.00    -0.310 N 
ATOM     19  HN  UNL     1       5.471  -0.532  22.384  1.00  0.00     0.188 HD
HETATM   20  C   UNL     1       7.468   1.032  21.026  1.00  0.00     0.109 C 
ATOM     21  HN  UNL     1       5.524   1.366  21.140  1.00  0.00     0.186 HD
HETATM   22  C   UNL     1       8.487   0.435  21.251  1.00  0.00     0.046 C 
HETATM   23  C   UNL     1       8.707  -0.651  21.874  1.00  0.00     0.080 C 
HETATM   24 CL   UNL     1      10.141  -1.405  22.163  1.00  0.00    -0.080 Cl
ENDBRANCH  13  16
ENDBRANCH  11  12
BRANCH   1  25
HETATM   25  C   UNL     1       6.837  -5.630  26.307  1.00  0.00    -0.019 C 
BRANCH  25  26
HETATM   26  N   UNL     1       7.132  -5.945  27.383  1.00  0.00    -0.236 N 
ATOM     27  HN  UNL     1       8.140  -6.035  27.508  1.00  0.00     0.189 HD
BRANCH  26  28
HETATM   28  S   UNL     1       6.282  -6.283  28.764  1.00  0.00     0.327 S 
HETATM   29 CL   UNL     1       4.483  -6.583  28.285  1.00  0.00     0.042 Cl
HETATM   30  O   UNL     1       6.729  -7.519  29.313  1.00  0.00    -0.188 OA
HETATM   31  O   UNL     1       6.326  -5.179  29.651  1.00  0.00    -0.188 OA
ENDBRANCH  26  28
ENDBRANCH  25  26
ENDBRANCH   1  25
TORSDOF 5
ENDMDL
