stable:False satoms:8 tatoms:24 sratio:0.3333333333333333
  -OEChem-08062414233D

 42 42  0     1  0  0  0  0  0999 V2000
    6.6160   -5.4819   26.1405 C   0  0  0  0  0  0  0  0  0  0  0  0
    8.2760   -4.8369   25.8885 S   0  0  0  0  0  0  0  0  0  0  0  0
    9.1491   -5.9799   25.8032 O   0  0  0  0  0  0  0  0  0  0  0  0
    8.5871   -3.9777   26.9937 O   0  0  0  0  0  0  0  0  0  0  0  0
    8.1767   -4.0745   24.4897 N   0  0  0  0  0  0  0  0  0  0  0  0
    8.9896   -3.2829   24.0540 C   0  0  0  0  0  0  0  0  0  0  0  0
    9.4369   -2.3494   23.5586 C   0  0  0  0  0  0  0  0  0  0  0  0
   10.3766   -1.3406   23.3636 C   0  0  1  0  0  0  0  0  0  0  0  0
   10.9990   -0.3985   24.3655 C   0  0  0  0  0  0  0  0  0  0  0  0
   12.1267    0.0125   24.4150 C   0  0  0  0  0  0  0  0  0  0  0  0
   13.1253    0.0743   24.0929 C   0  0  0  0  0  0  0  0  0  0  0  0
   12.7681   -1.5537   22.5103 C   0  0  0  0  0  0  0  0  0  0  0  0
   11.9036   -1.7021   22.6634 C   0  0  0  0  0  0  0  0  0  0  0  0
    9.6991   -0.8727   22.4715 C   0  0  0  0  0  0  0  0  0  0  0  0
    9.0380   -0.1908   21.5057 C   0  0  0  0  0  0  0  0  0  0  0  0
    9.4893    0.8206   21.1597 O   0  0  0  0  0  0  0  0  0  0  0  0
    7.9295   -0.8044   21.1291 N   0  0  0  0  0  0  0  0  0  0  0  0
    7.2218   -0.3490   20.2010 C   0  0  0  0  0  0  0  0  0  0  0  0
    7.3314   -0.1679   18.8544 C   0  0  0  0  0  0  0  0  0  0  0  0
    7.0185    0.1579   17.7878 N   0  0  0  0  0  0  0  0  0  0  0  0
    5.7823    0.6420   18.1752 C   0  0  0  0  0  0  0  0  0  0  0  0
    5.3231    0.5880   19.2881 C   0  0  0  0  0  0  0  0  0  0  0  0
    5.8136    0.1889   20.4602 C   0  0  0  0  0  0  0  0  0  0  0  0
    5.1614    0.2632   21.9608 Br  0  0  0  0  0  0  0  0  0  0  0  0
    6.5766   -6.0327   27.0918 H   0  0  0  0  0  0  0  0  0  0  0  0
    5.8993   -4.6480   26.1698 H   0  0  0  0  0  0  0  0  0  0  0  0
    6.3566   -6.1594   25.3136 H   0  0  0  0  0  0  0  0  0  0  0  0
    7.3124   -3.5727   24.5240 H   0  0  0  0  0  0  0  0  0  0  0  0
   10.3790    0.5085   24.3106 H   0  0  0  0  0  0  0  0  0  0  0  0
   10.8438   -0.8904   25.3371 H   0  0  0  0  0  0  0  0  0  0  0  0
   12.0994    0.6947   25.2519 H   0  0  0  0  0  0  0  0  0  0  0  0
   13.8186    0.7250   24.6052 H   0  0  0  0  0  0  0  0  0  0  0  0
   13.4581   -0.5128   23.2498 H   0  0  0  0  0  0  0  0  0  0  0  0
   13.2565   -0.6992   22.9549 H   0  0  0  0  0  0  0  0  0  0  0  0
   13.3284   -2.2284   21.8799 H   0  0  0  0  0  0  0  0  0  0  0  0
   11.7070   -2.6028   22.1008 H   0  0  0  0  0  0  0  0  0  0  0  0
    8.7626   -1.1578   22.9732 H   0  0  0  0  0  0  0  0  0  0  0  0
    9.9956   -1.6664   21.7700 H   0  0  0  0  0  0  0  0  0  0  0  0
    7.6513   -1.6458   21.5925 H   0  0  0  0  0  0  0  0  0  0  0  0
    8.3110   -0.5824   18.6670 H   0  0  0  0  0  0  0  0  0  0  0  0
    5.1754    1.1094   17.4138 H   0  0  0  0  0  0  0  0  0  0  0  0
    4.3022    0.9351   19.3472 H   0  0  0  0  0  0  0  0  0  0  0  0
 20 21  2  0  0  0  0
 19 20  1  0  0  0  0
 21 22  1  0  0  0  0
 18 19  2  0  0  0  0
 22 23  2  0  0  0  0
 18 23  1  0  0  0  0
 17 18  1  0  0  0  0
 23 24  1  0  0  0  0
 15 16  2  0  0  0  0
 15 17  1  0  0  0  0
 14 15  1  0  0  0  0
 12 13  2  0  0  0  0
  8 14  1  0  0  0  0
  8 13  1  0  0  0  0
  7  8  1  0  0  0  0
  8  9  1  0  0  0  0
  6  7  3  0  0  0  0
 10 11  2  0  0  0  0
  5  6  1  0  0  0  0
  9 10  1  0  0  0  0
  2  5  1  0  0  0  0
  2  3  2  0  0  0  0
  1  2  1  0  0  0  0
  2  4  2  0  0  0  0
  1 25  1  0  0  0  0
  1 26  1  0  0  0  0
  1 27  1  0  0  0  0
  5 28  1  0  0  0  0
  9 29  1  0  0  0  0
  9 30  1  0  0  0  0
 10 31  1  0  0  0  0
 11 32  1  0  0  0  0
 11 33  1  0  0  0  0
 12 34  1  0  0  0  0
 12 35  1  0  0  0  0
 13 36  1  0  0  0  0
 14 37  1  0  0  0  0
 14 38  1  0  0  0  0
 17 39  1  0  0  0  0
 19 40  1  0  0  0  0
 21 41  1  0  0  0  0
 22 42  1  0  0  0  0
M  END
> <Chemgauss4>
-12.739793

$$$$
