stable:False satoms:18 tatoms:24 sratio:0.75
  -OEChem-07092417293D

 24 23  0     0  0  0  0  0  0999 V2000
    7.3343    0.3680   20.0090 O   0  0  0  0  0  0  0  0  0  0  0  0
    7.3232   -1.4992   22.6041 C   0  0  0  0  0  0  0  0  0  0  0  0
   13.1793    0.7944   24.0536 H   0  0  0  0  0  0  0  0  0  0  0  0
    8.6623    0.3827   20.2087 N   0  0  0  0  0  0  0  0  0  0  0  0
    9.1274   -0.3020   21.2912 C   0  0  0  0  0  0  0  0  0  0  0  0
    7.0683   -3.6658   25.1002 H   0  0  0  0  0  0  0  0  0  0  0  0
    4.7513   -2.4546   23.4972 O   0  0  0  0  0  0  0  0  0  0  0  0
    6.9336    0.5775   20.8535 H   0  0  0  0  0  0  0  0  0  0  0  0
   11.6033   -0.3244   21.4223 N   0  0  0  0  0  0  0  0  0  0  0  0
    7.7129   -2.5511   23.5976 C   0  3  0  0  0  0  0  0  0  0  0  0
   11.4497    0.5532   23.8926 H   0  0  0  0  0  0  0  0  0  0  0  0
    9.1011    1.2716   20.1091 H   0  0  0  0  0  0  0  0  0  0  0  0
   12.4077    0.3848   22.0845 C   0  3  0  0  0  0  0  0  0  0  0  0
   12.4155    0.2210   23.5405 C   0  0  0  0  0  0  0  0  0  0  0  0
   10.3644   -0.3905   21.5430 N   0  0  0  0  0  0  0  0  0  0  0  0
    5.5386   -3.2690   23.7788 C   0  0  0  0  0  0  0  0  0  0  0  0
   13.0612    1.0707   21.5841 H   0  0  0  0  0  0  0  0  0  0  0  0
    3.9183   -4.8040   22.6944 O   0  0  0  0  0  0  0  0  0  0  0  0
    8.7291   -2.7676   23.6799 H   0  0  0  0  0  0  0  0  0  0  0  0
   12.5840   -0.8281   23.7542 H   0  0  0  0  0  0  0  0  0  0  0  0
    6.7883   -3.1477   24.2933 N   0  0  0  0  0  0  0  0  0  0  0  0
    8.0844   -0.8734   22.0209 C   0  0  0  0  0  0  0  0  0  0  0  0
    6.2725   -1.1209   22.2170 O   0  0  0  0  0  0  0  0  0  0  0  0
    5.1734   -4.9156   23.4672 S   0  0  0  0  0  0  0  0  0  0  0  0
  1  4  1  0  0  0  0
  1  8  1  0  0  0  0
  4 12  1  0  0  0  0
  4  5  1  0  0  0  0
  5 15  2  0  0  0  0
  5 22  1  0  0  0  0
  9 15  1  0  0  0  0
  9 13  1  0  0  0  0
 13 17  1  0  0  0  0
  2 22  1  0  0  0  0
 13 14  1  0  0  0  0
  2 23  2  0  0  0  0
  2 10  1  0  0  0  0
 18 24  1  0  0  0  0
 16 24  1  0  0  0  0
  7 16  2  0  0  0  0
 14 20  1  0  0  0  0
 11 14  1  0  0  0  0
  3 14  1  0  0  0  0
 10 19  1  0  0  0  0
 10 21  1  0  0  0  0
 16 21  1  0  0  0  0
  6 21  1  0  0  0  0
M  CHG  2  10   1  13   1
M  END
> <Shapegauss>
-133.155273

$$$$
