stable:False satoms:18 tatoms:24 sratio:0.75
  -OEChem-08052415103D

 27 26  0     0  0  0  0  0  0999 V2000
   -7.6840   -2.0992  -26.9266 O   0  0  0  0  0  0  0  0  0  0  0  0
   -9.1900   -2.1353  -24.1067 C   0  0  0  0  0  0  0  0  0  0  0  0
   -4.3768   -5.7579  -21.7904 H   0  0  0  0  0  0  0  0  0  0  0  0
   -7.0478   -3.1735  -26.4318 N   0  0  0  0  0  0  0  0  0  0  0  0
   -7.3763   -3.5510  -25.1643 C   0  0  0  0  0  0  0  0  0  0  0  0
  -11.0792   -2.1186  -21.3827 H   0  0  0  0  0  0  0  0  0  0  0  0
  -11.1676   -0.0798  -23.6719 O   0  0  0  0  0  0  0  0  0  0  0  0
   -7.6331   -1.4223  -26.2508 H   0  0  0  0  0  0  0  0  0  0  0  0
   -6.2485   -5.6448  -24.4630 N   0  3  0  0  0  0  0  0  0  0  0  0
   -9.8837   -2.6304  -22.8742 C   0  0  0  0  0  2  0  0  0  0  0  0
   -5.3962   -4.4248  -22.2994 H   0  0  0  0  0  0  0  0  0  0  0  0
   -6.0643   -3.1995  -26.5889 H   0  0  0  0  0  0  0  0  0  0  0  0
   -5.2109   -5.8405  -23.7748 C   0  0  0  0  0  2  0  0  0  0  0  0
   -5.2666   -5.4960  -22.3518 C   0  0  0  0  0  0  0  0  0  0  0  0
   -6.8703   -4.5762  -24.6217 N   0  0  0  0  0  0  0  0  0  0  0  0
  -11.5099   -1.0204  -23.0714 C   0  0  0  0  0  0  0  0  0  0  0  0
  -13.6795   -0.5995  -24.1998 O   0  0  0  0  0  0  0  0  0  0  0  0
   -6.1056   -6.0259  -21.9160 H   0  0  0  0  0  0  0  0  0  0  0  0
  -10.7968   -1.8911  -22.3135 N   0  0  0  0  0  0  0  0  0  0  0  0
   -8.3196   -2.6896  -24.6030 C   0  0  0  0  0  0  0  0  0  0  0  0
   -9.3615   -1.1854  -24.7887 O   0  0  0  0  0  0  0  0  0  0  0  0
  -13.1549   -1.4994  -23.1511 S   0  0  0  0  0  0  0  0  0  0  0  0
   -6.9250   -6.2790  -24.0885 H   0  0  0  0  0  0  0  0  0  0  0  0
  -12.9940   -0.0036  -24.4783 H   0  0  0  0  0  0  0  0  0  0  0  0
   -7.5784   -2.2339  -23.9300 H   0  0  0  0  0  0  0  0  0  0  0  0
   -8.3962   -2.0914  -25.5230 H   0  0  0  0  0  0  0  0  0  0  0  0
   -5.9980   -5.9325  -25.3874 H   0  0  0  0  0  0  0  0  0  0  0  0
  1  4  1  0  0  0  0
  1  8  1  0  0  0  0
  4 12  1  0  0  0  0
  4  5  1  0  0  0  0
  5 15  2  0  0  0  0
  5 20  1  0  0  0  0
  9 15  1  0  0  0  0
  9 13  1  0  0  0  0
  2 20  1  0  0  0  0
 13 14  1  0  0  0  0
  2 21  2  0  0  0  0
  2 10  1  0  0  0  0
 17 22  1  0  0  0  0
 16 22  1  0  0  0  0
  7 16  2  0  0  0  0
 14 18  1  0  0  0  0
 11 14  1  0  0  0  0
  3 14  1  0  0  0  0
 10 19  1  0  0  0  0
 16 19  1  0  0  0  0
  6 19  1  0  0  0  0
  9 23  1  0  0  0  0
 17 24  1  0  0  0  0
 20 25  1  0  0  0  0
 20 26  1  0  0  0  0
  9 27  1  0  0  0  0
M  CHG  1   9   1
M  END
> <Chemgauss4>
-5.821730

$$$$
