stable:False satoms:18 tatoms:24 sratio:0.75
  -OEChem-08052415103D

 27 26  0     0  0  0  0  0  0999 V2000
    7.7998   -1.3685   26.9047 O   0  0  0  0  0  0  0  0  0  0  0  0
    9.2643   -1.7195   24.0846 C   0  0  0  0  0  0  0  0  0  0  0  0
    4.1079   -5.0090   22.0240 H   0  0  0  0  0  0  0  0  0  0  0  0
    7.0604   -2.4066   26.4812 N   0  0  0  0  0  0  0  0  0  0  0  0
    7.3380   -2.8906   25.2380 C   0  0  0  0  0  0  0  0  0  0  0  0
   11.1164   -2.0484   21.3549 H   0  0  0  0  0  0  0  0  0  0  0  0
   11.4207    0.1101   23.5122 O   0  0  0  0  0  0  0  0  0  0  0  0
    7.8049   -0.7327   26.1883 H   0  0  0  0  0  0  0  0  0  0  0  0
    6.0116   -4.9082   24.6745 N   0  3  0  0  0  0  0  0  0  0  0  0
    9.8949   -2.3527   22.8817 C   0  0  0  0  0  2  0  0  0  0  0  0
    5.2532   -3.7489   22.4436 H   0  0  0  0  0  0  0  0  0  0  0  0
    6.0806   -2.3302   26.6448 H   0  0  0  0  0  0  0  0  0  0  0  0
    4.9527   -5.0474   24.0053 C   0  0  0  0  0  2  0  0  0  0  0  0
    5.0244   -4.7979   22.5633 C   0  0  0  0  0  0  0  0  0  0  0  0
    6.7324   -3.8951   24.7630 N   0  0  0  0  0  0  0  0  0  0  0  0
   11.6668   -0.8937   22.9697 C   0  0  0  0  0  0  0  0  0  0  0  0
   13.8786   -0.6101   24.0582 O   0  0  0  0  0  0  0  0  0  0  0  0
    5.8054   -5.4302   22.1569 H   0  0  0  0  0  0  0  0  0  0  0  0
   10.8669   -1.7384   22.2712 N   0  0  0  0  0  0  0  0  0  0  0  0
    8.3515   -2.1579   24.6191 C   0  0  0  0  0  0  0  0  0  0  0  0
    9.5315   -0.7498   24.7052 O   0  0  0  0  0  0  0  0  0  0  0  0
   13.2605   -1.5195   23.0703 S   0  0  0  0  0  0  0  0  0  0  0  0
    6.6215   -5.6250   24.3366 H   0  0  0  0  0  0  0  0  0  0  0  0
   13.2550    0.0637   24.3026 H   0  0  0  0  0  0  0  0  0  0  0  0
    7.6488   -1.6768   23.9229 H   0  0  0  0  0  0  0  0  0  0  0  0
    8.4939   -1.5141   25.4996 H   0  0  0  0  0  0  0  0  0  0  0  0
    5.7455   -5.1136   25.6164 H   0  0  0  0  0  0  0  0  0  0  0  0
  1  4  1  0  0  0  0
  1  8  1  0  0  0  0
  4 12  1  0  0  0  0
  4  5  1  0  0  0  0
  5 15  2  0  0  0  0
  5 20  1  0  0  0  0
  9 15  1  0  0  0  0
  9 13  1  0  0  0  0
  2 20  1  0  0  0  0
 13 14  1  0  0  0  0
  2 21  2  0  0  0  0
  2 10  1  0  0  0  0
 17 22  1  0  0  0  0
 16 22  1  0  0  0  0
  7 16  2  0  0  0  0
 14 18  1  0  0  0  0
 11 14  1  0  0  0  0
  3 14  1  0  0  0  0
 10 19  1  0  0  0  0
 16 19  1  0  0  0  0
  6 19  1  0  0  0  0
  9 23  1  0  0  0  0
 17 24  1  0  0  0  0
 20 25  1  0  0  0  0
 20 26  1  0  0  0  0
  9 27  1  0  0  0  0
M  CHG  1   9   1
M  END
> <Chemgauss4>
-5.439824

$$$$
