
 OpenBabel07202414153D

 62 66  0  0  1  0  0  0  0  0999 V2000
    8.9415   -8.8042   -1.8858 C   0  0  0  0  0  0  0  0  0  0  0  0
    9.9735   -7.5096   -2.5359 S   0  0  0  0  0  0  0  0  0  0  0  0
   11.0482   -7.2444   -1.6100 O   0  0  0  0  0  0  0  0  0  0  0  0
   10.2380   -7.8104   -3.9288 O   0  0  0  0  0  0  0  0  0  0  0  0
    8.8963   -6.1972   -2.5603 N   0  0  0  0  0  0  0  0  0  0  0  0
    8.9307   -5.3186   -1.4355 C   0  0  0  0  0  0  0  0  0  0  0  0
    9.8789   -4.3043   -1.3576 C   0  0  0  0  0  0  0  0  0  0  0  0
    9.9328   -3.4815   -0.2245 C   0  0  0  0  0  0  0  0  0  0  0  0
    9.0260   -3.6445    0.8515 C   0  0  0  0  0  0  0  0  0  0  0  0
    8.9601   -2.7965    1.9880 C   0  0  0  0  0  0  0  0  0  0  0  0
    9.8912   -1.7468    2.2086 N   0  0  0  0  0  0  0  0  0  0  0  0
    9.4626   -0.4498    2.4917 C   0  0  0  0  0  0  0  0  0  0  0  0
    8.2785   -0.1125    2.4596 O   0  0  0  0  0  0  0  0  0  0  0  0
   10.5834    0.5175    2.8880 C   0  0  3  0  0  0  0  0  0  0  0  0
   10.6826    0.5085    4.4259 C   0  0  0  0  0  0  0  0  0  0  0  0
    9.5457    1.2698    5.0260 N   0  0  0  0  0  0  0  0  0  0  0  0
    9.2794    0.9956    6.6883 S   0  0  0  0  0  0  0  0  0  0  0  0
    9.5686   -0.3987    6.9511 O   0  0  0  0  0  0  0  0  0  0  0  0
    9.9727    2.0452    7.3897 O   0  0  0  0  0  0  0  0  0  0  0  0
    7.4925    1.2189    6.8297 C   0  0  0  0  0  0  0  0  0  0  0  0
    7.1454    1.0398    8.2930 C   0  0  0  0  0  0  0  0  0  0  0  0
    7.6829    2.0269    9.2058 C   0  0  0  0  0  0  0  0  0  0  0  0
    8.0516    2.8273    9.9535 N   0  0  0  0  0  0  0  0  0  0  0  0
    5.7169    0.6081    8.6315 C   0  0  0  0  0  0  0  0  0  0  0  0
    6.8462   -0.3586    8.8185 C   0  0  0  0  0  0  0  0  0  0  0  0
    9.5922    2.7061    4.6441 C   0  0  0  0  0  0  0  0  0  0  0  0
    9.9228    2.9562    3.1875 C   0  0  0  0  0  0  0  0  0  0  0  0
    9.8078    4.2685    2.6919 C   0  0  0  0  0  0  0  0  0  0  0  0
   10.1388    4.5610    1.3705 C   0  0  0  0  0  0  0  0  0  0  0  0
   10.5903    3.5443    0.5365 C   0  0  0  0  0  0  0  0  0  0  0  0
   11.0023    3.9073   -1.0951 Cl  0  0  0  0  0  0  0  0  0  0  0  0
   10.7238    2.2365    1.0145 C   0  0  0  0  0  0  0  0  0  0  0  0
   10.4006    1.9298    2.3479 C   0  0  0  0  0  0  0  0  0  0  0  0
    7.9617   -3.0390    2.9345 C   0  0  0  0  0  0  0  0  0  0  0  0
    7.0680   -4.0498    2.8659 N   0  0  0  0  0  0  0  0  0  0  0  0
    7.1442   -4.8415    1.7752 C   0  0  0  0  0  0  0  0  0  0  0  0
    8.0704   -4.6874    0.7432 C   0  0  0  0  0  0  0  0  0  0  0  0
    8.0404   -5.5225   -0.3874 C   0  0  0  0  0  0  0  0  0  0  0  0
    9.5592   -9.7001   -1.7798 H   0  0  0  0  0  0  0  0  0  0  0  0
    8.1247   -8.9970   -2.5819 H   0  0  0  0  0  0  0  0  0  0  0  0
    8.5661   -8.5088   -0.9079 H   0  0  0  0  0  0  0  0  0  0  0  0
    8.9697   -5.7365   -3.4711 H   0  0  0  0  0  0  0  0  0  0  0  0
   10.5872   -4.1491   -2.1666 H   0  0  0  0  0  0  0  0  0  0  0  0
   10.6744   -2.6884   -0.2119 H   0  0  0  0  0  0  0  0  0  0  0  0
   10.8308   -1.8792    1.8572 H   0  0  0  0  0  0  0  0  0  0  0  0
   11.5334    0.1318    2.4943 H   0  0  0  0  0  0  0  0  0  0  0  0
   11.6272    0.9634    4.7496 H   0  0  0  0  0  0  0  0  0  0  0  0
   10.6726   -0.5299    4.7738 H   0  0  0  0  0  0  0  0  0  0  0  0
    7.0223    0.4608    6.1981 H   0  0  0  0  0  0  0  0  0  0  0  0
    7.2225    2.2177    6.4788 H   0  0  0  0  0  0  0  0  0  0  0  0
    5.0134    0.4256    7.8283 H   0  0  0  0  0  0  0  0  0  0  0  0
    5.2491    1.0069    9.5273 H   0  0  0  0  0  0  0  0  0  0  0  0
    6.8980   -1.2043    8.1407 H   0  0  0  0  0  0  0  0  0  0  0  0
    7.1490   -0.6059    9.8323 H   0  0  0  0  0  0  0  0  0  0  0  0
   10.3597    3.2219    5.2335 H   0  0  0  0  0  0  0  0  0  0  0  0
    8.6156    3.1562    4.8534 H   0  0  0  0  0  0  0  0  0  0  0  0
    9.4649    5.0730    3.3407 H   0  0  0  0  0  0  0  0  0  0  0  0
   10.0450    5.5807    1.0033 H   0  0  0  0  0  0  0  0  0  0  0  0
   11.0908    1.4646    0.3428 H   0  0  0  0  0  0  0  0  0  0  0  0
    7.8794   -2.4299    3.8315 H   0  0  0  0  0  0  0  0  0  0  0  0
    6.3948   -5.6290    1.7469 H   0  0  0  0  0  0  0  0  0  0  0  0
    7.2947   -6.3098   -0.4641 H   0  0  0  0  0  0  0  0  0  0  0  0
  1  2  1  0  0  0  0
  1 39  1  0  0  0  0
  1 40  1  0  0  0  0
  1 41  1  0  0  0  0
  2  3  2  0  0  0  0
  2  4  2  0  0  0  0
  2  5  1  0  0  0  0
  5  6  1  0  0  0  0
  5 42  1  0  0  0  0
  6  7  1  0  0  0  0
  6 38  2  0  0  0  0
  7  8  2  0  0  0  0
  7 43  1  0  0  0  0
  8  9  1  0  0  0  0
  8 44  1  0  0  0  0
  9 10  1  0  0  0  0
  9 37  2  0  0  0  0
 10 11  1  0  0  0  0
 10 34  2  0  0  0  0
 11 12  1  0  0  0  0
 11 45  1  0  0  0  0
 12 13  2  0  0  0  0
 12 14  1  0  0  0  0
 14 15  1  0  0  0  0
 14 33  1  0  0  0  0
 14 46  1  0  0  0  0
 15 16  1  0  0  0  0
 15 47  1  0  0  0  0
 15 48  1  0  0  0  0
 16 17  1  0  0  0  0
 16 26  1  0  0  0  0
 17 18  2  0  0  0  0
 17 19  2  0  0  0  0
 17 20  1  0  0  0  0
 20 21  1  0  0  0  0
 20 49  1  0  0  0  0
 20 50  1  0  0  0  0
 21 22  1  0  0  0  0
 21 24  1  0  0  0  0
 21 25  1  0  0  0  0
 22 23  3  0  0  0  0
 24 25  1  0  0  0  0
 24 51  1  0  0  0  0
 24 52  1  0  0  0  0
 25 53  1  0  0  0  0
 25 54  1  0  0  0  0
 26 27  1  0  0  0  0
 26 55  1  0  0  0  0
 26 56  1  0  0  0  0
 27 28  1  0  0  0  0
 27 33  2  0  0  0  0
 28 29  2  0  0  0  0
 28 57  1  0  0  0  0
 29 30  1  0  0  0  0
 29 58  1  0  0  0  0
 30 31  1  0  0  0  0
 30 32  2  0  0  0  0
 32 33  1  0  0  0  0
 32 59  1  0  0  0  0
 34 35  1  0  0  0  0
 34 60  1  0  0  0  0
 35 36  2  0  0  0  0
 36 37  1  0  0  0  0
 36 61  1  0  0  0  0
 37 38  1  0  0  0  0
 38 62  1  0  0  0  0
M  END
$$$$
