MODEL 1
REMARK VINA RESULT:    -5.093      0.000      0.000
REMARK INTER + INTRA:          -6.574
REMARK INTER:                  -6.284
REMARK INTRA:                  -0.289
REMARK UNBOUND:                -0.289
REMARK  4 active torsions:
REMARK  status: ('A' for Active; 'I' for Inactive)
REMARK    1  A    between atoms: C_3  and  C_4 
REMARK    2  A    between atoms: C_5  and  C_7 
REMARK    3  A    between atoms: C_6  and  C_7 
REMARK    4  A    between atoms: N_8  and  C_10 
ROOT
HETATM    1  C   UNL     1       8.613  -0.435  21.721  1.00  0.00     0.090 C 
HETATM    2  N   UNL     1       8.339  -0.157  20.461  1.00  0.00    -0.346 N 
ATOM      3  HN  UNL     1       9.144  -0.349  19.865  1.00  0.00     0.167 HD
ENDROOT
BRANCH   2   4
HETATM    4  C   UNL     1       7.350   0.284  19.764  1.00  0.00     0.148 C 
HETATM    5  S   UNL     1       6.006   1.191  20.435  1.00  0.00    -0.064 SA
HETATM    6  C   UNL     1       5.126   0.862  18.990  1.00  0.00     0.070 C 
HETATM    7  C   UNL     1       5.919   0.234  18.094  1.00  0.00     0.097 C 
HETATM    8  N   UNL     1       7.205   0.064  18.455  1.00  0.00    -0.346 N 
ATOM      9  HN  UNL     1       7.960  -0.195  17.820  1.00  0.00     0.167 HD
ENDBRANCH   2   4
BRANCH   1  10
HETATM   10  C   UNL     1       9.345  -1.504  22.080  1.00  0.00     0.017 C 
BRANCH  10  11
HETATM   11  C   UNL     1       9.485  -1.977  23.373  1.00  0.00     0.001 C 
HETATM   12  C   UNL     1      10.141  -1.277  24.397  1.00  0.00    -0.000 C 
BRANCH  12  13
HETATM   13  C   UNL     1      10.756  -0.012  24.650  1.00  0.00    -0.004 C 
HETATM   14  C   UNL     1      12.126   0.249  24.507  1.00  0.00    -0.031 C 
HETATM   15  C   UNL     1      13.323  -0.527  24.131  1.00  0.00     0.036 C 
ENDBRANCH  12  13
ENDBRANCH  10  11
ENDBRANCH   1  10
TORSDOF 4
ENDMDL
MODEL 2
REMARK VINA RESULT:    -4.899     22.983     24.724
REMARK INTER + INTRA:          -6.334
REMARK INTER:                  -6.038
REMARK INTRA:                  -0.297
REMARK UNBOUND:                -0.289
REMARK  4 active torsions:
REMARK  status: ('A' for Active; 'I' for Inactive)
REMARK    1  A    between atoms: C_3  and  C_4 
REMARK    2  A    between atoms: C_5  and  C_7 
REMARK    3  A    between atoms: C_6  and  C_7 
REMARK    4  A    between atoms: N_8  and  C_10 
ROOT
HETATM    1  C   UNL     1       3.256 -19.160   9.227  1.00  0.00     0.090 C 
HETATM    2  N   UNL     1       2.361 -18.416   8.607  1.00  0.00    -0.346 N 
ATOM      3  HN  UNL     1       2.570 -18.354   7.611  1.00  0.00     0.167 HD
ENDROOT
BRANCH   2   4
HETATM    4  C   UNL     1       1.300 -17.745   8.894  1.00  0.00     0.148 C 
HETATM    5  S   UNL     1      -0.298 -18.455   9.041  1.00  0.00    -0.064 SA
HETATM    6  C   UNL     1      -0.961 -16.869   8.916  1.00  0.00     0.070 C 
HETATM    7  C   UNL     1       0.029 -15.950   8.905  1.00  0.00     0.097 C 
HETATM    8  N   UNL     1       1.280 -16.421   9.066  1.00  0.00    -0.346 N 
ATOM      9  HN  UNL     1       2.095 -15.849   9.287  1.00  0.00     0.167 HD
ENDBRANCH   2   4
BRANCH   1  10
HETATM   10  C   UNL     1       3.764 -20.280   8.681  1.00  0.00     0.017 C 
BRANCH  10  11
HETATM   11  C   UNL     1       3.045 -21.208   7.949  1.00  0.00     0.001 C 
HETATM   12  C   UNL     1       2.594 -22.434   8.465  1.00  0.00    -0.000 C 
BRANCH  12  13
HETATM   13  C   UNL     1       2.538 -23.159   9.695  1.00  0.00    -0.004 C 
HETATM   14  C   UNL     1       3.100 -24.427   9.897  1.00  0.00    -0.031 C 
HETATM   15  C   UNL     1       3.836 -25.407   9.077  1.00  0.00     0.036 C 
ENDBRANCH  12  13
ENDBRANCH  10  11
ENDBRANCH   1  10
TORSDOF 4
ENDMDL
MODEL 3
REMARK VINA RESULT:    -4.794      3.581      4.309
REMARK INTER + INTRA:          -6.204
REMARK INTER:                  -5.789
REMARK INTRA:                  -0.416
REMARK UNBOUND:                -0.289
REMARK  4 active torsions:
REMARK  status: ('A' for Active; 'I' for Inactive)
REMARK    1  A    between atoms: C_3  and  C_4 
REMARK    2  A    between atoms: C_5  and  C_7 
REMARK    3  A    between atoms: C_6  and  C_7 
REMARK    4  A    between atoms: N_8  and  C_10 
ROOT
HETATM    1  C   UNL     1       9.662  -2.248  23.165  1.00  0.00     0.090 C 
HETATM    2  N   UNL     1       8.539  -2.535  22.535  1.00  0.00    -0.346 N 
ATOM      3  HN  UNL     1       8.308  -1.807  21.860  1.00  0.00     0.167 HD
ENDROOT
BRANCH   2   4
HETATM    4  C   UNL     1       7.651  -3.467  22.525  1.00  0.00     0.148 C 
HETATM    5  S   UNL     1       5.979  -3.221  22.052  1.00  0.00    -0.064 SA
HETATM    6  C   UNL     1       5.596  -4.722  22.806  1.00  0.00     0.070 C 
HETATM    7  C   UNL     1       6.725  -5.335  23.224  1.00  0.00     0.097 C 
HETATM    8  N   UNL     1       7.883  -4.722  22.917  1.00  0.00    -0.346 N 
ATOM      9  HN  UNL     1       8.806  -5.154  22.975  1.00  0.00     0.167 HD
ENDBRANCH   2   4
BRANCH   1  10
HETATM   10  C   UNL     1      10.717  -1.694  22.541  1.00  0.00     0.017 C 
BRANCH  10  11
HETATM   11  C   UNL     1      11.969  -1.513  23.100  1.00  0.00     0.001 C 
HETATM   12  C   UNL     1      12.275  -0.506  24.029  1.00  0.00    -0.000 C 
BRANCH  12  13
HETATM   13  C   UNL     1      11.639   0.526  24.786  1.00  0.00    -0.004 C 
HETATM   14  C   UNL     1      10.963   1.620  24.227  1.00  0.00    -0.031 C 
HETATM   15  C   UNL     1      10.682   2.115  22.867  1.00  0.00     0.036 C 
ENDBRANCH  12  13
ENDBRANCH  10  11
ENDBRANCH   1  10
TORSDOF 4
ENDMDL
MODEL 4
REMARK VINA RESULT:    -4.763      4.165      5.518
REMARK INTER + INTRA:          -6.166
REMARK INTER:                  -5.760
REMARK INTRA:                  -0.406
REMARK UNBOUND:                -0.289
REMARK  4 active torsions:
REMARK  status: ('A' for Active; 'I' for Inactive)
REMARK    1  A    between atoms: C_3  and  C_4 
REMARK    2  A    between atoms: C_5  and  C_7 
REMARK    3  A    between atoms: C_6  and  C_7 
REMARK    4  A    between atoms: N_8  and  C_10 
ROOT
HETATM    1  C   UNL     1       9.591  -1.761  23.158  1.00  0.00     0.090 C 
HETATM    2  N   UNL     1       9.113  -2.955  23.449  1.00  0.00    -0.346 N 
ATOM      3  HN  UNL     1       9.202  -3.584  22.652  1.00  0.00     0.167 HD
ENDROOT
BRANCH   2   4
HETATM    4  C   UNL     1       8.566  -3.558  24.447  1.00  0.00     0.148 C 
HETATM    5  S   UNL     1       8.208  -2.786  25.981  1.00  0.00    -0.064 SA
HETATM    6  C   UNL     1       8.036  -4.354  26.675  1.00  0.00     0.070 C 
HETATM    7  C   UNL     1       8.126  -5.301  25.715  1.00  0.00     0.097 C 
HETATM    8  N   UNL     1       8.249  -4.855  24.451  1.00  0.00    -0.346 N 
ATOM      9  HN  UNL     1       8.119  -5.426  23.615  1.00  0.00     0.167 HD
ENDBRANCH   2   4
BRANCH   1  10
HETATM   10  C   UNL     1      10.703  -1.591  22.420  1.00  0.00     0.017 C 
BRANCH  10  11
HETATM   11  C   UNL     1      11.991  -1.527  22.923  1.00  0.00     0.001 C 
HETATM   12  C   UNL     1      12.433  -0.543  23.822  1.00  0.00    -0.000 C 
BRANCH  12  13
HETATM   13  C   UNL     1      11.935   0.554  24.589  1.00  0.00    -0.004 C 
HETATM   14  C   UNL     1      11.252   1.655  24.052  1.00  0.00    -0.031 C 
HETATM   15  C   UNL     1      10.845   2.101  22.706  1.00  0.00     0.036 C 
ENDBRANCH  12  13
ENDBRANCH  10  11
ENDBRANCH   1  10
TORSDOF 4
ENDMDL
MODEL 5
REMARK VINA RESULT:    -4.402      4.263      6.597
REMARK INTER + INTRA:          -5.720
REMARK INTER:                  -5.267
REMARK INTRA:                  -0.453
REMARK UNBOUND:                -0.289
REMARK  4 active torsions:
REMARK  status: ('A' for Active; 'I' for Inactive)
REMARK    1  A    between atoms: C_3  and  C_4 
REMARK    2  A    between atoms: C_5  and  C_7 
REMARK    3  A    between atoms: C_6  and  C_7 
REMARK    4  A    between atoms: N_8  and  C_10 
ROOT
HETATM    1  C   UNL     1       7.977  -3.475  23.204  1.00  0.00     0.090 C 
HETATM    2  N   UNL     1       9.133  -2.903  22.928  1.00  0.00    -0.346 N 
ATOM      3  HN  UNL     1       9.629  -3.423  22.205  1.00  0.00     0.167 HD
ENDROOT
BRANCH   2   4
HETATM    4  C   UNL     1       9.817  -1.879  23.305  1.00  0.00     0.148 C 
HETATM    5  S   UNL     1      11.407  -1.479  22.681  1.00  0.00    -0.064 SA
HETATM    6  C   UNL     1      11.618  -0.425  24.027  1.00  0.00     0.070 C 
HETATM    7  C   UNL     1      10.476  -0.354  24.746  1.00  0.00     0.097 C 
HETATM    8  N   UNL     1       9.419  -1.026  24.252  1.00  0.00    -0.346 N 
ATOM      9  HN  UNL     1       8.454  -0.901  24.557  1.00  0.00     0.167 HD
ENDBRANCH   2   4
BRANCH   1  10
HETATM   10  C   UNL     1       7.194  -4.014  22.252  1.00  0.00     0.017 C 
BRANCH  10  11
HETATM   11  C   UNL     1       7.001  -5.369  22.053  1.00  0.00     0.001 C 
HETATM   12  C   UNL     1       6.082  -6.145  22.778  1.00  0.00    -0.000 C 
BRANCH  12  13
HETATM   13  C   UNL     1       5.054  -6.005  23.760  1.00  0.00    -0.004 C 
HETATM   14  C   UNL     1       5.281  -5.724  25.114  1.00  0.00    -0.031 C 
HETATM   15  C   UNL     1       6.460  -5.515  25.974  1.00  0.00     0.036 C 
ENDBRANCH  12  13
ENDBRANCH  10  11
ENDBRANCH   1  10
TORSDOF 4
ENDMDL
MODEL 6
REMARK VINA RESULT:    -4.385      2.510      6.341
REMARK INTER + INTRA:          -5.699
REMARK INTER:                  -5.375
REMARK INTRA:                  -0.324
REMARK UNBOUND:                -0.289
REMARK  4 active torsions:
REMARK  status: ('A' for Active; 'I' for Inactive)
REMARK    1  A    between atoms: C_3  and  C_4 
REMARK    2  A    between atoms: C_5  and  C_7 
REMARK    3  A    between atoms: C_6  and  C_7 
REMARK    4  A    between atoms: N_8  and  C_10 
ROOT
HETATM    1  C   UNL     1       8.401  -0.448  20.915  1.00  0.00     0.090 C 
HETATM    2  N   UNL     1       9.673  -0.138  21.072  1.00  0.00    -0.346 N 
ATOM      3  HN  UNL     1      10.115   0.037  20.170  1.00  0.00     0.167 HD
ENDROOT
BRANCH   2   4
HETATM    4  C   UNL     1      10.519   0.007  22.032  1.00  0.00     0.148 C 
HETATM    5  S   UNL     1      11.365  -1.322  22.803  1.00  0.00    -0.064 SA
HETATM    6  C   UNL     1      11.756  -0.258  24.100  1.00  0.00     0.070 C 
HETATM    7  C   UNL     1      11.352   0.999  23.810  1.00  0.00     0.097 C 
HETATM    8  N   UNL     1      10.818   1.184  22.588  1.00  0.00    -0.346 N 
ATOM      9  HN  UNL     1      10.664   2.092  22.150  1.00  0.00     0.167 HD
ENDBRANCH   2   4
BRANCH   1  10
HETATM   10  C   UNL     1       7.618   0.159  20.006  1.00  0.00     0.017 C 
BRANCH  10  11
HETATM   11  C   UNL     1       6.430  -0.348  19.510  1.00  0.00     0.001 C 
HETATM   12  C   UNL     1       5.253   0.406  19.372  1.00  0.00    -0.000 C 
BRANCH  12  13
HETATM   13  C   UNL     1       4.778   1.746  19.514  1.00  0.00    -0.004 C 
HETATM   14  C   UNL     1       4.959   2.537  20.657  1.00  0.00    -0.031 C 
HETATM   15  C   UNL     1       5.578   2.362  21.984  1.00  0.00     0.036 C 
ENDBRANCH  12  13
ENDBRANCH  10  11
ENDBRANCH   1  10
TORSDOF 4
ENDMDL
MODEL 7
REMARK VINA RESULT:    -4.303      3.024      4.258
REMARK INTER + INTRA:          -5.599
REMARK INTER:                  -5.300
REMARK INTRA:                  -0.299
REMARK UNBOUND:                -0.289
REMARK  4 active torsions:
REMARK  status: ('A' for Active; 'I' for Inactive)
REMARK    1  A    between atoms: C_3  and  C_4 
REMARK    2  A    between atoms: C_5  and  C_7 
REMARK    3  A    between atoms: C_6  and  C_7 
REMARK    4  A    between atoms: N_8  and  C_10 
ROOT
HETATM    1  C   UNL     1       8.008  -0.967  22.645  1.00  0.00     0.090 C 
HETATM    2  N   UNL     1       7.069  -1.854  22.383  1.00  0.00    -0.346 N 
ATOM      3  HN  UNL     1       6.254  -1.406  21.967  1.00  0.00     0.167 HD
ENDROOT
BRANCH   2   4
HETATM    4  C   UNL     1       6.882  -3.123  22.500  1.00  0.00     0.148 C 
HETATM    5  S   UNL     1       5.317  -3.861  22.788  1.00  0.00    -0.064 SA
HETATM    6  C   UNL     1       6.136  -5.303  23.255  1.00  0.00     0.070 C 
HETATM    7  C   UNL     1       7.464  -5.174  23.044  1.00  0.00     0.097 C 
HETATM    8  N   UNL     1       7.865  -4.027  22.463  1.00  0.00    -0.346 N 
ATOM      9  HN  UNL     1       8.786  -3.871  22.055  1.00  0.00     0.167 HD
ENDBRANCH   2   4
BRANCH   1  10
HETATM   10  C   UNL     1       8.282   0.057  21.816  1.00  0.00     0.017 C 
BRANCH  10  11
HETATM   11  C   UNL     1       9.541   0.382  21.341  1.00  0.00     0.001 C 
HETATM   12  C   UNL     1      10.531   1.013  22.110  1.00  0.00    -0.000 C 
BRANCH  12  13
HETATM   13  C   UNL     1      10.777   1.448  23.449  1.00  0.00    -0.004 C 
HETATM   14  C   UNL     1      11.749   0.900  24.297  1.00  0.00    -0.031 C 
HETATM   15  C   UNL     1      12.745  -0.185  24.213  1.00  0.00     0.036 C 
ENDBRANCH  12  13
ENDBRANCH  10  11
ENDBRANCH   1  10
TORSDOF 4
ENDMDL
MODEL 8
REMARK VINA RESULT:    -4.206     13.405     15.413
REMARK INTER + INTRA:          -5.480
REMARK INTER:                  -5.103
REMARK INTRA:                  -0.376
REMARK UNBOUND:                -0.289
REMARK  4 active torsions:
REMARK  status: ('A' for Active; 'I' for Inactive)
REMARK    1  A    between atoms: C_3  and  C_4 
REMARK    2  A    between atoms: C_5  and  C_7 
REMARK    3  A    between atoms: C_6  and  C_7 
REMARK    4  A    between atoms: N_8  and  C_10 
ROOT
HETATM    1  C   UNL     1      23.765  -2.085  21.187  1.00  0.00     0.090 C 
HETATM    2  N   UNL     1      23.149  -1.267  22.017  1.00  0.00    -0.346 N 
ATOM      3  HN  UNL     1      23.083  -0.331  21.619  1.00  0.00     0.167 HD
ENDROOT
BRANCH   2   4
HETATM    4  C   UNL     1      22.607  -1.306  23.184  1.00  0.00     0.148 C 
HETATM    5  S   UNL     1      23.513  -1.308  24.687  1.00  0.00    -0.064 SA
HETATM    6  C   UNL     1      22.088  -1.850  25.489  1.00  0.00     0.070 C 
HETATM    7  C   UNL     1      21.045  -1.862  24.630  1.00  0.00     0.097 C 
HETATM    8  N   UNL     1      21.290  -1.397  23.391  1.00  0.00    -0.346 N 
ATOM      9  HN  UNL     1      20.574  -1.149  22.708  1.00  0.00     0.167 HD
ENDBRANCH   2   4
BRANCH   1  10
HETATM   10  C   UNL     1      23.568  -2.045  19.857  1.00  0.00     0.017 C 
BRANCH  10  11
HETATM   11  C   UNL     1      22.641  -1.245  19.212  1.00  0.00     0.001 C 
HETATM   12  C   UNL     1      22.758  -0.830  17.876  1.00  0.00    -0.000 C 
BRANCH  12  13
HETATM   13  C   UNL     1      23.586  -1.027  16.729  1.00  0.00    -0.004 C 
HETATM   14  C   UNL     1      23.898  -2.279  16.178  1.00  0.00    -0.031 C 
HETATM   15  C   UNL     1      23.590  -3.686  16.494  1.00  0.00     0.036 C 
ENDBRANCH  12  13
ENDBRANCH  10  11
ENDBRANCH   1  10
TORSDOF 4
ENDMDL
MODEL 9
REMARK VINA RESULT:    -4.104      2.751      4.322
REMARK INTER + INTRA:          -5.353
REMARK INTER:                  -4.935
REMARK INTRA:                  -0.418
REMARK UNBOUND:                -0.289
REMARK  4 active torsions:
REMARK  status: ('A' for Active; 'I' for Inactive)
REMARK    1  A    between atoms: C_3  and  C_4 
REMARK    2  A    between atoms: C_5  and  C_7 
REMARK    3  A    between atoms: C_6  and  C_7 
REMARK    4  A    between atoms: N_8  and  C_10 
ROOT
HETATM    1  C   UNL     1       7.463  -1.210  22.278  1.00  0.00     0.090 C 
HETATM    2  N   UNL     1       7.355  -0.476  21.188  1.00  0.00    -0.346 N 
ATOM      3  HN  UNL     1       8.262  -0.366  20.735  1.00  0.00     0.167 HD
ENDROOT
BRANCH   2   4
HETATM    4  C   UNL     1       6.438   0.144  20.529  1.00  0.00     0.148 C 
HETATM    5  S   UNL     1       6.085  -0.145  18.835  1.00  0.00    -0.064 SA
HETATM    6  C   UNL     1       5.220   1.345  18.812  1.00  0.00     0.070 C 
HETATM    7  C   UNL     1       5.151   1.864  20.058  1.00  0.00     0.097 C 
HETATM    8  N   UNL     1       5.678   1.114  21.043  1.00  0.00    -0.346 N 
ATOM      9  HN  UNL     1       5.520   1.265  22.040  1.00  0.00     0.167 HD
ENDBRANCH   2   4
BRANCH   1  10
HETATM   10  C   UNL     1       8.265  -2.287  22.344  1.00  0.00     0.017 C 
BRANCH  10  11
HETATM   11  C   UNL     1       8.559  -2.993  23.497  1.00  0.00     0.001 C 
HETATM   12  C   UNL     1       8.025  -4.256  23.801  1.00  0.00    -0.000 C 
BRANCH  12  13
HETATM   13  C   UNL     1       7.209  -5.276  23.223  1.00  0.00    -0.004 C 
HETATM   14  C   UNL     1       5.861  -5.115  22.876  1.00  0.00    -0.031 C 
HETATM   15  C   UNL     1       4.862  -4.034  22.963  1.00  0.00     0.036 C 
ENDBRANCH  12  13
ENDBRANCH  10  11
ENDBRANCH   1  10
TORSDOF 4
ENDMDL
