
 OpenBabel07202414163D

 37 39  0  0  0  0  0  0  0  0999 V2000
    1.9479    3.6382    3.0004 C   0  0  0  0  0  0  0  0  0  0  0  0
    0.8825    4.0019    2.0014 C   0  0  0  0  0  0  0  0  0  0  0  0
   -0.1151    4.9053    2.4286 C   0  0  0  0  0  0  0  0  0  0  0  0
   -1.1685    5.2717    1.5949 C   0  0  0  0  0  0  0  0  0  0  0  0
   -1.2336    4.7427    0.3213 C   0  0  0  0  0  0  0  0  0  0  0  0
   -2.2576    5.0618   -0.4799 F   0  0  0  0  0  0  0  0  0  0  0  0
   -0.2527    3.8684   -0.1330 C   0  0  0  0  0  0  0  0  0  0  0  0
    0.8343    3.4862    0.6839 C   0  0  0  0  0  0  0  0  0  0  0  0
    1.7554    2.4330    0.0899 C   0  0  0  0  0  0  0  0  0  0  0  0
    3.2075    2.3918    0.5101 C   0  0  0  0  0  0  0  0  0  0  0  0
    3.6466    1.4744    1.1988 O   0  0  0  0  0  0  0  0  0  0  0  0
    3.9623    3.4497    0.0358 N   0  0  0  0  0  0  0  0  0  0  0  0
    5.3428    3.5930    0.3274 C   0  0  0  0  0  0  0  0  0  0  0  0
    6.2134    2.4998    0.2919 C   0  0  0  0  0  0  0  0  0  0  0  0
    7.5427    2.5699    0.5391 N   0  0  0  0  0  0  0  0  0  0  0  0
    8.0246    3.7801    0.8749 C   0  0  0  0  0  0  0  0  0  0  0  0
    7.2574    4.9477    0.9604 C   0  0  0  0  0  0  0  0  0  0  0  0
    7.8229    6.1710    1.3526 C   0  0  0  0  0  0  0  0  0  0  0  0
    7.0345    7.3157    1.4632 C   0  0  0  0  0  0  0  0  0  0  0  0
    5.6782    7.2505    1.1753 C   0  0  0  0  0  0  0  0  0  0  0  0
    5.1060    6.0411    0.7793 C   0  0  0  0  0  0  0  0  0  0  0  0
    5.8774    4.8607    0.6591 C   0  0  0  0  0  0  0  0  0  0  0  0
    1.6763    3.9740    4.0093 H   0  0  0  0  0  0  0  0  0  0  0  0
    2.8932    4.1237    2.7416 H   0  0  0  0  0  0  0  0  0  0  0  0
    2.0757    2.5527    3.0607 H   0  0  0  0  0  0  0  0  0  0  0  0
   -0.0883    5.3160    3.4384 H   0  0  0  0  0  0  0  0  0  0  0  0
   -1.9467    5.9465    1.9420 H   0  0  0  0  0  0  0  0  0  0  0  0
   -0.3683    3.4598   -1.1355 H   0  0  0  0  0  0  0  0  0  0  0  0
    1.7674    2.5462   -1.0037 H   0  0  0  0  0  0  0  0  0  0  0  0
    1.3210    1.4471    0.2938 H   0  0  0  0  0  0  0  0  0  0  0  0
    3.4501    4.2785   -0.2342 H   0  0  0  0  0  0  0  0  0  0  0  0
    5.8639    1.5062    0.0195 H   0  0  0  0  0  0  0  0  0  0  0  0
    9.0895    3.7929    1.0958 H   0  0  0  0  0  0  0  0  0  0  0  0
    8.8810    6.2377    1.5972 H   0  0  0  0  0  0  0  0  0  0  0  0
    7.4774    8.2542    1.7851 H   0  0  0  0  0  0  0  0  0  0  0  0
    5.0549    8.1356    1.2749 H   0  0  0  0  0  0  0  0  0  0  0  0
    4.0355    6.0375    0.5958 H   0  0  0  0  0  0  0  0  0  0  0  0
  1  2  1  0  0  0  0
  1 23  1  0  0  0  0
  1 24  1  0  0  0  0
  1 25  1  0  0  0  0
  2  3  1  0  0  0  0
  2  8  2  0  0  0  0
  3  4  2  0  0  0  0
  3 26  1  0  0  0  0
  4  5  1  0  0  0  0
  4 27  1  0  0  0  0
  5  6  1  0  0  0  0
  5  7  2  0  0  0  0
  7  8  1  0  0  0  0
  7 28  1  0  0  0  0
  8  9  1  0  0  0  0
  9 10  1  0  0  0  0
  9 29  1  0  0  0  0
  9 30  1  0  0  0  0
 10 11  2  0  0  0  0
 10 12  1  0  0  0  0
 12 13  1  0  0  0  0
 12 31  1  0  0  0  0
 13 14  1  0  0  0  0
 13 22  2  0  0  0  0
 14 15  2  0  0  0  0
 14 32  1  0  0  0  0
 15 16  1  0  0  0  0
 16 17  2  0  0  0  0
 16 33  1  0  0  0  0
 17 18  1  0  0  0  0
 17 22  1  0  0  0  0
 18 19  2  0  0  0  0
 18 34  1  0  0  0  0
 19 20  1  0  0  0  0
 19 35  1  0  0  0  0
 20 21  2  0  0  0  0
 20 36  1  0  0  0  0
 21 22  1  0  0  0  0
 21 37  1  0  0  0  0
M  END
$$$$
