MODEL 1
REMARK VINA RESULT:    -6.792      0.000      0.000
REMARK INTER + INTRA:          -9.280
REMARK INTER:                  -8.778
REMARK INTRA:                  -0.502
REMARK UNBOUND:                -0.502
REMARK  5 active torsions:
REMARK  status: ('A' for Active; 'I' for Inactive)
REMARK    1  A    between atoms: N_2  and  C_4 
REMARK    2  A    between atoms: C_4  and  N_5 
REMARK    3  A    between atoms: C_7  and  C_15 
REMARK    4  A    between atoms: C_15  and  N_18 
REMARK    5  A    between atoms: C_16  and  C_20 
REMARK       I    between atoms: C_16  and  N_18 
ROOT
HETATM    1  N   UNL     1       8.722  15.103   1.783  1.00  0.00    -0.292 N 
ATOM      2  HN  UNL     1       9.206  14.795   0.939  1.00  0.00     0.178 HD
HETATM    3  C   UNL     1       8.956  14.214   2.696  1.00  0.00     0.146 C 
ENDROOT
BRANCH   3   4
HETATM    4  C   UNL     1       9.959  14.660   3.616  1.00  0.00     0.111 C 
HETATM    5  N   UNL     1      11.269  14.662   3.424  1.00  0.00    -0.281 N 
HETATM    6  N   UNL     1      11.869  15.377   4.323  1.00  0.00    -0.242 N 
ATOM      7  HN  UNL     1      11.743  14.166   2.670  1.00  0.00     0.188 HD
HETATM    8  N   UNL     1      11.033  15.841   5.225  1.00  0.00    -0.295 N 
ATOM      9  HN  UNL     1      12.873  15.559   4.330  1.00  0.00     0.208 HD
HETATM   10  C   UNL     1       9.880  15.299   4.958  1.00  0.00     0.143 C 
ATOM     11  HN  UNL     1      11.245  16.492   5.980  1.00  0.00     0.187 HD
ENDBRANCH   3   4
BRANCH   3  12
HETATM   12  N   UNL     1       8.102  13.120   2.591  1.00  0.00    -0.305 N 
HETATM   13  C   UNL     1       8.009  12.019   3.300  1.00  0.00     0.275 C 
HETATM   14  O   UNL     1       8.556  11.685   4.318  1.00  0.00    -0.266 OA
ATOM     15  HN  UNL     1       7.429  13.185   1.827  1.00  0.00     0.170 HD
BRANCH  13  16
HETATM   16  C   UNL     1       6.975  11.030   2.678  1.00  0.00     0.117 C 
HETATM   17  N   UNL     1       6.926  10.959   1.394  1.00  0.00    -0.296 N 
HETATM   18  N   UNL     1       5.851  10.405   0.988  1.00  0.00    -0.311 N 
ATOM     19  HN  UNL     1       7.659  11.304   0.776  1.00  0.00     0.187 HD
HETATM   20  C   UNL     1       5.205   9.974   2.076  1.00  0.00     0.109 C 
ATOM     21  HN  UNL     1       5.544  10.310   0.020  1.00  0.00     0.186 HD
HETATM   22  C   UNL     1       5.896  10.281   3.226  1.00  0.00     0.055 C 
ENDBRANCH  13  16
ENDBRANCH   3  12
BRANCH   1  23
HETATM   23  C   UNL     1       8.178  16.130   1.514  1.00  0.00     0.048 C 
BRANCH  23  24
HETATM   24  N   UNL     1       7.454  16.989   1.137  1.00  0.00    -0.347 N 
HETATM   25  C   UNL     1       7.834  18.274   0.625  1.00  0.00     0.157 C 
ATOM     26  HN  UNL     1       6.454  16.794   1.183  1.00  0.00     0.170 HD
ENDBRANCH  23  24
ENDBRANCH   1  23
TORSDOF 5
ENDMDL
MODEL 2
REMARK VINA RESULT:    -6.349     31.278     33.010
REMARK INTER + INTRA:          -8.707
REMARK INTER:                  -8.230
REMARK INTRA:                  -0.477
REMARK UNBOUND:                -0.502
REMARK  5 active torsions:
REMARK  status: ('A' for Active; 'I' for Inactive)
REMARK    1  A    between atoms: N_2  and  C_4 
REMARK    2  A    between atoms: C_4  and  N_5 
REMARK    3  A    between atoms: C_7  and  C_15 
REMARK    4  A    between atoms: C_15  and  N_18 
REMARK    5  A    between atoms: C_16  and  C_20 
REMARK       I    between atoms: C_16  and  N_18 
ROOT
HETATM    1  N   UNL     1      -2.316 -16.097  10.784  1.00  0.00    -0.292 N 
ATOM      2  HN  UNL     1      -2.866 -16.956  10.814  1.00  0.00     0.178 HD
HETATM    3  C   UNL     1      -1.152 -16.378  11.281  1.00  0.00     0.146 C 
ENDROOT
BRANCH   3   4
HETATM    4  C   UNL     1      -0.170 -16.544  10.253  1.00  0.00     0.111 C 
HETATM    5  N   UNL     1       0.599 -15.603   9.728  1.00  0.00    -0.281 N 
HETATM    6  N   UNL     1       1.560 -16.122   9.031  1.00  0.00    -0.242 N 
ATOM      7  HN  UNL     1       0.454 -14.602   9.855  1.00  0.00     0.188 HD
HETATM    8  N   UNL     1       1.469 -17.432   8.965  1.00  0.00    -0.295 N 
ATOM      9  HN  UNL     1       2.299 -15.579   8.586  1.00  0.00     0.208 HD
HETATM   10  C   UNL     1       0.343 -17.745   9.537  1.00  0.00     0.143 C 
ATOM     11  HN  UNL     1       2.144 -18.074   8.549  1.00  0.00     0.187 HD
ENDBRANCH   3   4
BRANCH   3  12
HETATM   12  N   UNL     1      -1.157 -16.342  12.673  1.00  0.00    -0.305 N 
HETATM   13  C   UNL     1      -0.216 -16.597  13.551  1.00  0.00     0.275 C 
HETATM   14  O   UNL     1       0.958 -16.824  13.411  1.00  0.00    -0.266 OA
ATOM     15  HN  UNL     1      -2.050 -16.068  13.083  1.00  0.00     0.170 HD
BRANCH  13  16
HETATM   16  C   UNL     1      -0.772 -16.554  15.008  1.00  0.00     0.117 C 
HETATM   17  N   UNL     1       0.010 -16.953  15.949  1.00  0.00    -0.296 N 
HETATM   18  N   UNL     1      -0.627 -17.204  17.025  1.00  0.00    -0.311 N 
ATOM     19  HN  UNL     1       1.019 -17.056  15.847  1.00  0.00     0.187 HD
HETATM   20  C   UNL     1      -1.895 -16.831  16.817  1.00  0.00     0.109 C 
ATOM     21  HN  UNL     1      -0.245 -17.610  17.879  1.00  0.00     0.186 HD
HETATM   22  C   UNL     1      -2.071 -16.334  15.546  1.00  0.00     0.055 C 
ENDBRANCH  13  16
ENDBRANCH   3  12
BRANCH   1  23
HETATM   23  C   UNL     1      -3.014 -15.256  10.307  1.00  0.00     0.048 C 
BRANCH  23  24
HETATM   24  N   UNL     1      -3.501 -14.260   9.891  1.00  0.00    -0.347 N 
HETATM   25  C   UNL     1      -4.164 -14.085   8.630  1.00  0.00     0.157 C 
ATOM     26  HN  UNL     1      -3.443 -13.438  10.492  1.00  0.00     0.170 HD
ENDBRANCH  23  24
ENDBRANCH   1  23
TORSDOF 5
ENDMDL
MODEL 3
REMARK VINA RESULT:    -6.291     21.460     23.488
REMARK INTER + INTRA:          -8.632
REMARK INTER:                  -7.871
REMARK INTRA:                  -0.761
REMARK UNBOUND:                -0.502
REMARK  5 active torsions:
REMARK  status: ('A' for Active; 'I' for Inactive)
REMARK    1  A    between atoms: N_2  and  C_4 
REMARK    2  A    between atoms: C_4  and  N_5 
REMARK    3  A    between atoms: C_7  and  C_15 
REMARK    4  A    between atoms: C_15  and  N_18 
REMARK    5  A    between atoms: C_16  and  C_20 
REMARK       I    between atoms: C_16  and  N_18 
ROOT
HETATM    1  N   UNL     1       7.499  -0.850  21.243  1.00  0.00    -0.292 N 
ATOM      2  HN  UNL     1       8.323  -1.387  20.973  1.00  0.00     0.178 HD
HETATM    3  C   UNL     1       7.608   0.313  20.683  1.00  0.00     0.146 C 
ENDROOT
BRANCH   3   4
HETATM    4  C   UNL     1       6.775   0.416  19.522  1.00  0.00     0.111 C 
HETATM    5  N   UNL     1       6.995  -0.128  18.335  1.00  0.00    -0.281 N 
HETATM    6  N   UNL     1       5.931  -0.080  17.598  1.00  0.00    -0.242 N 
ATOM      7  HN  UNL     1       7.884  -0.532  18.040  1.00  0.00     0.188 HD
HETATM    8  N   UNL     1       4.948   0.562  18.190  1.00  0.00    -0.295 N 
ATOM      9  HN  UNL     1       5.863  -0.492  16.667  1.00  0.00     0.208 HD
HETATM   10  C   UNL     1       5.446   1.045  19.291  1.00  0.00     0.143 C 
ATOM     11  HN  UNL     1       3.990   0.662  17.854  1.00  0.00     0.187 HD
ENDBRANCH   3   4
BRANCH   3  12
HETATM   12  N   UNL     1       8.424   1.171  21.416  1.00  0.00    -0.305 N 
HETATM   13  C   UNL     1       9.624   1.008  21.921  1.00  0.00     0.275 C 
HETATM   14  O   UNL     1      10.418   0.112  21.800  1.00  0.00    -0.266 OA
ATOM     15  HN  UNL     1       8.016   2.090  21.591  1.00  0.00     0.170 HD
BRANCH  13  16
HETATM   16  C   UNL     1      10.044   2.232  22.792  1.00  0.00     0.117 C 
HETATM   17  N   UNL     1       9.306   3.284  22.724  1.00  0.00    -0.296 N 
HETATM   18  N   UNL     1       9.901   4.315  23.183  1.00  0.00    -0.311 N 
ATOM     19  HN  UNL     1       8.359   3.293  22.347  1.00  0.00     0.187 HD
HETATM   20  C   UNL     1      11.061   3.891  23.698  1.00  0.00     0.109 C 
ATOM     21  HN  UNL     1       9.559   5.275  23.161  1.00  0.00     0.186 HD
HETATM   22  C   UNL     1      11.213   2.532  23.546  1.00  0.00     0.055 C 
ENDBRANCH  13  16
ENDBRANCH   3  12
BRANCH   1  23
HETATM   23  C   UNL     1       6.839  -1.557  21.943  1.00  0.00     0.048 C 
BRANCH  23  24
HETATM   24  N   UNL     1       6.099  -2.026  22.740  1.00  0.00    -0.347 N 
HETATM   25  C   UNL     1       6.184  -1.909  24.168  1.00  0.00     0.157 C 
ATOM     26  HN  UNL     1       5.319  -2.571  22.372  1.00  0.00     0.170 HD
ENDBRANCH  23  24
ENDBRANCH   1  23
TORSDOF 5
ENDMDL
MODEL 4
REMARK VINA RESULT:    -6.244     22.721     24.452
REMARK INTER + INTRA:          -8.571
REMARK INTER:                  -7.967
REMARK INTRA:                  -0.604
REMARK UNBOUND:                -0.502
REMARK  5 active torsions:
REMARK  status: ('A' for Active; 'I' for Inactive)
REMARK    1  A    between atoms: N_2  and  C_4 
REMARK    2  A    between atoms: C_4  and  N_5 
REMARK    3  A    between atoms: C_7  and  C_15 
REMARK    4  A    between atoms: C_15  and  N_18 
REMARK    5  A    between atoms: C_16  and  C_20 
REMARK       I    between atoms: C_16  and  N_18 
ROOT
HETATM    1  N   UNL     1       7.340  -0.560  21.388  1.00  0.00    -0.292 N 
ATOM      2  HN  UNL     1       6.925   0.037  22.103  1.00  0.00     0.178 HD
HETATM    3  C   UNL     1       6.359  -1.113  20.745  1.00  0.00     0.146 C 
ENDROOT
BRANCH   3   4
HETATM    4  C   UNL     1       6.135  -0.474  19.483  1.00  0.00     0.111 C 
HETATM    5  N   UNL     1       5.724  -1.049  18.363  1.00  0.00    -0.281 N 
HETATM    6  N   UNL     1       5.359  -0.161  17.493  1.00  0.00    -0.242 N 
ATOM      7  HN  UNL     1       5.699  -2.056  18.206  1.00  0.00     0.188 HD
HETATM    8  N   UNL     1       5.567   1.065  17.920  1.00  0.00    -0.295 N 
ATOM      9  HN  UNL     1       4.956  -0.387  16.583  1.00  0.00     0.208 HD
HETATM   10  C   UNL     1       6.200   0.949  19.051  1.00  0.00     0.143 C 
ATOM     11  HN  UNL     1       5.289   1.931  17.458  1.00  0.00     0.187 HD
ENDBRANCH   3   4
BRANCH   3  12
HETATM   12  N   UNL     1       5.863  -2.231  21.410  1.00  0.00    -0.305 N 
HETATM   13  C   UNL     1       5.935  -2.595  22.669  1.00  0.00     0.275 C 
HETATM   14  O   UNL     1       6.348  -2.015  23.638  1.00  0.00    -0.266 OA
ATOM     15  HN  UNL     1       5.354  -2.882  20.813  1.00  0.00     0.170 HD
BRANCH  13  16
HETATM   16  C   UNL     1       5.338  -4.021  22.881  1.00  0.00     0.117 C 
HETATM   17  N   UNL     1       5.948  -5.004  22.318  1.00  0.00    -0.296 N 
HETATM   18  N   UNL     1       5.217  -6.048  22.259  1.00  0.00    -0.311 N 
ATOM     19  HN  UNL     1       6.901  -4.955  21.960  1.00  0.00     0.187 HD
HETATM   20  C   UNL     1       4.097  -5.772  22.937  1.00  0.00     0.109 C 
ATOM     21  HN  UNL     1       5.443  -6.924  21.788  1.00  0.00     0.186 HD
HETATM   22  C   UNL     1       4.114  -4.489  23.435  1.00  0.00     0.055 C 
ENDBRANCH  13  16
ENDBRANCH   3  12
BRANCH   1  23
HETATM   23  C   UNL     1       8.523  -0.457  21.495  1.00  0.00     0.048 C 
BRANCH  23  24
HETATM   24  N   UNL     1       9.692  -0.353  21.334  1.00  0.00    -0.347 N 
HETATM   25  C   UNL     1      10.558   0.634  21.913  1.00  0.00     0.157 C 
ATOM     26  HN  UNL     1      10.129  -1.037  20.716  1.00  0.00     0.170 HD
ENDBRANCH  23  24
ENDBRANCH   1  23
TORSDOF 5
ENDMDL
MODEL 5
REMARK VINA RESULT:    -6.243      3.759      5.617
REMARK INTER + INTRA:          -8.571
REMARK INTER:                  -7.960
REMARK INTRA:                  -0.611
REMARK UNBOUND:                -0.502
REMARK  5 active torsions:
REMARK  status: ('A' for Active; 'I' for Inactive)
REMARK    1  A    between atoms: N_2  and  C_4 
REMARK    2  A    between atoms: C_4  and  N_5 
REMARK    3  A    between atoms: C_7  and  C_15 
REMARK    4  A    between atoms: C_15  and  N_18 
REMARK    5  A    between atoms: C_16  and  C_20 
REMARK       I    between atoms: C_16  and  N_18 
ROOT
HETATM    1  N   UNL     1       5.112  10.479   2.337  1.00  0.00    -0.292 N 
ATOM      2  HN  UNL     1       5.416   9.993   1.494  1.00  0.00     0.178 HD
HETATM    3  C   UNL     1       5.897  10.099   3.296  1.00  0.00     0.146 C 
ENDROOT
BRANCH   3   4
HETATM    4  C   UNL     1       6.887  11.092   3.587  1.00  0.00     0.111 C 
HETATM    5  N   UNL     1       8.143  11.110   3.168  1.00  0.00    -0.281 N 
HETATM    6  N   UNL     1       8.685  12.268   3.373  1.00  0.00    -0.242 N 
ATOM      7  HN  UNL     1       8.621  10.317   2.741  1.00  0.00     0.188 HD
HETATM    8  N   UNL     1       7.876  13.087   4.009  1.00  0.00    -0.295 N 
ATOM      9  HN  UNL     1       9.628  12.517   3.076  1.00  0.00     0.208 HD
HETATM   10  C   UNL     1       6.829  12.382   4.328  1.00  0.00     0.143 C 
ATOM     11  HN  UNL     1       8.037  14.073   4.213  1.00  0.00     0.187 HD
ENDBRANCH   3   4
BRANCH   3  12
HETATM   12  N   UNL     1       5.503   8.880   3.841  1.00  0.00    -0.305 N 
HETATM   13  C   UNL     1       4.772   7.906   3.352  1.00  0.00     0.275 C 
HETATM   14  O   UNL     1       4.326   7.728   2.250  1.00  0.00    -0.266 OA
ATOM     15  HN  UNL     1       5.842   8.716   4.789  1.00  0.00     0.170 HD
BRANCH  13  16
HETATM   16  C   UNL     1       4.495   6.810   4.428  1.00  0.00     0.117 C 
HETATM   17  N   UNL     1       5.337   5.840   4.510  1.00  0.00    -0.296 N 
HETATM   18  N   UNL     1       4.859   4.848   5.153  1.00  0.00    -0.311 N 
ATOM     19  HN  UNL     1       6.274   5.863   4.109  1.00  0.00     0.187 HD
HETATM   20  C   UNL     1       3.671   5.234   5.631  1.00  0.00     0.109 C 
ATOM     21  HN  UNL     1       5.298   3.936   5.280  1.00  0.00     0.186 HD
HETATM   22  C   UNL     1       3.377   6.527   5.260  1.00  0.00     0.055 C 
ENDBRANCH  13  16
ENDBRANCH   3  12
BRANCH   1  23
HETATM   23  C   UNL     1       4.182  11.160   2.027  1.00  0.00     0.048 C 
BRANCH  23  24
HETATM   24  N   UNL     1       3.444  11.972   1.582  1.00  0.00    -0.347 N 
HETATM   25  C   UNL     1       2.914  13.120   2.262  1.00  0.00     0.157 C 
ATOM     26  HN  UNL     1       3.155  11.843   0.612  1.00  0.00     0.170 HD
ENDBRANCH  23  24
ENDBRANCH   1  23
TORSDOF 5
ENDMDL
MODEL 6
REMARK VINA RESULT:    -6.226     26.140     28.199
REMARK INTER + INTRA:          -8.549
REMARK INTER:                  -8.043
REMARK INTRA:                  -0.506
REMARK UNBOUND:                -0.502
REMARK  5 active torsions:
REMARK  status: ('A' for Active; 'I' for Inactive)
REMARK    1  A    between atoms: N_2  and  C_4 
REMARK    2  A    between atoms: C_4  and  N_5 
REMARK    3  A    between atoms: C_7  and  C_15 
REMARK    4  A    between atoms: C_15  and  N_18 
REMARK    5  A    between atoms: C_16  and  C_20 
REMARK       I    between atoms: C_16  and  N_18 
ROOT
HETATM    1  N   UNL     1       8.562  -5.031  25.194  1.00  0.00    -0.292 N 
ATOM      2  HN  UNL     1       9.447  -5.519  25.054  1.00  0.00     0.178 HD
HETATM    3  C   UNL     1       8.349  -4.325  24.128  1.00  0.00     0.146 C 
ENDROOT
BRANCH   3   4
HETATM    4  C   UNL     1       7.388  -4.949  23.270  1.00  0.00     0.111 C 
HETATM    5  N   UNL     1       7.510  -5.176  21.971  1.00  0.00    -0.281 N 
HETATM    6  N   UNL     1       6.597  -5.995  21.554  1.00  0.00    -0.242 N 
ATOM      7  HN  UNL     1       8.228  -4.762  21.377  1.00  0.00     0.188 HD
HETATM    8  N   UNL     1       5.749  -6.317  22.507  1.00  0.00    -0.295 N 
ATOM      9  HN  UNL     1       6.540  -6.349  20.599  1.00  0.00     0.208 HD
HETATM   10  C   UNL     1       6.065  -5.580  23.532  1.00  0.00     0.143 C 
ATOM     11  HN  UNL     1       4.998  -7.003  22.453  1.00  0.00     0.187 HD
ENDBRANCH   3   4
BRANCH   3  12
HETATM   12  N   UNL     1       9.036  -3.114  24.159  1.00  0.00    -0.305 N 
HETATM   13  C   UNL     1       9.350  -2.270  23.204  1.00  0.00     0.275 C 
HETATM   14  O   UNL     1       9.038  -2.236  22.043  1.00  0.00    -0.266 OA
ATOM     15  HN  UNL     1       9.349  -2.834  25.088  1.00  0.00     0.170 HD
BRANCH  13  16
HETATM   16  C   UNL     1      10.261  -1.122  23.740  1.00  0.00     0.117 C 
HETATM   17  N   UNL     1      11.514  -1.182  23.452  1.00  0.00    -0.296 N 
HETATM   18  N   UNL     1      12.212  -0.419  24.199  1.00  0.00    -0.311 N 
ATOM     19  HN  UNL     1      11.902  -1.770  22.715  1.00  0.00     0.187 HD
HETATM   20  C   UNL     1      11.351   0.281  24.946  1.00  0.00     0.109 C 
ATOM     21  HN  UNL     1      13.230  -0.354  24.221  1.00  0.00     0.186 HD
HETATM   22  C   UNL     1      10.048  -0.066  24.669  1.00  0.00     0.055 C 
ENDBRANCH  13  16
ENDBRANCH   3  12
BRANCH   1  23
HETATM   23  C   UNL     1       8.157  -5.351  26.269  1.00  0.00     0.048 C 
BRANCH  23  24
HETATM   24  N   UNL     1       7.760  -5.915  27.232  1.00  0.00    -0.347 N 
HETATM   25  C   UNL     1       6.518  -5.688  27.914  1.00  0.00     0.157 C 
ATOM     26  HN  UNL     1       8.366  -6.639  27.618  1.00  0.00     0.170 HD
ENDBRANCH  23  24
ENDBRANCH   1  23
TORSDOF 5
ENDMDL
MODEL 7
REMARK VINA RESULT:    -6.216     22.488     24.102
REMARK INTER + INTRA:          -8.534
REMARK INTER:                  -7.868
REMARK INTRA:                  -0.666
REMARK UNBOUND:                -0.502
REMARK  5 active torsions:
REMARK  status: ('A' for Active; 'I' for Inactive)
REMARK    1  A    between atoms: N_2  and  C_4 
REMARK    2  A    between atoms: C_4  and  N_5 
REMARK    3  A    between atoms: C_7  and  C_15 
REMARK    4  A    between atoms: C_15  and  N_18 
REMARK    5  A    between atoms: C_16  and  C_20 
REMARK       I    between atoms: C_16  and  N_18 
ROOT
HETATM    1  N   UNL     1       7.684   0.860  21.726  1.00  0.00    -0.292 N 
ATOM      2  HN  UNL     1       7.009   1.158  22.431  1.00  0.00     0.178 HD
HETATM    3  C   UNL     1       7.184  -0.188  21.149  1.00  0.00     0.146 C 
ENDROOT
BRANCH   3   4
HETATM    4  C   UNL     1       6.626   0.135  19.871  1.00  0.00     0.111 C 
HETATM    5  N   UNL     1       7.263   0.175  18.711  1.00  0.00    -0.281 N 
HETATM    6  N   UNL     1       6.428   0.225  17.722  1.00  0.00    -0.242 N 
ATOM      7  HN  UNL     1       8.278   0.168  18.609  1.00  0.00     0.188 HD
HETATM    8  N   UNL     1       5.181   0.304  18.133  1.00  0.00    -0.295 N 
ATOM      9  HN  UNL     1       6.704   0.206  16.741  1.00  0.00     0.208 HD
HETATM   10  C   UNL     1       5.236   0.432  19.427  1.00  0.00     0.143 C 
ATOM     11  HN  UNL     1       4.341   0.271  17.554  1.00  0.00     0.187 HD
ENDBRANCH   3   4
BRANCH   3  12
HETATM   12  N   UNL     1       7.417  -1.349  21.882  1.00  0.00    -0.305 N 
HETATM   13  C   UNL     1       8.530  -1.973  22.188  1.00  0.00     0.275 C 
HETATM   14  O   UNL     1       9.681  -1.665  22.025  1.00  0.00    -0.266 OA
ATOM     15  HN  UNL     1       6.573  -1.791  22.245  1.00  0.00     0.170 HD
BRANCH  13  16
HETATM   16  C   UNL     1       8.240  -3.325  22.911  1.00  0.00     0.117 C 
HETATM   17  N   UNL     1       7.695  -4.260  22.214  1.00  0.00    -0.296 N 
HETATM   18  N   UNL     1       7.194  -5.173  22.950  1.00  0.00    -0.311 N 
ATOM     19  HN  UNL     1       7.666  -4.270  21.195  1.00  0.00     0.187 HD
HETATM   20  C   UNL     1       7.538  -4.883  24.210  1.00  0.00     0.109 C 
ATOM     21  HN  UNL     1       6.639  -5.971  22.639  1.00  0.00     0.186 HD
HETATM   22  C   UNL     1       8.279  -3.725  24.275  1.00  0.00     0.055 C 
ENDBRANCH  13  16
ENDBRANCH   3  12
BRANCH   1  23
HETATM   23  C   UNL     1       8.600   1.621  21.780  1.00  0.00     0.048 C 
BRANCH  23  24
HETATM   24  N   UNL     1       9.380   2.471  22.048  1.00  0.00    -0.347 N 
HETATM   25  C   UNL     1      10.605   2.318  22.781  1.00  0.00     0.157 C 
ATOM     26  HN  UNL     1       9.158   3.413  21.724  1.00  0.00     0.170 HD
ENDBRANCH  23  24
ENDBRANCH   1  23
TORSDOF 5
ENDMDL
MODEL 8
REMARK VINA RESULT:    -6.015     23.968     25.540
REMARK INTER + INTRA:          -8.276
REMARK INTER:                  -7.620
REMARK INTRA:                  -0.656
REMARK UNBOUND:                -0.502
REMARK  5 active torsions:
REMARK  status: ('A' for Active; 'I' for Inactive)
REMARK    1  A    between atoms: N_2  and  C_4 
REMARK    2  A    between atoms: C_4  and  N_5 
REMARK    3  A    between atoms: C_7  and  C_15 
REMARK    4  A    between atoms: C_15  and  N_18 
REMARK    5  A    between atoms: C_16  and  C_20 
REMARK       I    between atoms: C_16  and  N_18 
ROOT
HETATM    1  N   UNL     1      10.125  -2.281  22.921  1.00  0.00    -0.292 N 
ATOM      2  HN  UNL     1      10.461  -2.962  22.240  1.00  0.00     0.178 HD
HETATM    3  C   UNL     1       8.845  -2.454  23.026  1.00  0.00     0.146 C 
ENDROOT
BRANCH   3   4
HETATM    4  C   UNL     1       8.510  -3.180  24.214  1.00  0.00     0.111 C 
HETATM    5  N   UNL     1       8.239  -4.473  24.306  1.00  0.00    -0.281 N 
HETATM    6  N   UNL     1       8.251  -4.863  25.541  1.00  0.00    -0.242 N 
ATOM      7  HN  UNL     1       8.046  -5.081  23.511  1.00  0.00     0.188 HD
HETATM    8  N   UNL     1       8.448  -3.864  26.374  1.00  0.00    -0.295 N 
ATOM      9  HN  UNL     1       8.123  -5.832  25.835  1.00  0.00     0.208 HD
HETATM   10  C   UNL     1       8.438  -2.784  25.647  1.00  0.00     0.143 C 
ATOM     11  HN  UNL     1       8.582  -3.924  27.383  1.00  0.00     0.187 HD
ENDBRANCH   3   4
BRANCH   3  12
HETATM   12  N   UNL     1       8.146  -1.804  22.012  1.00  0.00    -0.305 N 
HETATM   13  C   UNL     1       8.082  -0.537  21.677  1.00  0.00     0.275 C 
HETATM   14  O   UNL     1       8.697   0.418  22.071  1.00  0.00    -0.266 OA
ATOM     15  HN  UNL     1       7.584  -2.422  21.427  1.00  0.00     0.170 HD
BRANCH  13  16
HETATM   16  C   UNL     1       7.031  -0.302  20.548  1.00  0.00     0.117 C 
HETATM   17  N   UNL     1       5.915  -0.936  20.641  1.00  0.00    -0.296 N 
HETATM   18  N   UNL     1       5.281  -0.951  19.534  1.00  0.00    -0.311 N 
ATOM     19  HN  UNL     1       5.578  -1.374  21.498  1.00  0.00     0.187 HD
HETATM   20  C   UNL     1       5.966  -0.173  18.689  1.00  0.00     0.109 C 
ATOM     21  HN  UNL     1       4.419  -1.458  19.333  1.00  0.00     0.186 HD
HETATM   22  C   UNL     1       7.092   0.347  19.283  1.00  0.00     0.055 C 
ENDBRANCH  13  16
ENDBRANCH   3  12
BRANCH   1  23
HETATM   23  C   UNL     1      11.076  -1.660  23.287  1.00  0.00     0.048 C 
BRANCH  23  24
HETATM   24  N   UNL     1      12.060  -1.008  23.387  1.00  0.00    -0.347 N 
HETATM   25  C   UNL     1      12.362  -0.057  24.418  1.00  0.00     0.157 C 
ATOM     26  HN  UNL     1      12.767  -1.138  22.664  1.00  0.00     0.170 HD
ENDBRANCH  23  24
ENDBRANCH   1  23
TORSDOF 5
ENDMDL
MODEL 9
REMARK VINA RESULT:    -6.014     22.632     24.058
REMARK INTER + INTRA:          -8.274
REMARK INTER:                  -7.681
REMARK INTRA:                  -0.593
REMARK UNBOUND:                -0.502
REMARK  5 active torsions:
REMARK  status: ('A' for Active; 'I' for Inactive)
REMARK    1  A    between atoms: N_2  and  C_4 
REMARK    2  A    between atoms: C_4  and  N_5 
REMARK    3  A    between atoms: C_7  and  C_15 
REMARK    4  A    between atoms: C_15  and  N_18 
REMARK    5  A    between atoms: C_16  and  C_20 
REMARK       I    between atoms: C_16  and  N_18 
ROOT
HETATM    1  N   UNL     1       8.509  -0.266  20.045  1.00  0.00    -0.292 N 
ATOM      2  HN  UNL     1       9.283  -0.757  19.598  1.00  0.00     0.178 HD
HETATM    3  C   UNL     1       8.715  -0.324  21.323  1.00  0.00     0.146 C 
ENDROOT
BRANCH   3   4
HETATM    4  C   UNL     1       9.236   0.910  21.826  1.00  0.00     0.111 C 
HETATM    5  N   UNL     1      10.497   1.315  21.790  1.00  0.00    -0.281 N 
HETATM    6  N   UNL     1      10.588   2.577  22.071  1.00  0.00    -0.242 N 
ATOM      7  HN  UNL     1      11.290   0.714  21.570  1.00  0.00     0.188 HD
HETATM    8  N   UNL     1       9.424   3.097  22.393  1.00  0.00    -0.295 N 
ATOM      9  HN  UNL     1      11.460   3.105  22.045  1.00  0.00     0.208 HD
HETATM   10  C   UNL     1       8.586   2.102  22.437  1.00  0.00     0.143 C 
ATOM     11  HN  UNL     1       9.220   4.080  22.573  1.00  0.00     0.187 HD
ENDBRANCH   3   4
BRANCH   3  12
HETATM   12  N   UNL     1       8.281  -1.530  21.867  1.00  0.00    -0.305 N 
HETATM   13  C   UNL     1       7.477  -1.790  22.872  1.00  0.00     0.275 C 
HETATM   14  O   UNL     1       6.790  -1.067  23.543  1.00  0.00    -0.266 OA
ATOM     15  HN  UNL     1       8.653  -2.358  21.402  1.00  0.00     0.170 HD
BRANCH  13  16
HETATM   16  C   UNL     1       7.428  -3.319  23.177  1.00  0.00     0.117 C 
HETATM   17  N   UNL     1       7.948  -4.111  22.306  1.00  0.00    -0.296 N 
HETATM   18  N   UNL     1       7.564  -5.316  22.468  1.00  0.00    -0.311 N 
ATOM     19  HN  UNL     1       8.590  -3.810  21.574  1.00  0.00     0.187 HD
HETATM   20  C   UNL     1       6.840  -5.342  23.592  1.00  0.00     0.109 C 
ATOM     21  HN  UNL     1       7.769  -6.108  21.858  1.00  0.00     0.186 HD
HETATM   22  C   UNL     1       6.750  -4.092  24.161  1.00  0.00     0.055 C 
ENDBRANCH  13  16
ENDBRANCH   3  12
BRANCH   1  23
HETATM   23  C   UNL     1       7.794   0.121  19.172  1.00  0.00     0.048 C 
BRANCH  23  24
HETATM   24  N   UNL     1       7.035   0.244  18.271  1.00  0.00    -0.347 N 
HETATM   25  C   UNL     1       5.602   0.230  18.343  1.00  0.00     0.157 C 
ATOM     26  HN  UNL     1       7.443   0.373  17.345  1.00  0.00     0.170 HD
ENDBRANCH  23  24
ENDBRANCH   1  23
TORSDOF 5
ENDMDL
