stable:False satoms:16 tatoms:24 sratio:0.6666666666666666
  -OEChem-07092417373D

 24 25  0     0  0  0  0  0  0999 V2000
    7.1304   -4.5044   26.4017 H   0  0  0  0  0  0  0  0  0  0  0  0
    8.1695   -4.2632   26.0719 C   0  0  0  0  0  0  0  0  0  0  0  0
    8.7826   -5.1788   26.1330 H   0  0  0  0  0  0  0  0  0  0  0  0
    8.6038   -3.4991   26.7534 H   0  0  0  0  0  0  0  0  0  0  0  0
    8.1039   -3.8251   24.7072 N   0  0  0  0  0  0  0  0  0  0  0  0
    8.6130   -2.8607   24.2441 C   0  0  0  0  0  0  0  0  0  0  0  0
    8.8732   -1.7936   23.7780 N   0  0  0  0  0  0  0  0  0  0  0  0
   10.8988   -1.0587   23.1125 C   0  0  0  0  0  0  0  0  0  0  0  0
   11.2086    0.2987   24.8302 H   0  0  0  0  0  0  0  0  0  0  0  0
   11.6937   -0.1861   24.0204 C   0  0  0  0  0  0  0  0  0  0  0  0
   12.9404   -0.2314   23.6468 N   0  0  0  0  0  0  0  0  0  0  0  0
   13.0277   -1.2280   22.7941 N   0  0  0  0  0  0  0  0  0  0  0  0
   11.8686   -1.7373   22.5192 N   0  0  0  0  0  0  0  0  0  0  0  0
    9.4965   -1.1495   22.8420 C   0  0  0  0  0  0  0  0  0  0  0  0
    8.6602    0.2065   20.9605 C   0  0  0  0  0  0  0  0  0  0  0  0
    9.4675    1.0821   20.7912 O   0  0  0  0  0  0  0  0  0  0  0  0
    8.6504   -0.8114   21.7892 N   0  0  0  0  0  0  0  0  0  0  0  0
    7.3964    0.2038   20.0453 C   0  0  0  0  0  0  0  0  0  0  0  0
    7.5833    0.0364   18.7830 N   0  0  0  0  0  0  0  0  0  0  0  0
    6.5648    0.3861   18.0990 N   0  0  0  0  0  0  0  0  0  0  0  0
    4.6842    0.9694   18.4940 H   0  0  0  0  0  0  0  0  0  0  0  0
    5.6003    0.6896   18.9745 C   0  0  0  0  0  0  0  0  0  0  0  0
    6.0319    0.5394   20.2719 C   0  0  0  0  0  0  0  0  0  0  0  0
    5.5343    0.6250   21.2335 H   0  0  0  0  0  0  0  0  0  0  0  0
 19 20  1  0  0  0  0
 20 22  2  0  0  0  0
 21 22  1  0  0  0  0
 18 19  1  0  0  0  0
 22 23  1  0  0  0  0
 18 23  2  0  0  0  0
 15 18  1  0  0  0  0
 23 24  1  0  0  0  0
 15 16  2  0  0  0  0
 15 17  1  0  0  0  0
 14 17  1  0  0  0  0
 12 13  1  0  0  0  0
  8 13  1  0  0  0  0
 11 12  1  0  0  0  0
  8 14  1  0  0  0  0
  7 14  2  3  0  0  0
  8 10  2  0  0  0  0
 10 11  1  0  0  0  0
  6  7  1  0  0  0  0
  9 10  1  0  0  0  0
  5  6  2  3  0  0  0
  2  5  1  0  0  0  0
  2  3  1  0  0  0  0
  1  2  1  0  0  0  0
  2  4  1  0  0  0  0
M  END
> <Shapegauss>
-215.821182

$$$$
