REMARK  6 active torsions:
REMARK  status: ('A' for Active; 'I' for Inactive)
REMARK    1  A    between atoms: S_2  and  N_5 
REMARK    2  A    between atoms: N_5  and  C_7 
REMARK    3  A    between atoms: C_8  and  C_9 
REMARK    4  A    between atoms: C_9  and  C_15 
REMARK    5  A    between atoms: C_15  and  C_16 
REMARK       I    between atoms: C_16  and  N_18 
REMARK    6  A    between atoms: N_18  and  C_20 
ROOT
HETATM    1  C   UNL     1      10.352  -1.167  23.209  1.00  0.00     0.076 C 
HETATM    2  C   UNL     1      11.066   0.005  24.365  1.00  0.00     0.003 C 
HETATM    3  C   UNL     1      12.078   0.298  24.265  1.00  0.00    -0.002 C 
HETATM    4  C   UNL     1      13.174  -0.107  23.480  1.00  0.00    -0.001 C 
HETATM    5  C   UNL     1      12.747  -1.264  22.627  1.00  0.00    -0.002 C 
HETATM    6  C   UNL     1      11.801  -1.704  22.523  1.00  0.00     0.003 C 
ENDROOT
BRANCH   1   7
HETATM    7  C   UNL     1       9.436  -1.965  23.503  1.00  0.00     0.021 C 
HETATM    8  C   UNL     1       8.973  -2.934  24.172  1.00  0.00     0.098 C 
BRANCH   8   9
HETATM    9  N   UNL     1       8.083  -3.569  24.709  1.00  0.00    -0.296 N 
ATOM     10  HN  UNL     1       7.197  -3.631  24.207  1.00  0.00     0.177 HD
BRANCH   9  11
HETATM   11  S   UNL     1       8.165  -4.325  26.141  1.00  0.00     0.226 S 
HETATM   12  C   UNL     1       6.619  -4.887  26.408  1.00  0.00     0.186 C 
HETATM   13  O   UNL     1       9.080  -5.445  26.061  1.00  0.00    -0.206 OA
HETATM   14  O   UNL     1       8.538  -3.443  27.207  1.00  0.00    -0.206 OA
ENDBRANCH   9  11
ENDBRANCH   8   9
ENDBRANCH   1   7
BRANCH   1  15
HETATM   15  C   UNL     1       9.744  -0.554  22.367  1.00  0.00    -0.061 C 
BRANCH  15  16
HETATM   16  C   UNL     1       9.055   0.042  21.412  1.00  0.00     0.290 C 
HETATM   17  O   UNL     1       9.546   1.003  21.047  1.00  0.00    -0.259 OA
HETATM   18  N   UNL     1       7.939  -0.573  21.066  1.00  0.00    -0.315 N 
ATOM     19  HN  UNL     1       7.654  -1.425  21.549  1.00  0.00     0.170 HD
BRANCH  18  20
HETATM   20  C   UNL     1       7.228  -0.107  20.140  1.00  0.00     0.057 A 
HETATM   21  C   UNL     1       7.218  -0.019  18.830  1.00  0.00     0.117 A 
HETATM   22  N   UNL     1       6.771   0.283  17.744  1.00  0.00    -0.373 N 
HETATM   23  C   UNL     1       5.615   0.886  18.207  1.00  0.00     0.088 A 
ATOM     24  HN  UNL     1       7.129   0.140  16.800  1.00  0.00     0.164 HD
HETATM   25  C   UNL     1       5.217   0.994  19.409  1.00  0.00     0.026 A 
HETATM   26  C   UNL     1       5.802   0.576  20.523  1.00  0.00    -0.033 A 
HETATM   27  C   UNL     1       5.336   0.686  21.880  1.00  0.00     0.050 C 
ENDBRANCH  18  20
ENDBRANCH  15  16
ENDBRANCH   1  15
TORSDOF 6
