stable:False satoms:13 tatoms:24 sratio:0.5416666666666666
  -OEChem-07092417403D

 24 23  0     0  0  0  0  0  0999 V2000
    6.5319   -4.8748   26.4174 Cl  0  0  0  0  0  0  0  0  0  0  0  0
    8.2593   -4.3182   26.0628 S   0  0  0  0  0  0  0  0  0  0  0  0
    9.1129   -5.3786   25.9111 O   0  0  0  0  0  0  0  0  0  0  0  0
    8.5786   -3.4329   27.1262 O   0  0  0  0  0  0  0  0  0  0  0  0
    8.0443   -3.4966   24.7384 N   0  0  0  0  0  0  0  0  0  0  0  0
    8.6224   -2.7612   24.0276 C   0  0  0  0  0  0  0  0  0  0  0  0
    8.7983   -1.9209   23.2220 N   0  0  0  0  0  0  0  0  0  0  0  0
   10.9174   -1.1407   23.2098 C   0  0  0  0  0  0  0  0  0  0  0  0
   11.8038   -0.2332   23.7693 C   0  3  0  0  0  0  0  0  0  0  0  0
   11.6326    0.5623   24.4487 H   0  0  0  0  0  0  0  0  0  0  0  0
   13.0716   -0.3710   23.4365 O   0  0  0  0  0  0  0  0  0  0  0  0
   13.1905   -1.0191   22.7121 H   0  0  0  0  0  0  0  0  0  0  0  0
   11.3365   -2.1399   23.0950 H   0  0  0  0  0  0  0  0  0  0  0  0
    9.6488   -1.0288   22.7179 C   0  0  0  0  0  0  0  0  0  0  0  0
    9.1680   -0.1216   21.6061 C   0  0  0  0  0  0  0  0  0  0  0  0
    9.8301    0.7917   21.1839 O   0  0  0  0  0  0  0  0  0  0  0  0
    7.9634   -0.4381   21.1004 N   0  0  0  0  0  0  0  0  0  0  0  0
    6.4302    0.4078   19.7591 C   0  0  0  0  0  0  0  0  0  0  0  0
    7.6240   -0.0880   19.8868 N   0  0  0  0  0  0  0  0  0  0  0  0
    6.7876    0.9259   17.7299 H   0  0  0  0  0  0  0  0  0  0  0  0
    5.0827    1.1383   18.0950 H   0  0  0  0  0  0  0  0  0  0  0  0
    5.9951    0.8944   18.4372 C   0  5  0  0  0  0  0  0  0  0  0  0
    5.7186    0.4304   20.8384 C   0  5  0  0  0  0  0  0  0  0  0  0
    5.4353    0.3228   21.7649 H   0  0  0  0  0  0  0  0  0  0  0  0
 20 22  1  0  0  0  0
 21 22  1  0  0  0  0
 18 22  1  0  0  0  0
 18 19  1  0  0  0  0
 18 23  2  0  0  0  0
 17 19  2  3  0  0  0
 23 24  1  0  0  0  0
 15 17  1  0  0  0  0
 15 16  2  0  0  0  0
 14 15  1  0  0  0  0
 11 12  1  0  0  0  0
  8 14  2  3  0  0  0
  7 14  1  0  0  0  0
  8 13  1  0  0  0  0
  8  9  1  0  0  0  0
  6  7  1  0  0  0  0
  9 11  1  0  0  0  0
  9 10  1  0  0  0  0
  5  6  2  0  0  0  0
  2  5  1  0  0  0  0
  2  3  2  0  0  0  0
  1  2  1  0  0  0  0
  2  4  2  0  0  0  0
M  CHG  3   9   1  22  -1  23  -1
M  END
> <Shapegauss>
-211.331375

$$$$
