stable:False satoms:13 tatoms:24 sratio:0.5416666666666666
  -OEChem-08062403493D

 27 26  0     0  0  0  0  0  0999 V2000
   -6.4777   -5.3220  -25.8506 Cl  0  0  0  0  0  0  0  0  0  0  0  0
   -8.2055   -4.7006  -25.6314 S   0  0  0  0  0  0  0  0  0  0  0  0
   -9.0996   -5.7280  -25.4866 O   0  0  0  0  0  0  0  0  0  0  0  0
   -8.4304   -3.8573  -26.7516 O   0  0  0  0  0  0  0  0  0  0  0  0
   -8.0474   -3.8243  -24.3343 N   0  0  0  0  0  0  0  0  0  0  0  0
   -8.6451   -3.0403  -23.6953 C   0  0  0  0  0  0  0  0  0  0  0  0
   -8.8442   -2.1586  -22.9410 N   0  0  0  0  0  0  0  0  0  0  0  0
  -10.9345   -1.3188  -23.0981 C   0  0  0  0  0  0  0  0  0  0  0  0
  -11.7557   -0.4136  -23.7528 C   0  0  0  0  0  2  0  0  0  0  0  0
  -13.0454   -0.4996  -23.4951 O   0  0  0  0  0  0  0  0  0  0  0  0
  -13.2291   -1.1095  -22.7513 H   0  0  0  0  0  0  0  0  0  0  0  0
  -11.3910   -2.2992  -22.9653 H   0  0  0  0  0  0  0  0  0  0  0  0
   -9.6959   -1.2201  -22.5324 C   0  0  0  0  0  0  0  0  0  0  0  0
   -9.2568   -0.2759  -21.4342 C   0  0  0  0  0  0  0  0  0  0  0  0
   -9.9149    0.6746  -21.0962 O   0  0  0  0  0  0  0  0  0  0  0  0
   -8.0963   -0.6025  -20.8395 N   0  0  0  0  0  0  0  0  0  0  0  0
   -6.6235    0.2613  -19.4432 C   0  0  0  0  0  0  0  0  0  0  0  0
   -7.8220   -0.2058  -19.6238 N   0  0  0  0  0  0  0  0  0  0  0  0
   -5.2138    1.1474  -18.1417 H   0  0  0  0  0  0  0  0  0  0  0  0
   -6.3606    0.0056  -17.3624 H   0  0  0  0  0  0  0  0  0  0  0  0
   -6.2561    0.7966  -18.1196 C   0  0  0  0  0  0  0  0  0  0  0  0
   -5.8460    0.2131  -20.4751 C   0  0  0  0  0  0  0  0  0  0  0  0
   -6.2092   -0.1962  -21.4062 H   0  0  0  0  0  0  0  0  0  0  0  0
   -9.6571   -3.2836  -23.9836 H   0  0  0  0  0  0  0  0  0  0  0  0
   -8.0310   -2.0823  -22.3641 H   0  0  0  0  0  0  0  0  0  0  0  0
   -6.9201    1.6363  -17.8666 H   0  0  0  0  0  0  0  0  0  0  0  0
   -4.8334    0.5822  -20.4061 H   0  0  0  0  0  0  0  0  0  0  0  0
 19 21  1  0  0  0  0
 20 21  1  0  0  0  0
 17 21  1  0  0  0  0
 17 18  1  0  0  0  0
 17 22  2  0  0  0  0
 16 18  2  3  0  0  0
 22 23  1  0  0  0  0
 14 16  1  0  0  0  0
 14 15  2  0  0  0  0
 13 14  1  0  0  0  0
 10 11  1  0  0  0  0
  8 13  2  3  0  0  0
  7 13  1  0  0  0  0
  8 12  1  0  0  0  0
  8  9  1  0  0  0  0
  6  7  1  0  0  0  0
  9 10  1  0  0  0  0
  5  6  2  0  0  0  0
  2  5  1  0  0  0  0
  2  3  2  0  0  0  0
  1  2  1  0  0  0  0
  2  4  2  0  0  0  0
  6 24  1  0  0  0  0
  7 25  1  0  0  0  0
 21 26  1  0  0  0  0
 22 27  1  0  0  0  0
M  END
> <Chemgauss4>
-5.814162

$$$$
