stable:False satoms:18 tatoms:24 sratio:0.75
  -OEChem-07092417363D

 24 24  0     0  0  0  0  0  0999 V2000
    7.5862   -3.6933   25.4250 H   0  0  0  0  0  0  0  0  0  0  0  0
    8.6603   -3.5296   25.4376 C   0  0  0  0  0  0  0  0  0  0  0  0
    9.1450   -4.4899   25.5529 H   0  0  0  0  0  0  0  0  0  0  0  0
    8.9135   -2.8509   26.6048 F   0  0  0  0  0  0  0  0  0  0  0  0
    9.1370   -2.8278   24.3973 N   0  0  0  0  0  0  0  0  0  0  0  0
    9.4297   -3.1881   23.4962 H   0  0  0  0  0  0  0  0  0  0  0  0
    9.3228   -1.0205   21.5530 C   0  0  0  0  0  0  0  0  0  0  0  0
    9.7841   -1.5812   24.1631 C   0  0  0  0  0  0  0  0  0  0  0  0
    9.5478   -0.3160   24.0518 O   0  0  0  0  0  0  0  0  0  0  0  0
   11.7087    0.1733   24.6512 O   0  0  0  0  0  0  0  0  0  0  0  0
   12.4804    0.3689   24.2922 H   0  0  0  0  0  0  0  0  0  0  0  0
   11.5192   -1.5310   21.7679 O   0  0  0  0  0  0  0  0  0  0  0  0
   10.6349   -0.6007   24.1734 C   0  0  0  0  0  0  0  0  0  0  0  0
    8.3245   -0.6788   20.8532 C   0  0  0  0  0  0  0  0  0  0  0  0
    7.3330    0.2761   22.6025 O   0  0  0  0  0  0  0  0  0  0  0  0
   10.3600   -1.1328   21.6759 C   0  0  0  0  0  0  0  0  0  0  0  0
    8.1396   -0.0789   22.8986 H   0  0  0  0  0  0  0  0  0  0  0  0
    7.2221    0.0403   21.3429 C   0  0  0  0  0  0  0  0  0  0  0  0
    8.2509   -1.2893   18.6131 H   0  0  0  0  0  0  0  0  0  0  0  0
    6.1581    0.1253   18.2225 H   0  0  0  0  0  0  0  0  0  0  0  0
    6.6367   -0.0415   19.1501 C   0  0  0  0  0  0  0  0  0  0  0  0
    5.3279    0.9078   20.6015 H   0  0  0  0  0  0  0  0  0  0  0  0
    7.7255   -0.7320   19.3449 C   0  0  0  0  0  0  0  0  0  0  0  0
    6.2362    0.4004   20.4251 C   0  0  0  0  0  0  0  0  0  0  0  0
 20 21  1  0  0  0  0
 19 23  1  0  0  0  0
 21 23  2  0  0  0  0
 21 24  1  0  0  0  0
 14 23  1  0  0  0  0
 22 24  1  0  0  0  0
 18 24  2  0  0  0  0
 14 18  1  0  0  0  0
  7 14  2  3  0  0  0
 15 18  1  0  0  0  0
  7 16  1  0  0  0  0
 12 16  1  0  0  0  0
 15 17  1  0  0  0  0
  5  6  1  0  0  0  0
  8  9  1  0  0  0  0
  9 13  1  0  0  0  0
  8 13  2  0  0  0  0
  5  8  1  0  0  0  0
 10 13  1  0  0  0  0
 10 11  1  0  0  0  0
  2  5  1  0  0  0  0
  1  2  1  0  0  0  0
  2  3  1  0  0  0  0
  2  4  1  0  0  0  0
M  END
> <Shapegauss>
-160.446564

$$$$
