stable:False satoms:12 tatoms:24 sratio:0.5
  -OEChem-07092417373D

 24 24  0     1  0  0  0  0  0999 V2000
    6.7287   -5.0310   26.3985 Cl  0  0  0  0  0  0  0  0  0  0  0  0
    8.4611   -4.3262   26.0636 S   0  0  0  0  0  0  0  0  0  0  0  0
    9.2925   -5.4414   25.9270 O   0  0  0  0  0  0  0  0  0  0  0  0
    8.7311   -3.4548   27.1185 O   0  0  0  0  0  0  0  0  0  0  0  0
    8.1739   -3.7045   24.6479 N   0  0  0  0  0  0  0  0  0  0  0  0
    8.7393   -2.8677   24.2191 C   0  0  0  0  0  0  0  0  0  0  0  0
    8.7126   -1.9095   23.4702 N   0  0  0  0  0  0  0  0  0  0  0  0
    9.7709   -1.5354   23.3974 C   0  0  2  0  0  0  0  0  0  0  0  0
   12.2909   -0.4627   23.6379 C   0  0  0  0  0  0  0  0  0  0  0  0
   11.9782    0.1540   24.4508 H   0  0  0  0  0  0  0  0  0  0  0  0
   13.2310   -0.8132   24.0197 H   0  0  0  0  0  0  0  0  0  0  0  0
   12.7117   -0.4400   22.6082 H   0  0  0  0  0  0  0  0  0  0  0  0
   10.9572   -0.8667   23.0841 C   0  0  0  0  0  0  0  0  0  0  0  0
   10.0606   -0.4600   22.2761 C   0  0  0  0  0  0  0  0  0  0  0  0
    9.2816    0.2003   21.3756 C   0  0  0  0  0  0  0  0  0  0  0  0
    9.6958    1.2325   21.1341 O   0  0  0  0  0  0  0  0  0  0  0  0
    8.1313   -0.3715   20.8644 N   0  0  0  0  0  0  0  0  0  0  0  0
    6.8875    0.2243   18.8784 C   0  0  0  0  0  0  0  0  0  0  0  0
    7.6809   -0.0406   19.8172 C   0  0  0  0  0  0  0  0  0  0  0  0
    7.0851    0.2029   17.8155 H   0  0  0  0  0  0  0  0  0  0  0  0
    4.8848    0.8798   18.6387 H   0  0  0  0  0  0  0  0  0  0  0  0
    5.6033    0.5597   19.3329 C   0  0  0  0  0  0  0  0  0  0  0  0
    5.3646    0.4661   20.5764 C   0  5  0  0  0  0  0  0  0  0  0  0
    5.1295    0.5153   21.5446 H   0  0  0  0  0  0  0  0  0  0  0  0
 18 20  1  0  0  0  0
 21 22  1  0  0  0  0
 18 22  1  0  0  0  0
 18 19  2  0  0  0  0
 22 23  2  3  0  0  0
 17 19  1  0  0  0  0
 23 24  1  0  0  0  0
 15 17  1  0  0  0  0
 15 16  2  0  0  0  0
 14 15  1  0  0  0  0
 13 14  2  0  0  0  0
  8 14  1  0  0  0  0
  9 12  1  0  0  0  0
  8 13  1  0  0  0  0
  9 13  1  0  0  0  0
  7  8  1  0  0  0  0
  6  7  1  0  0  0  0
  9 11  1  0  0  0  0
  9 10  1  0  0  0  0
  5  6  2  0  0  0  0
  2  5  1  0  0  0  0
  2  3  2  0  0  0  0
  1  2  1  0  0  0  0
  2  4  2  0  0  0  0
M  CHG  1  23  -1
M  END
> <Shapegauss>
-213.693619

$$$$
