stable:False satoms:12 tatoms:24 sratio:0.5
  -OEChem-08062403533D

 30 30  0     1  0  0  0  0  0999 V2000
   -6.3708   -5.3176  -26.1161 Cl  0  0  0  0  0  0  0  0  0  0  0  0
   -8.1334   -4.6295  -25.9437 S   0  0  0  0  0  0  0  0  0  0  0  0
   -8.9590   -5.7527  -25.8411 O   0  0  0  0  0  0  0  0  0  0  0  0
   -8.3278   -3.7933  -27.0428 O   0  0  0  0  0  0  0  0  0  0  0  0
   -7.9700   -3.9627  -24.5289 N   0  0  0  0  0  0  0  0  0  0  0  0
   -8.5789   -3.1223  -24.1726 C   0  0  0  0  0  0  0  0  0  0  0  0
   -8.6252   -2.1425  -23.4533 N   0  0  0  0  0  0  0  0  0  0  0  0
   -9.6906   -1.7824  -23.4776 C   0  0  2  0  0  0  0  0  0  0  0  0
  -12.1961   -0.7551  -23.9532 C   0  0  0  0  0  0  0  0  0  0  0  0
  -11.8262   -0.1577  -24.7564 H   0  0  0  0  0  0  0  0  0  0  0  0
  -13.0975   -1.1307  -24.3990 H   0  0  0  0  0  0  0  0  0  0  0  0
  -12.6994   -0.7088  -22.9620 H   0  0  0  0  0  0  0  0  0  0  0  0
  -10.9067   -1.1228  -23.2815 C   0  0  0  0  0  0  0  0  0  0  0  0
  -10.0839   -0.6793  -22.4164 C   0  0  0  0  0  0  0  0  0  0  0  0
   -9.3890    0.0186  -21.4762 C   0  0  0  0  0  0  0  0  0  0  0  0
   -9.8345    1.0510  -21.3003 O   0  0  0  0  0  0  0  0  0  0  0  0
   -8.2769   -0.5208  -20.8567 N   0  0  0  0  0  0  0  0  0  0  0  0
   -7.2062    0.1512  -18.7956 C   0  0  0  0  0  0  0  0  0  0  0  0
   -7.9173   -0.1528  -19.7870 C   0  0  0  0  0  0  0  0  0  0  0  0
   -7.4891    0.1577  -17.7520 H   0  0  0  0  0  0  0  0  0  0  0  0
   -5.2380    0.8434  -18.4148 H   0  0  0  0  0  0  0  0  0  0  0  0
   -5.8936    0.4925  -19.1548 C   0  0  0  0  0  0  0  0  0  0  0  0
   -5.5536    0.3664  -20.3715 C   0  0  0  0  0  0  0  0  0  0  0  0
   -6.2673    0.0049  -21.0970 H   0  0  0  0  0  0  0  0  0  0  0  0
   -9.5365   -3.1958  -24.6666 H   0  0  0  0  0  0  0  0  0  0  0  0
   -7.8671   -1.7377  -22.9421 H   0  0  0  0  0  0  0  0  0  0  0  0
   -9.9938   -2.5781  -22.7813 H   0  0  0  0  0  0  0  0  0  0  0  0
   -7.7616   -1.2403  -21.3223 H   0  0  0  0  0  0  0  0  0  0  0  0
   -8.8826    0.0980  -19.3727 H   0  0  0  0  0  0  0  0  0  0  0  0
   -4.5506    0.6205  -20.6810 H   0  0  0  0  0  0  0  0  0  0  0  0
 18 20  1  0  0  0  0
 21 22  1  0  0  0  0
 18 22  1  0  0  0  0
 18 19  2  0  0  0  0
 22 23  2  3  0  0  0
 17 19  1  0  0  0  0
 23 24  1  0  0  0  0
 15 17  1  0  0  0  0
 15 16  2  0  0  0  0
 14 15  1  0  0  0  0
 13 14  2  0  0  0  0
  8 14  1  0  0  0  0
  9 12  1  0  0  0  0
  8 13  1  0  0  0  0
  9 13  1  0  0  0  0
  7  8  1  0  0  0  0
  6  7  1  0  0  0  0
  9 11  1  0  0  0  0
  9 10  1  0  0  0  0
  5  6  2  0  0  0  0
  2  5  1  0  0  0  0
  2  3  2  0  0  0  0
  1  2  1  0  0  0  0
  2  4  2  0  0  0  0
  6 25  1  0  0  0  0
  7 26  1  0  0  0  0
  8 27  1  0  0  0  0
 17 28  1  0  0  0  0
 19 29  1  0  0  0  0
 23 30  1  0  0  0  0
M  END
> <Chemgauss4>
-7.021696

$$$$
