stable:False satoms:12 tatoms:24 sratio:0.5
  -OEChem-08062403533D

 30 30  0     1  0  0  0  0  0999 V2000
    6.0924   -5.3456   25.8205 Cl  0  0  0  0  0  0  0  0  0  0  0  0
    7.8550   -4.6575   25.6481 S   0  0  0  0  0  0  0  0  0  0  0  0
    8.6806   -5.7806   25.5455 O   0  0  0  0  0  0  0  0  0  0  0  0
    8.0494   -3.8213   26.7472 O   0  0  0  0  0  0  0  0  0  0  0  0
    7.6916   -3.9906   24.2333 N   0  0  0  0  0  0  0  0  0  0  0  0
    8.3005   -3.1503   23.8770 C   0  0  0  0  0  0  0  0  0  0  0  0
    8.3468   -2.1705   23.1577 N   0  0  0  0  0  0  0  0  0  0  0  0
    9.4121   -1.8104   23.1820 C   0  0  2  0  0  0  0  0  0  0  0  0
   11.9176   -0.7831   23.6576 C   0  0  0  0  0  0  0  0  0  0  0  0
   11.5478   -0.1857   24.4609 H   0  0  0  0  0  0  0  0  0  0  0  0
   12.8191   -1.1587   24.1034 H   0  0  0  0  0  0  0  0  0  0  0  0
   12.4209   -0.7368   22.6665 H   0  0  0  0  0  0  0  0  0  0  0  0
   10.6283   -1.1507   22.9859 C   0  0  0  0  0  0  0  0  0  0  0  0
    9.8055   -0.7073   22.1208 C   0  0  0  0  0  0  0  0  0  0  0  0
    9.1106   -0.0094   21.1806 C   0  0  0  0  0  0  0  0  0  0  0  0
    9.5561    1.0230   21.0047 O   0  0  0  0  0  0  0  0  0  0  0  0
    7.9985   -0.5487   20.5611 N   0  0  0  0  0  0  0  0  0  0  0  0
    6.9277    0.1232   18.5000 C   0  0  0  0  0  0  0  0  0  0  0  0
    7.6389   -0.1808   19.4914 C   0  0  0  0  0  0  0  0  0  0  0  0
    7.2107    0.1298   17.4564 H   0  0  0  0  0  0  0  0  0  0  0  0
    4.9596    0.8154   18.1192 H   0  0  0  0  0  0  0  0  0  0  0  0
    5.6152    0.4645   18.8592 C   0  0  0  0  0  0  0  0  0  0  0  0
    5.2751    0.3384   20.0759 C   0  0  0  0  0  0  0  0  0  0  0  0
    5.9889   -0.0230   20.8014 H   0  0  0  0  0  0  0  0  0  0  0  0
    9.2581   -3.2237   24.3710 H   0  0  0  0  0  0  0  0  0  0  0  0
    7.5886   -1.7656   22.6465 H   0  0  0  0  0  0  0  0  0  0  0  0
    9.7154   -2.6061   22.4857 H   0  0  0  0  0  0  0  0  0  0  0  0
    7.4832   -1.2682   21.0268 H   0  0  0  0  0  0  0  0  0  0  0  0
    8.6042    0.0700   19.0771 H   0  0  0  0  0  0  0  0  0  0  0  0
    4.2721    0.5925   20.3854 H   0  0  0  0  0  0  0  0  0  0  0  0
 18 20  1  0  0  0  0
 21 22  1  0  0  0  0
 18 22  1  0  0  0  0
 18 19  2  0  0  0  0
 22 23  2  3  0  0  0
 17 19  1  0  0  0  0
 23 24  1  0  0  0  0
 15 17  1  0  0  0  0
 15 16  2  0  0  0  0
 14 15  1  0  0  0  0
 13 14  2  0  0  0  0
  8 14  1  0  0  0  0
  9 12  1  0  0  0  0
  8 13  1  0  0  0  0
  9 13  1  0  0  0  0
  7  8  1  0  0  0  0
  6  7  1  0  0  0  0
  9 11  1  0  0  0  0
  9 10  1  0  0  0  0
  5  6  2  0  0  0  0
  2  5  1  0  0  0  0
  2  3  2  0  0  0  0
  1  2  1  0  0  0  0
  2  4  2  0  0  0  0
  6 25  1  0  0  0  0
  7 26  1  0  0  0  0
  8 27  1  0  0  0  0
 17 28  1  0  0  0  0
 19 29  1  0  0  0  0
 23 30  1  0  0  0  0
M  END
> <Chemgauss4>
-6.878909

$$$$
