stable:False satoms:17 tatoms:24 sratio:0.7083333333333334
  -OEChem-08062407273D

 28 27  0     0  0  0  0  0  0999 V2000
    7.0285   -4.4528   26.5769 F   0  0  0  0  0  0  0  0  0  0  0  0
    8.2375   -4.5181   25.9063 C   0  0  0  0  0  0  0  0  0  0  0  0
    8.4096   -5.7702   25.4514 F   0  0  0  0  0  0  0  0  0  0  0  0
    9.0439   -4.2916   26.6363 H   0  0  0  0  0  0  0  0  0  0  0  0
    8.2993   -3.6407   24.8311 C   0  0  0  0  0  0  0  0  0  0  0  0
    8.8467   -2.9934   23.9772 C   0  0  0  0  0  0  0  0  0  0  0  0
    9.2297   -2.2367   23.1868 N   0  0  0  0  0  0  0  0  0  0  0  0
   11.5181   -1.6759   23.1997 C   0  0  0  0  0  0  0  0  0  0  0  0
   11.4184   -1.4752   24.2370 H   0  0  0  0  0  0  0  0  0  0  0  0
   13.5517   -1.2544   23.2116 H   0  0  0  0  0  0  0  0  0  0  0  0
   12.7870   -1.7778   22.6813 C   0  0  0  0  0  0  0  0  0  0  0  0
   12.9958   -2.3761   21.8302 H   0  0  0  0  0  0  0  0  0  0  0  0
   10.2963   -1.7040   22.5359 C   0  0  0  0  0  0  0  0  0  0  0  0
   10.1043   -1.0460   21.4596 N   0  3  0  0  0  0  0  0  0  0  0  0
    9.3049    0.0085   21.2049 C   0  0  0  0  0  0  0  0  0  0  0  0
    9.8059    1.0372   20.8175 O   0  0  0  0  0  0  0  0  0  0  0  0
    7.9396   -0.1960   21.3292 N   0  0  0  0  0  0  0  0  0  0  0  0
    7.0888    0.4894   20.5829 C   0  0  0  0  0  0  0  0  0  0  0  0
    7.0560   -0.0058   18.9270 S   0  0  0  0  0  0  0  0  0  0  0  0
    6.0674    1.0422   18.3280 N   0  0  0  0  0  0  0  0  0  0  0  0
    5.9516    0.8708   17.3497 H   0  0  0  0  0  0  0  0  0  0  0  0
    5.5579    2.0171   20.5031 H   0  0  0  0  0  0  0  0  0  0  0  0
    6.2058    1.3903   21.0906 C   0  0  0  0  0  0  0  0  0  0  0  0
    6.1548    1.4642   22.1525 H   0  0  0  0  0  0  0  0  0  0  0  0
    8.4204   -1.7730   22.8265 H   0  0  0  0  0  0  0  0  0  0  0  0
    7.5955   -0.8658   21.9871 H   0  0  0  0  0  0  0  0  0  0  0  0
    6.4346    1.9624   18.4639 H   0  0  0  0  0  0  0  0  0  0  0  0
   10.6352   -1.3659   20.6749 H   0  0  0  0  0  0  0  0  0  0  0  0
 20 21  1  0  0  0  0
 19 20  1  0  0  0  0
 18 19  1  0  0  0  0
 22 23  1  0  0  0  0
 18 23  2  0  0  0  0
 17 18  1  0  0  0  0
 23 24  1  0  0  0  0
 15 16  2  0  0  0  0
 15 17  1  0  0  0  0
 14 15  1  0  0  0  0
 13 14  2  3  0  0  0
 11 12  1  0  0  0  0
  7 13  1  0  0  0  0
  8 13  1  0  0  0  0
  6  7  1  0  0  0  0
  8 11  2  0  0  0  0
 10 11  1  0  0  0  0
  8  9  1  0  0  0  0
  5  6  3  0  0  0  0
  2  5  1  0  0  0  0
  2  3  1  0  0  0  0
  1  2  1  0  0  0  0
  2  4  1  0  0  0  0
  7 25  1  0  0  0  0
 17 26  1  0  0  0  0
 20 27  1  0  0  0  0
 14 28  1  0  0  0  0
M  CHG  1  14   1
M  END
> <Chemgauss4>
-8.533169

$$$$
