stable:False satoms:17 tatoms:24 sratio:0.7083333333333334
  -OEChem-08062407263D

 28 27  0     0  0  0  0  0  0999 V2000
   -6.1495   -4.1128  -26.3981 F   0  0  0  0  0  0  0  0  0  0  0  0
   -7.4028   -4.1893  -25.8160 C   0  0  0  0  0  0  0  0  0  0  0  0
   -7.6436   -5.4674  -25.4803 F   0  0  0  0  0  0  0  0  0  0  0  0
   -8.1503   -3.8749  -26.5756 H   0  0  0  0  0  0  0  0  0  0  0  0
   -7.5113   -3.4012  -24.6772 C   0  0  0  0  0  0  0  0  0  0  0  0
   -8.0957   -2.8067  -23.8096 C   0  0  0  0  0  0  0  0  0  0  0  0
   -8.5087   -2.1040  -22.9852 N   0  0  0  0  0  0  0  0  0  0  0  0
  -10.7727   -1.4621  -23.1008 C   0  0  0  0  0  0  0  0  0  0  0  0
  -10.5964   -1.1808  -24.1087 H   0  0  0  0  0  0  0  0  0  0  0  0
  -12.7870   -0.9682  -23.2104 H   0  0  0  0  0  0  0  0  0  0  0  0
  -12.0765   -1.5604  -22.6771 C   0  0  0  0  0  0  0  0  0  0  0  0
  -12.3611   -2.2184  -21.8947 H   0  0  0  0  0  0  0  0  0  0  0  0
   -9.6005   -1.5883  -22.3630 C   0  0  0  0  0  0  0  0  0  0  0  0
   -9.4625   -1.0279  -21.2250 N   0  3  0  0  0  0  0  0  0  0  0  0
   -8.6507   -0.0272  -20.8307 C   0  0  0  0  0  0  0  0  0  0  0  0
   -9.1455    0.9836  -20.3918 O   0  0  0  0  0  0  0  0  0  0  0  0
   -7.2870   -0.2698  -20.8820 N   0  0  0  0  0  0  0  0  0  0  0  0
   -6.4687    0.3211  -20.0266 C   0  0  0  0  0  0  0  0  0  0  0  0
   -6.5641   -0.3088  -18.4197 S   0  0  0  0  0  0  0  0  0  0  0  0
   -5.5873    0.6505  -17.6712 N   0  0  0  0  0  0  0  0  0  0  0  0
   -5.5438    0.3955  -16.7052 H   0  0  0  0  0  0  0  0  0  0  0  0
   -4.9010    1.7812  -19.7186 H   0  0  0  0  0  0  0  0  0  0  0  0
   -5.5261    1.2283  -20.3979 C   0  0  0  0  0  0  0  0  0  0  0  0
   -5.4005    1.3869  -21.4441 H   0  0  0  0  0  0  0  0  0  0  0  0
   -7.7121   -1.7007  -22.5349 H   0  0  0  0  0  0  0  0  0  0  0  0
   -6.9193   -0.8955  -21.5699 H   0  0  0  0  0  0  0  0  0  0  0  0
   -5.9163    1.5913  -17.7530 H   0  0  0  0  0  0  0  0  0  0  0  0
  -10.0553   -1.3917  -20.5065 H   0  0  0  0  0  0  0  0  0  0  0  0
 20 21  1  0  0  0  0
 19 20  1  0  0  0  0
 18 19  1  0  0  0  0
 22 23  1  0  0  0  0
 18 23  2  0  0  0  0
 17 18  1  0  0  0  0
 23 24  1  0  0  0  0
 15 16  2  0  0  0  0
 15 17  1  0  0  0  0
 14 15  1  0  0  0  0
 13 14  2  3  0  0  0
 11 12  1  0  0  0  0
  7 13  1  0  0  0  0
  8 13  1  0  0  0  0
  6  7  1  0  0  0  0
  8 11  2  0  0  0  0
 10 11  1  0  0  0  0
  8  9  1  0  0  0  0
  5  6  3  0  0  0  0
  2  5  1  0  0  0  0
  2  3  1  0  0  0  0
  1  2  1  0  0  0  0
  2  4  1  0  0  0  0
  7 25  1  0  0  0  0
 17 26  1  0  0  0  0
 20 27  1  0  0  0  0
 14 28  1  0  0  0  0
M  CHG  1  14   1
M  END
> <Chemgauss4>
-8.452854

$$$$
