stable:True satoms:24 tatoms:24 sratio:1.0
  -OEChem-08052419533D

 25 24  0     1  0  0  0  0  0999 V2000
   13.4363   -0.3737   24.3149 C   0  0  0  0  0  0  0  0  0  0  0  0
   13.6061   -0.4627   23.2568 H   0  0  0  0  0  0  0  0  0  0  0  0
   12.1106    0.1734   25.7610 H   0  0  0  0  0  0  0  0  0  0  0  0
   13.5442   -1.3676   24.7510 H   0  0  0  0  0  0  0  0  0  0  0  0
   14.1842    0.2755   24.7313 H   0  0  0  0  0  0  0  0  0  0  0  0
   10.9714    1.7932   22.0491 C   0  0  0  0  0  0  0  0  0  0  0  0
   12.4725    2.0330   24.3122 H   0  0  0  0  0  0  0  0  0  0  0  0
   10.0280   -0.0319   23.6952 H   0  0  0  0  0  0  0  0  0  0  0  0
   12.0154    0.2000   24.6415 C   0  0  2  0  0  0  0  0  0  0  0  0
   10.8043   -0.6436   24.1453 C   0  0  0  0  0  0  0  0  0  0  0  0
   11.9349    1.3247   21.9325 H   0  0  0  0  0  0  0  0  0  0  0  0
   11.2209   -1.5943   23.1296 N   0  0  0  0  0  0  0  0  0  0  0  0
   11.6112   -1.1014   22.3520 H   0  0  0  0  0  0  0  0  0  0  0  0
   10.3604   -1.0947   25.0279 H   0  0  0  0  0  0  0  0  0  0  0  0
   11.5883    1.5700   24.3739 N   0  3  0  0  0  0  0  0  0  0  0  0
   10.1991    1.0671   21.7947 H   0  0  0  0  0  0  0  0  0  0  0  0
   10.4301   -2.1251   22.8248 H   0  0  0  0  0  0  0  0  0  0  0  0
   11.0211    4.2252   24.5331 H   0  0  0  0  0  0  0  0  0  0  0  0
   10.8027    2.3629   23.4534 C   0  0  0  0  0  0  0  0  0  0  0  0
    9.7360    2.3494   23.6891 H   0  0  0  0  0  0  0  0  0  0  0  0
   11.2735    3.8292   23.5513 C   0  0  0  0  0  0  0  0  0  0  0  0
   10.8648    2.6294   21.3473 H   0  0  0  0  0  0  0  0  0  0  0  0
   10.8032    4.4519   22.7998 H   0  0  0  0  0  0  0  0  0  0  0  0
   12.3562    3.8646   23.3968 H   0  0  0  0  0  0  0  0  0  0  0  0
   11.1502    1.8025   25.2422 H   0  0  0  0  0  0  0  0  0  0  0  0
 18 21  1  0  0  0  0
 21 23  1  0  0  0  0
 19 20  1  0  0  0  0
 19 21  1  0  0  0  0
 21 24  1  0  0  0  0
  6 19  1  0  0  0  0
 15 19  1  0  0  0  0
  6 22  1  0  0  0  0
  7 15  1  0  0  0  0
  6 16  1  0  0  0  0
  6 11  1  0  0  0  0
  8 10  1  0  0  0  0
  9 15  1  0  0  0  0
 10 14  1  0  0  0  0
  9 10  1  0  0  0  0
 10 12  1  0  0  0  0
  3  9  1  0  0  0  0
  1  9  1  0  0  0  0
 12 17  1  0  0  0  0
 12 13  1  0  0  0  0
  1  5  1  0  0  0  0
  1  2  1  0  0  0  0
  1  4  1  0  0  0  0
 15 25  1  0  0  0  0
M  CHG  1  15   1
M  END
> <Chemgauss4>
-3.690462

$$$$
