stable:True satoms:24 tatoms:24 sratio:1.0
  -OEChem-08052419533D

 25 24  0     1  0  0  0  0  0999 V2000
   -5.4452   -1.3838  -19.5302 C   0  0  0  0  0  0  0  0  0  0  0  0
   -6.4532   -1.5371  -19.8717 H   0  0  0  0  0  0  0  0  0  0  0  0
   -4.0684   -0.0086  -18.9288 H   0  0  0  0  0  0  0  0  0  0  0  0
   -5.3188   -1.9540  -18.6090 H   0  0  0  0  0  0  0  0  0  0  0  0
   -4.7675   -1.7622  -20.2731 H   0  0  0  0  0  0  0  0  0  0  0  0
   -7.2281    1.8833  -20.9627 C   0  0  0  0  0  0  0  0  0  0  0  0
   -4.8372    0.5813  -21.1080 H   0  0  0  0  0  0  0  0  0  0  0  0
   -6.3308    1.8174  -18.4886 H   0  0  0  0  0  0  0  0  0  0  0  0
   -5.1310    0.1286  -19.2679 C   0  0  2  0  0  0  0  0  0  0  0  0
   -5.9974    0.8307  -18.1810 C   0  0  0  0  0  0  0  0  0  0  0  0
   -7.3657    0.8173  -21.0405 H   0  0  0  0  0  0  0  0  0  0  0  0
   -7.1954    0.0595  -17.9004 N   0  0  0  0  0  0  0  0  0  0  0  0
   -7.7370   -0.0308  -18.7362 H   0  0  0  0  0  0  0  0  0  0  0  0
   -5.3502    0.9840  -17.3224 H   0  0  0  0  0  0  0  0  0  0  0  0
   -5.0225    1.1491  -20.3060 N   0  3  0  0  0  0  0  0  0  0  0  0
   -7.7784    2.2420  -20.0927 H   0  0  0  0  0  0  0  0  0  0  0  0
   -7.7369    0.5265  -17.2013 H   0  0  0  0  0  0  0  0  0  0  0  0
   -4.1399    2.8716  -22.2168 H   0  0  0  0  0  0  0  0  0  0  0  0
   -5.7477    2.2448  -20.9116 C   0  0  0  0  0  0  0  0  0  0  0  0
   -5.6545    3.1755  -20.3471 H   0  0  0  0  0  0  0  0  0  0  0  0
   -5.1583    2.5007  -22.3147 C   0  0  0  0  0  0  0  0  0  0  0  0
   -7.6533    2.3891  -21.8381 H   0  0  0  0  0  0  0  0  0  0  0  0
   -5.7376    3.2322  -22.8651 H   0  0  0  0  0  0  0  0  0  0  0  0
   -5.1662    1.5629  -22.8785 H   0  0  0  0  0  0  0  0  0  0  0  0
   -4.1825    1.6133  -20.0250 H   0  0  0  0  0  0  0  0  0  0  0  0
 18 21  1  0  0  0  0
 21 23  1  0  0  0  0
 19 20  1  0  0  0  0
 19 21  1  0  0  0  0
 21 24  1  0  0  0  0
  6 19  1  0  0  0  0
 15 19  1  0  0  0  0
  6 22  1  0  0  0  0
  7 15  1  0  0  0  0
  6 16  1  0  0  0  0
  6 11  1  0  0  0  0
  8 10  1  0  0  0  0
  9 15  1  0  0  0  0
 10 14  1  0  0  0  0
  9 10  1  0  0  0  0
 10 12  1  0  0  0  0
  3  9  1  0  0  0  0
  1  9  1  0  0  0  0
 12 17  1  0  0  0  0
 12 13  1  0  0  0  0
  1  5  1  0  0  0  0
  1  2  1  0  0  0  0
  1  4  1  0  0  0  0
 15 25  1  0  0  0  0
M  CHG  1  15   1
M  END
> <Chemgauss4>
-4.023734

$$$$
