REMARK  8 active torsions:
REMARK  status: ('A' for Active; 'I' for Inactive)
REMARK    1  A    between atoms: S_2  and  N_5 
REMARK    2  A    between atoms: N_5  and  C_7 
REMARK    3  A    between atoms: C_8  and  C_9 
REMARK    4  A    between atoms: C_9  and  C_14 
REMARK    5  A    between atoms: N_11  and  C_13 
REMARK    6  A    between atoms: C_16  and  O_17 
REMARK    7  A    between atoms: C_21  and  C_26 
REMARK    8  A    between atoms: N_23  and  C_26 
ROOT
HETATM    1  C   UNL     2       6.749   0.228  19.543  1.00  0.00    -0.020 C 
HETATM    2  C   UNL     2       7.715  -0.195  19.233  1.00  0.00     0.025 C 
HETATM    3  C   UNL     2       5.988   0.500  20.621  1.00  0.00     0.093 C 
HETATM    4  S   UNL     2       5.310   0.775  21.859  1.00  0.00    -0.092 SA
ENDROOT
BRANCH   1   5
HETATM    5  C   UNL     2       5.863   0.729  18.411  1.00  0.00     0.091 C 
BRANCH   5   6
HETATM    6  N   UNL     2       6.473   0.502  17.545  1.00  0.00    -0.407 N 
ATOM      7  HN2 UNL     2       7.355   0.105  17.222  1.00  0.00     0.155 HD
ATOM      8  HN1 UNL     2       5.879   0.838  16.787  1.00  0.00     0.155 HD
ENDBRANCH   5   6
ENDBRANCH   1   5
TORSDOF 8
