stable:False satoms:8 tatoms:24 sratio:0.3333333333333333
  -OEChem-07092417433D

 24 23  0     0  0  0  0  0  0999 V2000
    6.7325   -4.9043   26.3729 C   0  0  0  0  0  0  0  0  0  0  0  0
    8.2011   -4.3804   26.0775 S   0  0  0  0  0  0  0  0  0  0  0  0
    8.9911   -5.5361   25.8862 O   0  0  0  0  0  0  0  0  0  0  0  0
    8.6213   -3.5607   27.1488 O   0  0  0  0  0  0  0  0  0  0  0  0
    7.9974   -3.5874   24.7191 N   0  0  0  0  0  0  0  0  0  0  0  0
    8.8472   -2.9315   24.2505 C   0  0  0  0  0  0  0  0  0  0  0  0
    9.4682   -2.1503   23.6375 C   0  0  0  0  0  0  0  0  0  0  0  0
   10.3256   -1.4059   23.0444 C   0  0  0  0  0  0  0  0  0  0  0  0
   11.1835    0.2110   24.5017 H   0  0  0  0  0  0  0  0  0  0  0  0
   12.0708    0.1805   24.2692 N   0  5  0  0  0  0  0  0  0  0  0  0
   13.5693   -0.6314   23.3037 H   0  0  0  0  0  0  0  0  0  0  0  0
   12.5618   -0.6794   23.4137 C   0  0  0  0  0  0  0  0  0  0  0  0
   11.6224   -1.3849   23.0041 C   0  0  0  0  0  0  0  0  0  0  0  0
    9.6592   -0.6044   22.2459 C   0  0  0  0  0  0  0  0  0  0  0  0
    9.0767   -0.0027   21.3681 C   0  0  0  0  0  0  0  0  0  0  0  0
    9.4439    1.0979   20.6852 O   0  0  0  0  0  0  0  0  0  0  0  0
    8.1973   -0.7137   21.3999 N   0  0  0  0  0  0  0  0  0  0  0  0
    6.7491    0.2282   19.5426 C   0  0  0  0  0  0  0  0  0  0  0  0
    7.7151   -0.1952   19.2335 C   0  0  0  0  0  0  0  0  0  0  0  0
    6.4725    0.5017   17.5450 N   0  3  0  0  0  0  0  0  0  0  0  0
    5.8626    0.7287   18.4106 C   0  3  0  0  0  0  0  0  0  0  0  0
    4.9167    1.1552   18.7566 H   0  0  0  0  0  0  0  0  0  0  0  0
    5.9882    0.4997   20.6208 C   0  0  0  0  0  0  0  0  0  0  0  0
    5.3104    0.7753   21.8592 S   0  0  0  0  0  0  0  0  0  0  0  0
 20 21  1  0  0  0  0
 21 22  1  0  0  0  0
 18 21  1  0  0  0  0
 18 19  2  0  0  0  0
 18 23  1  0  0  0  0
 23 24  1  0  0  0  0
 15 16  2  0  0  0  0
 15 17  1  0  0  0  0
 14 15  1  0  0  0  0
 14 17  1  0  0  0  0
  8 14  2  3  0  0  0
  8 13  1  0  0  0  0
 12 13  2  0  0  0  0
  7  8  1  0  0  0  0
 11 12  1  0  0  0  0
 10 12  1  0  0  0  0
  6  7  3  0  0  0  0
  5  6  1  0  0  0  0
  9 10  1  0  0  0  0
  2  5  1  0  0  0  0
  2  3  2  0  0  0  0
  1  2  1  0  0  0  0
  2  4  2  0  0  0  0
M  CHG  3  10  -1  20   1  21   1
M  END
> <Shapegauss>
-252.416397

$$$$
