
 OpenBabel07202414153D

 36 38  0  0  0  0  0  0  0  0999 V2000
    0.9838   -0.2201   -0.0597 C   0  0  0  0  0  0  0  0  0  0  0  0
    2.4741   -0.0852   -0.1030 C   0  0  0  0  0  0  0  0  0  0  0  0
    3.2619    1.1161   -0.0624 C   0  0  0  0  0  0  0  0  0  0  0  0
    2.8528    2.5365   -0.0264 C   0  0  0  0  0  0  0  0  0  0  0  0
    3.5393    3.3653    0.5773 O   0  0  0  0  0  0  0  0  0  0  0  0
    1.5658    2.9421   -0.7184 C   0  0  0  0  0  0  0  0  0  0  0  0
    1.6850    4.5898   -1.3773 Cl  0  0  0  0  0  0  0  0  0  0  0  0
    4.5855    0.7078   -0.0487 C   0  0  0  0  0  0  0  0  0  0  0  0
    5.8300    1.4157    0.0124 C   0  0  0  0  0  0  0  0  0  0  0  0
    6.9947    0.7513   -0.0749 C   0  0  0  0  0  0  0  0  0  0  0  0
    7.0273   -0.6824   -0.2568 C   0  0  0  0  0  0  0  0  0  0  0  0
    5.8668   -1.3566   -0.3153 C   0  0  0  0  0  0  0  0  0  0  0  0
    4.6468   -0.6805   -0.1687 N   0  0  0  0  0  0  0  0  0  0  0  0
    3.3518   -1.1809   -0.1201 C   0  0  0  0  0  0  0  0  0  0  0  0
    2.9436   -2.5834   -0.1497 C   0  0  0  0  0  0  0  0  0  0  0  0
    1.9159   -2.9446   -0.7252 O   0  0  0  0  0  0  0  0  0  0  0  0
    3.6996   -3.6567    0.5608 C   0  0  0  0  0  0  0  0  0  0  0  0
    3.6053   -4.9704    0.0664 C   0  0  0  0  0  0  0  0  0  0  0  0
    4.2642   -6.0183    0.7109 C   0  0  0  0  0  0  0  0  0  0  0  0
    5.0164   -5.7542    1.8480 C   0  0  0  0  0  0  0  0  0  0  0  0
    5.6434   -6.7591    2.4721 F   0  0  0  0  0  0  0  0  0  0  0  0
    5.1178   -4.4625    2.3552 C   0  0  0  0  0  0  0  0  0  0  0  0
    4.4454   -3.4116    1.7231 C   0  0  0  0  0  0  0  0  0  0  0  0
    0.4702    0.7337    0.0347 H   0  0  0  0  0  0  0  0  0  0  0  0
    0.6847   -0.8258    0.8035 H   0  0  0  0  0  0  0  0  0  0  0  0
    0.6154   -0.7039   -0.9718 H   0  0  0  0  0  0  0  0  0  0  0  0
    0.7446    2.9274    0.0017 H   0  0  0  0  0  0  0  0  0  0  0  0
    1.3508    2.2814   -1.5614 H   0  0  0  0  0  0  0  0  0  0  0  0
    5.8286    2.4971    0.1309 H   0  0  0  0  0  0  0  0  0  0  0  0
    7.9388    1.2848   -0.0265 H   0  0  0  0  0  0  0  0  0  0  0  0
    7.9872   -1.1801   -0.3486 H   0  0  0  0  0  0  0  0  0  0  0  0
    5.8525   -2.4257   -0.4760 H   0  0  0  0  0  0  0  0  0  0  0  0
    3.0073   -5.1817   -0.8187 H   0  0  0  0  0  0  0  0  0  0  0  0
    4.1873   -7.0355    0.3380 H   0  0  0  0  0  0  0  0  0  0  0  0
    5.7122   -4.2844    3.2468 H   0  0  0  0  0  0  0  0  0  0  0  0
    4.5133   -2.4138    2.1511 H   0  0  0  0  0  0  0  0  0  0  0  0
  1  2  1  0  0  0  0
  1 24  1  0  0  0  0
  1 25  1  0  0  0  0
  1 26  1  0  0  0  0
  2  3  1  0  0  0  0
  2 14  2  0  0  0  0
  3  4  1  0  0  0  0
  3  8  2  0  0  0  0
  4  5  2  0  0  0  0
  4  6  1  0  0  0  0
  6  7  1  0  0  0  0
  6 27  1  0  0  0  0
  6 28  1  0  0  0  0
  8  9  1  0  0  0  0
  8 13  1  0  0  0  0
  9 10  2  0  0  0  0
  9 29  1  0  0  0  0
 10 11  1  0  0  0  0
 10 30  1  0  0  0  0
 11 12  2  0  0  0  0
 11 31  1  0  0  0  0
 12 13  1  0  0  0  0
 12 32  1  0  0  0  0
 13 14  1  0  0  0  0
 14 15  1  0  0  0  0
 15 16  2  0  0  0  0
 15 17  1  0  0  0  0
 17 18  1  0  0  0  0
 17 23  2  0  0  0  0
 18 19  2  0  0  0  0
 18 33  1  0  0  0  0
 19 20  1  0  0  0  0
 19 34  1  0  0  0  0
 20 21  1  0  0  0  0
 20 22  2  0  0  0  0
 22 23  1  0  0  0  0
 22 35  1  0  0  0  0
 23 36  1  0  0  0  0
M  END
$$$$
