stable:False satoms:8 tatoms:24 sratio:0.3333333333333333
  -OEChem-07092417483D

 24 26  0     1  0  0  0  0  0999 V2000
    6.6290   -4.8136   26.4311 C   0  0  0  0  0  0  0  0  0  0  0  0
    8.1511   -4.3101   26.1325 S   0  0  0  0  0  0  0  0  0  0  0  0
    9.0484   -5.4399   26.0592 O   0  0  0  0  0  0  0  0  0  0  0  0
    8.5706   -3.4163   27.1706 O   0  0  0  0  0  0  0  0  0  0  0  0
    8.1086   -3.5562   24.6768 N   0  0  0  0  0  0  0  0  0  0  0  0
    8.9956   -2.9378   24.1542 C   0  0  0  0  0  0  0  0  0  0  0  0
    9.4546   -1.9560   23.4720 C   0  0  0  0  0  0  0  0  0  0  0  0
   10.3513   -1.1256   23.2411 C   0  0  1  0  0  0  0  0  0  0  0  0
   11.0472    0.0054   24.3455 C   0  0  0  0  0  0  0  0  0  0  0  0
   12.0340    0.2857   24.2563 C   0  0  0  0  0  0  0  0  0  0  0  0
   13.1759   -0.1667   23.4085 C   0  0  0  0  0  0  0  0  0  0  0  0
   12.7131   -1.2481   22.6818 C   0  0  0  0  0  0  0  0  0  0  0  0
   11.7894   -1.7413   22.5250 C   0  0  0  0  0  0  0  0  0  0  0  0
    9.6811   -0.6220   22.3760 C   0  0  3  0  0  0  0  0  0  0  0  0
    9.0526    0.0437   21.4098 C   0  0  0  0  0  0  0  0  0  0  0  0
    9.5430    1.0050   20.9908 O   0  0  0  0  0  0  0  0  0  0  0  0
    7.9350   -0.5675   21.0702 N   0  0  0  0  0  0  0  0  0  0  0  0
    7.2190   -0.1088   20.1658 C   0  0  0  0  0  0  0  0  0  0  0  0
    7.2917   -0.0179   18.8532 C   0  0  0  0  0  0  0  0  0  0  0  0
    6.7703    0.2894   17.7885 N   0  0  0  0  0  0  0  0  0  0  0  0
    5.6484    0.8849   18.2320 C   0  0  0  0  0  0  0  0  0  0  0  0
    5.2765    0.9842   19.3520 C   0  0  0  0  0  0  0  0  0  0  0  0
    5.8123    0.5527   20.5172 C   0  0  0  0  0  0  0  0  0  0  0  0
    5.2853    0.6868   21.9867 C   0  0  0  0  0  0  0  0  0  0  0  0
 20 21  2  0  0  0  0
 19 20  1  0  0  0  0
 21 22  1  0  0  0  0
 18 19  2  0  0  0  0
 22 23  2  0  0  0  0
 18 23  1  0  0  0  0
 17 18  1  0  0  0  0
 23 24  1  0  0  0  0
 15 16  2  0  0  0  0
 15 17  1  0  0  0  0
 14 15  1  0  0  0  0
  8 14  1  0  0  0  0
  7 14  1  0  0  0  0
 12 13  1  0  0  0  0
  8 13  1  0  0  0  0
 11 12  2  0  0  0  0
  7  8  1  0  0  0  0
  8  9  1  0  0  0  0
 10 11  1  0  0  0  0
  6  7  2  0  0  0  0
  5  6  1  0  0  0  0
  9 10  2  0  0  0  0
  2  5  1  0  0  0  0
  2  3  2  0  0  0  0
  1  2  1  0  0  0  0
  2  4  2  0  0  0  0
M  END
> <Shapegauss>
-286.425018

$$$$
