stable:False satoms:8 tatoms:24 sratio:0.3333333333333333
  -OEChem-08062416433D

 43 45  0     1  0  0  0  0  0999 V2000
    6.6312   -5.4651   26.1778 C   0  0  0  0  0  0  0  0  0  0  0  0
    8.1512   -4.9239   25.9410 S   0  0  0  0  0  0  0  0  0  0  0  0
    9.0604   -6.0349   25.7797 O   0  0  0  0  0  0  0  0  0  0  0  0
    8.5511   -4.1201   27.0575 O   0  0  0  0  0  0  0  0  0  0  0  0
    8.1162   -4.0465   24.5560 N   0  0  0  0  0  0  0  0  0  0  0  0
    9.0023   -3.3770   24.0990 C   0  0  0  0  0  0  0  0  0  0  0  0
    9.4585   -2.3354   23.5099 C   0  0  0  0  0  0  0  0  0  0  0  0
   10.3493   -1.4801   23.3621 C   0  0  1  0  0  0  0  0  0  0  0  0
   11.0225   -0.4433   24.5683 C   0  0  0  0  0  0  0  0  0  0  0  0
   12.0073   -0.1474   24.5148 C   0  0  0  0  0  0  0  0  0  0  0  0
   13.1623   -0.5140   23.6436 C   0  0  0  0  0  0  0  0  0  0  0  0
   12.7178   -1.5321   22.8205 C   0  0  0  0  0  0  0  0  0  0  0  0
   11.8007   -2.0181   22.6112 C   0  0  0  0  0  0  0  0  0  0  0  0
    9.6830   -0.9091   22.5366 C   0  0  3  0  0  0  0  0  0  0  0  0
    9.0579   -0.1675   21.6251 C   0  0  0  0  0  0  0  0  0  0  0  0
    9.5430    0.8310   21.2967 O   0  0  0  0  0  0  0  0  0  0  0  0
    7.9500   -0.7569   21.2212 N   0  0  0  0  0  0  0  0  0  0  0  0
    7.2388   -0.2276   20.3522 C   0  0  0  0  0  0  0  0  0  0  0  0
    7.3241   -0.0222   19.0534 C   0  0  0  0  0  0  0  0  0  0  0  0
    6.8106    0.3719   18.0137 N   0  0  0  0  0  0  0  0  0  0  0  0
    5.6784    0.9164   18.4948 C   0  0  0  0  0  0  0  0  0  0  0  0
    5.2940    0.9145   19.6150 C   0  0  0  0  0  0  0  0  0  0  0  0
    5.8221    0.3881   20.7442 C   0  0  0  0  0  0  0  0  0  0  0  0
    5.2787    0.3890   22.2138 C   0  0  0  0  0  0  0  0  0  0  0  0
    6.5942   -6.0644   27.0994 H   0  0  0  0  0  0  0  0  0  0  0  0
    5.9473   -4.6085   26.2699 H   0  0  0  0  0  0  0  0  0  0  0  0
    6.3265   -6.0874   25.3234 H   0  0  0  0  0  0  0  0  0  0  0  0
    7.3500   -3.4144   24.6715 H   0  0  0  0  0  0  0  0  0  0  0  0
    9.8863   -3.9696   24.2832 H   0  0  0  0  0  0  0  0  0  0  0  0
   10.4050   -0.1022   25.3861 H   0  0  0  0  0  0  0  0  0  0  0  0
   12.2618    0.5956   25.2561 H   0  0  0  0  0  0  0  0  0  0  0  0
   14.1479   -0.0724   23.6540 H   0  0  0  0  0  0  0  0  0  0  0  0
   13.5245   -1.9430   22.2316 H   0  0  0  0  0  0  0  0  0  0  0  0
   11.6427   -1.9433   21.5251 H   0  0  0  0  0  0  0  0  0  0  0  0
   11.9301   -3.0740   22.8910 H   0  0  0  0  0  0  0  0  0  0  0  0
   10.1356   -1.5180   21.7401 H   0  0  0  0  0  0  0  0  0  0  0  0
    7.6810   -1.6349   21.6170 H   0  0  0  0  0  0  0  0  0  0  0  0
    8.3111   -0.3605   18.7746 H   0  0  0  0  0  0  0  0  0  0  0  0
    5.0455    1.4138   17.7748 H   0  0  0  0  0  0  0  0  0  0  0  0
    4.3533    1.4244   19.7616 H   0  0  0  0  0  0  0  0  0  0  0  0
    4.6832   -0.5198   22.3857 H   0  0  0  0  0  0  0  0  0  0  0  0
    6.1241    0.4117   22.9172 H   0  0  0  0  0  0  0  0  0  0  0  0
    4.6473    1.2760   22.3706 H   0  0  0  0  0  0  0  0  0  0  0  0
 20 21  2  0  0  0  0
 19 20  1  0  0  0  0
 21 22  1  0  0  0  0
 18 19  2  0  0  0  0
 22 23  2  0  0  0  0
 18 23  1  0  0  0  0
 17 18  1  0  0  0  0
 23 24  1  0  0  0  0
 15 16  2  0  0  0  0
 15 17  1  0  0  0  0
 14 15  1  0  0  0  0
  8 14  1  0  0  0  0
  7 14  1  0  0  0  0
 12 13  1  0  0  0  0
  8 13  1  0  0  0  0
 11 12  2  0  0  0  0
  7  8  1  0  0  0  0
  8  9  1  0  0  0  0
 10 11  1  0  0  0  0
  6  7  2  0  0  0  0
  5  6  1  0  0  0  0
  9 10  2  0  0  0  0
  2  5  1  0  0  0  0
  2  3  2  0  0  0  0
  1  2  1  0  0  0  0
  2  4  2  0  0  0  0
  1 25  1  0  0  0  0
  1 26  1  0  0  0  0
  1 27  1  0  0  0  0
  5 28  1  0  0  0  0
  6 29  1  0  0  0  0
  9 30  1  0  0  0  0
 10 31  1  0  0  0  0
 11 32  1  0  0  0  0
 12 33  1  0  0  0  0
 13 34  1  0  0  0  0
 13 35  1  0  0  0  0
 14 36  1  0  0  0  0
 17 37  1  0  0  0  0
 19 38  1  0  0  0  0
 21 39  1  0  0  0  0
 22 40  1  0  0  0  0
 24 41  1  0  0  0  0
 24 42  1  0  0  0  0
 24 43  1  0  0  0  0
M  END
> <Chemgauss4>
-12.605108

$$$$
