stable:False satoms:8 tatoms:24 sratio:0.3333333333333333
  -OEChem-08062416433D

 43 45  0     1  0  0  0  0  0999 V2000
   -6.1662   -5.1640  -25.8387 C   0  0  0  0  0  0  0  0  0  0  0  0
   -7.7160   -4.6629  -25.7598 S   0  0  0  0  0  0  0  0  0  0  0  0
   -8.6077   -5.7975  -25.6912 O   0  0  0  0  0  0  0  0  0  0  0  0
   -8.0201   -3.8683  -26.9124 O   0  0  0  0  0  0  0  0  0  0  0  0
   -7.8462   -3.7869  -24.3796 N   0  0  0  0  0  0  0  0  0  0  0  0
   -8.7917   -3.1414  -24.0167 C   0  0  0  0  0  0  0  0  0  0  0  0
   -9.3329   -2.1130  -23.4789 C   0  0  0  0  0  0  0  0  0  0  0  0
  -10.2561   -1.2813  -23.4242 C   0  0  1  0  0  0  0  0  0  0  0  0
  -10.8289   -0.2607  -24.6945 C   0  0  0  0  0  0  0  0  0  0  0  0
  -11.8214    0.0093  -24.7426 C   0  0  0  0  0  0  0  0  0  0  0  0
  -13.0497   -0.3885  -23.9941 C   0  0  0  0  0  0  0  0  0  0  0  0
  -12.6656   -1.3959  -23.1284 C   0  0  0  0  0  0  0  0  0  0  0  0
  -11.7624   -1.8581  -22.8255 C   0  0  0  0  0  0  0  0  0  0  0  0
   -9.6932   -0.6944  -22.5355 C   0  0  3  0  0  0  0  0  0  0  0  0
   -9.1845    0.0620  -21.5656 C   0  0  0  0  0  0  0  0  0  0  0  0
   -9.7266    1.0470  -21.2900 O   0  0  0  0  0  0  0  0  0  0  0  0
   -8.1088   -0.4989  -21.0495 N   0  0  0  0  0  0  0  0  0  0  0  0
   -7.5046    0.0475  -20.1128 C   0  0  0  0  0  0  0  0  0  0  0  0
   -7.7280    0.2488  -18.8298 C   0  0  0  0  0  0  0  0  0  0  0  0
   -7.3344    0.6547  -17.7434 N   0  0  0  0  0  0  0  0  0  0  0  0
   -6.1733    1.2292  -18.1065 C   0  0  0  0  0  0  0  0  0  0  0  0
   -5.6761    1.2389  -19.1814 C   0  0  0  0  0  0  0  0  0  0  0  0
   -6.0717    0.7005  -20.3581 C   0  0  0  0  0  0  0  0  0  0  0  0
   -5.3806    0.7177  -21.7642 C   0  0  0  0  0  0  0  0  0  0  0  0
   -6.0192   -5.7609  -26.7509 H   0  0  0  0  0  0  0  0  0  0  0  0
   -5.4990   -4.2898  -25.8612 H   0  0  0  0  0  0  0  0  0  0  0  0
   -5.9346   -5.7794  -24.9568 H   0  0  0  0  0  0  0  0  0  0  0  0
   -7.0889   -3.1349  -24.4167 H   0  0  0  0  0  0  0  0  0  0  0  0
   -9.6363   -3.7566  -24.2899 H   0  0  0  0  0  0  0  0  0  0  0  0
  -10.1399    0.0975  -25.4450 H   0  0  0  0  0  0  0  0  0  0  0  0
  -12.0178    0.7465  -25.5071 H   0  0  0  0  0  0  0  0  0  0  0  0
  -14.0402    0.0272  -24.1061 H   0  0  0  0  0  0  0  0  0  0  0  0
  -13.5175   -1.8285  -22.6249 H   0  0  0  0  0  0  0  0  0  0  0  0
  -11.7186   -1.7807  -21.7291 H   0  0  0  0  0  0  0  0  0  0  0  0
  -11.8348   -2.9166  -23.1158 H   0  0  0  0  0  0  0  0  0  0  0  0
  -10.2090   -1.3160  -21.7889 H   0  0  0  0  0  0  0  0  0  0  0  0
   -7.7779   -1.3691  -21.4145 H   0  0  0  0  0  0  0  0  0  0  0  0
   -8.7292   -0.1155  -18.6533 H   0  0  0  0  0  0  0  0  0  0  0  0
   -5.6308    1.7419  -17.3260 H   0  0  0  0  0  0  0  0  0  0  0  0
   -4.7390    1.7734  -19.2314 H   0  0  0  0  0  0  0  0  0  0  0  0
   -4.7471   -0.1750  -21.8730 H   0  0  0  0  0  0  0  0  0  0  0  0
   -6.1497    0.7194  -22.5506 H   0  0  0  0  0  0  0  0  0  0  0  0
   -4.7598    1.6211  -21.8565 H   0  0  0  0  0  0  0  0  0  0  0  0
 20 21  2  0  0  0  0
 19 20  1  0  0  0  0
 21 22  1  0  0  0  0
 18 19  2  0  0  0  0
 22 23  2  0  0  0  0
 18 23  1  0  0  0  0
 17 18  1  0  0  0  0
 23 24  1  0  0  0  0
 15 16  2  0  0  0  0
 15 17  1  0  0  0  0
 14 15  1  0  0  0  0
  8 14  1  0  0  0  0
  7 14  1  0  0  0  0
 12 13  1  0  0  0  0
  8 13  1  0  0  0  0
 11 12  2  0  0  0  0
  7  8  1  0  0  0  0
  8  9  1  0  0  0  0
 10 11  1  0  0  0  0
  6  7  2  0  0  0  0
  5  6  1  0  0  0  0
  9 10  2  0  0  0  0
  2  5  1  0  0  0  0
  2  3  2  0  0  0  0
  1  2  1  0  0  0  0
  2  4  2  0  0  0  0
  1 25  1  0  0  0  0
  1 26  1  0  0  0  0
  1 27  1  0  0  0  0
  5 28  1  0  0  0  0
  6 29  1  0  0  0  0
  9 30  1  0  0  0  0
 10 31  1  0  0  0  0
 11 32  1  0  0  0  0
 12 33  1  0  0  0  0
 13 34  1  0  0  0  0
 13 35  1  0  0  0  0
 14 36  1  0  0  0  0
 17 37  1  0  0  0  0
 19 38  1  0  0  0  0
 21 39  1  0  0  0  0
 22 40  1  0  0  0  0
 24 41  1  0  0  0  0
 24 42  1  0  0  0  0
 24 43  1  0  0  0  0
M  END
> <Chemgauss4>
-12.973087

$$$$
