REMARK  10 active torsions:
REMARK  status: ('A' for Active; 'I' for Inactive)
REMARK    1  A    between atoms: S_2  and  N_5 
REMARK    2  A    between atoms: C_7  and  C_8 
REMARK    3  A    between atoms: C_8  and  C_9 
REMARK    4  A    between atoms: C_9  and  C_15 
REMARK    5  A    between atoms: C_9  and  C_14 
REMARK    6  A    between atoms: C_11  and  C_12 
REMARK    7  A    between atoms: C_12  and  C_13 
REMARK    8  A    between atoms: C_13  and  C_14 
REMARK    9  A    between atoms: C_15  and  C_16 
REMARK       I    between atoms: C_16  and  N_18 
REMARK   10  A    between atoms: N_18  and  C_20 
ROOT
HETATM    1  C   UNL     1      10.232  -1.374  23.045  1.00  0.00     0.061 C 
ENDROOT
BRANCH   1   2
HETATM    2  C   UNL     1       9.419  -2.100  23.600  1.00  0.00    -0.090 C 
BRANCH   2   3
HETATM    3  C   UNL     1       8.983  -2.902  24.164  1.00  0.00     0.157 C 
HETATM    4  N   UNL     1       8.117  -3.592  24.622  1.00  0.00    -0.288 N 
ATOM      5  HN  UNL     1       7.280  -3.740  24.058  1.00  0.00     0.178 HD
BRANCH   4   6
HETATM    6  S   UNL     1       8.184  -4.311  26.083  1.00  0.00     0.226 S 
HETATM    7  C   UNL     1       6.642  -4.842  26.385  1.00  0.00     0.186 C 
HETATM    8  O   UNL     1       9.071  -5.446  26.015  1.00  0.00    -0.206 OA
HETATM    9  O   UNL     1       8.609  -3.405  27.090  1.00  0.00    -0.206 OA
ENDBRANCH   4   6
ENDBRANCH   2   3
ENDBRANCH   1   2
BRANCH   1  10
HETATM   10  C   UNL     1       9.679  -0.563  22.338  1.00  0.00    -0.035 C 
BRANCH  10  11
HETATM   11  C   UNL     1       9.054   0.026  21.383  1.00  0.00     0.294 C 
HETATM   12  O   UNL     1       9.560   0.946  20.964  1.00  0.00    -0.258 OA
HETATM   13  N   UNL     1       7.913  -0.631  21.063  1.00  0.00    -0.315 N 
ATOM     14  HN  UNL     1       7.640  -1.502  21.519  1.00  0.00     0.170 HD
BRANCH  13  15
HETATM   15  C   UNL     1       7.229  -0.107  20.186  1.00  0.00     0.060 A 
HETATM   16  C   UNL     1       7.213   0.042  18.867  1.00  0.00     0.117 A 
HETATM   17  N   UNL     1       6.778   0.347  17.771  1.00  0.00    -0.373 N 
HETATM   18  C   UNL     1       5.716   0.903  18.292  1.00  0.00     0.088 A 
ATOM     19  HN  UNL     1       7.113   0.218  16.816  1.00  0.00     0.164 HD
HETATM   20  C   UNL     1       5.308   1.008  19.425  1.00  0.00     0.030 A 
HETATM   21  C   UNL     1       5.810   0.600  20.567  1.00  0.00    -0.016 A 
HETATM   22  C   UNL     1       5.379   0.703  21.872  1.00  0.00     0.026 C 
ENDBRANCH  13  15
ENDBRANCH  10  11
ENDBRANCH   1  10
BRANCH   1  23
HETATM   23  C   UNL     1      11.731  -1.670  22.550  1.00  0.00     0.029 C 
BRANCH  23  24
HETATM   24  C   UNL     1      12.655  -1.247  22.701  1.00  0.00     0.002 C 
BRANCH  24  25
HETATM   25  C   UNL     1      13.038  -0.178  23.525  1.00  0.00    -0.001 C 
BRANCH  25  26
HETATM   26  C   UNL     1      12.071   0.281  24.268  1.00  0.00    -0.010 C 
HETATM   27  C   UNL     1      11.192   0.221  24.520  1.00  0.00     0.011 C 
ENDBRANCH  25  26
ENDBRANCH  24  25
ENDBRANCH  23  24
ENDBRANCH   1  23
TORSDOF 10
