stable:False satoms:8 tatoms:24 sratio:0.3333333333333333
  -OEChem-07092417463D

 24 24  0     0  0  0  0  0  0999 V2000
    6.6067   -4.8709   26.3797 C   0  0  0  0  0  0  0  0  0  0  0  0
    8.1558   -4.3350   26.1208 S   0  0  0  0  0  0  0  0  0  0  0  0
    9.0566   -5.4469   26.0465 O   0  0  0  0  0  0  0  0  0  0  0  0
    8.4951   -3.4411   27.1482 O   0  0  0  0  0  0  0  0  0  0  0  0
    8.1107   -3.5465   24.6636 N   0  0  0  0  0  0  0  0  0  0  0  0
    8.9299   -2.9080   24.1570 C   0  0  0  0  0  0  0  0  0  0  0  0
    9.4010   -1.9681   23.5759 C   0  0  0  0  0  0  0  0  0  0  0  0
   10.2697   -0.9427   23.3531 C   0  0  0  0  0  0  0  0  0  0  0  0
   11.3962   -0.1182   24.0532 C   0  0  0  0  0  0  0  0  0  0  0  0
   11.9136    0.4925   24.4638 C   0  0  0  0  0  0  0  0  0  0  0  0
   13.4282   -0.4430   23.1783 C   0  0  0  0  0  0  0  0  0  0  0  0
   12.6875   -1.0502   22.8191 C   0  0  0  0  0  0  0  0  0  0  0  0
   12.1603   -1.7158   22.3619 C   0  0  0  0  0  0  0  0  0  0  0  0
    9.6820   -0.6555   22.4430 C   0  0  0  0  0  0  0  0  0  0  0  0
    8.9856    0.0200   21.4115 C   0  0  0  0  0  0  0  0  0  0  0  0
    9.4397    0.9960   21.0155 O   0  0  0  0  0  0  0  0  0  0  0  0
    7.8596   -0.6080   21.1424 N   0  0  0  0  0  0  0  0  0  0  0  0
    7.1795   -0.1537   20.1750 C   0  0  0  0  0  0  0  0  0  0  0  0
    7.1857   -0.0166   18.9105 C   0  0  0  0  0  0  0  0  0  0  0  0
    6.7197    0.3522   17.7896 N   0  0  0  0  0  0  0  0  0  0  0  0
    5.6613    0.8999   18.2556 C   0  0  0  0  0  0  0  0  0  0  0  0
    5.2061    1.0041   19.4345 C   0  0  0  0  0  0  0  0  0  0  0  0
    5.7443    0.5553   20.5468 C   0  0  0  0  0  0  0  0  0  0  0  0
    5.3094    0.6102   21.8511 C   0  0  0  0  0  0  0  0  0  0  0  0
 20 21  2  0  0  0  0
 19 20  1  0  0  0  0
 21 22  1  0  0  0  0
 18 19  2  0  0  0  0
 22 23  2  0  0  0  0
 18 23  1  0  0  0  0
 17 18  1  0  0  0  0
 23 24  1  0  0  0  0
 15 16  2  0  0  0  0
 15 17  1  0  0  0  0
 14 15  1  0  0  0  0
 12 13  3  0  0  0  0
  8 14  2  0  0  0  0
  7 14  1  0  0  0  0
 11 12  1  0  0  0  0
  7  8  1  0  0  0  0
  8  9  1  0  0  0  0
  6  7  2  3  0  0  0
  9 10  3  0  0  0  0
  5  6  1  0  0  0  0
  2  5  1  0  0  0  0
  2  3  2  0  0  0  0
  1  2  1  0  0  0  0
  2  4  2  0  0  0  0
M  END
> <Shapegauss>
-284.931671

$$$$
