REMARK  6 active torsions:
REMARK  status: ('A' for Active; 'I' for Inactive)
REMARK    1  A    between atoms: S_2  and  N_5 
REMARK    2  A    between atoms: N_5  and  C_7 
REMARK    3  A    between atoms: C_7  and  C_8 
REMARK    4  A    between atoms: C_9  and  C_10 
REMARK    5  A    between atoms: C_15  and  C_16 
REMARK       I    between atoms: C_16  and  N_18 
REMARK    6  A    between atoms: N_18  and  C_20 
ROOT
HETATM    1  C   UNL     1      13.428  -0.443  23.178  1.00  0.00     0.025 C 
HETATM    2  C   UNL     1      12.688  -1.050  22.819  1.00  0.00    -0.050 C 
HETATM    3  C   UNL     1      12.160  -1.716  22.362  1.00  0.00     0.025 C 
ENDROOT
TORSDOF 6
