stable:False satoms:14 tatoms:24 sratio:0.5833333333333334
  -OEChem-08062412153D

 34 33  0     1  0  0  0  0  0999 V2000
    6.1455   -4.0583   27.0225 Cl  0  0  0  0  0  0  0  0  0  0  0  0
    7.9417   -3.8078   26.6943 S   0  0  0  0  0  0  0  0  0  0  0  0
    8.5693   -5.0813   26.7351 O   0  0  0  0  0  0  0  0  0  0  0  0
    8.4905   -2.9052   27.6296 O   0  0  0  0  0  0  0  0  0  0  0  0
    7.8666   -3.2294   25.2162 N   0  0  0  0  0  0  0  0  0  0  0  0
    8.7607   -2.6850   24.6081 C   0  0  0  0  0  0  0  0  0  0  0  0
    9.3680   -2.1107   23.9558 C   0  0  0  0  0  0  0  0  0  0  0  0
   10.3312   -1.5875   23.1619 C   0  0  1  0  0  0  0  0  0  0  0  0
   11.7155   -0.0969   24.5468 H   0  0  0  0  0  0  0  0  0  0  0  0
   12.5931   -0.4071   24.0434 C   0  0  0  0  0  0  0  0  0  0  0  0
   13.5243   -0.0598   24.0635 H   0  0  0  0  0  0  0  0  0  0  0  0
   12.4236   -1.4725   23.2585 C   0  0  0  0  0  0  0  0  0  0  0  0
   11.6697   -2.1318   22.8717 N   0  3  0  0  0  0  0  0  0  0  0  0
    9.7181   -0.8202   22.5257 C   0  0  0  0  0  0  0  0  0  0  0  0
    9.1649   -0.1053   21.4880 C   0  0  0  0  0  0  0  0  0  0  0  0
    9.7039    0.8303   21.0160 O   0  0  0  0  0  0  0  0  0  0  0  0
    7.9728   -0.6966   21.0711 N   0  0  0  0  0  0  0  0  0  0  0  0
    7.2377   -0.1333   20.2160 C   0  0  3  0  0  0  0  0  0  0  0  0
    7.1247   -0.1083   18.7934 C   0  0  0  0  0  0  0  0  0  0  0  0
    7.2132   -0.1812   17.6817 N   0  0  0  0  0  0  0  0  0  0  0  0
    4.7951    1.5114   19.0768 H   0  0  0  0  0  0  0  0  0  0  0  0
    5.6756    0.9272   19.3000 C   0  0  0  0  0  0  0  0  0  0  0  0
    5.9986    0.6963   20.5158 C   0  0  0  0  0  0  0  0  0  0  0  0
    5.6129    0.9357   21.5437 H   0  0  0  0  0  0  0  0  0  0  0  0
    7.1225   -2.5616   25.2363 H   0  0  0  0  0  0  0  0  0  0  0  0
   10.6883   -0.8601   23.9058 H   0  0  0  0  0  0  0  0  0  0  0  0
   13.3857   -1.7812   22.8770 H   0  0  0  0  0  0  0  0  0  0  0  0
   11.7627   -3.0302   23.3010 H   0  0  0  0  0  0  0  0  0  0  0  0
   10.1304    0.0647   23.0327 H   0  0  0  0  0  0  0  0  0  0  0  0
    8.7504   -1.0839   22.9773 H   0  0  0  0  0  0  0  0  0  0  0  0
    7.6977   -1.5780   21.4552 H   0  0  0  0  0  0  0  0  0  0  0  0
    7.8727    0.7649   20.2116 H   0  0  0  0  0  0  0  0  0  0  0  0
    6.2834    0.5380   18.4965 H   0  0  0  0  0  0  0  0  0  0  0  0
   11.7838   -2.2219   21.8823 H   0  0  0  0  0  0  0  0  0  0  0  0
 19 20  3  0  0  0  0
 21 22  1  0  0  0  0
 18 19  1  0  0  0  0
 22 23  2  0  0  0  0
 18 23  1  0  0  0  0
 17 18  1  0  0  0  0
 23 24  1  0  0  0  0
 15 17  1  0  0  0  0
 15 16  2  0  0  0  0
 14 15  1  0  0  0  0
  8 14  1  0  0  0  0
  8 13  1  0  0  0  0
 12 13  1  0  0  0  0
  7  8  1  0  0  0  0
 10 12  2  0  0  0  0
  6  7  3  0  0  0  0
 10 11  1  0  0  0  0
  9 10  1  0  0  0  0
  5  6  1  0  0  0  0
  2  5  1  0  0  0  0
  2  3  2  0  0  0  0
  1  2  1  0  0  0  0
  2  4  2  0  0  0  0
  5 25  1  0  0  0  0
  8 26  1  0  0  0  0
 12 27  1  0  0  0  0
 13 28  1  0  0  0  0
 14 29  1  0  0  0  0
 14 30  1  0  0  0  0
 17 31  1  0  0  0  0
 18 32  1  0  0  0  0
 22 33  1  0  0  0  0
 13 34  1  0  0  0  0
M  CHG  1  13   1
M  END
> <Chemgauss4>
-7.848858

$$$$
