stable:False satoms:14 tatoms:24 sratio:0.5833333333333334
  -OEChem-08062412153D

 34 33  0     1  0  0  0  0  0999 V2000
   -6.3073   -3.7449  -27.2055 Cl  0  0  0  0  0  0  0  0  0  0  0  0
   -8.1034   -3.4944  -26.8773 S   0  0  0  0  0  0  0  0  0  0  0  0
   -8.7310   -4.7678  -26.9181 O   0  0  0  0  0  0  0  0  0  0  0  0
   -8.6523   -2.5918  -27.8126 O   0  0  0  0  0  0  0  0  0  0  0  0
   -8.0284   -2.9159  -25.3992 N   0  0  0  0  0  0  0  0  0  0  0  0
   -8.9225   -2.3716  -24.7911 C   0  0  0  0  0  0  0  0  0  0  0  0
   -9.5297   -1.7973  -24.1389 C   0  0  0  0  0  0  0  0  0  0  0  0
  -10.4930   -1.2741  -23.3450 C   0  0  1  0  0  0  0  0  0  0  0  0
  -11.8772    0.2165  -24.7298 H   0  0  0  0  0  0  0  0  0  0  0  0
  -12.7549   -0.0936  -24.2264 C   0  0  0  0  0  0  0  0  0  0  0  0
  -13.6860    0.2537  -24.2466 H   0  0  0  0  0  0  0  0  0  0  0  0
  -12.5853   -1.1591  -23.4415 C   0  0  0  0  0  0  0  0  0  0  0  0
  -11.8315   -1.8184  -23.0547 N   0  3  0  0  0  0  0  0  0  0  0  0
   -9.8799   -0.5067  -22.7087 C   0  0  0  0  0  0  0  0  0  0  0  0
   -9.3266    0.2081  -21.6710 C   0  0  0  0  0  0  0  0  0  0  0  0
   -9.8657    1.1437  -21.1990 O   0  0  0  0  0  0  0  0  0  0  0  0
   -8.1345   -0.3832  -21.2542 N   0  0  0  0  0  0  0  0  0  0  0  0
   -7.3995    0.1801  -20.3990 C   0  0  3  0  0  0  0  0  0  0  0  0
   -7.2864    0.2051  -18.9764 C   0  0  0  0  0  0  0  0  0  0  0  0
   -7.3750    0.1322  -17.8647 N   0  0  0  0  0  0  0  0  0  0  0  0
   -4.9568    1.8248  -19.2598 H   0  0  0  0  0  0  0  0  0  0  0  0
   -5.8373    1.2406  -19.4830 C   0  0  0  0  0  0  0  0  0  0  0  0
   -6.1604    1.0097  -20.6989 C   0  0  0  0  0  0  0  0  0  0  0  0
   -5.7746    1.2491  -21.7267 H   0  0  0  0  0  0  0  0  0  0  0  0
   -7.2842   -2.2482  -25.4194 H   0  0  0  0  0  0  0  0  0  0  0  0
  -10.8500   -0.5467  -24.0888 H   0  0  0  0  0  0  0  0  0  0  0  0
  -13.5474   -1.4678  -23.0600 H   0  0  0  0  0  0  0  0  0  0  0  0
  -11.9245   -2.7167  -23.4840 H   0  0  0  0  0  0  0  0  0  0  0  0
  -10.2922    0.3781  -23.2157 H   0  0  0  0  0  0  0  0  0  0  0  0
   -8.9122   -0.7705  -23.1603 H   0  0  0  0  0  0  0  0  0  0  0  0
   -7.8595   -1.2646  -21.6382 H   0  0  0  0  0  0  0  0  0  0  0  0
   -8.0344    1.0783  -20.3946 H   0  0  0  0  0  0  0  0  0  0  0  0
   -6.4451    0.8514  -18.6795 H   0  0  0  0  0  0  0  0  0  0  0  0
  -11.9455   -1.9084  -22.0653 H   0  0  0  0  0  0  0  0  0  0  0  0
 19 20  3  0  0  0  0
 21 22  1  0  0  0  0
 18 19  1  0  0  0  0
 22 23  2  0  0  0  0
 18 23  1  0  0  0  0
 17 18  1  0  0  0  0
 23 24  1  0  0  0  0
 15 17  1  0  0  0  0
 15 16  2  0  0  0  0
 14 15  1  0  0  0  0
  8 14  1  0  0  0  0
  8 13  1  0  0  0  0
 12 13  1  0  0  0  0
  7  8  1  0  0  0  0
 10 12  2  0  0  0  0
  6  7  3  0  0  0  0
 10 11  1  0  0  0  0
  9 10  1  0  0  0  0
  5  6  1  0  0  0  0
  2  5  1  0  0  0  0
  2  3  2  0  0  0  0
  1  2  1  0  0  0  0
  2  4  2  0  0  0  0
  5 25  1  0  0  0  0
  8 26  1  0  0  0  0
 12 27  1  0  0  0  0
 13 28  1  0  0  0  0
 14 29  1  0  0  0  0
 14 30  1  0  0  0  0
 17 31  1  0  0  0  0
 18 32  1  0  0  0  0
 22 33  1  0  0  0  0
 13 34  1  0  0  0  0
M  CHG  1  13   1
M  END
> <Chemgauss4>
-8.177025

$$$$
