stable:False satoms:15 tatoms:24 sratio:0.625
  -OEChem-07092417363D

 24 25  0     1  0  0  0  0  0999 V2000
    7.4748   -3.8004   25.2114 H   0  0  0  0  0  0  0  0  0  0  0  0
    8.4546   -3.6519   25.5648 C   0  0  0  0  0  0  0  0  0  0  0  0
    8.4912   -3.3336   26.5566 H   0  0  0  0  0  0  0  0  0  0  0  0
    9.0820   -4.4760   25.4737 H   0  0  0  0  0  0  0  0  0  0  0  0
    8.8219   -2.8869   23.3627 N   0  0  0  0  0  0  0  0  0  0  0  0
    9.1385   -2.5348   24.6125 N   0  0  2  0  0  0  0  0  0  0  0  0
    9.0898   -2.8548   22.4258 H   0  0  0  0  0  0  0  0  0  0  0  0
    9.8671   -2.1219   23.8269 C   0  0  1  0  0  0  0  0  0  0  0  0
   11.4813   -0.3809   25.2484 H   0  0  0  0  0  0  0  0  0  0  0  0
   11.6252   -0.5392   24.2193 C   0  0  0  0  0  0  0  0  0  0  0  0
   12.0947    0.2053   23.6369 H   0  0  0  0  0  0  0  0  0  0  0  0
   11.9090   -2.2689   23.1657 H   0  0  0  0  0  0  0  0  0  0  0  0
   11.2167   -1.6443   23.6508 C   0  0  0  0  0  0  0  0  0  0  0  0
    8.9203   -0.3268   22.0310 C   0  0  0  0  0  0  0  0  0  0  0  0
    9.1402   -0.2544   23.0751 O   0  0  0  0  0  0  0  0  0  0  0  0
    7.8106    1.3781   21.7898 H   0  0  0  0  0  0  0  0  0  0  0  0
    9.0472   -0.2077   20.8259 O   0  0  0  0  0  0  0  0  0  0  0  0
    7.8798    0.4969   21.2783 C   0  0  1  0  0  0  0  0  0  0  0  0
    6.9071   -0.1120   19.2511 C   0  5  3  0  0  0  0  0  0  0  0  0
    7.5790   -0.7087   18.5729 H   0  0  0  0  0  0  0  0  0  0  0  0
    5.4032    0.6418   18.1718 H   0  0  0  0  0  0  0  0  0  0  0  0
    5.2925    1.2656   19.7516 H   0  0  0  0  0  0  0  0  0  0  0  0
    5.8521    0.6175   19.1704 C   0  0  0  0  0  0  0  0  0  0  0  0
    7.0052    0.2080   20.4236 C   0  0  2  0  0  0  0  0  0  0  0  0
 21 23  1  0  0  0  0
 19 20  1  0  0  0  0
 19 23  1  0  0  0  0
 22 23  1  0  0  0  0
 23 24  1  0  0  0  0
 19 24  1  0  0  0  0
 18 24  1  0  0  0  0
 17 18  1  0  0  0  0
 14 17  1  0  0  0  0
 16 18  1  0  0  0  0
 14 18  1  0  0  0  0
 14 15  2  0  0  0  0
  5  7  1  0  0  0  0
 12 13  1  0  0  0  0
  5  8  1  0  0  0  0
  5  6  1  0  0  0  0
 10 11  1  0  0  0  0
  8 13  1  0  0  0  0
 10 13  2  0  0  0  0
  6  8  1  0  0  0  0
  9 10  1  0  0  0  0
  2  6  1  0  0  0  0
  1  2  1  0  0  0  0
  2  4  1  0  0  0  0
  2  3  1  0  0  0  0
M  CHG  1  19  -1
M  END
> <Shapegauss>
-147.880997

$$$$
