REMARK  1 active torsions:
REMARK  status: ('A' for Active; 'I' for Inactive)
REMARK    1  A    between atoms: C_11  and  C_14 
ROOT
HETATM    1  C   UNL     2       8.920  -0.327  22.031  1.00  0.00     0.289 A 
HETATM    2  O   UNL     2       9.140  -0.254  23.075  1.00  0.00    -0.262 OA
HETATM    3  O   UNL     2       9.047  -0.208  20.826  1.00  0.00    -0.303 OA
HETATM    4  C   UNL     2       7.880   0.497  21.278  1.00  0.00     0.235 A 
ENDROOT
BRANCH   4   5
HETATM    5  C   UNL     2       7.005   0.208  20.424  1.00  0.00     0.025 A 
HETATM    6  C   UNL     2       6.907  -0.112  19.251  1.00  0.00     0.008 A 
HETATM    7  C   UNL     2       5.852   0.618  19.170  1.00  0.00     0.008 A 
ENDBRANCH   4   5
TORSDOF 1
