stable:False satoms:23 tatoms:24 sratio:0.9583333333333334
  -OEChem-07092417343D

 24 23  0     0  0  0  0  0  0999 V2000
    7.5708   -2.9276   26.1274 H   0  0  0  0  0  0  0  0  0  0  0  0
    9.1263   -3.7248   25.8665 H   0  0  0  0  0  0  0  0  0  0  0  0
    7.7271   -4.2324   25.0148 H   0  0  0  0  0  0  0  0  0  0  0  0
    8.2396   -3.3679   25.4222 C   0  0  0  0  0  0  0  0  0  0  0  0
    7.8714   -2.0343   23.7322 H   0  0  0  0  0  0  0  0  0  0  0  0
    9.8163   -1.8924   24.2422 N   0  3  0  0  0  0  0  0  0  0  0  0
    8.6961   -2.2957   24.3576 C   0  3  0  0  0  0  0  0  0  0  0  0
   12.0737   -1.5423   22.6909 H   0  0  0  0  0  0  0  0  0  0  0  0
   10.3350    0.1435   24.4181 H   0  0  0  0  0  0  0  0  0  0  0  0
   10.4885   -0.6494   23.7264 C   0  0  0  0  0  0  0  0  0  0  0  0
   12.5614   -0.0658   23.5411 H   0  0  0  0  0  0  0  0  0  0  0  0
   11.9632   -0.9564   23.5828 C   0  0  0  0  0  0  0  0  0  0  0  0
   12.2831   -1.5504   24.4116 H   0  0  0  0  0  0  0  0  0  0  0  0
   10.0319   -0.4264   22.7647 H   0  0  0  0  0  0  0  0  0  0  0  0
    8.3604   -0.0658   20.4025 C   0  0  0  0  0  0  0  0  0  0  0  0
    9.4549    0.3739   20.2504 O   0  0  0  0  0  0  0  0  0  0  0  0
    7.7325   -0.4249   21.4784 N   0  0  0  0  0  0  0  0  0  0  0  0
    7.4064    0.5399   18.5347 H   0  0  0  0  0  0  0  0  0  0  0  0
    7.3663   -1.2143   18.6920 H   0  0  0  0  0  0  0  0  0  0  0  0
    7.2496   -0.2784   19.1740 C   0  0  0  0  0  0  0  0  0  0  0  0
    5.0954    0.0309   19.5305 H   0  0  0  0  0  0  0  0  0  0  0  0
    6.3635   -0.2718   21.2444 C   0  0  0  0  0  0  0  0  0  0  0  0
    5.7431   -0.3001   22.1036 H   0  0  0  0  0  0  0  0  0  0  0  0
    6.0275   -0.1573   19.9878 C   0  0  0  0  0  0  0  0  0  0  0  0
 18 20  1  0  0  0  0
 19 20  1  0  0  0  0
 20 24  1  0  0  0  0
 15 20  1  0  0  0  0
 21 24  1  0  0  0  0
 22 24  2  0  0  0  0
 15 16  2  0  0  0  0
 15 17  1  0  0  0  0
 17 22  1  0  0  0  0
 22 23  1  0  0  0  0
  8 12  1  0  0  0  0
 10 14  1  0  0  0  0
 11 12  1  0  0  0  0
 10 12  1  0  0  0  0
 12 13  1  0  0  0  0
  6 10  1  0  0  0  0
  9 10  1  0  0  0  0
  5  7  1  0  0  0  0
  6  7  1  0  0  0  0
  4  7  1  0  0  0  0
  3  4  1  0  0  0  0
  2  4  1  0  0  0  0
  1  4  1  0  0  0  0
M  CHG  2   6   1   7   1
M  END
> <Shapegauss>
-116.320221

$$$$
