
 OpenBabel07202414153D

 49 51  0  0  0  0  0  0  0  0999 V2000
    0.8760    0.2625   -0.1491 C   0  0  0  0  0  0  0  0  0  0  0  0
    2.6479    0.1353   -0.2202 S   0  0  0  0  0  0  0  0  0  0  0  0
    3.1435    1.2258   -1.0306 O   0  0  0  0  0  0  0  0  0  0  0  0
    3.1282   -0.0713    1.1289 O   0  0  0  0  0  0  0  0  0  0  0  0
    2.8640   -1.2907   -1.0676 N   0  0  0  0  0  0  0  0  0  0  0  0
    2.8006   -1.3209   -2.5427 C   0  0  0  0  0  0  0  0  0  0  0  0
    1.7990   -2.3576   -3.0623 C   0  0  0  0  0  0  0  0  0  0  0  0
    2.1086   -3.7175   -2.4914 C   0  0  0  0  0  0  0  0  0  0  0  0
    1.9656   -4.8980   -3.2281 C   0  0  0  0  0  0  0  0  0  0  0  0
    2.3010   -6.1336   -2.6528 C   0  0  0  0  0  0  0  0  0  0  0  0
    2.7630   -6.2123   -1.3275 C   0  0  0  0  0  0  0  0  0  0  0  0
    2.8683   -5.0269   -0.5952 C   0  0  0  0  0  0  0  0  0  0  0  0
    2.5573   -3.7863   -1.1663 C   0  0  0  0  0  0  0  0  0  0  0  0
    2.6755   -2.5428   -0.3253 C   0  0  0  0  0  0  0  0  0  0  0  0
    3.2680   -7.5022   -0.7210 C   0  0  0  0  0  0  0  0  0  0  0  0
    2.3759   -8.3113    0.1024 N   0  0  0  0  0  0  0  0  0  0  0  0
    1.2215   -8.9062   -0.5568 C   0  0  0  0  0  0  0  0  0  0  0  0
   -0.0456   -8.0375   -0.5608 C   0  0  0  0  0  0  0  0  0  0  0  0
   -0.3647   -7.4204    0.7308 N   0  0  0  0  0  0  0  0  0  0  0  0
    0.7642   -6.9692    1.5501 C   0  0  0  0  0  0  0  0  0  0  0  0
    2.0382   -7.8232    1.4392 C   0  0  0  0  0  0  0  0  0  0  0  0
   -1.5852   -6.7661    0.9687 C   0  0  0  0  0  0  0  0  0  0  0  0
   -1.7720   -6.1306    2.0077 O   0  0  0  0  0  0  0  0  0  0  0  0
   -2.6246   -6.8525   -0.1437 C   0  0  0  0  0  0  0  0  0  0  0  0
   -4.1268   -6.0049    0.2801 Cl  0  0  0  0  0  0  0  0  0  0  0  0
    0.6274    1.2125    0.3297 H   0  0  0  0  0  0  0  0  0  0  0  0
    0.4785   -0.5608    0.4472 H   0  0  0  0  0  0  0  0  0  0  0  0
    0.4750    0.2422   -1.1636 H   0  0  0  0  0  0  0  0  0  0  0  0
    3.8083   -1.5518   -2.9126 H   0  0  0  0  0  0  0  0  0  0  0  0
    2.5359   -0.3381   -2.9475 H   0  0  0  0  0  0  0  0  0  0  0  0
    1.8411   -2.3764   -4.1580 H   0  0  0  0  0  0  0  0  0  0  0  0
    0.7798   -2.0752   -2.7720 H   0  0  0  0  0  0  0  0  0  0  0  0
    1.6249   -4.8649   -4.2616 H   0  0  0  0  0  0  0  0  0  0  0  0
    2.2313   -7.0330   -3.2618 H   0  0  0  0  0  0  0  0  0  0  0  0
    3.2351   -5.0616    0.4288 H   0  0  0  0  0  0  0  0  0  0  0  0
    3.5347   -2.6587    0.3456 H   0  0  0  0  0  0  0  0  0  0  0  0
    1.7655   -2.4854    0.2817 H   0  0  0  0  0  0  0  0  0  0  0  0
    4.1631   -7.2628   -0.1298 H   0  0  0  0  0  0  0  0  0  0  0  0
    3.6619   -8.1307   -1.5305 H   0  0  0  0  0  0  0  0  0  0  0  0
    0.9892   -9.8342   -0.0157 H   0  0  0  0  0  0  0  0  0  0  0  0
    1.4661   -9.2237   -1.5770 H   0  0  0  0  0  0  0  0  0  0  0  0
   -0.8875   -8.6726   -0.8562 H   0  0  0  0  0  0  0  0  0  0  0  0
    0.0322   -7.2354   -1.2992 H   0  0  0  0  0  0  0  0  0  0  0  0
    0.4480   -6.9436    2.6007 H   0  0  0  0  0  0  0  0  0  0  0  0
    0.9740   -5.9344    1.2611 H   0  0  0  0  0  0  0  0  0  0  0  0
    1.8839   -8.7129    2.0658 H   0  0  0  0  0  0  0  0  0  0  0  0
    2.8828   -7.2986    1.9023 H   0  0  0  0  0  0  0  0  0  0  0  0
   -2.8838   -7.8928   -0.3485 H   0  0  0  0  0  0  0  0  0  0  0  0
   -2.2289   -6.3727   -1.0433 H   0  0  0  0  0  0  0  0  0  0  0  0
  1  2  1  0  0  0  0
  1 26  1  0  0  0  0
  1 27  1  0  0  0  0
  1 28  1  0  0  0  0
  2  3  2  0  0  0  0
  2  4  2  0  0  0  0
  2  5  1  0  0  0  0
  5  6  1  0  0  0  0
  5 14  1  0  0  0  0
  6  7  1  0  0  0  0
  6 29  1  0  0  0  0
  6 30  1  0  0  0  0
  7  8  1  0  0  0  0
  7 31  1  0  0  0  0
  7 32  1  0  0  0  0
  8  9  1  0  0  0  0
  8 13  2  0  0  0  0
  9 10  2  0  0  0  0
  9 33  1  0  0  0  0
 10 11  1  0  0  0  0
 10 34  1  0  0  0  0
 11 12  2  0  0  0  0
 11 15  1  0  0  0  0
 12 13  1  0  0  0  0
 12 35  1  0  0  0  0
 13 14  1  0  0  0  0
 14 36  1  0  0  0  0
 14 37  1  0  0  0  0
 15 16  1  0  0  0  0
 15 38  1  0  0  0  0
 15 39  1  0  0  0  0
 16 17  1  0  0  0  0
 16 21  1  0  0  0  0
 17 18  1  0  0  0  0
 17 40  1  0  0  0  0
 17 41  1  0  0  0  0
 18 19  1  0  0  0  0
 18 42  1  0  0  0  0
 18 43  1  0  0  0  0
 19 20  1  0  0  0  0
 19 22  1  0  0  0  0
 20 21  1  0  0  0  0
 20 44  1  0  0  0  0
 20 45  1  0  0  0  0
 21 46  1  0  0  0  0
 21 47  1  0  0  0  0
 22 23  2  0  0  0  0
 22 24  1  0  0  0  0
 24 25  1  0  0  0  0
 24 48  1  0  0  0  0
 24 49  1  0  0  0  0
M  END
$$$$
