MODEL 1
REMARK VINA RESULT:    -5.382      0.000      0.000
REMARK INTER + INTRA:          -6.998
REMARK INTER:                  -6.483
REMARK INTRA:                  -0.515
REMARK UNBOUND:                -0.515
REMARK  5 active torsions:
REMARK  status: ('A' for Active; 'I' for Inactive)
REMARK    1  A    between atoms: C9_12  and  C1'_13 
REMARK    2  A    between atoms: C2'_14  and  O2'_15 
REMARK    3  A    between atoms: C3'_16  and  O3'_17 
REMARK    4  A    between atoms: C4'_18  and  C5'_20 
REMARK    5  A    between atoms: C5'_20  and  O5'_21 
ROOT
HETATM    1  N1  FMB F 240      -9.815  85.126  58.511  1.00 60.26    -0.318 N 
HETATM    2  C2  FMB F 240     -10.602  84.788  57.432  1.00 35.53     0.184 A 
HETATM    3  N3  FMB F 240     -11.479  85.619  56.865  1.00 33.44    -0.349 N 
ATOM      4  H3  FMB F 240     -12.065  85.372  56.068  1.00  0.00     0.167 HD
HETATM    5  C4  FMB F 240     -11.498  86.829  57.475  1.00 38.54     0.094 A 
HETATM    6  C5  FMB F 240     -10.752  87.258  58.552  1.00100.00     0.145 A 
HETATM    7  C6  FMB F 240      -9.826  86.364  59.149  1.00 57.49     0.276 A 
HETATM    8  O6  FMB F 240      -9.070  86.551  60.111  1.00 67.62    -0.266 OA
HETATM    9  N7  FMB F 240     -11.070  88.573  58.877  1.00 33.05    -0.293 N 
HETATM   10  N8  FMB F 240     -11.980  88.909  58.004  1.00100.00    -0.299 N 
ATOM     11  H8  FMB F 240     -12.418  89.831  57.979  1.00  0.00     0.186 HD
HETATM   12  C9  FMB F 240     -12.292  87.899  57.122  1.00 52.11     0.086 A 
HETATM   13  H1  FMB F 240      -9.189  84.431  58.862  1.00 20.00     0.169 HD
HETATM   14  H7  FMB F 240     -10.687  89.134  59.612  1.00 20.00     0.187 HD
ENDROOT
BRANCH  12  15
HETATM   15  C1' FMB F 240     -13.415  88.169  56.189  1.00 75.82     0.207 C 
HETATM   16  C2' FMB F 240     -14.512  87.102  56.224  1.00 42.06     0.184 C 
HETATM   17  C3' FMB F 240     -15.800  87.878  56.557  1.00 78.37     0.180 C 
HETATM   18  C4' FMB F 240     -15.313  89.211  57.090  1.00 79.39     0.177 C 
HETATM   19  O4' FMB F 240     -13.993  89.416  56.529  1.00 55.58    -0.367 OA
BRANCH  16  20
HETATM   20  O2' FMB F 240     -14.588  86.460  54.981  1.00 42.59    -0.390 OA
HETATM   21  H2' FMB F 240     -15.076  85.650  55.072  1.00 20.00     0.210 HD
ENDBRANCH  16  20
BRANCH  17  22
HETATM   22  O3' FMB F 240     -16.643  88.122  55.436  1.00 24.93    -0.390 OA
HETATM   23  H3' FMB F 240     -17.344  88.712  55.688  1.00 20.00     0.210 HD
ENDBRANCH  17  22
BRANCH  18  24
HETATM   24  C5' FMB F 240     -15.247  89.325  58.594  1.00 27.41     0.198 C 
BRANCH  24  25
HETATM   25  O5' FMB F 240     -14.241  90.265  58.966  1.00 49.77    -0.398 OA
HETATM   26  H5' FMB F 240     -14.060  90.843  58.233  1.00 20.00     0.209 HD
ENDBRANCH  24  25
ENDBRANCH  18  24
ENDBRANCH  12  15
TORSDOF 5
ENDMDL
MODEL 2
REMARK VINA RESULT:    -5.099     10.875     12.216
REMARK INTER + INTRA:          -6.657
REMARK INTER:                  -6.034
REMARK INTRA:                  -0.623
REMARK UNBOUND:                -0.515
REMARK  5 active torsions:
REMARK  status: ('A' for Active; 'I' for Inactive)
REMARK    1  A    between atoms: C9_12  and  C1'_13 
REMARK    2  A    between atoms: C2'_14  and  O2'_15 
REMARK    3  A    between atoms: C3'_16  and  O3'_17 
REMARK    4  A    between atoms: C4'_18  and  C5'_20 
REMARK    5  A    between atoms: C5'_20  and  O5'_21 
ROOT
HETATM    1  N1  FMB F 240      -5.840 100.618  53.624  1.00 60.26    -0.318 N 
HETATM    2  C2  FMB F 240      -5.087  99.538  53.217  1.00 35.53     0.184 A 
HETATM    3  N3  FMB F 240      -5.443  98.269  53.420  1.00 33.44    -0.349 N 
ATOM      4  H3  FMB F 240      -4.887  97.466  53.123  1.00  0.00     0.167 HD
HETATM    5  C4  FMB F 240      -6.629  98.172  54.067  1.00 38.54     0.094 A 
HETATM    6  C5  FMB F 240      -7.450  99.188  54.511  1.00100.00     0.145 A 
HETATM    7  C6  FMB F 240      -7.058 100.534  54.293  1.00 57.49     0.276 A 
HETATM    8  O6  FMB F 240      -7.645 101.578  54.606  1.00 67.62    -0.266 OA
HETATM    9  N7  FMB F 240      -8.582  98.669  55.131  1.00 33.05    -0.293 N 
HETATM   10  N8  FMB F 240      -8.430  97.376  55.050  1.00100.00    -0.299 N 
ATOM     11  H8  FMB F 240      -9.107  96.708  55.419  1.00  0.00     0.186 HD
HETATM   12  C9  FMB F 240      -7.266  97.001  54.418  1.00 52.11     0.086 A 
HETATM   13  H1  FMB F 240      -5.484 101.531  53.423  1.00 20.00     0.169 HD
HETATM   14  H7  FMB F 240      -9.340  99.174  55.545  1.00 20.00     0.187 HD
ENDROOT
BRANCH  12  15
HETATM   15  C1' FMB F 240      -6.965  95.546  54.411  1.00 75.82     0.207 C 
HETATM   16  C2' FMB F 240      -8.145  94.673  54.845  1.00 42.06     0.184 C 
HETATM   17  C3' FMB F 240      -8.370  93.707  53.666  1.00 78.37     0.180 C 
HETATM   18  C4' FMB F 240      -7.620  94.340  52.510  1.00 79.39     0.177 C 
HETATM   19  O4' FMB F 240      -6.589  95.171  53.099  1.00 55.58    -0.367 OA
BRANCH  16  20
HETATM   20  O2' FMB F 240      -7.823  93.996  56.028  1.00 42.59    -0.390 OA
HETATM   21  H2' FMB F 240      -7.462  94.611  56.657  1.00 20.00     0.210 HD
ENDBRANCH  16  20
BRANCH  17  22
HETATM   22  O3' FMB F 240      -7.852  92.397  53.876  1.00 24.93    -0.390 OA
HETATM   23  H3' FMB F 240      -7.520  92.053  53.055  1.00 20.00     0.210 HD
ENDBRANCH  17  22
BRANCH  18  24
HETATM   24  C5' FMB F 240      -8.458  95.165  51.565  1.00 27.41     0.198 C 
BRANCH  24  25
HETATM   25  O5' FMB F 240      -9.824  94.760  51.648  1.00 49.77    -0.398 OA
HETATM   26  H5' FMB F 240     -10.386  95.492  51.419  1.00 20.00     0.209 HD
ENDBRANCH  24  25
ENDBRANCH  18  24
ENDBRANCH  12  15
TORSDOF 5
ENDMDL
MODEL 3
REMARK VINA RESULT:    -4.902     11.077     12.050
REMARK INTER + INTRA:          -6.419
REMARK INTER:                  -5.444
REMARK INTRA:                  -0.975
REMARK UNBOUND:                -0.515
REMARK  5 active torsions:
REMARK  status: ('A' for Active; 'I' for Inactive)
REMARK    1  A    between atoms: C9_12  and  C1'_13 
REMARK    2  A    between atoms: C2'_14  and  O2'_15 
REMARK    3  A    between atoms: C3'_16  and  O3'_17 
REMARK    4  A    between atoms: C4'_18  and  C5'_20 
REMARK    5  A    between atoms: C5'_20  and  O5'_21 
ROOT
HETATM    1  N1  FMB F 240      -5.350  93.394  54.779  1.00 60.26    -0.318 N 
HETATM    2  C2  FMB F 240      -4.664  94.510  54.353  1.00 35.53     0.184 A 
HETATM    3  N3  FMB F 240      -5.225  95.712  54.205  1.00 33.44    -0.349 N 
ATOM      4  H3  FMB F 240      -4.721  96.540  53.887  1.00  0.00     0.167 HD
HETATM    5  C4  FMB F 240      -6.541  95.701  54.525  1.00 38.54     0.094 A 
HETATM    6  C5  FMB F 240      -7.310  94.641  54.958  1.00100.00     0.145 A 
HETATM    7  C6  FMB F 240      -6.703  93.367  55.108  1.00 57.49     0.276 A 
HETATM    8  O6  FMB F 240      -7.210  92.301  55.482  1.00 67.62    -0.266 OA
HETATM    9  N7  FMB F 240      -8.623  95.044  55.180  1.00 33.05    -0.293 N 
HETATM   10  N8  FMB F 240      -8.623  96.315  54.886  1.00100.00    -0.299 N 
ATOM     11  H8  FMB F 240      -9.453  96.905  54.951  1.00  0.00     0.186 HD
HETATM   12  C9  FMB F 240      -7.394  96.783  54.479  1.00 52.11     0.086 A 
HETATM   13  H1  FMB F 240      -4.838  92.539  54.858  1.00 20.00     0.169 HD
HETATM   14  H7  FMB F 240      -9.392  94.486  55.493  1.00 20.00     0.187 HD
ENDROOT
BRANCH  12  15
HETATM   15  C1' FMB F 240      -7.354  98.189  54.001  1.00 75.82     0.207 C 
HETATM   16  C2' FMB F 240      -7.981  99.187  54.978  1.00 42.06     0.184 C 
HETATM   17  C3' FMB F 240      -6.865 100.209  55.262  1.00 78.37     0.180 C 
HETATM   18  C4' FMB F 240      -5.596  99.525  54.790  1.00 79.39     0.177 C 
HETATM   19  O4' FMB F 240      -6.002  98.555  53.794  1.00 55.58    -0.367 OA
BRANCH  16  20
HETATM   20  O2' FMB F 240      -9.105  99.782  54.390  1.00 42.59    -0.390 OA
HETATM   21  H2' FMB F 240      -8.933  99.943  53.469  1.00 20.00     0.210 HD
ENDBRANCH  16  20
BRANCH  17  22
HETATM   22  O3' FMB F 240      -7.002 101.439  54.556  1.00 24.93    -0.390 OA
HETATM   23  H3' FMB F 240      -6.889 101.284  53.626  1.00 20.00     0.210 HD
ENDBRANCH  17  22
BRANCH  18  24
HETATM   24  C5' FMB F 240      -4.789  98.839  55.866  1.00 27.41     0.198 C 
BRANCH  24  25
HETATM   25  O5' FMB F 240      -3.747  98.067  55.273  1.00 49.77    -0.398 OA
HETATM   26  H5' FMB F 240      -3.942  97.142  55.372  1.00 20.00     0.209 HD
ENDBRANCH  24  25
ENDBRANCH  18  24
ENDBRANCH  12  15
TORSDOF 5
ENDMDL
MODEL 4
REMARK VINA RESULT:    -4.717      2.174      5.362
REMARK INTER + INTRA:          -6.196
REMARK INTER:                  -5.854
REMARK INTRA:                  -0.343
REMARK UNBOUND:                -0.515
REMARK  5 active torsions:
REMARK  status: ('A' for Active; 'I' for Inactive)
REMARK    1  A    between atoms: C9_12  and  C1'_13 
REMARK    2  A    between atoms: C2'_14  and  O2'_15 
REMARK    3  A    between atoms: C3'_16  and  O3'_17 
REMARK    4  A    between atoms: C4'_18  and  C5'_20 
REMARK    5  A    between atoms: C5'_20  and  O5'_21 
ROOT
HETATM    1  N1  FMB F 240     -13.244  89.804  55.594  1.00 60.26    -0.318 N 
HETATM    2  C2  FMB F 240     -12.003  89.218  55.464  1.00 35.53     0.184 A 
HETATM    3  N3  FMB F 240     -11.624  88.132  56.138  1.00 33.44    -0.349 N 
ATOM      4  H3  FMB F 240     -10.706  87.696  56.048  1.00  0.00     0.167 HD
HETATM    5  C4  FMB F 240     -12.601  87.676  56.958  1.00 38.54     0.094 A 
HETATM    6  C5  FMB F 240     -13.866  88.190  57.154  1.00100.00     0.145 A 
HETATM    7  C6  FMB F 240     -14.256  89.349  56.435  1.00 57.49     0.276 A 
HETATM    8  O6  FMB F 240     -15.333  89.960  56.464  1.00 67.62    -0.266 OA
HETATM    9  N7  FMB F 240     -14.567  87.429  58.084  1.00 33.05    -0.293 N 
HETATM   10  N8  FMB F 240     -13.733  86.485  58.423  1.00100.00    -0.299 N 
ATOM     11  H8  FMB F 240     -13.958  85.754  59.098  1.00  0.00     0.186 HD
HETATM   12  C9  FMB F 240     -12.518  86.572  57.781  1.00 52.11     0.086 A 
HETATM   13  H1  FMB F 240     -13.431  90.617  55.043  1.00 20.00     0.169 HD
HETATM   14  H7  FMB F 240     -15.500  87.572  58.416  1.00 20.00     0.187 HD
ENDROOT
BRANCH  12  15
HETATM   15  C1' FMB F 240     -11.475  85.610  58.219  1.00 75.82     0.207 C 
HETATM   16  C2' FMB F 240     -10.523  85.184  57.098  1.00 42.06     0.184 C 
HETATM   17  C3' FMB F 240      -9.119  85.544  57.621  1.00 78.37     0.180 C 
HETATM   18  C4' FMB F 240      -9.376  86.501  58.769  1.00 79.39     0.177 C 
HETATM   19  O4' FMB F 240     -10.713  86.211  59.249  1.00 55.58    -0.367 OA
BRANCH  16  20
HETATM   20  O2' FMB F 240     -10.660  83.811  56.858  1.00 42.59    -0.390 OA
HETATM   21  H2' FMB F 240      -9.828  83.454  56.568  1.00 20.00     0.210 HD
ENDBRANCH  16  20
BRANCH  17  22
HETATM   22  O3' FMB F 240      -8.376  84.435  58.117  1.00 24.93    -0.390 OA
HETATM   23  H3' FMB F 240      -7.530  84.734  58.426  1.00 20.00     0.210 HD
ENDBRANCH  17  22
BRANCH  18  24
HETATM   24  C5' FMB F 240      -9.267  87.967  58.430  1.00 27.41     0.198 C 
BRANCH  24  25
HETATM   25  O5' FMB F 240     -10.188  88.719  59.219  1.00 49.77    -0.398 OA
HETATM   26  H5' FMB F 240     -10.897  89.030  58.667  1.00 20.00     0.209 HD
ENDBRANCH  24  25
ENDBRANCH  18  24
ENDBRANCH  12  15
TORSDOF 5
ENDMDL
MODEL 5
REMARK VINA RESULT:    -4.673      2.529      6.524
REMARK INTER + INTRA:          -6.144
REMARK INTER:                  -5.144
REMARK INTRA:                  -1.001
REMARK UNBOUND:                -0.515
REMARK  5 active torsions:
REMARK  status: ('A' for Active; 'I' for Inactive)
REMARK    1  A    between atoms: C9_12  and  C1'_13 
REMARK    2  A    between atoms: C2'_14  and  O2'_15 
REMARK    3  A    between atoms: C3'_16  and  O3'_17 
REMARK    4  A    between atoms: C4'_18  and  C5'_20 
REMARK    5  A    between atoms: C5'_20  and  O5'_21 
ROOT
HETATM    1  N1  FMB F 240     -10.641  89.087  57.248  1.00 60.26    -0.318 N 
HETATM    2  C2  FMB F 240      -9.507  88.687  57.921  1.00 35.53     0.184 A 
HETATM    3  N3  FMB F 240      -9.364  87.486  58.483  1.00 33.44    -0.349 N 
ATOM      4  H3  FMB F 240      -8.528  87.186  58.983  1.00  0.00     0.167 HD
HETATM    5  C4  FMB F 240     -10.463  86.711  58.310  1.00 38.54     0.094 A 
HETATM    6  C5  FMB F 240     -11.636  87.021  57.656  1.00100.00     0.145 A 
HETATM    7  C6  FMB F 240     -11.778  88.304  57.066  1.00 57.49     0.276 A 
HETATM    8  O6  FMB F 240     -12.737  88.774  56.440  1.00 67.62    -0.266 OA
HETATM    9  N7  FMB F 240     -12.522  85.949  57.702  1.00 33.05    -0.293 N 
HETATM   10  N8  FMB F 240     -11.879  85.028  58.365  1.00100.00    -0.299 N 
ATOM     11  H8  FMB F 240     -12.270  84.107  58.566  1.00  0.00     0.186 HD
HETATM   12  C9  FMB F 240     -10.623  85.421  58.768  1.00 52.11     0.086 A 
HETATM   13  H1  FMB F 240     -10.648  90.009  56.863  1.00 20.00     0.169 HD
HETATM   14  H7  FMB F 240     -13.443  85.897  57.314  1.00 20.00     0.187 HD
ENDROOT
BRANCH  12  15
HETATM   15  C1' FMB F 240      -9.889  84.471  59.643  1.00 75.82     0.207 C 
HETATM   16  C2' FMB F 240      -9.908  83.027  59.132  1.00 42.06     0.184 C 
HETATM   17  C3' FMB F 240      -8.423  82.639  59.004  1.00 78.37     0.180 C 
HETATM   18  C4' FMB F 240      -7.682  83.961  59.036  1.00 79.39     0.177 C 
HETATM   19  O4' FMB F 240      -8.542  84.894  59.736  1.00 55.58    -0.367 OA
BRANCH  16  20
HETATM   20  O2' FMB F 240     -10.590  82.212  60.045  1.00 42.59    -0.390 OA
HETATM   21  H2' FMB F 240     -10.382  81.301  59.874  1.00 20.00     0.210 HD
ENDBRANCH  16  20
BRANCH  17  22
HETATM   22  O3' FMB F 240      -7.937  81.825  60.067  1.00 24.93    -0.390 OA
HETATM   23  H3' FMB F 240      -7.189  81.323  59.764  1.00 20.00     0.210 HD
ENDBRANCH  17  22
BRANCH  18  24
HETATM   24  C5' FMB F 240      -7.310  84.530  57.688  1.00 27.41     0.198 C 
BRANCH  24  25
HETATM   25  O5' FMB F 240      -6.946  85.903  57.824  1.00 49.77    -0.398 OA
HETATM   26  H5' FMB F 240      -6.040  85.965  58.102  1.00 20.00     0.209 HD
ENDBRANCH  24  25
ENDBRANCH  18  24
ENDBRANCH  12  15
TORSDOF 5
ENDMDL
MODEL 6
REMARK VINA RESULT:    -4.595      9.551     10.473
REMARK INTER + INTRA:          -6.051
REMARK INTER:                  -5.333
REMARK INTRA:                  -0.717
REMARK UNBOUND:                -0.515
REMARK  5 active torsions:
REMARK  status: ('A' for Active; 'I' for Inactive)
REMARK    1  A    between atoms: C9_12  and  C1'_13 
REMARK    2  A    between atoms: C2'_14  and  O2'_15 
REMARK    3  A    between atoms: C3'_16  and  O3'_17 
REMARK    4  A    between atoms: C4'_18  and  C5'_20 
REMARK    5  A    between atoms: C5'_20  and  O5'_21 
ROOT
HETATM    1  N1  FMB F 240      -2.479  95.465  57.875  1.00 60.26    -0.318 N 
HETATM    2  C2  FMB F 240      -2.667  95.875  56.574  1.00 35.53     0.184 A 
HETATM    3  N3  FMB F 240      -3.711  95.514  55.827  1.00 33.44    -0.349 N 
ATOM      4  H3  FMB F 240      -3.853  95.813  54.862  1.00  0.00     0.167 HD
HETATM    5  C4  FMB F 240      -4.561  94.703  56.501  1.00 38.54     0.094 A 
HETATM    6  C5  FMB F 240      -4.460  94.241  57.797  1.00100.00     0.145 A 
HETATM    7  C6  FMB F 240      -3.342  94.629  58.580  1.00 57.49     0.276 A 
HETATM    8  O6  FMB F 240      -3.067  94.330  59.750  1.00 67.62    -0.266 OA
HETATM    9  N7  FMB F 240      -5.542  93.427  58.114  1.00 33.05    -0.293 N 
HETATM   10  N8  FMB F 240      -6.265  93.414  57.029  1.00100.00    -0.299 N 
ATOM     11  H8  FMB F 240      -7.142  92.898  56.945  1.00  0.00     0.186 HD
HETATM   12  C9  FMB F 240      -5.731  94.166  56.006  1.00 52.11     0.086 A 
HETATM   13  H1  FMB F 240      -1.662  95.792  58.350  1.00 20.00     0.169 HD
HETATM   14  H7  FMB F 240      -5.724  92.958  58.979  1.00 20.00     0.187 HD
ENDROOT
BRANCH  12  15
HETATM   15  C1' FMB F 240      -6.432  94.087  54.700  1.00 75.82     0.207 C 
HETATM   16  C2' FMB F 240      -7.959  94.119  54.820  1.00 42.06     0.184 C 
HETATM   17  C3' FMB F 240      -8.393  95.314  53.951  1.00 78.37     0.180 C 
HETATM   18  C4' FMB F 240      -7.121  96.115  53.744  1.00 79.39     0.177 C 
HETATM   19  O4' FMB F 240      -6.023  95.183  53.903  1.00 55.58    -0.367 OA
BRANCH  16  20
HETATM   20  O2' FMB F 240      -8.495  92.909  54.360  1.00 42.59    -0.390 OA
HETATM   21  H2' FMB F 240      -8.108  92.690  53.520  1.00 20.00     0.210 HD
ENDBRANCH  16  20
BRANCH  17  22
HETATM   22  O3' FMB F 240      -8.910  94.953  52.674  1.00 24.93    -0.390 OA
HETATM   23  H3' FMB F 240      -9.821  94.698  52.762  1.00 20.00     0.210 HD
ENDBRANCH  17  22
BRANCH  18  24
HETATM   24  C5' FMB F 240      -6.931  97.285  54.678  1.00 27.41     0.198 C 
BRANCH  24  25
HETATM   25  O5' FMB F 240      -8.198  97.846  55.018  1.00 49.77    -0.398 OA
HETATM   26  H5' FMB F 240      -8.663  97.253  55.597  1.00 20.00     0.209 HD
ENDBRANCH  24  25
ENDBRANCH  18  24
ENDBRANCH  12  15
TORSDOF 5
ENDMDL
MODEL 7
REMARK VINA RESULT:    -4.480     12.382     14.030
REMARK INTER + INTRA:          -5.911
REMARK INTER:                  -5.357
REMARK INTRA:                  -0.554
REMARK UNBOUND:                -0.515
REMARK  5 active torsions:
REMARK  status: ('A' for Active; 'I' for Inactive)
REMARK    1  A    between atoms: C9_12  and  C1'_13 
REMARK    2  A    between atoms: C2'_14  and  O2'_15 
REMARK    3  A    between atoms: C3'_16  and  O3'_17 
REMARK    4  A    between atoms: C4'_18  and  C5'_20 
REMARK    5  A    between atoms: C5'_20  and  O5'_21 
ROOT
HETATM    1  N1  FMB F 240      -7.202 100.955  55.241  1.00 60.26    -0.318 N 
HETATM    2  C2  FMB F 240      -5.839 100.754  55.227  1.00 35.53     0.184 A 
HETATM    3  N3  FMB F 240      -5.268  99.558  55.078  1.00 33.44    -0.349 N 
ATOM      4  H3  FMB F 240      -4.260  99.405  55.069  1.00  0.00     0.167 HD
HETATM    5  C4  FMB F 240      -6.186  98.571  54.939  1.00 38.54     0.094 A 
HETATM    6  C5  FMB F 240      -7.562  98.673  54.940  1.00100.00     0.145 A 
HETATM    7  C6  FMB F 240      -8.157  99.950  55.103  1.00 57.49     0.276 A 
HETATM    8  O6  FMB F 240      -9.357 100.254  55.130  1.00 67.62    -0.266 OA
HETATM    9  N7  FMB F 240      -8.147  97.422  54.771  1.00 33.05    -0.293 N 
HETATM   10  N8  FMB F 240      -7.135  96.604  54.670  1.00100.00    -0.299 N 
ATOM     11  H8  FMB F 240      -7.240  95.598  54.534  1.00  0.00     0.186 HD
HETATM   12  C9  FMB F 240      -5.913  97.231  54.765  1.00 52.11     0.086 A 
HETATM   13  H1  FMB F 240      -7.530 101.892  55.358  1.00 20.00     0.169 HD
HETATM   14  H7  FMB F 240      -9.122  97.200  54.735  1.00 20.00     0.187 HD
ENDROOT
BRANCH  12  15
HETATM   15  C1' FMB F 240      -4.723  96.344  54.793  1.00 75.82     0.207 C 
HETATM   16  C2' FMB F 240      -3.427  97.041  54.369  1.00 42.06     0.184 C 
HETATM   17  C3' FMB F 240      -2.471  96.845  55.560  1.00 78.37     0.180 C 
HETATM   18  C4' FMB F 240      -3.375  96.442  56.709  1.00 79.39     0.177 C 
HETATM   19  O4' FMB F 240      -4.557  95.855  56.111  1.00 55.58    -0.367 OA
BRANCH  16  20
HETATM   20  O2' FMB F 240      -2.937  96.454  53.196  1.00 42.59    -0.390 OA
HETATM   21  H2' FMB F 240      -3.664  96.182  52.648  1.00 20.00     0.210 HD
ENDBRANCH  16  20
BRANCH  17  22
HETATM   22  O3' FMB F 240      -1.500  95.821  55.370  1.00 24.93    -0.390 OA
HETATM   23  H3' FMB F 240      -0.708  96.198  55.008  1.00 20.00     0.210 HD
ENDBRANCH  17  22
BRANCH  18  24
HETATM   24  C5' FMB F 240      -3.779  97.558  57.641  1.00 27.41     0.198 C 
BRANCH  24  25
HETATM   25  O5' FMB F 240      -3.138  98.772  57.251  1.00 49.77    -0.398 OA
HETATM   26  H5' FMB F 240      -2.556  98.603  56.519  1.00 20.00     0.209 HD
ENDBRANCH  24  25
ENDBRANCH  18  24
ENDBRANCH  12  15
TORSDOF 5
ENDMDL
MODEL 8
REMARK VINA RESULT:    -4.467     12.703     14.193
REMARK INTER + INTRA:          -5.896
REMARK INTER:                  -5.163
REMARK INTRA:                  -0.732
REMARK UNBOUND:                -0.515
REMARK  5 active torsions:
REMARK  status: ('A' for Active; 'I' for Inactive)
REMARK    1  A    between atoms: C9_12  and  C1'_13 
REMARK    2  A    between atoms: C2'_14  and  O2'_15 
REMARK    3  A    between atoms: C3'_16  and  O3'_17 
REMARK    4  A    between atoms: C4'_18  and  C5'_20 
REMARK    5  A    between atoms: C5'_20  and  O5'_21 
ROOT
HETATM    1  N1  FMB F 240      -8.080 101.359  55.082  1.00 60.26    -0.318 N 
HETATM    2  C2  FMB F 240      -6.744 101.395  54.748  1.00 35.53     0.184 A 
HETATM    3  N3  FMB F 240      -6.007 100.306  54.524  1.00 33.44    -0.349 N 
ATOM      4  H3  FMB F 240      -5.017 100.328  54.279  1.00  0.00     0.167 HD
HETATM    5  C4  FMB F 240      -6.729  99.168  54.661  1.00 38.54     0.094 A 
HETATM    6  C5  FMB F 240      -8.061  99.032  54.989  1.00100.00     0.145 A 
HETATM    7  C6  FMB F 240      -8.834 100.198  55.229  1.00 57.49     0.276 A 
HETATM    8  O6  FMB F 240     -10.031 100.292  55.530  1.00 67.62    -0.266 OA
HETATM    9  N7  FMB F 240      -8.423  97.689  55.028  1.00 33.05    -0.293 N 
HETATM   10  N8  FMB F 240      -7.326  97.051  54.725  1.00100.00    -0.299 N 
ATOM     11  H8  FMB F 240      -7.267  96.034  54.668  1.00  0.00     0.186 HD
HETATM   12  C9  FMB F 240      -6.255  97.884  54.491  1.00 52.11     0.086 A 
HETATM   13  H1  FMB F 240      -8.543 102.233  55.229  1.00 20.00     0.169 HD
HETATM   14  H7  FMB F 240      -9.320  97.301  55.240  1.00 20.00     0.187 HD
ENDROOT
BRANCH  12  15
HETATM   15  C1' FMB F 240      -4.945  97.221  54.274  1.00 75.82     0.207 C 
HETATM   16  C2' FMB F 240      -5.001  96.063  53.273  1.00 42.06     0.184 C 
HETATM   17  C3' FMB F 240      -3.968  96.431  52.192  1.00 78.37     0.180 C 
HETATM   18  C4' FMB F 240      -3.707  97.910  52.404  1.00 79.39     0.177 C 
HETATM   19  O4' FMB F 240      -4.027  98.185  53.791  1.00 55.58    -0.367 OA
BRANCH  16  20
HETATM   20  O2' FMB F 240      -4.684  94.862  53.920  1.00 42.59    -0.390 OA
HETATM   21  H2' FMB F 240      -5.483  94.435  54.206  1.00 20.00     0.210 HD
ENDBRANCH  16  20
BRANCH  17  22
HETATM   22  O3' FMB F 240      -2.730  95.735  52.303  1.00 24.93    -0.390 OA
HETATM   23  H3' FMB F 240      -2.879  94.888  52.705  1.00 20.00     0.210 HD
ENDBRANCH  17  22
BRANCH  18  24
HETATM   24  C5' FMB F 240      -4.486  98.843  51.510  1.00 27.41     0.198 C 
BRANCH  24  25
HETATM   25  O5' FMB F 240      -5.008  98.123  50.394  1.00 49.77    -0.398 OA
HETATM   26  H5' FMB F 240      -5.953  98.055  50.474  1.00 20.00     0.209 HD
ENDBRANCH  24  25
ENDBRANCH  18  24
ENDBRANCH  12  15
TORSDOF 5
ENDMDL
MODEL 9
REMARK VINA RESULT:    -4.288     22.857     24.837
REMARK INTER + INTRA:          -5.680
REMARK INTER:                  -4.956
REMARK INTRA:                  -0.725
REMARK UNBOUND:                -0.515
REMARK  5 active torsions:
REMARK  status: ('A' for Active; 'I' for Inactive)
REMARK    1  A    between atoms: C9_12  and  C1'_13 
REMARK    2  A    between atoms: C2'_14  and  O2'_15 
REMARK    3  A    between atoms: C3'_16  and  O3'_17 
REMARK    4  A    between atoms: C4'_18  and  C5'_20 
REMARK    5  A    between atoms: C5'_20  and  O5'_21 
ROOT
HETATM    1  N1  FMB F 240      -3.991  65.066  55.204  1.00 60.26    -0.318 N 
HETATM    2  C2  FMB F 240      -4.538  63.810  55.355  1.00 35.53     0.184 A 
HETATM    3  N3  FMB F 240      -5.775  63.491  54.974  1.00 33.44    -0.349 N 
ATOM      4  H3  FMB F 240      -6.185  62.564  55.086  1.00  0.00     0.167 HD
HETATM    5  C4  FMB F 240      -6.423  64.544  54.419  1.00 38.54     0.094 A 
HETATM    6  C5  FMB F 240      -5.963  65.829  54.226  1.00100.00     0.145 A 
HETATM    7  C6  FMB F 240      -4.645  66.158  54.640  1.00 57.49     0.276 A 
HETATM    8  O6  FMB F 240      -4.048  67.239  54.556  1.00 67.62    -0.266 OA
HETATM    9  N7  FMB F 240      -6.939  66.616  53.623  1.00 33.05    -0.293 N 
HETATM   10  N8  FMB F 240      -7.950  65.808  53.464  1.00100.00    -0.299 N 
ATOM     11  H8  FMB F 240      -8.833  66.092  53.038  1.00  0.00     0.186 HD
HETATM   12  C9  FMB F 240      -7.710  64.533  53.926  1.00 52.11     0.086 A 
HETATM   13  H1  FMB F 240      -3.053  65.203  55.522  1.00 20.00     0.169 HD
HETATM   14  H7  FMB F 240      -6.879  67.582  53.370  1.00 20.00     0.187 HD
ENDROOT
BRANCH  12  15
HETATM   15  C1' FMB F 240      -8.864  63.599  53.898  1.00 75.82     0.207 C 
HETATM   16  C2' FMB F 240      -9.589  63.559  52.549  1.00 42.06     0.184 C 
HETATM   17  C3' FMB F 240      -9.546  62.078  52.127  1.00 78.37     0.180 C 
HETATM   18  C4' FMB F 240      -8.476  61.464  53.008  1.00 79.39     0.177 C 
HETATM   19  O4' FMB F 240      -8.395  62.296  54.192  1.00 55.58    -0.367 OA
BRANCH  16  20
HETATM   20  O2' FMB F 240     -10.901  64.026  52.704  1.00 42.59    -0.390 OA
HETATM   21  H2' FMB F 240     -10.888  64.869  53.143  1.00 20.00     0.210 HD
ENDBRANCH  16  20
BRANCH  17  22
HETATM   22  O3' FMB F 240     -10.765  61.373  52.340  1.00 24.93    -0.390 OA
HETATM   23  H3' FMB F 240     -11.484  61.857  51.952  1.00 20.00     0.210 HD
ENDBRANCH  17  22
BRANCH  18  24
HETATM   24  C5' FMB F 240      -7.109  61.342  52.380  1.00 27.41     0.198 C 
BRANCH  24  25
HETATM   25  O5' FMB F 240      -7.230  61.279  50.960  1.00 49.77    -0.398 OA
HETATM   26  H5' FMB F 240      -7.180  60.373  50.677  1.00 20.00     0.209 HD
ENDBRANCH  24  25
ENDBRANCH  18  24
ENDBRANCH  12  15
TORSDOF 5
ENDMDL
