REMARK  5 active torsions:
REMARK  status: ('A' for Active; 'I' for Inactive)
REMARK    1  A    between atoms: C_1  and  N_3 
REMARK    2  A    between atoms: N_3  and  N_5 
REMARK    3  A    between atoms: N_5  and  C_6 
REMARK    4  A    between atoms: C_7  and  N_11 
REMARK    5  A    between atoms: N_8  and  C_13 
ROOT
HETATM    1  C   UNL     1       7.318   0.048  19.141  1.00  0.00     0.010 C 
HETATM    2  C   UNL     1       5.276   0.914  19.916  1.00  0.00     0.010 C 
HETATM    3  C   UNL     1       6.426   0.434  19.856  1.00  0.00    -0.021 C 
ENDROOT
TORSDOF 5
