REMARK  4 active torsions:
REMARK  status: ('A' for Active; 'I' for Inactive)
REMARK    1  A    between atoms: C_1  and  C_6 
REMARK    2  A    between atoms: C_1  and  N_2 
REMARK    3  A    between atoms: C_5  and  C_12 
REMARK    4  A    between atoms: C_6  and  C_12 
ROOT
HETATM    1  C   UNL     1       9.077  -0.270  21.569  1.00  0.00    -0.014 C 
HETATM    2  C   UNL     1       8.377  -1.401  21.687  1.00  0.00     0.015 C 
HETATM    3  C   UNL     1       6.503  -0.709  20.270  1.00  0.00     0.062 C 
HETATM    4  C   UNL     1       7.134   0.349  19.547  1.00  0.00     0.213 C 
HETATM    5  S   UNL     1       8.690   0.771  20.138  1.00  0.00    -0.053 SA
HETATM    6  O   UNL     1       6.658   0.940  18.595  1.00  0.00    -0.280 OA
HETATM    7  C   UNL     1       7.021  -1.424  21.302  1.00  0.00     0.005 C 
ENDROOT
BRANCH   1   8
HETATM    8  C   UNL     1      10.148   0.210  22.428  1.00  0.00     0.048 C 
BRANCH   8   9
HETATM    9  C   UNL     1      10.181  -0.228  23.916  1.00  0.00     0.025 C 
BRANCH   9  10
HETATM   10  C   UNL     1      10.065  -1.754  24.221  1.00  0.00     0.118 C 
BRANCH  10  11
HETATM   11  N   UNL     1       8.707  -2.290  24.419  1.00  0.00    -0.408 N 
HETATM   12  H   UNL     1       7.973  -1.633  24.320  1.00  0.00     0.157 HD
HETATM   13  C   UNL     1       8.540  -3.577  24.457  1.00  0.00     0.112 C 
ENDBRANCH  10  11
ENDBRANCH   9  10
ENDBRANCH   8   9
ENDBRANCH   1   8
TORSDOF 4
