stable:False satoms:22 tatoms:24 sratio:0.9166666666666666
  -OEChem-07092417313D

 24 24  0     0  0  0  0  0  0999 V2000
   10.0645   -1.7537   24.2213 C   0  0  0  0  0  0  0  0  0  0  0  0
    9.0087   -4.1280   25.2444 H   0  0  0  0  0  0  0  0  0  0  0  0
    7.9020   -4.1119   23.7837 H   0  0  0  0  0  0  0  0  0  0  0  0
   10.4809   -2.3054   23.3844 H   0  0  0  0  0  0  0  0  0  0  0  0
    8.7069   -2.2902   24.4186 N   0  0  0  0  0  0  0  0  0  0  0  0
    8.5403   -3.5772   24.4570 C   0  3  0  0  0  0  0  0  0  0  0  0
    7.9731   -1.6325   24.3203 H   0  0  0  0  0  0  0  0  0  0  0  0
    9.0770   -0.2698   21.5687 C   0  0  0  0  0  0  0  0  0  0  0  0
   10.1813   -0.2283   23.9165 C   0  0  0  0  0  0  0  0  0  0  0  0
   10.6670   -1.9659   25.0924 H   0  0  0  0  0  0  0  0  0  0  0  0
   11.1345    0.1278   24.3079 H   0  0  0  0  0  0  0  0  0  0  0  0
    8.3775   -1.4005   21.6873 C   0  0  0  0  0  0  0  0  0  0  0  0
   10.1584    1.2901   22.4123 H   0  0  0  0  0  0  0  0  0  0  0  0
   11.0857   -0.1352   22.0042 H   0  0  0  0  0  0  0  0  0  0  0  0
    6.4008   -2.0942   21.8495 H   0  0  0  0  0  0  0  0  0  0  0  0
    9.3795    0.2661   24.4170 H   0  0  0  0  0  0  0  0  0  0  0  0
    8.7940   -2.3359   21.9961 H   0  0  0  0  0  0  0  0  0  0  0  0
    6.5028   -0.7090   20.2698 C   0  0  0  0  0  0  0  0  0  0  0  0
    7.1344    0.3487   19.5469 C   0  0  0  0  0  0  0  0  0  0  0  0
    8.6897    0.7710   20.1382 S   0  0  0  0  0  0  0  0  0  0  0  0
    6.6583    0.9396   18.5946 O   0  0  0  0  0  0  0  0  0  0  0  0
   10.1478    0.2101   22.4278 C   0  0  0  0  0  0  0  0  0  0  0  0
    5.4973   -0.8822   19.9361 H   0  0  0  0  0  0  0  0  0  0  0  0
    7.0215   -1.4236   21.3017 C   0  0  0  0  0  0  0  0  0  0  0  0
 19 21  2  0  0  0  0
 19 20  1  0  0  0  0
 18 19  1  0  0  0  0
 18 23  1  0  0  0  0
  8 20  1  0  0  0  0
 18 24  2  0  0  0  0
 12 24  1  0  0  0  0
 15 24  1  0  0  0  0
  8 12  2  0  0  0  0
  8 22  1  0  0  0  0
 12 17  1  0  0  0  0
 14 22  1  0  0  0  0
 13 22  1  0  0  0  0
  9 22  1  0  0  0  0
  1  4  1  0  0  0  0
  3  6  1  0  0  0  0
  1  9  1  0  0  0  0
  9 11  1  0  0  0  0
  9 16  1  0  0  0  0
  1  5  1  0  0  0  0
  1 10  1  0  0  0  0
  5  7  1  0  0  0  0
  5  6  1  0  0  0  0
  2  6  1  0  0  0  0
M  CHG  1   6   1
M  END
> <Shapegauss>
-131.523254

$$$$
