MODEL 1
REMARK VINA RESULT:    -4.578      0.000      0.000
REMARK INTER + INTRA:          -5.777
REMARK INTER:                  -5.649
REMARK INTRA:                  -0.128
REMARK UNBOUND:                -0.128
REMARK  4 active torsions:
REMARK  status: ('A' for Active; 'I' for Inactive)
REMARK    1  A    between atoms: C_1  and  C_6 
REMARK    2  A    between atoms: C_1  and  N_2 
REMARK    3  A    between atoms: C_5  and  C_12 
REMARK    4  A    between atoms: C_6  and  C_12 
ROOT
HETATM    1  C   UNL     1       9.926  -1.087  23.053  1.00  0.00    -0.014 C 
HETATM    2  C   UNL     1       9.543   0.039  23.660  1.00  0.00     0.015 C 
HETATM    3  C   UNL     1      11.627   0.405  24.894  1.00  0.00     0.062 C 
HETATM    4  C   UNL     1      12.506  -0.406  24.114  1.00  0.00     0.213 C 
HETATM    5  S   UNL     1      11.711  -1.373  22.938  1.00  0.00    -0.053 SA
HETATM    6  O   UNL     1      13.717  -0.455  24.231  1.00  0.00    -0.280 OA
HETATM    7  C   UNL     1      10.280   0.523  24.759  1.00  0.00     0.005 C 
ENDROOT
BRANCH   1   8
HETATM    8  C   UNL     1       9.083  -2.097  22.432  1.00  0.00     0.048 C 
BRANCH   8   9
HETATM    9  C   UNL     1       8.320  -3.105  23.329  1.00  0.00     0.025 C 
BRANCH   9  10
HETATM   10  C   UNL     1       7.198  -3.960  22.661  1.00  0.00     0.118 C 
BRANCH  10  11
HETATM   11  N   UNL     1       7.601  -5.257  22.092  1.00  0.00    -0.408 N 
HETATM   12  H   UNL     1       8.546  -5.511  22.243  1.00  0.00     0.157 HD
HETATM   13  C   UNL     1       6.681  -6.069  21.667  1.00  0.00     0.112 C 
ENDBRANCH  10  11
ENDBRANCH   9  10
ENDBRANCH   8   9
ENDBRANCH   1   8
TORSDOF 4
ENDMDL
MODEL 2
REMARK VINA RESULT:    -4.455      2.317      2.613
REMARK INTER + INTRA:          -5.625
REMARK INTER:                  -5.458
REMARK INTRA:                  -0.168
REMARK UNBOUND:                -0.128
REMARK  4 active torsions:
REMARK  status: ('A' for Active; 'I' for Inactive)
REMARK    1  A    between atoms: C_1  and  C_6 
REMARK    2  A    between atoms: C_1  and  N_2 
REMARK    3  A    between atoms: C_5  and  C_12 
REMARK    4  A    between atoms: C_6  and  C_12 
ROOT
HETATM    1  C   UNL     1      10.283  -0.609  22.394  1.00  0.00    -0.014 C 
HETATM    2  C   UNL     1      10.267   0.724  22.316  1.00  0.00     0.015 C 
HETATM    3  C   UNL     1      11.927   1.120  24.072  1.00  0.00     0.062 C 
HETATM    4  C   UNL     1      12.553  -0.164  24.097  1.00  0.00     0.213 C 
HETATM    5  S   UNL     1      11.751  -1.353  23.152  1.00  0.00    -0.053 SA
HETATM    6  O   UNL     1      13.560  -0.450  24.718  1.00  0.00    -0.280 OA
HETATM    7  C   UNL     1      10.835   1.490  23.354  1.00  0.00     0.005 C 
ENDROOT
BRANCH   1   8
HETATM    8  C   UNL     1       9.283  -1.545  21.904  1.00  0.00     0.048 C 
BRANCH   8   9
HETATM    9  C   UNL     1       7.815  -1.407  22.386  1.00  0.00     0.025 C 
BRANCH   9  10
HETATM   10  C   UNL     1       6.853  -0.529  21.527  1.00  0.00     0.118 C 
BRANCH  10  11
HETATM   11  N   UNL     1       5.935  -1.242  20.621  1.00  0.00    -0.408 N 
HETATM   12  H   UNL     1       5.438  -1.996  21.028  1.00  0.00     0.157 HD
HETATM   13  C   UNL     1       5.651  -0.712  19.471  1.00  0.00     0.112 C 
ENDBRANCH  10  11
ENDBRANCH   9  10
ENDBRANCH   8   9
ENDBRANCH   1   8
TORSDOF 4
ENDMDL
MODEL 3
REMARK VINA RESULT:    -4.337     23.165     25.475
REMARK INTER + INTRA:          -5.480
REMARK INTER:                  -5.369
REMARK INTRA:                  -0.111
REMARK UNBOUND:                -0.128
REMARK  4 active torsions:
REMARK  status: ('A' for Active; 'I' for Inactive)
REMARK    1  A    between atoms: C_1  and  C_6 
REMARK    2  A    between atoms: C_1  and  N_2 
REMARK    3  A    between atoms: C_5  and  C_12 
REMARK    4  A    between atoms: C_6  and  C_12 
ROOT
HETATM    1  C   UNL     1       2.775 -20.858   8.797  1.00  0.00    -0.014 C 
HETATM    2  C   UNL     1       3.446 -21.279   7.721  1.00  0.00     0.015 C 
HETATM    3  C   UNL     1       2.975 -23.663   8.023  1.00  0.00     0.062 C 
HETATM    4  C   UNL     1       1.834 -23.570   8.878  1.00  0.00     0.213 C 
HETATM    5  S   UNL     1       1.515 -21.983   9.450  1.00  0.00    -0.053 SA
HETATM    6  O   UNL     1       1.121 -24.498   9.212  1.00  0.00    -0.280 OA
HETATM    7  C   UNL     1       3.763 -22.646   7.589  1.00  0.00     0.005 C 
ENDROOT
BRANCH   1   8
HETATM    8  C   UNL     1       2.902 -19.583   9.485  1.00  0.00     0.048 C 
BRANCH   8   9
HETATM    9  C   UNL     1       1.632 -18.729   9.739  1.00  0.00     0.025 C 
BRANCH   9  10
HETATM   10  C   UNL     1       1.238 -17.681   8.652  1.00  0.00     0.118 C 
BRANCH  10  11
HETATM   11  N   UNL     1       1.166 -16.274   9.082  1.00  0.00    -0.408 N 
HETATM   12  H   UNL     1       2.006 -15.758   8.989  1.00  0.00     0.157 HD
HETATM   13  C   UNL     1       0.001 -15.746   9.307  1.00  0.00     0.112 C 
ENDBRANCH  10  11
ENDBRANCH   9  10
ENDBRANCH   8   9
ENDBRANCH   1   8
TORSDOF 4
ENDMDL
MODEL 4
REMARK VINA RESULT:    -4.199      1.666      2.002
REMARK INTER + INTRA:          -5.309
REMARK INTER:                  -5.138
REMARK INTRA:                  -0.171
REMARK UNBOUND:                -0.128
REMARK  4 active torsions:
REMARK  status: ('A' for Active; 'I' for Inactive)
REMARK    1  A    between atoms: C_1  and  C_6 
REMARK    2  A    between atoms: C_1  and  N_2 
REMARK    3  A    between atoms: C_5  and  C_12 
REMARK    4  A    between atoms: C_6  and  C_12 
ROOT
HETATM    1  C   UNL     1       9.854  -1.202  23.169  1.00  0.00    -0.014 C 
HETATM    2  C   UNL     1       9.509  -0.055  23.759  1.00  0.00     0.015 C 
HETATM    3  C   UNL     1      11.675   0.366  24.821  1.00  0.00     0.062 C 
HETATM    4  C   UNL     1      12.501  -0.470  24.009  1.00  0.00     0.213 C 
HETATM    5  S   UNL     1      11.628  -1.485  22.933  1.00  0.00    -0.053 SA
HETATM    6  O   UNL     1      13.717  -0.509  24.039  1.00  0.00    -0.280 OA
HETATM    7  C   UNL     1      10.322   0.474  24.782  1.00  0.00     0.005 C 
ENDROOT
BRANCH   1   8
HETATM    8  C   UNL     1       8.975  -2.238  22.649  1.00  0.00     0.048 C 
BRANCH   8   9
HETATM    9  C   UNL     1       7.901  -2.859  23.581  1.00  0.00     0.025 C 
BRANCH   9  10
HETATM   10  C   UNL     1       8.309  -4.113  24.416  1.00  0.00     0.118 C 
BRANCH  10  11
HETATM   11  N   UNL     1       8.071  -4.049  25.869  1.00  0.00    -0.408 N 
HETATM   12  H   UNL     1       7.630  -3.223  26.190  1.00  0.00     0.157 HD
HETATM   13  C   UNL     1       8.211  -5.129  26.575  1.00  0.00     0.112 C 
ENDBRANCH  10  11
ENDBRANCH   9  10
ENDBRANCH   8   9
ENDBRANCH   1   8
TORSDOF 4
ENDMDL
MODEL 5
REMARK VINA RESULT:    -4.161     26.780     27.687
REMARK INTER + INTRA:          -5.262
REMARK INTER:                  -5.162
REMARK INTRA:                  -0.100
REMARK UNBOUND:                -0.128
REMARK  4 active torsions:
REMARK  status: ('A' for Active; 'I' for Inactive)
REMARK    1  A    between atoms: C_1  and  C_6 
REMARK    2  A    between atoms: C_1  and  N_2 
REMARK    3  A    between atoms: C_5  and  C_12 
REMARK    4  A    between atoms: C_6  and  C_12 
ROOT
HETATM    1  C   UNL     1       8.291  14.142   1.884  1.00  0.00    -0.014 C 
HETATM    2  C   UNL     1       7.187  13.686   1.288  1.00  0.00     0.015 C 
HETATM    3  C   UNL     1       7.077  11.566   2.509  1.00  0.00     0.062 C 
HETATM    4  C   UNL     1       7.894  11.899   3.632  1.00  0.00     0.213 C 
HETATM    5  S   UNL     1       8.706  13.405   3.486  1.00  0.00    -0.053 SA
HETATM    6  O   UNL     1       8.045  11.215   4.628  1.00  0.00    -0.280 OA
HETATM    7  C   UNL     1       6.844  12.324   1.406  1.00  0.00     0.005 C 
ENDROOT
BRANCH   1   8
HETATM    8  C   UNL     1       9.183  15.195   1.423  1.00  0.00     0.048 C 
BRANCH   8   9
HETATM    9  C   UNL     1       8.764  16.678   1.603  1.00  0.00     0.025 C 
BRANCH   9  10
HETATM   10  C   UNL     1       9.153  17.680   0.472  1.00  0.00     0.118 C 
BRANCH  10  11
HETATM   11  N   UNL     1      10.101  18.750   0.831  1.00  0.00    -0.408 N 
HETATM   12  H   UNL     1      11.038  18.459   0.963  1.00  0.00     0.157 HD
HETATM   13  C   UNL     1       9.725  19.986   0.709  1.00  0.00     0.112 C 
ENDBRANCH  10  11
ENDBRANCH   9  10
ENDBRANCH   8   9
ENDBRANCH   1   8
TORSDOF 4
ENDMDL
MODEL 6
REMARK VINA RESULT:    -4.138      5.453      6.855
REMARK INTER + INTRA:          -5.234
REMARK INTER:                  -5.020
REMARK INTRA:                  -0.214
REMARK UNBOUND:                -0.128
REMARK  4 active torsions:
REMARK  status: ('A' for Active; 'I' for Inactive)
REMARK    1  A    between atoms: C_1  and  C_6 
REMARK    2  A    between atoms: C_1  and  N_2 
REMARK    3  A    between atoms: C_5  and  C_12 
REMARK    4  A    between atoms: C_6  and  C_12 
ROOT
HETATM    1  C   UNL     1       7.149   0.686  20.818  1.00  0.00    -0.014 C 
HETATM    2  C   UNL     1       7.452   0.238  19.597  1.00  0.00     0.015 C 
HETATM    3  C   UNL     1       5.265   0.693  18.593  1.00  0.00     0.062 C 
HETATM    4  C   UNL     1       4.771   1.650  19.531  1.00  0.00     0.213 C 
HETATM    5  S   UNL     1       5.745   1.824  20.934  1.00  0.00    -0.053 SA
HETATM    6  O   UNL     1       3.754   2.307  19.404  1.00  0.00    -0.280 OA
HETATM    7  C   UNL     1       6.418  -0.021  18.675  1.00  0.00     0.005 C 
ENDROOT
BRANCH   1   8
HETATM    8  C   UNL     1       7.840   0.406  22.068  1.00  0.00     0.048 C 
BRANCH   8   9
HETATM    9  C   UNL     1       9.179   1.127  22.372  1.00  0.00     0.025 C 
BRANCH   9  10
HETATM   10  C   UNL     1      10.480   0.518  21.762  1.00  0.00     0.118 C 
BRANCH  10  11
HETATM   11  N   UNL     1      10.589  -0.951  21.761  1.00  0.00    -0.408 N 
HETATM   12  H   UNL     1      10.283  -1.398  20.932  1.00  0.00     0.157 HD
HETATM   13  C   UNL     1      11.281  -1.529  22.695  1.00  0.00     0.112 C 
ENDBRANCH  10  11
ENDBRANCH   9  10
ENDBRANCH   8   9
ENDBRANCH   1   8
TORSDOF 4
ENDMDL
MODEL 7
REMARK VINA RESULT:    -4.100     28.220     28.965
REMARK INTER + INTRA:          -5.187
REMARK INTER:                  -4.948
REMARK INTRA:                  -0.239
REMARK UNBOUND:                -0.128
REMARK  4 active torsions:
REMARK  status: ('A' for Active; 'I' for Inactive)
REMARK    1  A    between atoms: C_1  and  C_6 
REMARK    2  A    between atoms: C_1  and  N_2 
REMARK    3  A    between atoms: C_5  and  C_12 
REMARK    4  A    between atoms: C_6  and  C_12 
ROOT
HETATM    1  C   UNL     1       9.311  18.179   1.862  1.00  0.00    -0.014 C 
HETATM    2  C   UNL     1       9.587  18.847   0.739  1.00  0.00     0.015 C 
HETATM    3  C   UNL     1      10.253  20.938   1.826  1.00  0.00     0.062 C 
HETATM    4  C   UNL     1      10.535  20.443   3.135  1.00  0.00     0.213 C 
HETATM    5  S   UNL     1      10.069  18.808   3.381  1.00  0.00    -0.053 SA
HETATM    6  O   UNL     1      11.050  21.077   4.038  1.00  0.00    -0.280 OA
HETATM    7  C   UNL     1       9.728  20.249   0.780  1.00  0.00     0.005 C 
ENDROOT
BRANCH   1   8
HETATM    8  C   UNL     1       8.507  16.975   2.009  1.00  0.00     0.048 C 
BRANCH   8   9
HETATM    9  C   UNL     1       9.084  15.615   1.537  1.00  0.00     0.025 C 
BRANCH   9  10
HETATM   10  C   UNL     1       9.480  14.580   2.635  1.00  0.00     0.118 C 
BRANCH  10  11
HETATM   11  N   UNL     1      10.879  14.606   3.098  1.00  0.00    -0.408 N 
HETATM   12  H   UNL     1      11.555  14.352   2.420  1.00  0.00     0.157 HD
HETATM   13  C   UNL     1      11.154  15.176   4.231  1.00  0.00     0.112 C 
ENDBRANCH  10  11
ENDBRANCH   9  10
ENDBRANCH   8   9
ENDBRANCH   1   8
TORSDOF 4
ENDMDL
MODEL 8
REMARK VINA RESULT:    -4.080      3.240      3.950
REMARK INTER + INTRA:          -5.162
REMARK INTER:                  -4.864
REMARK INTRA:                  -0.297
REMARK UNBOUND:                -0.128
REMARK  4 active torsions:
REMARK  status: ('A' for Active; 'I' for Inactive)
REMARK    1  A    between atoms: C_1  and  C_6 
REMARK    2  A    between atoms: C_1  and  N_2 
REMARK    3  A    between atoms: C_5  and  C_12 
REMARK    4  A    between atoms: C_6  and  C_12 
ROOT
HETATM    1  C   UNL     1      10.284   0.757  22.661  1.00  0.00    -0.014 C 
HETATM    2  C   UNL     1      10.056  -0.535  22.412  1.00  0.00     0.015 C 
HETATM    3  C   UNL     1      12.181  -1.362  23.308  1.00  0.00     0.062 C 
HETATM    4  C   UNL     1      12.537  -0.249  24.130  1.00  0.00     0.213 C 
HETATM    5  S   UNL     1      11.531   1.127  23.922  1.00  0.00    -0.053 SA
HETATM    6  O   UNL     1      13.464  -0.217  24.918  1.00  0.00    -0.280 OA
HETATM    7  C   UNL     1      11.127  -1.452  22.456  1.00  0.00     0.005 C 
ENDROOT
BRANCH   1   8
HETATM    8  C   UNL     1       9.618   1.909  22.074  1.00  0.00     0.048 C 
BRANCH   8   9
HETATM    9  C   UNL     1       8.209   2.312  22.583  1.00  0.00     0.025 C 
BRANCH   9  10
HETATM   10  C   UNL     1       6.981   1.573  21.965  1.00  0.00     0.118 C 
BRANCH  10  11
HETATM   11  N   UNL     1       6.484   0.391  22.691  1.00  0.00    -0.408 N 
HETATM   12  H   UNL     1       6.261  -0.391  22.125  1.00  0.00     0.157 HD
HETATM   13  C   UNL     1       6.603   0.352  23.983  1.00  0.00     0.112 C 
ENDBRANCH  10  11
ENDBRANCH   9  10
ENDBRANCH   8   9
ENDBRANCH   1   8
TORSDOF 4
ENDMDL
MODEL 9
REMARK VINA RESULT:    -4.004      2.607      3.360
REMARK INTER + INTRA:          -5.069
REMARK INTER:                  -4.809
REMARK INTRA:                  -0.260
REMARK UNBOUND:                -0.128
REMARK  4 active torsions:
REMARK  status: ('A' for Active; 'I' for Inactive)
REMARK    1  A    between atoms: C_1  and  C_6 
REMARK    2  A    between atoms: C_1  and  N_2 
REMARK    3  A    between atoms: C_5  and  C_12 
REMARK    4  A    between atoms: C_6  and  C_12 
ROOT
HETATM    1  C   UNL     1       9.613   1.406  22.891  1.00  0.00    -0.014 C 
HETATM    2  C   UNL     1      10.065   1.659  24.122  1.00  0.00     0.015 C 
HETATM    3  C   UNL     1      11.166  -0.503  24.457  1.00  0.00     0.062 C 
HETATM    4  C   UNL     1      11.291  -0.916  23.095  1.00  0.00     0.213 C 
HETATM    5  S   UNL     1      10.456   0.087  21.979  1.00  0.00    -0.053 SA
HETATM    6  O   UNL     1      11.913  -1.885  22.702  1.00  0.00    -0.280 OA
HETATM    7  C   UNL     1      10.524   0.597  24.928  1.00  0.00     0.005 C 
ENDROOT
BRANCH   1   8
HETATM    8  C   UNL     1       8.550   2.091  22.173  1.00  0.00     0.048 C 
BRANCH   8   9
HETATM    9  C   UNL     1       7.127   1.475  22.154  1.00  0.00     0.025 C 
BRANCH   9  10
HETATM   10  C   UNL     1       6.731   0.613  20.915  1.00  0.00     0.118 C 
BRANCH  10  11
HETATM   11  N   UNL     1       6.259  -0.757  21.183  1.00  0.00    -0.408 N 
HETATM   12  H   UNL     1       5.546  -1.085  20.579  1.00  0.00     0.157 HD
HETATM   13  C   UNL     1       6.944  -1.511  21.988  1.00  0.00     0.112 C 
ENDBRANCH  10  11
ENDBRANCH   9  10
ENDBRANCH   8   9
ENDBRANCH   1   8
TORSDOF 4
ENDMDL
