REMARK  5 active torsions:
REMARK  status: ('A' for Active; 'I' for Inactive)
REMARK    1  A    between atoms: C_2  and  N_10 
REMARK    2  A    between atoms: C_4  and  C_12 
REMARK    3  A    between atoms: C_4  and  C_6 
REMARK    4  A    between atoms: N_7  and  C_12 
REMARK    5  A    between atoms: N_8  and  N_10 
ROOT
HETATM    1  C   UNL     1       8.683  -1.815  21.921  1.00  0.00     0.088 C 
HETATM    2  N   UNL     1       8.686  -1.552  23.192  1.00  0.00    -0.314 N 
ENDROOT
BRANCH   1   3
HETATM    3  C   UNL     1       8.273  -0.766  21.029  1.00  0.00     0.049 C 
HETATM    4  C   UNL     1       7.958  -1.735  20.106  1.00  0.00     0.017 C 
BRANCH   3   5
HETATM    5  C   UNL     1       9.532   0.176  20.969  1.00  0.00     0.276 C 
BRANCH   5   6
HETATM    6  N   UNL     1      10.723  -0.495  21.416  1.00  0.00     0.078 N 
HETATM    7  H   UNL     1      10.635  -1.495  21.769  1.00  0.00     0.312 HD
HETATM    8  H   UNL     1      11.156  -0.131  22.283  1.00  0.00     0.312 HD
ENDBRANCH   5   6
ENDBRANCH   3   5
ENDBRANCH   1   3
BRANCH   2   9
HETATM    9  C   UNL     1       7.666  -2.057  24.113  1.00  0.00     0.142 C 
HETATM   10  C   UNL     1       8.386  -2.014  25.442  1.00  0.00     0.028 C 
ENDBRANCH   2   9
BRANCH   2  11
HETATM   11  N   UNL     1       8.974  -0.225  23.599  1.00  0.00    -0.344 N 
HETATM   12  H   UNL     1       8.129   0.333  23.330  1.00  0.00     0.177 HD
HETATM   13  H   UNL     1       9.747   0.210  23.497  1.00  0.00     0.177 HD
ENDBRANCH   2  11
TORSDOF 5
