MODEL 1
REMARK VINA RESULT:    -3.580      0.000      0.000
REMARK INTER + INTRA:          -4.553
REMARK INTER:                  -4.417
REMARK INTRA:                  -0.136
REMARK UNBOUND:                -0.136
REMARK  5 active torsions:
REMARK  status: ('A' for Active; 'I' for Inactive)
REMARK    1  A    between atoms: C_2  and  N_10 
REMARK    2  A    between atoms: C_4  and  C_12 
REMARK    3  A    between atoms: C_4  and  C_6 
REMARK    4  A    between atoms: N_7  and  C_12 
REMARK    5  A    between atoms: N_8  and  N_10 
ROOT
HETATM    1  C   UNL     1       6.703  12.453   2.295  1.00  0.00     0.088 C 
HETATM    2  N   UNL     1       7.062  11.294   2.755  1.00  0.00    -0.314 N 
ENDROOT
BRANCH   1   3
HETATM    3  C   UNL     1       7.131  13.615   3.023  1.00  0.00     0.049 C 
HETATM    4  C   UNL     1       5.806  13.911   3.242  1.00  0.00     0.017 C 
BRANCH   3   5
HETATM    5  C   UNL     1       8.075  14.357   2.006  1.00  0.00     0.276 C 
BRANCH   5   6
HETATM    6  N   UNL     1       7.876  13.894   0.658  1.00  0.00     0.078 N 
HETATM    7  H   UNL     1       7.545  12.894   0.513  1.00  0.00     0.312 HD
HETATM    8  H   UNL     1       8.728  13.792   0.079  1.00  0.00     0.312 HD
ENDBRANCH   5   6
ENDBRANCH   3   5
ENDBRANCH   1   3
BRANCH   2   9
HETATM    9  C   UNL     1       6.142  10.393   3.453  1.00  0.00     0.142 C 
HETATM   10  C   UNL     1       5.446   9.696   2.306  1.00  0.00     0.028 C 
ENDBRANCH   2   9
BRANCH   2  11
HETATM   11  N   UNL     1       8.306  11.198   3.427  1.00  0.00    -0.344 N 
HETATM   12  H   UNL     1       8.062  11.036   4.433  1.00  0.00     0.177 HD
HETATM   13  H   UNL     1       9.022  11.717   3.304  1.00  0.00     0.177 HD
ENDBRANCH   2  11
TORSDOF 5
ENDMDL
MODEL 2
REMARK VINA RESULT:    -3.568      1.764      2.076
REMARK INTER + INTRA:          -4.538
REMARK INTER:                  -4.341
REMARK INTRA:                  -0.197
REMARK UNBOUND:                -0.136
REMARK  5 active torsions:
REMARK  status: ('A' for Active; 'I' for Inactive)
REMARK    1  A    between atoms: C_2  and  N_10 
REMARK    2  A    between atoms: C_4  and  C_12 
REMARK    3  A    between atoms: C_4  and  C_6 
REMARK    4  A    between atoms: N_7  and  C_12 
REMARK    5  A    between atoms: N_8  and  N_10 
ROOT
HETATM    1  C   UNL     1       7.544  13.750   2.199  1.00  0.00     0.088 C 
HETATM    2  N   UNL     1       7.346  12.512   2.535  1.00  0.00    -0.314 N 
ENDROOT
BRANCH   1   3
HETATM    3  C   UNL     1       8.306  14.567   3.102  1.00  0.00     0.049 C 
HETATM    4  C   UNL     1       7.200  15.374   3.234  1.00  0.00     0.017 C 
BRANCH   3   5
HETATM    5  C   UNL     1       9.598  14.919   2.276  1.00  0.00     0.276 C 
BRANCH   5   6
HETATM    6  N   UNL     1      10.797  14.528   2.967  1.00  0.00     0.078 N 
HETATM    7  H   UNL     1      11.567  14.050   2.409  1.00  0.00     0.312 HD
HETATM    8  H   UNL     1      10.699  13.764   3.659  1.00  0.00     0.312 HD
ENDBRANCH   5   6
ENDBRANCH   3   5
ENDBRANCH   1   3
BRANCH   2   9
HETATM    9  C   UNL     1       6.061  12.017   3.033  1.00  0.00     0.142 C 
HETATM   10  C   UNL     1       5.097  12.512   1.979  1.00  0.00     0.028 C 
ENDBRANCH   2   9
BRANCH   2  11
HETATM   11  N   UNL     1       8.350  11.856   3.290  1.00  0.00    -0.344 N 
HETATM   12  H   UNL     1       8.720  12.585   3.945  1.00  0.00     0.177 HD
HETATM   13  H   UNL     1       8.971  11.294   2.980  1.00  0.00     0.177 HD
ENDBRANCH   2  11
TORSDOF 5
ENDMDL
MODEL 3
REMARK VINA RESULT:    -3.484     22.890     24.314
REMARK INTER + INTRA:          -4.434
REMARK INTER:                  -4.325
REMARK INTRA:                  -0.109
REMARK UNBOUND:                -0.136
REMARK  5 active torsions:
REMARK  status: ('A' for Active; 'I' for Inactive)
REMARK    1  A    between atoms: C_2  and  N_10 
REMARK    2  A    between atoms: C_4  and  C_12 
REMARK    3  A    between atoms: C_4  and  C_6 
REMARK    4  A    between atoms: N_7  and  C_12 
REMARK    5  A    between atoms: N_8  and  N_10 
ROOT
HETATM    1  C   UNL     1      11.458   1.725  23.821  1.00  0.00     0.088 C 
HETATM    2  N   UNL     1      11.442   0.694  24.608  1.00  0.00    -0.314 N 
ENDROOT
BRANCH   1   3
HETATM    3  C   UNL     1      10.192   2.247  23.386  1.00  0.00     0.049 C 
HETATM    4  C   UNL     1      10.495   1.805  22.120  1.00  0.00     0.017 C 
BRANCH   3   5
HETATM    5  C   UNL     1      10.231   3.746  23.863  1.00  0.00     0.276 C 
BRANCH   5   6
HETATM    6  N   UNL     1      11.274   4.488  23.208  1.00  0.00     0.078 N 
HETATM    7  H   UNL     1      11.126   4.779  22.196  1.00  0.00     0.312 HD
HETATM    8  H   UNL     1      12.156   3.976  23.027  1.00  0.00     0.312 HD
ENDBRANCH   5   6
ENDBRANCH   3   5
ENDBRANCH   1   3
BRANCH   2   9
HETATM    9  C   UNL     1      11.777  -0.659  24.157  1.00  0.00     0.142 C 
HETATM   10  C   UNL     1      13.285  -0.602  24.069  1.00  0.00     0.028 C 
ENDBRANCH   2   9
BRANCH   2  11
HETATM   11  N   UNL     1      10.358   0.560  25.511  1.00  0.00    -0.344 N 
HETATM   12  H   UNL     1       9.580   0.145  24.945  1.00  0.00     0.177 HD
HETATM   13  H   UNL     1      10.090   1.157  26.118  1.00  0.00     0.177 HD
ENDBRANCH   2  11
TORSDOF 5
ENDMDL
MODEL 4
REMARK VINA RESULT:    -3.422     22.833     24.421
REMARK INTER + INTRA:          -4.358
REMARK INTER:                  -4.253
REMARK INTRA:                  -0.106
REMARK UNBOUND:                -0.136
REMARK  5 active torsions:
REMARK  status: ('A' for Active; 'I' for Inactive)
REMARK    1  A    between atoms: C_2  and  N_10 
REMARK    2  A    between atoms: C_4  and  C_12 
REMARK    3  A    between atoms: C_4  and  C_6 
REMARK    4  A    between atoms: N_7  and  C_12 
REMARK    5  A    between atoms: N_8  and  N_10 
ROOT
HETATM    1  C   UNL     1      11.226   0.682  23.261  1.00  0.00     0.088 C 
HETATM    2  N   UNL     1      10.499   0.373  22.231  1.00  0.00    -0.314 N 
ENDROOT
BRANCH   1   3
HETATM    3  C   UNL     1      11.517  -0.362  24.204  1.00  0.00     0.049 C 
HETATM    4  C   UNL     1      10.777   0.331  25.132  1.00  0.00     0.017 C 
BRANCH   3   5
HETATM    5  C   UNL     1      13.088  -0.455  24.174  1.00  0.00     0.276 C 
BRANCH   5   6
HETATM    6  N   UNL     1      13.542  -1.566  23.382  1.00  0.00     0.078 N 
HETATM    7  H   UNL     1      12.824  -2.104  22.811  1.00  0.00     0.312 HD
HETATM    8  H   UNL     1      13.880  -2.394  23.905  1.00  0.00     0.312 HD
ENDBRANCH   5   6
ENDBRANCH   3   5
ENDBRANCH   1   3
BRANCH   2   9
HETATM    9  C   UNL     1       9.093   0.760  22.104  1.00  0.00     0.142 C 
HETATM   10  C   UNL     1       8.676   0.037  20.843  1.00  0.00     0.028 C 
ENDBRANCH   2   9
BRANCH   2  11
HETATM   11  N   UNL     1      10.604  -0.941  21.709  1.00  0.00    -0.344 N 
HETATM   12  H   UNL     1       9.729  -1.428  22.017  1.00  0.00     0.177 HD
HETATM   13  H   UNL     1      11.331  -1.460  21.709  1.00  0.00     0.177 HD
ENDBRANCH   2  11
TORSDOF 5
ENDMDL
MODEL 5
REMARK VINA RESULT:    -3.422      1.653      4.087
REMARK INTER + INTRA:          -4.358
REMARK INTER:                  -4.176
REMARK INTRA:                  -0.183
REMARK UNBOUND:                -0.136
REMARK  5 active torsions:
REMARK  status: ('A' for Active; 'I' for Inactive)
REMARK    1  A    between atoms: C_2  and  N_10 
REMARK    2  A    between atoms: C_4  and  C_12 
REMARK    3  A    between atoms: C_4  and  C_6 
REMARK    4  A    between atoms: N_7  and  C_12 
REMARK    5  A    between atoms: N_8  and  N_10 
ROOT
HETATM    1  C   UNL     1       7.468  13.788   2.713  1.00  0.00     0.088 C 
HETATM    2  N   UNL     1       8.612  14.402   2.734  1.00  0.00    -0.314 N 
ENDROOT
BRANCH   1   3
HETATM    3  C   UNL     1       7.463  12.411   2.304  1.00  0.00     0.049 C 
HETATM    4  C   UNL     1       6.640  12.770   1.263  1.00  0.00     0.017 C 
BRANCH   3   5
HETATM    5  C   UNL     1       7.012  11.645   3.602  1.00  0.00     0.276 C 
BRANCH   5   6
HETATM    6  N   UNL     1       8.079  10.855   4.155  1.00  0.00     0.078 N 
HETATM    7  H   UNL     1       8.352  11.018   5.170  1.00  0.00     0.312 HD
HETATM    8  H   UNL     1       9.025  11.035   3.777  1.00  0.00     0.312 HD
ENDBRANCH   5   6
ENDBRANCH   3   5
ENDBRANCH   1   3
BRANCH   2   9
HETATM    9  C   UNL     1       9.010  15.380   1.719  1.00  0.00     0.142 C 
HETATM   10  C   UNL     1       7.875  16.377   1.772  1.00  0.00     0.028 C 
ENDBRANCH   2   9
BRANCH   2  11
HETATM   11  N   UNL     1       9.771  13.645   3.040  1.00  0.00    -0.344 N 
HETATM   12  H   UNL     1       9.811  12.897   2.308  1.00  0.00     0.177 HD
HETATM   13  H   UNL     1      10.037  13.379   3.850  1.00  0.00     0.177 HD
ENDBRANCH   2  11
TORSDOF 5
ENDMDL
MODEL 6
REMARK VINA RESULT:    -3.420      2.789      3.947
REMARK INTER + INTRA:          -4.356
REMARK INTER:                  -4.177
REMARK INTRA:                  -0.178
REMARK UNBOUND:                -0.136
REMARK  5 active torsions:
REMARK  status: ('A' for Active; 'I' for Inactive)
REMARK    1  A    between atoms: C_2  and  N_10 
REMARK    2  A    between atoms: C_4  and  C_12 
REMARK    3  A    between atoms: C_4  and  C_6 
REMARK    4  A    between atoms: N_7  and  C_12 
REMARK    5  A    between atoms: N_8  and  N_10 
ROOT
HETATM    1  C   UNL     1       8.347  15.413   1.829  1.00  0.00     0.088 C 
HETATM    2  N   UNL     1       9.171  14.534   2.312  1.00  0.00    -0.314 N 
ENDROOT
BRANCH   1   3
HETATM    3  C   UNL     1       8.609  16.796   2.119  1.00  0.00     0.049 C 
HETATM    4  C   UNL     1       7.426  16.826   2.820  1.00  0.00     0.017 C 
BRANCH   3   5
HETATM    5  C   UNL     1       8.843  17.429   0.697  1.00  0.00     0.276 C 
BRANCH   5   6
HETATM    6  N   UNL     1      10.010  18.268   0.672  1.00  0.00     0.078 N 
HETATM    7  H   UNL     1      10.949  17.833   0.920  1.00  0.00     0.312 HD
HETATM    8  H   UNL     1      10.059  19.007   1.397  1.00  0.00     0.312 HD
ENDBRANCH   5   6
ENDBRANCH   3   5
ENDBRANCH   1   3
BRANCH   2   9
HETATM    9  C   UNL     1       8.846  13.681   3.457  1.00  0.00     0.142 C 
HETATM   10  C   UNL     1       7.602  12.966   2.980  1.00  0.00     0.028 C 
ENDBRANCH   2   9
BRANCH   2  11
HETATM   11  N   UNL     1      10.531  14.904   2.460  1.00  0.00    -0.344 N 
HETATM   12  H   UNL     1      10.607  15.850   2.016  1.00  0.00     0.177 HD
HETATM   13  H   UNL     1      11.244  14.383   2.332  1.00  0.00     0.177 HD
ENDBRANCH   2  11
TORSDOF 5
ENDMDL
MODEL 7
REMARK VINA RESULT:    -3.404     20.115     21.634
REMARK INTER + INTRA:          -4.336
REMARK INTER:                  -4.211
REMARK INTRA:                  -0.125
REMARK UNBOUND:                -0.136
REMARK  5 active torsions:
REMARK  status: ('A' for Active; 'I' for Inactive)
REMARK    1  A    between atoms: C_2  and  N_10 
REMARK    2  A    between atoms: C_4  and  C_12 
REMARK    3  A    between atoms: C_4  and  C_6 
REMARK    4  A    between atoms: N_7  and  C_12 
REMARK    5  A    between atoms: N_8  and  N_10 
ROOT
HETATM    1  C   UNL     1       7.159   0.731  20.551  1.00  0.00     0.088 C 
HETATM    2  N   UNL     1       6.705   0.700  19.335  1.00  0.00    -0.314 N 
ENDROOT
BRANCH   1   3
HETATM    3  C   UNL     1       7.982  -0.366  20.978  1.00  0.00     0.049 C 
HETATM    4  C   UNL     1       7.002  -0.690  21.886  1.00  0.00     0.017 C 
BRANCH   3   5
HETATM    5  C   UNL     1       9.355   0.320  21.324  1.00  0.00     0.276 C 
BRANCH   5   6
HETATM    6  N   UNL     1      10.405  -0.647  21.503  1.00  0.00     0.078 N 
HETATM    7  H   UNL     1      10.210  -1.657  21.232  1.00  0.00     0.312 HD
HETATM    8  H   UNL     1      10.666  -0.864  22.481  1.00  0.00     0.312 HD
ENDBRANCH   5   6
ENDBRANCH   3   5
ENDBRANCH   1   3
BRANCH   2   9
HETATM    9  C   UNL     1       5.313   0.381  19.011  1.00  0.00     0.142 C 
HETATM   10  C   UNL     1       4.588   1.635  19.445  1.00  0.00     0.028 C 
ENDBRANCH   2   9
BRANCH   2  11
HETATM   11  N   UNL     1       7.502   0.081  18.340  1.00  0.00    -0.344 N 
HETATM   12  H   UNL     1       8.271  -0.399  18.865  1.00  0.00     0.177 HD
HETATM   13  H   UNL     1       7.757   0.436  17.561  1.00  0.00     0.177 HD
ENDBRANCH   2  11
TORSDOF 5
ENDMDL
MODEL 8
REMARK VINA RESULT:    -3.394      4.282      5.942
REMARK INTER + INTRA:          -4.323
REMARK INTER:                  -4.160
REMARK INTRA:                  -0.163
REMARK UNBOUND:                -0.136
REMARK  5 active torsions:
REMARK  status: ('A' for Active; 'I' for Inactive)
REMARK    1  A    between atoms: C_2  and  N_10 
REMARK    2  A    between atoms: C_4  and  C_12 
REMARK    3  A    between atoms: C_4  and  C_6 
REMARK    4  A    between atoms: N_7  and  C_12 
REMARK    5  A    between atoms: N_8  and  N_10 
ROOT
HETATM    1  C   UNL     1       8.497  16.279   2.889  1.00  0.00     0.088 C 
HETATM    2  N   UNL     1       8.521  17.457   2.345  1.00  0.00    -0.314 N 
ENDROOT
BRANCH   1   3
HETATM    3  C   UNL     1       9.630  15.424   2.666  1.00  0.00     0.049 C 
HETATM    4  C   UNL     1       8.789  14.555   2.011  1.00  0.00     0.017 C 
BRANCH   3   5
HETATM    5  C   UNL     1      10.218  15.210   4.110  1.00  0.00     0.276 C 
BRANCH   5   6
HETATM    6  N   UNL     1      11.644  15.024   4.084  1.00  0.00     0.078 N 
HETATM    7  H   UNL     1      12.048  14.331   3.386  1.00  0.00     0.312 HD
HETATM    8  H   UNL     1      12.061  14.570   4.915  1.00  0.00     0.312 HD
ENDBRANCH   5   6
ENDBRANCH   3   5
ENDBRANCH   1   3
BRANCH   2   9
HETATM    9  C   UNL     1       7.728  17.806   1.165  1.00  0.00     0.142 C 
HETATM   10  C   UNL     1       8.795  18.183   0.162  1.00  0.00     0.028 C 
ENDBRANCH   2   9
BRANCH   2  11
HETATM   11  N   UNL     1       9.776  18.096   2.189  1.00  0.00    -0.344 N 
HETATM   12  H   UNL     1       9.559  19.025   1.756  1.00  0.00     0.177 HD
HETATM   13  H   UNL     1      10.533  17.724   1.896  1.00  0.00     0.177 HD
ENDBRANCH   2  11
TORSDOF 5
ENDMDL
MODEL 9
REMARK VINA RESULT:    -3.319     39.608     41.139
REMARK INTER + INTRA:          -4.230
REMARK INTER:                  -4.044
REMARK INTRA:                  -0.186
REMARK UNBOUND:                -0.136
REMARK  5 active torsions:
REMARK  status: ('A' for Active; 'I' for Inactive)
REMARK    1  A    between atoms: C_2  and  N_10 
REMARK    2  A    between atoms: C_4  and  C_12 
REMARK    3  A    between atoms: C_4  and  C_6 
REMARK    4  A    between atoms: N_7  and  C_12 
REMARK    5  A    between atoms: N_8  and  N_10 
ROOT
HETATM    1  C   UNL     1      23.580 -17.979  25.867  1.00  0.00     0.088 C 
HETATM    2  N   UNL     1      23.525 -18.264  24.602  1.00  0.00    -0.314 N 
ENDROOT
BRANCH   1   3
HETATM    3  C   UNL     1      22.400 -17.428  26.474  1.00  0.00     0.049 C 
HETATM    4  C   UNL     1      23.122 -16.287  26.734  1.00  0.00     0.017 C 
BRANCH   3   5
HETATM    5  C   UNL     1      21.995 -18.514  27.538  1.00  0.00     0.276 C 
BRANCH   5   6
HETATM    6  N   UNL     1      20.628 -18.932  27.380  1.00  0.00     0.078 N 
HETATM    7  H   UNL     1      20.405 -19.969  27.468  1.00  0.00     0.312 HD
HETATM    8  H   UNL     1      20.225 -18.834  26.431  1.00  0.00     0.312 HD
ENDBRANCH   5   6
ENDBRANCH   3   5
ENDBRANCH   1   3
BRANCH   2   9
HETATM    9  C   UNL     1      24.168 -17.446  23.572  1.00  0.00     0.142 C 
HETATM   10  C   UNL     1      22.983 -16.806  22.885  1.00  0.00     0.028 C 
ENDBRANCH   2   9
BRANCH   2  11
HETATM   11  N   UNL     1      22.281 -18.682  24.065  1.00  0.00    -0.344 N 
HETATM   12  H   UNL     1      22.516 -19.124  23.144  1.00  0.00     0.177 HD
HETATM   13  H   UNL     1      21.517 -18.220  24.064  1.00  0.00     0.177 HD
ENDBRANCH   2  11
TORSDOF 5
ENDMDL
