stable:False satoms:22 tatoms:24 sratio:0.9166666666666666
  -OEChem-07092417313D

 24 23  0     1  0  0  0  0  0999 V2000
    7.3489   -3.0819   23.9111 H   0  0  0  0  0  0  0  0  0  0  0  0
   10.6347   -1.4954   21.7688 H   0  0  0  0  0  0  0  0  0  0  0  0
    8.1348   -2.8629   26.0644 H   0  0  0  0  0  0  0  0  0  0  0  0
    7.6656   -2.0569   24.1125 C   0  0  0  0  0  0  0  0  0  0  0  0
    8.3863   -2.0136   25.4420 C   0  0  0  0  0  0  0  0  0  0  0  0
    8.0991   -1.1105   25.9621 H   0  0  0  0  0  0  0  0  0  0  0  0
    8.2732   -0.7660   21.0293 C   0  0  2  0  0  0  0  0  0  0  0  0
    9.4574   -1.9995   25.2772 H   0  0  0  0  0  0  0  0  0  0  0  0
   11.1561   -0.1307   22.2828 H   0  0  0  0  0  0  0  0  0  0  0  0
    8.6829   -1.8154   21.9205 C   0  3  0  0  0  0  0  0  0  0  0  0
   10.7230   -0.4947   21.4159 N   0  0  0  0  0  0  0  0  0  0  0  0
    9.2280   -2.7182   21.6952 H   0  0  0  0  0  0  0  0  0  0  0  0
    8.9742   -0.2254   23.5988 N   0  0  0  0  0  0  0  0  0  0  0  0
    9.4143    1.0830   21.5563 H   0  0  0  0  0  0  0  0  0  0  0  0
    7.9583   -1.7352   20.1064 C   0  5  0  0  0  0  0  0  0  0  0  0
    8.6858   -1.5520   23.1921 N   0  0  0  0  0  0  0  0  0  0  0  0
    6.7844   -1.4248   23.9642 H   0  0  0  0  0  0  0  0  0  0  0  0
    8.1289    0.3328   23.3303 H   0  0  0  0  0  0  0  0  0  0  0  0
    7.4011   -0.0534   21.0374 H   0  0  0  0  0  0  0  0  0  0  0  0
    6.9830   -2.1852   19.9955 H   0  0  0  0  0  0  0  0  0  0  0  0
    9.5321    0.1761   20.9687 C   0  0  0  0  0  0  0  0  0  0  0  0
    8.5762   -1.8358   19.2387 H   0  0  0  0  0  0  0  0  0  0  0  0
    9.7469    0.2104   23.4972 H   0  0  0  0  0  0  0  0  0  0  0  0
    9.6090    0.4651   19.9295 H   0  0  0  0  0  0  0  0  0  0  0  0
 15 22  1  0  0  0  0
 21 24  1  0  0  0  0
 15 20  1  0  0  0  0
  7 15  1  0  0  0  0
  7 21  1  0  0  0  0
 11 21  1  0  0  0  0
 14 21  1  0  0  0  0
  7 19  1  0  0  0  0
  7 10  1  0  0  0  0
  2 11  1  0  0  0  0
  9 11  1  0  0  0  0
 10 12  1  0  0  0  0
 10 16  1  0  0  0  0
 13 16  1  0  0  0  0
  4 16  1  0  0  0  0
 13 18  1  0  0  0  0
 13 23  1  0  0  0  0
  1  4  1  0  0  0  0
  4 17  1  0  0  0  0
  4  5  1  0  0  0  0
  5  8  1  0  0  0  0
  5  6  1  0  0  0  0
  3  5  1  0  0  0  0
M  CHG  2  10   1  15  -1
M  END
> <Shapegauss>
-72.787804

$$$$
