stable:False satoms:18 tatoms:24 sratio:0.75
  -OEChem-07092417393D

 24 24  0     1  0  0  0  0  0999 V2000
    7.2886   -4.7541   26.2263 H   0  0  0  0  0  0  0  0  0  0  0  0
    8.2914   -4.2913   26.0420 C   0  0  0  0  0  0  0  0  0  0  0  0
    9.0431   -5.1153   25.9205 H   0  0  0  0  0  0  0  0  0  0  0  0
    8.5906   -3.6970   26.9347 H   0  0  0  0  0  0  0  0  0  0  0  0
    8.2011   -3.4641   24.8708 N   0  3  0  0  0  0  0  0  0  0  0  0
    8.9211   -2.7092   24.2872 C   0  0  0  0  0  0  0  0  0  0  0  0
    9.3899   -1.7921   23.5774 C   0  0  0  0  0  0  0  0  0  0  0  0
   11.2631   -0.3283   23.6082 C   0  0  0  0  0  0  0  0  0  0  0  0
   11.2422    0.7600   23.4805 H   0  0  0  0  0  0  0  0  0  0  0  0
   11.3951   -0.4921   24.6759 H   0  0  0  0  0  0  0  0  0  0  0  0
   13.3549   -0.5224   23.1956 H   0  0  0  0  0  0  0  0  0  0  0  0
   12.4145   -0.9203   22.9185 C   0  5  0  0  0  0  0  0  0  0  0  0
   12.2375   -1.6864   22.2262 H   0  0  0  0  0  0  0  0  0  0  0  0
    9.9921   -0.7757   22.9980 C   0  0  3  0  0  0  0  0  0  0  0  0
    8.5322   -0.2659   21.4328 C   0  0  0  0  0  0  0  0  0  0  0  0
    9.6047    0.0289   21.9042 N   0  0  0  0  0  0  0  0  0  0  0  0
    7.6008   -0.6836   21.0057 N   0  0  0  0  0  0  0  0  0  0  0  0
    6.9032   -0.0858   20.1272 C   0  0  0  0  0  0  0  0  0  0  0  0
    7.0397   -0.1207   18.7427 N   0  0  0  0  0  0  0  0  0  0  0  0
    6.5889    0.1854   17.7545 N   0  0  0  0  0  0  0  0  0  0  0  0
    5.3748    1.0844   18.1978 C   0  0  0  0  0  0  0  0  0  0  0  0
    5.2881    1.0033   19.2946 C   0  0  0  0  0  0  0  0  0  0  0  0
    5.7129    0.6083   20.4358 C   0  0  0  0  0  0  0  0  0  0  0  0
    5.3135    0.7439   21.4398 H   0  0  0  0  0  0  0  0  0  0  0  0
 20 21  2  0  0  0  0
 19 20  1  0  0  0  0
 21 22  1  0  0  0  0
 18 19  2  0  0  0  0
 22 23  2  0  0  0  0
 18 23  1  0  0  0  0
 17 18  1  0  0  0  0
 23 24  1  0  0  0  0
 15 17  2  3  0  0  0
 15 16  1  0  0  0  0
 14 16  1  0  0  0  0
 12 13  1  0  0  0  0
 11 12  1  0  0  0  0
  8 12  1  0  0  0  0
  7 14  1  0  0  0  0
  8 14  1  0  0  0  0
  8  9  1  0  0  0  0
  6  7  3  0  0  0  0
  8 10  1  0  0  0  0
  5  6  1  0  0  0  0
  2  5  1  0  0  0  0
  2  3  1  0  0  0  0
  1  2  1  0  0  0  0
  2  4  1  0  0  0  0
M  CHG  2   5   1  12  -1
M  END
> <Shapegauss>
-200.228561

$$$$
