stable:False satoms:18 tatoms:24 sratio:0.75
  -OEChem-08062406063D

 33 33  0     1  0  0  0  0  0999 V2000
    8.5060   -2.0659   27.3104 H   0  0  0  0  0  0  0  0  0  0  0  0
    9.2263   -1.2376   27.0893 C   0  0  0  0  0  0  0  0  0  0  0  0
   10.2686   -1.6357   27.2074 H   0  0  0  0  0  0  0  0  0  0  0  0
    9.0932   -0.4259   27.8397 H   0  0  0  0  0  0  0  0  0  0  0  0
    8.9763   -0.7624   25.7567 N   0  3  0  0  0  0  0  0  0  0  0  0
    9.3832    0.1220   25.0630 C   0  0  0  0  0  0  0  0  0  0  0  0
    9.5172    1.0113   24.1937 C   0  0  0  0  0  0  0  0  0  0  0  0
   10.5444    3.1475   24.0081 C   0  0  0  0  0  0  0  0  0  0  0  0
   10.0768    4.0654   23.6340 H   0  0  0  0  0  0  0  0  0  0  0  0
   10.5618    3.2521   25.0912 H   0  0  0  0  0  0  0  0  0  0  0  0
   11.9610    3.1092   22.4496 H   0  0  0  0  0  0  0  0  0  0  0  0
   11.9322    3.0341   23.5466 C   0  0  0  0  0  0  0  0  0  0  0  0
   12.5324    3.8448   23.9853 H   0  0  0  0  0  0  0  0  0  0  0  0
    9.7061    2.0710   23.4368 C   0  0  3  0  0  0  0  0  0  0  0  0
    8.4396    1.5763   21.7069 C   0  0  0  0  0  0  0  0  0  0  0  0
    9.1896    2.4048   22.1657 N   0  0  0  0  0  0  0  0  0  0  0  0
    7.8609    0.7125   21.3283 N   0  3  0  0  0  0  0  0  0  0  0  0
    7.1238    0.7623   20.2939 C   0  0  0  0  0  0  0  0  0  0  0  0
    7.4810    0.5510   18.9656 N   0  0  0  0  0  0  0  0  0  0  0  0
    7.1064    0.4393   17.9069 N   0  0  0  0  0  0  0  0  0  0  0  0
    5.5698    0.7488   18.0549 C   0  0  0  0  0  0  0  0  0  0  0  0
    5.3528    0.8311   19.1334 C   0  0  0  0  0  0  0  0  0  0  0  0
    5.7182    0.8802   20.3593 C   0  0  0  0  0  0  0  0  0  0  0  0
    5.1448    0.9928   21.2783 H   0  0  0  0  0  0  0  0  0  0  0  0
    7.9919   -0.5870   25.7726 H   0  0  0  0  0  0  0  0  0  0  0  0
   12.3441    2.0630   23.8586 H   0  0  0  0  0  0  0  0  0  0  0  0
   10.5894    1.6061   22.9747 H   0  0  0  0  0  0  0  0  0  0  0  0
    7.6920    2.3008   21.4199 H   0  0  0  0  0  0  0  0  0  0  0  0
    9.4238    3.2514   21.6879 H   0  0  0  0  0  0  0  0  0  0  0  0
    4.8593    0.8601   17.2492 H   0  0  0  0  0  0  0  0  0  0  0  0
    4.2767    0.9120   19.1780 H   0  0  0  0  0  0  0  0  0  0  0  0
    9.1615   -1.5732   25.2015 H   0  0  0  0  0  0  0  0  0  0  0  0
    7.9209   -0.1527   21.8260 H   0  0  0  0  0  0  0  0  0  0  0  0
 20 21  2  0  0  0  0
 19 20  1  0  0  0  0
 21 22  1  0  0  0  0
 18 19  2  0  0  0  0
 22 23  2  0  0  0  0
 18 23  1  0  0  0  0
 17 18  1  0  0  0  0
 23 24  1  0  0  0  0
 15 17  2  3  0  0  0
 15 16  1  0  0  0  0
 14 16  1  0  0  0  0
 12 13  1  0  0  0  0
 11 12  1  0  0  0  0
  8 12  1  0  0  0  0
  7 14  1  0  0  0  0
  8 14  1  0  0  0  0
  8  9  1  0  0  0  0
  6  7  3  0  0  0  0
  8 10  1  0  0  0  0
  5  6  1  0  0  0  0
  2  5  1  0  0  0  0
  2  3  1  0  0  0  0
  1  2  1  0  0  0  0
  2  4  1  0  0  0  0
  5 25  1  0  0  0  0
 12 26  1  0  0  0  0
 14 27  1  0  0  0  0
 15 28  1  0  0  0  0
 16 29  1  0  0  0  0
 21 30  1  0  0  0  0
 22 31  1  0  0  0  0
  5 32  1  0  0  0  0
 17 33  1  0  0  0  0
M  CHG  2   5   1  17   1
M  END
> <Chemgauss4>
-8.173349

$$$$
