stable:False satoms:18 tatoms:24 sratio:0.75
  -OEChem-08062406063D

 33 33  0     1  0  0  0  0  0999 V2000
   -8.3741   -1.9937  -26.9890 H   0  0  0  0  0  0  0  0  0  0  0  0
   -9.0944   -1.1654  -26.7679 C   0  0  0  0  0  0  0  0  0  0  0  0
  -10.1367   -1.5635  -26.8860 H   0  0  0  0  0  0  0  0  0  0  0  0
   -8.9613   -0.3537  -27.5183 H   0  0  0  0  0  0  0  0  0  0  0  0
   -8.8444   -0.6901  -25.4353 N   0  3  0  0  0  0  0  0  0  0  0  0
   -9.2513    0.1942  -24.7416 C   0  0  0  0  0  0  0  0  0  0  0  0
   -9.3853    1.0836  -23.8723 C   0  0  0  0  0  0  0  0  0  0  0  0
  -10.4124    3.2197  -23.6867 C   0  0  0  0  0  0  0  0  0  0  0  0
   -9.9449    4.1376  -23.3126 H   0  0  0  0  0  0  0  0  0  0  0  0
  -10.4299    3.3243  -24.7698 H   0  0  0  0  0  0  0  0  0  0  0  0
  -11.8290    3.1814  -22.1282 H   0  0  0  0  0  0  0  0  0  0  0  0
  -11.8003    3.1064  -23.2252 C   0  0  0  0  0  0  0  0  0  0  0  0
  -12.4005    3.9171  -23.6640 H   0  0  0  0  0  0  0  0  0  0  0  0
   -9.5742    2.1432  -23.1154 C   0  0  3  0  0  0  0  0  0  0  0  0
   -8.3077    1.6485  -21.3855 C   0  0  0  0  0  0  0  0  0  0  0  0
   -9.0577    2.4770  -21.8443 N   0  0  0  0  0  0  0  0  0  0  0  0
   -7.7290    0.7847  -21.0069 N   0  3  0  0  0  0  0  0  0  0  0  0
   -6.9919    0.8345  -19.9725 C   0  0  0  0  0  0  0  0  0  0  0  0
   -7.3491    0.6232  -18.6442 N   0  0  0  0  0  0  0  0  0  0  0  0
   -6.9745    0.5116  -17.5855 N   0  0  0  0  0  0  0  0  0  0  0  0
   -5.4379    0.8211  -17.7335 C   0  0  0  0  0  0  0  0  0  0  0  0
   -5.2208    0.9033  -18.8120 C   0  0  0  0  0  0  0  0  0  0  0  0
   -5.5863    0.9524  -20.0379 C   0  0  0  0  0  0  0  0  0  0  0  0
   -5.0129    1.0651  -20.9569 H   0  0  0  0  0  0  0  0  0  0  0  0
   -7.8600   -0.5147  -25.4512 H   0  0  0  0  0  0  0  0  0  0  0  0
  -12.2121    2.1353  -23.5372 H   0  0  0  0  0  0  0  0  0  0  0  0
  -10.4575    1.6783  -22.6533 H   0  0  0  0  0  0  0  0  0  0  0  0
   -7.5600    2.3730  -21.0985 H   0  0  0  0  0  0  0  0  0  0  0  0
   -9.2919    3.3237  -21.3665 H   0  0  0  0  0  0  0  0  0  0  0  0
   -4.7274    0.9323  -16.9278 H   0  0  0  0  0  0  0  0  0  0  0  0
   -4.1448    0.9842  -18.8566 H   0  0  0  0  0  0  0  0  0  0  0  0
   -9.0296   -1.5009  -24.8801 H   0  0  0  0  0  0  0  0  0  0  0  0
   -7.7889   -0.0805  -21.5046 H   0  0  0  0  0  0  0  0  0  0  0  0
 20 21  2  0  0  0  0
 19 20  1  0  0  0  0
 21 22  1  0  0  0  0
 18 19  2  0  0  0  0
 22 23  2  0  0  0  0
 18 23  1  0  0  0  0
 17 18  1  0  0  0  0
 23 24  1  0  0  0  0
 15 17  2  3  0  0  0
 15 16  1  0  0  0  0
 14 16  1  0  0  0  0
 12 13  1  0  0  0  0
 11 12  1  0  0  0  0
  8 12  1  0  0  0  0
  7 14  1  0  0  0  0
  8 14  1  0  0  0  0
  8  9  1  0  0  0  0
  6  7  3  0  0  0  0
  8 10  1  0  0  0  0
  5  6  1  0  0  0  0
  2  5  1  0  0  0  0
  2  3  1  0  0  0  0
  1  2  1  0  0  0  0
  2  4  1  0  0  0  0
  5 25  1  0  0  0  0
 12 26  1  0  0  0  0
 14 27  1  0  0  0  0
 15 28  1  0  0  0  0
 16 29  1  0  0  0  0
 21 30  1  0  0  0  0
 22 31  1  0  0  0  0
  5 32  1  0  0  0  0
 17 33  1  0  0  0  0
M  CHG  2   5   1  17   1
M  END
> <Chemgauss4>
-8.384264

$$$$
