MODEL 1
REMARK VINA RESULT:   -10.625      0.000      0.000
REMARK INTER + INTRA:         -17.347
REMARK INTER:                 -16.526
REMARK INTRA:                  -0.820
REMARK UNBOUND:                -0.820
REMARK  12 active torsions:
REMARK  status: ('A' for Active; 'I' for Inactive)
REMARK    1  A    between atoms: P_1  and  O5'_31 
REMARK    2  A    between atoms: C2_4  and  O2_5 
REMARK    3  A    between atoms: C4_8  and  O4_9 
REMARK    4  A    between atoms: C1'_17  and  N10_19 
REMARK    5  A    between atoms: C1'_17  and  C2'_21 
REMARK    6  A    between atoms: C2'_21  and  O2'_22 
REMARK    7  A    between atoms: C2'_21  and  C3'_24 
REMARK    8  A    between atoms: C3'_24  and  O3'_25 
REMARK    9  A    between atoms: C3'_24  and  C4'_27 
REMARK   10  A    between atoms: C4'_27  and  O4'_28 
REMARK   11  A    between atoms: C4'_27  and  C5'_30 
REMARK   12  A    between atoms: C5'_30  and  O5'_31 
ROOT
HETATM    1  N1  FMN A 150       0.568  40.066  22.302  1.00 12.36    -0.306 N 
ATOM      2  H1  FMN A 150      -0.219  40.021  21.655  1.00  0.00     0.171 HD
HETATM    3  C2  FMN A 150       1.689  40.800  21.991  1.00 11.89     0.224 A 
HETATM    4  N3  FMN A 150       2.738  40.936  22.861  1.00 18.84    -0.301 N 
HETATM    5  C4  FMN A 150       2.742  40.248  24.103  1.00 17.97     0.174 A 
HETATM    6  N5  FMN A 150       1.599  38.760  25.645  1.00 16.85    -0.348 N 
ATOM      7  H5  FMN A 150       2.453  38.673  26.195  1.00  0.00     0.166 HD
HETATM    8  C6  FMN A 150       0.286  37.639  27.420  1.00 16.39     0.039 A 
HETATM    9  C7  FMN A 150      -0.928  37.077  27.867  1.00 19.84    -0.054 A 
HETATM   10  C8  FMN A 150      -2.012  37.042  26.977  1.00 18.24    -0.054 A 
HETATM   11  C9  FMN A 150      -1.900  37.574  25.650  1.00 15.61     0.039 A 
HETATM   12  C10 FMN A 150       0.525  39.382  23.524  1.00 12.51     0.142 A 
HETATM   13  N10 FMN A 150      -0.621  38.645  23.844  1.00 18.06    -0.327 N 
HETATM   14  C4A FMN A 150       1.602  39.460  24.436  1.00 19.47     0.129 A 
HETATM   15  C5A FMN A 150       0.386  38.172  26.096  1.00 18.25     0.060 A 
HETATM   16  C7M FMN A 150      -1.136  36.511  29.191  1.00 15.19     0.049 C 
HETATM   17  C8M FMN A 150      -3.284  36.498  27.337  1.00 14.11     0.049 C 
HETATM   18  C9A FMN A 150      -0.697  38.159  25.186  1.00 18.29     0.063 A 
HETATM   19  H3  FMN A 150       3.509  41.525  22.619  1.00 20.00     0.171 HD
ENDROOT
BRANCH  13  20
HETATM   20  C1' FMN A 150      -1.687  38.628  22.914  1.00 12.62     0.165 C 
BRANCH  20  21
HETATM   21  C2' FMN A 150      -1.712  37.349  22.073  1.00  9.97     0.167 C 
BRANCH  21  22
HETATM   22  O2' FMN A 150      -0.494  37.163  21.357  1.00 15.37    -0.391 OA
HETATM   23  H2' FMN A 150      -0.051  36.387  21.679  1.00 20.00     0.210 HD
ENDBRANCH  21  22
BRANCH  21  24
HETATM   24  C3' FMN A 150      -2.812  37.535  21.010  1.00 11.36     0.179 C 
BRANCH  24  25
HETATM   25  O3' FMN A 150      -3.548  38.696  21.439  1.00 13.62    -0.390 OA
HETATM   26  H3' FMN A 150      -4.072  39.023  20.718  1.00 20.00     0.210 HD
ENDBRANCH  24  25
BRANCH  24  27
HETATM   27  C4' FMN A 150      -3.708  36.368  20.773  1.00 11.25     0.173 C 
BRANCH  27  28
HETATM   28  O4' FMN A 150      -4.920  36.597  21.591  1.00 16.71    -0.391 OA
HETATM   29  H4' FMN A 150      -5.266  35.763  21.884  1.00 20.00     0.210 HD
ENDBRANCH  27  28
BRANCH  27  30
HETATM   30  C5' FMN A 150      -3.151  35.109  21.137  1.00  9.35     0.217 C 
BRANCH  30  31
HETATM   31  O5' FMN A 150      -3.096  34.296  20.002  1.00 12.14    -0.280 OA
BRANCH  31  32
HETATM   32  P   FMN A 150      -3.162  32.650  19.926  1.00 11.76     0.422 P 
HETATM   33  O1P FMN A 150      -2.392  31.863  21.170  1.00 12.93    -0.617 OA
HETATM   34  O2P FMN A 150      -2.457  32.092  18.500  1.00 14.25    -0.617 OA
HETATM   35  O3P FMN A 150      -4.752  32.187  19.894  1.00 11.71    -0.617 OA
ENDBRANCH  31  32
ENDBRANCH  30  31
ENDBRANCH  27  30
ENDBRANCH  24  27
ENDBRANCH  21  24
ENDBRANCH  20  21
ENDBRANCH  13  20
BRANCH   3  36
HETATM   36  O2  FMN A 150       1.704  41.454  20.814  1.00 17.40    -0.332 OA
ATOM     37  H2  FMN A 150       1.037  42.114  20.666  1.00  0.00     0.221 HD
ENDBRANCH   3  36
BRANCH   5  38
HETATM   38  O4  FMN A 150       3.835  40.332  24.957  1.00 18.76    -0.344 OA
ATOM     39  H4  FMN A 150       4.716  40.194  24.631  1.00  0.00     0.219 HD
ENDBRANCH   5  38
TORSDOF 12
ENDMDL
MODEL 2
REMARK VINA RESULT:    -8.784      2.130      3.476
REMARK INTER + INTRA:         -14.482
REMARK INTER:                 -12.907
REMARK INTRA:                  -1.575
REMARK UNBOUND:                -0.820
REMARK  12 active torsions:
REMARK  status: ('A' for Active; 'I' for Inactive)
REMARK    1  A    between atoms: P_1  and  O5'_31 
REMARK    2  A    between atoms: C2_4  and  O2_5 
REMARK    3  A    between atoms: C4_8  and  O4_9 
REMARK    4  A    between atoms: C1'_17  and  N10_19 
REMARK    5  A    between atoms: C1'_17  and  C2'_21 
REMARK    6  A    between atoms: C2'_21  and  O2'_22 
REMARK    7  A    between atoms: C2'_21  and  C3'_24 
REMARK    8  A    between atoms: C3'_24  and  O3'_25 
REMARK    9  A    between atoms: C3'_24  and  C4'_27 
REMARK   10  A    between atoms: C4'_27  and  O4'_28 
REMARK   11  A    between atoms: C4'_27  and  C5'_30 
REMARK   12  A    between atoms: C5'_30  and  O5'_31 
ROOT
HETATM    1  N1  FMN A 150       0.592  40.146  22.469  1.00 12.36    -0.306 N 
ATOM      2  H1  FMN A 150      -0.224  40.132  21.857  1.00  0.00     0.171 HD
HETATM    3  C2  FMN A 150       1.715  40.861  22.120  1.00 11.89     0.224 A 
HETATM    4  N3  FMN A 150       2.805  40.956  22.944  1.00 18.84    -0.301 N 
HETATM    5  C4  FMN A 150       2.850  40.243  24.171  1.00 17.97     0.174 A 
HETATM    6  N5  FMN A 150       1.744  38.750  25.734  1.00 16.85    -0.348 N 
ATOM      7  H5  FMN A 150       2.621  38.633  26.242  1.00  0.00     0.166 HD
HETATM    8  C6  FMN A 150       0.489  37.621  27.546  1.00 16.39     0.039 A 
HETATM    9  C7  FMN A 150      -0.717  37.077  28.037  1.00 19.84    -0.054 A 
HETATM   10  C8  FMN A 150      -1.840  37.084  27.197  1.00 18.24    -0.054 A 
HETATM   11  C9  FMN A 150      -1.777  37.640  25.877  1.00 15.61     0.039 A 
HETATM   12  C10 FMN A 150       0.589  39.438  23.678  1.00 12.51     0.142 A 
HETATM   13  N10 FMN A 150      -0.557  38.720  24.035  1.00 18.06    -0.327 N 
HETATM   14  C4A FMN A 150       1.709  39.473  24.540  1.00 19.47     0.129 A 
HETATM   15  C5A FMN A 150       0.540  38.179  26.229  1.00 18.25     0.060 A 
HETATM   16  C7M FMN A 150      -0.876  36.489  29.358  1.00 15.19     0.049 C 
HETATM   17  C8M FMN A 150      -3.107  36.561  27.605  1.00 14.11     0.049 C 
HETATM   18  C9A FMN A 150      -0.583  38.208  25.369  1.00 18.29     0.063 A 
HETATM   19  H3  FMN A 150       3.577  41.534  22.678  1.00 20.00     0.171 HD
ENDROOT
BRANCH  13  20
HETATM   20  C1' FMN A 150      -1.665  38.746  23.155  1.00 12.62     0.165 C 
BRANCH  20  21
HETATM   21  C2' FMN A 150      -1.727  37.509  22.255  1.00  9.97     0.167 C 
BRANCH  21  22
HETATM   22  O2' FMN A 150      -0.577  37.404  21.419  1.00 15.37    -0.391 OA
HETATM   23  H2' FMN A 150      -0.816  37.612  20.523  1.00 20.00     0.210 HD
ENDBRANCH  21  22
BRANCH  21  24
HETATM   24  C3' FMN A 150      -2.929  37.705  21.310  1.00 11.36     0.179 C 
BRANCH  24  25
HETATM   25  O3' FMN A 150      -3.335  39.073  21.508  1.00 13.62    -0.390 OA
HETATM   26  H3' FMN A 150      -2.732  39.498  22.106  1.00 20.00     0.210 HD
ENDBRANCH  24  25
BRANCH  24  27
HETATM   27  C4' FMN A 150      -4.068  36.760  21.482  1.00 11.25     0.173 C 
BRANCH  27  28
HETATM   28  O4' FMN A 150      -4.328  36.168  20.151  1.00 16.71    -0.391 OA
HETATM   29  H4' FMN A 150      -4.581  36.853  19.544  1.00 20.00     0.210 HD
ENDBRANCH  27  28
BRANCH  27  30
HETATM   30  C5' FMN A 150      -5.272  37.361  21.950  1.00  9.35     0.217 C 
BRANCH  30  31
HETATM   31  O5' FMN A 150      -5.088  37.764  23.276  1.00 12.14    -0.280 OA
BRANCH  31  32
HETATM   32  P   FMN A 150      -5.708  39.093  24.029  1.00 11.76     0.422 P 
HETATM   33  O1P FMN A 150      -7.352  39.060  24.261  1.00 12.93    -0.617 OA
HETATM   34  O2P FMN A 150      -5.380  40.488  23.139  1.00 14.25    -0.617 OA
HETATM   35  O3P FMN A 150      -4.956  39.267  25.495  1.00 11.71    -0.617 OA
ENDBRANCH  31  32
ENDBRANCH  30  31
ENDBRANCH  27  30
ENDBRANCH  24  27
ENDBRANCH  21  24
ENDBRANCH  20  21
ENDBRANCH  13  20
BRANCH   3  36
HETATM   36  O2  FMN A 150       1.690  41.539  20.957  1.00 17.40    -0.332 OA
ATOM     37  H2  FMN A 150       1.686  41.036  20.151  1.00  0.00     0.221 HD
ENDBRANCH   3  36
BRANCH   5  38
HETATM   38  O4  FMN A 150       3.982  40.286  24.975  1.00 18.76    -0.344 OA
ATOM     39  H4  FMN A 150       4.229  41.087  25.422  1.00  0.00     0.219 HD
ENDBRANCH   5  38
TORSDOF 12
ENDMDL
MODEL 3
REMARK VINA RESULT:    -8.003      2.894      5.393
REMARK INTER + INTRA:         -13.268
REMARK INTER:                 -11.992
REMARK INTRA:                  -1.276
REMARK UNBOUND:                -0.820
REMARK  12 active torsions:
REMARK  status: ('A' for Active; 'I' for Inactive)
REMARK    1  A    between atoms: P_1  and  O5'_31 
REMARK    2  A    between atoms: C2_4  and  O2_5 
REMARK    3  A    between atoms: C4_8  and  O4_9 
REMARK    4  A    between atoms: C1'_17  and  N10_19 
REMARK    5  A    between atoms: C1'_17  and  C2'_21 
REMARK    6  A    between atoms: C2'_21  and  O2'_22 
REMARK    7  A    between atoms: C2'_21  and  C3'_24 
REMARK    8  A    between atoms: C3'_24  and  O3'_25 
REMARK    9  A    between atoms: C3'_24  and  C4'_27 
REMARK   10  A    between atoms: C4'_27  and  O4'_28 
REMARK   11  A    between atoms: C4'_27  and  C5'_30 
REMARK   12  A    between atoms: C5'_30  and  O5'_31 
ROOT
HETATM    1  N1  FMN A 150      -2.764  36.810  27.072  1.00 12.36    -0.306 N 
ATOM      2  H1  FMN A 150      -3.582  36.800  26.463  1.00  0.00     0.171 HD
HETATM    3  C2  FMN A 150      -2.777  36.134  28.270  1.00 11.89     0.224 A 
HETATM    4  N3  FMN A 150      -1.677  36.070  29.085  1.00 18.84    -0.301 N 
HETATM    5  C4  FMN A 150      -0.491  36.778  28.755  1.00 17.97     0.174 A 
HETATM    6  N5  FMN A 150       0.687  38.228  27.204  1.00 16.85    -0.348 N 
ATOM      7  H5  FMN A 150       1.423  38.371  27.895  1.00  0.00     0.166 HD
HETATM    8  C6  FMN A 150       2.063  39.306  25.449  1.00 16.39     0.039 A 
HETATM    9  C7  FMN A 150       2.189  39.808  24.137  1.00 19.84    -0.054 A 
HETATM   10  C8  FMN A 150       1.065  39.768  23.299  1.00 18.24    -0.054 A 
HETATM   11  C9  FMN A 150      -0.180  39.221  23.752  1.00 15.61     0.039 A 
HETATM   12  C10 FMN A 150      -1.609  37.512  26.703  1.00 12.51     0.142 A 
HETATM   13  N10 FMN A 150      -1.595  38.190  25.479  1.00 18.06    -0.327 N 
HETATM   14  C4A FMN A 150      -0.464  37.509  27.532  1.00 19.47     0.129 A 
HETATM   15  C5A FMN A 150       0.817  38.757  25.890  1.00 18.25     0.060 A 
HETATM   16  C7M FMN A 150       3.407  40.384  23.589  1.00 15.19     0.049 C 
HETATM   17  C8M FMN A 150       1.093  40.248  21.952  1.00 14.11     0.049 C 
HETATM   18  C9A FMN A 150      -0.326  38.695  25.059  1.00 18.29     0.063 A 
HETATM   19  H3  FMN A 150      -1.709  35.520  29.919  1.00 20.00     0.171 HD
ENDROOT
BRANCH  13  20
HETATM   20  C1' FMN A 150      -2.754  38.133  24.669  1.00 12.62     0.165 C 
BRANCH  20  21
HETATM   21  C2' FMN A 150      -3.625  39.384  24.801  1.00  9.97     0.167 C 
BRANCH  21  22
HETATM   22  O2' FMN A 150      -4.081  39.572  26.138  1.00 15.37    -0.391 OA
HETATM   23  H2' FMN A 150      -3.335  39.674  26.717  1.00 20.00     0.210 HD
ENDBRANCH  21  22
BRANCH  21  24
HETATM   24  C3' FMN A 150      -4.884  39.143  23.946  1.00 11.36     0.179 C 
BRANCH  24  25
HETATM   25  O3' FMN A 150      -5.563  38.048  24.589  1.00 13.62    -0.390 OA
HETATM   26  H3' FMN A 150      -5.586  37.302  24.001  1.00 20.00     0.210 HD
ENDBRANCH  24  25
BRANCH  24  27
HETATM   27  C4' FMN A 150      -4.661  38.881  22.496  1.00 11.25     0.173 C 
BRANCH  27  28
HETATM   28  O4' FMN A 150      -4.665  40.199  21.825  1.00 16.71    -0.391 OA
HETATM   29  H4' FMN A 150      -3.815  40.611  21.930  1.00 20.00     0.210 HD
ENDBRANCH  27  28
BRANCH  27  30
HETATM   30  C5' FMN A 150      -5.650  38.060  21.883  1.00  9.35     0.217 C 
BRANCH  30  31
HETATM   31  O5' FMN A 150      -5.184  36.743  21.846  1.00 12.14    -0.280 OA
BRANCH  31  32
HETATM   32  P   FMN A 150      -3.777  36.181  21.196  1.00 11.76     0.422 P 
HETATM   33  O1P FMN A 150      -2.888  37.316  20.370  1.00 12.93    -0.617 OA
HETATM   34  O2P FMN A 150      -4.083  34.930  20.108  1.00 14.25    -0.617 OA
HETATM   35  O3P FMN A 150      -2.850  35.548  22.414  1.00 11.71    -0.617 OA
ENDBRANCH  31  32
ENDBRANCH  30  31
ENDBRANCH  27  30
ENDBRANCH  24  27
ENDBRANCH  21  24
ENDBRANCH  20  21
ENDBRANCH  13  20
BRANCH   3  36
HETATM   36  O2  FMN A 150      -3.895  35.461  28.599  1.00 17.40    -0.332 OA
ATOM     37  H2  FMN A 150      -4.670  35.603  28.068  1.00  0.00     0.221 HD
ENDBRANCH   3  36
BRANCH   5  38
HETATM   38  O4  FMN A 150       0.602  36.769  29.614  1.00 18.76    -0.344 OA
ATOM     39  H4  FMN A 150       1.435  37.137  29.342  1.00  0.00     0.219 HD
ENDBRANCH   5  38
TORSDOF 12
ENDMDL
MODEL 4
REMARK VINA RESULT:    -7.814      3.019      4.736
REMARK INTER + INTRA:         -12.973
REMARK INTER:                 -12.662
REMARK INTRA:                  -0.312
REMARK UNBOUND:                -0.820
REMARK  12 active torsions:
REMARK  status: ('A' for Active; 'I' for Inactive)
REMARK    1  A    between atoms: P_1  and  O5'_31 
REMARK    2  A    between atoms: C2_4  and  O2_5 
REMARK    3  A    between atoms: C4_8  and  O4_9 
REMARK    4  A    between atoms: C1'_17  and  N10_19 
REMARK    5  A    between atoms: C1'_17  and  C2'_21 
REMARK    6  A    between atoms: C2'_21  and  O2'_22 
REMARK    7  A    between atoms: C2'_21  and  C3'_24 
REMARK    8  A    between atoms: C3'_24  and  O3'_25 
REMARK    9  A    between atoms: C3'_24  and  C4'_27 
REMARK   10  A    between atoms: C4'_27  and  O4'_28 
REMARK   11  A    between atoms: C4'_27  and  C5'_30 
REMARK   12  A    between atoms: C5'_30  and  O5'_31 
ROOT
HETATM    1  N1  FMN A 150       0.478  40.258  22.467  1.00 12.36    -0.306 N 
ATOM      2  H1  FMN A 150      -0.353  40.346  21.882  1.00  0.00     0.171 HD
HETATM    3  C2  FMN A 150       1.651  40.884  22.115  1.00 11.89     0.224 A 
HETATM    4  N3  FMN A 150       2.768  40.841  22.906  1.00 18.84    -0.301 N 
HETATM    5  C4  FMN A 150       2.781  40.070  24.099  1.00 17.97     0.174 A 
HETATM    6  N5  FMN A 150       1.588  38.610  25.628  1.00 16.85    -0.348 N 
ATOM      7  H5  FMN A 150       2.464  38.391  26.102  1.00  0.00     0.166 HD
HETATM    8  C6  FMN A 150       0.286  37.515  27.427  1.00 16.39     0.039 A 
HETATM    9  C7  FMN A 150      -0.951  37.060  27.933  1.00 19.84    -0.054 A 
HETATM   10  C8  FMN A 150      -2.092  37.208  27.131  1.00 18.24    -0.054 A 
HETATM   11  C9  FMN A 150      -2.015  37.818  25.835  1.00 15.61     0.039 A 
HETATM   12  C10 FMN A 150       0.444  39.497  23.643  1.00 12.51     0.142 A 
HETATM   13  N10 FMN A 150      -0.753  38.869  24.005  1.00 18.06    -0.327 N 
HETATM   14  C4A FMN A 150       1.585  39.390  24.470  1.00 19.47     0.129 A 
HETATM   15  C5A FMN A 150       0.351  38.127  26.136  1.00 18.25     0.060 A 
HETATM   16  C7M FMN A 150      -1.126  36.426  29.230  1.00 15.19     0.049 C 
HETATM   17  C8M FMN A 150      -3.390  36.782  27.555  1.00 14.11     0.049 C 
HETATM   18  C9A FMN A 150      -0.789  38.299  25.315  1.00 18.29     0.063 A 
HETATM   19  H3  FMN A 150       3.582  41.359  22.642  1.00 20.00     0.171 HD
ENDROOT
BRANCH  13  20
HETATM   20  C1' FMN A 150      -1.878  39.036  23.163  1.00 12.62     0.165 C 
BRANCH  20  21
HETATM   21  C2' FMN A 150      -2.840  37.847  23.226  1.00  9.97     0.167 C 
BRANCH  21  22
HETATM   22  O2' FMN A 150      -2.548  36.876  22.224  1.00 15.37    -0.391 OA
HETATM   23  H2' FMN A 150      -2.120  36.127  22.623  1.00 20.00     0.210 HD
ENDBRANCH  21  22
BRANCH  21  24
HETATM   24  C3' FMN A 150      -4.244  38.391  22.900  1.00 11.36     0.179 C 
BRANCH  24  25
HETATM   25  O3' FMN A 150      -4.042  39.304  21.805  1.00 13.62    -0.390 OA
HETATM   26  H3' FMN A 150      -3.124  39.544  21.758  1.00 20.00     0.210 HD
ENDBRANCH  24  25
BRANCH  24  27
HETATM   27  C4' FMN A 150      -4.983  39.033  24.024  1.00 11.25     0.173 C 
BRANCH  27  28
HETATM   28  O4' FMN A 150      -5.586  37.936  24.812  1.00 16.71    -0.391 OA
HETATM   29  H4' FMN A 150      -5.661  37.161  24.269  1.00 20.00     0.210 HD
ENDBRANCH  27  28
BRANCH  27  30
HETATM   30  C5' FMN A 150      -6.021  39.922  23.621  1.00  9.35     0.217 C 
BRANCH  30  31
HETATM   31  O5' FMN A 150      -5.476  41.195  23.432  1.00 12.14    -0.280 OA
BRANCH  31  32
HETATM   32  P   FMN A 150      -6.196  42.520  22.765  1.00 11.76     0.422 P 
HETATM   33  O1P FMN A 150      -5.798  42.806  21.179  1.00 12.93    -0.617 OA
HETATM   34  O2P FMN A 150      -5.784  43.914  23.620  1.00 14.25    -0.617 OA
HETATM   35  O3P FMN A 150      -7.839  42.345  22.889  1.00 11.71    -0.617 OA
ENDBRANCH  31  32
ENDBRANCH  30  31
ENDBRANCH  27  30
ENDBRANCH  24  27
ENDBRANCH  21  24
ENDBRANCH  20  21
ENDBRANCH  13  20
BRANCH   3  36
HETATM   36  O2  FMN A 150       1.656  41.616  20.985  1.00 17.40    -0.332 OA
ATOM     37  H2  FMN A 150       2.229  42.373  20.950  1.00  0.00     0.221 HD
ENDBRANCH   3  36
BRANCH   5  38
HETATM   38  O4  FMN A 150       3.935  39.972  24.867  1.00 18.76    -0.344 OA
ATOM     39  H4  FMN A 150       4.267  40.726  25.341  1.00  0.00     0.219 HD
ENDBRANCH   5  38
TORSDOF 12
ENDMDL
