REMARK  12 active torsions:
REMARK  status: ('A' for Active; 'I' for Inactive)
REMARK    1  A    between atoms: P_1  and  O5'_31 
REMARK    2  A    between atoms: C2_4  and  O2_5 
REMARK    3  A    between atoms: C4_8  and  O4_9 
REMARK    4  A    between atoms: C1'_17  and  N10_19 
REMARK    5  A    between atoms: C1'_17  and  C2'_21 
REMARK    6  A    between atoms: C2'_21  and  O2'_22 
REMARK    7  A    between atoms: C2'_21  and  C3'_24 
REMARK    8  A    between atoms: C3'_24  and  O3'_25 
REMARK    9  A    between atoms: C3'_24  and  C4'_27 
REMARK   10  A    between atoms: C4'_27  and  O4'_28 
REMARK   11  A    between atoms: C4'_27  and  C5'_30 
REMARK   12  A    between atoms: C5'_30  and  O5'_31 
ROOT
HETATM    1  N1  FMN A 150       0.574  40.235  22.229  1.00 12.36    -0.306 N 
ATOM      2  H1  FMN A 150      -0.265  40.116  21.661  1.00  0.00     0.171 HD
HETATM    3  C2  FMN A 150       1.607  41.032  21.792  1.00 11.89     0.224 A 
HETATM    4  N3  FMN A 150       2.721  41.267  22.554  1.00 18.84    -0.301 N 
HETATM    5  C4  FMN A 150       2.889  40.622  23.808  1.00 17.97     0.174 A 
HETATM    6  N5  FMN A 150       2.003  39.112  25.490  1.00 16.85    -0.348 N 
ATOM      7  H5  FMN A 150       2.909  39.101  25.958  1.00  0.00     0.166 HD
HETATM    8  C6  FMN A 150       0.945  37.963  27.412  1.00 16.39     0.039 A 
HETATM    9  C7  FMN A 150      -0.180  37.336  27.988  1.00 19.84    -0.054 A 
HETATM   10  C8  FMN A 150      -1.337  37.199  27.207  1.00 18.24    -0.054 A 
HETATM   11  C9  FMN A 150      -1.388  37.693  25.862  1.00 15.61     0.039 A 
HETATM   12  C10 FMN A 150       0.694  39.590  23.467  1.00 12.51     0.142 A 
HETATM   13  N10 FMN A 150      -0.362  38.788  23.914  1.00 18.06    -0.327 N 
HETATM   14  C4A FMN A 150       1.844  39.770  24.269  1.00 19.47     0.129 A 
HETATM   15  C5A FMN A 150       0.882  38.458  26.071  1.00 18.25     0.060 A 
HETATM   16  C7M FMN A 150      -0.222  36.801  29.340  1.00 15.19     0.049 C 
HETATM   17  C8M FMN A 150      -2.529  36.582  27.701  1.00 14.11     0.049 C 
HETATM   18  C9A FMN A 150      -0.278  38.342  25.269  1.00 18.29     0.063 A 
HETATM   19  H3  FMN A 150       3.422  41.899  22.224  1.00 20.00     0.171 HD
ENDROOT
BRANCH  13  20
HETATM   20  C1' FMN A 150      -1.507  38.669  23.091  1.00 12.62     0.165 C 
BRANCH  20  21
HETATM   21  C2' FMN A 150      -1.629  37.283  22.453  1.00  9.97     0.167 C 
BRANCH  21  22
HETATM   22  O2' FMN A 150      -0.539  37.006  21.577  1.00 15.37    -0.391 OA
HETATM   23  H2' FMN A 150       0.280  37.195  22.020  1.00 20.00     0.210 HD
ENDBRANCH  21  22
BRANCH  21  24
HETATM   24  C3' FMN A 150      -2.893  37.307  21.572  1.00 11.36     0.179 C 
BRANCH  24  25
HETATM   25  O3' FMN A 150      -3.989  37.158  22.494  1.00 13.62    -0.390 OA
HETATM   26  H3' FMN A 150      -4.784  36.964  22.012  1.00 20.00     0.210 HD
ENDBRANCH  24  25
BRANCH  24  27
HETATM   27  C4' FMN A 150      -2.954  36.301  20.474  1.00 11.25     0.173 C 
BRANCH  27  28
HETATM   28  O4' FMN A 150      -4.243  36.514  19.780  1.00 16.71    -0.391 OA
HETATM   29  H4' FMN A 150      -4.299  35.933  19.031  1.00 20.00     0.210 HD
ENDBRANCH  27  28
BRANCH  27  30
HETATM   30  C5' FMN A 150      -2.895  34.945  20.908  1.00  9.35     0.217 C 
BRANCH  30  31
HETATM   31  O5' FMN A 150      -2.950  34.111  19.788  1.00 12.14    -0.280 OA
BRANCH  31  32
HETATM   32  P   FMN A 150      -3.082  32.468  19.750  1.00 11.76     0.422 P 
HETATM   33  O1P FMN A 150      -2.037  31.661  20.758  1.00 12.93    -0.617 OA
HETATM   34  O2P FMN A 150      -2.791  31.884  18.195  1.00 14.25    -0.617 OA
HETATM   35  O3P FMN A 150      -4.638  32.055  20.139  1.00 11.71    -0.617 OA
ENDBRANCH  31  32
ENDBRANCH  30  31
ENDBRANCH  27  30
ENDBRANCH  24  27
ENDBRANCH  21  24
ENDBRANCH  20  21
ENDBRANCH  13  20
BRANCH   3  36
HETATM   36  O2  FMN A 150       1.465  41.647  20.603  1.00 17.40    -0.332 OA
ATOM     37  H2  FMN A 150       2.178  42.197  20.301  1.00  0.00     0.221 HD
ENDBRANCH   3  36
BRANCH   5  38
HETATM   38  O4  FMN A 150       4.049  40.808  24.551  1.00 18.76    -0.344 OA
ATOM     39  H4  FMN A 150       4.161  40.377  25.390  1.00  0.00     0.219 HD
ENDBRANCH   5  38
TORSDOF 12
