stable:False satoms:21 tatoms:24 sratio:0.875
  -OEChem-07092417293D

 24 23  0     1  0  0  0  0  0999 V2000
    8.7186    0.2821   25.0800 O   0  0  0  0  0  0  0  0  0  0  0  0
   10.3740    2.0563   21.1398 H   0  0  0  0  0  0  0  0  0  0  0  0
    7.3307   -1.2232   24.6609 H   0  0  0  0  0  0  0  0  0  0  0  0
    9.7918   -0.3781   24.4798 C   0  0  0  0  0  0  0  0  0  0  0  0
   10.6600    0.2676   24.5776 H   0  0  0  0  0  0  0  0  0  0  0  0
    8.5831   -4.1717   19.8078 C   0  0  0  0  0  0  0  0  0  0  0  0
    9.1640   -4.5768   18.9799 H   0  0  0  0  0  0  0  0  0  0  0  0
    9.7387    2.4795   23.4031 Cl  0  0  0  0  0  0  0  0  0  0  0  0
    6.8713   -1.0572   22.1647 H   0  0  0  0  0  0  0  0  0  0  0  0
    7.4319   -0.2640   25.1769 C   0  0  0  0  0  0  0  0  0  0  0  0
    9.9731   -1.3303   24.9790 H   0  0  0  0  0  0  0  0  0  0  0  0
    9.1096   -1.9020   22.8565 N   0  0  0  0  0  0  0  0  0  0  0  0
   10.0047    0.1513   21.9987 C   0  0  0  0  0  0  0  0  0  0  0  0
    9.6642   -2.9742   20.6177 S   0  0  0  0  0  0  0  0  0  0  0  0
    7.2138   -0.4080   26.2373 H   0  0  0  0  0  0  0  0  0  0  0  0
   10.0833    1.5016   22.0226 C   0  0  0  0  0  0  0  0  0  0  0  0
    7.6843   -3.6663   19.4623 H   0  0  0  0  0  0  0  0  0  0  0  0
    8.5095   -2.2201   21.7152 C   0  0  0  0  0  0  0  0  0  0  0  0
   10.3426   -0.3651   21.1152 H   0  0  0  0  0  0  0  0  0  0  0  0
    7.1978   -1.8939   21.5705 C   0  0  0  0  0  0  0  0  0  0  0  0
    9.5801   -0.7038   23.0337 C   0  0  3  0  0  0  0  0  0  0  0  0
    6.7346    0.4627   24.7735 H   0  0  0  0  0  0  0  0  0  0  0  0
    8.3355   -4.9697   20.5031 H   0  0  0  0  0  0  0  0  0  0  0  0
    6.4869   -2.3867   20.9413 H   0  0  0  0  0  0  0  0  0  0  0  0
  6  7  1  0  0  0  0
  6 17  1  0  0  0  0
  6 23  1  0  0  0  0
  6 14  1  0  0  0  0
 14 18  1  0  0  0  0
 20 24  1  0  0  0  0
 13 19  1  0  0  0  0
  2 16  1  0  0  0  0
 18 20  2  0  0  0  0
  9 20  1  0  0  0  0
 12 18  1  0  0  0  0
 13 16  2  0  0  0  0
 13 21  1  0  0  0  0
  8 16  1  0  0  0  0
 12 21  1  0  0  0  0
  4 21  1  0  0  0  0
  4  5  1  0  0  0  0
  4 11  1  0  0  0  0
  1  4  1  0  0  0  0
  3 10  1  0  0  0  0
 10 22  1  0  0  0  0
  1 10  1  0  0  0  0
 10 15  1  0  0  0  0
M  END
> <Shapegauss>
-91.875427

$$$$
