stable:False satoms:21 tatoms:24 sratio:0.875
  -OEChem-08052417203D

 27 26  0     1  0  0  0  0  0999 V2000
   -9.1437    0.0364  -22.5664 O   0  0  0  0  0  0  0  0  0  0  0  0
  -13.1824    0.9543  -24.6302 H   0  0  0  0  0  0  0  0  0  0  0  0
   -7.6856    1.3874  -23.2117 H   0  0  0  0  0  0  0  0  0  0  0  0
   -9.9556    1.0104  -21.9834 C   0  0  0  0  0  0  0  0  0  0  0  0
  -10.8240    0.5009  -21.5753 H   0  0  0  0  0  0  0  0  0  0  0  0
   -9.8419    6.6595  -24.3822 C   0  0  0  0  0  0  0  0  0  0  0  0
  -10.5221    7.5105  -24.3709 H   0  0  0  0  0  0  0  0  0  0  0  0
  -11.7237   -0.7283  -23.7663 Cl  0  0  0  0  0  0  0  0  0  0  0  0
   -8.7187    2.6237  -25.1799 H   0  0  0  0  0  0  0  0  0  0  0  0
   -7.9102    0.3178  -23.1685 C   0  0  0  0  0  0  0  0  0  0  0  0
   -9.4135    1.5245  -21.1893 H   0  0  0  0  0  0  0  0  0  0  0  0
   -9.6337    3.1192  -22.9172 N   0  3  0  0  0  0  0  0  0  0  0  0
  -11.6332    1.9985  -23.6238 C   0  0  0  0  0  0  0  0  0  0  0  0
  -10.7372    5.3131  -23.5794 S   0  0  0  0  0  0  0  0  0  0  0  0
   -7.1358   -0.1830  -22.5835 H   0  0  0  0  0  0  0  0  0  0  0  0
  -12.2678    0.8845  -24.0556 C   0  0  0  0  0  0  0  0  0  0  0  0
   -9.5822    6.3626  -25.3956 H   0  0  0  0  0  0  0  0  0  0  0  0
   -9.6478    3.9737  -23.9338 C   0  0  0  0  0  0  0  0  0  0  0  0
  -12.1153    2.9511  -23.7704 H   0  0  0  0  0  0  0  0  0  0  0  0
   -8.9023    3.6743  -25.0304 C   0  0  0  0  0  0  0  0  0  0  0  0
  -10.4100    2.0773  -22.9307 C   0  0  3  0  0  0  0  0  0  0  0  0
   -7.9251   -0.1104  -24.1653 H   0  0  0  0  0  0  0  0  0  0  0  0
   -8.9503    6.8990  -23.8085 H   0  0  0  0  0  0  0  0  0  0  0  0
   -8.4924    4.3727  -25.7293 H   0  0  0  0  0  0  0  0  0  0  0  0
   -8.6965    2.7794  -22.8393 H   0  0  0  0  0  0  0  0  0  0  0  0
   -9.8595    1.6227  -23.7675 H   0  0  0  0  0  0  0  0  0  0  0  0
   -9.8678    3.6424  -22.0978 H   0  0  0  0  0  0  0  0  0  0  0  0
  6  7  1  0  0  0  0
  6 17  1  0  0  0  0
  6 23  1  0  0  0  0
  6 14  1  0  0  0  0
 14 18  1  0  0  0  0
 20 24  1  0  0  0  0
 13 19  1  0  0  0  0
  2 16  1  0  0  0  0
 18 20  2  0  0  0  0
  9 20  1  0  0  0  0
 12 18  1  0  0  0  0
 13 16  2  0  0  0  0
 13 21  1  0  0  0  0
  8 16  1  0  0  0  0
 12 21  1  0  0  0  0
  4 21  1  0  0  0  0
  4  5  1  0  0  0  0
  4 11  1  0  0  0  0
  1  4  1  0  0  0  0
  3 10  1  0  0  0  0
 10 22  1  0  0  0  0
  1 10  1  0  0  0  0
 10 15  1  0  0  0  0
 12 25  1  0  0  0  0
 21 26  1  0  0  0  0
 12 27  1  0  0  0  0
M  CHG  1  12   1
M  END
> <Chemgauss4>
-5.346684

$$$$
