stable:False satoms:21 tatoms:24 sratio:0.875
  -OEChem-08052417203D

 27 26  0     1  0  0  0  0  0999 V2000
   10.4037   -1.6288   23.7007 O   0  0  0  0  0  0  0  0  0  0  0  0
   10.5596    2.7904   22.3370 H   0  0  0  0  0  0  0  0  0  0  0  0
    8.5465   -2.4607   23.2248 H   0  0  0  0  0  0  0  0  0  0  0  0
   10.7626   -1.3783   22.3755 C   0  0  0  0  0  0  0  0  0  0  0  0
   11.7430   -0.9104   22.3923 H   0  0  0  0  0  0  0  0  0  0  0  0
    6.2703   -0.2753   18.3404 C   0  0  0  0  0  0  0  0  0  0  0  0
    6.2151    0.2209   17.3720 H   0  0  0  0  0  0  0  0  0  0  0  0
   11.2403    1.1837   23.9680 Cl  0  0  0  0  0  0  0  0  0  0  0  0
    7.0791   -0.5059   22.5210 H   0  0  0  0  0  0  0  0  0  0  0  0
    9.2090   -2.2598   24.0717 C   0  0  0  0  0  0  0  0  0  0  0  0
   10.8012   -2.3123   21.8143 H   0  0  0  0  0  0  0  0  0  0  0  0
    8.9154   -1.1658   20.9735 N   0  3  0  0  0  0  0  0  0  0  0  0
    9.9777    0.9027   21.5617 C   0  0  0  0  0  0  0  0  0  0  0  0
    7.9492    0.0134   18.9375 S   0  0  0  0  0  0  0  0  0  0  0  0
    9.4705   -3.2068   24.5487 H   0  0  0  0  0  0  0  0  0  0  0  0
   10.5338    1.7187   22.4863 C   0  0  0  0  0  0  0  0  0  0  0  0
    5.5608    0.1431   19.0505 H   0  0  0  0  0  0  0  0  0  0  0  0
    7.7874   -0.5794   20.5894 C   0  0  0  0  0  0  0  0  0  0  0  0
    9.6598    1.3321   20.6257 H   0  0  0  0  0  0  0  0  0  0  0  0
    6.7715   -0.4974   21.4890 C   0  0  0  0  0  0  0  0  0  0  0  0
    9.8064   -0.4928   21.6381 C   0  0  3  0  0  0  0  0  0  0  0  0
    8.7153   -1.6269   24.8016 H   0  0  0  0  0  0  0  0  0  0  0  0
    6.1061   -1.3421   18.2122 H   0  0  0  0  0  0  0  0  0  0  0  0
    5.7279   -0.4332   21.2637 H   0  0  0  0  0  0  0  0  0  0  0  0
    8.6556   -1.9435   21.5459 H   0  0  0  0  0  0  0  0  0  0  0  0
    9.1499   -0.4054   22.5164 H   0  0  0  0  0  0  0  0  0  0  0  0
    9.3646   -1.4977   20.1440 H   0  0  0  0  0  0  0  0  0  0  0  0
  6  7  1  0  0  0  0
  6 17  1  0  0  0  0
  6 23  1  0  0  0  0
  6 14  1  0  0  0  0
 14 18  1  0  0  0  0
 20 24  1  0  0  0  0
 13 19  1  0  0  0  0
  2 16  1  0  0  0  0
 18 20  2  0  0  0  0
  9 20  1  0  0  0  0
 12 18  1  0  0  0  0
 13 16  2  0  0  0  0
 13 21  1  0  0  0  0
  8 16  1  0  0  0  0
 12 21  1  0  0  0  0
  4 21  1  0  0  0  0
  4  5  1  0  0  0  0
  4 11  1  0  0  0  0
  1  4  1  0  0  0  0
  3 10  1  0  0  0  0
 10 22  1  0  0  0  0
  1 10  1  0  0  0  0
 10 15  1  0  0  0  0
 12 25  1  0  0  0  0
 21 26  1  0  0  0  0
 12 27  1  0  0  0  0
M  CHG  1  12   1
M  END
> <Chemgauss4>
-5.315833

$$$$
