stable:False satoms:17 tatoms:24 sratio:0.7083333333333334
  -OEChem-07092417293D

 24 24  0     1  0  0  0  0  0999 V2000
    9.8455   -1.1088   21.2247 C   0  0  0  0  0  0  0  0  0  0  0  0
    6.0300    0.3507   24.4116 H   0  0  0  0  0  0  0  0  0  0  0  0
   10.2289    0.8555   20.6387 H   0  0  0  0  0  0  0  0  0  0  0  0
    8.8171   -1.7330   24.3956 C   0  0  0  0  0  0  0  0  0  0  0  0
   10.8697   -2.5805   18.5690 H   0  0  0  0  0  0  0  0  0  0  0  0
    7.9815    0.9994   23.7627 C   0  3  0  0  0  0  0  0  0  0  0  0
    6.8287   -3.2888   24.6129 H   0  0  0  0  0  0  0  0  0  0  0  0
   10.1544   -2.2385   20.5129 C   0  0  0  0  0  0  0  0  0  0  0  0
   10.4104   -0.6695   18.8236 C   0  5  0  0  0  0  0  0  0  0  0  0
   10.4858   -1.8433   19.2815 C   0  0  0  0  0  0  0  0  0  0  0  0
    7.0548    0.0320   24.1833 C   0  0  0  0  0  0  0  0  0  0  0  0
    6.5027   -2.2751   24.8691 C   0  0  0  0  0  0  0  0  0  0  0  0
    9.3670   -2.4743   23.4706 N   0  5  0  0  0  0  0  0  0  0  0  0
    7.7971    2.0378   24.0617 H   0  0  0  0  0  0  0  0  0  0  0  0
    6.4837   -2.1841   25.9502 H   0  0  0  0  0  0  0  0  0  0  0  0
    9.0396    0.8386   23.1321 N   0  3  0  0  0  0  0  0  0  0  0  0
    9.3274    0.0279   22.2907 C   0  0  1  0  0  0  0  0  0  0  0  0
   10.5742    0.0966   18.2080 H   0  0  0  0  0  0  0  0  0  0  0  0
    5.5012   -2.1628   24.4685 H   0  0  0  0  0  0  0  0  0  0  0  0
    9.4046   -1.5337   25.4497 O   0  0  0  0  0  0  0  0  0  0  0  0
    7.4202   -1.2701   24.3590 C   0  0  0  0  0  0  0  0  0  0  0  0
   10.2687   -4.2626   20.8111 Br  0  0  0  0  0  0  0  0  0  0  0  0
    9.8539    0.0633   21.1185 N   0  0  0  0  0  0  0  0  0  0  0  0
    9.3371   -2.9666   22.6910 H   0  0  0  0  0  0  0  0  0  0  0  0
  9 18  1  0  0  0  0
  5 10  1  0  0  0  0
  9 10  2  0  0  0  0
  8 10  1  0  0  0  0
  8 22  1  0  0  0  0
  1  8  2  0  0  0  0
  3 23  1  0  0  0  0
  1 23  1  0  0  0  0
 17 23  1  0  0  0  0
  1 17  1  0  0  0  0
 16 17  1  0  0  0  0
 13 24  1  0  0  0  0
  6 16  1  0  0  0  0
  4 13  1  0  0  0  0
  6 14  1  0  0  0  0
  6 11  1  0  0  0  0
 11 21  2  0  0  0  0
  2 11  1  0  0  0  0
  4 21  1  0  0  0  0
 12 21  1  0  0  0  0
  4 20  2  0  0  0  0
 12 19  1  0  0  0  0
  7 12  1  0  0  0  0
 12 15  1  0  0  0  0
M  CHG  4   6   1   9  -1  13  -1  16   1
M  END
> <Shapegauss>
-83.587700

$$$$
