stable:False satoms:17 tatoms:24 sratio:0.7083333333333334
  -OEChem-08052416463D

 28 28  0     1  0  0  0  0  0999 V2000
   -9.0006   -1.5911  -25.5809 C   0  0  0  0  0  0  0  0  0  0  0  0
  -13.7491    0.2826  -24.6947 H   0  0  0  0  0  0  0  0  0  0  0  0
   -8.1121   -0.0312  -26.0006 H   0  0  0  0  0  0  0  0  0  0  0  0
  -11.1357   -1.2357  -22.9700 C   0  0  0  0  0  0  0  0  0  0  0  0
   -7.0386   -3.7134  -26.9644 H   0  0  0  0  0  0  0  0  0  0  0  0
  -11.7042    0.9546  -24.8258 C   0  0  0  0  0  2  0  0  0  0  0  0
  -13.0425   -2.9024  -22.8834 H   0  0  0  0  0  0  0  0  0  0  0  0
   -8.4344   -2.8364  -25.6644 C   0  0  0  0  0  0  0  0  0  0  0  0
   -7.5817   -1.9233  -27.6189 C   0  0  0  0  0  0  0  0  0  0  0  0
   -7.6700   -2.8430  -26.7590 C   0  0  0  0  0  0  0  0  0  0  0  0
  -12.7099    0.0628  -24.4197 C   0  0  0  0  0  0  0  0  0  0  0  0
  -13.4524   -1.9237  -23.1546 C   0  0  0  0  0  0  0  0  0  0  0  0
  -10.2706   -2.1579  -23.2998 N   0  0  0  0  0  0  0  0  0  0  0  0
  -13.8764   -1.4710  -22.2642 H   0  0  0  0  0  0  0  0  0  0  0  0
  -10.4851    0.7481  -24.9449 N   0  0  0  0  0  0  0  0  0  0  0  0
   -9.8936   -0.2492  -25.2668 C   0  0  1  0  0  0  0  0  0  0  0  0
   -8.1617   -1.0195  -27.5045 H   0  0  0  0  0  0  0  0  0  0  0  0
  -14.2318   -2.1077  -23.8858 H   0  0  0  0  0  0  0  0  0  0  0  0
  -10.9886   -0.6007  -21.9350 O   0  0  0  0  0  0  0  0  0  0  0  0
  -12.4222   -1.0291  -23.6550 C   0  0  0  0  0  0  0  0  0  0  0  0
   -8.4171   -4.5934  -24.6101 Br  0  0  0  0  0  0  0  0  0  0  0  0
   -8.9664   -0.5397  -26.1085 N   0  3  0  0  0  0  0  0  0  0  0  0
   -9.4880   -2.3447  -22.7059 H   0  0  0  0  0  0  0  0  0  0  0  0
   -6.9260   -2.0402  -28.4691 H   0  0  0  0  0  0  0  0  0  0  0  0
  -10.3912   -2.6769  -24.1460 H   0  0  0  0  0  0  0  0  0  0  0  0
  -10.1117    0.9722  -24.0447 H   0  0  0  0  0  0  0  0  0  0  0  0
  -10.6908   -0.5682  -25.9543 H   0  0  0  0  0  0  0  0  0  0  0  0
   -9.2400   -0.5314  -27.0704 H   0  0  0  0  0  0  0  0  0  0  0  0
  9 17  1  0  0  0  0
  5 10  1  0  0  0  0
  9 10  2  0  0  0  0
  8 10  1  0  0  0  0
  8 21  1  0  0  0  0
  1  8  2  0  0  0  0
  3 22  1  0  0  0  0
  1 22  1  0  0  0  0
 16 22  1  0  0  0  0
  1 16  1  0  0  0  0
 15 16  1  0  0  0  0
 13 23  1  0  0  0  0
  6 15  1  0  0  0  0
  4 13  1  0  0  0  0
  6 11  1  0  0  0  0
 11 20  2  0  0  0  0
  2 11  1  0  0  0  0
  4 20  1  0  0  0  0
 12 20  1  0  0  0  0
  4 19  2  0  0  0  0
 12 18  1  0  0  0  0
  7 12  1  0  0  0  0
 12 14  1  0  0  0  0
  9 24  1  0  0  0  0
 13 25  1  0  0  0  0
 15 26  1  0  0  0  0
 16 27  1  0  0  0  0
 22 28  1  0  0  0  0
M  CHG  1  22   1
M  END
> <Chemgauss4>
-5.552252

$$$$
