stable:False satoms:17 tatoms:24 sratio:0.7083333333333334
  -OEChem-08052416473D

 28 28  0     1  0  0  0  0  0999 V2000
    8.8604   -0.4092   25.6829 C   0  0  0  0  0  0  0  0  0  0  0  0
   13.5375    1.0454   23.9937 H   0  0  0  0  0  0  0  0  0  0  0  0
    7.9275    1.1623   25.4409 H   0  0  0  0  0  0  0  0  0  0  0  0
   10.9552   -1.1136   23.1105 C   0  0  0  0  0  0  0  0  0  0  0  0
    6.9815   -1.8164   27.8640 H   0  0  0  0  0  0  0  0  0  0  0  0
   11.4739    1.6613   23.8821 C   0  0  0  0  0  2  0  0  0  0  0  0
   12.9129   -2.6198   23.6767 H   0  0  0  0  0  0  0  0  0  0  0  0
    8.3349   -1.5219   26.2864 C   0  0  0  0  0  0  0  0  0  0  0  0
    7.4746    0.0968   27.7079 C   0  0  0  0  0  0  0  0  0  0  0  0
    7.5828   -1.0938   27.3030 C   0  0  0  0  0  0  0  0  0  0  0  0
   12.5029    0.7063   23.8579 C   0  0  0  0  0  0  0  0  0  0  0  0
   13.2944   -1.6068   23.5099 C   0  0  0  0  0  0  0  0  0  0  0  0
   10.1234   -1.8376   23.8115 N   0  0  0  0  0  0  0  0  0  0  0  0
   13.6943   -1.5527   22.5027 H   0  0  0  0  0  0  0  0  0  0  0  0
   10.2633    1.4929   24.1037 N   0  0  0  0  0  0  0  0  0  0  0  0
    9.7071    0.7040   24.8222 C   0  0  1  0  0  0  0  0  0  0  0  0
    8.0245    0.8862   27.2172 H   0  0  0  0  0  0  0  0  0  0  0  0
   14.0870   -1.4527   24.2339 H   0  0  0  0  0  0  0  0  0  0  0  0
   10.7771   -0.9674   21.9093 O   0  0  0  0  0  0  0  0  0  0  0  0
   12.2417   -0.6108   23.6194 C   0  0  0  0  0  0  0  0  0  0  0  0
    8.3620   -3.5575   26.0528 Br  0  0  0  0  0  0  0  0  0  0  0  0
    8.7986    0.7651   25.7297 N   0  3  0  0  0  0  0  0  0  0  0  0
    9.3408   -2.2723   23.3658 H   0  0  0  0  0  0  0  0  0  0  0  0
    6.8320    0.3261   28.5452 H   0  0  0  0  0  0  0  0  0  0  0  0
   10.2694   -1.9569   24.7935 H   0  0  0  0  0  0  0  0  0  0  0  0
    9.8733    1.3154   23.2001 H   0  0  0  0  0  0  0  0  0  0  0  0
   10.5213    0.7174   25.5617 H   0  0  0  0  0  0  0  0  0  0  0  0
    9.0820    1.1771   26.5957 H   0  0  0  0  0  0  0  0  0  0  0  0
  9 17  1  0  0  0  0
  5 10  1  0  0  0  0
  9 10  2  0  0  0  0
  8 10  1  0  0  0  0
  8 21  1  0  0  0  0
  1  8  2  0  0  0  0
  3 22  1  0  0  0  0
  1 22  1  0  0  0  0
 16 22  1  0  0  0  0
  1 16  1  0  0  0  0
 15 16  1  0  0  0  0
 13 23  1  0  0  0  0
  6 15  1  0  0  0  0
  4 13  1  0  0  0  0
  6 11  1  0  0  0  0
 11 20  2  0  0  0  0
  2 11  1  0  0  0  0
  4 20  1  0  0  0  0
 12 20  1  0  0  0  0
  4 19  2  0  0  0  0
 12 18  1  0  0  0  0
  7 12  1  0  0  0  0
 12 14  1  0  0  0  0
  9 24  1  0  0  0  0
 13 25  1  0  0  0  0
 15 26  1  0  0  0  0
 16 27  1  0  0  0  0
 22 28  1  0  0  0  0
M  CHG  1  22   1
M  END
> <Chemgauss4>
-5.599931

$$$$
