stable:False satoms:9 tatoms:24 sratio:0.375
  -OEChem-07092417483D

 24 24  0     1  0  0  0  0  0999 V2000
    6.5667   -4.8889   26.4657 C   0  0  0  0  0  0  0  0  0  0  0  0
    8.2591   -4.2918   26.0971 S   0  0  0  0  0  0  0  0  0  0  0  0
    9.0842   -5.4776   26.0420 O   0  0  0  0  0  0  0  0  0  0  0  0
    8.6184   -3.4308   27.1943 O   0  0  0  0  0  0  0  0  0  0  0  0
    8.0909   -3.5587   24.6961 N   0  0  0  0  0  0  0  0  0  0  0  0
    8.9797   -2.9109   24.1435 C   0  0  0  0  0  0  0  0  0  0  0  0
    9.4321   -1.9985   23.5130 C   0  0  0  0  0  0  0  0  0  0  0  0
   10.2899   -1.0637   23.2959 C   0  0  2  0  0  0  0  0  0  0  0  0
   11.0340   -0.0091   24.2849 C   0  0  0  0  0  0  0  0  0  0  0  0
   12.0773    0.3287   24.2740 C   0  0  0  0  0  0  0  0  0  0  0  0
   13.1426   -0.1594   23.4889 C   0  0  0  0  0  0  0  0  0  0  0  0
   12.6956   -1.3041   22.6113 C   0  0  0  0  0  0  0  0  0  0  0  0
   11.8175   -1.7207   22.4811 C   0  0  0  0  0  0  0  0  0  0  0  0
    9.7375   -0.5029   22.3627 C   0  0  0  0  0  0  0  0  0  0  0  0
    9.0620    0.0512   21.3764 C   0  0  0  0  0  0  0  0  0  0  0  0
    9.5442    0.9854   20.9711 O   0  0  0  0  0  0  0  0  0  0  0  0
    7.9303   -0.5688   21.0712 N   0  0  0  0  0  0  0  0  0  0  0  0
    7.1824   -0.1251   20.1728 C   0  0  0  0  0  0  0  0  0  0  0  0
    7.2621   -0.0574   18.8354 C   0  0  0  0  0  0  0  0  0  0  0  0
    6.7644    0.2626   17.7998 N   0  0  0  0  0  0  0  0  0  0  0  0
    5.6152    0.8794   18.2678 C   0  0  0  0  0  0  0  0  0  0  0  0
    5.2572    0.9793   19.4050 C   0  0  0  0  0  0  0  0  0  0  0  0
    5.7989    0.5789   20.5659 C   0  0  0  0  0  0  0  0  0  0  0  0
    5.3417    0.7128   21.8808 C   0  0  0  0  0  0  0  0  0  0  0  0
 20 21  2  0  0  0  0
 19 20  1  0  0  0  0
 21 22  1  0  0  0  0
 18 19  2  0  0  0  0
 22 23  2  0  0  0  0
 18 23  1  0  0  0  0
 17 18  1  0  0  0  0
 23 24  1  0  0  0  0
 15 16  2  0  0  0  0
 15 17  1  0  0  0  0
 14 15  1  0  0  0  0
  8 14  1  0  0  0  0
 12 13  2  0  0  0  0
 11 12  1  0  0  0  0
  7  8  1  0  0  0  0
  8  9  1  0  0  0  0
 10 11  1  0  0  0  0
  6  7  2  3  0  0  0
  5  6  1  0  0  0  0
  9 10  2  0  0  0  0
  2  5  1  0  0  0  0
  2  3  2  0  0  0  0
  1  2  1  0  0  0  0
  2  4  2  0  0  0  0
M  END
> <Shapegauss>
-285.716095

$$$$
