MODEL 1
REMARK VINA RESULT:    -6.674      0.000      0.000
REMARK INTER + INTRA:         -10.983
REMARK INTER:                  -9.795
REMARK INTRA:                  -1.188
REMARK UNBOUND:                -1.188
REMARK  8 active torsions:
REMARK  status: ('A' for Active; 'I' for Inactive)
REMARK    1  A    between atoms: S_2  and  N_5 
REMARK    2  A    between atoms: C_7  and  C_8 
REMARK    3  A    between atoms: C_8  and  C_9 
REMARK    4  A    between atoms: C_9  and  C_15 
REMARK    5  A    between atoms: C_9  and  C_10 
REMARK    6  A    between atoms: C_10  and  C_11 
REMARK    7  A    between atoms: C_12  and  C_13 
REMARK    8  A    between atoms: C_15  and  C_16 
REMARK       I    between atoms: C_16  and  N_18 
ROOT
HETATM    1  C   UNL     1       9.697  -1.773  22.490  1.00  0.00     0.109 C 
ENDROOT
BRANCH   1   2
HETATM    2  C   UNL     1       8.757  -2.539  22.921  1.00  0.00     0.011 C 
BRANCH   2   3
HETATM    3  C   UNL     1       7.958  -3.423  22.803  1.00  0.00     0.097 C 
HETATM    4  N   UNL     1       7.533  -4.501  22.387  1.00  0.00    -0.296 N 
ATOM      5  HN  UNL     1       8.185  -5.284  22.337  1.00  0.00     0.177 HD
BRANCH   4   6
HETATM    6  S   UNL     1       6.033  -4.752  21.922  1.00  0.00     0.226 S 
HETATM    7  C   UNL     1       5.363  -5.844  23.232  1.00  0.00     0.186 C 
HETATM    8  O   UNL     1       5.206  -3.566  21.947  1.00  0.00    -0.206 OA
HETATM    9  O   UNL     1       5.893  -5.486  20.691  1.00  0.00    -0.206 OA
ENDBRANCH   4   6
ENDBRANCH   2   3
ENDBRANCH   1   2
BRANCH   1  10
HETATM   10  C   UNL     1       9.056  -1.105  21.694  1.00  0.00    -0.071 C 
BRANCH  10  11
HETATM   11  C   UNL     1       8.285  -0.431  20.865  1.00  0.00     0.289 C 
HETATM   12  O   UNL     1       8.833  -0.032  19.965  1.00  0.00    -0.259 OA
HETATM   13  N   UNL     1       7.024  -0.316  21.260  1.00  0.00    -0.315 N 
HETATM   14  C   UNL     1       6.198   0.327  20.576  1.00  0.00     0.060 A 
ATOM     15  HN  UNL     1       6.725  -0.756  22.129  1.00  0.00     0.170 HD
HETATM   16  C   UNL     1       5.591   0.118  19.398  1.00  0.00     0.117 A 
HETATM   17  C   UNL     1       5.687   1.757  21.085  1.00  0.00    -0.016 A 
HETATM   18  N   UNL     1       4.825   0.495  18.566  1.00  0.00    -0.373 N 
HETATM   19  C   UNL     1       4.487   1.730  19.093  1.00  0.00     0.088 A 
ATOM     20  HN  UNL     1       4.509   0.038  17.710  1.00  0.00     0.164 HD
HETATM   21  C   UNL     1       4.857   2.202  20.128  1.00  0.00     0.030 A 
HETATM   22  C   UNL     1       6.091   2.343  22.288  1.00  0.00     0.026 C 
ENDBRANCH  10  11
ENDBRANCH   1  10
BRANCH   1  23
HETATM   23  C   UNL     1      10.827  -0.889  23.255  1.00  0.00    -0.006 C 
BRANCH  23  24
HETATM   24  C   UNL     1      10.964  -0.726  24.330  1.00  0.00    -0.002 C 
HETATM   25  C   UNL     1      10.636   0.418  25.088  1.00  0.00    -0.001 C 
BRANCH  25  26
HETATM   26  C   UNL     1      10.057   1.505  24.213  1.00  0.00    -0.010 C 
HETATM   27  C   UNL     1       9.376   2.189  24.388  1.00  0.00     0.011 C 
ENDBRANCH  25  26
ENDBRANCH  23  24
ENDBRANCH   1  23
TORSDOF 8
ENDMDL
MODEL 2
REMARK VINA RESULT:    -6.398     14.583     16.582
REMARK INTER + INTRA:         -10.578
REMARK INTER:                  -9.472
REMARK INTRA:                  -1.105
REMARK UNBOUND:                -1.188
REMARK  8 active torsions:
REMARK  status: ('A' for Active; 'I' for Inactive)
REMARK    1  A    between atoms: S_2  and  N_5 
REMARK    2  A    between atoms: C_7  and  C_8 
REMARK    3  A    between atoms: C_8  and  C_9 
REMARK    4  A    between atoms: C_9  and  C_15 
REMARK    5  A    between atoms: C_9  and  C_10 
REMARK    6  A    between atoms: C_10  and  C_11 
REMARK    7  A    between atoms: C_12  and  C_13 
REMARK    8  A    between atoms: C_15  and  C_16 
REMARK       I    between atoms: C_16  and  N_18 
ROOT
HETATM    1  C   UNL     1      24.121  -1.854  23.602  1.00  0.00     0.109 C 
ENDROOT
BRANCH   1   2
HETATM    2  C   UNL     1      23.927  -3.117  23.755  1.00  0.00     0.011 C 
BRANCH   2   3
HETATM    3  C   UNL     1      24.238  -4.209  24.136  1.00  0.00     0.097 C 
HETATM    4  N   UNL     1      24.201  -5.440  24.161  1.00  0.00    -0.296 N 
ATOM      5  HN  UNL     1      24.125  -5.933  23.271  1.00  0.00     0.177 HD
BRANCH   4   6
HETATM    6  S   UNL     1      24.264  -6.310  25.490  1.00  0.00     0.226 S 
HETATM    7  C   UNL     1      26.051  -6.340  25.889  1.00  0.00     0.186 C 
HETATM    8  O   UNL     1      23.625  -5.687  26.628  1.00  0.00    -0.206 OA
HETATM    9  O   UNL     1      23.874  -7.687  25.335  1.00  0.00    -0.206 OA
ENDBRANCH   4   6
ENDBRANCH   2   3
ENDBRANCH   1   2
BRANCH   1  10
HETATM   10  C   UNL     1      23.727  -1.733  22.453  1.00  0.00    -0.071 C 
BRANCH  10  11
HETATM   11  C   UNL     1      23.253  -1.685  21.224  1.00  0.00     0.289 C 
HETATM   12  O   UNL     1      22.130  -1.746  21.174  1.00  0.00    -0.259 OA
HETATM   13  N   UNL     1      24.183  -1.612  20.280  1.00  0.00    -0.315 N 
HETATM   14  C   UNL     1      23.863  -1.592  19.072  1.00  0.00     0.060 A 
ATOM     15  HN  UNL     1      25.167  -1.573  20.543  1.00  0.00     0.170 HD
HETATM   16  C   UNL     1      23.277  -0.687  18.272  1.00  0.00     0.117 A 
HETATM   17  C   UNL     1      24.123  -2.881  18.159  1.00  0.00    -0.016 A 
HETATM   18  N   UNL     1      22.884  -0.391  17.186  1.00  0.00    -0.373 N 
HETATM   19  C   UNL     1      23.128  -1.576  16.512  1.00  0.00     0.088 A 
ATOM     20  HN  UNL     1      22.483   0.485  16.850  1.00  0.00     0.164 HD
HETATM   21  C   UNL     1      23.642  -2.565  16.946  1.00  0.00     0.030 A 
HETATM   22  C   UNL     1      24.725  -4.054  18.625  1.00  0.00     0.026 C 
ENDBRANCH  10  11
ENDBRANCH   1  10
BRANCH   1  23
HETATM   23  C   UNL     1      23.730  -0.568  24.517  1.00  0.00    -0.006 C 
BRANCH  23  24
HETATM   24  C   UNL     1      22.968   0.200  24.338  1.00  0.00    -0.002 C 
HETATM   25  C   UNL     1      21.620   0.205  24.756  1.00  0.00    -0.001 C 
BRANCH  25  26
HETATM   26  C   UNL     1      21.277  -1.058  25.511  1.00  0.00    -0.010 C 
HETATM   27  C   UNL     1      20.481  -1.630  25.495  1.00  0.00     0.011 C 
ENDBRANCH  25  26
ENDBRANCH  23  24
ENDBRANCH   1  23
TORSDOF 8
ENDMDL
MODEL 3
REMARK VINA RESULT:    -6.354      2.707      5.112
REMARK INTER + INTRA:         -10.514
REMARK INTER:                  -9.335
REMARK INTRA:                  -1.178
REMARK UNBOUND:                -1.188
REMARK  8 active torsions:
REMARK  status: ('A' for Active; 'I' for Inactive)
REMARK    1  A    between atoms: S_2  and  N_5 
REMARK    2  A    between atoms: C_7  and  C_8 
REMARK    3  A    between atoms: C_8  and  C_9 
REMARK    4  A    between atoms: C_9  and  C_15 
REMARK    5  A    between atoms: C_9  and  C_10 
REMARK    6  A    between atoms: C_10  and  C_11 
REMARK    7  A    between atoms: C_12  and  C_13 
REMARK    8  A    between atoms: C_15  and  C_16 
REMARK       I    between atoms: C_16  and  N_18 
ROOT
HETATM    1  C   UNL     1       7.565  -2.379  24.226  1.00  0.00     0.109 C 
ENDROOT
BRANCH   1   2
HETATM    2  C   UNL     1       8.633  -1.842  24.701  1.00  0.00     0.011 C 
BRANCH   2   3
HETATM    3  C   UNL     1       9.521  -1.038  24.693  1.00  0.00     0.097 C 
HETATM    4  N   UNL     1      10.022   0.080  24.818  1.00  0.00    -0.296 N 
ATOM      5  HN  UNL     1       9.698   0.664  25.589  1.00  0.00     0.177 HD
BRANCH   4   6
HETATM    6  S   UNL     1      11.140   0.671  23.855  1.00  0.00     0.226 S 
HETATM    7  C   UNL     1      10.762   2.463  23.821  1.00  0.00     0.186 C 
HETATM    8  O   UNL     1      12.482   0.570  24.384  1.00  0.00    -0.206 OA
HETATM    9  O   UNL     1      11.060   0.228  22.487  1.00  0.00    -0.206 OA
ENDBRANCH   4   6
ENDBRANCH   2   3
ENDBRANCH   1   2
BRANCH   1  10
HETATM   10  C   UNL     1       7.578  -1.889  23.108  1.00  0.00    -0.071 C 
BRANCH  10  11
HETATM   11  C   UNL     1       7.505  -1.399  21.886  1.00  0.00     0.289 C 
HETATM   12  O   UNL     1       8.487  -1.419  21.335  1.00  0.00    -0.259 OA
HETATM   13  N   UNL     1       6.306  -0.942  21.550  1.00  0.00    -0.315 N 
HETATM   14  C   UNL     1       6.113  -0.424  20.429  1.00  0.00     0.060 A 
ATOM     15  HN  UNL     1       5.534  -1.014  22.212  1.00  0.00     0.170 HD
HETATM   16  C   UNL     1       6.055  -0.898  19.174  1.00  0.00     0.117 A 
HETATM   17  C   UNL     1       5.908   1.159  20.309  1.00  0.00    -0.016 A 
HETATM   18  N   UNL     1       5.894  -0.686  18.012  1.00  0.00    -0.373 N 
HETATM   19  C   UNL     1       5.765   0.693  18.036  1.00  0.00     0.088 A 
ATOM     20  HN  UNL     1       5.860  -1.335  17.226  1.00  0.00     0.164 HD
HETATM   21  C   UNL     1       5.769   1.405  18.997  1.00  0.00     0.030 A 
HETATM   22  C   UNL     1       5.903   2.027  21.406  1.00  0.00     0.026 C 
ENDBRANCH  10  11
ENDBRANCH   1  10
BRANCH   1  23
HETATM   23  C   UNL     1       7.024  -3.913  24.210  1.00  0.00    -0.006 C 
BRANCH  23  24
HETATM   24  C   UNL     1       7.586  -4.841  24.048  1.00  0.00    -0.002 C 
HETATM   25  C   UNL     1       7.562  -5.689  22.921  1.00  0.00    -0.001 C 
BRANCH  25  26
HETATM   26  C   UNL     1       6.593  -5.185  21.878  1.00  0.00    -0.010 C 
HETATM   27  C   UNL     1       6.129  -5.642  21.144  1.00  0.00     0.011 C 
ENDBRANCH  25  26
ENDBRANCH  23  24
ENDBRANCH   1  23
TORSDOF 8
ENDMDL
MODEL 4
REMARK VINA RESULT:    -6.305      3.277      6.343
REMARK INTER + INTRA:         -10.442
REMARK INTER:                  -9.684
REMARK INTRA:                  -0.759
REMARK UNBOUND:                -1.188
REMARK  8 active torsions:
REMARK  status: ('A' for Active; 'I' for Inactive)
REMARK    1  A    between atoms: S_2  and  N_5 
REMARK    2  A    between atoms: C_7  and  C_8 
REMARK    3  A    between atoms: C_8  and  C_9 
REMARK    4  A    between atoms: C_9  and  C_15 
REMARK    5  A    between atoms: C_9  and  C_10 
REMARK    6  A    between atoms: C_10  and  C_11 
REMARK    7  A    between atoms: C_12  and  C_13 
REMARK    8  A    between atoms: C_15  and  C_16 
REMARK       I    between atoms: C_16  and  N_18 
ROOT
HETATM    1  C   UNL     1       8.216  -0.407  23.645  1.00  0.00     0.109 C 
ENDROOT
BRANCH   1   2
HETATM    2  C   UNL     1       7.826  -0.561  22.429  1.00  0.00     0.011 C 
BRANCH   2   3
HETATM    3  C   UNL     1       7.079  -0.369  21.512  1.00  0.00     0.097 C 
HETATM    4  N   UNL     1       6.256  -0.685  20.653  1.00  0.00    -0.296 N 
ATOM      5  HN  UNL     1       5.532  -1.356  20.910  1.00  0.00     0.177 HD
BRANCH   4   6
HETATM    6  S   UNL     1       6.248  -0.113  19.169  1.00  0.00     0.226 S 
HETATM    7  C   UNL     1       4.937   1.165  19.216  1.00  0.00     0.186 C 
HETATM    8  O   UNL     1       7.459   0.588  18.806  1.00  0.00    -0.206 OA
HETATM    9  O   UNL     1       5.841  -1.054  18.158  1.00  0.00    -0.206 OA
ENDBRANCH   4   6
ENDBRANCH   2   3
ENDBRANCH   1   2
BRANCH   1  10
HETATM   10  C   UNL     1       7.943  -1.514  24.082  1.00  0.00    -0.071 C 
BRANCH  10  11
HETATM   11  C   UNL     1       7.657  -2.672  24.642  1.00  0.00     0.289 C 
HETATM   12  O   UNL     1       7.407  -3.480  23.899  1.00  0.00    -0.259 OA
HETATM   13  N   UNL     1       7.681  -2.660  25.968  1.00  0.00    -0.315 N 
HETATM   14  C   UNL     1       7.398  -3.689  26.620  1.00  0.00     0.060 A 
ATOM     15  HN  UNL     1       7.933  -1.804  26.461  1.00  0.00     0.170 HD
HETATM   16  C   UNL     1       8.010  -4.865  26.827  1.00  0.00     0.117 A 
HETATM   17  C   UNL     1       6.007  -3.773  27.407  1.00  0.00    -0.016 A 
HETATM   18  N   UNL     1       8.006  -5.937  27.351  1.00  0.00    -0.373 N 
HETATM   19  C   UNL     1       6.762  -5.902  27.958  1.00  0.00     0.088 A 
ATOM     20  HN  UNL     1       8.716  -6.669  27.350  1.00  0.00     0.164 HD
HETATM   21  C   UNL     1       5.981  -4.995  27.961  1.00  0.00     0.030 A 
HETATM   22  C   UNL     1       5.069  -2.736  27.440  1.00  0.00     0.026 C 
ENDBRANCH  10  11
ENDBRANCH   1  10
BRANCH   1  23
HETATM   23  C   UNL     1       9.591   0.177  24.288  1.00  0.00    -0.006 C 
BRANCH  23  24
HETATM   24  C   UNL     1      10.143   1.088  24.025  1.00  0.00    -0.002 C 
HETATM   25  C   UNL     1      11.539   1.296  24.042  1.00  0.00    -0.001 C 
BRANCH  25  26
HETATM   26  C   UNL     1      12.270   0.064  24.522  1.00  0.00    -0.010 C 
HETATM   27  C   UNL     1      13.080  -0.381  24.195  1.00  0.00     0.011 C 
ENDBRANCH  25  26
ENDBRANCH  23  24
ENDBRANCH   1  23
TORSDOF 8
ENDMDL
MODEL 5
REMARK VINA RESULT:    -6.287      3.253      7.144
REMARK INTER + INTRA:         -10.415
REMARK INTER:                  -9.290
REMARK INTRA:                  -1.125
REMARK UNBOUND:                -1.188
REMARK  8 active torsions:
REMARK  status: ('A' for Active; 'I' for Inactive)
REMARK    1  A    between atoms: S_2  and  N_5 
REMARK    2  A    between atoms: C_7  and  C_8 
REMARK    3  A    between atoms: C_8  and  C_9 
REMARK    4  A    between atoms: C_9  and  C_15 
REMARK    5  A    between atoms: C_9  and  C_10 
REMARK    6  A    between atoms: C_10  and  C_11 
REMARK    7  A    between atoms: C_12  and  C_13 
REMARK    8  A    between atoms: C_15  and  C_16 
REMARK       I    between atoms: C_16  and  N_18 
ROOT
HETATM    1  C   UNL     1       8.245   0.148  20.639  1.00  0.00     0.109 C 
ENDROOT
BRANCH   1   2
HETATM    2  C   UNL     1       8.390   1.172  21.405  1.00  0.00     0.011 C 
BRANCH   2   3
HETATM    3  C   UNL     1       9.044   1.993  21.982  1.00  0.00     0.097 C 
HETATM    4  N   UNL     1      10.052   2.659  22.216  1.00  0.00    -0.296 N 
ATOM      5  HN  UNL     1      10.593   3.001  21.422  1.00  0.00     0.177 HD
BRANCH   4   6
HETATM    6  S   UNL     1      10.564   3.022  23.677  1.00  0.00     0.226 S 
HETATM    7  C   UNL     1      10.887   1.383  24.429  1.00  0.00     0.186 C 
HETATM    8  O   UNL     1      11.834   3.714  23.697  1.00  0.00    -0.206 OA
HETATM    9  O   UNL     1       9.587   3.656  24.524  1.00  0.00    -0.206 OA
ENDBRANCH   4   6
ENDBRANCH   2   3
ENDBRANCH   1   2
BRANCH   1  10
HETATM   10  C   UNL     1       8.477  -0.737  21.447  1.00  0.00    -0.071 C 
BRANCH  10  11
HETATM   11  C   UNL     1       8.794  -1.634  22.359  1.00  0.00     0.289 C 
HETATM   12  O   UNL     1       9.905  -1.791  22.466  1.00  0.00    -0.259 OA
HETATM   13  N   UNL     1       7.754  -2.208  22.948  1.00  0.00    -0.315 N 
HETATM   14  C   UNL     1       7.922  -3.099  23.810  1.00  0.00     0.060 A 
ATOM     15  HN  UNL     1       6.809  -1.921  22.697  1.00  0.00     0.170 HD
HETATM   16  C   UNL     1       8.378  -3.108  25.072  1.00  0.00     0.117 A 
HETATM   17  C   UNL     1       7.590  -4.624  23.452  1.00  0.00    -0.016 A 
HETATM   18  N   UNL     1       8.626  -3.727  26.061  1.00  0.00    -0.373 N 
HETATM   19  C   UNL     1       8.337  -5.008  25.620  1.00  0.00     0.088 A 
ATOM     20  HN  UNL     1       8.956  -3.404  26.971  1.00  0.00     0.164 HD
HETATM   21  C   UNL     1       7.909  -5.328  24.550  1.00  0.00     0.030 A 
HETATM   22  C   UNL     1       7.086  -5.039  22.215  1.00  0.00     0.026 C 
ENDBRANCH  10  11
ENDBRANCH   1  10
BRANCH   1  23
HETATM   23  C   UNL     1       7.078  -0.278  19.589  1.00  0.00    -0.006 C 
BRANCH  23  24
HETATM   24  C   UNL     1       6.850   0.145  18.603  1.00  0.00    -0.002 C 
HETATM   25  C   UNL     1       5.745   0.940  18.231  1.00  0.00    -0.001 C 
BRANCH  25  26
HETATM   26  C   UNL     1       4.809   1.156  19.396  1.00  0.00    -0.010 C 
HETATM   27  C   UNL     1       4.166   1.870  19.591  1.00  0.00     0.011 C 
ENDBRANCH  25  26
ENDBRANCH  23  24
ENDBRANCH   1  23
TORSDOF 8
ENDMDL
MODEL 6
REMARK VINA RESULT:    -6.266      4.090      6.231
REMARK INTER + INTRA:         -10.384
REMARK INTER:                  -9.298
REMARK INTRA:                  -1.086
REMARK UNBOUND:                -1.188
REMARK  8 active torsions:
REMARK  status: ('A' for Active; 'I' for Inactive)
REMARK    1  A    between atoms: S_2  and  N_5 
REMARK    2  A    between atoms: C_7  and  C_8 
REMARK    3  A    between atoms: C_8  and  C_9 
REMARK    4  A    between atoms: C_9  and  C_15 
REMARK    5  A    between atoms: C_9  and  C_10 
REMARK    6  A    between atoms: C_10  and  C_11 
REMARK    7  A    between atoms: C_12  and  C_13 
REMARK    8  A    between atoms: C_15  and  C_16 
REMARK       I    between atoms: C_16  and  N_18 
ROOT
HETATM    1  C   UNL     1       8.669   1.528  24.543  1.00  0.00     0.109 C 
ENDROOT
BRANCH   1   2
HETATM    2  C   UNL     1       8.575   2.803  24.686  1.00  0.00     0.011 C 
BRANCH   2   3
HETATM    3  C   UNL     1       9.033   3.905  24.789  1.00  0.00     0.097 C 
HETATM    4  N   UNL     1       9.032   5.093  25.115  1.00  0.00    -0.296 N 
ATOM      5  HN  UNL     1       8.616   5.341  26.013  1.00  0.00     0.177 HD
BRANCH   4   6
HETATM    6  S   UNL     1       9.638   6.264  24.227  1.00  0.00     0.226 S 
HETATM    7  C   UNL     1       9.820   7.645  25.417  1.00  0.00     0.186 C 
HETATM    8  O   UNL     1      10.972   5.997  23.737  1.00  0.00    -0.206 OA
HETATM    9  O   UNL     1       8.767   6.753  23.190  1.00  0.00    -0.206 OA
ENDBRANCH   4   6
ENDBRANCH   2   3
ENDBRANCH   1   2
BRANCH   1  10
HETATM   10  C   UNL     1       8.396   1.443  23.356  1.00  0.00    -0.071 C 
BRANCH  10  11
HETATM   11  C   UNL     1       8.149   1.435  22.061  1.00  0.00     0.289 C 
HETATM   12  O   UNL     1       8.921   1.986  21.454  1.00  0.00    -0.259 OA
HETATM   13  N   UNL     1       7.026   0.816  21.721  1.00  0.00    -0.315 N 
HETATM   14  C   UNL     1       6.662   0.766  20.526  1.00  0.00     0.060 A 
ATOM     15  HN  UNL     1       6.453   0.378  22.442  1.00  0.00     0.170 HD
HETATM   16  C   UNL     1       7.104   0.116  19.438  1.00  0.00     0.117 A 
HETATM   17  C   UNL     1       5.424   1.654  20.034  1.00  0.00    -0.016 A 
HETATM   18  N   UNL     1       6.983  -0.126  18.277  1.00  0.00    -0.373 N 
HETATM   19  C   UNL     1       5.924   0.712  17.968  1.00  0.00     0.088 A 
ATOM     20  HN  UNL     1       7.508  -0.767  17.683  1.00  0.00     0.164 HD
HETATM   21  C   UNL     1       5.313   1.416  18.718  1.00  0.00     0.030 A 
HETATM   22  C   UNL     1       4.681   2.486  20.877  1.00  0.00     0.026 C 
ENDBRANCH  10  11
ENDBRANCH   1  10
BRANCH   1  23
HETATM   23  C   UNL     1       9.812   0.458  24.982  1.00  0.00    -0.006 C 
BRANCH  23  24
HETATM   24  C   UNL     1      10.892   0.608  25.090  1.00  0.00    -0.002 C 
HETATM   25  C   UNL     1      11.934   0.006  24.353  1.00  0.00    -0.001 C 
BRANCH  25  26
HETATM   26  C   UNL     1      11.390  -0.969  23.335  1.00  0.00    -0.010 C 
HETATM   27  C   UNL     1      11.839  -1.598  22.731  1.00  0.00     0.011 C 
ENDBRANCH  25  26
ENDBRANCH  23  24
ENDBRANCH   1  23
TORSDOF 8
ENDMDL
MODEL 7
REMARK VINA RESULT:    -6.247      2.471      6.115
REMARK INTER + INTRA:         -10.357
REMARK INTER:                  -9.350
REMARK INTRA:                  -1.007
REMARK UNBOUND:                -1.188
REMARK  8 active torsions:
REMARK  status: ('A' for Active; 'I' for Inactive)
REMARK    1  A    between atoms: S_2  and  N_5 
REMARK    2  A    between atoms: C_7  and  C_8 
REMARK    3  A    between atoms: C_8  and  C_9 
REMARK    4  A    between atoms: C_9  and  C_15 
REMARK    5  A    between atoms: C_9  and  C_10 
REMARK    6  A    between atoms: C_10  and  C_11 
REMARK    7  A    between atoms: C_12  and  C_13 
REMARK    8  A    between atoms: C_15  and  C_16 
REMARK       I    between atoms: C_16  and  N_18 
ROOT
HETATM    1  C   UNL     1       8.112  -1.454  23.183  1.00  0.00     0.109 C 
ENDROOT
BRANCH   1   2
HETATM    2  C   UNL     1       7.741  -1.208  21.976  1.00  0.00     0.011 C 
BRANCH   2   3
HETATM    3  C   UNL     1       7.006  -0.733  21.158  1.00  0.00     0.097 C 
HETATM    4  N   UNL     1       6.134  -0.754  20.289  1.00  0.00    -0.296 N 
ATOM      5  HN  UNL     1       5.340  -1.379  20.425  1.00  0.00     0.177 HD
BRANCH   4   6
HETATM    6  S   UNL     1       6.168   0.131  18.968  1.00  0.00     0.226 S 
HETATM    7  C   UNL     1       5.132   1.578  19.404  1.00  0.00     0.186 C 
HETATM    8  O   UNL     1       7.473   0.669  18.657  1.00  0.00    -0.206 OA
HETATM    9  O   UNL     1       5.540  -0.468  17.819  1.00  0.00    -0.206 OA
ENDBRANCH   4   6
ENDBRANCH   2   3
ENDBRANCH   1   2
BRANCH   1  10
HETATM   10  C   UNL     1       7.214  -2.211  23.515  1.00  0.00    -0.071 C 
BRANCH  10  11
HETATM   11  C   UNL     1       6.311  -3.096  23.890  1.00  0.00     0.289 C 
HETATM   12  O   UNL     1       5.267  -2.676  23.945  1.00  0.00    -0.259 OA
HETATM   13  N   UNL     1       6.802  -4.296  24.166  1.00  0.00    -0.315 N 
HETATM   14  C   UNL     1       6.053  -5.216  24.562  1.00  0.00     0.060 A 
ATOM     15  HN  UNL     1       7.800  -4.471  24.054  1.00  0.00     0.170 HD
HETATM   16  C   UNL     1       5.104  -5.966  23.982  1.00  0.00     0.117 A 
HETATM   17  C   UNL     1       6.107  -5.682  26.092  1.00  0.00    -0.016 A 
HETATM   18  N   UNL     1       4.299  -6.841  24.075  1.00  0.00    -0.373 N 
HETATM   19  C   UNL     1       4.415  -7.130  25.425  1.00  0.00     0.088 A 
ATOM     20  HN  UNL     1       3.698  -7.257  23.364  1.00  0.00     0.164 HD
HETATM   21  C   UNL     1       5.171  -6.637  26.210  1.00  0.00     0.030 A 
HETATM   22  C   UNL     1       6.978  -5.136  27.040  1.00  0.00     0.026 C 
ENDBRANCH  10  11
ENDBRANCH   1  10
BRANCH   1  23
HETATM   23  C   UNL     1       9.543  -1.893  23.821  1.00  0.00    -0.006 C 
BRANCH  23  24
HETATM   24  C   UNL     1      10.533  -1.905  23.351  1.00  0.00    -0.002 C 
HETATM   25  C   UNL     1      11.559  -0.942  23.457  1.00  0.00    -0.001 C 
BRANCH  25  26
HETATM   26  C   UNL     1      11.133   0.219  24.322  1.00  0.00    -0.010 C 
HETATM   27  C   UNL     1      11.361   1.173  24.293  1.00  0.00     0.011 C 
ENDBRANCH  25  26
ENDBRANCH  23  24
ENDBRANCH   1  23
TORSDOF 8
ENDMDL
MODEL 8
REMARK VINA RESULT:    -6.128      3.022      6.248
REMARK INTER + INTRA:         -10.181
REMARK INTER:                  -8.919
REMARK INTRA:                  -1.262
REMARK UNBOUND:                -1.188
REMARK  8 active torsions:
REMARK  status: ('A' for Active; 'I' for Inactive)
REMARK    1  A    between atoms: S_2  and  N_5 
REMARK    2  A    between atoms: C_7  and  C_8 
REMARK    3  A    between atoms: C_8  and  C_9 
REMARK    4  A    between atoms: C_9  and  C_15 
REMARK    5  A    between atoms: C_9  and  C_10 
REMARK    6  A    between atoms: C_10  and  C_11 
REMARK    7  A    between atoms: C_12  and  C_13 
REMARK    8  A    between atoms: C_15  and  C_16 
REMARK       I    between atoms: C_16  and  N_18 
ROOT
HETATM    1  C   UNL     1       7.823   3.520  23.079  1.00  0.00     0.109 C 
ENDROOT
BRANCH   1   2
HETATM    2  C   UNL     1       7.069   2.993  22.179  1.00  0.00     0.011 C 
BRANCH   2   3
HETATM    3  C   UNL     1       6.577   2.064  21.605  1.00  0.00     0.097 C 
HETATM    4  N   UNL     1       6.431   0.876  21.316  1.00  0.00    -0.296 N 
ATOM      5  HN  UNL     1       6.487   0.191  22.070  1.00  0.00     0.177 HD
BRANCH   4   6
HETATM    6  S   UNL     1       6.159   0.341  19.843  1.00  0.00     0.226 S 
HETATM    7  C   UNL     1       4.821   1.436  19.238  1.00  0.00     0.186 C 
HETATM    8  O   UNL     1       7.265   0.543  18.934  1.00  0.00    -0.206 OA
HETATM    9  O   UNL     1       5.632  -0.997  19.770  1.00  0.00    -0.206 OA
ENDBRANCH   4   6
ENDBRANCH   2   3
ENDBRANCH   1   2
BRANCH   1  10
HETATM   10  C   UNL     1       8.824   2.840  22.920  1.00  0.00    -0.071 C 
BRANCH  10  11
HETATM   11  C   UNL     1       9.929   2.126  22.841  1.00  0.00     0.289 C 
HETATM   12  O   UNL     1      10.702   2.571  22.153  1.00  0.00    -0.259 OA
HETATM   13  N   UNL     1       9.911   1.006  23.552  1.00  0.00    -0.315 N 
HETATM   14  C   UNL     1      10.887   0.226  23.537  1.00  0.00     0.060 A 
ATOM     15  HN  UNL     1       9.092   0.780  24.116  1.00  0.00     0.170 HD
HETATM   16  C   UNL     1      12.134   0.274  24.032  1.00  0.00     0.117 A 
HETATM   17  C   UNL     1      10.778  -1.169  22.758  1.00  0.00    -0.016 A 
HETATM   18  N   UNL     1      13.191  -0.256  24.182  1.00  0.00    -0.373 N 
HETATM   19  C   UNL     1      12.985  -1.412  23.448  1.00  0.00     0.088 A 
ATOM     20  HN  UNL     1      14.012   0.054  24.703  1.00  0.00     0.164 HD
HETATM   21  C   UNL     1      11.982  -1.748  22.889  1.00  0.00     0.030 A 
HETATM   22  C   UNL     1       9.625  -1.600  22.095  1.00  0.00     0.026 C 
ENDBRANCH  10  11
ENDBRANCH   1  10
BRANCH   1  23
HETATM   23  C   UNL     1       8.188   5.065  23.433  1.00  0.00    -0.006 C 
BRANCH  23  24
HETATM   24  C   UNL     1       8.450   5.507  24.402  1.00  0.00    -0.002 C 
HETATM   25  C   UNL     1       9.704   5.995  24.827  1.00  0.00    -0.001 C 
BRANCH  25  26
HETATM   26  C   UNL     1      10.752   5.815  23.754  1.00  0.00    -0.010 C 
HETATM   27  C   UNL     1      11.728   5.729  23.805  1.00  0.00     0.011 C 
ENDBRANCH  25  26
ENDBRANCH  23  24
ENDBRANCH   1  23
TORSDOF 8
ENDMDL
MODEL 9
REMARK VINA RESULT:    -5.824     14.894     17.076
REMARK INTER + INTRA:          -9.736
REMARK INTER:                  -8.508
REMARK INTRA:                  -1.229
REMARK UNBOUND:                -1.188
REMARK  8 active torsions:
REMARK  status: ('A' for Active; 'I' for Inactive)
REMARK    1  A    between atoms: S_2  and  N_5 
REMARK    2  A    between atoms: C_7  and  C_8 
REMARK    3  A    between atoms: C_8  and  C_9 
REMARK    4  A    between atoms: C_9  and  C_15 
REMARK    5  A    between atoms: C_9  and  C_10 
REMARK    6  A    between atoms: C_10  and  C_11 
REMARK    7  A    between atoms: C_12  and  C_13 
REMARK    8  A    between atoms: C_15  and  C_16 
REMARK       I    between atoms: C_16  and  N_18 
ROOT
HETATM    1  C   UNL     1      24.796  -2.950  23.247  1.00  0.00     0.109 C 
ENDROOT
BRANCH   1   2
HETATM    2  C   UNL     1      25.187  -4.133  22.926  1.00  0.00     0.011 C 
BRANCH   2   3
HETATM    3  C   UNL     1      25.011  -5.301  22.728  1.00  0.00     0.097 C 
HETATM    4  N   UNL     1      24.867  -6.482  23.045  1.00  0.00    -0.296 N 
ATOM      5  HN  UNL     1      24.308  -6.689  23.873  1.00  0.00     0.177 HD
BRANCH   4   6
HETATM    6  S   UNL     1      25.497  -7.705  22.248  1.00  0.00     0.226 S 
HETATM    7  C   UNL     1      26.857  -6.931  21.294  1.00  0.00     0.186 C 
HETATM    8  O   UNL     1      26.131  -8.691  23.093  1.00  0.00    -0.206 OA
HETATM    9  O   UNL     1      24.627  -8.306  21.270  1.00  0.00    -0.206 OA
ENDBRANCH   4   6
ENDBRANCH   2   3
ENDBRANCH   1   2
BRANCH   1  10
HETATM   10  C   UNL     1      24.324  -2.602  22.176  1.00  0.00    -0.071 C 
BRANCH  10  11
HETATM   11  C   UNL     1      23.726  -2.229  21.062  1.00  0.00     0.289 C 
HETATM   12  O   UNL     1      22.609  -2.132  21.163  1.00  0.00    -0.259 OA
HETATM   13  N   UNL     1      24.542  -2.076  20.027  1.00  0.00    -0.315 N 
HETATM   14  C   UNL     1      24.094  -1.754  18.905  1.00  0.00     0.060 A 
ATOM     15  HN  UNL     1      25.544  -2.222  20.148  1.00  0.00     0.170 HD
HETATM   16  C   UNL     1      23.569  -0.630  18.392  1.00  0.00     0.117 A 
HETATM   17  C   UNL     1      24.043  -2.839  17.729  1.00  0.00    -0.016 A 
HETATM   18  N   UNL     1      23.107  -0.058  17.454  1.00  0.00    -0.373 N 
HETATM   19  C   UNL     1      23.083  -1.092  16.532  1.00  0.00     0.088 A 
ATOM     20  HN  UNL     1      22.812   0.913  17.358  1.00  0.00     0.164 HD
HETATM   21  C   UNL     1      23.482  -2.209  16.684  1.00  0.00     0.030 A 
HETATM   22  C   UNL     1      24.503  -4.153  17.863  1.00  0.00     0.026 C 
ENDBRANCH  10  11
ENDBRANCH   1  10
BRANCH   1  23
HETATM   23  C   UNL     1      23.933  -2.384  24.504  1.00  0.00    -0.006 C 
BRANCH  23  24
HETATM   24  C   UNL     1      23.160  -2.892  25.093  1.00  0.00    -0.002 C 
HETATM   25  C   UNL     1      21.783  -2.591  25.168  1.00  0.00    -0.001 C 
BRANCH  25  26
HETATM   26  C   UNL     1      21.439  -1.392  24.317  1.00  0.00    -0.010 C 
HETATM   27  C   UNL     1      20.611  -0.874  24.227  1.00  0.00     0.011 C 
ENDBRANCH  25  26
ENDBRANCH  23  24
ENDBRANCH   1  23
TORSDOF 8
ENDMDL
