MODEL 1
REMARK VINA RESULT:    -7.924      0.000      0.000
REMARK INTER + INTRA:         -10.561
REMARK INTER:                  -9.776
REMARK INTRA:                  -0.785
REMARK UNBOUND:                -0.785
REMARK  4 active torsions:
REMARK  status: ('A' for Active; 'I' for Inactive)
REMARK    1  A    between atoms: S_2  and  N_5 
REMARK    2  A    between atoms: C_7  and  C_8 
REMARK    3  A    between atoms: C_15  and  C_16 
REMARK       I    between atoms: C_16  and  N_18 
REMARK    4  A    between atoms: N_18  and  C_20 
ROOT
HETATM    1  C   UNL     1       9.229  -1.049  22.526  1.00  0.00    -0.008 A 
HETATM    2  C   UNL     1      10.204  -1.012  23.385  1.00  0.00     0.058 A 
HETATM    3  C   UNL     1      11.736  -1.640  23.175  1.00  0.00    -0.003 C 
HETATM    4  C   UNL     1      12.650  -1.222  23.564  1.00  0.00    -0.002 C 
HETATM    5  C   UNL     1      12.792  -0.037  24.236  1.00  0.00    -0.001 C 
HETATM    6  C   UNL     1      11.619   0.717  24.366  1.00  0.00    -0.002 C 
HETATM    7  C   UNL     1      10.648   0.460  24.006  1.00  0.00    -0.003 C 
HETATM    8  C   UNL     1       9.558  -1.655  24.161  1.00  0.00     0.040 A 
ENDROOT
BRANCH   8   9
HETATM    9  C   UNL     1       8.931  -2.344  25.140  1.00  0.00     0.254 C 
HETATM   10  O   UNL     1       8.793  -1.812  26.144  1.00  0.00    -0.268 OA
HETATM   11  N   UNL     1       8.570  -3.552  24.714  1.00  0.00    -0.321 N 
ATOM     12  HN  UNL     1       8.806  -3.849  23.768  1.00  0.00     0.169 HD
BRANCH  11  13
HETATM   13  C   UNL     1       7.956  -4.309  25.454  1.00  0.00     0.060 A 
HETATM   14  C   UNL     1       8.142  -5.061  26.492  1.00  0.00     0.117 A 
HETATM   15  N   UNL     1       7.862  -5.873  27.401  1.00  0.00    -0.373 N 
HETATM   16  C   UNL     1       6.657  -5.981  26.981  1.00  0.00     0.088 A 
ATOM     17  HN  UNL     1       8.385  -6.286  28.172  1.00  0.00     0.164 HD
HETATM   18  C   UNL     1       6.010  -5.474  26.061  1.00  0.00     0.030 A 
HETATM   19  C   UNL     1       6.399  -4.567  25.158  1.00  0.00    -0.016 A 
HETATM   20  C   UNL     1       5.885  -4.101  24.367  1.00  0.00     0.026 C 
ENDBRANCH  11  13
ENDBRANCH   8   9
BRANCH   1  21
HETATM   21  C   UNL     1       8.693  -0.788  21.459  1.00  0.00     0.109 C 
HETATM   22  N   UNL     1       8.540  -0.341  20.353  1.00  0.00    -0.295 N 
ATOM     23  HN  UNL     1       9.315  -0.422  19.694  1.00  0.00     0.177 HD
BRANCH  22  24
HETATM   24  S   UNL     1       7.177   0.383  19.840  1.00  0.00     0.226 S 
HETATM   25  C   UNL     1       5.964  -0.830  19.968  1.00  0.00     0.186 C 
HETATM   26  O   UNL     1       6.775   1.456  20.710  1.00  0.00    -0.206 OA
HETATM   27  O   UNL     1       7.220   0.787  18.463  1.00  0.00    -0.206 OA
ENDBRANCH  22  24
ENDBRANCH   1  21
TORSDOF 4
ENDMDL
MODEL 2
REMARK VINA RESULT:    -7.911      3.453      7.414
REMARK INTER + INTRA:         -10.546
REMARK INTER:                  -9.919
REMARK INTRA:                  -0.627
REMARK UNBOUND:                -0.785
REMARK  4 active torsions:
REMARK  status: ('A' for Active; 'I' for Inactive)
REMARK    1  A    between atoms: S_2  and  N_5 
REMARK    2  A    between atoms: C_7  and  C_8 
REMARK    3  A    between atoms: C_15  and  C_16 
REMARK       I    between atoms: C_16  and  N_18 
REMARK    4  A    between atoms: N_18  and  C_20 
ROOT
HETATM    1  C   UNL     1       7.642  -4.719  25.219  1.00  0.00    -0.008 A 
HETATM    2  C   UNL     1       7.330  -4.667  23.958  1.00  0.00     0.058 A 
HETATM    3  C   UNL     1       7.571  -5.869  22.826  1.00  0.00    -0.003 C 
HETATM    4  C   UNL     1       6.925  -6.091  21.991  1.00  0.00    -0.002 C 
HETATM    5  C   UNL     1       5.714  -5.516  21.713  1.00  0.00    -0.001 C 
HETATM    6  C   UNL     1       5.266  -4.585  22.658  1.00  0.00    -0.002 C 
HETATM    7  C   UNL     1       5.769  -4.284  23.550  1.00  0.00    -0.003 C 
HETATM    8  C   UNL     1       8.078  -3.746  23.800  1.00  0.00     0.040 A 
ENDROOT
BRANCH   8   9
HETATM    9  C   UNL     1       8.857  -2.686  23.490  1.00  0.00     0.254 C 
HETATM   10  O   UNL     1       8.899  -2.376  22.389  1.00  0.00    -0.268 OA
HETATM   11  N   UNL     1       9.434  -2.185  24.580  1.00  0.00    -0.321 N 
ATOM     12  HN  UNL     1       9.278  -2.627  25.486  1.00  0.00     0.169 HD
BRANCH  11  13
HETATM   13  C   UNL     1      10.151  -1.197  24.499  1.00  0.00     0.060 A 
HETATM   14  C   UNL     1      11.346  -0.856  24.134  1.00  0.00     0.117 A 
HETATM   15  N   UNL     1      12.328  -0.108  23.934  1.00  0.00    -0.373 N 
HETATM   16  C   UNL     1      11.699   0.903  24.403  1.00  0.00     0.088 A 
ATOM     17  HN  UNL     1      13.262  -0.248  23.550  1.00  0.00     0.164 HD
HETATM   18  C   UNL     1      10.564   1.087  24.854  1.00  0.00     0.030 A 
HETATM   19  C   UNL     1       9.558   0.216  24.984  1.00  0.00    -0.016 A 
HETATM   20  C   UNL     1       8.579   0.325  25.350  1.00  0.00     0.026 C 
ENDBRANCH  11  13
ENDBRANCH   8   9
BRANCH   1  21
HETATM   21  C   UNL     1       7.566  -5.170  26.352  1.00  0.00     0.109 C 
HETATM   22  N   UNL     1       7.652  -5.949  27.265  1.00  0.00    -0.295 N 
ATOM     23  HN  UNL     1       8.498  -6.516  27.331  1.00  0.00     0.177 HD
BRANCH  22  24
HETATM   24  S   UNL     1       6.505  -6.156  28.399  1.00  0.00     0.226 S 
HETATM   25  C   UNL     1       5.037  -6.302  27.514  1.00  0.00     0.186 C 
HETATM   26  O   UNL     1       6.673  -7.391  29.118  1.00  0.00    -0.206 OA
HETATM   27  O   UNL     1       6.353  -5.032  29.279  1.00  0.00    -0.206 OA
ENDBRANCH  22  24
ENDBRANCH   1  21
TORSDOF 4
ENDMDL
MODEL 3
REMARK VINA RESULT:    -7.873      2.570      6.424
REMARK INTER + INTRA:         -10.498
REMARK INTER:                  -9.886
REMARK INTRA:                  -0.613
REMARK UNBOUND:                -0.785
REMARK  4 active torsions:
REMARK  status: ('A' for Active; 'I' for Inactive)
REMARK    1  A    between atoms: S_2  and  N_5 
REMARK    2  A    between atoms: C_7  and  C_8 
REMARK    3  A    between atoms: C_15  and  C_16 
REMARK       I    between atoms: C_16  and  N_18 
REMARK    4  A    between atoms: N_18  and  C_20 
ROOT
HETATM    1  C   UNL     1       8.961  -2.342  23.463  1.00  0.00    -0.008 A 
HETATM    2  C   UNL     1       9.756  -1.314  23.418  1.00  0.00     0.058 A 
HETATM    3  C   UNL     1       9.929  -0.142  24.592  1.00  0.00    -0.003 C 
HETATM    4  C   UNL     1      10.843   0.370  24.846  1.00  0.00    -0.002 C 
HETATM    5  C   UNL     1      12.092   0.121  24.342  1.00  0.00    -0.001 C 
HETATM    6  C   UNL     1      12.169  -0.955  23.449  1.00  0.00    -0.002 C 
HETATM    7  C   UNL     1      11.366  -1.579  23.126  1.00  0.00    -0.003 C 
HETATM    8  C   UNL     1       9.183  -0.901  22.452  1.00  0.00     0.040 A 
ENDROOT
BRANCH   8   9
HETATM    9  C   UNL     1       8.650  -0.339  21.345  1.00  0.00     0.254 C 
HETATM   10  O   UNL     1       9.355   0.272  20.680  1.00  0.00    -0.268 OA
HETATM   11  N   UNL     1       7.356  -0.635  21.236  1.00  0.00    -0.321 N 
ATOM     12  HN  UNL     1       6.901  -1.191  21.959  1.00  0.00     0.169 HD
BRANCH  11  13
HETATM   13  C   UNL     1       6.712  -0.241  20.274  1.00  0.00     0.060 A 
HETATM   14  C   UNL     1       6.373  -0.610  19.079  1.00  0.00     0.117 A 
HETATM   15  N   UNL     1       5.844  -0.534  17.949  1.00  0.00    -0.373 N 
HETATM   16  C   UNL     1       5.398   0.640  18.197  1.00  0.00     0.088 A 
ATOM     17  HN  UNL     1       5.790  -1.160  17.146  1.00  0.00     0.164 HD
HETATM   18  C   UNL     1       5.443   1.398  19.171  1.00  0.00     0.030 A 
HETATM   19  C   UNL     1       6.004   1.198  20.368  1.00  0.00    -0.016 A 
HETATM   20  C   UNL     1       6.061   1.804  21.225  1.00  0.00     0.026 C 
ENDBRANCH  11  13
ENDBRANCH   8   9
BRANCH   1  21
HETATM   21  C   UNL     1       8.551  -3.395  23.928  1.00  0.00     0.109 C 
HETATM   22  N   UNL     1       7.944  -4.431  24.014  1.00  0.00    -0.295 N 
ATOM     23  HN  UNL     1       7.912  -5.034  23.192  1.00  0.00     0.177 HD
BRANCH  22  24
HETATM   24  S   UNL     1       7.173  -4.929  25.356  1.00  0.00     0.226 S 
HETATM   25  C   UNL     1       6.595  -3.485  26.089  1.00  0.00     0.186 C 
HETATM   26  O   UNL     1       6.014  -5.725  25.049  1.00  0.00    -0.206 OA
HETATM   27  O   UNL     1       8.033  -5.568  26.312  1.00  0.00    -0.206 OA
ENDBRANCH  22  24
ENDBRANCH   1  21
TORSDOF 4
ENDMDL
MODEL 4
REMARK VINA RESULT:    -7.382      3.399      7.614
REMARK INTER + INTRA:          -9.893
REMARK INTER:                  -9.127
REMARK INTRA:                  -0.766
REMARK UNBOUND:                -0.785
REMARK  4 active torsions:
REMARK  status: ('A' for Active; 'I' for Inactive)
REMARK    1  A    between atoms: S_2  and  N_5 
REMARK    2  A    between atoms: C_7  and  C_8 
REMARK    3  A    between atoms: C_15  and  C_16 
REMARK       I    between atoms: C_16  and  N_18 
REMARK    4  A    between atoms: N_18  and  C_20 
ROOT
HETATM    1  C   UNL     1       7.335  -4.628  25.573  1.00  0.00    -0.008 A 
HETATM    2  C   UNL     1       7.053  -4.548  24.307  1.00  0.00     0.058 A 
HETATM    3  C   UNL     1       7.659  -5.519  23.092  1.00  0.00    -0.003 C 
HETATM    4  C   UNL     1       7.125  -5.837  22.211  1.00  0.00    -0.002 C 
HETATM    5  C   UNL     1       5.807  -5.607  21.920  1.00  0.00    -0.001 C 
HETATM    6  C   UNL     1       5.087  -4.937  22.915  1.00  0.00    -0.002 C 
HETATM    7  C   UNL     1       5.459  -4.590  23.853  1.00  0.00    -0.003 C 
HETATM    8  C   UNL     1       7.507  -3.442  24.265  1.00  0.00     0.040 A 
ENDROOT
BRANCH   8   9
HETATM    9  C   UNL     1       7.955  -2.180  24.084  1.00  0.00     0.254 C 
HETATM   10  O   UNL     1       7.378  -1.343  24.611  1.00  0.00    -0.268 OA
HETATM   11  N   UNL     1       9.035  -2.165  23.307  1.00  0.00    -0.321 N 
ATOM     12  HN  UNL     1       9.391  -3.037  22.915  1.00  0.00     0.169 HD
BRANCH  11  13
HETATM   13  C   UNL     1       9.603  -1.111  23.059  1.00  0.00     0.060 A 
HETATM   14  C   UNL     1      10.511  -0.325  23.548  1.00  0.00     0.117 A 
HETATM   15  N   UNL     1      11.255   0.676  23.631  1.00  0.00    -0.373 N 
HETATM   16  C   UNL     1      10.757   1.179  22.564  1.00  0.00     0.088 A 
ATOM     17  HN  UNL     1      11.975   0.974  24.288  1.00  0.00     0.164 HD
HETATM   18  C   UNL     1       9.899   0.818  21.753  1.00  0.00     0.030 A 
HETATM   19  C   UNL     1       9.182  -0.311  21.731  1.00  0.00    -0.016 A 
HETATM   20  C   UNL     1       8.453  -0.665  21.062  1.00  0.00     0.026 C 
ENDBRANCH  11  13
ENDBRANCH   8   9
BRANCH   1  21
HETATM   21  C   UNL     1       7.365  -5.187  26.660  1.00  0.00     0.109 C 
HETATM   22  N   UNL     1       7.514  -6.056  27.479  1.00  0.00    -0.295 N 
ATOM     23  HN  UNL     1       8.334  -6.657  27.393  1.00  0.00     0.177 HD
BRANCH  22  24
HETATM   24  S   UNL     1       6.492  -6.333  28.712  1.00  0.00     0.226 S 
HETATM   25  C   UNL     1       4.963  -6.582  27.965  1.00  0.00     0.186 C 
HETATM   26  O   UNL     1       6.807  -7.550  29.412  1.00  0.00    -0.206 OA
HETATM   27  O   UNL     1       6.345  -5.217  29.603  1.00  0.00    -0.206 OA
ENDBRANCH  22  24
ENDBRANCH   1  21
TORSDOF 4
ENDMDL
MODEL 5
REMARK VINA RESULT:    -7.341      1.885      2.295
REMARK INTER + INTRA:          -9.843
REMARK INTER:                  -9.127
REMARK INTRA:                  -0.716
REMARK UNBOUND:                -0.785
REMARK  4 active torsions:
REMARK  status: ('A' for Active; 'I' for Inactive)
REMARK    1  A    between atoms: S_2  and  N_5 
REMARK    2  A    between atoms: C_7  and  C_8 
REMARK    3  A    between atoms: C_15  and  C_16 
REMARK       I    between atoms: C_16  and  N_18 
REMARK    4  A    between atoms: N_18  and  C_20 
ROOT
HETATM    1  C   UNL     1       7.409  -1.674  22.196  1.00  0.00    -0.008 A 
HETATM    2  C   UNL     1       8.406  -1.785  23.023  1.00  0.00     0.058 A 
HETATM    3  C   UNL     1      10.024  -1.855  22.622  1.00  0.00    -0.003 C 
HETATM    4  C   UNL     1      10.838  -1.444  23.198  1.00  0.00    -0.002 C 
HETATM    5  C   UNL     1      10.740  -0.688  24.335  1.00  0.00    -0.001 C 
HETATM    6  C   UNL     1       9.433  -0.385  24.737  1.00  0.00    -0.002 C 
HETATM    7  C   UNL     1       8.528  -0.685  24.258  1.00  0.00    -0.003 C 
HETATM    8  C   UNL     1       7.990  -2.842  23.398  1.00  0.00     0.040 A 
ENDROOT
BRANCH   8   9
HETATM    9  C   UNL     1       7.618  -4.025  23.934  1.00  0.00     0.254 C 
HETATM   10  O   UNL     1       8.404  -4.857  23.956  1.00  0.00    -0.268 OA
HETATM   11  N   UNL     1       6.359  -3.979  24.363  1.00  0.00    -0.321 N 
ATOM     12  HN  UNL     1       5.809  -3.129  24.232  1.00  0.00     0.169 HD
BRANCH  11  13
HETATM   13  C   UNL     1       5.857  -4.949  24.912  1.00  0.00     0.060 A 
HETATM   14  C   UNL     1       5.919  -5.613  26.022  1.00  0.00     0.117 A 
HETATM   15  N   UNL     1       5.658  -6.510  26.853  1.00  0.00    -0.373 N 
HETATM   16  C   UNL     1       4.836  -7.068  26.045  1.00  0.00     0.088 A 
ATOM     17  HN  UNL     1       5.974  -6.717  27.800  1.00  0.00     0.164 HD
HETATM   18  C   UNL     1       4.433  -6.817  24.905  1.00  0.00     0.030 A 
HETATM   19  C   UNL     1       4.748  -5.790  24.109  1.00  0.00    -0.016 A 
HETATM   20  C   UNL     1       4.427  -5.529  23.142  1.00  0.00     0.026 C 
ENDBRANCH  11  13
ENDBRANCH   8   9
BRANCH   1  21
HETATM   21  C   UNL     1       6.751  -1.106  21.337  1.00  0.00     0.109 C 
HETATM   22  N   UNL     1       5.951  -0.940  20.454  1.00  0.00    -0.295 N 
ATOM     23  HN  UNL     1       5.038  -1.386  20.547  1.00  0.00     0.177 HD
BRANCH  22  24
HETATM   24  S   UNL     1       6.231  -0.051  19.122  1.00  0.00     0.226 S 
HETATM   25  C   UNL     1       5.262   1.356  19.325  1.00  0.00     0.186 C 
HETATM   26  O   UNL     1       7.595   0.400  19.050  1.00  0.00    -0.206 OA
HETATM   27  O   UNL     1       5.802  -0.682  17.905  1.00  0.00    -0.206 OA
ENDBRANCH  22  24
ENDBRANCH   1  21
TORSDOF 4
ENDMDL
MODEL 6
REMARK VINA RESULT:    -7.007     13.897     16.299
REMARK INTER + INTRA:          -9.430
REMARK INTER:                  -8.772
REMARK INTRA:                  -0.658
REMARK UNBOUND:                -0.785
REMARK  4 active torsions:
REMARK  status: ('A' for Active; 'I' for Inactive)
REMARK    1  A    between atoms: S_2  and  N_5 
REMARK    2  A    between atoms: C_7  and  C_8 
REMARK    3  A    between atoms: C_15  and  C_16 
REMARK       I    between atoms: C_16  and  N_18 
REMARK    4  A    between atoms: N_18  and  C_20 
ROOT
HETATM    1  C   UNL     1      23.431  -3.443  25.529  1.00  0.00    -0.008 A 
HETATM    2  C   UNL     1      22.869  -2.271  25.529  1.00  0.00     0.058 A 
HETATM    3  C   UNL     1      23.238  -0.994  24.520  1.00  0.00    -0.003 C 
HETATM    4  C   UNL     1      22.539  -0.270  24.132  1.00  0.00    -0.002 C 
HETATM    5  C   UNL     1      21.179  -0.275  24.290  1.00  0.00    -0.001 C 
HETATM    6  C   UNL     1      20.664  -1.378  24.983  1.00  0.00    -0.002 C 
HETATM    7  C   UNL     1      21.218  -2.192  25.395  1.00  0.00    -0.003 C 
HETATM    8  C   UNL     1      23.242  -2.080  26.649  1.00  0.00     0.040 A 
ENDROOT
BRANCH   8   9
HETATM    9  C   UNL     1      23.570  -1.748  27.918  1.00  0.00     0.254 C 
HETATM   10  O   UNL     1      23.739  -0.637  28.137  1.00  0.00    -0.268 OA
HETATM   11  N   UNL     1      23.618  -2.828  28.695  1.00  0.00    -0.321 N 
ATOM     12  HN  UNL     1      23.447  -3.750  28.294  1.00  0.00     0.169 HD
BRANCH  11  13
HETATM   13  C   UNL     1      23.865  -2.719  29.888  1.00  0.00     0.060 A 
HETATM   14  C   UNL     1      23.263  -2.558  31.023  1.00  0.00     0.117 A 
HETATM   15  N   UNL     1      23.138  -2.403  32.257  1.00  0.00    -0.373 N 
HETATM   16  C   UNL     1      24.408  -2.411  32.423  1.00  0.00     0.088 A 
ATOM     17  HN  UNL     1      22.341  -2.308  32.885  1.00  0.00     0.164 HD
HETATM   18  C   UNL     1      25.380  -2.543  31.673  1.00  0.00     0.030 A 
HETATM   19  C   UNL     1      25.402  -2.753  30.353  1.00  0.00    -0.016 A 
HETATM   20  C   UNL     1      26.198  -2.880  29.677  1.00  0.00     0.026 C 
ENDBRANCH  11  13
ENDBRANCH   8   9
BRANCH   1  21
HETATM   21  C   UNL     1      23.733  -4.518  25.032  1.00  0.00     0.109 C 
HETATM   22  N   UNL     1      23.608  -5.613  24.550  1.00  0.00    -0.295 N 
ATOM     23  HN  UNL     1      22.870  -5.749  23.858  1.00  0.00     0.177 HD
BRANCH  22  24
HETATM   24  S   UNL     1      24.540  -6.890  24.930  1.00  0.00     0.226 S 
HETATM   25  C   UNL     1      26.124  -6.240  25.095  1.00  0.00     0.186 C 
HETATM   26  O   UNL     1      24.193  -7.451  26.208  1.00  0.00    -0.206 OA
HETATM   27  O   UNL     1      24.603  -7.887  23.898  1.00  0.00    -0.206 OA
ENDBRANCH  22  24
ENDBRANCH   1  21
TORSDOF 4
ENDMDL
MODEL 7
REMARK VINA RESULT:    -6.975     14.134     16.469
REMARK INTER + INTRA:          -9.391
REMARK INTER:                  -8.578
REMARK INTRA:                  -0.813
REMARK UNBOUND:                -0.785
REMARK  4 active torsions:
REMARK  status: ('A' for Active; 'I' for Inactive)
REMARK    1  A    between atoms: S_2  and  N_5 
REMARK    2  A    between atoms: C_7  and  C_8 
REMARK    3  A    between atoms: C_15  and  C_16 
REMARK       I    between atoms: C_16  and  N_18 
REMARK    4  A    between atoms: N_18  and  C_20 
ROOT
HETATM    1  C   UNL     1      23.578  -2.765  23.669  1.00  0.00    -0.008 A 
HETATM    2  C   UNL     1      23.141  -1.541  23.625  1.00  0.00     0.058 A 
HETATM    3  C   UNL     1      21.822  -0.929  24.443  1.00  0.00    -0.003 C 
HETATM    4  C   UNL     1      21.733   0.069  24.844  1.00  0.00    -0.002 C 
HETATM    5  C   UNL     1      22.702   1.035  24.866  1.00  0.00    -0.001 C 
HETATM    6  C   UNL     1      23.947   0.641  24.361  1.00  0.00    -0.002 C 
HETATM    7  C   UNL     1      24.205  -0.315  23.964  1.00  0.00    -0.003 C 
HETATM    8  C   UNL     1      22.932  -1.647  22.452  1.00  0.00     0.040 A 
ENDROOT
BRANCH   8   9
HETATM    9  C   UNL     1      22.679  -1.619  21.125  1.00  0.00     0.254 C 
HETATM   10  O   UNL     1      21.595  -1.793  20.798  1.00  0.00    -0.268 OA
HETATM   11  N   UNL     1      23.789  -1.369  20.434  1.00  0.00    -0.321 N 
ATOM     12  HN  UNL     1      24.677  -1.259  20.923  1.00  0.00     0.169 HD
BRANCH  11  13
HETATM   13  C   UNL     1      23.748  -1.270  19.216  1.00  0.00     0.060 A 
HETATM   14  C   UNL     1      23.423  -0.423  18.291  1.00  0.00     0.117 A 
HETATM   15  N   UNL     1      23.234   0.017  17.136  1.00  0.00    -0.373 N 
HETATM   16  C   UNL     1      23.592  -1.096  16.615  1.00  0.00     0.088 A 
ATOM     17  HN  UNL     1      22.919   0.910  16.758  1.00  0.00     0.164 HD
HETATM   18  C   UNL     1      23.991  -2.176  17.063  1.00  0.00     0.030 A 
HETATM   19  C   UNL     1      24.204  -2.533  18.333  1.00  0.00    -0.016 A 
HETATM   20  C   UNL     1      24.549  -3.430  18.761  1.00  0.00     0.026 C 
ENDBRANCH  11  13
ENDBRANCH   8   9
BRANCH   1  21
HETATM   21  C   UNL     1      24.045  -3.746  24.229  1.00  0.00     0.109 C 
HETATM   22  N   UNL     1      24.385  -4.886  24.412  1.00  0.00    -0.295 N 
ATOM     23  HN  UNL     1      24.846  -5.376  23.644  1.00  0.00     0.177 HD
BRANCH  22  24
HETATM   24  S   UNL     1      24.157  -5.694  25.804  1.00  0.00     0.226 S 
HETATM   25  C   UNL     1      25.645  -5.534  26.651  1.00  0.00     0.186 C 
HETATM   26  O   UNL     1      23.150  -5.080  26.627  1.00  0.00    -0.206 OA
HETATM   27  O   UNL     1      23.928  -7.101  25.624  1.00  0.00    -0.206 OA
ENDBRANCH  22  24
ENDBRANCH   1  21
TORSDOF 4
ENDMDL
MODEL 8
REMARK VINA RESULT:    -6.810      1.890      2.142
REMARK INTER + INTRA:          -9.188
REMARK INTER:                  -8.387
REMARK INTRA:                  -0.801
REMARK UNBOUND:                -0.785
REMARK  4 active torsions:
REMARK  status: ('A' for Active; 'I' for Inactive)
REMARK    1  A    between atoms: S_2  and  N_5 
REMARK    2  A    between atoms: C_7  and  C_8 
REMARK    3  A    between atoms: C_15  and  C_16 
REMARK       I    between atoms: C_16  and  N_18 
REMARK    4  A    between atoms: N_18  and  C_20 
ROOT
HETATM    1  C   UNL     1       8.523  -0.483  22.901  1.00  0.00    -0.008 A 
HETATM    2  C   UNL     1       9.633  -0.940  23.402  1.00  0.00     0.058 A 
HETATM    3  C   UNL     1      11.005  -1.363  22.552  1.00  0.00    -0.003 C 
HETATM    4  C   UNL     1      12.022  -1.242  22.890  1.00  0.00    -0.002 C 
HETATM    5  C   UNL     1      12.437  -0.631  24.043  1.00  0.00    -0.001 C 
HETATM    6  C   UNL     1      11.417  -0.063  24.816  1.00  0.00    -0.002 C 
HETATM    7  C   UNL     1      10.372  -0.066  24.601  1.00  0.00    -0.003 C 
HETATM    8  C   UNL     1       9.056  -1.898  23.829  1.00  0.00     0.040 A 
ENDROOT
BRANCH   8   9
HETATM    9  C   UNL     1       8.528  -3.007  24.393  1.00  0.00     0.254 C 
HETATM   10  O   UNL     1       8.379  -3.915  23.713  1.00  0.00    -0.268 OA
HETATM   11  N   UNL     1       8.291  -2.815  25.689  1.00  0.00    -0.321 N 
ATOM     12  HN  UNL     1       8.483  -1.907  26.111  1.00  0.00     0.169 HD
BRANCH  11  13
HETATM   13  C   UNL     1       7.844  -3.723  26.375  1.00  0.00     0.060 A 
HETATM   14  C   UNL     1       8.165  -4.902  26.807  1.00  0.00     0.117 A 
HETATM   15  N   UNL     1       8.036  -5.992  27.403  1.00  0.00    -0.373 N 
HETATM   16  C   UNL     1       6.850  -5.688  27.778  1.00  0.00     0.088 A 
ATOM     17  HN  UNL     1       8.637  -6.805  27.539  1.00  0.00     0.164 HD
HETATM   18  C   UNL     1       6.121  -4.702  27.635  1.00  0.00     0.030 A 
HETATM   19  C   UNL     1       6.377  -3.550  27.007  1.00  0.00    -0.016 A 
HETATM   20  C   UNL     1       5.797  -2.684  26.867  1.00  0.00     0.026 C 
ENDBRANCH  11  13
ENDBRANCH   8   9
BRANCH   1  21
HETATM   21  C   UNL     1       7.845   0.332  22.293  1.00  0.00     0.109 C 
HETATM   22  N   UNL     1       7.564   1.292  21.625  1.00  0.00    -0.295 N 
ATOM     23  HN  UNL     1       8.140   1.488  20.805  1.00  0.00     0.177 HD
BRANCH  22  24
HETATM   24  S   UNL     1       6.326   2.297  21.943  1.00  0.00     0.226 S 
HETATM   25  C   UNL     1       7.060   3.836  22.170  1.00  0.00     0.186 C 
HETATM   26  O   UNL     1       5.435   2.430  20.821  1.00  0.00    -0.206 OA
HETATM   27  O   UNL     1       5.626   1.984  23.158  1.00  0.00    -0.206 OA
ENDBRANCH  22  24
ENDBRANCH   1  21
TORSDOF 4
ENDMDL
MODEL 9
REMARK VINA RESULT:    -6.633     25.858     28.541
REMARK INTER + INTRA:          -8.969
REMARK INTER:                  -8.169
REMARK INTRA:                  -0.800
REMARK UNBOUND:                -0.785
REMARK  4 active torsions:
REMARK  status: ('A' for Active; 'I' for Inactive)
REMARK    1  A    between atoms: S_2  and  N_5 
REMARK    2  A    between atoms: C_7  and  C_8 
REMARK    3  A    between atoms: C_15  and  C_16 
REMARK       I    between atoms: C_16  and  N_18 
REMARK    4  A    between atoms: N_18  and  C_20 
ROOT
HETATM    1  C   UNL     1       9.634  17.994   3.233  1.00  0.00    -0.008 A 
HETATM    2  C   UNL     1       8.943  18.066   2.134  1.00  0.00     0.058 A 
HETATM    3  C   UNL     1       7.431  18.748   1.955  1.00  0.00    -0.003 C 
HETATM    4  C   UNL     1       7.073  19.275   1.084  1.00  0.00    -0.002 C 
HETATM    5  C   UNL     1       7.792  19.595  -0.036  1.00  0.00    -0.001 C 
HETATM    6  C   UNL     1       9.146  19.240   0.004  1.00  0.00    -0.002 C 
HETATM    7  C   UNL     1       9.657  18.749   0.802  1.00  0.00    -0.003 C 
HETATM    8  C   UNL     1       8.908  16.872   2.066  1.00  0.00     0.040 A 
ENDROOT
BRANCH   8   9
HETATM    9  C   UNL     1       8.819  15.541   1.849  1.00  0.00     0.254 C 
HETATM   10  O   UNL     1       9.781  14.997   1.552  1.00  0.00    -0.268 OA
HETATM   11  N   UNL     1       7.576  15.108   2.049  1.00  0.00    -0.321 N 
ATOM     12  HN  UNL     1       6.842  15.771   2.299  1.00  0.00     0.169 HD
BRANCH  11  13
HETATM   13  C   UNL     1       7.310  13.920   1.935  1.00  0.00     0.060 A 
HETATM   14  C   UNL     1       7.008  13.046   1.027  1.00  0.00     0.117 A 
HETATM   15  N   UNL     1       6.694  11.936   0.546  1.00  0.00    -0.373 N 
HETATM   16  C   UNL     1       6.668  11.400   1.708  1.00  0.00     0.088 A 
ATOM     17  HN  UNL     1       6.525  11.593  -0.399  1.00  0.00     0.164 HD
HETATM   18  C   UNL     1       6.887  11.802   2.854  1.00  0.00     0.030 A 
HETATM   19  C   UNL     1       7.268  13.017   3.262  1.00  0.00    -0.016 A 
HETATM   20  C   UNL     1       7.475  13.402   4.218  1.00  0.00     0.026 C 
ENDBRANCH  11  13
ENDBRANCH   8   9
BRANCH   1  21
HETATM   21  C   UNL     1      10.236  18.466   4.186  1.00  0.00     0.109 C 
HETATM   22  N   UNL     1      10.613  19.271   4.996  1.00  0.00    -0.295 N 
ATOM     23  HN  UNL     1       9.920  19.899   5.404  1.00  0.00     0.177 HD
BRANCH  22  24
HETATM   24  S   UNL     1      12.158  19.424   5.482  1.00  0.00     0.226 S 
HETATM   25  C   UNL     1      12.508  21.099   5.303  1.00  0.00     0.186 C 
HETATM   26  O   UNL     1      12.317  19.120   6.879  1.00  0.00    -0.206 OA
HETATM   27  O   UNL     1      13.095  18.711   4.660  1.00  0.00    -0.206 OA
ENDBRANCH  22  24
ENDBRANCH   1  21
TORSDOF 4
ENDMDL
