REMARK  4 active torsions:
REMARK  status: ('A' for Active; 'I' for Inactive)
REMARK    1  A    between atoms: S_2  and  N_5 
REMARK    2  A    between atoms: C_7  and  C_8 
REMARK    3  A    between atoms: C_15  and  C_16 
REMARK       I    between atoms: C_16  and  N_18 
REMARK    4  A    between atoms: N_18  and  C_20 
ROOT
HETATM    1  C   UNL     1       9.399  -1.951  23.516  1.00  0.00    -0.008 A 
HETATM    2  C   UNL     1      10.363  -1.124  23.238  1.00  0.00     0.058 A 
HETATM    3  C   UNL     1      11.047  -0.012  24.277  1.00  0.00    -0.003 C 
HETATM    4  C   UNL     1      12.083   0.287  24.292  1.00  0.00    -0.002 C 
HETATM    5  C   UNL     1      13.100  -0.235  23.538  1.00  0.00    -0.001 C 
HETATM    6  C   UNL     1      12.739  -1.306  22.712  1.00  0.00    -0.002 C 
HETATM    7  C   UNL     1      11.769  -1.740  22.611  1.00  0.00    -0.003 C 
HETATM    8  C   UNL     1       9.686  -0.600  22.402  1.00  0.00     0.040 A 
ENDROOT
BRANCH   8   9
HETATM    9  C   UNL     1       9.046   0.059  21.411  1.00  0.00     0.254 C 
HETATM   10  O   UNL     1       9.562   0.989  20.987  1.00  0.00    -0.268 OA
HETATM   11  N   UNL     1       7.899  -0.542  21.103  1.00  0.00    -0.321 N 
ATOM     12  HN  UNL     1       7.604  -1.369  21.622  1.00  0.00     0.169 HD
BRANCH  11  13
HETATM   13  C   UNL     1       7.197  -0.107  20.201  1.00  0.00     0.060 A 
HETATM   14  C   UNL     1       7.193   0.025  18.912  1.00  0.00     0.117 A 
HETATM   15  N   UNL     1       6.776   0.362  17.783  1.00  0.00    -0.373 N 
HETATM   16  C   UNL     1       5.727   0.893  18.289  1.00  0.00     0.088 A 
ATOM     17  HN  UNL     1       7.131   0.256  16.833  1.00  0.00     0.164 HD
HETATM   18  C   UNL     1       5.280   1.011  19.434  1.00  0.00     0.030 A 
HETATM   19  C   UNL     1       5.791   0.567  20.587  1.00  0.00    -0.016 A 
HETATM   20  C   UNL     1       5.446   0.634  21.578  1.00  0.00     0.026 C 
ENDBRANCH  11  13
ENDBRANCH   8   9
BRANCH   1  21
HETATM   21  C   UNL     1       8.891  -2.885  24.119  1.00  0.00     0.109 C 
HETATM   22  N   UNL     1       8.047  -3.570  24.634  1.00  0.00    -0.295 N 
ATOM     23  HN  UNL     1       7.167  -3.700  24.134  1.00  0.00     0.177 HD
BRANCH  22  24
HETATM   24  S   UNL     1       8.219  -4.302  26.076  1.00  0.00     0.226 S 
HETATM   25  C   UNL     1       6.643  -4.869  26.468  1.00  0.00     0.186 C 
HETATM   26  O   UNL     1       9.063  -5.464  25.995  1.00  0.00    -0.206 OA
HETATM   27  O   UNL     1       8.618  -3.413  27.131  1.00  0.00    -0.206 OA
ENDBRANCH  22  24
ENDBRANCH   1  21
TORSDOF 4
