MODEL 1
REMARK VINA RESULT:    -4.917      0.000      0.000
REMARK INTER + INTRA:          -6.601
REMARK INTER:                  -6.354
REMARK INTRA:                  -0.247
REMARK UNBOUND:                -0.247
REMARK  5 active torsions:
REMARK  status: ('A' for Active; 'I' for Inactive)
REMARK    1  A    between atoms: C_4  and  C_5 
REMARK    2  A    between atoms: C_4  and  C_7 
REMARK    3  A    between atoms: O_9  and  C_13 
REMARK    4  A    between atoms: O_9  and  C_12 
REMARK    5  A    between atoms: N_10  and  C_12 
ROOT
HETATM    1  C   UNL     1       2.832 -19.742   9.197  1.00  0.00    -0.020 C 
HETATM    2  C   UNL     1       3.964 -18.955   9.285  1.00  0.00     0.025 C 
ENDROOT
BRANCH   1   3
HETATM    3  C   UNL     1       1.600 -19.179   9.486  1.00  0.00     0.100 C 
HETATM    4  N   UNL     1       1.501 -18.044  10.159  1.00  0.00    -0.356 N 
ATOM      5  HN  UNL     1       2.299 -17.763  10.730  1.00  0.00     0.166 HD
BRANCH   4   6
HETATM    6  C   UNL     1       0.481 -17.273  10.146  1.00  0.00     0.232 C 
BRANCH   6   7
HETATM    7  O   UNL     1      -0.079 -17.033  11.322  1.00  0.00    -0.319 OA
BRANCH   7   8
HETATM    8  C   UNL     1      -1.300 -16.404  11.187  1.00  0.00     0.133 C 
HETATM    9  C   UNL     1      -1.460 -15.530  10.221  1.00  0.00     0.038 C 
ENDBRANCH   7   8
ENDBRANCH   6   7
ENDBRANCH   4   6
ENDBRANCH   1   3
BRANCH   1  10
HETATM   10  C   UNL     1       2.862 -21.152   8.796  1.00  0.00    -0.025 C 
HETATM   11  C   UNL     1       2.374 -22.499   9.395  1.00  0.00     0.012 C 
HETATM   12  C   UNL     1       2.782 -23.542   8.600  1.00  0.00     0.001 C 
HETATM   13  C   UNL     1       3.403 -23.012   7.540  1.00  0.00     0.001 C 
HETATM   14  C   UNL     1       3.550 -21.569   7.788  1.00  0.00     0.012 C 
ENDBRANCH   1  10
TORSDOF 5
ENDMDL
MODEL 2
REMARK VINA RESULT:    -4.817     21.437     23.581
REMARK INTER + INTRA:          -6.471
REMARK INTER:                  -6.223
REMARK INTRA:                  -0.248
REMARK UNBOUND:                -0.247
REMARK  5 active torsions:
REMARK  status: ('A' for Active; 'I' for Inactive)
REMARK    1  A    between atoms: C_4  and  C_5 
REMARK    2  A    between atoms: C_4  and  C_7 
REMARK    3  A    between atoms: O_9  and  C_13 
REMARK    4  A    between atoms: O_9  and  C_12 
REMARK    5  A    between atoms: N_10  and  C_12 
ROOT
HETATM    1  C   UNL     1       9.719  -1.864  22.970  1.00  0.00    -0.020 C 
HETATM    2  C   UNL     1       9.032  -1.429  21.854  1.00  0.00     0.025 C 
ENDROOT
BRANCH   1   3
HETATM    3  C   UNL     1       9.183  -2.888  23.731  1.00  0.00     0.100 C 
HETATM    4  N   UNL     1       8.237  -3.680  23.253  1.00  0.00    -0.356 N 
ATOM      5  HN  UNL     1       7.689  -3.338  22.462  1.00  0.00     0.166 HD
BRANCH   4   6
HETATM    6  C   UNL     1       7.957  -4.843  23.707  1.00  0.00     0.232 C 
BRANCH   6   7
HETATM    7  O   UNL     1       6.806  -5.361  23.305  1.00  0.00    -0.319 OA
BRANCH   7   8
HETATM    8  C   UNL     1       6.938  -6.026  22.104  1.00  0.00     0.133 C 
HETATM    9  C   UNL     1       6.103  -5.750  21.130  1.00  0.00     0.038 C 
ENDBRANCH   7   8
ENDBRANCH   6   7
ENDBRANCH   4   6
ENDBRANCH   1   3
BRANCH   1  10
HETATM   10  C   UNL     1      11.006  -1.303  23.391  1.00  0.00    -0.025 C 
HETATM   11  C   UNL     1      12.505  -1.622  23.140  1.00  0.00     0.012 C 
HETATM   12  C   UNL     1      13.295  -0.797  23.902  1.00  0.00     0.001 C 
HETATM   13  C   UNL     1      12.482   0.048  24.546  1.00  0.00     0.001 C 
HETATM   14  C   UNL     1      11.100  -0.403  24.311  1.00  0.00     0.012 C 
ENDBRANCH   1  10
TORSDOF 5
ENDMDL
MODEL 3
REMARK VINA RESULT:    -4.654     22.755     24.609
REMARK INTER + INTRA:          -6.261
REMARK INTER:                  -5.946
REMARK INTRA:                  -0.315
REMARK UNBOUND:                -0.247
REMARK  5 active torsions:
REMARK  status: ('A' for Active; 'I' for Inactive)
REMARK    1  A    between atoms: C_4  and  C_5 
REMARK    2  A    between atoms: C_4  and  C_7 
REMARK    3  A    between atoms: O_9  and  C_13 
REMARK    4  A    between atoms: O_9  and  C_12 
REMARK    5  A    between atoms: N_10  and  C_12 
ROOT
HETATM    1  C   UNL     1       8.226   0.808  21.258  1.00  0.00    -0.020 C 
HETATM    2  C   UNL     1       8.612   1.937  21.955  1.00  0.00     0.025 C 
ENDROOT
BRANCH   1   3
HETATM    3  C   UNL     1       8.866  -0.392  21.517  1.00  0.00     0.100 C 
HETATM    4  N   UNL     1      10.169  -0.444  21.740  1.00  0.00    -0.356 N 
ATOM      5  HN  UNL     1      10.737   0.336  21.407  1.00  0.00     0.166 HD
BRANCH   4   6
HETATM    6  C   UNL     1      10.770  -1.399  22.342  1.00  0.00     0.232 C 
BRANCH   6   7
HETATM    7  O   UNL     1      11.006  -1.216  23.632  1.00  0.00    -0.319 OA
BRANCH   7   8
HETATM    8  C   UNL     1      11.832  -0.133  23.851  1.00  0.00     0.133 C 
HETATM    9  C   UNL     1      13.057  -0.342  24.270  1.00  0.00     0.038 C 
ENDBRANCH   7   8
ENDBRANCH   6   7
ENDBRANCH   4   6
ENDBRANCH   1   3
BRANCH   1  10
HETATM   10  C   UNL     1       7.154   0.809  20.259  1.00  0.00    -0.025 C 
HETATM   11  C   UNL     1       5.707   1.366  20.165  1.00  0.00     0.012 C 
HETATM   12  C   UNL     1       5.122   0.959  18.991  1.00  0.00     0.001 C 
HETATM   13  C   UNL     1       6.045   0.276  18.304  1.00  0.00     0.001 C 
HETATM   14  C   UNL     1       7.208   0.092  19.187  1.00  0.00     0.012 C 
ENDBRANCH   1  10
TORSDOF 5
ENDMDL
MODEL 4
REMARK VINA RESULT:    -4.633     24.856     27.381
REMARK INTER + INTRA:          -6.234
REMARK INTER:                  -5.967
REMARK INTRA:                  -0.267
REMARK UNBOUND:                -0.247
REMARK  5 active torsions:
REMARK  status: ('A' for Active; 'I' for Inactive)
REMARK    1  A    between atoms: C_4  and  C_5 
REMARK    2  A    between atoms: C_4  and  C_7 
REMARK    3  A    between atoms: O_9  and  C_13 
REMARK    4  A    between atoms: O_9  and  C_12 
REMARK    5  A    between atoms: N_10  and  C_12 
ROOT
HETATM    1  C   UNL     1      10.965   2.252  23.309  1.00  0.00    -0.020 C 
HETATM    2  C   UNL     1      11.622   1.276  24.032  1.00  0.00     0.025 C 
ENDROOT
BRANCH   1   3
HETATM    3  C   UNL     1      10.218   1.880  22.204  1.00  0.00     0.100 C 
HETATM    4  N   UNL     1      10.084   0.610  21.858  1.00  0.00    -0.356 N 
ATOM      5  HN  UNL     1      10.781  -0.050  22.205  1.00  0.00     0.166 HD
BRANCH   4   6
HETATM    6  C   UNL     1       9.147   0.148  21.120  1.00  0.00     0.232 C 
BRANCH   6   7
HETATM    7  O   UNL     1       8.276   1.036  20.664  1.00  0.00    -0.319 OA
BRANCH   7   8
HETATM    8  C   UNL     1       7.177   0.425  20.096  1.00  0.00     0.133 C 
HETATM    9  C   UNL     1       7.183   0.180  18.807  1.00  0.00     0.038 C 
ENDBRANCH   7   8
ENDBRANCH   6   7
ENDBRANCH   4   6
ENDBRANCH   1   3
BRANCH   1  10
HETATM   10  C   UNL     1      11.005   3.675  23.659  1.00  0.00    -0.025 C 
HETATM   11  C   UNL     1       9.962   4.791  23.941  1.00  0.00     0.012 C 
HETATM   12  C   UNL     1      10.598   5.995  24.120  1.00  0.00     0.001 C 
HETATM   13  C   UNL     1      11.914   5.761  24.056  1.00  0.00     0.001 C 
HETATM   14  C   UNL     1      12.095   4.364  23.628  1.00  0.00     0.012 C 
ENDBRANCH   1  10
TORSDOF 5
ENDMDL
MODEL 5
REMARK VINA RESULT:    -4.631     19.453     22.367
REMARK INTER + INTRA:          -6.232
REMARK INTER:                  -5.840
REMARK INTRA:                  -0.392
REMARK UNBOUND:                -0.247
REMARK  5 active torsions:
REMARK  status: ('A' for Active; 'I' for Inactive)
REMARK    1  A    between atoms: C_4  and  C_5 
REMARK    2  A    between atoms: C_4  and  C_7 
REMARK    3  A    between atoms: O_9  and  C_13 
REMARK    4  A    between atoms: O_9  and  C_12 
REMARK    5  A    between atoms: N_10  and  C_12 
ROOT
HETATM    1  C   UNL     1       7.318  -0.413  21.388  1.00  0.00    -0.020 C 
HETATM    2  C   UNL     1       8.200   0.403  22.070  1.00  0.00     0.025 C 
ENDROOT
BRANCH   1   3
HETATM    3  C   UNL     1       7.127  -1.711  21.829  1.00  0.00     0.100 C 
HETATM    4  N   UNL     1       5.924  -2.160  22.149  1.00  0.00    -0.356 N 
ATOM      5  HN  UNL     1       5.208  -1.470  22.377  1.00  0.00     0.166 HD
BRANCH   4   6
HETATM    6  C   UNL     1       5.593  -3.395  22.196  1.00  0.00     0.232 C 
BRANCH   6   7
HETATM    7  O   UNL     1       5.685  -4.064  21.056  1.00  0.00    -0.319 OA
BRANCH   7   8
HETATM    8  C   UNL     1       5.986  -5.393  21.268  1.00  0.00     0.133 C 
HETATM    9  C   UNL     1       7.118  -5.703  21.853  1.00  0.00     0.038 C 
ENDBRANCH   7   8
ENDBRANCH   6   7
ENDBRANCH   4   6
ENDBRANCH   1   3
BRANCH   1  10
HETATM   10  C   UNL     1       6.554   0.031  20.218  1.00  0.00    -0.025 C 
HETATM   11  C   UNL     1       6.359  -0.454  18.756  1.00  0.00     0.012 C 
HETATM   12  C   UNL     1       5.584   0.443  18.062  1.00  0.00     0.001 C 
HETATM   13  C   UNL     1       5.210   1.394  18.926  1.00  0.00     0.001 C 
HETATM   14  C   UNL     1       5.949   1.169  20.179  1.00  0.00     0.012 C 
ENDBRANCH   1  10
TORSDOF 5
ENDMDL
MODEL 6
REMARK VINA RESULT:    -4.568     22.589     24.500
REMARK INTER + INTRA:          -6.150
REMARK INTER:                  -5.859
REMARK INTRA:                  -0.291
REMARK UNBOUND:                -0.247
REMARK  5 active torsions:
REMARK  status: ('A' for Active; 'I' for Inactive)
REMARK    1  A    between atoms: C_4  and  C_5 
REMARK    2  A    between atoms: C_4  and  C_7 
REMARK    3  A    between atoms: O_9  and  C_13 
REMARK    4  A    between atoms: O_9  and  C_12 
REMARK    5  A    between atoms: N_10  and  C_12 
ROOT
HETATM    1  C   UNL     1       9.615  -1.711  23.002  1.00  0.00    -0.020 C 
HETATM    2  C   UNL     1       8.935  -2.779  23.553  1.00  0.00     0.025 C 
ENDROOT
BRANCH   1   3
HETATM    3  C   UNL     1       9.051  -1.037  21.932  1.00  0.00     0.100 C 
HETATM    4  N   UNL     1       8.511   0.162  22.078  1.00  0.00    -0.356 N 
ATOM      5  HN  UNL     1       8.227   0.440  23.018  1.00  0.00     0.166 HD
BRANCH   4   6
HETATM    6  C   UNL     1       8.319   0.999  21.130  1.00  0.00     0.232 C 
BRANCH   6   7
HETATM    7  O   UNL     1       8.071   0.478  19.938  1.00  0.00    -0.319 OA
BRANCH   7   8
HETATM    8  C   UNL     1       6.739   0.590  19.600  1.00  0.00     0.133 C 
HETATM    9  C   UNL     1       6.329   0.091  18.458  1.00  0.00     0.038 C 
ENDBRANCH   7   8
ENDBRANCH   6   7
ENDBRANCH   4   6
ENDBRANCH   1   3
BRANCH   1  10
HETATM   10  C   UNL     1      10.908  -1.236  23.503  1.00  0.00    -0.025 C 
HETATM   11  C   UNL     1      11.395  -0.157  24.508  1.00  0.00     0.012 C 
HETATM   12  C   UNL     1      12.766  -0.089  24.497  1.00  0.00     0.001 C 
HETATM   13  C   UNL     1      13.204  -1.040  23.664  1.00  0.00     0.001 C 
HETATM   14  C   UNL     1      12.029  -1.603  22.980  1.00  0.00     0.012 C 
ENDBRANCH   1  10
TORSDOF 5
ENDMDL
MODEL 7
REMARK VINA RESULT:    -4.500     22.401     24.019
REMARK INTER + INTRA:          -6.061
REMARK INTER:                  -5.748
REMARK INTRA:                  -0.314
REMARK UNBOUND:                -0.247
REMARK  5 active torsions:
REMARK  status: ('A' for Active; 'I' for Inactive)
REMARK    1  A    between atoms: C_4  and  C_5 
REMARK    2  A    between atoms: C_4  and  C_7 
REMARK    3  A    between atoms: O_9  and  C_13 
REMARK    4  A    between atoms: O_9  and  C_12 
REMARK    5  A    between atoms: N_10  and  C_12 
ROOT
HETATM    1  C   UNL     1       8.313  -3.247  23.823  1.00  0.00    -0.020 C 
HETATM    2  C   UNL     1       7.616  -3.255  22.630  1.00  0.00     0.025 C 
ENDROOT
BRANCH   1   3
HETATM    3  C   UNL     1       9.420  -2.425  23.947  1.00  0.00     0.100 C 
HETATM    4  N   UNL     1      10.225  -2.193  22.924  1.00  0.00    -0.356 N 
ATOM      5  HN  UNL     1      10.214  -2.861  22.153  1.00  0.00     0.166 HD
BRANCH   4   6
HETATM    6  C   UNL     1      11.017  -1.193  22.828  1.00  0.00     0.232 C 
BRANCH   6   7
HETATM    7  O   UNL     1      12.276  -1.414  23.177  1.00  0.00    -0.319 OA
BRANCH   7   8
HETATM    8  C   UNL     1      12.725  -0.477  24.085  1.00  0.00     0.133 C 
HETATM    9  C   UNL     1      12.080   0.660  24.196  1.00  0.00     0.038 C 
ENDBRANCH   7   8
ENDBRANCH   6   7
ENDBRANCH   4   6
ENDBRANCH   1   3
BRANCH   1  10
HETATM   10  C   UNL     1       7.933  -4.061  24.982  1.00  0.00    -0.025 C 
HETATM   11  C   UNL     1       8.547  -4.395  26.368  1.00  0.00     0.012 C 
HETATM   12  C   UNL     1       7.771  -5.325  27.015  1.00  0.00     0.001 C 
HETATM   13  C   UNL     1       6.708  -5.563  26.237  1.00  0.00     0.001 C 
HETATM   14  C   UNL     1       6.937  -4.880  24.954  1.00  0.00     0.012 C 
ENDBRANCH   1  10
TORSDOF 5
ENDMDL
MODEL 8
REMARK VINA RESULT:    -4.451     21.898     24.014
REMARK INTER + INTRA:          -5.998
REMARK INTER:                  -5.751
REMARK INTRA:                  -0.247
REMARK UNBOUND:                -0.247
REMARK  5 active torsions:
REMARK  status: ('A' for Active; 'I' for Inactive)
REMARK    1  A    between atoms: C_4  and  C_5 
REMARK    2  A    between atoms: C_4  and  C_7 
REMARK    3  A    between atoms: O_9  and  C_13 
REMARK    4  A    between atoms: O_9  and  C_12 
REMARK    5  A    between atoms: N_10  and  C_12 
ROOT
HETATM    1  C   UNL     1       9.646  -1.872  23.007  1.00  0.00    -0.020 C 
HETATM    2  C   UNL     1       9.075  -1.476  21.814  1.00  0.00     0.025 C 
ENDROOT
BRANCH   1   3
HETATM    3  C   UNL     1       9.027  -2.862  23.751  1.00  0.00     0.100 C 
HETATM    4  N   UNL     1       8.191  -3.723  23.193  1.00  0.00    -0.356 N 
ATOM      5  HN  UNL     1       7.765  -3.459  22.304  1.00  0.00     0.166 HD
BRANCH   4   6
HETATM    6  C   UNL     1       7.877  -4.861  23.685  1.00  0.00     0.232 C 
BRANCH   6   7
HETATM    7  O   UNL     1       7.580  -4.874  24.976  1.00  0.00    -0.319 OA
BRANCH   7   8
HETATM    8  C   UNL     1       6.335  -5.423  25.206  1.00  0.00     0.133 C 
HETATM    9  C   UNL     1       6.038  -5.839  26.414  1.00  0.00     0.038 C 
ENDBRANCH   7   8
ENDBRANCH   6   7
ENDBRANCH   4   6
ENDBRANCH   1   3
BRANCH   1  10
HETATM   10  C   UNL     1      10.893  -1.306  23.529  1.00  0.00    -0.025 C 
HETATM   11  C   UNL     1      11.285  -0.203  24.550  1.00  0.00     0.012 C 
HETATM   12  C   UNL     1      12.647  -0.031  24.557  1.00  0.00     0.001 C 
HETATM   13  C   UNL     1      13.166  -0.938  23.721  1.00  0.00     0.001 C 
HETATM   14  C   UNL     1      12.045  -1.582  23.017  1.00  0.00     0.012 C 
ENDBRANCH   1  10
TORSDOF 5
ENDMDL
MODEL 9
REMARK VINA RESULT:    -4.436     23.109     25.291
REMARK INTER + INTRA:          -5.979
REMARK INTER:                  -5.724
REMARK INTRA:                  -0.255
REMARK UNBOUND:                -0.247
REMARK  5 active torsions:
REMARK  status: ('A' for Active; 'I' for Inactive)
REMARK    1  A    between atoms: C_4  and  C_5 
REMARK    2  A    between atoms: C_4  and  C_7 
REMARK    3  A    between atoms: O_9  and  C_13 
REMARK    4  A    between atoms: O_9  and  C_12 
REMARK    5  A    between atoms: N_10  and  C_12 
ROOT
HETATM    1  C   UNL     1      10.002   1.669  23.094  1.00  0.00    -0.020 C 
HETATM    2  C   UNL     1       9.723   2.666  24.008  1.00  0.00     0.025 C 
ENDROOT
BRANCH   1   3
HETATM    3  C   UNL     1       9.270   1.611  21.920  1.00  0.00     0.100 C 
HETATM    4  N   UNL     1       8.253   0.776  21.782  1.00  0.00    -0.356 N 
ATOM      5  HN  UNL     1       8.217  -0.031  22.406  1.00  0.00     0.166 HD
BRANCH   4   6
HETATM    6  C   UNL     1       7.312   0.904  20.925  1.00  0.00     0.232 C 
BRANCH   6   7
HETATM    7  O   UNL     1       7.630   0.632  19.668  1.00  0.00    -0.319 OA
BRANCH   7   8
HETATM    8  C   UNL     1       6.528   0.685  18.841  1.00  0.00     0.133 C 
HETATM    9  C   UNL     1       6.026  -0.435  18.379  1.00  0.00     0.038 C 
ENDBRANCH   7   8
ENDBRANCH   6   7
ENDBRANCH   4   6
ENDBRANCH   1   3
BRANCH   1  10
HETATM   10  C   UNL     1      11.052   0.666  23.294  1.00  0.00    -0.025 C 
HETATM   11  C   UNL     1      11.328  -0.783  22.806  1.00  0.00     0.012 C 
HETATM   12  C   UNL     1      12.450  -1.280  23.421  1.00  0.00     0.001 C 
HETATM   13  C   UNL     1      12.953  -0.300  24.181  1.00  0.00     0.001 C 
HETATM   14  C   UNL     1      11.981   0.805  24.178  1.00  0.00     0.012 C 
ENDBRANCH   1  10
TORSDOF 5
ENDMDL
