REMARK  5 active torsions:
REMARK  status: ('A' for Active; 'I' for Inactive)
REMARK    1  A    between atoms: C_4  and  C_5 
REMARK    2  A    between atoms: C_4  and  C_7 
REMARK    3  A    between atoms: O_9  and  C_13 
REMARK    4  A    between atoms: O_9  and  C_12 
REMARK    5  A    between atoms: N_10  and  C_12 
ROOT
HETATM    1  C   UNL     1      10.386  -1.077  23.006  1.00  0.00    -0.020 C 
HETATM    2  C   UNL     1      11.695  -0.654  23.129  1.00  0.00     0.025 C 
ENDROOT
BRANCH   1   3
HETATM    3  C   UNL     1       9.627  -0.611  21.946  1.00  0.00     0.100 C 
HETATM    4  N   UNL     1       8.305  -0.600  21.997  1.00  0.00    -0.356 N 
ATOM      5  HN  UNL     1       7.853  -1.221  22.669  1.00  0.00     0.166 HD
BRANCH   4   6
HETATM    6  C   UNL     1       7.551   0.131  21.267  1.00  0.00     0.232 C 
BRANCH   6   7
HETATM    7  O   UNL     1       8.011   0.413  20.057  1.00  0.00    -0.319 OA
BRANCH   7   8
HETATM    8  C   UNL     1       7.032   0.276  19.095  1.00  0.00     0.133 C 
HETATM    9  C   UNL     1       5.783   0.508  19.422  1.00  0.00     0.038 C 
ENDBRANCH   7   8
ENDBRANCH   6   7
ENDBRANCH   4   6
ENDBRANCH   1   3
BRANCH   1  10
HETATM   10  C   UNL     1       9.753  -2.014  23.939  1.00  0.00    -0.025 C 
HETATM   11  C   UNL     1       8.422  -2.812  23.998  1.00  0.00     0.012 C 
HETATM   12  C   UNL     1       8.320  -3.468  25.200  1.00  0.00     0.001 C 
HETATM   13  C   UNL     1       9.453  -3.239  25.874  1.00  0.00     0.001 C 
HETATM   14  C   UNL     1      10.219  -2.232  25.122  1.00  0.00     0.012 C 
ENDBRANCH   1  10
TORSDOF 5
