stable:False satoms:20 tatoms:24 sratio:0.8333333333333334
  -OEChem-07092417343D

 24 24  0     1  0  0  0  0  0999 V2000
    7.4657   -4.0892   25.5544 H   0  0  0  0  0  0  0  0  0  0  0  0
    8.3198   -3.4682   25.2003 C   0  0  0  0  0  0  0  0  0  0  0  0
    9.7824   -3.7786   26.7447 H   0  0  0  0  0  0  0  0  0  0  0  0
    9.4526   -3.2391   25.8739 C   0  0  0  0  0  0  0  0  0  0  0  0
    7.6683   -2.8298   23.2392 H   0  0  0  0  0  0  0  0  0  0  0  0
    8.4225   -2.8124   23.9978 C   0  5  3  0  0  0  0  0  0  0  0  0
   10.3860   -1.0768   23.0065 C   0  0  3  0  0  0  0  0  0  0  0  0
    9.6271   -0.6113   21.9456 C   0  3  0  0  0  0  0  0  0  0  0  0
   11.0487   -1.6941   25.5781 H   0  0  0  0  0  0  0  0  0  0  0  0
   11.6952   -0.6543   23.1291 C   0  5  0  0  0  0  0  0  0  0  0  0
   12.3299   -0.8186   23.9574 H   0  0  0  0  0  0  0  0  0  0  0  0
   12.1610   -0.1812   22.2922 H   0  0  0  0  0  0  0  0  0  0  0  0
    9.7530   -2.0137   23.9394 C   0  0  0  0  0  0  0  0  0  0  0  0
   10.2191   -2.2317   25.1221 C   0  0  0  0  0  0  0  0  0  0  0  0
   10.0859   -0.2926   21.0289 H   0  0  0  0  0  0  0  0  0  0  0  0
    8.0108    0.4131   20.0571 O   0  0  0  0  0  0  0  0  0  0  0  0
    8.3049   -0.5995   21.9970 N   0  3  0  0  0  0  0  0  0  0  0  0
    7.5512    0.1311   21.2666 C   0  3  0  0  0  0  0  0  0  0  0  0
    7.0323    0.2760   19.0947 C   0  0  0  0  0  0  0  0  0  0  0  0
    7.3661    0.0299   18.1231 H   0  0  0  0  0  0  0  0  0  0  0  0
    5.1784   -0.2493   19.8418 H   0  0  0  0  0  0  0  0  0  0  0  0
    5.2813    1.4114   19.1797 H   0  0  0  0  0  0  0  0  0  0  0  0
    5.7829    0.5082   19.4215 C   0  0  0  0  0  0  0  0  0  0  0  0
    6.6586    0.5804   21.7057 H   0  0  0  0  0  0  0  0  0  0  0  0
 19 20  1  0  0  0  0
 19 23  2  0  0  0  0
 16 19  1  0  0  0  0
 22 23  1  0  0  0  0
 21 23  1  0  0  0  0
 16 18  1  0  0  0  0
  8 15  1  0  0  0  0
 18 24  1  0  0  0  0
 17 18  1  0  0  0  0
  8 17  1  0  0  0  0
  7  8  1  0  0  0  0
 10 12  1  0  0  0  0
  7 10  1  0  0  0  0
  7 13  1  0  0  0  0
 10 11  1  0  0  0  0
  5  6  1  0  0  0  0
  6 13  1  0  0  0  0
 13 14  2  0  0  0  0
  2  6  1  0  0  0  0
  9 14  1  0  0  0  0
  4 14  1  0  0  0  0
  1  2  1  0  0  0  0
  2  4  2  0  0  0  0
  3  4  1  0  0  0  0
M  CHG  5   6  -1   8   1  10  -1  17   1  18   1
M  END
> <Shapegauss>
-143.677719

$$$$
