stable:False satoms:9 tatoms:24 sratio:0.375
  -OEChem-07092417413D

 24 27  0     1  0  0  0  0  0999 V2000
    6.5842   -4.8143   26.6018 Cl  0  0  0  0  0  0  0  0  0  0  0  0
    8.3072   -4.2958   26.1185 S   0  0  0  0  0  0  0  0  0  0  0  0
    9.0568   -5.4985   25.9657 O   0  0  0  0  0  0  0  0  0  0  0  0
    8.7588   -3.3917   27.1258 O   0  0  0  0  0  0  0  0  0  0  0  0
    8.1374   -3.5637   24.6547 N   0  0  0  0  0  0  0  0  0  0  0  0
    8.8533   -2.8127   24.1320 C   0  0  0  0  0  0  0  0  0  0  0  0
    9.4235   -1.8414   23.4644 C   0  0  0  0  0  0  0  0  0  0  0  0
   10.5737   -1.0793   23.2429 C   0  0  1  0  0  0  0  0  0  0  0  0
   11.3159   -0.2482   24.1851 C   0  0  0  0  0  0  0  0  0  0  0  0
   12.2933    0.2114   24.3275 N   0  0  0  0  0  0  0  0  0  0  0  0
   13.0558   -0.3121   23.5191 C   0  0  0  0  0  0  0  0  0  0  0  0
   12.9274   -1.2236   22.7406 C   0  0  0  0  0  0  0  0  0  0  0  0
   11.8977   -1.5002   22.7236 C   0  0  0  0  0  0  0  0  0  0  0  0
    9.6025   -0.8188   22.5757 C   0  0  3  0  0  0  0  0  0  0  0  0
    8.9686   -0.0032   21.3765 C   0  0  0  0  0  0  0  0  0  0  0  0
    9.5716    0.9284   20.9538 O   0  0  0  0  0  0  0  0  0  0  0  0
    7.8783   -0.5701   21.0720 N   0  0  0  0  0  0  0  0  0  0  0  0
    7.0698   -0.0103   20.1555 C   0  0  0  0  0  0  0  0  0  0  0  0
    6.9681    0.1189   18.8653 C   0  0  0  0  0  0  0  0  0  0  0  0
    6.5343    0.3373   17.7521 N   0  0  0  0  0  0  0  0  0  0  0  0
    5.6208    0.7832   18.4158 C   0  0  1  0  0  0  0  0  0  0  0  0
    5.0107    1.0679   19.4720 N   0  0  0  0  0  0  0  0  0  0  0  0
    5.7574    0.6065   20.4120 C   0  0  0  0  0  0  0  0  0  0  0  0
    5.4170    0.6403   21.4446 H   0  0  0  0  0  0  0  0  0  0  0  0
 20 21  1  0  0  0  0
 19 20  2  0  0  0  0
 19 21  1  0  0  0  0
 21 22  1  0  0  0  0
 18 19  1  0  0  0  0
 22 23  1  0  0  0  0
 18 23  2  0  0  0  0
 17 18  1  0  0  0  0
 23 24  1  0  0  0  0
 15 16  2  0  0  0  0
 15 17  1  0  0  0  0
 14 15  1  0  0  0  0
  8 14  1  0  0  0  0
  7 14  1  0  0  0  0
 12 13  1  0  0  0  0
  8 13  1  0  0  0  0
 11 12  2  0  0  0  0
  7  8  1  0  0  0  0
  8  9  1  0  0  0  0
  6  7  2  0  0  0  0
 10 11  1  0  0  0  0
  5  6  1  0  0  0  0
  9 10  2  0  0  0  0
  2  5  1  0  0  0  0
  2  3  2  0  0  0  0
  1  2  1  0  0  0  0
  2  4  2  0  0  0  0
M  END
> <Shapegauss>
-285.367218

$$$$
