stable:False satoms:9 tatoms:24 sratio:0.375
  -OEChem-08062411323D

 36 39  0     1  0  0  0  0  0999 V2000
    6.2021   -4.9622   26.2008 Cl  0  0  0  0  0  0  0  0  0  0  0  0
    7.9748   -4.4471   25.9488 S   0  0  0  0  0  0  0  0  0  0  0  0
    8.7233   -5.6520   25.8080 O   0  0  0  0  0  0  0  0  0  0  0  0
    8.3186   -3.6135   27.0547 O   0  0  0  0  0  0  0  0  0  0  0  0
    7.9816   -3.6255   24.5232 N   0  0  0  0  0  0  0  0  0  0  0  0
    8.7609   -2.8576   24.1324 C   0  0  0  0  0  0  0  0  0  0  0  0
    9.4146   -1.8586   23.5949 C   0  0  0  0  0  0  0  0  0  0  0  0
   10.5911   -1.1057   23.5527 C   0  0  1  0  0  0  0  0  0  0  0  0
   11.2302   -0.3464   24.6224 C   0  0  0  0  0  0  0  0  0  0  0  0
   12.1900    0.0859   24.9027 N   0  0  0  0  0  0  0  0  0  0  0  0
   13.0339   -0.4019   24.1552 C   0  0  0  0  0  0  0  0  0  0  0  0
   12.9850   -1.2625   23.3124 C   0  0  0  0  0  0  0  0  0  0  0  0
   11.9609   -1.5188   23.1617 C   0  0  0  0  0  0  0  0  0  0  0  0
    9.7055   -0.7879   22.7971 C   0  0  3  0  0  0  0  0  0  0  0  0
    9.2220    0.1097   21.5864 C   0  0  0  0  0  0  0  0  0  0  0  0
    9.8798    1.0538   21.2931 O   0  0  0  0  0  0  0  0  0  0  0  0
    8.1672   -0.4179   21.1259 N   0  0  0  0  0  0  0  0  0  0  0  0
    7.4751    0.2106   20.1600 C   0  0  0  0  0  0  0  0  0  0  0  0
    7.5229    0.4188   18.8770 C   0  0  0  0  0  0  0  0  0  0  0  0
    7.2216    0.7116   17.7375 N   0  0  0  0  0  0  0  0  0  0  0  0
    6.2434    1.1334   18.3196 C   0  0  1  0  0  0  0  0  0  0  0  0
    5.5199    1.3653   19.3154 N   0  3  0  0  0  0  0  0  0  0  0  0
    6.1490    0.8347   20.3037 C   0  0  0  0  0  0  0  0  0  0  0  0
    5.6933    0.8127   21.2912 H   0  0  0  0  0  0  0  0  0  0  0  0
    7.1146   -3.1271   24.5175 H   0  0  0  0  0  0  0  0  0  0  0  0
    9.6310   -3.3756   24.5079 H   0  0  0  0  0  0  0  0  0  0  0  0
   10.5070   -0.1447   25.3988 H   0  0  0  0  0  0  0  0  0  0  0  0
   14.0178    0.0264   24.2776 H   0  0  0  0  0  0  0  0  0  0  0  0
   13.8301   -1.6977   22.7998 H   0  0  0  0  0  0  0  0  0  0  0  0
   11.8908   -1.4650   22.0653 H   0  0  0  0  0  0  0  0  0  0  0  0
   11.9601   -2.5723   23.4780 H   0  0  0  0  0  0  0  0  0  0  0  0
    9.2811   -0.0837   23.5278 H   0  0  0  0  0  0  0  0  0  0  0  0
    7.8505   -1.2982   21.4791 H   0  0  0  0  0  0  0  0  0  0  0  0
    6.7321    2.1113   18.4416 H   0  0  0  0  0  0  0  0  0  0  0  0
    5.4130    2.3500   19.4527 H   0  0  0  0  0  0  0  0  0  0  0  0
    4.6195    0.9447   19.2034 H   0  0  0  0  0  0  0  0  0  0  0  0
 20 21  1  0  0  0  0
 19 20  2  0  0  0  0
 19 21  1  0  0  0  0
 21 22  1  0  0  0  0
 18 19  1  0  0  0  0
 22 23  1  0  0  0  0
 18 23  2  0  0  0  0
 17 18  1  0  0  0  0
 23 24  1  0  0  0  0
 15 16  2  0  0  0  0
 15 17  1  0  0  0  0
 14 15  1  0  0  0  0
  8 14  1  0  0  0  0
  7 14  1  0  0  0  0
 12 13  1  0  0  0  0
  8 13  1  0  0  0  0
 11 12  2  0  0  0  0
  7  8  1  0  0  0  0
  8  9  1  0  0  0  0
  6  7  2  0  0  0  0
 10 11  1  0  0  0  0
  5  6  1  0  0  0  0
  9 10  2  0  0  0  0
  2  5  1  0  0  0  0
  2  3  2  0  0  0  0
  1  2  1  0  0  0  0
  2  4  2  0  0  0  0
  5 25  1  0  0  0  0
  6 26  1  0  0  0  0
  9 27  1  0  0  0  0
 11 28  1  0  0  0  0
 12 29  1  0  0  0  0
 13 30  1  0  0  0  0
 13 31  1  0  0  0  0
 14 32  1  0  0  0  0
 17 33  1  0  0  0  0
 21 34  1  0  0  0  0
 22 35  1  0  0  0  0
 22 36  1  0  0  0  0
M  CHG  1  22   1
M  END
> <Chemgauss4>
-10.933518

$$$$
