stable:False satoms:9 tatoms:24 sratio:0.375
  -OEChem-08062411323D

 36 39  0     1  0  0  0  0  0999 V2000
   -6.0062   -4.9140  -26.1273 Cl  0  0  0  0  0  0  0  0  0  0  0  0
   -7.7789   -4.3989  -25.8752 S   0  0  0  0  0  0  0  0  0  0  0  0
   -8.5274   -5.6038  -25.7344 O   0  0  0  0  0  0  0  0  0  0  0  0
   -8.1226   -3.5653  -26.9811 O   0  0  0  0  0  0  0  0  0  0  0  0
   -7.7857   -3.5773  -24.4496 N   0  0  0  0  0  0  0  0  0  0  0  0
   -8.5650   -2.8095  -24.0588 C   0  0  0  0  0  0  0  0  0  0  0  0
   -9.2187   -1.8104  -23.5213 C   0  0  0  0  0  0  0  0  0  0  0  0
  -10.3952   -1.0575  -23.4791 C   0  0  1  0  0  0  0  0  0  0  0  0
  -11.0343   -0.2982  -24.5488 C   0  0  0  0  0  0  0  0  0  0  0  0
  -11.9941    0.1341  -24.8292 N   0  0  0  0  0  0  0  0  0  0  0  0
  -12.8380   -0.3537  -24.0816 C   0  0  0  0  0  0  0  0  0  0  0  0
  -12.7891   -1.2143  -23.2388 C   0  0  0  0  0  0  0  0  0  0  0  0
  -11.7650   -1.4706  -23.0882 C   0  0  0  0  0  0  0  0  0  0  0  0
   -9.5096   -0.7397  -22.7235 C   0  0  3  0  0  0  0  0  0  0  0  0
   -9.0261    0.1578  -21.5128 C   0  0  0  0  0  0  0  0  0  0  0  0
   -9.6839    1.1020  -21.2195 O   0  0  0  0  0  0  0  0  0  0  0  0
   -7.9713   -0.3697  -21.0523 N   0  0  0  0  0  0  0  0  0  0  0  0
   -7.2792    0.2587  -20.0864 C   0  0  0  0  0  0  0  0  0  0  0  0
   -7.3270    0.4670  -18.8035 C   0  0  0  0  0  0  0  0  0  0  0  0
   -7.0257    0.7597  -17.6639 N   0  0  0  0  0  0  0  0  0  0  0  0
   -6.0474    1.1816  -18.2461 C   0  0  1  0  0  0  0  0  0  0  0  0
   -5.3240    1.4135  -19.2419 N   0  3  0  0  0  0  0  0  0  0  0  0
   -5.9531    0.8829  -20.2302 C   0  0  0  0  0  0  0  0  0  0  0  0
   -5.4974    0.8608  -21.2176 H   0  0  0  0  0  0  0  0  0  0  0  0
   -6.9187   -3.0789  -24.4439 H   0  0  0  0  0  0  0  0  0  0  0  0
   -9.4351   -3.3274  -24.4344 H   0  0  0  0  0  0  0  0  0  0  0  0
  -10.3111   -0.0965  -25.3252 H   0  0  0  0  0  0  0  0  0  0  0  0
  -13.8219    0.0746  -24.2040 H   0  0  0  0  0  0  0  0  0  0  0  0
  -13.6342   -1.6495  -22.7262 H   0  0  0  0  0  0  0  0  0  0  0  0
  -11.6949   -1.4169  -21.9917 H   0  0  0  0  0  0  0  0  0  0  0  0
  -11.7642   -2.5241  -23.4045 H   0  0  0  0  0  0  0  0  0  0  0  0
   -9.0852   -0.0355  -23.4543 H   0  0  0  0  0  0  0  0  0  0  0  0
   -7.6546   -1.2500  -21.4055 H   0  0  0  0  0  0  0  0  0  0  0  0
   -6.5362    2.1595  -18.3680 H   0  0  0  0  0  0  0  0  0  0  0  0
   -5.2171    2.3982  -19.3791 H   0  0  0  0  0  0  0  0  0  0  0  0
   -4.4236    0.9929  -19.1298 H   0  0  0  0  0  0  0  0  0  0  0  0
 20 21  1  0  0  0  0
 19 20  2  0  0  0  0
 19 21  1  0  0  0  0
 21 22  1  0  0  0  0
 18 19  1  0  0  0  0
 22 23  1  0  0  0  0
 18 23  2  0  0  0  0
 17 18  1  0  0  0  0
 23 24  1  0  0  0  0
 15 16  2  0  0  0  0
 15 17  1  0  0  0  0
 14 15  1  0  0  0  0
  8 14  1  0  0  0  0
  7 14  1  0  0  0  0
 12 13  1  0  0  0  0
  8 13  1  0  0  0  0
 11 12  2  0  0  0  0
  7  8  1  0  0  0  0
  8  9  1  0  0  0  0
  6  7  2  0  0  0  0
 10 11  1  0  0  0  0
  5  6  1  0  0  0  0
  9 10  2  0  0  0  0
  2  5  1  0  0  0  0
  2  3  2  0  0  0  0
  1  2  1  0  0  0  0
  2  4  2  0  0  0  0
  5 25  1  0  0  0  0
  6 26  1  0  0  0  0
  9 27  1  0  0  0  0
 11 28  1  0  0  0  0
 12 29  1  0  0  0  0
 13 30  1  0  0  0  0
 13 31  1  0  0  0  0
 14 32  1  0  0  0  0
 17 33  1  0  0  0  0
 21 34  1  0  0  0  0
 22 35  1  0  0  0  0
 22 36  1  0  0  0  0
M  CHG  1  22   1
M  END
> <Chemgauss4>
-10.871639

$$$$
