stable:False satoms:10 tatoms:24 sratio:0.4166666666666667
  -OEChem-08062414493D

 38 38  0     0  0  0  0  0  0999 V2000
   -5.6702   -5.1513  -25.9333 C   0  0  0  0  0  0  0  0  0  0  0  0
   -7.3686   -4.6204  -25.7852 S   0  0  0  0  0  0  0  0  0  0  0  0
   -8.1570   -5.8308  -25.7441 O   0  0  0  0  0  0  0  0  0  0  0  0
   -7.6689   -3.7725  -26.8857 O   0  0  0  0  0  0  0  0  0  0  0  0
   -7.3568   -3.8354  -24.3991 N   0  0  0  0  0  0  0  0  0  0  0  0
   -8.3177   -3.1407  -23.9881 C   0  0  0  0  0  0  0  0  0  0  0  0
   -8.8311   -2.2361  -23.5345 C   0  0  0  0  0  0  0  0  0  0  0  0
   -9.6032   -1.2096  -23.4521 C   0  0  0  0  0  0  0  0  0  0  0  0
  -10.4279   -0.3175  -24.5284 C   0  0  0  0  0  0  0  0  0  0  0  0
  -11.4358   -0.1189  -24.5992 C   0  0  0  0  0  0  0  0  0  0  0  0
  -12.5971   -0.6401  -23.7863 C   0  0  0  0  0  0  0  0  0  0  0  0
  -12.2313   -1.4691  -23.0486 C   0  0  0  0  0  0  0  0  0  0  0  0
  -11.5643   -2.0757  -22.6070 C   0  0  0  0  0  0  0  0  0  0  0  0
   -9.2816   -0.7658  -22.4661 C   0  0  0  0  0  0  0  0  0  0  0  0
   -8.7323   -0.0732  -21.4007 C   0  0  0  0  0  0  0  0  0  0  0  0
   -9.2619    0.8814  -21.0526 O   0  0  0  0  0  0  0  0  0  0  0  0
   -7.6466   -0.6642  -20.9971 N   0  0  0  0  0  0  0  0  0  0  0  0
   -7.0214   -0.0849  -20.0174 C   0  0  0  0  0  0  0  0  0  0  0  0
   -7.2318    0.0923  -18.7641 C   0  0  0  0  0  0  0  0  0  0  0  0
   -6.9398    0.4886  -17.5976 N   0  0  0  0  0  0  0  0  0  0  0  0
   -5.8066    1.0529  -17.9635 C   0  0  0  0  0  0  0  0  0  0  0  0
   -5.2394    1.0810  -19.0835 C   0  0  0  0  0  0  0  0  0  0  0  0
   -5.6514    0.5800  -20.2396 C   0  0  0  0  0  0  0  0  0  0  0  0
   -4.9580    0.6536  -21.6824 Cl  0  0  0  0  0  0  0  0  0  0  0  0
   -5.5424   -5.7165  -26.8683 H   0  0  0  0  0  0  0  0  0  0  0  0
   -5.0106   -4.2711  -25.9440 H   0  0  0  0  0  0  0  0  0  0  0  0
   -5.4111   -5.7933  -25.0785 H   0  0  0  0  0  0  0  0  0  0  0  0
   -6.5715   -3.2177  -24.4417 H   0  0  0  0  0  0  0  0  0  0  0  0
   -9.8213    0.1423  -25.2946 H   0  0  0  0  0  0  0  0  0  0  0  0
  -11.7064    0.5745  -25.3816 H   0  0  0  0  0  0  0  0  0  0  0  0
  -13.3538   -1.0635  -24.4630 H   0  0  0  0  0  0  0  0  0  0  0  0
  -13.0400    0.1875  -23.2127 H   0  0  0  0  0  0  0  0  0  0  0  0
  -10.8601   -2.7163  -22.1408 H   0  0  0  0  0  0  0  0  0  0  0  0
   -9.9280   -1.3847  -21.8614 H   0  0  0  0  0  0  0  0  0  0  0  0
   -7.3146   -1.5103  -21.4142 H   0  0  0  0  0  0  0  0  0  0  0  0
   -8.2112   -0.3416  -18.6265 H   0  0  0  0  0  0  0  0  0  0  0  0
   -5.2829    1.5737  -17.1755 H   0  0  0  0  0  0  0  0  0  0  0  0
   -4.2834    1.5829  -19.1084 H   0  0  0  0  0  0  0  0  0  0  0  0
 20 21  2  0  0  0  0
 19 20  1  0  0  0  0
 21 22  1  0  0  0  0
 18 19  2  0  0  0  0
 22 23  2  0  0  0  0
 18 23  1  0  0  0  0
 17 18  1  0  0  0  0
 23 24  1  0  0  0  0
 15 16  2  0  0  0  0
 15 17  1  0  0  0  0
 14 15  1  0  0  0  0
 12 13  3  0  0  0  0
  8 14  2  3  0  0  0
 11 12  1  0  0  0  0
 10 11  1  0  0  0  0
  7  8  1  0  0  0  0
  8  9  1  0  0  0  0
  6  7  3  0  0  0  0
  5  6  1  0  0  0  0
  9 10  2  0  0  0  0
  2  5  1  0  0  0  0
  2  3  2  0  0  0  0
  1  2  1  0  0  0  0
  2  4  2  0  0  0  0
  1 25  1  0  0  0  0
  1 26  1  0  0  0  0
  1 27  1  0  0  0  0
  5 28  1  0  0  0  0
  9 29  1  0  0  0  0
 10 30  1  0  0  0  0
 11 31  1  0  0  0  0
 11 32  1  0  0  0  0
 13 33  1  0  0  0  0
 14 34  1  0  0  0  0
 17 35  1  0  0  0  0
 19 36  1  0  0  0  0
 21 37  1  0  0  0  0
 22 38  1  0  0  0  0
M  END
> <Chemgauss4>
-12.268364

$$$$
