stable:False satoms:10 tatoms:24 sratio:0.4166666666666667
  -OEChem-08062414493D

 38 38  0     0  0  0  0  0  0999 V2000
    5.8661   -5.1995   26.0068 C   0  0  0  0  0  0  0  0  0  0  0  0
    7.5645   -4.6686   25.8588 S   0  0  0  0  0  0  0  0  0  0  0  0
    8.3529   -5.8790   25.8177 O   0  0  0  0  0  0  0  0  0  0  0  0
    7.8649   -3.8207   26.9592 O   0  0  0  0  0  0  0  0  0  0  0  0
    7.5527   -3.8836   24.4727 N   0  0  0  0  0  0  0  0  0  0  0  0
    8.5136   -3.1889   24.0616 C   0  0  0  0  0  0  0  0  0  0  0  0
    9.0270   -2.2843   23.6081 C   0  0  0  0  0  0  0  0  0  0  0  0
    9.7991   -1.2578   23.5257 C   0  0  0  0  0  0  0  0  0  0  0  0
   10.6238   -0.3657   24.6020 C   0  0  0  0  0  0  0  0  0  0  0  0
   11.6317   -0.1671   24.6727 C   0  0  0  0  0  0  0  0  0  0  0  0
   12.7930   -0.6882   23.8598 C   0  0  0  0  0  0  0  0  0  0  0  0
   12.4272   -1.5173   23.1222 C   0  0  0  0  0  0  0  0  0  0  0  0
   11.7602   -2.1239   22.6806 C   0  0  0  0  0  0  0  0  0  0  0  0
    9.4775   -0.8140   22.5396 C   0  0  0  0  0  0  0  0  0  0  0  0
    8.9282   -0.1214   21.4743 C   0  0  0  0  0  0  0  0  0  0  0  0
    9.4578    0.8332   21.1262 O   0  0  0  0  0  0  0  0  0  0  0  0
    7.8425   -0.7124   21.0707 N   0  0  0  0  0  0  0  0  0  0  0  0
    7.2173   -0.1331   20.0910 C   0  0  0  0  0  0  0  0  0  0  0  0
    7.4277    0.0441   18.8376 C   0  0  0  0  0  0  0  0  0  0  0  0
    7.1357    0.4404   17.6712 N   0  0  0  0  0  0  0  0  0  0  0  0
    6.0025    1.0048   18.0371 C   0  0  0  0  0  0  0  0  0  0  0  0
    5.4353    1.0328   19.1571 C   0  0  0  0  0  0  0  0  0  0  0  0
    5.8474    0.5318   20.3132 C   0  0  0  0  0  0  0  0  0  0  0  0
    5.1539    0.6054   21.7560 Cl  0  0  0  0  0  0  0  0  0  0  0  0
    5.7383   -5.7647   26.9418 H   0  0  0  0  0  0  0  0  0  0  0  0
    5.2065   -4.3193   26.0175 H   0  0  0  0  0  0  0  0  0  0  0  0
    5.6070   -5.8415   25.1521 H   0  0  0  0  0  0  0  0  0  0  0  0
    6.7675   -3.2659   24.5152 H   0  0  0  0  0  0  0  0  0  0  0  0
   10.0172    0.0941   25.3681 H   0  0  0  0  0  0  0  0  0  0  0  0
   11.9023    0.5264   25.4552 H   0  0  0  0  0  0  0  0  0  0  0  0
   13.5498   -1.1117   24.5366 H   0  0  0  0  0  0  0  0  0  0  0  0
   13.2359    0.1393   23.2863 H   0  0  0  0  0  0  0  0  0  0  0  0
   11.0560   -2.7645   22.2144 H   0  0  0  0  0  0  0  0  0  0  0  0
   10.1239   -1.4329   21.9350 H   0  0  0  0  0  0  0  0  0  0  0  0
    7.5105   -1.5585   21.4878 H   0  0  0  0  0  0  0  0  0  0  0  0
    8.4071   -0.3898   18.7001 H   0  0  0  0  0  0  0  0  0  0  0  0
    5.4788    1.5255   17.2491 H   0  0  0  0  0  0  0  0  0  0  0  0
    4.4793    1.5347   19.1819 H   0  0  0  0  0  0  0  0  0  0  0  0
 20 21  2  0  0  0  0
 19 20  1  0  0  0  0
 21 22  1  0  0  0  0
 18 19  2  0  0  0  0
 22 23  2  0  0  0  0
 18 23  1  0  0  0  0
 17 18  1  0  0  0  0
 23 24  1  0  0  0  0
 15 16  2  0  0  0  0
 15 17  1  0  0  0  0
 14 15  1  0  0  0  0
 12 13  3  0  0  0  0
  8 14  2  3  0  0  0
 11 12  1  0  0  0  0
 10 11  1  0  0  0  0
  7  8  1  0  0  0  0
  8  9  1  0  0  0  0
  6  7  3  0  0  0  0
  5  6  1  0  0  0  0
  9 10  2  0  0  0  0
  2  5  1  0  0  0  0
  2  3  2  0  0  0  0
  1  2  1  0  0  0  0
  2  4  2  0  0  0  0
  1 25  1  0  0  0  0
  1 26  1  0  0  0  0
  1 27  1  0  0  0  0
  5 28  1  0  0  0  0
  9 29  1  0  0  0  0
 10 30  1  0  0  0  0
 11 31  1  0  0  0  0
 11 32  1  0  0  0  0
 13 33  1  0  0  0  0
 14 34  1  0  0  0  0
 17 35  1  0  0  0  0
 19 36  1  0  0  0  0
 21 37  1  0  0  0  0
 22 38  1  0  0  0  0
M  END
> <Chemgauss4>
-12.515857

$$$$
