stable:False satoms:22 tatoms:24 sratio:0.9166666666666666
  -OEChem-07092417293D

 24 24  0     1  0  0  0  0  0999 V2000
    8.7961    3.7177   23.7259 H   0  0  0  0  0  0  0  0  0  0  0  0
    9.3679   -4.4161   24.0276 H   0  0  0  0  0  0  0  0  0  0  0  0
    9.5925   -3.3530   23.9543 C   0  0  0  0  0  0  0  0  0  0  0  0
    9.1345   -1.1897   22.8750 C   0  0  1  0  0  0  0  0  0  0  0  0
    8.4331   -3.2587   21.7305 C   0  0  0  0  0  0  0  0  0  0  0  0
    8.9763   -2.6802   22.8067 C   0  0  0  0  0  0  0  0  0  0  0  0
   10.6728   -3.2808   23.8567 H   0  0  0  0  0  0  0  0  0  0  0  0
    8.4038    3.5057   22.8478 N   0  0  0  0  0  0  0  0  0  0  0  0
    8.7898    2.1975   21.0424 O   0  0  0  0  0  0  0  0  0  0  0  0
    9.3264    1.3789   24.1873 H   0  0  0  0  0  0  0  0  0  0  0  0
    6.7695   -4.4380   22.1188 H   0  0  0  0  0  0  0  0  0  0  0  0
    7.5773   -0.6769   21.2129 H   0  0  0  0  0  0  0  0  0  0  0  0
    8.4494   -2.7779   20.7782 H   0  0  0  0  0  0  0  0  0  0  0  0
    8.0690    4.2157   22.2311 H   0  0  0  0  0  0  0  0  0  0  0  0
    9.0074    1.2476   23.1789 C   0  3  0  0  0  0  0  0  0  0  0  0
    7.7721   -4.5811   21.7443 C   0  0  0  0  0  0  0  0  0  0  0  0
    8.7421    2.3260   22.2575 C   0  0  0  0  0  0  0  0  0  0  0  0
    8.2885   -5.2634   22.4036 H   0  0  0  0  0  0  0  0  0  0  0  0
    9.2671   -0.5456   20.7487 H   0  0  0  0  0  0  0  0  0  0  0  0
    9.8973   -1.0444   23.6261 H   0  0  0  0  0  0  0  0  0  0  0  0
    7.7250   -5.0099   20.7570 H   0  0  0  0  0  0  0  0  0  0  0  0
    8.5851   -0.5746   21.5979 C   0  0  0  0  0  0  0  0  0  0  0  0
    8.7081    0.1113   22.7131 N   0  3  1  0  0  0  0  0  0  0  0  0
    9.2328   -2.9000   24.8745 H   0  0  0  0  0  0  0  0  0  0  0  0
 19 22  1  0  0  0  0
 16 21  1  0  0  0  0
  5 13  1  0  0  0  0
  9 17  2  0  0  0  0
 12 22  1  0  0  0  0
 22 23  1  0  0  0  0
  4 22  1  0  0  0  0
  5 16  1  0  0  0  0
  5  6  2  0  0  0  0
 11 16  1  0  0  0  0
 16 18  1  0  0  0  0
  8 14  1  0  0  0  0
  8 17  1  0  0  0  0
 15 17  1  0  0  0  0
  4 23  1  0  0  0  0
 15 23  1  0  0  0  0
  4  6  1  0  0  0  0
  3  6  1  0  0  0  0
  1  8  1  0  0  0  0
  4 20  1  0  0  0  0
 10 15  1  0  0  0  0
  3  7  1  0  0  0  0
  2  3  1  0  0  0  0
  3 24  1  0  0  0  0
M  CHG  2  15   1  23   1
M  END
> <Shapegauss>
-85.858932

$$$$
