stable:False satoms:22 tatoms:24 sratio:0.9166666666666666
  -OEChem-08052417063D

 24 24  0     1  0  0  0  0  0999 V2000
   -4.0417    3.0372  -19.0817 H   0  0  0  0  0  0  0  0  0  0  0  0
   -9.2072   -0.3721  -24.3988 H   0  0  0  0  0  0  0  0  0  0  0  0
   -8.7512    0.2727  -23.6489 C   0  0  0  0  0  0  0  0  0  0  0  0
   -7.5758    0.4677  -21.4960 C   0  0  1  0  0  0  0  0  0  0  0  0
   -8.8078   -1.6107  -21.9912 C   0  0  0  0  0  0  0  0  0  0  0  0
   -8.3925   -0.4075  -22.4007 C   0  0  0  0  0  0  0  0  0  0  0  0
   -9.4888    1.0391  -23.4240 H   0  0  0  0  0  0  0  0  0  0  0  0
   -4.2591    2.2191  -18.5783 N   0  0  0  0  0  0  0  0  0  0  0  0
   -6.0492    0.9713  -17.9795 O   0  0  0  0  0  0  0  0  0  0  0  0
   -8.2178   -3.1951  -23.1956 H   0  0  0  0  0  0  0  0  0  0  0  0
   -6.8781   -1.2222  -20.0442 H   0  0  0  0  0  0  0  0  0  0  0  0
   -8.9187   -1.8324  -20.9535 H   0  0  0  0  0  0  0  0  0  0  0  0
   -3.8540    2.0210  -17.6877 H   0  0  0  0  0  0  0  0  0  0  0  0
   -5.8972    1.7150  -20.2017 C   0  0  0  0  0  2  0  0  0  0  0  0
   -9.1448   -2.7260  -22.9013 C   0  0  0  0  0  0  0  0  0  0  0  0
   -5.4425    1.5970  -18.8373 C   0  0  0  0  0  0  0  0  0  0  0  0
   -9.6404   -2.3625  -23.7897 H   0  0  0  0  0  0  0  0  0  0  0  0
   -8.1479   -0.1677  -19.4412 H   0  0  0  0  0  0  0  0  0  0  0  0
   -7.7047    1.4580  -21.9082 H   0  0  0  0  0  0  0  0  0  0  0  0
   -9.7741   -3.4546  -22.4177 H   0  0  0  0  0  0  0  0  0  0  0  0
   -7.3505   -0.2562  -20.1783 C   0  0  0  0  0  0  0  0  0  0  0  0
   -6.5663    0.7156  -20.5905 N   0  3  1  0  0  0  0  0  0  0  0  0
   -7.8557    0.6868  -24.1050 H   0  0  0  0  0  0  0  0  0  0  0  0
   -5.8388    0.1743  -21.0122 H   0  0  0  0  0  0  0  0  0  0  0  0
 18 21  1  0  0  0  0
 15 20  1  0  0  0  0
  5 12  1  0  0  0  0
  9 16  2  0  0  0  0
 11 21  1  0  0  0  0
 21 22  1  0  0  0  0
  4 21  1  0  0  0  0
  5 15  1  0  0  0  0
  5  6  2  0  0  0  0
 10 15  1  0  0  0  0
 15 17  1  0  0  0  0
  8 13  1  0  0  0  0
  8 16  1  0  0  0  0
 14 16  1  0  0  0  0
  4 22  1  0  0  0  0
 14 22  1  0  0  0  0
  4  6  1  0  0  0  0
  3  6  1  0  0  0  0
  1  8  1  0  0  0  0
  4 19  1  0  0  0  0
  3  7  1  0  0  0  0
  2  3  1  0  0  0  0
  3 23  1  0  0  0  0
 22 24  1  0  0  0  0
M  CHG  1  22   1
M  END
> <Chemgauss4>
-5.222714

$$$$
