REMARK  2 active torsions:
REMARK  status: ('A' for Active; 'I' for Inactive)
REMARK    1  A    between atoms: C_1  and  C_6 
REMARK    2  A    between atoms: C_6  and  C_11 
ROOT
HETATM    1  N   UNL     1       8.121  -1.585  19.225  1.00  0.00    -0.191 NA
HETATM    2  C   UNL     1       8.606  -1.506  20.260  1.00  0.00     0.101 C 
HETATM    3  C   UNL     1       9.079  -1.294  21.541  1.00  0.00     0.066 C 
ENDROOT
BRANCH   3   4
HETATM    4  C   UNL     1       8.115  -0.693  22.353  1.00  0.00     0.003 C 
HETATM    5  C   UNL     1       6.769  -1.123  22.324  1.00  0.00     0.044 C 
HETATM    6  C   UNL     1       5.882  -0.689  23.286  1.00  0.00     0.042 C 
HETATM    7  N   UNL     1       4.706  -1.350  23.463  1.00  0.00    -0.398 N 
HETATM    8  C   UNL     1       6.319   0.450  24.025  1.00  0.00     0.116 C 
HETATM    9  H   UNL     1       4.456  -2.109  22.859  1.00  0.00     0.156 HD
HETATM   10  H   UNL     1       3.968  -0.995  24.021  1.00  0.00     0.156 HD
HETATM   11  N   UNL     1       7.523   0.976  23.923  1.00  0.00    -0.372 N 
HETATM   12  C   UNL     1       8.444   0.367  23.224  1.00  0.00     0.100 C 
ATOM     13  HN  UNL     1       7.736   1.858  24.389  1.00  0.00     0.164 HD
ENDBRANCH   3   4
BRANCH   3  14
HETATM   14  C   UNL     1      10.412  -1.675  21.973  1.00  0.00    -0.015 C 
HETATM   15  C   UNL     1      10.896  -1.967  23.251  1.00  0.00     0.013 C 
HETATM   16  C   UNL     1      12.284  -2.049  23.208  1.00  0.00     0.001 C 
HETATM   17  C   UNL     1      12.650  -1.921  21.883  1.00  0.00     0.001 C 
HETATM   18  C   UNL     1      11.480  -1.847  21.127  1.00  0.00     0.013 C 
ENDBRANCH   3  14
TORSDOF 2
