MODEL 1
REMARK VINA RESULT:    -5.700      0.000      0.000
REMARK INTER + INTRA:          -6.810
REMARK INTER:                  -6.366
REMARK INTRA:                  -0.444
REMARK UNBOUND:                -0.444
REMARK  2 active torsions:
REMARK  status: ('A' for Active; 'I' for Inactive)
REMARK    1  A    between atoms: C_1  and  C_6 
REMARK    2  A    between atoms: C_6  and  C_11 
ROOT
HETATM    1  N   UNL     1      10.181   1.589  21.450  1.00  0.00    -0.191 NA
HETATM    2  C   UNL     1       9.387   0.763  21.482  1.00  0.00     0.101 C 
HETATM    3  C   UNL     1       8.321  -0.116  21.479  1.00  0.00     0.066 C 
ENDROOT
BRANCH   3   4
HETATM    4  C   UNL     1       7.252   0.373  20.725  1.00  0.00     0.003 C 
HETATM    5  C   UNL     1       7.083  -0.001  19.373  1.00  0.00     0.044 C 
HETATM    6  C   UNL     1       5.910   0.296  18.713  1.00  0.00     0.042 C 
HETATM    7  N   UNL     1       5.612  -0.346  17.551  1.00  0.00    -0.398 N 
HETATM    8  C   UNL     1       5.103   1.282  19.354  1.00  0.00     0.116 C 
HETATM    9  H   UNL     1       6.266  -0.986  17.144  1.00  0.00     0.156 HD
HETATM   10  H   UNL     1       4.871  -0.064  16.956  1.00  0.00     0.156 HD
HETATM   11  N   UNL     1       5.356   1.778  20.548  1.00  0.00    -0.372 N 
HETATM   12  C   UNL     1       6.308   1.263  21.280  1.00  0.00     0.100 C 
ATOM     13  HN  UNL     1       4.808   2.563  20.902  1.00  0.00     0.164 HD
ENDBRANCH   3   4
BRANCH   3  14
HETATM   14  C   UNL     1       8.340  -1.395  22.165  1.00  0.00    -0.015 C 
HETATM   15  C   UNL     1       7.381  -2.411  22.205  1.00  0.00     0.013 C 
HETATM   16  C   UNL     1       7.736  -3.340  23.178  1.00  0.00     0.001 C 
HETATM   17  C   UNL     1       8.973  -2.959  23.660  1.00  0.00     0.001 C 
HETATM   18  C   UNL     1       9.393  -1.854  22.918  1.00  0.00     0.013 C 
ENDBRANCH   3  14
TORSDOF 2
ENDMDL
MODEL 2
REMARK VINA RESULT:    -5.654      1.412      2.307
REMARK INTER + INTRA:          -6.759
REMARK INTER:                  -6.462
REMARK INTRA:                  -0.296
REMARK UNBOUND:                -0.444
REMARK  2 active torsions:
REMARK  status: ('A' for Active; 'I' for Inactive)
REMARK    1  A    between atoms: C_1  and  C_6 
REMARK    2  A    between atoms: C_6  and  C_11 
ROOT
HETATM    1  N   UNL     1       7.758   3.186  22.320  1.00  0.00    -0.191 NA
HETATM    2  C   UNL     1       7.947   2.142  21.887  1.00  0.00     0.101 C 
HETATM    3  C   UNL     1       8.026   0.895  21.297  1.00  0.00     0.066 C 
ENDROOT
BRANCH   3   4
HETATM    4  C   UNL     1       7.138   0.776  20.226  1.00  0.00     0.003 C 
HETATM    5  C   UNL     1       5.831   1.308  20.301  1.00  0.00     0.044 C 
HETATM    6  C   UNL     1       5.051   1.392  19.168  1.00  0.00     0.042 C 
HETATM    7  N   UNL     1       3.954   2.197  19.165  1.00  0.00    -0.398 N 
HETATM    8  C   UNL     1       5.504   0.595  18.075  1.00  0.00     0.116 C 
HETATM    9  H   UNL     1       3.678   2.679  19.999  1.00  0.00     0.156 HD
HETATM   10  H   UNL     1       3.273   2.177  18.446  1.00  0.00     0.156 HD
HETATM   11  N   UNL     1       6.647  -0.061  18.067  1.00  0.00    -0.372 N 
HETATM   12  C   UNL     1       7.507   0.115  19.035  1.00  0.00     0.100 C 
ATOM     13  HN  UNL     1       6.860  -0.705  17.306  1.00  0.00     0.164 HD
ENDBRANCH   3   4
BRANCH   3  14
HETATM   14  C   UNL     1       8.940  -0.142  21.741  1.00  0.00    -0.015 C 
HETATM   15  C   UNL     1       8.678  -1.419  22.246  1.00  0.00     0.013 C 
HETATM   16  C   UNL     1       9.853  -1.961  22.756  1.00  0.00     0.001 C 
HETATM   17  C   UNL     1      10.864  -1.067  22.462  1.00  0.00     0.001 C 
HETATM   18  C   UNL     1      10.308  -0.034  21.707  1.00  0.00     0.013 C 
ENDBRANCH   3  14
TORSDOF 2
ENDMDL
MODEL 3
REMARK VINA RESULT:    -5.643      4.392      6.095
REMARK INTER + INTRA:          -6.747
REMARK INTER:                  -6.358
REMARK INTRA:                  -0.389
REMARK UNBOUND:                -0.444
REMARK  2 active torsions:
REMARK  status: ('A' for Active; 'I' for Inactive)
REMARK    1  A    between atoms: C_1  and  C_6 
REMARK    2  A    between atoms: C_6  and  C_11 
ROOT
HETATM    1  N   UNL     1      13.501  -0.410  24.424  1.00  0.00    -0.191 NA
HETATM    2  C   UNL     1      12.421  -0.029  24.390  1.00  0.00     0.101 C 
HETATM    3  C   UNL     1      11.079   0.284  24.282  1.00  0.00     0.066 C 
ENDROOT
BRANCH   3   4
HETATM    4  C   UNL     1      10.289  -0.863  24.183  1.00  0.00     0.003 C 
HETATM    5  C   UNL     1       9.605  -1.374  25.309  1.00  0.00     0.044 C 
HETATM    6  C   UNL     1       8.652  -2.358  25.154  1.00  0.00     0.042 C 
HETATM    7  N   UNL     1       7.769  -2.603  26.159  1.00  0.00    -0.398 N 
HETATM    8  C   UNL     1       8.696  -3.032  23.898  1.00  0.00     0.116 C 
HETATM    9  H   UNL     1       7.847  -2.117  27.032  1.00  0.00     0.156 HD
HETATM   10  H   UNL     1       7.172  -3.394  26.170  1.00  0.00     0.156 HD
HETATM   11  N   UNL     1       9.471  -2.672  22.895  1.00  0.00    -0.372 N 
HETATM   12  C   UNL     1      10.149  -1.557  22.963  1.00  0.00     0.100 C 
ATOM     13  HN  UNL     1       9.543  -3.263  22.067  1.00  0.00     0.164 HD
ENDBRANCH   3   4
BRANCH   3  14
HETATM   14  C   UNL     1      10.574   1.646  24.291  1.00  0.00    -0.015 C 
HETATM   15  C   UNL     1       9.376   2.159  24.795  1.00  0.00     0.013 C 
HETATM   16  C   UNL     1       9.225   3.474  24.368  1.00  0.00     0.001 C 
HETATM   17  C   UNL     1      10.383   3.810  23.696  1.00  0.00     0.001 C 
HETATM   18  C   UNL     1      11.258   2.728  23.794  1.00  0.00     0.013 C 
ENDBRANCH   3  14
TORSDOF 2
ENDMDL
MODEL 4
REMARK VINA RESULT:    -5.527      1.979      3.620
REMARK INTER + INTRA:          -6.616
REMARK INTER:                  -6.204
REMARK INTRA:                  -0.412
REMARK UNBOUND:                -0.444
REMARK  2 active torsions:
REMARK  status: ('A' for Active; 'I' for Inactive)
REMARK    1  A    between atoms: C_1  and  C_6 
REMARK    2  A    between atoms: C_6  and  C_11 
ROOT
HETATM    1  N   UNL     1       7.108  -1.726  22.722  1.00  0.00    -0.191 NA
HETATM    2  C   UNL     1       7.450  -0.729  22.273  1.00  0.00     0.101 C 
HETATM    3  C   UNL     1       7.808   0.416  21.587  1.00  0.00     0.066 C 
ENDROOT
BRANCH   3   4
HETATM    4  C   UNL     1       7.113   0.533  20.382  1.00  0.00     0.003 C 
HETATM    5  C   UNL     1       5.840   1.146  20.333  1.00  0.00     0.044 C 
HETATM    6  C   UNL     1       5.271   1.464  19.118  1.00  0.00     0.042 C 
HETATM    7  N   UNL     1       4.232   2.342  19.073  1.00  0.00    -0.398 N 
HETATM    8  C   UNL     1       5.865   0.814  17.996  1.00  0.00     0.116 C 
HETATM    9  H   UNL     1       3.842   2.709  19.919  1.00  0.00     0.156 HD
HETATM   10  H   UNL     1       3.685   2.485  18.259  1.00  0.00     0.156 HD
HETATM   11  N   UNL     1       6.958   0.082  18.064  1.00  0.00    -0.372 N 
HETATM   12  C   UNL     1       7.647   0.039  19.173  1.00  0.00     0.100 C 
ATOM     13  HN  UNL     1       7.267  -0.452  17.251  1.00  0.00     0.164 HD
ENDBRANCH   3   4
BRANCH   3  14
HETATM   14  C   UNL     1       8.778   1.375  22.086  1.00  0.00    -0.015 C 
HETATM   15  C   UNL     1      10.165   1.419  21.928  1.00  0.00     0.013 C 
HETATM   16  C   UNL     1      10.693   2.385  22.778  1.00  0.00     0.001 C 
HETATM   17  C   UNL     1       9.622   3.017  23.377  1.00  0.00     0.001 C 
HETATM   18  C   UNL     1       8.456   2.487  22.824  1.00  0.00     0.013 C 
ENDBRANCH   3  14
TORSDOF 2
ENDMDL
MODEL 5
REMARK VINA RESULT:    -5.474     24.001     25.507
REMARK INTER + INTRA:          -6.558
REMARK INTER:                  -6.321
REMARK INTRA:                  -0.237
REMARK UNBOUND:                -0.444
REMARK  2 active torsions:
REMARK  status: ('A' for Active; 'I' for Inactive)
REMARK    1  A    between atoms: C_1  and  C_6 
REMARK    2  A    between atoms: C_6  and  C_11 
ROOT
HETATM    1  N   UNL     1      -0.585 -22.988   7.375  1.00  0.00    -0.191 NA
HETATM    2  C   UNL     1       0.376 -22.890   7.991  1.00  0.00     0.101 C 
HETATM    3  C   UNL     1       1.535 -22.612   8.691  1.00  0.00     0.066 C 
ENDROOT
BRANCH   3   4
HETATM    4  C   UNL     1       1.653 -21.249   8.971  1.00  0.00     0.003 C 
HETATM    5  C   UNL     1       2.921 -20.654   9.163  1.00  0.00     0.044 C 
HETATM    6  C   UNL     1       3.042 -19.281   9.205  1.00  0.00     0.042 C 
HETATM    7  N   UNL     1       4.267 -18.710   9.048  1.00  0.00    -0.398 N 
HETATM    8  C   UNL     1       1.815 -18.584   9.412  1.00  0.00     0.116 C 
HETATM    9  H   UNL     1       5.085 -19.282   8.963  1.00  0.00     0.156 HD
HETATM   10  H   UNL     1       4.440 -17.751   9.226  1.00  0.00     0.156 HD
HETATM   11  N   UNL     1       0.631 -19.162   9.418  1.00  0.00    -0.372 N 
HETATM   12  C   UNL     1       0.518 -20.419   9.079  1.00  0.00     0.100 C 
ATOM     13  HN  UNL     1      -0.196 -18.629   9.686  1.00  0.00     0.164 HD
ENDBRANCH   3   4
BRANCH   3  14
HETATM   14  C   UNL     1       2.488 -23.631   9.093  1.00  0.00    -0.015 C 
HETATM   15  C   UNL     1       3.331 -24.432   8.318  1.00  0.00     0.013 C 
HETATM   16  C   UNL     1       3.889 -25.422   9.121  1.00  0.00     0.001 C 
HETATM   17  C   UNL     1       3.481 -25.163  10.414  1.00  0.00     0.001 C 
HETATM   18  C   UNL     1       2.751 -23.975  10.396  1.00  0.00     0.013 C 
ENDBRANCH   3  14
TORSDOF 2
ENDMDL
MODEL 6
REMARK VINA RESULT:    -5.458      3.590      5.577
REMARK INTER + INTRA:          -6.540
REMARK INTER:                  -6.092
REMARK INTRA:                  -0.448
REMARK UNBOUND:                -0.444
REMARK  2 active torsions:
REMARK  status: ('A' for Active; 'I' for Inactive)
REMARK    1  A    between atoms: C_1  and  C_6 
REMARK    2  A    between atoms: C_6  and  C_11 
ROOT
HETATM    1  N   UNL     1      12.741   0.292  24.412  1.00  0.00    -0.191 NA
HETATM    2  C   UNL     1      11.969   1.086  24.119  1.00  0.00     0.101 C 
HETATM    3  C   UNL     1      10.967   1.927  23.673  1.00  0.00     0.066 C 
ENDROOT
BRANCH   3   4
HETATM    4  C   UNL     1       9.862   1.210  23.208  1.00  0.00     0.003 C 
HETATM    5  C   UNL     1       9.617   1.068  21.824  1.00  0.00     0.044 C 
HETATM    6  C   UNL     1       8.668   0.174  21.376  1.00  0.00     0.042 C 
HETATM    7  N   UNL     1       8.669  -0.208  20.070  1.00  0.00    -0.398 N 
HETATM    8  C   UNL     1       7.758  -0.276  22.377  1.00  0.00     0.116 C 
HETATM    9  H   UNL     1       9.313   0.202  19.422  1.00  0.00     0.156 HD
HETATM   10  H   UNL     1       7.925  -0.718  19.658  1.00  0.00     0.156 HD
HETATM   11  N   UNL     1       7.875   0.005  23.659  1.00  0.00    -0.372 N 
HETATM   12  C   UNL     1       8.948   0.608  24.099  1.00  0.00     0.100 C 
ATOM     13  HN  UNL     1       7.130  -0.247  24.308  1.00  0.00     0.164 HD
ENDBRANCH   3   4
BRANCH   3  14
HETATM   14  C   UNL     1      11.064   3.375  23.709  1.00  0.00    -0.015 C 
HETATM   15  C   UNL     1      12.180   4.207  23.578  1.00  0.00     0.013 C 
HETATM   16  C   UNL     1      11.824   5.508  23.916  1.00  0.00     0.001 C 
HETATM   17  C   UNL     1      10.462   5.502  24.145  1.00  0.00     0.001 C 
HETATM   18  C   UNL     1       9.992   4.219  23.864  1.00  0.00     0.013 C 
ENDBRANCH   3  14
TORSDOF 2
ENDMDL
MODEL 7
REMARK VINA RESULT:    -5.458      3.833      6.043
REMARK INTER + INTRA:          -6.540
REMARK INTER:                  -6.296
REMARK INTRA:                  -0.244
REMARK UNBOUND:                -0.444
REMARK  2 active torsions:
REMARK  status: ('A' for Active; 'I' for Inactive)
REMARK    1  A    between atoms: C_1  and  C_6 
REMARK    2  A    between atoms: C_6  and  C_11 
ROOT
HETATM    1  N   UNL     1       8.473   1.787  21.310  1.00  0.00    -0.191 NA
HETATM    2  C   UNL     1       9.319   1.720  22.079  1.00  0.00     0.101 C 
HETATM    3  C   UNL     1      10.351   1.804  22.995  1.00  0.00     0.066 C 
ENDROOT
BRANCH   3   4
HETATM    4  C   UNL     1      10.446   3.083  23.547  1.00  0.00     0.003 C 
HETATM    5  C   UNL     1      11.662   3.802  23.509  1.00  0.00     0.044 C 
HETATM    6  C   UNL     1      11.687   5.140  23.843  1.00  0.00     0.042 C 
HETATM    7  N   UNL     1      12.757   5.901  23.487  1.00  0.00    -0.398 N 
HETATM    8  C   UNL     1      10.535   5.597  24.548  1.00  0.00     0.116 C 
HETATM    9  H   UNL     1      13.550   5.483  23.040  1.00  0.00     0.156 HD
HETATM   10  H   UNL     1      12.903   6.819  23.832  1.00  0.00     0.156 HD
HETATM   11  N   UNL     1       9.457   4.865  24.750  1.00  0.00    -0.372 N 
HETATM   12  C   UNL     1       9.340   3.701  24.167  1.00  0.00     0.100 C 
ATOM     13  HN  UNL     1       8.716   5.207  25.361  1.00  0.00     0.164 HD
ENDBRANCH   3   4
BRANCH   3  14
HETATM   14  C   UNL     1      11.205   0.682  23.340  1.00  0.00    -0.015 C 
HETATM   15  C   UNL     1      12.253   0.597  24.261  1.00  0.00     0.013 C 
HETATM   16  C   UNL     1      12.928  -0.605  24.077  1.00  0.00     0.001 C 
HETATM   17  C   UNL     1      12.229  -1.313  23.120  1.00  0.00     0.001 C 
HETATM   18  C   UNL     1      11.092  -0.573  22.794  1.00  0.00     0.013 C 
ENDBRANCH   3  14
TORSDOF 2
ENDMDL
MODEL 8
REMARK VINA RESULT:    -5.336      4.241      5.561
REMARK INTER + INTRA:          -6.404
REMARK INTER:                  -5.995
REMARK INTRA:                  -0.409
REMARK UNBOUND:                -0.444
REMARK  2 active torsions:
REMARK  status: ('A' for Active; 'I' for Inactive)
REMARK    1  A    between atoms: C_1  and  C_6 
REMARK    2  A    between atoms: C_6  and  C_11 
ROOT
HETATM    1  N   UNL     1       7.873   0.798  25.105  1.00  0.00    -0.191 NA
HETATM    2  C   UNL     1       8.639   0.008  24.787  1.00  0.00     0.101 C 
HETATM    3  C   UNL     1       9.467  -1.055  24.480  1.00  0.00     0.066 C 
ENDROOT
BRANCH   3   4
HETATM    4  C   UNL     1       8.788  -2.273  24.545  1.00  0.00     0.003 C 
HETATM    5  C   UNL     1       8.234  -2.859  23.385  1.00  0.00     0.044 C 
HETATM    6  C   UNL     1       7.774  -4.159  23.417  1.00  0.00     0.042 C 
HETATM    7  N   UNL     1       7.564  -4.826  22.250  1.00  0.00    -0.398 N 
HETATM    8  C   UNL     1       7.569  -4.683  24.727  1.00  0.00     0.116 C 
HETATM    9  H   UNL     1       7.682  -4.360  21.372  1.00  0.00     0.156 HD
HETATM   10  H   UNL     1       7.089  -5.695  22.205  1.00  0.00     0.156 HD
HETATM   11  N   UNL     1       7.918  -4.057  25.833  1.00  0.00    -0.372 N 
HETATM   12  C   UNL     1       8.621  -2.958  25.767  1.00  0.00     0.100 C 
ATOM     13  HN  UNL     1       7.638  -4.431  26.741  1.00  0.00     0.164 HD
ENDBRANCH   3   4
BRANCH   3  14
HETATM   14  C   UNL     1      10.865  -0.899  24.119  1.00  0.00    -0.015 C 
HETATM   15  C   UNL     1      11.636  -1.593  23.182  1.00  0.00     0.013 C 
HETATM   16  C   UNL     1      12.975  -1.257  23.351  1.00  0.00     0.001 C 
HETATM   17  C   UNL     1      13.020  -0.270  24.316  1.00  0.00     0.001 C 
HETATM   18  C   UNL     1      11.705   0.042  24.662  1.00  0.00     0.013 C 
ENDBRANCH   3  14
TORSDOF 2
ENDMDL
MODEL 9
REMARK VINA RESULT:    -5.274      2.173      3.970
REMARK INTER + INTRA:          -6.334
REMARK INTER:                  -5.964
REMARK INTRA:                  -0.370
REMARK UNBOUND:                -0.444
REMARK  2 active torsions:
REMARK  status: ('A' for Active; 'I' for Inactive)
REMARK    1  A    between atoms: C_1  and  C_6 
REMARK    2  A    between atoms: C_6  and  C_11 
ROOT
HETATM    1  N   UNL     1      10.272   0.415  21.575  1.00  0.00    -0.191 NA
HETATM    2  C   UNL     1       9.222   0.872  21.611  1.00  0.00     0.101 C 
HETATM    3  C   UNL     1       7.917   1.319  21.532  1.00  0.00     0.066 C 
ENDROOT
BRANCH   3   4
HETATM    4  C   UNL     1       7.085   0.376  20.926  1.00  0.00     0.003 C 
HETATM    5  C   UNL     1       6.523   0.615  19.651  1.00  0.00     0.044 C 
HETATM    6  C   UNL     1       5.901  -0.407  18.966  1.00  0.00     0.042 C 
HETATM    7  N   UNL     1       5.670  -0.278  17.631  1.00  0.00    -0.398 N 
HETATM    8  C   UNL     1       5.562  -1.538  19.766  1.00  0.00     0.116 C 
HETATM    9  H   UNL     1       5.893   0.577  17.159  1.00  0.00     0.156 HD
HETATM   10  H   UNL     1       5.092  -0.901  17.122  1.00  0.00     0.156 HD
HETATM   11  N   UNL     1       5.928  -1.686  21.023  1.00  0.00    -0.372 N 
HETATM   12  C   UNL     1       6.768  -0.843  21.562  1.00  0.00     0.100 C 
ATOM     13  HN  UNL     1       5.556  -2.459  21.576  1.00  0.00     0.164 HD
ENDBRANCH   3   4
BRANCH   3  14
HETATM   14  C   UNL     1       7.482   2.608  22.042  1.00  0.00    -0.015 C 
HETATM   15  C   UNL     1       6.228   3.222  21.986  1.00  0.00     0.013 C 
HETATM   16  C   UNL     1       6.348   4.546  22.398  1.00  0.00     0.001 C 
HETATM   17  C   UNL     1       7.652   4.717  22.817  1.00  0.00     0.001 C 
HETATM   18  C   UNL     1       8.288   3.478  22.735  1.00  0.00     0.013 C 
ENDBRANCH   3  14
TORSDOF 2
ENDMDL
