stable:False satoms:20 tatoms:24 sratio:0.8333333333333334
  -OEChem-07092417283D

 24 25  0     1  0  0  0  0  0999 V2000
    8.1151   -0.6925   22.3527 C   0  0  0  0  0  0  0  0  0  0  0  0
    8.4438    0.3670   23.2243 C   0  0  0  0  0  0  0  0  0  0  0  0
    4.7064   -1.3497   23.4632 N   0  0  0  0  0  0  0  0  0  0  0  0
    8.1210   -1.5848   19.2254 N   0  0  0  0  0  0  0  0  0  0  0  0
   10.2843   -2.1262   24.1188 H   0  0  0  0  0  0  0  0  0  0  0  0
    9.4702    0.6895   23.3204 H   0  0  0  0  0  0  0  0  0  0  0  0
   13.6596   -1.8658   21.5126 H   0  0  0  0  0  0  0  0  0  0  0  0
    5.6561    0.9431   24.7113 H   0  0  0  0  0  0  0  0  0  0  0  0
    8.6057   -1.5057   20.2602 C   0  0  0  0  0  0  0  0  0  0  0  0
    9.0787   -1.2936   21.5411 C   0  0  3  0  0  0  0  0  0  0  0  0
    6.4507   -1.8044   21.5678 H   0  0  0  0  0  0  0  0  0  0  0  0
   12.9341   -2.1790   24.0536 H   0  0  0  0  0  0  0  0  0  0  0  0
    3.9684   -0.9946   24.0213 H   0  0  0  0  0  0  0  0  0  0  0  0
   10.8955   -1.9671   23.2514 C   0  0  0  0  0  0  0  0  0  0  0  0
   11.4209   -1.9394   20.0660 H   0  0  0  0  0  0  0  0  0  0  0  0
    4.4559   -2.1094   22.8592 H   0  0  0  0  0  0  0  0  0  0  0  0
    6.7688   -1.1232   22.3239 C   0  0  0  0  0  0  0  0  0  0  0  0
   10.4115   -1.6754   21.9725 C   0  0  0  0  0  0  0  0  0  0  0  0
   12.6503   -1.9207   21.8829 C   0  5  3  0  0  0  0  0  0  0  0  0
   12.2835   -2.0489   23.2084 C   0  0  0  0  0  0  0  0  0  0  0  0
    5.8818   -0.6885   23.2856 C   0  0  0  0  0  0  0  0  0  0  0  0
    6.3187    0.4504   24.0248 C   0  0  0  0  0  0  0  0  0  0  0  0
   11.4801   -1.8471   21.1270 C   0  0  0  0  0  0  0  0  0  0  0  0
    7.5230    0.9758   23.9226 N   0  0  0  0  0  0  0  0  0  0  0  0
  4  9  3  0  0  0  0
 15 23  1  0  0  0  0
  9 10  1  0  0  0  0
 19 23  1  0  0  0  0
 18 23  2  0  0  0  0
  7 19  1  0  0  0  0
 10 18  1  0  0  0  0
  1 10  1  0  0  0  0
 11 17  1  0  0  0  0
 19 20  1  0  0  0  0
 14 18  1  0  0  0  0
  1 17  2  0  0  0  0
 17 21  1  0  0  0  0
  1  2  1  0  0  0  0
  3 16  1  0  0  0  0
 14 20  2  0  0  0  0
 12 20  1  0  0  0  0
  2  6  1  0  0  0  0
  2 24  2  0  0  0  0
  5 14  1  0  0  0  0
  3 21  1  0  0  0  0
 21 22  2  0  0  0  0
  3 13  1  0  0  0  0
 22 24  1  0  0  0  0
  8 22  1  0  0  0  0
M  CHG  1  19  -1
M  END
> <Shapegauss>
-96.747620

$$$$
