
 OpenBabel07202414163D

 57 61  0  0  1  0  0  0  0  0999 V2000
    3.3217    5.4122   -1.1979 C   0  0  0  0  0  0  0  0  0  0  0  0
    4.4187    4.4504   -0.9734 C   0  0  0  0  0  0  0  0  0  0  0  0
    5.7264    4.8538   -0.8533 N   0  0  0  0  0  0  0  0  0  0  0  0
    6.3653    3.7326   -0.6164 C   0  0  0  0  0  0  0  0  0  0  0  0
    5.4646    2.7035   -0.5914 N   0  0  0  0  0  0  0  0  0  0  0  0
    4.2211    3.1293   -0.8571 N   0  0  0  0  0  0  0  0  0  0  0  0
    5.7856    1.3051   -0.3849 C   0  0  0  0  0  0  0  0  0  0  0  0
    7.1748    1.1337    0.2645 C   0  0  3  0  0  0  0  0  0  0  0  0
    7.0859    1.4154    1.7648 C   0  0  0  0  0  0  0  0  0  0  0  0
    6.0110    1.5925    2.3369 O   0  0  0  0  0  0  0  0  0  0  0  0
    8.2744    1.4293    2.4489 N   0  0  0  0  0  0  0  0  0  0  0  0
    8.2987    1.6160    3.8960 C   0  0  3  0  0  0  0  0  0  0  0  0
    8.8106    0.3245    4.5773 C   0  0  0  0  0  0  0  0  0  0  0  0
    9.7185   -0.3502    4.0916 O   0  0  0  0  0  0  0  0  0  0  0  0
    8.1590    0.0297    5.7643 N   0  0  0  0  0  0  0  0  0  0  0  0
    8.5087   -1.0573    6.5973 C   0  0  0  0  0  0  0  0  0  0  0  0
    9.8412   -1.3383    6.8999 C   0  0  0  0  0  0  0  0  0  0  0  0
   10.2393   -2.2975    7.7657 N   0  0  0  0  0  0  0  0  0  0  0  0
    9.2596   -3.0300    8.3398 C   0  0  0  0  0  0  0  0  0  0  0  0
    7.8937   -2.8641    8.0940 C   0  0  0  0  0  0  0  0  0  0  0  0
    6.9271   -3.6899    8.6974 C   0  0  0  0  0  0  0  0  0  0  0  0
    5.5742   -3.5380    8.3979 C   0  0  0  0  0  0  0  0  0  0  0  0
    5.1711   -2.5642    7.4935 C   0  0  0  0  0  0  0  0  0  0  0  0
    6.1192   -1.7285    6.9017 C   0  0  0  0  0  0  0  0  0  0  0  0
    7.4988   -1.8478    7.1959 C   0  0  0  0  0  0  0  0  0  0  0  0
    9.1236    2.8346    4.2666 C   0  0  0  0  0  0  0  0  0  0  0  0
   10.4955    2.7574    4.5579 C   0  0  0  0  0  0  0  0  0  0  0  0
   11.2046    3.8921    4.9567 C   0  0  0  0  0  0  0  0  0  0  0  0
   10.5597    5.1243    5.0441 C   0  0  0  0  0  0  0  0  0  0  0  0
    9.2102    5.2215    4.7165 C   0  0  0  0  0  0  0  0  0  0  0  0
    8.4163    6.7442    4.8103 Cl  0  0  0  0  0  0  0  0  0  0  0  0
    8.4940    4.0905    4.3251 C   0  0  0  0  0  0  0  0  0  0  0  0
    8.1896    2.0416   -0.4575 C   0  0  0  0  0  0  0  0  0  0  0  0
    7.8078    3.5230   -0.3440 C   0  0  0  0  0  0  0  0  0  0  0  0
    3.7024    6.4387   -1.1945 H   0  0  0  0  0  0  0  0  0  0  0  0
    2.5701    5.3306   -0.4067 H   0  0  0  0  0  0  0  0  0  0  0  0
    2.8380    5.2319   -2.1618 H   0  0  0  0  0  0  0  0  0  0  0  0
    5.7721    0.8406   -1.3778 H   0  0  0  0  0  0  0  0  0  0  0  0
    4.9836    0.8579    0.2124 H   0  0  0  0  0  0  0  0  0  0  0  0
    7.4804    0.0847    0.1603 H   0  0  0  0  0  0  0  0  0  0  0  0
    9.1137    1.0469    2.0323 H   0  0  0  0  0  0  0  0  0  0  0  0
    7.2756    1.7818    4.2564 H   0  0  0  0  0  0  0  0  0  0  0  0
    7.2354    0.4239    5.8930 H   0  0  0  0  0  0  0  0  0  0  0  0
   10.6546   -0.7491    6.4851 H   0  0  0  0  0  0  0  0  0  0  0  0
    9.6181   -3.7965    9.0228 H   0  0  0  0  0  0  0  0  0  0  0  0
    7.2273   -4.4703    9.3932 H   0  0  0  0  0  0  0  0  0  0  0  0
    4.8369   -4.1907    8.8577 H   0  0  0  0  0  0  0  0  0  0  0  0
    4.1206   -2.4610    7.2328 H   0  0  0  0  0  0  0  0  0  0  0  0
    5.7595   -1.0087    6.1708 H   0  0  0  0  0  0  0  0  0  0  0  0
   11.0339    1.8126    4.4953 H   0  0  0  0  0  0  0  0  0  0  0  0
   12.2604    3.8117    5.2056 H   0  0  0  0  0  0  0  0  0  0  0  0
   11.1141    6.0021    5.3645 H   0  0  0  0  0  0  0  0  0  0  0  0
    7.4381    4.1847    4.0744 H   0  0  0  0  0  0  0  0  0  0  0  0
    8.2161    1.7598   -1.5184 H   0  0  0  0  0  0  0  0  0  0  0  0
    9.2050    1.8939   -0.0745 H   0  0  0  0  0  0  0  0  0  0  0  0
    8.4103    4.1139   -1.0428 H   0  0  0  0  0  0  0  0  0  0  0  0
    8.0319    3.8890    0.6647 H   0  0  0  0  0  0  0  0  0  0  0  0
  1  2  1  0  0  0  0
  1 35  1  0  0  0  0
  1 36  1  0  0  0  0
  1 37  1  0  0  0  0
  2  3  1  0  0  0  0
  2  6  2  0  0  0  0
  3  4  2  0  0  0  0
  4  5  1  0  0  0  0
  4 34  1  0  0  0  0
  5  6  1  0  0  0  0
  5  7  1  0  0  0  0
  7  8  1  0  0  0  0
  7 38  1  0  0  0  0
  7 39  1  0  0  0  0
  8  9  1  0  0  0  0
  8 33  1  0  0  0  0
  8 40  1  0  0  0  0
  9 10  2  0  0  0  0
  9 11  1  0  0  0  0
 11 12  1  0  0  0  0
 11 41  1  0  0  0  0
 12 13  1  0  0  0  0
 12 26  1  0  0  0  0
 12 42  1  0  0  0  0
 13 14  2  0  0  0  0
 13 15  1  0  0  0  0
 15 16  1  0  0  0  0
 15 43  1  0  0  0  0
 16 17  1  0  0  0  0
 16 25  2  0  0  0  0
 17 18  2  0  0  0  0
 17 44  1  0  0  0  0
 18 19  1  0  0  0  0
 19 20  2  0  0  0  0
 19 45  1  0  0  0  0
 20 21  1  0  0  0  0
 20 25  1  0  0  0  0
 21 22  2  0  0  0  0
 21 46  1  0  0  0  0
 22 23  1  0  0  0  0
 22 47  1  0  0  0  0
 23 24  2  0  0  0  0
 23 48  1  0  0  0  0
 24 25  1  0  0  0  0
 24 49  1  0  0  0  0
 26 27  1  0  0  0  0
 26 32  2  0  0  0  0
 27 28  2  0  0  0  0
 27 50  1  0  0  0  0
 28 29  1  0  0  0  0
 28 51  1  0  0  0  0
 29 30  2  0  0  0  0
 29 52  1  0  0  0  0
 30 31  1  0  0  0  0
 30 32  1  0  0  0  0
 32 53  1  0  0  0  0
 33 34  1  0  0  0  0
 33 54  1  0  0  0  0
 33 55  1  0  0  0  0
 34 56  1  0  0  0  0
 34 57  1  0  0  0  0
M  END
$$$$
