REMARK  6 active torsions:
REMARK  status: ('A' for Active; 'I' for Inactive)
REMARK    1  A    between atoms: S_2  and  N_5 
REMARK    2  A    between atoms: C_7  and  C_8 
REMARK    3  A    between atoms: C_8  and  C_9 
REMARK    4  A    between atoms: C_9  and  C_15 
REMARK    5  A    between atoms: C_15  and  C_16 
REMARK       I    between atoms: C_16  and  N_18 
REMARK    6  A    between atoms: N_18  and  C_20 
ROOT
HETATM    1  C   UNL     1      10.334  -1.147  23.234  1.00  0.00     0.076 C 
HETATM    2  C   UNL     1      11.001   0.012  24.293  1.00  0.00     0.003 C 
HETATM    3  C   UNL     1      12.091   0.292  24.243  1.00  0.00    -0.002 C 
HETATM    4  C   UNL     1      13.108  -0.152  23.498  1.00  0.00    -0.001 C 
HETATM    5  C   UNL     1      12.718  -1.271  22.703  1.00  0.00    -0.002 C 
HETATM    6  C   UNL     1      11.785  -1.731  22.551  1.00  0.00     0.003 C 
ENDROOT
BRANCH   1   7
HETATM    7  C   UNL     1       9.433  -1.992  23.513  1.00  0.00     0.021 C 
BRANCH   7   8
HETATM    8  C   UNL     1       8.922  -2.890  24.143  1.00  0.00     0.098 C 
HETATM    9  N   UNL     1       8.064  -3.529  24.650  1.00  0.00    -0.296 N 
ATOM     10  HN  UNL     1       7.175  -3.633  24.161  1.00  0.00     0.177 HD
BRANCH   9  11
HETATM   11  S   UNL     1       8.251  -4.253  26.107  1.00  0.00     0.226 S 
HETATM   12  C   UNL     1       6.543  -4.881  26.414  1.00  0.00     0.186 C 
HETATM   13  O   UNL     1       9.108  -5.414  26.043  1.00  0.00    -0.206 OA
HETATM   14  O   UNL     1       8.554  -3.377  27.163  1.00  0.00    -0.206 OA
ENDBRANCH   9  11
ENDBRANCH   7   8
ENDBRANCH   1   7
BRANCH   1  15
HETATM   15  C   UNL     1       9.684  -0.617  22.362  1.00  0.00    -0.061 C 
BRANCH  15  16
HETATM   16  C   UNL     1       9.053   0.031  21.372  1.00  0.00     0.290 C 
HETATM   17  O   UNL     1       9.559   0.967  20.949  1.00  0.00    -0.259 OA
HETATM   18  N   UNL     1       7.940  -0.568  21.092  1.00  0.00    -0.314 N 
ATOM     19  HN  UNL     1       7.649  -1.403  21.600  1.00  0.00     0.170 HD
BRANCH  18  20
HETATM   20  C   UNL     1       7.230  -0.088  20.175  1.00  0.00     0.072 A 
HETATM   21  C   UNL     1       7.275  -0.018  18.876  1.00  0.00     0.119 A 
HETATM   22  N   UNL     1       6.734   0.333  17.763  1.00  0.00    -0.373 N 
HETATM   23  C   UNL     1       5.730   0.838  18.255  1.00  0.00     0.089 A 
ATOM     24  HN  UNL     1       7.038   0.227  16.795  1.00  0.00     0.164 HD
HETATM   25  C   UNL     1       5.320   0.944  19.381  1.00  0.00     0.043 A 
HETATM   26  C   UNL     1       5.861   0.555  20.532  1.00  0.00     0.063 A 
HETATM   27 CL   UNL     1       5.286   0.667  21.983  1.00  0.00    -0.082 Cl
ENDBRANCH  18  20
ENDBRANCH  15  16
ENDBRANCH   1  15
TORSDOF 6
