stable:False satoms:5 tatoms:24 sratio:0.20833333333333334
  -OEChem-07092417463D

 24 25  0     1  0  0  0  0  0999 V2000
    6.5431   -4.8809   26.4139 C   0  0  0  0  0  0  0  0  0  0  0  0
    8.2510   -4.2530   26.1066 S   0  0  0  0  0  0  0  0  0  0  0  0
    9.1080   -5.4138   26.0430 O   0  0  0  0  0  0  0  0  0  0  0  0
    8.5543   -3.3771   27.1634 O   0  0  0  0  0  0  0  0  0  0  0  0
    8.0639   -3.5290   24.6499 N   0  0  0  0  0  0  0  0  0  0  0  0
    8.9217   -2.8896   24.1430 C   0  0  0  0  0  0  0  0  0  0  0  0
    9.4326   -1.9917   23.5134 C   0  0  0  0  0  0  0  0  0  0  0  0
   10.3340   -1.1467   23.2341 C   0  0  1  0  0  0  0  0  0  0  0  0
   11.0014    0.0116   24.2930 C   0  0  0  0  0  0  0  0  0  0  0  0
   12.0915    0.2922   24.2428 C   0  0  0  0  0  0  0  0  0  0  0  0
   13.1079   -0.1516   23.4981 C   0  0  0  0  0  0  0  0  0  0  0  0
   12.7177   -1.2714   22.7033 C   0  0  0  0  0  0  0  0  0  0  0  0
   11.7849   -1.7312   22.5510 C   0  0  0  0  0  0  0  0  0  0  0  0
    9.6837   -0.6167   22.3623 C   0  0  0  0  0  0  0  0  0  0  0  0
    9.0525    0.0306   21.3723 C   0  0  0  0  0  0  0  0  0  0  0  0
    9.5594    0.9668   20.9491 O   0  0  0  0  0  0  0  0  0  0  0  0
    7.9402   -0.5679   21.0922 N   0  0  0  0  0  0  0  0  0  0  0  0
    7.2297   -0.0882   20.1747 C   0  0  0  0  0  0  0  0  0  0  0  0
    7.2748   -0.0184   18.8756 C   0  0  0  0  0  0  0  0  0  0  0  0
    6.7339    0.3327   17.7631 N   0  0  0  0  0  0  0  0  0  0  0  0
    5.7304    0.8375   18.2552 C   0  0  0  0  0  0  0  0  0  0  0  0
    5.3201    0.9440   19.3810 C   0  0  0  0  0  0  0  0  0  0  0  0
    5.8614    0.5551   20.5325 C   0  0  0  0  0  0  0  0  0  0  0  0
    5.2858    0.6666   21.9834 Cl  0  0  0  0  0  0  0  0  0  0  0  0
 20 21  2  0  0  0  0
 19 20  1  0  0  0  0
 21 22  1  0  0  0  0
 18 19  2  0  0  0  0
 22 23  2  0  0  0  0
 18 23  1  0  0  0  0
 17 18  1  0  0  0  0
 23 24  1  0  0  0  0
 15 16  2  0  0  0  0
 15 17  1  0  0  0  0
 14 15  1  0  0  0  0
  8 14  1  0  0  0  0
 12 13  1  0  0  0  0
  8 13  1  0  0  0  0
 11 12  2  0  0  0  0
  7  8  1  0  0  0  0
  8  9  1  0  0  0  0
 10 11  1  0  0  0  0
  6  7  3  0  0  0  0
  5  6  1  0  0  0  0
  9 10  2  0  0  0  0
  2  5  1  0  0  0  0
  2  3  2  0  0  0  0
  1  2  1  0  0  0  0
  2  4  2  0  0  0  0
M  END
> <Shapegauss>
-287.220612

$$$$
