MODEL 1
REMARK VINA RESULT:    -7.522      0.000      0.000
REMARK INTER + INTRA:         -11.152
REMARK INTER:                 -10.160
REMARK INTRA:                  -0.991
REMARK UNBOUND:                -0.991
REMARK  6 active torsions:
REMARK  status: ('A' for Active; 'I' for Inactive)
REMARK    1  A    between atoms: S_2  and  N_5 
REMARK    2  A    between atoms: C_7  and  C_8 
REMARK    3  A    between atoms: C_8  and  C_9 
REMARK    4  A    between atoms: C_9  and  C_15 
REMARK    5  A    between atoms: C_15  and  C_16 
REMARK       I    between atoms: C_16  and  N_18 
REMARK    6  A    between atoms: N_18  and  C_20 
ROOT
HETATM    1  C   UNL     1       9.386  -1.535  23.270  1.00  0.00     0.076 C 
HETATM    2  C   UNL     1       9.140  -0.658  24.712  1.00  0.00     0.003 C 
HETATM    3  C   UNL     1       9.965  -0.044  25.172  1.00  0.00    -0.002 C 
HETATM    4  C   UNL     1      11.247   0.144  24.842  1.00  0.00    -0.001 C 
HETATM    5  C   UNL     1      11.632  -0.699  23.757  1.00  0.00    -0.002 C 
HETATM    6  C   UNL     1      11.079  -1.352  23.147  1.00  0.00     0.003 C 
ENDROOT
BRANCH   1   7
HETATM    7  C   UNL     1       8.893  -2.665  22.982  1.00  0.00     0.021 C 
BRANCH   7   8
HETATM    8  C   UNL     1       8.006  -3.473  22.826  1.00  0.00     0.098 C 
HETATM    9  N   UNL     1       7.491  -4.503  22.554  1.00  0.00    -0.296 N 
ATOM     10  HN  UNL     1       7.966  -5.371  22.803  1.00  0.00     0.177 HD
BRANCH   9  11
HETATM   11  S   UNL     1       6.044  -4.589  21.791  1.00  0.00     0.226 S 
HETATM   12  C   UNL     1       4.968  -5.241  23.141  1.00  0.00     0.186 C 
HETATM   13  O   UNL     1       5.522  -3.287  21.445  1.00  0.00    -0.206 OA
HETATM   14  O   UNL     1       5.987  -5.523  20.743  1.00  0.00    -0.206 OA
ENDBRANCH   9  11
ENDBRANCH   7   8
ENDBRANCH   1   7
BRANCH   1  15
HETATM   15  C   UNL     1       8.870  -0.977  22.328  1.00  0.00    -0.061 C 
BRANCH  15  16
HETATM   16  C   UNL     1       8.395  -0.369  21.231  1.00  0.00     0.290 C 
HETATM   17  O   UNL     1       9.122   0.282  20.633  1.00  0.00    -0.259 OA
HETATM   18  N   UNL     1       7.142  -0.656  21.076  1.00  0.00    -0.314 N 
ATOM     19  HN  UNL     1       6.654  -1.259  21.737  1.00  0.00     0.170 HD
BRANCH  18  20
HETATM   20  C   UNL     1       6.547  -0.169  20.084  1.00  0.00     0.072 A 
HETATM   21  C   UNL     1       6.247  -0.547  18.875  1.00  0.00     0.119 A 
HETATM   22  N   UNL     1       5.667  -0.316  17.750  1.00  0.00    -0.373 N 
HETATM   23  C   UNL     1       5.251   0.801  18.041  1.00  0.00     0.089 A 
ATOM     24  HN  UNL     1       5.582  -0.874  16.901  1.00  0.00     0.164 HD
HETATM   25  C   UNL     1       5.295   1.470  19.040  1.00  0.00     0.043 A 
HETATM   26  C   UNL     1       5.866   1.222  20.215  1.00  0.00     0.063 A 
HETATM   27 CL   UNL     1       5.872   2.093  21.515  1.00  0.00    -0.082 Cl
ENDBRANCH  18  20
ENDBRANCH  15  16
ENDBRANCH   1  15
TORSDOF 6
ENDMDL
MODEL 2
REMARK VINA RESULT:    -7.158      3.195      6.120
REMARK INTER + INTRA:         -10.660
REMARK INTER:                  -9.925
REMARK INTRA:                  -0.735
REMARK UNBOUND:                -0.991
REMARK  6 active torsions:
REMARK  status: ('A' for Active; 'I' for Inactive)
REMARK    1  A    between atoms: S_2  and  N_5 
REMARK    2  A    between atoms: C_7  and  C_8 
REMARK    3  A    between atoms: C_8  and  C_9 
REMARK    4  A    between atoms: C_9  and  C_15 
REMARK    5  A    between atoms: C_15  and  C_16 
REMARK       I    between atoms: C_16  and  N_18 
REMARK    6  A    between atoms: N_18  and  C_20 
ROOT
HETATM    1  C   UNL     1      10.003  -1.097  23.159  1.00  0.00     0.076 C 
HETATM    2  C   UNL     1      11.614  -1.536  22.814  1.00  0.00     0.003 C 
HETATM    3  C   UNL     1      12.474  -1.126  23.415  1.00  0.00    -0.002 C 
HETATM    4  C   UNL     1      12.542  -0.244  24.417  1.00  0.00    -0.001 C 
HETATM    5  C   UNL     1      11.269   0.351  24.669  1.00  0.00    -0.002 C 
HETATM    6  C   UNL     1      10.315   0.159  24.272  1.00  0.00     0.003 C 
ENDROOT
BRANCH   1   7
HETATM    7  C   UNL     1       9.074  -0.919  22.317  1.00  0.00     0.021 C 
BRANCH   7   8
HETATM    8  C   UNL     1       8.606  -0.669  21.229  1.00  0.00     0.098 C 
HETATM    9  N   UNL     1       8.491  -0.142  20.175  1.00  0.00    -0.296 N 
ATOM     10  HN  UNL     1       9.333   0.080  19.644  1.00  0.00     0.177 HD
BRANCH   9  11
HETATM   11  S   UNL     1       7.033   0.241  19.537  1.00  0.00     0.226 S 
HETATM   12  C   UNL     1       6.422   1.477  20.764  1.00  0.00     0.186 C 
HETATM   13  O   UNL     1       7.145   0.938  18.277  1.00  0.00    -0.206 OA
HETATM   14  O   UNL     1       6.101  -0.811  19.527  1.00  0.00    -0.206 OA
ENDBRANCH   9  11
ENDBRANCH   7   8
ENDBRANCH   1   7
BRANCH   1  15
HETATM   15  C   UNL     1       9.423  -1.988  23.736  1.00  0.00    -0.061 C 
BRANCH  15  16
HETATM   16  C   UNL     1       8.733  -3.001  24.279  1.00  0.00     0.290 C 
HETATM   17  O   UNL     1       8.293  -3.781  23.565  1.00  0.00    -0.259 OA
HETATM   18  N   UNL     1       8.703  -2.874  25.567  1.00  0.00    -0.314 N 
ATOM     19  HN  UNL     1       9.156  -2.086  26.029  1.00  0.00     0.170 HD
BRANCH  18  20
HETATM   20  C   UNL     1       8.099  -3.753  26.229  1.00  0.00     0.072 A 
HETATM   21  C   UNL     1       8.373  -4.925  26.726  1.00  0.00     0.119 A 
HETATM   22  N   UNL     1       8.018  -5.949  27.419  1.00  0.00    -0.373 N 
HETATM   23  C   UNL     1       6.883  -5.555  27.668  1.00  0.00     0.089 A 
ATOM     24  HN  UNL     1       8.513  -6.802  27.675  1.00  0.00     0.164 HD
HETATM   25  C   UNL     1       6.282  -4.543  27.419  1.00  0.00     0.043 A 
HETATM   26  C   UNL     1       6.656  -3.469  26.730  1.00  0.00     0.063 A 
HETATM   27 CL   UNL     1       5.868  -2.145  26.457  1.00  0.00    -0.082 Cl
ENDBRANCH  18  20
ENDBRANCH  15  16
ENDBRANCH   1  15
TORSDOF 6
ENDMDL
MODEL 3
REMARK VINA RESULT:    -6.757      3.922      6.174
REMARK INTER + INTRA:         -10.118
REMARK INTER:                  -9.409
REMARK INTRA:                  -0.709
REMARK UNBOUND:                -0.991
REMARK  6 active torsions:
REMARK  status: ('A' for Active; 'I' for Inactive)
REMARK    1  A    between atoms: S_2  and  N_5 
REMARK    2  A    between atoms: C_7  and  C_8 
REMARK    3  A    between atoms: C_8  and  C_9 
REMARK    4  A    between atoms: C_9  and  C_15 
REMARK    5  A    between atoms: C_15  and  C_16 
REMARK       I    between atoms: C_16  and  N_18 
REMARK    6  A    between atoms: N_18  and  C_20 
ROOT
HETATM    1  C   UNL     1       7.252  -4.815  24.135  1.00  0.00     0.076 C 
HETATM    2  C   UNL     1       7.680  -5.730  22.760  1.00  0.00     0.003 C 
HETATM    3  C   UNL     1       6.941  -5.922  21.932  1.00  0.00    -0.002 C 
HETATM    4  C   UNL     1       5.651  -5.607  21.776  1.00  0.00    -0.001 C 
HETATM    5  C   UNL     1       5.118  -5.007  22.956  1.00  0.00    -0.002 C 
HETATM    6  C   UNL     1       5.571  -4.710  23.856  1.00  0.00     0.003 C 
ENDROOT
BRANCH   1   7
HETATM    7  C   UNL     1       7.640  -5.015  25.323  1.00  0.00     0.021 C 
BRANCH   7   8
HETATM    8  C   UNL     1       7.524  -5.364  26.476  1.00  0.00     0.098 C 
HETATM    9  N   UNL     1       7.627  -6.052  27.434  1.00  0.00    -0.296 N 
ATOM     10  HN  UNL     1       8.491  -6.576  27.571  1.00  0.00     0.177 HD
BRANCH   9  11
HETATM   11  S   UNL     1       6.434  -6.195  28.547  1.00  0.00     0.226 S 
HETATM   12  C   UNL     1       4.937  -5.949  27.497  1.00  0.00     0.186 C 
HETATM   13  O   UNL     1       6.339  -7.531  29.088  1.00  0.00    -0.206 OA
HETATM   14  O   UNL     1       6.415  -5.182  29.520  1.00  0.00    -0.206 OA
ENDBRANCH   9  11
ENDBRANCH   7   8
ENDBRANCH   1   7
BRANCH   1  15
HETATM   15  C   UNL     1       7.722  -3.701  24.080  1.00  0.00    -0.061 C 
BRANCH  15  16
HETATM   16  C   UNL     1       8.213  -2.454  24.126  1.00  0.00     0.290 C 
HETATM   17  O   UNL     1       7.574  -1.656  24.641  1.00  0.00    -0.259 OA
HETATM   18  N   UNL     1       9.366  -2.413  23.539  1.00  0.00    -0.314 N 
ATOM     19  HN  UNL     1       9.774  -3.248  23.120  1.00  0.00     0.170 HD
BRANCH  18  20
HETATM   20  C   UNL     1       9.966  -1.311  23.503  1.00  0.00     0.072 A 
HETATM   21  C   UNL     1      10.893  -0.710  24.193  1.00  0.00     0.119 A 
HETATM   22  N   UNL     1      11.671   0.299  24.364  1.00  0.00    -0.373 N 
HETATM   23  C   UNL     1      11.274   0.941  23.397  1.00  0.00     0.089 A 
ATOM     24  HN  UNL     1      12.382   0.498  25.069  1.00  0.00     0.164 HD
HETATM   25  C   UNL     1      10.474   0.722  22.527  1.00  0.00     0.043 A 
HETATM   26  C   UNL     1       9.689  -0.333  22.328  1.00  0.00     0.063 A 
HETATM   27 CL   UNL     1       8.684  -0.613  21.161  1.00  0.00    -0.082 Cl
ENDBRANCH  18  20
ENDBRANCH  15  16
ENDBRANCH   1  15
TORSDOF 6
ENDMDL
MODEL 4
REMARK VINA RESULT:    -6.622      1.551      1.635
REMARK INTER + INTRA:          -9.937
REMARK INTER:                  -9.388
REMARK INTRA:                  -0.549
REMARK UNBOUND:                -0.991
REMARK  6 active torsions:
REMARK  status: ('A' for Active; 'I' for Inactive)
REMARK    1  A    between atoms: S_2  and  N_5 
REMARK    2  A    between atoms: C_7  and  C_8 
REMARK    3  A    between atoms: C_8  and  C_9 
REMARK    4  A    between atoms: C_9  and  C_15 
REMARK    5  A    between atoms: C_15  and  C_16 
REMARK       I    between atoms: C_16  and  N_18 
REMARK    6  A    between atoms: N_18  and  C_20 
ROOT
HETATM    1  C   UNL     1       9.661  -1.270  23.384  1.00  0.00     0.076 C 
HETATM    2  C   UNL     1       9.628  -0.224  24.732  1.00  0.00     0.003 C 
HETATM    3  C   UNL     1      10.563   0.284  25.101  1.00  0.00    -0.002 C 
HETATM    4  C   UNL     1      11.842   0.219  24.719  1.00  0.00    -0.001 C 
HETATM    5  C   UNL     1      12.034  -0.780  23.719  1.00  0.00    -0.002 C 
HETATM    6  C   UNL     1      11.353  -1.389  23.198  1.00  0.00     0.003 C 
ENDROOT
BRANCH   1   7
HETATM    7  C   UNL     1       8.977  -2.324  23.232  1.00  0.00     0.021 C 
BRANCH   7   8
HETATM    8  C   UNL     1       8.048  -3.074  23.435  1.00  0.00     0.098 C 
HETATM    9  N   UNL     1       6.940  -3.413  23.674  1.00  0.00    -0.296 N 
ATOM     10  HN  UNL     1       6.167  -2.884  23.271  1.00  0.00     0.177 HD
BRANCH   9  11
HETATM   11  S   UNL     1       6.601  -4.700  24.629  1.00  0.00     0.226 S 
HETATM   12  C   UNL     1       5.920  -5.890  23.394  1.00  0.00     0.186 C 
HETATM   13  O   UNL     1       7.790  -5.313  25.175  1.00  0.00    -0.206 OA
HETATM   14  O   UNL     1       5.587  -4.477  25.576  1.00  0.00    -0.206 OA
ENDBRANCH   9  11
ENDBRANCH   7   8
ENDBRANCH   1   7
BRANCH   1  15
HETATM   15  C   UNL     1       9.203  -0.730  22.403  1.00  0.00    -0.061 C 
BRANCH  15  16
HETATM   16  C   UNL     1       8.605  -0.196  21.328  1.00  0.00     0.290 C 
HETATM   17  O   UNL     1       9.259   0.410  20.609  1.00  0.00    -0.259 OA
HETATM   18  N   UNL     1       7.345  -0.489  21.333  1.00  0.00    -0.314 N 
ATOM     19  HN  UNL     1       6.936  -1.045  22.084  1.00  0.00     0.170 HD
BRANCH  18  20
HETATM   20  C   UNL     1       6.641  -0.069  20.383  1.00  0.00     0.072 A 
HETATM   21  C   UNL     1       6.188  -0.536  19.256  1.00  0.00     0.119 A 
HETATM   22  N   UNL     1       5.478  -0.382  18.194  1.00  0.00    -0.373 N 
HETATM   23  C   UNL     1       5.119   0.766  18.437  1.00  0.00     0.089 A 
ATOM     24  HN  UNL     1       5.280  -1.005  17.411  1.00  0.00     0.164 HD
HETATM   25  C   UNL     1       5.297   1.513  19.363  1.00  0.00     0.043 A 
HETATM   26  C   UNL     1       6.004   1.346  20.478  1.00  0.00     0.063 A 
HETATM   27 CL   UNL     1       6.185   2.320  21.689  1.00  0.00    -0.082 Cl
ENDBRANCH  18  20
ENDBRANCH  15  16
ENDBRANCH   1  15
TORSDOF 6
ENDMDL
MODEL 5
REMARK VINA RESULT:    -6.558      3.308      6.497
REMARK INTER + INTRA:          -9.849
REMARK INTER:                  -9.216
REMARK INTRA:                  -0.634
REMARK UNBOUND:                -0.991
REMARK  6 active torsions:
REMARK  status: ('A' for Active; 'I' for Inactive)
REMARK    1  A    between atoms: S_2  and  N_5 
REMARK    2  A    between atoms: C_7  and  C_8 
REMARK    3  A    between atoms: C_8  and  C_9 
REMARK    4  A    between atoms: C_9  and  C_15 
REMARK    5  A    between atoms: C_15  and  C_16 
REMARK       I    between atoms: C_16  and  N_18 
REMARK    6  A    between atoms: N_18  and  C_20 
ROOT
HETATM    1  C   UNL     1       7.331   0.562  20.726  1.00  0.00     0.076 C 
HETATM    2  C   UNL     1       5.887   1.465  20.820  1.00  0.00     0.003 C 
HETATM    3  C   UNL     1       5.212   1.586  19.926  1.00  0.00    -0.002 C 
HETATM    4  C   UNL     1       5.310   1.182  18.656  1.00  0.00    -0.001 C 
HETATM    5  C   UNL     1       6.579   0.580  18.399  1.00  0.00    -0.002 C 
HETATM    6  C   UNL     1       7.380   0.338  19.035  1.00  0.00     0.003 C 
ENDROOT
BRANCH   1   7
HETATM    7  C   UNL     1       8.421   0.820  21.318  1.00  0.00     0.021 C 
BRANCH   7   8
HETATM    8  C   UNL     1       9.214   1.514  21.912  1.00  0.00     0.098 C 
HETATM    9  N   UNL     1      10.230   2.079  22.138  1.00  0.00    -0.296 N 
ATOM     10  HN  UNL     1      10.733   2.512  21.364  1.00  0.00     0.177 HD
BRANCH   9  11
HETATM   11  S   UNL     1      10.857   2.191  23.646  1.00  0.00     0.226 S 
HETATM   12  C   UNL     1      11.537   3.907  23.622  1.00  0.00     0.186 C 
HETATM   13  O   UNL     1       9.840   2.169  24.672  1.00  0.00    -0.206 OA
HETATM   14  O   UNL     1      11.940   1.332  23.897  1.00  0.00    -0.206 OA
ENDBRANCH   9  11
ENDBRANCH   7   8
ENDBRANCH   1   7
BRANCH   1  15
HETATM   15  C   UNL     1       7.204  -0.519  21.254  1.00  0.00    -0.061 C 
BRANCH  15  16
HETATM   16  C   UNL     1       7.156  -1.747  21.789  1.00  0.00     0.290 C 
HETATM   17  O   UNL     1       8.132  -2.177  22.208  1.00  0.00    -0.259 OA
HETATM   18  N   UNL     1       5.952  -2.217  21.710  1.00  0.00    -0.314 N 
ATOM     19  HN  UNL     1       5.203  -1.674  21.281  1.00  0.00     0.170 HD
BRANCH  18  20
HETATM   20  C   UNL     1       5.737  -3.362  22.177  1.00  0.00     0.072 A 
HETATM   21  C   UNL     1       5.839  -4.592  21.764  1.00  0.00     0.119 A 
HETATM   22  N   UNL     1       5.746  -5.853  21.997  1.00  0.00    -0.373 N 
HETATM   23  C   UNL     1       5.366  -5.748  23.158  1.00  0.00     0.089 A 
ATOM     24  HN  UNL     1       5.928  -6.669  21.411  1.00  0.00     0.164 HD
HETATM   25  C   UNL     1       5.181  -4.811  23.890  1.00  0.00     0.043 A 
HETATM   26  C   UNL     1       5.306  -3.507  23.663  1.00  0.00     0.063 A 
HETATM   27 CL   UNL     1       5.100  -2.308  24.647  1.00  0.00    -0.082 Cl
ENDBRANCH  18  20
ENDBRANCH  15  16
ENDBRANCH   1  15
TORSDOF 6
ENDMDL
MODEL 6
REMARK VINA RESULT:    -6.358     15.050     16.230
REMARK INTER + INTRA:          -9.579
REMARK INTER:                  -8.745
REMARK INTRA:                  -0.834
REMARK UNBOUND:                -0.991
REMARK  6 active torsions:
REMARK  status: ('A' for Active; 'I' for Inactive)
REMARK    1  A    between atoms: S_2  and  N_5 
REMARK    2  A    between atoms: C_7  and  C_8 
REMARK    3  A    between atoms: C_8  and  C_9 
REMARK    4  A    between atoms: C_9  and  C_15 
REMARK    5  A    between atoms: C_15  and  C_16 
REMARK       I    between atoms: C_16  and  N_18 
REMARK    6  A    between atoms: N_18  and  C_20 
ROOT
HETATM    1  C   UNL     1      23.190  -1.531  23.707  1.00  0.00     0.076 C 
HETATM    2  C   UNL     1      21.734  -1.329  24.572  1.00  0.00     0.003 C 
HETATM    3  C   UNL     1      21.467  -0.342  25.046  1.00  0.00    -0.002 C 
HETATM    4  C   UNL     1      22.115   0.823  25.141  1.00  0.00    -0.001 C 
HETATM    5  C   UNL     1      23.441   0.722  24.623  1.00  0.00    -0.002 C 
HETATM    6  C   UNL     1      23.942  -0.058  24.127  1.00  0.00     0.003 C 
ENDROOT
BRANCH   1   7
HETATM    7  C   UNL     1      23.911  -2.572  23.678  1.00  0.00     0.021 C 
BRANCH   7   8
HETATM    8  C   UNL     1      24.175  -3.735  23.884  1.00  0.00     0.098 C 
HETATM    9  N   UNL     1      24.176  -4.908  23.723  1.00  0.00    -0.296 N 
ATOM     10  HN  UNL     1      24.214  -5.274  22.772  1.00  0.00     0.177 HD
BRANCH   9  11
HETATM   11  S   UNL     1      24.121  -5.967  24.972  1.00  0.00     0.226 S 
HETATM   12  C   UNL     1      25.843  -5.840  25.622  1.00  0.00     0.186 C 
HETATM   13  O   UNL     1      23.249  -5.524  26.035  1.00  0.00    -0.206 OA
HETATM   14  O   UNL     1      23.929  -7.307  24.597  1.00  0.00    -0.206 OA
ENDBRANCH   9  11
ENDBRANCH   7   8
ENDBRANCH   1   7
BRANCH   1  15
HETATM   15  C   UNL     1      22.991  -1.535  22.514  1.00  0.00    -0.061 C 
BRANCH  15  16
HETATM   16  C   UNL     1      22.700  -1.623  21.207  1.00  0.00     0.290 C 
HETATM   17  O   UNL     1      21.632  -1.922  20.925  1.00  0.00    -0.259 OA
HETATM   18  N   UNL     1      23.749  -1.342  20.502  1.00  0.00    -0.314 N 
ATOM     19  HN  UNL     1      24.635  -1.105  20.948  1.00  0.00     0.170 HD
BRANCH  18  20
HETATM   20  C   UNL     1      23.640  -1.371  19.252  1.00  0.00     0.072 A 
HETATM   21  C   UNL     1      23.302  -0.541  18.308  1.00  0.00     0.119 A 
HETATM   22  N   UNL     1      23.148  -0.285  17.057  1.00  0.00    -0.373 N 
HETATM   23  C   UNL     1      23.481  -1.394  16.651  1.00  0.00     0.089 A 
ATOM     24  HN  UNL     1      22.850   0.558  16.566  1.00  0.00     0.164 HD
HETATM   25  C   UNL     1      23.876  -2.393  17.192  1.00  0.00     0.043 A 
HETATM   26  C   UNL     1      24.066  -2.652  18.482  1.00  0.00     0.063 A 
HETATM   27 CL   UNL     1      24.622  -3.949  19.159  1.00  0.00    -0.082 Cl
ENDBRANCH  18  20
ENDBRANCH  15  16
ENDBRANCH   1  15
TORSDOF 6
ENDMDL
MODEL 7
REMARK VINA RESULT:    -5.938      2.913      3.433
REMARK INTER + INTRA:          -9.013
REMARK INTER:                  -8.370
REMARK INTRA:                  -0.643
REMARK UNBOUND:                -0.991
REMARK  6 active torsions:
REMARK  status: ('A' for Active; 'I' for Inactive)
REMARK    1  A    between atoms: S_2  and  N_5 
REMARK    2  A    between atoms: C_7  and  C_8 
REMARK    3  A    between atoms: C_8  and  C_9 
REMARK    4  A    between atoms: C_9  and  C_15 
REMARK    5  A    between atoms: C_15  and  C_16 
REMARK       I    between atoms: C_16  and  N_18 
REMARK    6  A    between atoms: N_18  and  C_20 
ROOT
HETATM    1  C   UNL     1       9.441  -0.784  23.368  1.00  0.00     0.076 C 
HETATM    2  C   UNL     1      10.374  -0.366  24.734  1.00  0.00     0.003 C 
HETATM    3  C   UNL     1      11.499  -0.386  24.702  1.00  0.00    -0.002 C 
HETATM    4  C   UNL     1      12.374  -0.744  23.756  1.00  0.00    -0.001 C 
HETATM    5  C   UNL     1      11.711  -1.305  22.624  1.00  0.00    -0.002 C 
HETATM    6  C   UNL     1      10.692  -1.403  22.386  1.00  0.00     0.003 C 
ENDROOT
BRANCH   1   7
HETATM    7  C   UNL     1       8.335  -1.401  23.371  1.00  0.00     0.021 C 
BRANCH   7   8
HETATM    8  C   UNL     1       7.305  -1.818  22.892  1.00  0.00     0.098 C 
HETATM    9  N   UNL     1       6.154  -2.087  22.820  1.00  0.00    -0.296 N 
ATOM     10  HN  UNL     1       5.474  -1.442  23.222  1.00  0.00     0.177 HD
BRANCH   9  11
HETATM   11  S   UNL     1       5.614  -3.455  22.100  1.00  0.00     0.226 S 
HETATM   12  C   UNL     1       7.020  -4.606  22.423  1.00  0.00     0.186 C 
HETATM   13  O   UNL     1       4.464  -4.017  22.770  1.00  0.00    -0.206 OA
HETATM   14  O   UNL     1       5.477  -3.368  20.704  1.00  0.00    -0.206 OA
ENDBRANCH   9  11
ENDBRANCH   7   8
ENDBRANCH   1   7
BRANCH   1  15
HETATM   15  C   UNL     1       8.984   0.202  22.834  1.00  0.00    -0.061 C 
BRANCH  15  16
HETATM   16  C   UNL     1       8.559   1.352  22.292  1.00  0.00     0.290 C 
HETATM   17  O   UNL     1       8.696   1.484  21.163  1.00  0.00    -0.259 OA
HETATM   18  N   UNL     1       8.061   2.116  23.211  1.00  0.00    -0.314 N 
ATOM     19  HN  UNL     1       8.038   1.819  24.187  1.00  0.00     0.170 HD
BRANCH  18  20
HETATM   20  C   UNL     1       7.608   3.233  22.864  1.00  0.00     0.072 A 
HETATM   21  C   UNL     1       6.536   3.684  22.280  1.00  0.00     0.119 A 
HETATM   22  N   UNL     1       5.831   4.677  21.864  1.00  0.00    -0.373 N 
HETATM   23  C   UNL     1       6.620   5.553  22.203  1.00  0.00     0.089 A 
ATOM     24  HN  UNL     1       4.920   4.721  21.407  1.00  0.00     0.164 HD
HETATM   25  C   UNL     1       7.677   5.542  22.778  1.00  0.00     0.043 A 
HETATM   26  C   UNL     1       8.395   4.521  23.237  1.00  0.00     0.063 A 
HETATM   27 CL   UNL     1       9.749   4.536  24.021  1.00  0.00    -0.082 Cl
ENDBRANCH  18  20
ENDBRANCH  15  16
ENDBRANCH   1  15
TORSDOF 6
ENDMDL
MODEL 8
REMARK VINA RESULT:    -5.895      3.102      3.748
REMARK INTER + INTRA:          -8.955
REMARK INTER:                  -8.397
REMARK INTRA:                  -0.558
REMARK UNBOUND:                -0.991
REMARK  6 active torsions:
REMARK  status: ('A' for Active; 'I' for Inactive)
REMARK    1  A    between atoms: S_2  and  N_5 
REMARK    2  A    between atoms: C_7  and  C_8 
REMARK    3  A    between atoms: C_8  and  C_9 
REMARK    4  A    between atoms: C_9  and  C_15 
REMARK    5  A    between atoms: C_15  and  C_16 
REMARK       I    between atoms: C_16  and  N_18 
REMARK    6  A    between atoms: N_18  and  C_20 
ROOT
HETATM    1  C   UNL     1       9.365   2.470  24.079  1.00  0.00     0.076 C 
HETATM    2  C   UNL     1       9.031   4.121  24.344  1.00  0.00     0.003 C 
HETATM    3  C   UNL     1       9.804   4.915  24.140  1.00  0.00    -0.002 C 
HETATM    4  C   UNL     1      11.078   4.858  23.740  1.00  0.00    -0.001 C 
HETATM    5  C   UNL     1      11.541   3.510  23.674  1.00  0.00    -0.002 C 
HETATM    6  C   UNL     1      11.045   2.592  23.802  1.00  0.00     0.003 C 
ENDROOT
BRANCH   1   7
HETATM    7  C   UNL     1       8.954   1.496  24.777  1.00  0.00     0.021 C 
BRANCH   7   8
HETATM    8  C   UNL     1       8.849   0.332  25.091  1.00  0.00     0.098 C 
HETATM    9  N   UNL     1       9.186  -0.748  25.437  1.00  0.00    -0.296 N 
ATOM     10  HN  UNL     1       9.926  -0.833  26.134  1.00  0.00     0.177 HD
BRANCH   9  11
HETATM   11  S   UNL     1       8.508  -2.114  24.839  1.00  0.00     0.226 S 
HETATM   12  C   UNL     1       8.607  -3.231  26.305  1.00  0.00     0.186 C 
HETATM   13  O   UNL     1       7.104  -1.952  24.543  1.00  0.00    -0.206 OA
HETATM   14  O   UNL     1       9.241  -2.732  23.812  1.00  0.00    -0.206 OA
ENDBRANCH   9  11
ENDBRANCH   7   8
ENDBRANCH   1   7
BRANCH   1  15
HETATM   15  C   UNL     1       8.835   2.075  23.066  1.00  0.00    -0.061 C 
BRANCH  15  16
HETATM   16  C   UNL     1       8.346   1.651  21.891  1.00  0.00     0.290 C 
HETATM   17  O   UNL     1       9.095   1.457  21.048  1.00  0.00    -0.259 OA
HETATM   18  N   UNL     1       7.057   1.552  21.961  1.00  0.00    -0.314 N 
ATOM     19  HN  UNL     1       6.556   1.787  22.818  1.00  0.00     0.170 HD
BRANCH  18  20
HETATM   20  C   UNL     1       6.443   1.156  20.941  1.00  0.00     0.072 A 
HETATM   21  C   UNL     1       5.775   1.698  19.964  1.00  0.00     0.119 A 
HETATM   22  N   UNL     1       5.129   1.578  18.858  1.00  0.00    -0.373 N 
HETATM   23  C   UNL     1       5.227   0.357  18.778  1.00  0.00     0.089 A 
ATOM     24  HN  UNL     1       4.684   2.266  18.251  1.00  0.00     0.164 HD
HETATM   25  C   UNL     1       5.776  -0.478  19.448  1.00  0.00     0.043 A 
HETATM   26  C   UNL     1       6.471  -0.354  20.575  1.00  0.00     0.063 A 
HETATM   27 CL   UNL     1       7.212  -1.453  21.406  1.00  0.00    -0.082 Cl
ENDBRANCH  18  20
ENDBRANCH  15  16
ENDBRANCH   1  15
TORSDOF 6
ENDMDL
MODEL 9
REMARK VINA RESULT:    -5.851     22.823     25.207
REMARK INTER + INTRA:          -8.895
REMARK INTER:                  -7.911
REMARK INTRA:                  -0.983
REMARK UNBOUND:                -0.991
REMARK  6 active torsions:
REMARK  status: ('A' for Active; 'I' for Inactive)
REMARK    1  A    between atoms: S_2  and  N_5 
REMARK    2  A    between atoms: C_7  and  C_8 
REMARK    3  A    between atoms: C_8  and  C_9 
REMARK    4  A    between atoms: C_9  and  C_15 
REMARK    5  A    between atoms: C_15  and  C_16 
REMARK       I    between atoms: C_16  and  N_18 
REMARK    6  A    between atoms: N_18  and  C_20 
ROOT
HETATM    1  C   UNL     1       8.158  14.003   3.366  1.00  0.00     0.076 C 
HETATM    2  C   UNL     1       6.658  14.212   4.150  1.00  0.00     0.003 C 
HETATM    3  C   UNL     1       6.148  13.356   4.675  1.00  0.00    -0.002 C 
HETATM    4  C   UNL     1       6.452  12.061   4.805  1.00  0.00    -0.001 C 
HETATM    5  C   UNL     1       7.592  11.716   4.020  1.00  0.00    -0.002 C 
HETATM    6  C   UNL     1       8.253  12.301   3.448  1.00  0.00     0.003 C 
ENDROOT
BRANCH   1   7
HETATM    7  C   UNL     1       8.531  14.562   2.292  1.00  0.00     0.021 C 
BRANCH   7   8
HETATM    8  C   UNL     1       8.741  15.495   1.551  1.00  0.00     0.098 C 
HETATM    9  N   UNL     1       9.360  16.269   0.903  1.00  0.00    -0.296 N 
ATOM     10  HN  UNL     1      10.179  15.937   0.393  1.00  0.00     0.177 HD
BRANCH   9  11
HETATM   11  S   UNL     1       8.951  17.851   0.794  1.00  0.00     0.226 S 
HETATM   12  C   UNL     1       8.497  18.223   2.544  1.00  0.00     0.186 C 
HETATM   13  O   UNL     1      10.080  18.694   0.476  1.00  0.00    -0.206 OA
HETATM   14  O   UNL     1       7.809  18.109   0.018  1.00  0.00    -0.206 OA
ENDBRANCH   9  11
ENDBRANCH   7   8
ENDBRANCH   1   7
BRANCH   1  15
HETATM   15  C   UNL     1       9.061  14.471   4.021  1.00  0.00    -0.061 C 
BRANCH  15  16
HETATM   16  C   UNL     1       9.987  15.056   4.796  1.00  0.00     0.290 C 
HETATM   17  O   UNL     1      10.966  14.488   4.965  1.00  0.00    -0.259 OA
HETATM   18  N   UNL     1       9.551  16.200   5.216  1.00  0.00    -0.314 N 
ATOM     19  HN  UNL     1       8.623  16.537   4.959  1.00  0.00     0.170 HD
BRANCH  18  20
HETATM   20  C   UNL     1      10.307  16.882   5.951  1.00  0.00     0.072 A 
HETATM   21  C   UNL     1      11.201  17.814   5.789  1.00  0.00     0.119 A 
HETATM   22  N   UNL     1      12.031  18.656   6.295  1.00  0.00    -0.373 N 
HETATM   23  C   UNL     1      11.829  18.357   7.468  1.00  0.00     0.089 A 
ATOM     24  HN  UNL     1      12.651  19.343   5.865  1.00  0.00     0.164 HD
HETATM   25  C   UNL     1      11.082  17.587   8.011  1.00  0.00     0.043 A 
HETATM   26  C   UNL     1      10.199  16.737   7.494  1.00  0.00     0.063 A 
HETATM   27 CL   UNL     1       9.206  15.774   8.227  1.00  0.00    -0.082 Cl
ENDBRANCH  18  20
ENDBRANCH  15  16
ENDBRANCH   1  15
TORSDOF 6
ENDMDL
