MODEL 1
REMARK VINA RESULT:    -7.836      0.000      0.000
REMARK INTER + INTRA:         -10.885
REMARK INTER:                 -10.126
REMARK INTRA:                  -0.759
REMARK UNBOUND:                -0.759
REMARK  5 active torsions:
REMARK  status: ('A' for Active; 'I' for Inactive)
REMARK    1  A    between atoms: S_2  and  N_5 
REMARK    2  A    between atoms: N_5  and  C_7 
REMARK    3  A    between atoms: C_7  and  C_8 
REMARK    4  A    between atoms: C_15  and  C_16 
REMARK       I    between atoms: C_16  and  N_18 
REMARK    5  A    between atoms: N_18  and  C_20 
ROOT
HETATM    1  C   UNL     1       8.865  -2.447  23.377  1.00  0.00     0.040 A 
HETATM    2  C   UNL     1       9.564  -1.286  23.451  1.00  0.00     0.066 A 
HETATM    3  C   UNL     1       9.788  -0.273  24.608  1.00  0.00    -0.003 C 
HETATM    4  C   UNL     1      10.708   0.287  24.897  1.00  0.00    -0.002 C 
HETATM    5  C   UNL     1      11.912   0.171  24.446  1.00  0.00    -0.001 C 
HETATM    6  C   UNL     1      12.042  -0.928  23.460  1.00  0.00    -0.002 C 
HETATM    7  C   UNL     1      11.314  -1.555  23.108  1.00  0.00    -0.003 C 
HETATM    8  C   UNL     1       9.080  -0.954  22.428  1.00  0.00     0.049 A 
ENDROOT
BRANCH   8   9
HETATM    9  C   UNL     1       8.555  -0.306  21.328  1.00  0.00     0.255 C 
HETATM   10  O   UNL     1       9.268   0.361  20.696  1.00  0.00    -0.268 OA
HETATM   11  N   UNL     1       7.279  -0.604  21.206  1.00  0.00    -0.321 N 
ATOM     12  HN  UNL     1       6.813  -1.155  21.927  1.00  0.00     0.169 HD
BRANCH  11  13
HETATM   13  C   UNL     1       6.633  -0.210  20.204  1.00  0.00     0.056 A 
HETATM   14  C   UNL     1       6.311  -0.554  18.992  1.00  0.00     0.117 A 
HETATM   15  N   UNL     1       5.769  -0.413  17.879  1.00  0.00    -0.373 N 
HETATM   16  C   UNL     1       5.314   0.736  18.185  1.00  0.00     0.088 A 
ATOM     17  HN  UNL     1       5.711  -0.996  17.044  1.00  0.00     0.164 HD
HETATM   18  C   UNL     1       5.350   1.467  19.148  1.00  0.00     0.026 A 
HETATM   19  C   UNL     1       5.922   1.265  20.320  1.00  0.00    -0.033 A 
HETATM   20  C   UNL     1       5.987   2.043  21.534  1.00  0.00     0.050 C 
ENDBRANCH  11  13
ENDBRANCH   8   9
BRANCH   1  21
HETATM   21  C   UNL     1       8.469  -3.483  23.793  1.00  0.00    -0.022 C 
BRANCH  21  22
HETATM   22  N   UNL     1       7.936  -4.550  23.852  1.00  0.00    -0.249 N 
ATOM     23  HN  UNL     1       8.216  -5.122  24.649  1.00  0.00     0.188 HD
BRANCH  22  24
HETATM   24  S   UNL     1       6.832  -5.245  22.870  1.00  0.00     0.233 S 
HETATM   25  C   UNL     1       5.637  -5.817  23.813  1.00  0.00     0.186 C 
HETATM   26  O   UNL     1       6.235  -4.273  21.948  1.00  0.00    -0.205 OA
HETATM   27  O   UNL     1       7.425  -6.321  22.105  1.00  0.00    -0.205 OA
ENDBRANCH  22  24
ENDBRANCH  21  22
ENDBRANCH   1  21
TORSDOF 5
ENDMDL
MODEL 2
REMARK VINA RESULT:    -7.722      2.496      6.005
REMARK INTER + INTRA:         -10.738
REMARK INTER:                  -9.788
REMARK INTRA:                  -0.950
REMARK UNBOUND:                -0.759
REMARK  5 active torsions:
REMARK  status: ('A' for Active; 'I' for Inactive)
REMARK    1  A    between atoms: S_2  and  N_5 
REMARK    2  A    between atoms: N_5  and  C_7 
REMARK    3  A    between atoms: C_7  and  C_8 
REMARK    4  A    between atoms: C_15  and  C_16 
REMARK       I    between atoms: C_16  and  N_18 
REMARK    5  A    between atoms: N_18  and  C_20 
ROOT
HETATM    1  C   UNL     1       9.387  -0.111  22.755  1.00  0.00     0.040 A 
HETATM    2  C   UNL     1      10.436  -0.735  23.350  1.00  0.00     0.066 A 
HETATM    3  C   UNL     1      11.621  -1.561  22.778  1.00  0.00    -0.003 C 
HETATM    4  C   UNL     1      12.693  -1.575  23.083  1.00  0.00    -0.002 C 
HETATM    5  C   UNL     1      13.316  -0.812  23.917  1.00  0.00    -0.001 C 
HETATM    6  C   UNL     1      12.448   0.262  24.458  1.00  0.00    -0.002 C 
HETATM    7  C   UNL     1      11.459   0.438  24.262  1.00  0.00    -0.003 C 
HETATM    8  C   UNL     1       9.688  -1.195  24.138  1.00  0.00     0.049 A 
ENDROOT
BRANCH   8   9
HETATM    9  C   UNL     1       9.003  -1.939  25.077  1.00  0.00     0.255 C 
HETATM   10  O   UNL     1       8.610  -1.391  26.025  1.00  0.00    -0.268 OA
HETATM   11  N   UNL     1       8.921  -3.190  24.678  1.00  0.00    -0.321 N 
ATOM     12  HN  UNL     1       9.414  -3.489  23.836  1.00  0.00     0.169 HD
BRANCH  11  13
HETATM   13  C   UNL     1       8.239  -4.016  25.331  1.00  0.00     0.056 A 
HETATM   14  C   UNL     1       8.318  -4.855  26.321  1.00  0.00     0.117 A 
HETATM   15  N   UNL     1       7.893  -5.717  27.114  1.00  0.00    -0.373 N 
HETATM   16  C   UNL     1       6.743  -5.730  26.569  1.00  0.00     0.088 A 
ATOM     17  HN  UNL     1       8.308  -6.220  27.899  1.00  0.00     0.164 HD
HETATM   18  C   UNL     1       6.200  -5.163  25.648  1.00  0.00     0.026 A 
HETATM   19  C   UNL     1       6.687  -4.236  24.845  1.00  0.00    -0.033 A 
HETATM   20  C   UNL     1       6.119  -3.475  23.759  1.00  0.00     0.050 C 
ENDBRANCH  11  13
ENDBRANCH   8   9
BRANCH   1  21
HETATM   21  C   UNL     1       8.868   0.529  21.904  1.00  0.00    -0.022 C 
BRANCH  21  22
HETATM   22  N   UNL     1       8.032   1.050  21.231  1.00  0.00    -0.249 N 
ATOM     23  HN  UNL     1       7.951   2.060  21.358  1.00  0.00     0.188 HD
BRANCH  22  24
HETATM   24  S   UNL     1       6.995   0.417  20.140  1.00  0.00     0.233 S 
HETATM   25  C   UNL     1       5.684   1.379  20.103  1.00  0.00     0.186 C 
HETATM   26  O   UNL     1       7.566   0.406  18.789  1.00  0.00    -0.205 OA
HETATM   27  O   UNL     1       6.616  -0.931  20.506  1.00  0.00    -0.205 OA
ENDBRANCH  22  24
ENDBRANCH  21  22
ENDBRANCH   1  21
TORSDOF 5
ENDMDL
MODEL 3
REMARK VINA RESULT:    -7.694      2.682      6.377
REMARK INTER + INTRA:         -10.701
REMARK INTER:                  -9.981
REMARK INTRA:                  -0.720
REMARK UNBOUND:                -0.759
REMARK  5 active torsions:
REMARK  status: ('A' for Active; 'I' for Inactive)
REMARK    1  A    between atoms: S_2  and  N_5 
REMARK    2  A    between atoms: N_5  and  C_7 
REMARK    3  A    between atoms: C_7  and  C_8 
REMARK    4  A    between atoms: C_15  and  C_16 
REMARK       I    between atoms: C_16  and  N_18 
REMARK    5  A    between atoms: N_18  and  C_20 
ROOT
HETATM    1  C   UNL     1       6.565  -2.216  21.754  1.00  0.00     0.040 A 
HETATM    2  C   UNL     1       6.660  -3.286  22.585  1.00  0.00     0.066 A 
HETATM    3  C   UNL     1       5.666  -3.909  23.603  1.00  0.00    -0.003 C 
HETATM    4  C   UNL     1       5.457  -4.980  23.831  1.00  0.00    -0.002 C 
HETATM    5  C   UNL     1       5.874  -6.042  23.227  1.00  0.00    -0.001 C 
HETATM    6  C   UNL     1       6.682  -5.726  22.025  1.00  0.00    -0.002 C 
HETATM    7  C   UNL     1       6.942  -4.807  21.658  1.00  0.00    -0.003 C 
HETATM    8  C   UNL     1       7.726  -2.906  22.918  1.00  0.00     0.049 A 
ENDROOT
BRANCH   8   9
HETATM    9  C   UNL     1       8.915  -2.597  23.546  1.00  0.00     0.255 C 
HETATM   10  O   UNL     1       9.161  -3.140  24.546  1.00  0.00    -0.268 OA
HETATM   11  N   UNL     1       9.573  -1.705  22.836  1.00  0.00    -0.321 N 
ATOM     12  HN  UNL     1       9.137  -1.287  22.014  1.00  0.00     0.169 HD
BRANCH  11  13
HETATM   13  C   UNL     1      10.735  -1.367  23.170  1.00  0.00     0.056 A 
HETATM   14  C   UNL     1      11.983  -1.688  23.002  1.00  0.00     0.117 A 
HETATM   15  N   UNL     1      13.213  -1.584  23.169  1.00  0.00    -0.373 N 
HETATM   16  C   UNL     1      13.077  -0.606  23.972  1.00  0.00     0.088 A 
ATOM     17  HN  UNL     1      14.021  -2.088  22.802  1.00  0.00     0.164 HD
HETATM   18  C   UNL     1      12.157   0.027  24.437  1.00  0.00     0.026 A 
HETATM   19  C   UNL     1      10.863  -0.107  24.213  1.00  0.00    -0.033 A 
HETATM   20  C   UNL     1       9.702   0.613  24.677  1.00  0.00     0.050 C 
ENDBRANCH  11  13
ENDBRANCH   8   9
BRANCH   1  21
HETATM   21  C   UNL     1       6.002  -1.496  21.001  1.00  0.00    -0.022 C 
BRANCH  21  22
HETATM   22  N   UNL     1       5.735  -0.546  20.329  1.00  0.00    -0.249 N 
ATOM     23  HN  UNL     1       5.058   0.093  20.746  1.00  0.00     0.188 HD
BRANCH  22  24
HETATM   24  S   UNL     1       6.272  -0.100  18.853  1.00  0.00     0.233 S 
HETATM   25  C   UNL     1       5.587   1.332  18.501  1.00  0.00     0.186 C 
HETATM   26  O   UNL     1       7.726   0.098  18.840  1.00  0.00    -0.205 OA
HETATM   27  O   UNL     1       5.918  -1.083  17.853  1.00  0.00    -0.205 OA
ENDBRANCH  22  24
ENDBRANCH  21  22
ENDBRANCH   1  21
TORSDOF 5
ENDMDL
MODEL 4
REMARK VINA RESULT:    -7.602      1.741      1.813
REMARK INTER + INTRA:         -10.583
REMARK INTER:                  -9.906
REMARK INTRA:                  -0.676
REMARK UNBOUND:                -0.759
REMARK  5 active torsions:
REMARK  status: ('A' for Active; 'I' for Inactive)
REMARK    1  A    between atoms: S_2  and  N_5 
REMARK    2  A    between atoms: N_5  and  C_7 
REMARK    3  A    between atoms: C_7  and  C_8 
REMARK    4  A    between atoms: C_15  and  C_16 
REMARK       I    between atoms: C_16  and  N_18 
REMARK    5  A    between atoms: N_18  and  C_20 
ROOT
HETATM    1  C   UNL     1       8.848  -2.169  23.781  1.00  0.00     0.040 A 
HETATM    2  C   UNL     1       9.658  -1.087  23.655  1.00  0.00     0.066 A 
HETATM    3  C   UNL     1      10.061   0.037  24.649  1.00  0.00    -0.003 C 
HETATM    4  C   UNL     1      11.048   0.532  24.803  1.00  0.00    -0.002 C 
HETATM    5  C   UNL     1      12.199   0.235  24.300  1.00  0.00    -0.001 C 
HETATM    6  C   UNL     1      12.152  -0.989  23.466  1.00  0.00    -0.002 C 
HETATM    7  C   UNL     1      11.344  -1.578  23.247  1.00  0.00    -0.003 C 
HETATM    8  C   UNL     1       9.133  -0.841  22.627  1.00  0.00     0.049 A 
ENDROOT
BRANCH   8   9
HETATM    9  C   UNL     1       8.592  -0.289  21.484  1.00  0.00     0.255 C 
HETATM   10  O   UNL     1       9.311   0.255  20.748  1.00  0.00    -0.268 OA
HETATM   11  N   UNL     1       7.296  -0.515  21.453  1.00  0.00    -0.321 N 
ATOM     12  HN  UNL     1       6.835  -0.950  22.253  1.00  0.00     0.169 HD
BRANCH  11  13
HETATM   13  C   UNL     1       6.625  -0.196  20.441  1.00  0.00     0.056 A 
HETATM   14  C   UNL     1       6.219  -0.654  19.294  1.00  0.00     0.117 A 
HETATM   15  N   UNL     1       5.630  -0.606  18.198  1.00  0.00    -0.373 N 
HETATM   16  C   UNL     1       5.264   0.599  18.386  1.00  0.00     0.088 A 
ATOM     17  HN  UNL     1       5.493  -1.275  17.440  1.00  0.00     0.164 HD
HETATM   18  C   UNL     1       5.395   1.432  19.253  1.00  0.00     0.026 A 
HETATM   19  C   UNL     1       6.014   1.327  20.414  1.00  0.00    -0.033 A 
HETATM   20  C   UNL     1       6.189   2.233  21.524  1.00  0.00     0.050 C 
ENDBRANCH  11  13
ENDBRANCH   8   9
BRANCH   1  21
HETATM   21  C   UNL     1       8.387  -3.097  24.356  1.00  0.00    -0.022 C 
BRANCH  21  22
HETATM   22  N   UNL     1       8.240  -4.197  24.794  1.00  0.00    -0.249 N 
ATOM     23  HN  UNL     1       8.567  -4.946  24.183  1.00  0.00     0.188 HD
BRANCH  22  24
HETATM   24  S   UNL     1       7.601  -4.704  26.209  1.00  0.00     0.233 S 
HETATM   25  C   UNL     1       6.551  -3.565  26.701  1.00  0.00     0.186 C 
HETATM   26  O   UNL     1       6.847  -5.953  26.049  1.00  0.00    -0.205 OA
HETATM   27  O   UNL     1       8.633  -4.898  27.204  1.00  0.00    -0.205 OA
ENDBRANCH  22  24
ENDBRANCH  21  22
ENDBRANCH   1  21
TORSDOF 5
ENDMDL
MODEL 5
REMARK VINA RESULT:    -7.583      3.964      5.999
REMARK INTER + INTRA:         -10.559
REMARK INTER:                  -9.841
REMARK INTRA:                  -0.718
REMARK UNBOUND:                -0.759
REMARK  5 active torsions:
REMARK  status: ('A' for Active; 'I' for Inactive)
REMARK    1  A    between atoms: S_2  and  N_5 
REMARK    2  A    between atoms: N_5  and  C_7 
REMARK    3  A    between atoms: C_7  and  C_8 
REMARK    4  A    between atoms: C_15  and  C_16 
REMARK       I    between atoms: C_16  and  N_18 
REMARK    5  A    between atoms: N_18  and  C_20 
ROOT
HETATM    1  C   UNL     1       8.032  -4.735  25.331  1.00  0.00     0.040 A 
HETATM    2  C   UNL     1       7.656  -4.668  24.028  1.00  0.00     0.066 A 
HETATM    3  C   UNL     1       7.605  -5.736  22.900  1.00  0.00    -0.003 C 
HETATM    4  C   UNL     1       6.842  -5.895  22.102  1.00  0.00    -0.002 C 
HETATM    5  C   UNL     1       5.693  -5.330  21.946  1.00  0.00    -0.001 C 
HETATM    6  C   UNL     1       5.365  -4.400  23.054  1.00  0.00    -0.002 C 
HETATM    7  C   UNL     1       5.932  -4.163  23.872  1.00  0.00    -0.003 C 
HETATM    8  C   UNL     1       8.295  -3.684  23.915  1.00  0.00     0.049 A 
ENDROOT
BRANCH   8   9
HETATM    9  C   UNL     1       9.062  -2.609  23.515  1.00  0.00     0.255 C 
HETATM   10  O   UNL     1       9.107  -2.364  22.378  1.00  0.00    -0.268 OA
HETATM   11  N   UNL     1       9.611  -2.040  24.567  1.00  0.00    -0.321 N 
ATOM     12  HN  UNL     1       9.510  -2.467  25.488  1.00  0.00     0.169 HD
BRANCH  11  13
HETATM   13  C   UNL     1      10.260  -0.973  24.439  1.00  0.00     0.056 A 
HETATM   14  C   UNL     1      11.454  -0.523  24.192  1.00  0.00     0.117 A 
HETATM   15  N   UNL     1      12.324   0.353  24.024  1.00  0.00    -0.373 N 
HETATM   16  C   UNL     1      11.498   1.295  24.251  1.00  0.00     0.088 A 
ATOM     17  HN  UNL     1      13.317   0.326  23.793  1.00  0.00     0.164 HD
HETATM   18  C   UNL     1      10.323   1.385  24.526  1.00  0.00     0.026 A 
HETATM   19  C   UNL     1       9.431   0.424  24.674  1.00  0.00    -0.033 A 
HETATM   20  C   UNL     1       8.016   0.427  24.956  1.00  0.00     0.050 C 
ENDBRANCH  11  13
ENDBRANCH   8   9
BRANCH   1  21
HETATM   21  C   UNL     1       8.108  -5.248  26.395  1.00  0.00    -0.022 C 
BRANCH  21  22
HETATM   22  N   UNL     1       7.849  -5.914  27.352  1.00  0.00    -0.249 N 
ATOM     23  HN  UNL     1       8.616  -6.500  27.682  1.00  0.00     0.188 HD
BRANCH  22  24
HETATM   24  S   UNL     1       6.471  -6.043  28.219  1.00  0.00     0.233 S 
HETATM   25  C   UNL     1       5.235  -6.068  27.162  1.00  0.00     0.186 C 
HETATM   26  O   UNL     1       6.422  -7.298  28.978  1.00  0.00    -0.205 OA
HETATM   27  O   UNL     1       6.327  -4.930  29.132  1.00  0.00    -0.205 OA
ENDBRANCH  22  24
ENDBRANCH  21  22
ENDBRANCH   1  21
TORSDOF 5
ENDMDL
MODEL 6
REMARK VINA RESULT:    -7.244      2.602      6.498
REMARK INTER + INTRA:         -10.120
REMARK INTER:                  -9.255
REMARK INTRA:                  -0.865
REMARK UNBOUND:                -0.759
REMARK  5 active torsions:
REMARK  status: ('A' for Active; 'I' for Inactive)
REMARK    1  A    between atoms: S_2  and  N_5 
REMARK    2  A    between atoms: N_5  and  C_7 
REMARK    3  A    between atoms: C_7  and  C_8 
REMARK    4  A    between atoms: C_15  and  C_16 
REMARK       I    between atoms: C_16  and  N_18 
REMARK    5  A    between atoms: N_18  and  C_20 
ROOT
HETATM    1  C   UNL     1       7.659  -1.543  22.255  1.00  0.00     0.040 A 
HETATM    2  C   UNL     1       8.803  -1.779  22.948  1.00  0.00     0.066 A 
HETATM    3  C   UNL     1      10.291  -1.861  22.509  1.00  0.00    -0.003 C 
HETATM    4  C   UNL     1      11.208  -1.487  23.023  1.00  0.00    -0.002 C 
HETATM    5  C   UNL     1      11.311  -0.750  24.077  1.00  0.00    -0.001 C 
HETATM    6  C   UNL     1       9.991  -0.309  24.590  1.00  0.00    -0.002 C 
HETATM    7  C   UNL     1       9.062  -0.532  24.224  1.00  0.00    -0.003 C 
HETATM    8  C   UNL     1       8.268  -2.685  23.482  1.00  0.00     0.049 A 
ENDROOT
BRANCH   8   9
HETATM    9  C   UNL     1       7.902  -3.847  24.130  1.00  0.00     0.255 C 
HETATM   10  O   UNL     1       8.184  -4.861  23.633  1.00  0.00    -0.268 OA
HETATM   11  N   UNL     1       7.280  -3.551  25.252  1.00  0.00    -0.321 N 
ATOM     12  HN  UNL     1       7.058  -2.580  25.470  1.00  0.00     0.169 HD
BRANCH  11  13
HETATM   13  C   UNL     1       6.960  -4.463  26.053  1.00  0.00     0.056 A 
HETATM   14  C   UNL     1       7.448  -5.221  26.991  1.00  0.00     0.117 A 
HETATM   15  N   UNL     1       7.413  -6.110  27.862  1.00  0.00    -0.373 N 
HETATM   16  C   UNL     1       6.192  -6.375  27.621  1.00  0.00     0.088 A 
ATOM     17  HN  UNL     1       8.100  -6.482  28.518  1.00  0.00     0.164 HD
HETATM   18  C   UNL     1       5.338  -5.972  26.866  1.00  0.00     0.026 A 
HETATM   19  C   UNL     1       5.414  -5.007  25.969  1.00  0.00    -0.033 A 
HETATM   20  C   UNL     1       4.456  -4.427  25.060  1.00  0.00     0.050 C 
ENDBRANCH  11  13
ENDBRANCH   8   9
BRANCH   1  21
HETATM   21  C   UNL     1       7.003  -1.006  21.428  1.00  0.00    -0.022 C 
BRANCH  21  22
HETATM   22  N   UNL     1       6.158  -0.801  20.611  1.00  0.00    -0.249 N 
ATOM     23  HN  UNL     1       5.235  -1.162  20.854  1.00  0.00     0.188 HD
BRANCH  22  24
HETATM   24  S   UNL     1       6.232  -0.040  19.168  1.00  0.00     0.233 S 
HETATM   25  C   UNL     1       5.175   1.194  19.217  1.00  0.00     0.186 C 
HETATM   26  O   UNL     1       7.561   0.532  18.923  1.00  0.00    -0.205 OA
HETATM   27  O   UNL     1       5.898  -0.943  18.088  1.00  0.00    -0.205 OA
ENDBRANCH  22  24
ENDBRANCH  21  22
ENDBRANCH   1  21
TORSDOF 5
ENDMDL
MODEL 7
REMARK VINA RESULT:    -7.201      3.267      5.589
REMARK INTER + INTRA:         -10.064
REMARK INTER:                  -9.215
REMARK INTRA:                  -0.849
REMARK UNBOUND:                -0.759
REMARK  5 active torsions:
REMARK  status: ('A' for Active; 'I' for Inactive)
REMARK    1  A    between atoms: S_2  and  N_5 
REMARK    2  A    between atoms: N_5  and  C_7 
REMARK    3  A    between atoms: C_7  and  C_8 
REMARK    4  A    between atoms: C_15  and  C_16 
REMARK       I    between atoms: C_16  and  N_18 
REMARK    5  A    between atoms: N_18  and  C_20 
ROOT
HETATM    1  C   UNL     1       7.452  -4.659  25.540  1.00  0.00     0.040 A 
HETATM    2  C   UNL     1       7.134  -4.589  24.222  1.00  0.00     0.066 A 
HETATM    3  C   UNL     1       7.571  -5.437  22.995  1.00  0.00    -0.003 C 
HETATM    4  C   UNL     1       6.972  -5.790  22.123  1.00  0.00    -0.002 C 
HETATM    5  C   UNL     1       5.699  -5.721  21.923  1.00  0.00    -0.001 C 
HETATM    6  C   UNL     1       4.975  -5.148  23.083  1.00  0.00    -0.002 C 
HETATM    7  C   UNL     1       5.362  -4.806  23.967  1.00  0.00    -0.003 C 
HETATM    8  C   UNL     1       7.316  -3.424  24.261  1.00  0.00     0.049 A 
ENDROOT
BRANCH   8   9
HETATM    9  C   UNL     1       7.590  -2.090  24.035  1.00  0.00     0.255 C 
HETATM   10  O   UNL     1       7.323  -1.330  24.874  1.00  0.00    -0.268 OA
HETATM   11  N   UNL     1       8.141  -1.946  22.849  1.00  0.00    -0.321 N 
ATOM     12  HN  UNL     1       8.216  -2.747  22.221  1.00  0.00     0.169 HD
BRANCH  11  13
HETATM   13  C   UNL     1       8.573  -0.824  22.488  1.00  0.00     0.056 A 
HETATM   14  C   UNL     1       8.176   0.341  22.070  1.00  0.00     0.117 A 
HETATM   15  N   UNL     1       8.320   1.512  21.670  1.00  0.00    -0.373 N 
HETATM   16  C   UNL     1       9.589   1.429  21.714  1.00  0.00     0.088 A 
ATOM     17  HN  UNL     1       7.670   2.253  21.408  1.00  0.00     0.164 HD
HETATM   18  C   UNL     1      10.405   0.587  22.013  1.00  0.00     0.026 A 
HETATM   19  C   UNL     1      10.203  -0.640  22.455  1.00  0.00    -0.033 A 
HETATM   20  C   UNL     1      11.093  -1.696  22.875  1.00  0.00     0.050 C 
ENDBRANCH  11  13
ENDBRANCH   8   9
BRANCH   1  21
HETATM   21  C   UNL     1       7.690  -5.226  26.552  1.00  0.00    -0.022 C 
BRANCH  21  22
HETATM   22  N   UNL     1       7.632  -6.009  27.451  1.00  0.00    -0.249 N 
ATOM     23  HN  UNL     1       8.444  -6.621  27.535  1.00  0.00     0.188 HD
BRANCH  22  24
HETATM   24  S   UNL     1       6.468  -6.265  28.568  1.00  0.00     0.233 S 
HETATM   25  C   UNL     1       5.068  -6.476  27.769  1.00  0.00     0.186 C 
HETATM   26  O   UNL     1       6.717  -7.486  29.343  1.00  0.00    -0.205 OA
HETATM   27  O   UNL     1       6.363  -5.141  29.474  1.00  0.00    -0.205 OA
ENDBRANCH  22  24
ENDBRANCH  21  22
ENDBRANCH   1  21
TORSDOF 5
ENDMDL
MODEL 8
REMARK VINA RESULT:    -7.111      2.080      2.419
REMARK INTER + INTRA:          -9.948
REMARK INTER:                  -9.047
REMARK INTRA:                  -0.901
REMARK UNBOUND:                -0.759
REMARK  5 active torsions:
REMARK  status: ('A' for Active; 'I' for Inactive)
REMARK    1  A    between atoms: S_2  and  N_5 
REMARK    2  A    between atoms: N_5  and  C_7 
REMARK    3  A    between atoms: C_7  and  C_8 
REMARK    4  A    between atoms: C_15  and  C_16 
REMARK       I    between atoms: C_16  and  N_18 
REMARK    5  A    between atoms: N_18  and  C_20 
ROOT
HETATM    1  C   UNL     1       8.996  -1.873  25.015  1.00  0.00     0.040 A 
HETATM    2  C   UNL     1       9.768  -0.884  24.494  1.00  0.00     0.066 A 
HETATM    3  C   UNL     1      10.537   0.296  25.151  1.00  0.00    -0.003 C 
HETATM    4  C   UNL     1      11.541   0.715  24.908  1.00  0.00    -0.002 C 
HETATM    5  C   UNL     1      12.440   0.268  24.097  1.00  0.00    -0.001 C 
HETATM    6  C   UNL     1      12.055  -1.027  23.486  1.00  0.00    -0.002 C 
HETATM    7  C   UNL     1      11.193  -1.562  23.620  1.00  0.00    -0.003 C 
HETATM    8  C   UNL     1       8.941  -0.700  23.674  1.00  0.00     0.049 A 
ENDROOT
BRANCH   8   9
HETATM    9  C   UNL     1       8.074  -0.223  22.711  1.00  0.00     0.255 C 
HETATM   10  O   UNL     1       7.500   0.764  22.936  1.00  0.00    -0.268 OA
HETATM   11  N   UNL     1       8.085  -1.025  21.669  1.00  0.00    -0.321 N 
ATOM     12  HN  UNL     1       8.609  -1.900  21.705  1.00  0.00     0.169 HD
BRANCH  11  13
HETATM   13  C   UNL     1       7.451  -0.717  20.630  1.00  0.00     0.056 A 
HETATM   14  C   UNL     1       7.480   0.097  19.616  1.00  0.00     0.117 A 
HETATM   15  N   UNL     1       7.063   0.605  18.558  1.00  0.00    -0.373 N 
HETATM   16  C   UNL     1       6.028  -0.137  18.545  1.00  0.00     0.088 A 
ATOM     17  HN  UNL     1       7.416   1.334  17.938  1.00  0.00     0.164 HD
HETATM   18  C   UNL     1       5.563  -1.008  19.244  1.00  0.00     0.026 A 
HETATM   19  C   UNL     1       6.054  -1.531  20.352  1.00  0.00    -0.033 A 
HETATM   20  C   UNL     1       5.607  -2.589  21.226  1.00  0.00     0.050 C 
ENDBRANCH  11  13
ENDBRANCH   8   9
BRANCH   1  21
HETATM   21  C   UNL     1       8.712  -2.692  25.822  1.00  0.00    -0.022 C 
BRANCH  21  22
HETATM   22  N   UNL     1       8.102  -3.521  26.426  1.00  0.00    -0.249 N 
ATOM     23  HN  UNL     1       7.651  -3.182  27.276  1.00  0.00     0.188 HD
BRANCH  22  24
HETATM   24  S   UNL     1       7.869  -5.108  26.118  1.00  0.00     0.233 S 
HETATM   25  C   UNL     1       6.587  -5.225  25.125  1.00  0.00     0.186 C 
HETATM   26  O   UNL     1       9.017  -5.701  25.423  1.00  0.00    -0.205 OA
HETATM   27  O   UNL     1       7.624  -5.842  27.341  1.00  0.00    -0.205 OA
ENDBRANCH  22  24
ENDBRANCH  21  22
ENDBRANCH   1  21
TORSDOF 5
ENDMDL
MODEL 9
REMARK VINA RESULT:    -6.855      2.339      5.565
REMARK INTER + INTRA:          -9.618
REMARK INTER:                  -8.863
REMARK INTRA:                  -0.755
REMARK UNBOUND:                -0.759
REMARK  5 active torsions:
REMARK  status: ('A' for Active; 'I' for Inactive)
REMARK    1  A    between atoms: S_2  and  N_5 
REMARK    2  A    between atoms: N_5  and  C_7 
REMARK    3  A    between atoms: C_7  and  C_8 
REMARK    4  A    between atoms: C_15  and  C_16 
REMARK       I    between atoms: C_16  and  N_18 
REMARK    5  A    between atoms: N_18  and  C_20 
ROOT
HETATM    1  C   UNL     1       8.896  -0.820  21.700  1.00  0.00     0.040 A 
HETATM    2  C   UNL     1       9.792  -1.146  22.668  1.00  0.00     0.066 A 
HETATM    3  C   UNL     1      11.302  -1.506  22.613  1.00  0.00    -0.003 C 
HETATM    4  C   UNL     1      12.129  -1.220  23.305  1.00  0.00    -0.002 C 
HETATM    5  C   UNL     1      12.118  -0.388  24.292  1.00  0.00    -0.001 C 
HETATM    6  C   UNL     1      10.816   0.307  24.431  1.00  0.00    -0.002 C 
HETATM    7  C   UNL     1       9.970   0.189  23.868  1.00  0.00    -0.003 C 
HETATM    8  C   UNL     1       8.998  -1.889  23.123  1.00  0.00     0.049 A 
ENDROOT
BRANCH   8   9
HETATM    9  C   UNL     1       8.293  -2.896  23.750  1.00  0.00     0.255 C 
HETATM   10  O   UNL     1       8.731  -3.337  24.734  1.00  0.00    -0.268 OA
HETATM   11  N   UNL     1       7.198  -3.161  23.071  1.00  0.00    -0.321 N 
ATOM     12  HN  UNL     1       7.035  -2.708  22.171  1.00  0.00     0.169 HD
BRANCH  11  13
HETATM   13  C   UNL     1       6.353  -3.969  23.527  1.00  0.00     0.056 A 
HETATM   14  C   UNL     1       5.433  -4.084  24.439  1.00  0.00     0.117 A 
HETATM   15  N   UNL     1       4.539  -4.668  25.080  1.00  0.00    -0.373 N 
HETATM   16  C   UNL     1       4.687  -5.742  24.414  1.00  0.00     0.088 A 
ATOM     17  HN  UNL     1       3.923  -4.391  25.845  1.00  0.00     0.164 HD
HETATM   18  C   UNL     1       5.391  -6.124  23.508  1.00  0.00     0.026 A 
HETATM   19  C   UNL     1       6.315  -5.459  22.841  1.00  0.00    -0.033 A 
HETATM   20  C   UNL     1       7.170  -5.803  21.730  1.00  0.00     0.050 C 
ENDBRANCH  11  13
ENDBRANCH   8   9
BRANCH   1  21
HETATM   21  C   UNL     1       8.552  -0.289  20.699  1.00  0.00    -0.022 C 
BRANCH  21  22
HETATM   22  N   UNL     1       7.881   0.058  19.775  1.00  0.00    -0.249 N 
ATOM     23  HN  UNL     1       8.409   0.361  18.956  1.00  0.00     0.188 HD
BRANCH  22  24
HETATM   24  S   UNL     1       6.259   0.131  19.605  1.00  0.00     0.233 S 
HETATM   25  C   UNL     1       5.951   0.492  18.049  1.00  0.00     0.186 C 
HETATM   26  O   UNL     1       5.624  -1.162  19.887  1.00  0.00    -0.205 OA
HETATM   27  O   UNL     1       5.691   1.138  20.474  1.00  0.00    -0.205 OA
ENDBRANCH  22  24
ENDBRANCH  21  22
ENDBRANCH   1  21
TORSDOF 5
ENDMDL
