REMARK  5 active torsions:
REMARK  status: ('A' for Active; 'I' for Inactive)
REMARK    1  A    between atoms: N_2  and  N_4 
REMARK    2  A    between atoms: N_4  and  C_6 
REMARK    3  A    between atoms: C_6  and  C_7 
REMARK    4  A    between atoms: C_7  and  S_8 
REMARK       I    between atoms: N_10  and  C_12 
REMARK       I    between atoms: C_12  and  N_14 
REMARK    5  A    between atoms: N_14  and  C_16 
ROOT
HETATM    1  C   UNL     1      10.135  -1.151  23.372  1.00  0.00     0.138 C 
HETATM    2  N   UNL     1       9.969  -0.490  22.305  1.00  0.00    -0.295 N 
ATOM      3  HN  UNL     1      10.879  -0.062  22.133  1.00  0.00     0.172 HD
HETATM    4  C   UNL     1       9.177  -0.048  21.244  1.00  0.00     0.326 C 
HETATM    5  O   UNL     1       9.639   0.879  20.594  1.00  0.00    -0.247 OA
HETATM    6  N   UNL     1       8.016  -0.677  20.977  1.00  0.00    -0.310 N 
ATOM      7  HN  UNL     1       7.805  -1.591  21.377  1.00  0.00     0.170 HD
ENDROOT
BRANCH   1   8
HETATM    8  C   UNL     1       9.535  -2.240  23.842  1.00  0.00     0.012 C 
BRANCH   8   9
HETATM    9  N   UNL     1       9.250  -3.139  24.462  1.00  0.00    -0.268 N 
ATOM     10  HN  UNL     1      10.043  -3.738  24.691  1.00  0.00     0.196 HD
BRANCH   9  11
HETATM   11  N   UNL     1       8.133  -3.567  24.941  1.00  0.00    -0.334 N 
HETATM   12  C   UNL     1       8.080  -4.294  26.144  1.00  0.00     0.168 C 
ATOM     13  HN  UNL     1       7.268  -3.374  24.436  1.00  0.00     0.180 HD
ENDBRANCH   9  11
ENDBRANCH   8   9
ENDBRANCH   1   8
BRANCH   1  14
HETATM   14  S   UNL     1      11.175  -0.743  24.687  1.00  0.00    -0.107 SA
HETATM   15  C   UNL     1      12.461  -0.611  23.368  1.00  0.00     0.098 C 
ENDBRANCH   1  14
BRANCH   6  16
HETATM   16  C   UNL     1       7.162  -0.064  20.177  1.00  0.00     0.036 A 
HETATM   17  C   UNL     1       7.045   0.131  18.843  1.00  0.00     0.153 A 
HETATM   18  N   UNL     1       6.338   0.544  18.044  1.00  0.00    -0.400 N 
HETATM   19  C   UNL     1       5.493   0.890  19.016  1.00  0.00     0.130 A 
ATOM     20  HN  UNL     1       6.349   0.616  17.027  1.00  0.00     0.154 HD
HETATM   21  C   UNL     1       5.875   0.509  20.335  1.00  0.00     0.027 A 
ENDBRANCH   6  16
TORSDOF 5
