stable:False satoms:20 tatoms:24 sratio:0.8333333333333334
  -OEChem-08062404163D

 28 28  0     1  0  0  0  0  0999 V2000
    6.1079   -4.9603   26.0560 F   0  0  0  0  0  0  0  0  0  0  0  0
    7.3930   -4.5961   25.7213 C   0  0  0  0  0  0  0  0  0  0  0  0
    8.1193   -5.7150   25.8438 F   0  0  0  0  0  0  0  0  0  0  0  0
    7.8270   -3.8038   26.7094 F   0  0  0  0  0  0  0  0  0  0  0  0
    7.3914   -4.0500   24.4449 N   0  0  0  0  0  0  0  0  0  0  0  0
    8.3038   -3.3487   23.9377 C   0  0  0  0  0  0  0  0  0  0  0  0
    9.0459   -2.6686   23.4008 C   0  0  0  0  0  0  0  0  0  0  0  0
    9.9306   -1.7928   22.7611 C   0  0  3  0  0  0  0  0  0  0  0  0
   11.1606    0.0570   23.8298 H   0  0  0  0  0  0  0  0  0  0  0  0
   11.8704   -0.6444   23.4323 C   0  0  0  0  0  0  0  0  0  0  0  0
   12.9071   -0.4749   23.4827 H   0  0  0  0  0  0  0  0  0  0  0  0
   11.9990   -2.4312   22.3431 H   0  0  0  0  0  0  0  0  0  0  0  0
   11.3737   -1.7287   22.8278 C   0  0  0  0  0  0  0  0  0  0  0  0
    9.4344   -0.9611   22.0221 N   0  0  0  0  0  0  0  0  0  0  0  0
    8.7908   -0.1709   21.1292 C   0  0  0  0  0  0  0  0  0  0  0  0
    9.3490    0.8330   20.7618 O   0  0  0  0  0  0  0  0  0  0  0  0
    7.6067   -0.5786   20.6623 N   0  0  0  0  0  0  0  0  0  0  0  0
    6.8996    0.1567   20.0728 C   0  0  0  0  0  0  0  0  0  0  0  0
    6.5310    0.4447   18.5238 C   0  0  0  0  0  0  0  0  0  0  0  0
    6.9530    0.1812   17.5871 H   0  0  0  0  0  0  0  0  0  0  0  0
    5.4904    1.0829   18.9187 C   0  0  0  0  0  0  0  0  0  0  0  0
    4.6560    1.6140   18.6297 H   0  0  0  0  0  0  0  0  0  0  0  0
    5.7529    0.8167   20.3920 C   0  0  0  0  0  0  0  0  0  0  0  0
    5.3013    0.9978   21.3530 H   0  0  0  0  0  0  0  0  0  0  0  0
    6.5707   -3.4802   24.4052 H   0  0  0  0  0  0  0  0  0  0  0  0
    9.8563   -1.0932   23.6067 H   0  0  0  0  0  0  0  0  0  0  0  0
    9.9498   -0.2028   22.4213 H   0  0  0  0  0  0  0  0  0  0  0  0
    7.3162   -1.5230   20.8159 H   0  0  0  0  0  0  0  0  0  0  0  0
 19 20  1  0  0  0  0
 19 21  2  0  0  0  0
 18 19  1  0  0  0  0
 21 22  1  0  0  0  0
 21 23  1  0  0  0  0
 18 23  2  0  0  0  0
 17 18  1  0  0  0  0
 23 24  1  0  0  0  0
 15 17  1  0  0  0  0
 15 16  2  0  0  0  0
 14 15  1  0  0  0  0
  8 14  1  0  0  0  0
 12 13  1  0  0  0  0
  8 13  1  0  0  0  0
  7  8  1  0  0  0  0
 10 13  2  0  0  0  0
  6  7  3  0  0  0  0
 10 11  1  0  0  0  0
  9 10  1  0  0  0  0
  5  6  1  0  0  0  0
  2  5  1  0  0  0  0
  2  3  1  0  0  0  0
  1  2  1  0  0  0  0
  2  4  1  0  0  0  0
  5 25  1  0  0  0  0
  8 26  1  0  0  0  0
 14 27  1  0  0  0  0
 17 28  1  0  0  0  0
M  END
> <Chemgauss4>
-7.057251

$$$$
