stable:False satoms:20 tatoms:24 sratio:0.8333333333333334
  -OEChem-08062404163D

 28 28  0     1  0  0  0  0  0999 V2000
   -6.2296   -4.9796  -25.9805 F   0  0  0  0  0  0  0  0  0  0  0  0
   -7.5148   -4.6154  -25.6458 C   0  0  0  0  0  0  0  0  0  0  0  0
   -8.2410   -5.7343  -25.7683 F   0  0  0  0  0  0  0  0  0  0  0  0
   -7.9487   -3.8230  -26.6340 F   0  0  0  0  0  0  0  0  0  0  0  0
   -7.5132   -4.0693  -24.3694 N   0  0  0  0  0  0  0  0  0  0  0  0
   -8.4255   -3.3680  -23.8622 C   0  0  0  0  0  0  0  0  0  0  0  0
   -9.1676   -2.6879  -23.3253 C   0  0  0  0  0  0  0  0  0  0  0  0
  -10.0524   -1.8121  -22.6856 C   0  0  3  0  0  0  0  0  0  0  0  0
  -11.2823    0.0377  -23.7543 H   0  0  0  0  0  0  0  0  0  0  0  0
  -11.9921   -0.6637  -23.3568 C   0  0  0  0  0  0  0  0  0  0  0  0
  -13.0288   -0.4942  -23.4072 H   0  0  0  0  0  0  0  0  0  0  0  0
  -12.1207   -2.4505  -22.2676 H   0  0  0  0  0  0  0  0  0  0  0  0
  -11.4955   -1.7480  -22.7523 C   0  0  0  0  0  0  0  0  0  0  0  0
   -9.5562   -0.9804  -21.9466 N   0  0  0  0  0  0  0  0  0  0  0  0
   -8.9126   -0.1902  -21.0537 C   0  0  0  0  0  0  0  0  0  0  0  0
   -9.4708    0.8137  -20.6863 O   0  0  0  0  0  0  0  0  0  0  0  0
   -7.7284   -0.5978  -20.5868 N   0  0  0  0  0  0  0  0  0  0  0  0
   -7.0213    0.1374  -19.9973 C   0  0  0  0  0  0  0  0  0  0  0  0
   -6.6527    0.4254  -18.4483 C   0  0  0  0  0  0  0  0  0  0  0  0
   -7.0747    0.1619  -17.5116 H   0  0  0  0  0  0  0  0  0  0  0  0
   -5.6121    1.0636  -18.8432 C   0  0  0  0  0  0  0  0  0  0  0  0
   -4.7777    1.5947  -18.5542 H   0  0  0  0  0  0  0  0  0  0  0  0
   -5.8747    0.7974  -20.3165 C   0  0  0  0  0  0  0  0  0  0  0  0
   -5.4231    0.9785  -21.2775 H   0  0  0  0  0  0  0  0  0  0  0  0
   -6.6924   -3.4994  -24.3297 H   0  0  0  0  0  0  0  0  0  0  0  0
   -9.9780   -1.1125  -23.5312 H   0  0  0  0  0  0  0  0  0  0  0  0
  -10.0716   -0.2221  -22.3458 H   0  0  0  0  0  0  0  0  0  0  0  0
   -7.4379   -1.5423  -20.7404 H   0  0  0  0  0  0  0  0  0  0  0  0
 19 20  1  0  0  0  0
 19 21  2  0  0  0  0
 18 19  1  0  0  0  0
 21 22  1  0  0  0  0
 21 23  1  0  0  0  0
 18 23  2  0  0  0  0
 17 18  1  0  0  0  0
 23 24  1  0  0  0  0
 15 17  1  0  0  0  0
 15 16  2  0  0  0  0
 14 15  1  0  0  0  0
  8 14  1  0  0  0  0
 12 13  1  0  0  0  0
  8 13  1  0  0  0  0
  7  8  1  0  0  0  0
 10 13  2  0  0  0  0
  6  7  3  0  0  0  0
 10 11  1  0  0  0  0
  9 10  1  0  0  0  0
  5  6  1  0  0  0  0
  2  5  1  0  0  0  0
  2  3  1  0  0  0  0
  1  2  1  0  0  0  0
  2  4  1  0  0  0  0
  5 25  1  0  0  0  0
  8 26  1  0  0  0  0
 14 27  1  0  0  0  0
 17 28  1  0  0  0  0
M  END
> <Chemgauss4>
-7.009610

$$$$
