stable:False satoms:11 tatoms:24 sratio:0.4583333333333333
  -OEChem-08062416383D

 43 45  0     1  0  0  0  0  0999 V2000
    5.9494   -5.2637   25.8386 C   0  0  0  0  0  0  0  0  0  0  0  0
    7.6145   -4.7036   25.7593 S   0  0  0  0  0  0  0  0  0  0  0  0
    8.4500   -5.8874   25.7201 O   0  0  0  0  0  0  0  0  0  0  0  0
    7.8790   -3.9256   26.9399 O   0  0  0  0  0  0  0  0  0  0  0  0
    7.6824   -3.8562   24.4458 N   0  0  0  0  0  0  0  0  0  0  0  0
    8.6353   -3.1845   24.0501 C   0  0  0  0  0  0  0  0  0  0  0  0
    9.1484   -2.1840   23.5360 C   0  0  0  0  0  0  0  0  0  0  0  0
   10.0802   -1.3130   23.4935 C   0  0  1  0  0  0  0  0  0  0  0  0
   10.6396   -0.3210   24.6446 C   0  0  0  0  0  0  0  0  0  0  0  0
   11.7248   -0.0200   24.7454 C   0  0  0  0  0  0  0  0  0  0  0  0
   12.8420   -0.3896   24.0901 C   0  0  0  0  0  0  0  0  0  0  0  0
   12.5522   -1.4522   23.0897 C   0  0  0  0  0  0  0  0  0  0  0  0
   11.6367   -1.9027   22.8609 C   0  0  0  0  0  0  0  0  0  0  0  0
    9.5276   -0.7298   22.5497 C   0  0  3  0  0  0  0  0  0  0  0  0
    9.0211   -0.0194   21.5557 C   0  0  0  0  0  0  0  0  0  0  0  0
    9.5796    0.9452   21.2860 O   0  0  0  0  0  0  0  0  0  0  0  0
    7.9185   -0.5531   21.0786 N   0  0  0  0  0  0  0  0  0  0  0  0
    7.2966    0.0162   20.1404 C   0  0  0  0  0  0  0  0  0  0  0  0
    7.4994    0.2064   18.8441 C   0  0  0  0  0  0  0  0  0  0  0  0
    7.1536    0.6093   17.7561 N   0  0  0  0  0  0  0  0  0  0  0  0
    5.9470    1.1997   18.1201 C   0  0  0  0  0  0  0  0  0  0  0  0
    5.4683    1.1778   19.2516 C   0  0  0  0  0  0  0  0  0  0  0  0
    5.8997    0.6680   20.4185 C   0  0  0  0  0  0  0  0  0  0  0  0
    5.2563    0.7000   21.7792 C   0  0  0  0  0  0  0  0  0  0  0  0
    5.8103   -5.8751   26.7424 H   0  0  0  0  0  0  0  0  0  0  0  0
    5.2725   -4.3973   25.8744 H   0  0  0  0  0  0  0  0  0  0  0  0
    5.7234   -5.8689   24.9483 H   0  0  0  0  0  0  0  0  0  0  0  0
    6.9220   -3.2104   24.5151 H   0  0  0  0  0  0  0  0  0  0  0  0
    9.4868   -3.8099   24.2743 H   0  0  0  0  0  0  0  0  0  0  0  0
    9.9339    0.0769   25.3588 H   0  0  0  0  0  0  0  0  0  0  0  0
   11.9007    0.7094   25.5222 H   0  0  0  0  0  0  0  0  0  0  0  0
   13.8209    0.0307   24.2676 H   0  0  0  0  0  0  0  0  0  0  0  0
   13.4014   -1.8057   22.5238 H   0  0  0  0  0  0  0  0  0  0  0  0
   11.5494   -1.8719   21.7648 H   0  0  0  0  0  0  0  0  0  0  0  0
   11.7221   -2.9480   23.1928 H   0  0  0  0  0  0  0  0  0  0  0  0
   10.0789   -1.3545   21.8314 H   0  0  0  0  0  0  0  0  0  0  0  0
    7.5727   -1.4106   21.4597 H   0  0  0  0  0  0  0  0  0  0  0  0
    8.4777   -0.2158   18.6678 H   0  0  0  0  0  0  0  0  0  0  0  0
    5.3903    1.7151   17.3514 H   0  0  0  0  0  0  0  0  0  0  0  0
    4.5079    1.6665   19.3232 H   0  0  0  0  0  0  0  0  0  0  0  0
    4.6260   -0.1922   21.9084 H   0  0  0  0  0  0  0  0  0  0  0  0
    6.0373    0.7123   22.5537 H   0  0  0  0  0  0  0  0  0  0  0  0
    4.6356    1.6036   21.8700 H   0  0  0  0  0  0  0  0  0  0  0  0
 20 21  2  0  0  0  0
 19 20  1  0  0  0  0
 21 22  1  0  0  0  0
 18 19  2  0  0  0  0
 22 23  2  0  0  0  0
 18 23  1  0  0  0  0
 17 18  1  0  0  0  0
 23 24  1  0  0  0  0
 15 16  2  0  0  0  0
 15 17  1  0  0  0  0
 14 15  1  0  0  0  0
  8 14  1  0  0  0  0
  7 14  1  0  0  0  0
 12 13  1  0  0  0  0
  8 13  1  0  0  0  0
 11 12  2  0  0  0  0
  7  8  1  0  0  0  0
  8  9  1  0  0  0  0
 10 11  1  0  0  0  0
  6  7  2  3  0  0  0
  5  6  1  0  0  0  0
  9 10  2  0  0  0  0
  2  5  1  0  0  0  0
  2  3  2  0  0  0  0
  1  2  1  0  0  0  0
  2  4  2  0  0  0  0
  1 25  1  0  0  0  0
  1 26  1  0  0  0  0
  1 27  1  0  0  0  0
  5 28  1  0  0  0  0
  6 29  1  0  0  0  0
  9 30  1  0  0  0  0
 10 31  1  0  0  0  0
 11 32  1  0  0  0  0
 12 33  1  0  0  0  0
 13 34  1  0  0  0  0
 13 35  1  0  0  0  0
 14 36  1  0  0  0  0
 17 37  1  0  0  0  0
 19 38  1  0  0  0  0
 21 39  1  0  0  0  0
 22 40  1  0  0  0  0
 24 41  1  0  0  0  0
 24 42  1  0  0  0  0
 24 43  1  0  0  0  0
M  END
> <Chemgauss4>
-13.080473

$$$$
