stable:False satoms:11 tatoms:24 sratio:0.4583333333333333
  -OEChem-08062416383D

 43 45  0     1  0  0  0  0  0999 V2000
   -6.1799   -5.1788  -25.7552 C   0  0  0  0  0  0  0  0  0  0  0  0
   -7.8451   -4.6187  -25.6759 S   0  0  0  0  0  0  0  0  0  0  0  0
   -8.6806   -5.8025  -25.6367 O   0  0  0  0  0  0  0  0  0  0  0  0
   -8.1096   -3.8407  -26.8566 O   0  0  0  0  0  0  0  0  0  0  0  0
   -7.9129   -3.7713  -24.3625 N   0  0  0  0  0  0  0  0  0  0  0  0
   -8.8658   -3.0997  -23.9668 C   0  0  0  0  0  0  0  0  0  0  0  0
   -9.3789   -2.0992  -23.4526 C   0  0  0  0  0  0  0  0  0  0  0  0
  -10.3108   -1.2281  -23.4102 C   0  0  1  0  0  0  0  0  0  0  0  0
  -10.8701   -0.2361  -24.5613 C   0  0  0  0  0  0  0  0  0  0  0  0
  -11.9553    0.0649  -24.6621 C   0  0  0  0  0  0  0  0  0  0  0  0
  -13.0725   -0.3048  -24.0068 C   0  0  0  0  0  0  0  0  0  0  0  0
  -12.7827   -1.3674  -23.0064 C   0  0  0  0  0  0  0  0  0  0  0  0
  -11.8672   -1.8178  -22.7776 C   0  0  0  0  0  0  0  0  0  0  0  0
   -9.7581   -0.6449  -22.4663 C   0  0  3  0  0  0  0  0  0  0  0  0
   -9.2517    0.0655  -21.4723 C   0  0  0  0  0  0  0  0  0  0  0  0
   -9.8101    1.0301  -21.2027 O   0  0  0  0  0  0  0  0  0  0  0  0
   -8.1490   -0.4682  -20.9953 N   0  0  0  0  0  0  0  0  0  0  0  0
   -7.5271    0.1011  -20.0571 C   0  0  0  0  0  0  0  0  0  0  0  0
   -7.7299    0.2913  -18.7608 C   0  0  0  0  0  0  0  0  0  0  0  0
   -7.3841    0.6942  -17.6727 N   0  0  0  0  0  0  0  0  0  0  0  0
   -6.1775    1.2846  -18.0368 C   0  0  0  0  0  0  0  0  0  0  0  0
   -5.6989    1.2627  -19.1683 C   0  0  0  0  0  0  0  0  0  0  0  0
   -6.1302    0.7529  -20.3352 C   0  0  0  0  0  0  0  0  0  0  0  0
   -5.4869    0.7849  -21.6958 C   0  0  0  0  0  0  0  0  0  0  0  0
   -6.0408   -5.7902  -26.6590 H   0  0  0  0  0  0  0  0  0  0  0  0
   -5.5031   -4.3124  -25.7911 H   0  0  0  0  0  0  0  0  0  0  0  0
   -5.9539   -5.7840  -24.8649 H   0  0  0  0  0  0  0  0  0  0  0  0
   -7.1525   -3.1256  -24.4318 H   0  0  0  0  0  0  0  0  0  0  0  0
   -9.7173   -3.7250  -24.1909 H   0  0  0  0  0  0  0  0  0  0  0  0
  -10.1644    0.1618  -25.2755 H   0  0  0  0  0  0  0  0  0  0  0  0
  -12.1312    0.7943  -25.4389 H   0  0  0  0  0  0  0  0  0  0  0  0
  -14.0514    0.1155  -24.1843 H   0  0  0  0  0  0  0  0  0  0  0  0
  -13.6320   -1.7209  -22.4405 H   0  0  0  0  0  0  0  0  0  0  0  0
  -11.7800   -1.7871  -21.6815 H   0  0  0  0  0  0  0  0  0  0  0  0
  -11.9526   -2.8631  -23.1094 H   0  0  0  0  0  0  0  0  0  0  0  0
  -10.3094   -1.2696  -21.7481 H   0  0  0  0  0  0  0  0  0  0  0  0
   -7.8032   -1.3257  -21.3763 H   0  0  0  0  0  0  0  0  0  0  0  0
   -8.7082   -0.1309  -18.5845 H   0  0  0  0  0  0  0  0  0  0  0  0
   -5.6208    1.7999  -17.2681 H   0  0  0  0  0  0  0  0  0  0  0  0
   -4.7384    1.7513  -19.2399 H   0  0  0  0  0  0  0  0  0  0  0  0
   -4.8566   -0.1073  -21.8250 H   0  0  0  0  0  0  0  0  0  0  0  0
   -6.2679    0.7972  -22.4704 H   0  0  0  0  0  0  0  0  0  0  0  0
   -4.8661    1.6884  -21.7866 H   0  0  0  0  0  0  0  0  0  0  0  0
 20 21  2  0  0  0  0
 19 20  1  0  0  0  0
 21 22  1  0  0  0  0
 18 19  2  0  0  0  0
 22 23  2  0  0  0  0
 18 23  1  0  0  0  0
 17 18  1  0  0  0  0
 23 24  1  0  0  0  0
 15 16  2  0  0  0  0
 15 17  1  0  0  0  0
 14 15  1  0  0  0  0
  8 14  1  0  0  0  0
  7 14  1  0  0  0  0
 12 13  1  0  0  0  0
  8 13  1  0  0  0  0
 11 12  2  0  0  0  0
  7  8  1  0  0  0  0
  8  9  1  0  0  0  0
 10 11  1  0  0  0  0
  6  7  2  3  0  0  0
  5  6  1  0  0  0  0
  9 10  2  0  0  0  0
  2  5  1  0  0  0  0
  2  3  2  0  0  0  0
  1  2  1  0  0  0  0
  2  4  2  0  0  0  0
  1 25  1  0  0  0  0
  1 26  1  0  0  0  0
  1 27  1  0  0  0  0
  5 28  1  0  0  0  0
  6 29  1  0  0  0  0
  9 30  1  0  0  0  0
 10 31  1  0  0  0  0
 11 32  1  0  0  0  0
 12 33  1  0  0  0  0
 13 34  1  0  0  0  0
 13 35  1  0  0  0  0
 14 36  1  0  0  0  0
 17 37  1  0  0  0  0
 19 38  1  0  0  0  0
 21 39  1  0  0  0  0
 22 40  1  0  0  0  0
 24 41  1  0  0  0  0
 24 42  1  0  0  0  0
 24 43  1  0  0  0  0
M  END
> <Chemgauss4>
-12.735946

$$$$
