MODEL 1
REMARK VINA RESULT:    -4.703      0.000      0.000
REMARK INTER + INTRA:          -6.181
REMARK INTER:                  -5.665
REMARK INTRA:                  -0.517
REMARK UNBOUND:                -0.517
REMARK  4 active torsions:
REMARK  status: ('A' for Active; 'I' for Inactive)
REMARK    1  A    between atoms: C_2  and  O_5 
REMARK    2  A    between atoms: C_2  and  C_4 
REMARK    3  A    between atoms: C_4  and  C_8 
REMARK    4  A    between atoms: C_4  and  C_7 
REMARK       I    between atoms: C_8  and  N_9 
ROOT
HETATM    1  C   UNL     1      25.543   3.272  16.712  1.00  0.00     0.096 C 
HETATM    2  C   UNL     1      24.716   2.089  16.605  1.00  0.00    -0.187 C 
HETATM    3  C   UNL     1      23.892   1.217  16.592  1.00  0.00     0.095 C 
ENDROOT
BRANCH   3   4
HETATM    4  C   UNL     1      23.403   0.049  15.959  1.00  0.00     0.113 C 
BRANCH   4   5
HETATM    5  C   UNL     1      24.536  -0.225  15.037  1.00  0.00     0.179 C 
BRANCH   5   6
HETATM    6  O   UNL     1      23.823  -0.889  14.028  1.00  0.00    -0.400 OA
HETATM    7  H   UNL     1      24.140  -1.392  13.283  1.00  0.00     0.209 HD
ENDBRANCH   5   6
ENDBRANCH   4   5
BRANCH   4   8
HETATM    8  C   UNL     1      23.178  -1.302  16.751  1.00  0.00     0.241 C 
HETATM    9  O   UNL     1      22.877  -2.370  16.283  1.00  0.00    -0.272 OA
HETATM   10  N   UNL     1      23.328  -1.245  18.079  1.00  0.00    -0.262 N 
HETATM   11  S   UNL     1      24.805  -1.947  18.559  1.00  0.00    -0.038 SA
HETATM   12  C   UNL     1      22.564  -1.097  19.181  1.00  0.00     0.158 C 
HETATM   13  C   UNL     1      23.950  -2.851  19.895  1.00  0.00     0.182 C 
HETATM   14  C   UNL     1      22.889  -1.869  20.321  1.00  0.00     0.176 C 
HETATM   15  O   UNL     1      22.444  -1.809  21.456  1.00  0.00    -0.291 OA
ENDBRANCH   4   8
ENDBRANCH   3   4
TORSDOF 4
ENDMDL
MODEL 2
REMARK VINA RESULT:    -4.577     25.615     26.930
REMARK INTER + INTRA:          -6.030
REMARK INTER:                  -5.666
REMARK INTRA:                  -0.364
REMARK UNBOUND:                -0.517
REMARK  4 active torsions:
REMARK  status: ('A' for Active; 'I' for Inactive)
REMARK    1  A    between atoms: C_2  and  O_5 
REMARK    2  A    between atoms: C_2  and  C_4 
REMARK    3  A    between atoms: C_4  and  C_8 
REMARK    4  A    between atoms: C_4  and  C_7 
REMARK       I    between atoms: C_8  and  N_9 
ROOT
HETATM    1  C   UNL     1       2.296  13.262   2.124  1.00  0.00     0.096 C 
HETATM    2  C   UNL     1       3.632  12.724   2.265  1.00  0.00    -0.187 C 
HETATM    3  C   UNL     1       4.711  12.203   2.206  1.00  0.00     0.095 C 
ENDROOT
BRANCH   3   4
HETATM    4  C   UNL     1       6.076  12.242   2.583  1.00  0.00     0.113 C 
BRANCH   4   5
HETATM    5  C   UNL     1       6.446  10.828   2.312  1.00  0.00     0.179 C 
BRANCH   5   6
HETATM    6  O   UNL     1       6.097  10.782   0.955  1.00  0.00    -0.400 OA
HETATM    7  H   UNL     1       6.385  11.329   0.228  1.00  0.00     0.209 HD
ENDBRANCH   5   6
ENDBRANCH   4   5
BRANCH   4   8
HETATM    8  C   UNL     1       7.139  13.107   1.793  1.00  0.00     0.241 C 
HETATM    9  O   UNL     1       7.247  13.199   0.597  1.00  0.00    -0.272 OA
HETATM   10  N   UNL     1       8.011  13.798   2.534  1.00  0.00    -0.262 N 
HETATM   11  S   UNL     1       7.617  15.456   2.558  1.00  0.00    -0.038 SA
HETATM   12  C   UNL     1       9.267  13.666   3.009  1.00  0.00     0.158 C 
HETATM   13  C   UNL     1       9.364  15.884   2.250  1.00  0.00     0.182 C 
HETATM   14  C   UNL     1      10.099  14.811   3.011  1.00  0.00     0.176 C 
HETATM   15  O   UNL     1      11.201  14.973   3.510  1.00  0.00    -0.291 OA
ENDBRANCH   4   8
ENDBRANCH   3   4
TORSDOF 4
ENDMDL
MODEL 3
REMARK VINA RESULT:    -4.413     24.641     25.661
REMARK INTER + INTRA:          -5.833
REMARK INTER:                  -5.371
REMARK INTRA:                  -0.462
REMARK UNBOUND:                -0.517
REMARK  4 active torsions:
REMARK  status: ('A' for Active; 'I' for Inactive)
REMARK    1  A    between atoms: C_2  and  O_5 
REMARK    2  A    between atoms: C_2  and  C_4 
REMARK    3  A    between atoms: C_4  and  C_8 
REMARK    4  A    between atoms: C_4  and  C_7 
REMARK       I    between atoms: C_8  and  N_9 
ROOT
HETATM    1  C   UNL     1       4.806  15.565   5.215  1.00  0.00     0.096 C 
HETATM    2  C   UNL     1       6.032  15.113   4.594  1.00  0.00    -0.187 C 
HETATM    3  C   UNL     1       7.135  14.802   4.239  1.00  0.00     0.095 C 
ENDROOT
BRANCH   3   4
HETATM    4  C   UNL     1       7.939  13.910   3.489  1.00  0.00     0.113 C 
BRANCH   4   5
HETATM    5  C   UNL     1       9.284  14.345   3.948  1.00  0.00     0.179 C 
BRANCH   5   6
HETATM    6  O   UNL     1      10.045  13.786   2.911  1.00  0.00    -0.400 OA
HETATM    7  H   UNL     1      10.429  12.916   2.832  1.00  0.00     0.209 HD
ENDBRANCH   5   6
ENDBRANCH   4   5
BRANCH   4   8
HETATM    8  C   UNL     1       7.905  12.347   3.729  1.00  0.00     0.241 C 
HETATM    9  O   UNL     1       8.747  11.685   4.279  1.00  0.00    -0.272 OA
HETATM   10  N   UNL     1       6.834  11.697   3.263  1.00  0.00    -0.262 N 
HETATM   11  S   UNL     1       5.773  11.277   4.530  1.00  0.00    -0.038 SA
HETATM   12  C   UNL     1       6.468  10.996   2.170  1.00  0.00     0.158 C 
HETATM   13  C   UNL     1       5.607   9.594   3.843  1.00  0.00     0.182 C 
HETATM   14  C   UNL     1       5.669   9.844   2.358  1.00  0.00     0.176 C 
HETATM   15  O   UNL     1       5.107   9.142   1.533  1.00  0.00    -0.291 OA
ENDBRANCH   4   8
ENDBRANCH   3   4
TORSDOF 4
ENDMDL
MODEL 4
REMARK VINA RESULT:    -4.336     14.482     15.281
REMARK INTER + INTRA:          -5.740
REMARK INTER:                  -5.507
REMARK INTRA:                  -0.233
REMARK UNBOUND:                -0.517
REMARK  4 active torsions:
REMARK  status: ('A' for Active; 'I' for Inactive)
REMARK    1  A    between atoms: C_2  and  O_5 
REMARK    2  A    between atoms: C_2  and  C_4 
REMARK    3  A    between atoms: C_4  and  C_8 
REMARK    4  A    between atoms: C_4  and  C_7 
REMARK       I    between atoms: C_8  and  N_9 
ROOT
HETATM    1  C   UNL     1      12.025   4.796  23.723  1.00  0.00     0.096 C 
HETATM    2  C   UNL     1      11.472   3.460  23.663  1.00  0.00    -0.187 C 
HETATM    3  C   UNL     1      11.021   2.358  23.806  1.00  0.00     0.095 C 
ENDROOT
BRANCH   3   4
HETATM    4  C   UNL     1      10.169   1.343  23.304  1.00  0.00     0.113 C 
BRANCH   4   5
HETATM    5  C   UNL     1      10.439   1.493  21.850  1.00  0.00     0.179 C 
BRANCH   5   6
HETATM    6  O   UNL     1       9.216   2.063  21.472  1.00  0.00    -0.400 OA
HETATM    7  H   UNL     1       8.849   2.209  20.604  1.00  0.00     0.209 HD
ENDBRANCH   5   6
ENDBRANCH   4   5
BRANCH   4   8
HETATM    8  C   UNL     1      10.415  -0.188  23.616  1.00  0.00     0.241 C 
HETATM    9  O   UNL     1      11.456  -0.698  23.946  1.00  0.00    -0.272 OA
HETATM   10  N   UNL     1       9.359  -0.997  23.490  1.00  0.00    -0.262 N 
HETATM   11  S   UNL     1       8.739  -1.438  25.015  1.00  0.00    -0.038 SA
HETATM   12  C   UNL     1       8.818  -1.824  22.571  1.00  0.00     0.158 C 
HETATM   13  C   UNL     1       8.630  -3.178  24.477  1.00  0.00     0.182 C 
HETATM   14  C   UNL     1       8.263  -3.045  23.022  1.00  0.00     0.176 C 
HETATM   15  O   UNL     1       7.605  -3.874  22.414  1.00  0.00    -0.291 OA
ENDBRANCH   4   8
ENDBRANCH   3   4
TORSDOF 4
ENDMDL
MODEL 5
REMARK VINA RESULT:    -4.155      1.852      2.005
REMARK INTER + INTRA:          -5.521
REMARK INTER:                  -4.993
REMARK INTRA:                  -0.528
REMARK UNBOUND:                -0.517
REMARK  4 active torsions:
REMARK  status: ('A' for Active; 'I' for Inactive)
REMARK    1  A    between atoms: C_2  and  O_5 
REMARK    2  A    between atoms: C_2  and  C_4 
REMARK    3  A    between atoms: C_4  and  C_8 
REMARK    4  A    between atoms: C_4  and  C_7 
REMARK       I    between atoms: C_8  and  N_9 
ROOT
HETATM    1  C   UNL     1      27.967   0.691  16.695  1.00  0.00     0.096 C 
HETATM    2  C   UNL     1      26.612   0.185  16.642  1.00  0.00    -0.187 C 
HETATM    3  C   UNL     1      25.444  -0.079  16.703  1.00  0.00     0.095 C 
ENDROOT
BRANCH   3   4
HETATM    4  C   UNL     1      24.323  -0.680  16.080  1.00  0.00     0.113 C 
BRANCH   4   5
HETATM    5  C   UNL     1      24.939  -1.062  14.782  1.00  0.00     0.179 C 
BRANCH   5   6
HETATM    6  O   UNL     1      23.804  -0.924  13.969  1.00  0.00    -0.400 OA
HETATM    7  H   UNL     1      23.482  -1.481  13.265  1.00  0.00     0.209 HD
ENDBRANCH   5   6
ENDBRANCH   4   5
BRANCH   4   8
HETATM    8  C   UNL     1      23.668  -2.010  16.634  1.00  0.00     0.241 C 
HETATM    9  O   UNL     1      22.738  -2.607  16.158  1.00  0.00    -0.272 OA
HETATM   10  N   UNL     1      24.200  -2.512  17.753  1.00  0.00    -0.262 N 
HETATM   11  S   UNL     1      25.163  -3.878  17.414  1.00  0.00    -0.038 SA
HETATM   12  C   UNL     1      23.979  -2.484  19.084  1.00  0.00     0.158 C 
HETATM   13  C   UNL     1      24.389  -4.777  18.801  1.00  0.00     0.182 C 
HETATM   14  C   UNL     1      24.167  -3.682  19.812  1.00  0.00     0.176 C 
HETATM   15  O   UNL     1      24.166  -3.870  21.019  1.00  0.00    -0.291 OA
ENDBRANCH   4   8
ENDBRANCH   3   4
TORSDOF 4
ENDMDL
MODEL 6
REMARK VINA RESULT:    -4.131      7.304      9.242
REMARK INTER + INTRA:          -5.493
REMARK INTER:                  -5.291
REMARK INTRA:                  -0.201
REMARK UNBOUND:                -0.517
REMARK  4 active torsions:
REMARK  status: ('A' for Active; 'I' for Inactive)
REMARK    1  A    between atoms: C_2  and  O_5 
REMARK    2  A    between atoms: C_2  and  C_4 
REMARK    3  A    between atoms: C_4  and  C_8 
REMARK    4  A    between atoms: C_4  and  C_7 
REMARK       I    between atoms: C_8  and  N_9 
ROOT
HETATM    1  C   UNL     1      25.590  -5.535  22.503  1.00  0.00     0.096 C 
HETATM    2  C   UNL     1      24.714  -5.476  23.653  1.00  0.00    -0.187 C 
HETATM    3  C   UNL     1      24.018  -5.617  24.620  1.00  0.00     0.095 C 
ENDROOT
BRANCH   3   4
HETATM    4  C   UNL     1      23.497  -5.047  25.808  1.00  0.00     0.113 C 
BRANCH   4   5
HETATM    5  C   UNL     1      24.542  -5.486  26.770  1.00  0.00     0.179 C 
BRANCH   5   6
HETATM    6  O   UNL     1      24.216  -6.848  26.818  1.00  0.00    -0.400 OA
HETATM    7  H   UNL     1      24.778  -7.610  26.939  1.00  0.00     0.209 HD
ENDBRANCH   5   6
ENDBRANCH   4   5
BRANCH   4   8
HETATM    8  C   UNL     1      23.383  -3.482  26.006  1.00  0.00     0.241 C 
HETATM    9  O   UNL     1      23.845  -2.835  26.910  1.00  0.00    -0.272 OA
HETATM   10  N   UNL     1      22.693  -2.814  25.076  1.00  0.00    -0.262 N 
HETATM   11  S   UNL     1      23.738  -1.968  24.028  1.00  0.00    -0.038 SA
HETATM   12  C   UNL     1      21.444  -2.341  24.883  1.00  0.00     0.158 C 
HETATM   13  C   UNL     1      22.684  -0.483  24.163  1.00  0.00     0.182 C 
HETATM   14  C   UNL     1      21.302  -1.076  24.265  1.00  0.00     0.176 C 
HETATM   15  O   UNL     1      20.297  -0.512  23.864  1.00  0.00    -0.291 OA
ENDBRANCH   4   8
ENDBRANCH   3   4
TORSDOF 4
ENDMDL
MODEL 7
REMARK VINA RESULT:    -4.073     26.700     27.913
REMARK INTER + INTRA:          -5.423
REMARK INTER:                  -4.981
REMARK INTRA:                  -0.441
REMARK UNBOUND:                -0.517
REMARK  4 active torsions:
REMARK  status: ('A' for Active; 'I' for Inactive)
REMARK    1  A    between atoms: C_2  and  O_5 
REMARK    2  A    between atoms: C_2  and  C_4 
REMARK    3  A    between atoms: C_4  and  C_8 
REMARK    4  A    between atoms: C_4  and  C_7 
REMARK       I    between atoms: C_8  and  N_9 
ROOT
HETATM    1  C   UNL     1       5.423  20.225   4.088  1.00  0.00     0.096 C 
HETATM    2  C   UNL     1       6.175  19.269   3.304  1.00  0.00    -0.187 C 
HETATM    3  C   UNL     1       6.656  18.353   2.696  1.00  0.00     0.095 C 
ENDROOT
BRANCH   3   4
HETATM    4  C   UNL     1       7.453  17.936   1.602  1.00  0.00     0.113 C 
BRANCH   4   5
HETATM    5  C   UNL     1       7.837  19.264   1.057  1.00  0.00     0.179 C 
BRANCH   5   6
HETATM    6  O   UNL     1       7.786  18.947  -0.308  1.00  0.00    -0.400 OA
HETATM    7  H   UNL     1       7.951  19.494  -1.072  1.00  0.00     0.209 HD
ENDBRANCH   5   6
ENDBRANCH   4   5
BRANCH   4   8
HETATM    8  C   UNL     1       8.817  17.162   1.806  1.00  0.00     0.241 C 
HETATM    9  O   UNL     1       9.859  17.377   1.241  1.00  0.00    -0.272 OA
HETATM   10  N   UNL     1       8.806  16.160   2.691  1.00  0.00    -0.262 N 
HETATM   11  S   UNL     1       9.578  16.614   4.141  1.00  0.00    -0.038 SA
HETATM   12  C   UNL     1       8.663  14.818   2.703  1.00  0.00     0.158 C 
HETATM   13  C   UNL     1      10.488  15.033   4.162  1.00  0.00     0.182 C 
HETATM   14  C   UNL     1       9.481  14.072   3.584  1.00  0.00     0.176 C 
HETATM   15  O   UNL     1       9.438  12.887   3.872  1.00  0.00    -0.291 OA
ENDBRANCH   4   8
ENDBRANCH   3   4
TORSDOF 4
ENDMDL
MODEL 8
REMARK VINA RESULT:    -3.780     17.080     18.060
REMARK INTER + INTRA:          -5.070
REMARK INTER:                  -4.566
REMARK INTRA:                  -0.504
REMARK UNBOUND:                -0.517
REMARK  4 active torsions:
REMARK  status: ('A' for Active; 'I' for Inactive)
REMARK    1  A    between atoms: C_2  and  O_5 
REMARK    2  A    between atoms: C_2  and  C_4 
REMARK    3  A    between atoms: C_4  and  C_8 
REMARK    4  A    between atoms: C_4  and  C_7 
REMARK       I    between atoms: C_8  and  N_9 
ROOT
HETATM    1  C   UNL     1       7.821   0.243  22.464  1.00  0.00     0.096 C 
HETATM    2  C   UNL     1       8.243  -1.024  23.023  1.00  0.00    -0.187 C 
HETATM    3  C   UNL     1       8.766  -2.030  23.413  1.00  0.00     0.095 C 
ENDROOT
BRANCH   3   4
HETATM    4  C   UNL     1       8.813  -3.043  24.402  1.00  0.00     0.113 C 
BRANCH   4   5
HETATM    5  C   UNL     1       8.194  -2.309  25.536  1.00  0.00     0.179 C 
BRANCH   5   6
HETATM    6  O   UNL     1       8.640  -3.132  26.580  1.00  0.00    -0.400 OA
HETATM    7  H   UNL     1       8.653  -2.977  27.521  1.00  0.00     0.209 HD
ENDBRANCH   5   6
ENDBRANCH   4   5
BRANCH   4   8
HETATM    8  C   UNL     1       7.979  -4.381  24.270  1.00  0.00     0.241 C 
HETATM    9  O   UNL     1       8.004  -5.322  25.021  1.00  0.00    -0.272 OA
HETATM   10  N   UNL     1       7.172  -4.477  23.208  1.00  0.00    -0.262 N 
HETATM   11  S   UNL     1       5.543  -4.251  23.655  1.00  0.00    -0.038 SA
HETATM   12  C   UNL     1       7.190  -4.997  21.964  1.00  0.00     0.158 C 
HETATM   13  C   UNL     1       5.060  -5.698  22.652  1.00  0.00     0.182 C 
HETATM   14  C   UNL     1       6.010  -5.615  21.486  1.00  0.00     0.176 C 
HETATM   15  O   UNL     1       5.742  -6.024  20.368  1.00  0.00    -0.291 OA
ENDBRANCH   4   8
ENDBRANCH   3   4
TORSDOF 4
ENDMDL
MODEL 9
REMARK VINA RESULT:    -3.682     14.838     16.148
REMARK INTER + INTRA:          -4.952
REMARK INTER:                  -4.517
REMARK INTRA:                  -0.435
REMARK UNBOUND:                -0.517
REMARK  4 active torsions:
REMARK  status: ('A' for Active; 'I' for Inactive)
REMARK    1  A    between atoms: C_2  and  O_5 
REMARK    2  A    between atoms: C_2  and  C_4 
REMARK    3  A    between atoms: C_4  and  C_8 
REMARK    4  A    between atoms: C_4  and  C_7 
REMARK       I    between atoms: C_8  and  N_9 
ROOT
HETATM    1  C   UNL     1       8.540   6.952  26.341  1.00  0.00     0.096 C 
HETATM    2  C   UNL     1       9.486   6.365  25.416  1.00  0.00    -0.187 C 
HETATM    3  C   UNL     1      10.370   5.830  24.806  1.00  0.00     0.095 C 
ENDROOT
BRANCH   3   4
HETATM    4  C   UNL     1      10.751   5.100  23.654  1.00  0.00     0.113 C 
BRANCH   4   5
HETATM    5  C   UNL     1      12.184   5.491  23.579  1.00  0.00     0.179 C 
BRANCH   5   6
HETATM    6  O   UNL     1      12.366   5.335  22.198  1.00  0.00    -0.400 OA
HETATM    7  H   UNL     1      11.744   5.076  21.522  1.00  0.00     0.209 HD
ENDBRANCH   5   6
ENDBRANCH   4   5
BRANCH   4   8
HETATM    8  C   UNL     1      10.751   3.519  23.626  1.00  0.00     0.241 C 
HETATM    9  O   UNL     1      11.697   2.795  23.807  1.00  0.00    -0.272 OA
HETATM   10  N   UNL     1       9.580   2.929  23.364  1.00  0.00    -0.262 N 
HETATM   11  S   UNL     1       8.894   2.273  24.779  1.00  0.00    -0.038 SA
HETATM   12  C   UNL     1       8.918   2.413  22.308  1.00  0.00     0.158 C 
HETATM   13  C   UNL     1       8.512   0.727  23.888  1.00  0.00     0.182 C 
HETATM   14  C   UNL     1       8.175   1.225  22.506  1.00  0.00     0.176 C 
HETATM   15  O   UNL     1       7.396   0.658  21.757  1.00  0.00    -0.291 OA
ENDBRANCH   4   8
ENDBRANCH   3   4
TORSDOF 4
ENDMDL
