REMARK  4 active torsions:
REMARK  status: ('A' for Active; 'I' for Inactive)
REMARK    1  A    between atoms: C_2  and  O_5 
REMARK    2  A    between atoms: C_2  and  C_4 
REMARK    3  A    between atoms: C_4  and  C_8 
REMARK    4  A    between atoms: C_4  and  C_7 
REMARK       I    between atoms: C_8  and  N_9 
ROOT
HETATM    1  C   UNL     1       8.028  -3.342  25.816  1.00  0.00     0.096 C 
HETATM    2  C   UNL     1       8.540  -2.365  24.879  1.00  0.00    -0.187 C 
HETATM    3  C   UNL     1       8.840  -1.434  24.185  1.00  0.00     0.095 C 
ENDROOT
BRANCH   3   4
HETATM    4  C   UNL     1       9.851  -0.779  23.440  1.00  0.00     0.113 C 
BRANCH   4   5
HETATM    5  C   UNL     1      10.671  -1.956  23.050  1.00  0.00     0.179 C 
BRANCH   5   6
HETATM    6  O   UNL     1      11.831  -1.275  22.655  1.00  0.00    -0.400 OA
HETATM    7  H   UNL     1      12.297  -0.559  23.080  1.00  0.00     0.209 HD
ENDBRANCH   5   6
ENDBRANCH   4   5
BRANCH   4   8
HETATM    8  C   UNL     1       9.538  -0.025  22.085  1.00  0.00     0.241 C 
HETATM    9  O   UNL     1      10.256   0.754  21.512  1.00  0.00    -0.272 OA
HETATM   10  N   UNL     1       8.349  -0.274  21.527  1.00  0.00    -0.262 N 
HETATM   11  S   UNL     1       8.508  -1.306  20.180  1.00  0.00    -0.038 SA
HETATM   12  C   UNL     1       7.113   0.266  21.489  1.00  0.00     0.158 C 
HETATM   13  C   UNL     1       7.397  -0.228  19.213  1.00  0.00     0.182 C 
HETATM   14  C   UNL     1       6.419   0.247  20.256  1.00  0.00     0.176 C 
HETATM   15  O   UNL     1       5.260   0.540  20.009  1.00  0.00    -0.291 OA
ENDBRANCH   4   8
ENDBRANCH   3   4
TORSDOF 4
