REMARK  6 active torsions:
REMARK  status: ('A' for Active; 'I' for Inactive)
REMARK    1  A    between atoms: S_2  and  N_5 
REMARK    2  A    between atoms: C_7  and  C_8 
REMARK    3  A    between atoms: C_8  and  C_9 
REMARK    4  A    between atoms: C_9  and  C_15 
REMARK    5  A    between atoms: C_15  and  C_16 
REMARK       I    between atoms: C_16  and  N_18 
REMARK    6  A    between atoms: N_18  and  C_20 
ROOT
HETATM    1  C   UNL     1      10.398  -1.158  23.220  1.00  0.00     0.076 C 
HETATM    2  C   UNL     1      11.042  -0.094  24.298  1.00  0.00     0.003 C 
HETATM    3  C   UNL     1      12.130   0.188  24.234  1.00  0.00    -0.002 C 
HETATM    4  C   UNL     1      13.211  -0.114  23.547  1.00  0.00    -0.001 C 
HETATM    5  C   UNL     1      12.774  -1.240  22.659  1.00  0.00    -0.002 C 
HETATM    6  C   UNL     1      11.731  -1.677  22.582  1.00  0.00     0.003 C 
ENDROOT
BRANCH   1   7
HETATM    7  C   UNL     1       9.473  -2.032  23.554  1.00  0.00     0.021 C 
BRANCH   7   8
HETATM    8  C   UNL     1       8.963  -2.896  24.132  1.00  0.00     0.098 C 
HETATM    9  N   UNL     1       8.096  -3.537  24.698  1.00  0.00    -0.296 N 
ATOM     10  HN  UNL     1       7.198  -3.578  24.216  1.00  0.00     0.177 HD
BRANCH   9  11
HETATM   11  S   UNL     1       8.165  -4.331  26.103  1.00  0.00     0.226 S 
HETATM   12  C   UNL     1       6.618  -4.834  26.397  1.00  0.00     0.186 C 
HETATM   13  O   UNL     1       8.997  -5.500  25.979  1.00  0.00    -0.206 OA
HETATM   14  O   UNL     1       8.613  -3.460  27.179  1.00  0.00    -0.206 OA
ENDBRANCH   9  11
ENDBRANCH   7   8
ENDBRANCH   1   7
BRANCH   1  15
HETATM   15  C   UNL     1       9.745  -0.568  22.350  1.00  0.00    -0.061 C 
BRANCH  15  16
HETATM   16  C   UNL     1       9.057   0.071  21.363  1.00  0.00     0.290 C 
HETATM   17  O   UNL     1       9.498   1.050  20.922  1.00  0.00    -0.259 OA
HETATM   18  N   UNL     1       7.919  -0.586  21.074  1.00  0.00    -0.315 N 
ATOM     19  HN  UNL     1       7.670  -1.450  21.555  1.00  0.00     0.170 HD
BRANCH  18  20
HETATM   20  C   UNL     1       7.161  -0.087  20.174  1.00  0.00     0.057 A 
HETATM   21  C   UNL     1       7.188   0.003  18.841  1.00  0.00     0.117 A 
HETATM   22  N   UNL     1       6.755   0.296  17.786  1.00  0.00    -0.373 N 
HETATM   23  C   UNL     1       5.628   0.901  18.292  1.00  0.00     0.088 A 
ATOM     24  HN  UNL     1       7.095   0.152  16.835  1.00  0.00     0.164 HD
HETATM   25  C   UNL     1       5.255   1.006  19.415  1.00  0.00     0.026 A 
HETATM   26  C   UNL     1       5.817   0.585  20.586  1.00  0.00    -0.033 A 
HETATM   27  C   UNL     1       5.350   0.725  21.912  1.00  0.00     0.050 C 
ENDBRANCH  18  20
ENDBRANCH  15  16
ENDBRANCH   1  15
TORSDOF 6
