stable:False satoms:12 tatoms:24 sratio:0.5
  -OEChem-07092417483D

 24 24  0     1  0  0  0  0  0999 V2000
    6.6139   -4.8856   26.4536 C   0  0  0  0  0  0  0  0  0  0  0  0
    8.2054   -4.3104   26.1097 S   0  0  0  0  0  0  0  0  0  0  0  0
    9.0841   -5.4577   26.0574 O   0  0  0  0  0  0  0  0  0  0  0  0
    8.5806   -3.4159   27.1781 O   0  0  0  0  0  0  0  0  0  0  0  0
    8.0987   -3.6034   24.6801 N   0  0  0  0  0  0  0  0  0  0  0  0
    8.9797   -2.9289   24.1574 C   0  0  0  0  0  0  0  0  0  0  0  0
    9.4016   -1.9536   23.5250 C   0  0  0  0  0  0  0  0  0  0  0  0
   10.2882   -1.0639   23.3310 C   0  0  2  0  0  0  0  0  0  0  0  0
   10.9752   -0.0441   24.2630 C   0  0  0  0  0  0  0  0  0  0  0  0
   12.0835    0.3245   24.2698 C   0  0  0  0  0  0  0  0  0  0  0  0
   13.1412   -0.1507   23.4360 C   0  0  0  0  0  0  0  0  0  0  0  0
   12.7157   -1.2557   22.6452 C   0  0  0  0  0  0  0  0  0  0  0  0
   11.8037   -1.7315   22.5370 C   0  0  0  0  0  0  0  0  0  0  0  0
    9.7212   -0.5675   22.3448 C   0  0  0  0  0  0  0  0  0  0  0  0
    9.0549    0.0329   21.3731 C   0  0  0  0  0  0  0  0  0  0  0  0
    9.5236    0.9733   20.9710 O   0  0  0  0  0  0  0  0  0  0  0  0
    7.9239   -0.5840   21.0689 N   0  0  0  0  0  0  0  0  0  0  0  0
    7.1988   -0.0959   20.1633 C   0  0  0  0  0  0  0  0  0  0  0  0
    7.2800   -0.0027   18.8500 C   0  0  0  0  0  0  0  0  0  0  0  0
    6.8111    0.3286   17.7992 N   0  0  0  0  0  0  0  0  0  0  0  0
    5.6889    0.8893   18.1916 C   0  0  0  0  0  0  0  0  0  0  0  0
    5.2651    0.9728   19.3970 C   0  0  0  0  0  0  0  0  0  0  0  0
    5.8232    0.5777   20.5112 C   0  0  0  0  0  0  0  0  0  0  0  0
    5.3218    0.6622   21.9833 C   0  0  0  0  0  0  0  0  0  0  0  0
 20 21  2  0  0  0  0
 19 20  1  0  0  0  0
 21 22  1  0  0  0  0
 18 19  2  0  0  0  0
 22 23  2  0  0  0  0
 18 23  1  0  0  0  0
 17 18  1  0  0  0  0
 23 24  1  0  0  0  0
 15 16  2  0  0  0  0
 15 17  1  0  0  0  0
 14 15  1  0  0  0  0
  8 14  1  0  0  0  0
 12 13  2  0  0  0  0
 11 12  1  0  0  0  0
  7  8  1  0  0  0  0
  8  9  1  0  0  0  0
 10 11  1  0  0  0  0
  6  7  2  3  0  0  0
  5  6  1  0  0  0  0
  9 10  2  0  0  0  0
  2  5  1  0  0  0  0
  2  3  2  0  0  0  0
  1  2  1  0  0  0  0
  2  4  2  0  0  0  0
M  END
> <Shapegauss>
-285.800262

$$$$
