stable:False satoms:12 tatoms:24 sratio:0.5
  -OEChem-08062417443D

 47 47  0     1  0  0  0  0  0999 V2000
    5.9876   -5.2886   25.8795 C   0  0  0  0  0  0  0  0  0  0  0  0
    7.6121   -4.7133   25.7696 S   0  0  0  0  0  0  0  0  0  0  0  0
    8.4828   -5.8667   25.7184 O   0  0  0  0  0  0  0  0  0  0  0  0
    7.8687   -3.9195   26.9471 O   0  0  0  0  0  0  0  0  0  0  0  0
    7.6750   -3.8855   24.4037 N   0  0  0  0  0  0  0  0  0  0  0  0
    8.6148   -3.1840   24.0448 C   0  0  0  0  0  0  0  0  0  0  0  0
    9.1134   -2.1657   23.5511 C   0  0  0  0  0  0  0  0  0  0  0  0
   10.0227   -1.2778   23.5368 C   0  0  2  0  0  0  0  0  0  0  0  0
   10.6056   -0.3529   24.6255 C   0  0  0  0  0  0  0  0  0  0  0  0
   11.7084   -0.0051   24.7900 C   0  0  0  0  0  0  0  0  0  0  0  0
   12.8513   -0.4254   24.0437 C   0  0  0  0  0  0  0  0  0  0  0  0
   12.5114   -1.4517   23.1171 C   0  0  0  0  0  0  0  0  0  0  0  0
   11.6144   -1.9010   22.8653 C   0  0  0  0  0  0  0  0  0  0  0  0
    9.5760   -0.6897   22.5392 C   0  0  0  0  0  0  0  0  0  0  0  0
    9.0297    0.0024   21.5538 C   0  0  0  0  0  0  0  0  0  0  0  0
    9.5481    0.9656   21.2904 O   0  0  0  0  0  0  0  0  0  0  0  0
    7.9367   -0.5671   21.0709 N   0  0  0  0  0  0  0  0  0  0  0  0
    7.3236    0.0086   20.1344 C   0  0  0  0  0  0  0  0  0  0  0  0
    7.5555    0.2119   18.8519 C   0  0  0  0  0  0  0  0  0  0  0  0
    7.2125    0.6394   17.7873 N   0  0  0  0  0  0  0  0  0  0  0  0
    6.0567    1.1836   18.0967 C   0  0  0  0  0  0  0  0  0  0  0  0
    5.4982    1.1713   19.2489 C   0  0  0  0  0  0  0  0  0  0  0  0
    5.9221    0.6734   20.3808 C   0  0  0  0  0  0  0  0  0  0  0  0
    5.2559    0.6407   21.7882 C   0  0  0  0  0  0  0  0  0  0  0  0
    5.8668   -5.8732   26.8034 H   0  0  0  0  0  0  0  0  0  0  0  0
    5.2960   -4.4333   25.8938 H   0  0  0  0  0  0  0  0  0  0  0  0
    5.7648   -5.9257   25.0109 H   0  0  0  0  0  0  0  0  0  0  0  0
    6.8820   -3.2766   24.4253 H   0  0  0  0  0  0  0  0  0  0  0  0
    9.4779   -3.7818   24.2980 H   0  0  0  0  0  0  0  0  0  0  0  0
    8.4564   -1.9029   22.7352 H   0  0  0  0  0  0  0  0  0  0  0  0
   10.9198   -1.8043   23.1790 H   0  0  0  0  0  0  0  0  0  0  0  0
    9.8900    0.0282   25.3390 H   0  0  0  0  0  0  0  0  0  0  0  0
   11.8810    0.7049   25.5853 H   0  0  0  0  0  0  0  0  0  0  0  0
   13.6133   -0.8076   24.7390 H   0  0  0  0  0  0  0  0  0  0  0  0
   13.2568    0.4359   23.4926 H   0  0  0  0  0  0  0  0  0  0  0  0
   13.3579   -1.8374   22.5685 H   0  0  0  0  0  0  0  0  0  0  0  0
   11.5914   -2.6780   22.1155 H   0  0  0  0  0  0  0  0  0  0  0  0
   10.7008   -1.5932   23.3521 H   0  0  0  0  0  0  0  0  0  0  0  0
    9.2870   -1.6419   22.0704 H   0  0  0  0  0  0  0  0  0  0  0  0
   10.5890   -0.4126   22.2122 H   0  0  0  0  0  0  0  0  0  0  0  0
    7.6056   -1.4348   21.4416 H   0  0  0  0  0  0  0  0  0  0  0  0
    8.5312   -0.2164   18.6762 H   0  0  0  0  0  0  0  0  0  0  0  0
    5.5273    1.6897   17.3030 H   0  0  0  0  0  0  0  0  0  0  0  0
    4.5285    1.6448   19.2921 H   0  0  0  0  0  0  0  0  0  0  0  0
    4.6408   -0.2664   21.8824 H   0  0  0  0  0  0  0  0  0  0  0  0
    6.0365    0.6364   22.5632 H   0  0  0  0  0  0  0  0  0  0  0  0
    4.6199    1.5295   21.9134 H   0  0  0  0  0  0  0  0  0  0  0  0
 20 21  2  0  0  0  0
 19 20  1  0  0  0  0
 21 22  1  0  0  0  0
 18 19  2  0  0  0  0
 22 23  2  0  0  0  0
 18 23  1  0  0  0  0
 17 18  1  0  0  0  0
 23 24  1  0  0  0  0
 15 16  2  0  0  0  0
 15 17  1  0  0  0  0
 14 15  1  0  0  0  0
  8 14  1  0  0  0  0
 12 13  2  0  0  0  0
 11 12  1  0  0  0  0
  7  8  1  0  0  0  0
  8  9  1  0  0  0  0
 10 11  1  0  0  0  0
  6  7  2  3  0  0  0
  5  6  1  0  0  0  0
  9 10  2  0  0  0  0
  2  5  1  0  0  0  0
  2  3  2  0  0  0  0
  1  2  1  0  0  0  0
  2  4  2  0  0  0  0
  1 25  1  0  0  0  0
  1 26  1  0  0  0  0
  1 27  1  0  0  0  0
  5 28  1  0  0  0  0
  6 29  1  0  0  0  0
  7 30  1  0  0  0  0
  8 31  1  0  0  0  0
  9 32  1  0  0  0  0
 10 33  1  0  0  0  0
 11 34  1  0  0  0  0
 11 35  1  0  0  0  0
 12 36  1  0  0  0  0
 13 37  1  0  0  0  0
 13 38  1  0  0  0  0
 14 39  1  0  0  0  0
 14 40  1  0  0  0  0
 17 41  1  0  0  0  0
 19 42  1  0  0  0  0
 21 43  1  0  0  0  0
 22 44  1  0  0  0  0
 24 45  1  0  0  0  0
 24 46  1  0  0  0  0
 24 47  1  0  0  0  0
M  END
> <Chemgauss4>
-12.791909

$$$$
