stable:False satoms:12 tatoms:24 sratio:0.5
  -OEChem-08062417433D

 47 47  0     1  0  0  0  0  0999 V2000
   -5.8677   -5.4148  -25.6458 C   0  0  0  0  0  0  0  0  0  0  0  0
   -7.4922   -4.8395  -25.5359 S   0  0  0  0  0  0  0  0  0  0  0  0
   -8.3629   -5.9929  -25.4847 O   0  0  0  0  0  0  0  0  0  0  0  0
   -7.7488   -4.0457  -26.7134 O   0  0  0  0  0  0  0  0  0  0  0  0
   -7.5551   -4.0117  -24.1700 N   0  0  0  0  0  0  0  0  0  0  0  0
   -8.4950   -3.3102  -23.8111 C   0  0  0  0  0  0  0  0  0  0  0  0
   -8.9935   -2.2919  -23.3175 C   0  0  0  0  0  0  0  0  0  0  0  0
   -9.9028   -1.4040  -23.3031 C   0  0  2  0  0  0  0  0  0  0  0  0
  -10.4857   -0.4791  -24.3918 C   0  0  0  0  0  0  0  0  0  0  0  0
  -11.5885   -0.1313  -24.5563 C   0  0  0  0  0  0  0  0  0  0  0  0
  -12.7314   -0.5516  -23.8101 C   0  0  0  0  0  0  0  0  0  0  0  0
  -12.3915   -1.5779  -22.8834 C   0  0  0  0  0  0  0  0  0  0  0  0
  -11.4945   -2.0272  -22.6316 C   0  0  0  0  0  0  0  0  0  0  0  0
   -9.4561   -0.8159  -22.3056 C   0  0  0  0  0  0  0  0  0  0  0  0
   -8.9098   -0.1238  -21.3201 C   0  0  0  0  0  0  0  0  0  0  0  0
   -9.4282    0.8394  -21.0567 O   0  0  0  0  0  0  0  0  0  0  0  0
   -7.8168   -0.6933  -20.8372 N   0  0  0  0  0  0  0  0  0  0  0  0
   -7.2038   -0.1176  -19.9008 C   0  0  0  0  0  0  0  0  0  0  0  0
   -7.4356    0.0857  -18.6182 C   0  0  0  0  0  0  0  0  0  0  0  0
   -7.0926    0.5132  -17.5536 N   0  0  0  0  0  0  0  0  0  0  0  0
   -5.9368    1.0574  -17.8631 C   0  0  0  0  0  0  0  0  0  0  0  0
   -5.3783    1.0451  -19.0152 C   0  0  0  0  0  0  0  0  0  0  0  0
   -5.8022    0.5472  -20.1472 C   0  0  0  0  0  0  0  0  0  0  0  0
   -5.1360    0.5145  -21.5546 C   0  0  0  0  0  0  0  0  0  0  0  0
   -5.7469   -5.9994  -26.5698 H   0  0  0  0  0  0  0  0  0  0  0  0
   -5.1761   -4.5595  -25.6602 H   0  0  0  0  0  0  0  0  0  0  0  0
   -5.6450   -6.0519  -24.7772 H   0  0  0  0  0  0  0  0  0  0  0  0
   -6.7621   -3.4028  -24.1917 H   0  0  0  0  0  0  0  0  0  0  0  0
   -9.3580   -3.9080  -24.0643 H   0  0  0  0  0  0  0  0  0  0  0  0
   -8.3365   -2.0291  -22.5015 H   0  0  0  0  0  0  0  0  0  0  0  0
  -10.7999   -1.9305  -22.9454 H   0  0  0  0  0  0  0  0  0  0  0  0
   -9.7702   -0.0980  -25.1054 H   0  0  0  0  0  0  0  0  0  0  0  0
  -11.7611    0.5787  -25.3517 H   0  0  0  0  0  0  0  0  0  0  0  0
  -13.4934   -0.9338  -24.5053 H   0  0  0  0  0  0  0  0  0  0  0  0
  -13.1369    0.3097  -23.2589 H   0  0  0  0  0  0  0  0  0  0  0  0
  -13.2380   -1.9636  -22.3348 H   0  0  0  0  0  0  0  0  0  0  0  0
  -11.4715   -2.8042  -21.8819 H   0  0  0  0  0  0  0  0  0  0  0  0
  -10.5809   -1.7194  -23.1184 H   0  0  0  0  0  0  0  0  0  0  0  0
   -9.1671   -1.7681  -21.8368 H   0  0  0  0  0  0  0  0  0  0  0  0
  -10.4691   -0.5388  -21.9785 H   0  0  0  0  0  0  0  0  0  0  0  0
   -7.4857   -1.5610  -21.2080 H   0  0  0  0  0  0  0  0  0  0  0  0
   -8.4113   -0.3426  -18.4426 H   0  0  0  0  0  0  0  0  0  0  0  0
   -5.4075    1.5635  -17.0693 H   0  0  0  0  0  0  0  0  0  0  0  0
   -4.4086    1.5186  -19.0584 H   0  0  0  0  0  0  0  0  0  0  0  0
   -4.5209   -0.3926  -21.6487 H   0  0  0  0  0  0  0  0  0  0  0  0
   -5.9166    0.5102  -22.3296 H   0  0  0  0  0  0  0  0  0  0  0  0
   -4.5000    1.4033  -21.6797 H   0  0  0  0  0  0  0  0  0  0  0  0
 20 21  2  0  0  0  0
 19 20  1  0  0  0  0
 21 22  1  0  0  0  0
 18 19  2  0  0  0  0
 22 23  2  0  0  0  0
 18 23  1  0  0  0  0
 17 18  1  0  0  0  0
 23 24  1  0  0  0  0
 15 16  2  0  0  0  0
 15 17  1  0  0  0  0
 14 15  1  0  0  0  0
  8 14  1  0  0  0  0
 12 13  2  0  0  0  0
 11 12  1  0  0  0  0
  7  8  1  0  0  0  0
  8  9  1  0  0  0  0
 10 11  1  0  0  0  0
  6  7  2  3  0  0  0
  5  6  1  0  0  0  0
  9 10  2  0  0  0  0
  2  5  1  0  0  0  0
  2  3  2  0  0  0  0
  1  2  1  0  0  0  0
  2  4  2  0  0  0  0
  1 25  1  0  0  0  0
  1 26  1  0  0  0  0
  1 27  1  0  0  0  0
  5 28  1  0  0  0  0
  6 29  1  0  0  0  0
  7 30  1  0  0  0  0
  8 31  1  0  0  0  0
  9 32  1  0  0  0  0
 10 33  1  0  0  0  0
 11 34  1  0  0  0  0
 11 35  1  0  0  0  0
 12 36  1  0  0  0  0
 13 37  1  0  0  0  0
 13 38  1  0  0  0  0
 14 39  1  0  0  0  0
 14 40  1  0  0  0  0
 17 41  1  0  0  0  0
 19 42  1  0  0  0  0
 21 43  1  0  0  0  0
 22 44  1  0  0  0  0
 24 45  1  0  0  0  0
 24 46  1  0  0  0  0
 24 47  1  0  0  0  0
M  END
> <Chemgauss4>
-12.585596

$$$$
