MODEL 1
REMARK VINA RESULT:    -7.614      0.000      0.000
REMARK INTER + INTRA:         -12.352
REMARK INTER:                 -11.397
REMARK INTRA:                  -0.955
REMARK UNBOUND:                -0.955
REMARK  10 active torsions:
REMARK  status: ('A' for Active; 'I' for Inactive)
REMARK    1  A    between atoms: P_1  and  O5'_29 
REMARK    2  A    between atoms: C1'_15  and  N10_17 
REMARK    3  A    between atoms: C1'_15  and  C2'_19 
REMARK    4  A    between atoms: C2'_19  and  O2'_20 
REMARK    5  A    between atoms: C2'_19  and  C3'_22 
REMARK    6  A    between atoms: C3'_22  and  O3'_23 
REMARK    7  A    between atoms: C3'_22  and  C4'_25 
REMARK    8  A    between atoms: C4'_25  and  O4'_26 
REMARK    9  A    between atoms: C4'_25  and  C5'_28 
REMARK   10  A    between atoms: C5'_28  and  O5'_29 
ROOT
HETATM    1  N1  FMN B 177      -0.972  60.290  21.909  1.00 15.89    -0.292 N 
ATOM      2  H1  FMN B 177      -0.273  59.879  21.290  1.00  0.00     0.172 HD
HETATM    3  C2  FMN B 177      -0.640  60.674  23.188  1.00 16.80     0.328 A 
HETATM    4  O2  FMN B 177       0.457  60.459  23.627  1.00 20.01    -0.247 OA
HETATM    5  N3  FMN B 177      -1.565  61.310  24.026  1.00 16.03    -0.273 N 
HETATM    6  C4  FMN B 177      -2.861  61.527  23.656  1.00 18.69     0.280 A 
HETATM    7  O4  FMN B 177      -3.666  62.043  24.390  1.00 18.14    -0.265 OA
HETATM    8  N5  FMN B 177      -4.473  61.373  21.886  1.00 16.07    -0.347 N 
ATOM      9  H5  FMN B 177      -5.135  61.862  22.488  1.00  0.00     0.166 HD
HETATM   10  C6  FMN B 177      -6.080  61.380  20.068  1.00 17.19     0.039 C 
HETATM   11  C7  FMN B 177      -6.449  61.020  18.754  1.00 18.31    -0.054 C 
HETATM   12  C8  FMN B 177      -5.516  60.254  17.936  1.00 15.51    -0.054 C 
HETATM   13  C9  FMN B 177      -4.353  59.804  18.514  1.00 15.28     0.039 C 
HETATM   14  C10 FMN B 177      -2.213  60.463  21.503  1.00 16.66     0.145 A 
HETATM   15  N10 FMN B 177      -2.627  59.938  20.311  1.00 17.38    -0.327 N 
HETATM   16  C4A FMN B 177      -3.252  61.106  22.296  1.00 16.57     0.146 A 
HETATM   17  C5A FMN B 177      -4.825  60.971  20.623  1.00 17.67     0.060 C 
HETATM   18  C7M FMN B 177      -7.803  61.405  18.203  1.00 17.23     0.049 C 
HETATM   19  C8M FMN B 177      -5.782  59.931  16.475  1.00 15.72     0.049 C 
HETATM   20  C9A FMN B 177      -3.946  60.183  19.816  1.00 17.10     0.063 C 
HETATM   21  H3  FMN B 177      -1.265  61.617  24.929  1.00 20.00     0.173 HD
ENDROOT
BRANCH  15  22
HETATM   22  C1' FMN B 177      -1.690  59.156  19.494  1.00 14.49     0.165 C 
BRANCH  22  23
HETATM   23  C2' FMN B 177      -0.602  60.017  18.851  1.00 15.21     0.167 C 
BRANCH  23  24
HETATM   24  O2' FMN B 177      -0.779  60.240  17.445  1.00 13.85    -0.391 OA
HETATM   25  H2' FMN B 177      -0.016  59.925  16.976  1.00 20.00     0.210 HD
ENDBRANCH  23  24
BRANCH  23  26
HETATM   26  C3' FMN B 177       0.768  59.373  19.098  1.00 16.36     0.179 C 
BRANCH  26  27
HETATM   27  O3' FMN B 177       1.811  60.293  18.720  1.00 13.59    -0.390 OA
HETATM   28  H3' FMN B 177       1.915  60.284  17.776  1.00 20.00     0.210 HD
ENDBRANCH  26  27
BRANCH  26  29
HETATM   29  C4' FMN B 177       1.033  57.958  18.515  1.00 16.96     0.173 C 
BRANCH  29  30
HETATM   30  O4' FMN B 177       0.456  57.850  17.206  1.00 17.30    -0.391 OA
HETATM   31  H4' FMN B 177       0.051  56.996  17.108  1.00 20.00     0.210 HD
ENDBRANCH  29  30
BRANCH  29  32
HETATM   32  C5' FMN B 177       0.695  56.854  19.526  1.00 16.03     0.217 C 
BRANCH  32  33
HETATM   33  O5' FMN B 177       1.777  56.614  20.431  1.00 13.26    -0.280 OA
BRANCH  33  34
HETATM   34  P   FMN B 177       1.514  56.472  21.882  1.00 15.16     0.422 P 
HETATM   35  O1P FMN B 177       2.559  57.024  22.693  1.00 15.36    -0.617 OA
HETATM   36  O2P FMN B 177       1.143  55.106  22.219  1.00 16.12    -0.617 OA
HETATM   37  O3P FMN B 177       0.388  57.339  22.056  1.00 12.97    -0.617 OA
ENDBRANCH  33  34
ENDBRANCH  32  33
ENDBRANCH  29  32
ENDBRANCH  26  29
ENDBRANCH  23  26
ENDBRANCH  22  23
ENDBRANCH  15  22
TORSDOF 10
ENDMDL
MODEL 2
REMARK VINA RESULT:    -7.392      4.077      6.580
REMARK INTER + INTRA:         -12.021
REMARK INTER:                 -10.340
REMARK INTRA:                  -1.680
REMARK UNBOUND:                -0.955
REMARK  10 active torsions:
REMARK  status: ('A' for Active; 'I' for Inactive)
REMARK    1  A    between atoms: P_1  and  O5'_29 
REMARK    2  A    between atoms: C1'_15  and  N10_17 
REMARK    3  A    between atoms: C1'_15  and  C2'_19 
REMARK    4  A    between atoms: C2'_19  and  O2'_20 
REMARK    5  A    between atoms: C2'_19  and  C3'_22 
REMARK    6  A    between atoms: C3'_22  and  O3'_23 
REMARK    7  A    between atoms: C3'_22  and  C4'_25 
REMARK    8  A    between atoms: C4'_25  and  O4'_26 
REMARK    9  A    between atoms: C4'_25  and  C5'_28 
REMARK   10  A    between atoms: C5'_28  and  O5'_29 
ROOT
HETATM    1  N1  FMN B 177      -3.247  60.838  21.614  1.00 15.89    -0.292 N 
ATOM      2  H1  FMN B 177      -4.152  61.022  21.179  1.00  0.00     0.172 HD
HETATM    3  C2  FMN B 177      -2.985  61.261  22.896  1.00 16.80     0.328 A 
HETATM    4  O2  FMN B 177      -3.784  61.926  23.498  1.00 20.01    -0.247 OA
HETATM    5  N3  FMN B 177      -1.779  60.951  23.539  1.00 16.03    -0.273 N 
HETATM    6  C4  FMN B 177      -0.770  60.274  22.917  1.00 18.69     0.280 A 
HETATM    7  O4  FMN B 177       0.281  60.038  23.458  1.00 18.14    -0.265 OA
HETATM    8  N5  FMN B 177      -0.091  59.104  20.936  1.00 16.07    -0.347 N 
ATOM      9  H5  FMN B 177       0.774  58.855  21.417  1.00  0.00     0.166 HD
HETATM   10  C6  FMN B 177       0.565  57.776  19.013  1.00 17.19     0.039 C 
HETATM   11  C7  FMN B 177       0.320  57.306  17.705  1.00 18.31    -0.054 C 
HETATM   12  C8  FMN B 177      -0.885  57.735  17.007  1.00 15.51    -0.054 C 
HETATM   13  C9  FMN B 177      -1.687  58.680  17.601  1.00 15.28     0.039 C 
HETATM   14  C10 FMN B 177      -2.305  60.191  20.960  1.00 16.66     0.145 A 
HETATM   15  N10 FMN B 177      -2.457  59.909  19.632  1.00 17.38    -0.327 N 
HETATM   16  C4A FMN B 177      -1.016  59.824  21.532  1.00 16.57     0.146 A 
HETATM   17  C5A FMN B 177      -0.329  58.698  19.647  1.00 17.67     0.060 C 
HETATM   18  C7M FMN B 177       1.305  56.384  17.024  1.00 17.23     0.049 C 
HETATM   19  C8M FMN B 177      -1.286  57.183  15.649  1.00 15.72     0.049 C 
HETATM   20  C9A FMN B 177      -1.482  59.138  18.926  1.00 17.10     0.063 C 
HETATM   21  H3  FMN B 177      -1.652  61.236  24.489  1.00 20.00     0.173 HD
ENDROOT
BRANCH  15  22
HETATM   22  C1' FMN B 177      -3.667  60.353  18.927  1.00 14.49     0.165 C 
BRANCH  22  23
HETATM   23  C2' FMN B 177      -4.883  59.473  19.223  1.00 15.21     0.167 C 
BRANCH  23  24
HETATM   24  O2' FMN B 177      -5.178  58.510  18.202  1.00 13.85    -0.391 OA
HETATM   25  H2' FMN B 177      -6.062  58.648  17.882  1.00 20.00     0.210 HD
ENDBRANCH  23  24
BRANCH  23  26
HETATM   26  C3' FMN B 177      -6.109  60.364  19.456  1.00 16.36     0.179 C 
BRANCH  26  27
HETATM   27  O3' FMN B 177      -5.699  61.602  20.068  1.00 13.59    -0.390 OA
HETATM   28  H3' FMN B 177      -5.065  61.423  20.752  1.00 20.00     0.210 HD
ENDBRANCH  26  27
BRANCH  26  29
HETATM   29  C4' FMN B 177      -7.333  59.754  20.194  1.00 16.96     0.173 C 
BRANCH  29  30
HETATM   30  O4' FMN B 177      -6.889  58.891  21.252  1.00 17.30    -0.391 OA
HETATM   31  H4' FMN B 177      -6.216  59.330  21.758  1.00 20.00     0.210 HD
ENDBRANCH  29  30
BRANCH  29  32
HETATM   32  C5' FMN B 177      -8.365  59.186  19.211  1.00 16.03     0.217 C 
BRANCH  32  33
HETATM   33  O5' FMN B 177      -8.770  57.862  19.573  1.00 13.26    -0.280 OA
BRANCH  33  34
HETATM   34  P   FMN B 177      -8.225  56.693  18.842  1.00 15.16     0.422 P 
HETATM   35  O1P FMN B 177      -7.733  57.032  17.540  1.00 15.36    -0.617 OA
HETATM   36  O2P FMN B 177      -9.157  55.576  18.867  1.00 16.12    -0.617 OA
HETATM   37  O3P FMN B 177      -7.069  56.380  19.625  1.00 12.97    -0.617 OA
ENDBRANCH  33  34
ENDBRANCH  32  33
ENDBRANCH  29  32
ENDBRANCH  26  29
ENDBRANCH  23  26
ENDBRANCH  22  23
ENDBRANCH  15  22
TORSDOF 10
ENDMDL
MODEL 3
REMARK VINA RESULT:    -7.224     14.767     16.399
REMARK INTER + INTRA:         -11.770
REMARK INTER:                  -9.852
REMARK INTRA:                  -1.918
REMARK UNBOUND:                -0.955
REMARK  10 active torsions:
REMARK  status: ('A' for Active; 'I' for Inactive)
REMARK    1  A    between atoms: P_1  and  O5'_29 
REMARK    2  A    between atoms: C1'_15  and  N10_17 
REMARK    3  A    between atoms: C1'_15  and  C2'_19 
REMARK    4  A    between atoms: C2'_19  and  O2'_20 
REMARK    5  A    between atoms: C2'_19  and  C3'_22 
REMARK    6  A    between atoms: C3'_22  and  O3'_23 
REMARK    7  A    between atoms: C3'_22  and  C4'_25 
REMARK    8  A    between atoms: C4'_25  and  O4'_26 
REMARK    9  A    between atoms: C4'_25  and  C5'_28 
REMARK   10  A    between atoms: C5'_28  and  O5'_29 
ROOT
HETATM    1  N1  FMN B 177     -15.253  58.085  10.493  1.00 15.89    -0.292 N 
ATOM      2  H1  FMN B 177     -14.878  57.140  10.579  1.00  0.00     0.172 HD
HETATM    3  C2  FMN B 177     -15.203  58.754   9.292  1.00 16.80     0.328 A 
HETATM    4  O2  FMN B 177     -14.643  58.272   8.344  1.00 20.01    -0.247 OA
HETATM    5  N3  FMN B 177     -15.784  60.019   9.132  1.00 16.03    -0.273 N 
HETATM    6  C4  FMN B 177     -16.371  60.692  10.165  1.00 18.69     0.280 A 
HETATM    7  O4  FMN B 177     -16.839  61.795  10.036  1.00 18.14    -0.265 OA
HETATM    8  N5  FMN B 177     -17.048  60.598  12.464  1.00 16.07    -0.347 N 
ATOM      9  H5  FMN B 177     -17.495  61.507  12.337  1.00  0.00     0.166 HD
HETATM   10  C6  FMN B 177     -17.890  60.472  14.737  1.00 17.19     0.039 C 
HETATM   11  C7  FMN B 177     -17.980  59.805  15.978  1.00 18.31    -0.054 C 
HETATM   12  C8  FMN B 177     -17.271  58.545  16.162  1.00 15.51    -0.054 C 
HETATM   13  C9  FMN B 177     -16.440  58.107  15.160  1.00 15.28     0.039 C 
HETATM   14  C10 FMN B 177     -15.797  58.690  11.528  1.00 16.66     0.145 A 
HETATM   15  N10 FMN B 177     -15.710  58.137  12.773  1.00 17.38    -0.327 N 
HETATM   16  C4A FMN B 177     -16.421  60.006  11.472  1.00 16.57     0.146 A 
HETATM   17  C5A FMN B 177     -17.082  59.954  13.675  1.00 17.67     0.060 C 
HETATM   18  C7M FMN B 177     -18.785  60.397  17.111  1.00 17.23     0.049 C 
HETATM   19  C8M FMN B 177     -17.412  57.703  17.419  1.00 15.72     0.049 C 
HETATM   20  C9A FMN B 177     -16.362  58.739  13.895  1.00 17.10     0.063 C 
HETATM   21  H3  FMN B 177     -15.767  60.446   8.228  1.00 20.00     0.173 HD
ENDROOT
BRANCH  15  22
HETATM   22  C1' FMN B 177     -14.985  56.873  12.961  1.00 14.49     0.165 C 
BRANCH  22  23
HETATM   23  C2' FMN B 177     -15.893  55.647  12.857  1.00 15.21     0.167 C 
BRANCH  23  24
HETATM   24  O2' FMN B 177     -16.008  54.893  14.072  1.00 13.85    -0.391 OA
HETATM   25  H2' FMN B 177     -16.176  53.981  13.864  1.00 20.00     0.210 HD
ENDBRANCH  23  24
BRANCH  23  26
HETATM   26  C3' FMN B 177     -15.387  54.733  11.734  1.00 16.36     0.179 C 
BRANCH  26  27
HETATM   27  O3' FMN B 177     -15.743  53.367  12.023  1.00 13.59    -0.390 OA
HETATM   28  H3' FMN B 177     -15.093  52.784  11.650  1.00 20.00     0.210 HD
ENDBRANCH  26  27
BRANCH  26  29
HETATM   29  C4' FMN B 177     -13.897  54.844  11.309  1.00 16.96     0.173 C 
BRANCH  29  30
HETATM   30  O4' FMN B 177     -13.806  55.140   9.908  1.00 17.30    -0.391 OA
HETATM   31  H4' FMN B 177     -14.602  55.573   9.622  1.00 20.00     0.210 HD
ENDBRANCH  29  30
BRANCH  29  32
HETATM   32  C5' FMN B 177     -13.067  53.664  11.833  1.00 16.03     0.217 C 
BRANCH  32  33
HETATM   33  O5' FMN B 177     -13.320  53.412  13.219  1.00 13.26    -0.280 OA
BRANCH  33  34
HETATM   34  P   FMN B 177     -12.366  53.891  14.247  1.00 15.16     0.422 P 
HETATM   35  O1P FMN B 177     -11.371  54.772  13.713  1.00 15.36    -0.617 OA
HETATM   36  O2P FMN B 177     -11.840  52.786  15.033  1.00 16.12    -0.617 OA
HETATM   37  O3P FMN B 177     -13.212  54.709  15.062  1.00 12.97    -0.617 OA
ENDBRANCH  33  34
ENDBRANCH  32  33
ENDBRANCH  29  32
ENDBRANCH  26  29
ENDBRANCH  23  26
ENDBRANCH  22  23
ENDBRANCH  15  22
TORSDOF 10
ENDMDL
MODEL 4
REMARK VINA RESULT:    -7.209     15.084     17.106
REMARK INTER + INTRA:         -11.746
REMARK INTER:                 -10.103
REMARK INTRA:                  -1.643
REMARK UNBOUND:                -0.955
REMARK  10 active torsions:
REMARK  status: ('A' for Active; 'I' for Inactive)
REMARK    1  A    between atoms: P_1  and  O5'_29 
REMARK    2  A    between atoms: C1'_15  and  N10_17 
REMARK    3  A    between atoms: C1'_15  and  C2'_19 
REMARK    4  A    between atoms: C2'_19  and  O2'_20 
REMARK    5  A    between atoms: C2'_19  and  C3'_22 
REMARK    6  A    between atoms: C3'_22  and  O3'_23 
REMARK    7  A    between atoms: C3'_22  and  C4'_25 
REMARK    8  A    between atoms: C4'_25  and  O4'_26 
REMARK    9  A    between atoms: C4'_25  and  C5'_28 
REMARK   10  A    between atoms: C5'_28  and  O5'_29 
ROOT
HETATM    1  N1  FMN B 177     -11.298  60.696  33.350  1.00 15.89    -0.292 N 
ATOM      2  H1  FMN B 177     -10.543  61.300  33.675  1.00  0.00     0.172 HD
HETATM    3  C2  FMN B 177     -11.051  59.387  33.005  1.00 16.80     0.328 A 
HETATM    4  O2  FMN B 177      -9.930  58.955  33.001  1.00 20.01    -0.247 OA
HETATM    5  N3  FMN B 177     -12.085  58.519  32.631  1.00 16.03    -0.273 N 
HETATM    6  C4  FMN B 177     -13.383  58.929  32.522  1.00 18.69     0.280 A 
HETATM    7  O4  FMN B 177     -14.267  58.192  32.166  1.00 18.14    -0.265 OA
HETATM    8  N5  FMN B 177     -14.927  60.736  32.844  1.00 16.07    -0.347 N 
ATOM      9  H5  FMN B 177     -15.681  60.095  32.599  1.00  0.00     0.166 HD
HETATM   10  C6  FMN B 177     -16.536  62.492  33.313  1.00 17.19     0.039 C 
HETATM   11  C7  FMN B 177     -16.829  63.822  33.683  1.00 18.31    -0.054 C 
HETATM   12  C8  FMN B 177     -15.733  64.744  33.953  1.00 15.51    -0.054 C 
HETATM   13  C9  FMN B 177     -14.447  64.320  33.723  1.00 15.28     0.039 C 
HETATM   14  C10 FMN B 177     -12.529  61.150  33.251  1.00 16.66     0.145 A 
HETATM   15  N10 FMN B 177     -12.787  62.482  33.413  1.00 17.38    -0.327 N 
HETATM   16  C4A FMN B 177     -13.675  60.335  32.866  1.00 16.57     0.146 A 
HETATM   17  C5A FMN B 177     -15.184  62.047  33.160  1.00 17.67     0.060 C 
HETATM   18  C7M FMN B 177     -18.261  64.295  33.778  1.00 17.23     0.049 C 
HETATM   19  C8M FMN B 177     -15.959  66.154  34.474  1.00 15.72     0.049 C 
HETATM   20  C9A FMN B 177     -14.127  62.982  33.389  1.00 17.10     0.063 C 
HETATM   21  H3  FMN B 177     -11.865  57.563  32.438  1.00 20.00     0.173 HD
ENDROOT
BRANCH  15  22
HETATM   22  C1' FMN B 177     -11.681  63.413  33.674  1.00 14.49     0.165 C 
BRANCH  22  23
HETATM   23  C2' FMN B 177     -10.957  63.846  32.398  1.00 15.21     0.167 C 
BRANCH  23  24
HETATM   24  O2' FMN B 177      -9.827  63.032  32.055  1.00 13.85    -0.391 OA
HETATM   25  H2' FMN B 177      -9.401  62.730  32.848  1.00 20.00     0.210 HD
ENDBRANCH  23  24
BRANCH  23  26
HETATM   26  C3' FMN B 177     -10.511  65.307  32.538  1.00 16.36     0.179 C 
BRANCH  26  27
HETATM   27  O3' FMN B 177     -11.608  66.181  32.208  1.00 13.59    -0.390 OA
HETATM   28  H3' FMN B 177     -12.386  65.905  32.678  1.00 20.00     0.210 HD
ENDBRANCH  26  27
BRANCH  26  29
HETATM   29  C4' FMN B 177      -9.207  65.751  31.821  1.00 16.96     0.173 C 
BRANCH  29  30
HETATM   30  O4' FMN B 177      -9.098  65.097  30.548  1.00 17.30    -0.391 OA
HETATM   31  H4' FMN B 177      -9.181  64.158  30.666  1.00 20.00     0.210 HD
ENDBRANCH  29  30
BRANCH  29  32
HETATM   32  C5' FMN B 177      -7.991  65.677  32.754  1.00 16.03     0.217 C 
BRANCH  32  33
HETATM   33  O5' FMN B 177      -8.283  64.943  33.948  1.00 13.26    -0.280 OA
BRANCH  33  34
HETATM   34  P   FMN B 177      -7.342  63.905  34.431  1.00 15.16     0.422 P 
HETATM   35  O1P FMN B 177      -7.041  64.034  35.826  1.00 15.36    -0.617 OA
HETATM   36  O2P FMN B 177      -6.177  63.807  33.566  1.00 16.12    -0.617 OA
HETATM   37  O3P FMN B 177      -8.137  62.721  34.313  1.00 12.97    -0.617 OA
ENDBRANCH  33  34
ENDBRANCH  32  33
ENDBRANCH  29  32
ENDBRANCH  26  29
ENDBRANCH  23  26
ENDBRANCH  22  23
ENDBRANCH  15  22
TORSDOF 10
ENDMDL
MODEL 5
REMARK VINA RESULT:    -7.115     14.674     16.974
REMARK INTER + INTRA:         -11.606
REMARK INTER:                  -9.312
REMARK INTRA:                  -2.294
REMARK UNBOUND:                -0.955
REMARK  10 active torsions:
REMARK  status: ('A' for Active; 'I' for Inactive)
REMARK    1  A    between atoms: P_1  and  O5'_29 
REMARK    2  A    between atoms: C1'_15  and  N10_17 
REMARK    3  A    between atoms: C1'_15  and  C2'_19 
REMARK    4  A    between atoms: C2'_19  and  O2'_20 
REMARK    5  A    between atoms: C2'_19  and  C3'_22 
REMARK    6  A    between atoms: C3'_22  and  O3'_23 
REMARK    7  A    between atoms: C3'_22  and  C4'_25 
REMARK    8  A    between atoms: C4'_25  and  O4'_26 
REMARK    9  A    between atoms: C4'_25  and  C5'_28 
REMARK   10  A    between atoms: C5'_28  and  O5'_29 
ROOT
HETATM    1  N1  FMN B 177      -9.467  63.892  34.089  1.00 15.89    -0.292 N 
ATOM      2  H1  FMN B 177      -9.574  64.786  34.568  1.00  0.00     0.172 HD
HETATM    3  C2  FMN B 177      -8.224  63.324  33.931  1.00 16.80     0.328 A 
HETATM    4  O2  FMN B 177      -7.234  63.909  34.280  1.00 20.01    -0.247 OA
HETATM    5  N3  FMN B 177      -8.063  62.061  33.347  1.00 16.03    -0.273 N 
HETATM    6  C4  FMN B 177      -9.113  61.349  32.841  1.00 18.69     0.280 A 
HETATM    7  O4  FMN B 177      -8.970  60.278  32.307  1.00 18.14    -0.265 OA
HETATM    8  N5  FMN B 177     -11.493  61.245  32.569  1.00 16.07    -0.347 N 
ATOM      9  H5  FMN B 177     -11.376  60.313  32.170  1.00  0.00     0.166 HD
HETATM   10  C6  FMN B 177     -13.907  61.032  32.423  1.00 17.19     0.039 C 
HETATM   11  C7  FMN B 177     -15.199  61.574  32.590  1.00 18.31    -0.054 C 
HETATM   12  C8  FMN B 177     -15.342  62.936  33.089  1.00 15.51    -0.054 C 
HETATM   13  C9  FMN B 177     -14.208  63.692  33.269  1.00 15.28     0.039 C 
HETATM   14  C10 FMN B 177     -10.515  63.256  33.609  1.00 16.66     0.145 A 
HETATM   15  N10 FMN B 177     -11.739  63.862  33.587  1.00 17.38    -0.327 N 
HETATM   16  C4A FMN B 177     -10.457  61.943  32.978  1.00 16.57     0.146 A 
HETATM   17  C5A FMN B 177     -12.737  61.811  32.696  1.00 17.67     0.060 C 
HETATM   18  C7M FMN B 177     -16.424  60.763  32.237  1.00 17.23     0.049 C 
HETATM   19  C8M FMN B 177     -16.693  63.552  33.413  1.00 15.72     0.049 C 
HETATM   20  C9A FMN B 177     -12.902  63.159  33.144  1.00 17.10     0.063 C 
HETATM   21  H3  FMN B 177      -7.146  61.666  33.298  1.00 20.00     0.173 HD
ENDROOT
BRANCH  15  22
HETATM   22  C1' FMN B 177     -11.879  65.239  34.080  1.00 14.49     0.165 C 
BRANCH  22  23
HETATM   23  C2' FMN B 177     -11.889  66.274  32.953  1.00 15.21     0.167 C 
BRANCH  23  24
HETATM   24  O2' FMN B 177     -11.122  65.899  31.801  1.00 13.85    -0.391 OA
HETATM   25  H2' FMN B 177     -10.565  66.623  31.541  1.00 20.00     0.210 HD
ENDBRANCH  23  24
BRANCH  23  26
HETATM   26  C3' FMN B 177     -11.379  67.616  33.492  1.00 16.36     0.179 C 
BRANCH  26  27
HETATM   27  O3' FMN B 177     -11.108  68.508  32.393  1.00 13.59    -0.390 OA
HETATM   28  H3' FMN B 177     -11.366  69.391  32.630  1.00 20.00     0.210 HD
ENDBRANCH  26  27
BRANCH  26  29
HETATM   29  C4' FMN B 177     -10.203  67.605  34.505  1.00 16.96     0.173 C 
BRANCH  29  30
HETATM   30  O4' FMN B 177     -10.482  68.497  35.594  1.00 17.30    -0.391 OA
HETATM   31  H4' FMN B 177      -9.701  68.607  36.123  1.00 20.00     0.210 HD
ENDBRANCH  29  30
BRANCH  29  32
HETATM   32  C5' FMN B 177      -8.846  67.756  33.804  1.00 16.03     0.217 C 
BRANCH  32  33
HETATM   33  O5' FMN B 177      -8.584  66.665  32.915  1.00 13.26    -0.280 OA
BRANCH  33  34
HETATM   34  P   FMN B 177      -7.772  66.880  31.694  1.00 15.16     0.422 P 
HETATM   35  O1P FMN B 177      -7.294  65.656  31.123  1.00 15.36    -0.617 OA
HETATM   36  O2P FMN B 177      -6.747  67.888  31.913  1.00 16.12    -0.617 OA
HETATM   37  O3P FMN B 177      -8.756  67.377  30.780  1.00 12.97    -0.617 OA
ENDBRANCH  33  34
ENDBRANCH  32  33
ENDBRANCH  29  32
ENDBRANCH  26  29
ENDBRANCH  23  26
ENDBRANCH  22  23
ENDBRANCH  15  22
TORSDOF 10
ENDMDL
MODEL 6
REMARK VINA RESULT:    -7.104     14.576     17.489
REMARK INTER + INTRA:         -11.589
REMARK INTER:                 -10.184
REMARK INTRA:                  -1.406
REMARK UNBOUND:                -0.955
REMARK  10 active torsions:
REMARK  status: ('A' for Active; 'I' for Inactive)
REMARK    1  A    between atoms: P_1  and  O5'_29 
REMARK    2  A    between atoms: C1'_15  and  N10_17 
REMARK    3  A    between atoms: C1'_15  and  C2'_19 
REMARK    4  A    between atoms: C2'_19  and  O2'_20 
REMARK    5  A    between atoms: C2'_19  and  C3'_22 
REMARK    6  A    between atoms: C3'_22  and  O3'_23 
REMARK    7  A    between atoms: C3'_22  and  C4'_25 
REMARK    8  A    between atoms: C4'_25  and  O4'_26 
REMARK    9  A    between atoms: C4'_25  and  C5'_28 
REMARK   10  A    between atoms: C5'_28  and  O5'_29 
ROOT
HETATM    1  N1  FMN B 177     -11.584  60.714  33.663  1.00 15.89    -0.292 N 
ATOM      2  H1  FMN B 177     -12.566  60.865  33.895  1.00  0.00     0.172 HD
HETATM    3  C2  FMN B 177     -11.038  59.452  33.704  1.00 16.80     0.328 A 
HETATM    4  O2  FMN B 177     -11.685  58.517  34.092  1.00 20.01    -0.247 OA
HETATM    5  N3  FMN B 177      -9.714  59.212  33.313  1.00 16.03    -0.273 N 
HETATM    6  C4  FMN B 177      -8.868  60.215  32.935  1.00 18.69     0.280 A 
HETATM    7  O4  FMN B 177      -7.719  60.013  32.633  1.00 18.14    -0.265 OA
HETATM    8  N5  FMN B 177      -8.651  62.557  32.468  1.00 16.07    -0.347 N 
ATOM      9  H5  FMN B 177      -7.697  62.375  32.157  1.00  0.00     0.166 HD
HETATM   10  C6  FMN B 177      -8.442  64.890  31.831  1.00 17.19     0.039 C 
HETATM   11  C7  FMN B 177      -8.975  66.195  31.754  1.00 18.31    -0.054 C 
HETATM   12  C8  FMN B 177     -10.313  66.449  32.274  1.00 15.51    -0.054 C 
HETATM   13  C9  FMN B 177     -10.966  65.434  32.932  1.00 15.28     0.039 C 
HETATM   14  C10 FMN B 177     -10.811  61.722  33.317  1.00 16.66     0.145 A 
HETATM   15  N10 FMN B 177     -11.261  63.007  33.433  1.00 17.38    -0.327 N 
HETATM   16  C4A FMN B 177      -9.421  61.584  32.901  1.00 16.57     0.146 A 
HETATM   17  C5A FMN B 177      -9.174  63.826  32.447  1.00 17.67     0.060 C 
HETATM   18  C7M FMN B 177      -8.165  67.322  31.159  1.00 17.23     0.049 C 
HETATM   19  C8M FMN B 177     -11.009  67.791  32.122  1.00 15.72     0.049 C 
HETATM   20  C9A FMN B 177     -10.467  64.110  32.989  1.00 17.10     0.063 C 
HETATM   21  H3  FMN B 177      -9.375  58.271  33.312  1.00 20.00     0.173 HD
ENDROOT
BRANCH  15  22
HETATM   22  C1' FMN B 177     -12.605  63.263  33.969  1.00 14.49     0.165 C 
BRANCH  22  23
HETATM   23  C2' FMN B 177     -13.645  63.501  32.873  1.00 15.21     0.167 C 
BRANCH  23  24
HETATM   24  O2' FMN B 177     -14.407  64.705  33.034  1.00 13.85    -0.391 OA
HETATM   25  H2' FMN B 177     -13.832  65.410  33.308  1.00 20.00     0.210 HD
ENDBRANCH  23  24
BRANCH  23  26
HETATM   26  C3' FMN B 177     -14.595  62.299  32.804  1.00 16.36     0.179 C 
BRANCH  26  27
HETATM   27  O3' FMN B 177     -14.476  61.518  34.010  1.00 13.59    -0.390 OA
HETATM   28  H3' FMN B 177     -15.201  60.907  34.064  1.00 20.00     0.210 HD
ENDBRANCH  26  27
BRANCH  26  29
HETATM   29  C4' FMN B 177     -14.546  61.393  31.544  1.00 16.96     0.173 C 
BRANCH  29  30
HETATM   30  O4' FMN B 177     -13.636  61.941  30.579  1.00 17.30    -0.391 OA
HETATM   31  H4' FMN B 177     -13.921  62.813  30.334  1.00 20.00     0.210 HD
ENDBRANCH  29  30
BRANCH  29  32
HETATM   32  C5' FMN B 177     -15.953  61.025  31.053  1.00 16.03     0.217 C 
BRANCH  32  33
HETATM   33  O5' FMN B 177     -16.888  60.945  32.134  1.00 13.26    -0.280 OA
BRANCH  33  34
HETATM   34  P   FMN B 177     -17.566  59.663  32.437  1.00 15.16     0.422 P 
HETATM   35  O1P FMN B 177     -18.739  59.832  33.243  1.00 15.36    -0.617 OA
HETATM   36  O2P FMN B 177     -16.624  58.675  32.937  1.00 16.12    -0.617 OA
HETATM   37  O3P FMN B 177     -18.037  59.275  31.142  1.00 12.97    -0.617 OA
ENDBRANCH  33  34
ENDBRANCH  32  33
ENDBRANCH  29  32
ENDBRANCH  26  29
ENDBRANCH  23  26
ENDBRANCH  22  23
ENDBRANCH  15  22
TORSDOF 10
ENDMDL
MODEL 7
REMARK VINA RESULT:    -7.019     17.122     18.967
REMARK INTER + INTRA:         -11.462
REMARK INTER:                  -9.721
REMARK INTRA:                  -1.741
REMARK UNBOUND:                -0.955
REMARK  10 active torsions:
REMARK  status: ('A' for Active; 'I' for Inactive)
REMARK    1  A    between atoms: P_1  and  O5'_29 
REMARK    2  A    between atoms: C1'_15  and  N10_17 
REMARK    3  A    between atoms: C1'_15  and  C2'_19 
REMARK    4  A    between atoms: C2'_19  and  O2'_20 
REMARK    5  A    between atoms: C2'_19  and  C3'_22 
REMARK    6  A    between atoms: C3'_22  and  O3'_23 
REMARK    7  A    between atoms: C3'_22  and  C4'_25 
REMARK    8  A    between atoms: C4'_25  and  O4'_26 
REMARK    9  A    between atoms: C4'_25  and  C5'_28 
REMARK   10  A    between atoms: C5'_28  and  O5'_29 
ROOT
HETATM    1  N1  FMN B 177     -16.974  58.352  31.829  1.00 15.89    -0.292 N 
ATOM      2  H1  FMN B 177     -17.325  57.578  32.394  1.00  0.00     0.172 HD
HETATM    3  C2  FMN B 177     -17.717  58.854  30.786  1.00 16.80     0.328 A 
HETATM    4  O2  FMN B 177     -18.755  58.340  30.468  1.00 20.01    -0.247 OA
HETATM    5  N3  FMN B 177     -17.288  59.966  30.049  1.00 16.03    -0.273 N 
HETATM    6  C4  FMN B 177     -16.086  60.574  30.272  1.00 18.69     0.280 A 
HETATM    7  O4  FMN B 177     -15.701  61.508  29.615  1.00 18.14    -0.265 OA
HETATM    8  N5  FMN B 177     -14.131  60.657  31.659  1.00 16.07    -0.347 N 
ATOM      9  H5  FMN B 177     -13.835  61.484  31.140  1.00  0.00     0.166 HD
HETATM   10  C6  FMN B 177     -12.221  60.873  33.142  1.00 17.19     0.039 C 
HETATM   11  C7  FMN B 177     -11.445  60.398  34.220  1.00 18.31    -0.054 C 
HETATM   12  C8  FMN B 177     -11.843  59.173  34.900  1.00 15.51    -0.054 C 
HETATM   13  C9  FMN B 177     -12.898  58.453  34.392  1.00 15.28     0.039 C 
HETATM   14  C10 FMN B 177     -15.800  58.891  32.082  1.00 16.66     0.145 A 
HETATM   15  N10 FMN B 177     -14.958  58.313  32.989  1.00 17.38    -0.327 N 
HETATM   16  C4A FMN B 177     -15.258  60.043  31.373  1.00 16.57     0.146 A 
HETATM   17  C5A FMN B 177     -13.368  60.150  32.680  1.00 17.67     0.060 C 
HETATM   18  C7M FMN B 177     -10.201  61.139  34.656  1.00 17.23     0.049 C 
HETATM   19  C8M FMN B 177     -11.137  58.659  36.144  1.00 15.72     0.049 C 
HETATM   20  C9A FMN B 177     -13.714  58.927  33.336  1.00 17.10     0.063 C 
HETATM   21  H3  FMN B 177     -17.884  60.328  29.332  1.00 20.00     0.173 HD
ENDROOT
BRANCH  15  22
HETATM   22  C1' FMN B 177     -15.355  57.071  33.665  1.00 14.49     0.165 C 
BRANCH  22  23
HETATM   23  C2' FMN B 177     -15.069  55.822  32.829  1.00 15.21     0.167 C 
BRANCH  23  24
HETATM   24  O2' FMN B 177     -15.365  55.967  31.433  1.00 13.85    -0.391 OA
HETATM   25  H2' FMN B 177     -15.518  56.883  31.235  1.00 20.00     0.210 HD
ENDBRANCH  23  24
BRANCH  23  26
HETATM   26  C3' FMN B 177     -15.858  54.637  33.399  1.00 16.36     0.179 C 
BRANCH  26  27
HETATM   27  O3' FMN B 177     -15.598  54.517  34.811  1.00 13.59    -0.390 OA
HETATM   28  H3' FMN B 177     -14.966  53.823  34.959  1.00 20.00     0.210 HD
ENDBRANCH  26  27
BRANCH  26  29
HETATM   29  C4' FMN B 177     -15.736  53.261  32.689  1.00 16.96     0.173 C 
BRANCH  29  30
HETATM   30  O4' FMN B 177     -14.573  53.242  31.849  1.00 17.30    -0.391 OA
HETATM   31  H4' FMN B 177     -14.341  54.132  31.608  1.00 20.00     0.210 HD
ENDBRANCH  29  30
BRANCH  29  32
HETATM   32  C5' FMN B 177     -17.065  52.827  32.057  1.00 16.03     0.217 C 
BRANCH  32  33
HETATM   33  O5' FMN B 177     -17.682  53.897  31.332  1.00 13.26    -0.280 OA
BRANCH  33  34
HETATM   34  P   FMN B 177     -17.588  53.943  29.854  1.00 15.16     0.422 P 
HETATM   35  O1P FMN B 177     -18.604  53.166  29.208  1.00 15.36    -0.617 OA
HETATM   36  O2P FMN B 177     -16.233  53.665  29.404  1.00 16.12    -0.617 OA
HETATM   37  O3P FMN B 177     -17.918  55.311  29.589  1.00 12.97    -0.617 OA
ENDBRANCH  33  34
ENDBRANCH  32  33
ENDBRANCH  29  32
ENDBRANCH  26  29
ENDBRANCH  23  26
ENDBRANCH  22  23
ENDBRANCH  15  22
TORSDOF 10
ENDMDL
MODEL 8
REMARK VINA RESULT:    -6.998     12.666     15.499
REMARK INTER + INTRA:         -11.431
REMARK INTER:                 -10.436
REMARK INTRA:                  -0.995
REMARK UNBOUND:                -0.955
REMARK  10 active torsions:
REMARK  status: ('A' for Active; 'I' for Inactive)
REMARK    1  A    between atoms: P_1  and  O5'_29 
REMARK    2  A    between atoms: C1'_15  and  N10_17 
REMARK    3  A    between atoms: C1'_15  and  C2'_19 
REMARK    4  A    between atoms: C2'_19  and  O2'_20 
REMARK    5  A    between atoms: C2'_19  and  C3'_22 
REMARK    6  A    between atoms: C3'_22  and  O3'_23 
REMARK    7  A    between atoms: C3'_22  and  C4'_25 
REMARK    8  A    between atoms: C4'_25  and  O4'_26 
REMARK    9  A    between atoms: C4'_25  and  C5'_28 
REMARK   10  A    between atoms: C5'_28  and  O5'_29 
ROOT
HETATM    1  N1  FMN B 177     -15.244  57.803  10.512  1.00 15.89    -0.292 N 
ATOM      2  H1  FMN B 177     -14.942  56.830  10.570  1.00  0.00     0.172 HD
HETATM    3  C2  FMN B 177     -15.104  58.513   9.342  1.00 16.80     0.328 A 
HETATM    4  O2  FMN B 177     -14.552  58.027   8.392  1.00 20.01    -0.247 OA
HETATM    5  N3  FMN B 177     -15.583  59.824   9.217  1.00 16.03    -0.273 N 
HETATM    6  C4  FMN B 177     -16.152  60.498  10.259  1.00 18.69     0.280 A 
HETATM    7  O4  FMN B 177     -16.532  61.638  10.162  1.00 18.14    -0.265 OA
HETATM    8  N5  FMN B 177     -16.909  60.367  12.532  1.00 16.07    -0.347 N 
ATOM      9  H5  FMN B 177     -17.282  61.311  12.430  1.00  0.00     0.166 HD
HETATM   10  C6  FMN B 177     -17.831  60.217  14.772  1.00 17.19     0.039 C 
HETATM   11  C7  FMN B 177     -18.011  59.510  15.981  1.00 18.31    -0.054 C 
HETATM   12  C8  FMN B 177     -17.405  58.194  16.134  1.00 15.51    -0.054 C 
HETATM   13  C9  FMN B 177     -16.576  57.733  15.139  1.00 15.28     0.039 C 
HETATM   14  C10 FMN B 177     -15.774  58.407  11.555  1.00 16.66     0.145 A 
HETATM   15  N10 FMN B 177     -15.769  57.800  12.778  1.00 17.38    -0.327 N 
HETATM   16  C4A FMN B 177     -16.296  59.768  11.535  1.00 16.57     0.146 A 
HETATM   17  C5A FMN B 177     -17.030  59.680  13.713  1.00 17.67     0.060 C 
HETATM   18  C7M FMN B 177     -18.806  60.117  17.113  1.00 17.23     0.049 C 
HETATM   19  C8M FMN B 177     -17.649  57.316  17.350  1.00 15.72     0.049 C 
HETATM   20  C9A FMN B 177     -16.410  58.406  13.904  1.00 17.10     0.063 C 
HETATM   21  H3  FMN B 177     -15.506  60.283   8.332  1.00 20.00     0.173 HD
ENDROOT
BRANCH  15  22
HETATM   22  C1' FMN B 177     -15.146  56.479  12.935  1.00 14.49     0.165 C 
BRANCH  22  23
HETATM   23  C2' FMN B 177     -13.686  56.560  13.382  1.00 15.21     0.167 C 
BRANCH  23  24
HETATM   24  O2' FMN B 177     -12.785  57.033  12.371  1.00 13.85    -0.391 OA
HETATM   25  H2' FMN B 177     -13.257  57.151  11.555  1.00 20.00     0.210 HD
ENDBRANCH  23  24
BRANCH  23  26
HETATM   26  C3' FMN B 177     -13.227  55.181  13.871  1.00 16.36     0.179 C 
BRANCH  26  27
HETATM   27  O3' FMN B 177     -14.377  54.359  14.150  1.00 13.59    -0.390 OA
HETATM   28  H3' FMN B 177     -14.151  53.445  14.027  1.00 20.00     0.210 HD
ENDBRANCH  26  27
BRANCH  26  29
HETATM   29  C4' FMN B 177     -12.199  55.117  15.034  1.00 16.96     0.173 C 
BRANCH  29  30
HETATM   30  O4' FMN B 177     -11.911  53.749  15.360  1.00 17.30    -0.391 OA
HETATM   31  H4' FMN B 177     -11.329  53.718  16.111  1.00 20.00     0.210 HD
ENDBRANCH  29  30
BRANCH  29  32
HETATM   32  C5' FMN B 177     -12.590  56.047  16.190  1.00 16.03     0.217 C 
BRANCH  32  33
HETATM   33  O5' FMN B 177     -11.799  55.802  17.358  1.00 13.26    -0.280 OA
BRANCH  33  34
HETATM   34  P   FMN B 177     -12.262  56.279  18.683  1.00 15.16     0.422 P 
HETATM   35  O1P FMN B 177     -13.673  56.529  18.720  1.00 15.36    -0.617 OA
HETATM   36  O2P FMN B 177     -11.439  57.375  19.166  1.00 16.12    -0.617 OA
HETATM   37  O3P FMN B 177     -12.053  55.118  19.494  1.00 12.97    -0.617 OA
ENDBRANCH  33  34
ENDBRANCH  32  33
ENDBRANCH  29  32
ENDBRANCH  26  29
ENDBRANCH  23  26
ENDBRANCH  22  23
ENDBRANCH  15  22
TORSDOF 10
ENDMDL
MODEL 9
REMARK VINA RESULT:    -6.941     17.927     20.737
REMARK INTER + INTRA:         -11.346
REMARK INTER:                  -9.166
REMARK INTRA:                  -2.180
REMARK UNBOUND:                -0.955
REMARK  10 active torsions:
REMARK  status: ('A' for Active; 'I' for Inactive)
REMARK    1  A    between atoms: P_1  and  O5'_29 
REMARK    2  A    between atoms: C1'_15  and  N10_17 
REMARK    3  A    between atoms: C1'_15  and  C2'_19 
REMARK    4  A    between atoms: C2'_19  and  O2'_20 
REMARK    5  A    between atoms: C2'_19  and  C3'_22 
REMARK    6  A    between atoms: C3'_22  and  O3'_23 
REMARK    7  A    between atoms: C3'_22  and  C4'_25 
REMARK    8  A    between atoms: C4'_25  and  O4'_26 
REMARK    9  A    between atoms: C4'_25  and  C5'_28 
REMARK   10  A    between atoms: C5'_28  and  O5'_29 
ROOT
HETATM    1  N1  FMN B 177     -19.069  60.148  34.502  1.00 15.89    -0.292 N 
ATOM      2  H1  FMN B 177     -18.595  59.272  34.281  1.00  0.00     0.172 HD
HETATM    3  C2  FMN B 177     -20.368  60.150  34.954  1.00 16.80     0.328 A 
HETATM    4  O2  FMN B 177     -20.996  59.128  35.021  1.00 20.01    -0.247 OA
HETATM    5  N3  FMN B 177     -21.010  61.335  35.337  1.00 16.03    -0.273 N 
HETATM    6  C4  FMN B 177     -20.417  62.560  35.223  1.00 18.69     0.280 A 
HETATM    7  O4  FMN B 177     -20.981  63.582  35.519  1.00 18.14    -0.265 OA
HETATM    8  N5  FMN B 177     -18.407  63.748  34.673  1.00 16.07    -0.347 N 
ATOM      9  H5  FMN B 177     -18.867  64.605  34.979  1.00  0.00     0.166 HD
HETATM   10  C6  FMN B 177     -16.343  64.963  34.280  1.00 17.19     0.039 C 
HETATM   11  C7  FMN B 177     -15.002  64.996  33.842  1.00 18.31    -0.054 C 
HETATM   12  C8  FMN B 177     -14.388  63.775  33.336  1.00 15.51    -0.054 C 
HETATM   13  C9  FMN B 177     -15.173  62.657  33.191  1.00 15.28     0.039 C 
HETATM   14  C10 FMN B 177     -18.451  61.302  34.359  1.00 16.66     0.145 A 
HETATM   15  N10 FMN B 177     -17.230  61.358  33.749  1.00 17.38    -0.327 N 
HETATM   16  C4A FMN B 177     -19.029  62.590  34.720  1.00 16.57     0.146 A 
HETATM   17  C5A FMN B 177     -17.120  63.764  34.198  1.00 17.67     0.060 C 
HETATM   18  C7M FMN B 177     -14.214  66.285  33.876  1.00 17.23     0.049 C 
HETATM   19  C8M FMN B 177     -12.918  63.693  32.960  1.00 15.72     0.049 C 
HETATM   20  C9A FMN B 177     -16.508  62.590  33.657  1.00 17.10     0.063 C 
HETATM   21  H3  FMN B 177     -21.937  61.283  35.708  1.00 20.00     0.173 HD
ENDROOT
BRANCH  15  22
HETATM   22  C1' FMN B 177     -16.617  60.129  33.229  1.00 14.49     0.165 C 
BRANCH  22  23
HETATM   23  C2' FMN B 177     -17.035  59.821  31.790  1.00 15.21     0.167 C 
BRANCH  23  24
HETATM   24  O2' FMN B 177     -18.345  59.251  31.666  1.00 13.85    -0.391 OA
HETATM   25  H2' FMN B 177     -18.315  58.514  31.068  1.00 20.00     0.210 HD
ENDBRANCH  23  24
BRANCH  23  26
HETATM   26  C3' FMN B 177     -16.005  58.880  31.152  1.00 16.36     0.179 C 
BRANCH  26  27
HETATM   27  O3' FMN B 177     -16.594  58.216  30.016  1.00 13.59    -0.390 OA
HETATM   28  H3' FMN B 177     -16.802  58.857  29.347  1.00 20.00     0.210 HD
ENDBRANCH  26  27
BRANCH  26  29
HETATM   29  C4' FMN B 177     -15.264  57.868  32.068  1.00 16.96     0.173 C 
BRANCH  29  30
HETATM   30  O4' FMN B 177     -13.845  58.028  31.930  1.00 17.30    -0.391 OA
HETATM   31  H4' FMN B 177     -13.487  57.287  31.456  1.00 20.00     0.210 HD
ENDBRANCH  29  30
BRANCH  29  32
HETATM   32  C5' FMN B 177     -15.829  56.449  31.921  1.00 16.03     0.217 C 
BRANCH  32  33
HETATM   33  O5' FMN B 177     -17.258  56.436  31.999  1.00 13.26    -0.280 OA
BRANCH  33  34
HETATM   34  P   FMN B 177     -17.929  56.130  33.284  1.00 15.16     0.422 P 
HETATM   35  O1P FMN B 177     -18.785  57.190  33.730  1.00 15.36    -0.617 OA
HETATM   36  O2P FMN B 177     -16.976  55.661  34.278  1.00 16.12    -0.617 OA
HETATM   37  O3P FMN B 177     -18.802  55.061  32.904  1.00 12.97    -0.617 OA
ENDBRANCH  33  34
ENDBRANCH  32  33
ENDBRANCH  29  32
ENDBRANCH  26  29
ENDBRANCH  23  26
ENDBRANCH  22  23
ENDBRANCH  15  22
TORSDOF 10
ENDMDL
