stable:False satoms:19 tatoms:24 sratio:0.7916666666666666
  -OEChem-08052422273D

 24 24  0     1  0  0  0  0  0999 V2000
   14.0417   -1.5923   23.0320 H   0  0  0  0  0  0  0  0  0  0  0  0
   13.0613   -1.2566   23.3273 C   0  0  0  0  0  0  0  0  0  0  0  0
    8.7660   -0.5716   21.9596 C   0  0  0  0  0  0  0  0  0  0  0  0
   12.1488   -1.9350   22.8138 N   0  0  0  0  0  0  0  0  0  0  0  0
    9.3068   -1.1289   21.2042 H   0  0  0  0  0  0  0  0  0  0  0  0
    9.1492   -2.9548   23.0510 C   0  0  2  0  0  0  0  0  0  0  0  0
   12.9934   -0.1428   24.2551 C   0  0  0  0  0  0  0  0  0  0  0  0
    7.7695   -0.9378   22.1885 H   0  0  0  0  0  0  0  0  0  0  0  0
    9.5894    0.3565   24.0286 N   0  0  0  0  0  0  0  0  0  0  0  0
   12.4185    1.5706   25.3142 H   0  0  0  0  0  0  0  0  0  0  0  0
   12.0445    0.8000   24.6529 C   0  0  0  0  0  0  0  0  0  0  0  0
   13.9433    0.0246   24.7535 H   0  0  0  0  0  0  0  0  0  0  0  0
    9.3707   -0.7029   23.2951 C   0  0  0  0  0  0  0  0  0  0  0  0
   10.6350    1.1635   24.3289 C   0  0  0  0  0  0  0  0  0  0  0  0
    8.1653   -3.4424   22.0586 N   0  0  0  0  0  0  0  0  0  0  0  0
    8.8169   -3.2669   24.2318 O   0  0  0  0  0  0  0  0  0  0  0  0
   11.1469   -1.9277   22.9190 H   0  0  0  0  0  0  0  0  0  0  0  0
    8.6601    0.8113   24.1587 H   0  0  0  0  0  0  0  0  0  0  0  0
   10.2645    2.2850   24.4227 O   0  0  0  0  0  0  0  0  0  0  0  0
    8.5728    0.4293   21.6132 H   0  0  0  0  0  0  0  0  0  0  0  0
    9.1502   -1.8464   23.8585 N   0  3  0  0  0  0  0  0  0  0  0  0
   10.0771   -3.1864   22.4640 H   0  0  0  0  0  0  0  0  0  0  0  0
    8.4953   -4.2944   21.6522 H   0  0  0  0  0  0  0  0  0  0  0  0
    8.0466   -2.7553   21.3418 H   0  0  0  0  0  0  0  0  0  0  0  0
  3 20  1  0  0  0  0
  3  8  1  0  0  0  0
  9 18  1  0  0  0  0
 15 23  1  0  0  0  0
  3  5  1  0  0  0  0
  3 13  1  0  0  0  0
 14 19  2  0  0  0  0
  9 13  1  0  0  0  0
  9 14  1  0  0  0  0
 13 21  2  0  0  0  0
 15 24  1  0  0  0  0
  6 15  1  0  0  0  0
 11 14  1  0  0  0  0
 16 21  1  0  0  0  0
  6 21  1  0  0  0  0
  6 16  1  0  0  0  0
  6 22  1  0  0  0  0
 10 11  1  0  0  0  0
  7 11  2  0  0  0  0
  4 17  1  0  0  0  0
  2  7  1  0  0  0  0
  7 12  1  0  0  0  0
  2  4  2  0  0  0  0
  1  2  1  0  0  0  0
M  CHG  1  21   1
M  END
> <Chemgauss4>
-5.721935

$$$$
