stable:False satoms:19 tatoms:24 sratio:0.7916666666666666
  -OEChem-08052422273D

 24 24  0     1  0  0  0  0  0999 V2000
  -14.2356   -2.2455  -22.7268 H   0  0  0  0  0  0  0  0  0  0  0  0
  -13.3425   -1.7672  -23.0936 C   0  0  0  0  0  0  0  0  0  0  0  0
   -9.1127   -0.4236  -22.0484 C   0  0  0  0  0  0  0  0  0  0  0  0
  -12.3018   -2.2940  -22.6510 N   0  0  0  0  0  0  0  0  0  0  0  0
   -9.5048   -1.0496  -21.2561 H   0  0  0  0  0  0  0  0  0  0  0  0
   -9.2075   -2.8473  -23.1133 C   0  0  2  0  0  0  0  0  0  0  0  0
  -13.5141   -0.6647  -24.0216 C   0  0  0  0  0  0  0  0  0  0  0  0
   -8.0917   -0.6358  -22.3518 H   0  0  0  0  0  0  0  0  0  0  0  0
  -10.2188    0.3491  -24.0483 N   0  0  0  0  0  0  0  0  0  0  0  0
  -13.2873    1.1063  -25.1169 H   0  0  0  0  0  0  0  0  0  0  0  0
  -12.7522    0.4079  -24.4869 C   0  0  0  0  0  0  0  0  0  0  0  0
  -14.5127   -0.6486  -24.4474 H   0  0  0  0  0  0  0  0  0  0  0  0
   -9.7874   -0.6578  -23.3355 C   0  0  0  0  0  0  0  0  0  0  0  0
  -11.3946    0.9847  -24.2682 C   0  0  0  0  0  0  0  0  0  0  0  0
   -8.0901   -3.1701  -22.1981 N   0  0  0  0  0  0  0  0  0  0  0  0
   -8.9198   -3.1161  -24.3162 O   0  0  0  0  0  0  0  0  0  0  0  0
  -11.3232   -2.1352  -22.8306 H   0  0  0  0  0  0  0  0  0  0  0  0
   -9.3819    0.9390  -24.2464 H   0  0  0  0  0  0  0  0  0  0  0  0
  -11.2074    2.1486  -24.3870 O   0  0  0  0  0  0  0  0  0  0  0  0
   -9.0493    0.5983  -21.7153 H   0  0  0  0  0  0  0  0  0  0  0  0
   -9.4374   -1.7595  -23.9161 N   0  3  0  0  0  0  0  0  0  0  0  0
  -10.0433   -3.2120  -22.4593 H   0  0  0  0  0  0  0  0  0  0  0  0
   -8.2553   -4.0587  -21.7700 H   0  0  0  0  0  0  0  0  0  0  0  0
   -8.0249   -2.4664  -21.4906 H   0  0  0  0  0  0  0  0  0  0  0  0
  3 20  1  0  0  0  0
  3  8  1  0  0  0  0
  9 18  1  0  0  0  0
 15 23  1  0  0  0  0
  3  5  1  0  0  0  0
  3 13  1  0  0  0  0
 14 19  2  0  0  0  0
  9 13  1  0  0  0  0
  9 14  1  0  0  0  0
 13 21  2  0  0  0  0
 15 24  1  0  0  0  0
  6 15  1  0  0  0  0
 11 14  1  0  0  0  0
 16 21  1  0  0  0  0
  6 21  1  0  0  0  0
  6 16  1  0  0  0  0
  6 22  1  0  0  0  0
 10 11  1  0  0  0  0
  7 11  2  0  0  0  0
  4 17  1  0  0  0  0
  2  7  1  0  0  0  0
  7 12  1  0  0  0  0
  2  4  2  0  0  0  0
  1  2  1  0  0  0  0
M  CHG  1  21   1
M  END
> <Chemgauss4>
-5.662417

$$$$
