stable:False satoms:7 tatoms:24 sratio:0.2916666666666667
  -OEChem-07092417503D

 24 26  0     1  0  0  0  0  0999 V2000
    6.5624   -4.8598   26.5048 C   0  0  0  0  0  0  0  0  0  0  0  0
    8.2363   -4.3048   26.1279 S   0  0  0  0  0  0  0  0  0  0  0  0
    9.0544   -5.4832   26.0822 O   0  0  0  0  0  0  0  0  0  0  0  0
    8.6362   -3.4059   27.1691 O   0  0  0  0  0  0  0  0  0  0  0  0
    8.1439   -3.5908   24.6726 N   0  0  0  0  0  0  0  0  0  0  0  0
    8.9910   -2.9411   24.1182 C   0  0  0  0  0  0  0  0  0  0  0  0
    9.4334   -1.9440   23.4904 C   0  0  0  0  0  0  0  0  0  0  0  0
   10.3087   -1.0933   23.2664 C   0  0  1  0  0  0  0  0  0  0  0  0
   11.0138   -0.0066   24.2991 C   0  0  0  0  0  0  0  0  0  0  0  0
   12.0160    0.3010   24.3165 C   0  0  0  0  0  0  0  0  0  0  0  0
   13.1993   -0.3013   23.3602 C   0  0  0  0  0  0  0  0  0  0  0  0
   12.7383   -1.2295   22.6897 C   0  0  0  0  0  0  0  0  0  0  0  0
   11.7678   -1.7533   22.5130 C   0  0  0  0  0  0  0  0  0  0  0  0
    9.7179   -0.5750   22.3516 C   0  0  2  0  0  0  0  0  0  0  0  0
    9.0636    0.0687   21.3738 C   0  0  0  0  0  0  0  0  0  0  0  0
    9.5243    1.0234   20.9797 O   0  0  0  0  0  0  0  0  0  0  0  0
    7.9306   -0.5480   21.0627 N   0  0  0  0  0  0  0  0  0  0  0  0
    7.1927   -0.1075   20.1503 C   0  0  0  0  0  0  0  0  0  0  0  0
    7.2270   -0.0148   18.8382 C   0  0  0  0  0  0  0  0  0  0  0  0
    6.7568    0.3325   17.7619 N   0  0  0  0  0  0  0  0  0  0  0  0
    5.6526    0.8962   18.2378 C   0  0  0  0  0  0  0  0  0  0  0  0
    5.2581    0.9970   19.3909 C   0  0  0  0  0  0  0  0  0  0  0  0
    5.8273    0.5632   20.5146 C   0  0  0  0  0  0  0  0  0  0  0  0
    5.3318    0.6867   22.0250 C   0  0  0  0  0  0  0  0  0  0  0  0
 20 21  2  0  0  0  0
 19 20  1  0  0  0  0
 21 22  1  0  0  0  0
 18 19  2  0  0  0  0
 22 23  2  0  0  0  0
 18 23  1  0  0  0  0
 17 18  1  0  0  0  0
 23 24  1  0  0  0  0
 15 16  2  0  0  0  0
 15 17  1  0  0  0  0
 14 15  1  0  0  0  0
  8 14  1  0  0  0  0
  7 14  1  0  0  0  0
 12 13  1  0  0  0  0
  8 13  1  0  0  0  0
 11 12  2  0  0  0  0
  7  8  1  0  0  0  0
  8  9  1  0  0  0  0
 10 11  1  0  0  0  0
  6  7  2  3  0  0  0
  5  6  1  0  0  0  0
  9 10  2  0  0  0  0
  2  5  1  0  0  0  0
  2  3  2  0  0  0  0
  1  2  1  0  0  0  0
  2  4  2  0  0  0  0
M  END
> <Shapegauss>
-286.041321

$$$$
