MODEL 1
REMARK VINA RESULT:    -7.876      0.000      0.000
REMARK INTER + INTRA:         -10.652
REMARK INTER:                  -9.717
REMARK INTRA:                  -0.935
REMARK UNBOUND:                -0.935
REMARK  4 active torsions:
REMARK  status: ('A' for Active; 'I' for Inactive)
REMARK    1  A    between atoms: S_2  and  N_5 
REMARK    2  A    between atoms: N_5  and  C_7 
REMARK    3  A    between atoms: C_15  and  C_16 
REMARK       I    between atoms: C_16  and  N_18 
REMARK    4  A    between atoms: N_18  and  C_20 
ROOT
HETATM    1  C   UNL     1       8.700   0.803  22.227  1.00  0.00     0.109 C 
HETATM    2  C   UNL     1       9.225  -0.012  23.029  1.00  0.00    -0.008 A 
HETATM    3  C   UNL     1      10.212  -0.593  23.507  1.00  0.00     0.057 A 
HETATM    4  C   UNL     1      11.368  -1.507  22.751  1.00  0.00    -0.007 C 
HETATM    5  C   UNL     1      12.394  -1.544  22.963  1.00  0.00    -0.025 C 
HETATM    6  C   UNL     1      13.157  -0.609  24.068  1.00  0.00     0.053 C 
HETATM    7  C   UNL     1      12.349   0.200  24.534  1.00  0.00    -0.025 C 
HETATM    8  C   UNL     1      11.266   0.460  24.462  1.00  0.00    -0.007 C 
HETATM    9  C   UNL     1       9.582  -1.202  24.335  1.00  0.00     0.040 A 
ENDROOT
BRANCH   9  10
HETATM   10  C   UNL     1       8.909  -1.946  25.225  1.00  0.00     0.254 C 
HETATM   11  O   UNL     1       8.673  -1.475  26.225  1.00  0.00    -0.268 OA
HETATM   12  N   UNL     1       8.665  -3.162  24.753  1.00  0.00    -0.321 N 
ATOM     13  HN  UNL     1       9.004  -3.421  23.827  1.00  0.00     0.169 HD
BRANCH  12  14
HETATM   14  C   UNL     1       8.022  -3.995  25.435  1.00  0.00     0.056 A 
HETATM   15  C   UNL     1       8.281  -4.899  26.354  1.00  0.00     0.117 A 
HETATM   16  N   UNL     1       7.948  -5.794  27.121  1.00  0.00    -0.373 N 
HETATM   17  C   UNL     1       6.656  -5.801  26.816  1.00  0.00     0.088 A 
ATOM     18  HN  UNL     1       8.488  -6.354  27.781  1.00  0.00     0.164 HD
HETATM   19  C   UNL     1       6.032  -5.105  26.027  1.00  0.00     0.026 A 
HETATM   20  C   UNL     1       6.475  -4.125  25.240  1.00  0.00    -0.033 A 
HETATM   21  C   UNL     1       5.681  -3.209  24.205  1.00  0.00     0.050 C 
ENDBRANCH  12  14
ENDBRANCH   9  10
BRANCH   1  22
HETATM   22  N   UNL     1       7.861   1.182  21.451  1.00  0.00    -0.295 N 
ATOM     23  HN  UNL     1       7.492   2.120  21.610  1.00  0.00     0.177 HD
BRANCH  22  24
HETATM   24  S   UNL     1       7.247   0.377  20.183  1.00  0.00     0.226 S 
HETATM   25  C   UNL     1       6.467  -1.096  20.872  1.00  0.00     0.186 C 
HETATM   26  O   UNL     1       6.204   1.127  19.542  1.00  0.00    -0.206 OA
HETATM   27  O   UNL     1       8.249  -0.059  19.257  1.00  0.00    -0.206 OA
ENDBRANCH  22  24
ENDBRANCH   1  22
TORSDOF 4
ENDMDL
MODEL 2
REMARK VINA RESULT:    -7.871      2.877      6.045
REMARK INTER + INTRA:         -10.646
REMARK INTER:                  -9.934
REMARK INTRA:                  -0.712
REMARK UNBOUND:                -0.935
REMARK  4 active torsions:
REMARK  status: ('A' for Active; 'I' for Inactive)
REMARK    1  A    between atoms: S_2  and  N_5 
REMARK    2  A    between atoms: N_5  and  C_7 
REMARK    3  A    between atoms: C_15  and  C_16 
REMARK       I    between atoms: C_16  and  N_18 
REMARK    4  A    between atoms: N_18  and  C_20 
ROOT
HETATM    1  C   UNL     1       8.593  -3.508  23.885  1.00  0.00     0.109 C 
HETATM    2  C   UNL     1       8.921  -2.384  23.425  1.00  0.00    -0.008 A 
HETATM    3  C   UNL     1       9.591  -1.339  23.464  1.00  0.00     0.057 A 
HETATM    4  C   UNL     1       9.730  -0.219  24.676  1.00  0.00    -0.007 C 
HETATM    5  C   UNL     1      10.590   0.306  24.966  1.00  0.00    -0.025 C 
HETATM    6  C   UNL     1      12.084   0.078  24.338  1.00  0.00     0.053 C 
HETATM    7  C   UNL     1      12.044  -0.866  23.544  1.00  0.00    -0.025 C 
HETATM    8  C   UNL     1      11.306  -1.578  23.103  1.00  0.00    -0.007 C 
HETATM    9  C   UNL     1       9.138  -0.888  22.442  1.00  0.00     0.040 A 
ENDROOT
BRANCH   9  10
HETATM   10  C   UNL     1       8.611  -0.323  21.345  1.00  0.00     0.254 C 
HETATM   11  O   UNL     1       9.290   0.322  20.713  1.00  0.00    -0.268 OA
HETATM   12  N   UNL     1       7.323  -0.617  21.222  1.00  0.00    -0.321 N 
ATOM     13  HN  UNL     1       6.865  -1.189  21.931  1.00  0.00     0.169 HD
BRANCH  12  14
HETATM   14  C   UNL     1       6.663  -0.199  20.241  1.00  0.00     0.056 A 
HETATM   15  C   UNL     1       6.344  -0.623  19.037  1.00  0.00     0.117 A 
HETATM   16  N   UNL     1       5.809  -0.485  17.944  1.00  0.00    -0.373 N 
HETATM   17  C   UNL     1       5.324   0.733  18.149  1.00  0.00     0.088 A 
ATOM     18  HN  UNL     1       5.754  -1.106  17.136  1.00  0.00     0.164 HD
HETATM   19  C   UNL     1       5.395   1.449  19.138  1.00  0.00     0.026 A 
HETATM   20  C   UNL     1       5.983   1.209  20.310  1.00  0.00    -0.033 A 
HETATM   21  C   UNL     1       6.089   2.128  21.608  1.00  0.00     0.050 C 
ENDBRANCH  12  14
ENDBRANCH   9  10
BRANCH   1  22
HETATM   22  N   UNL     1       7.819  -4.381  24.179  1.00  0.00    -0.295 N 
ATOM     23  HN  UNL     1       7.813  -4.667  25.158  1.00  0.00     0.177 HD
BRANCH  22  24
HETATM   24  S   UNL     1       6.784  -5.160  23.200  1.00  0.00     0.226 S 
HETATM   25  C   UNL     1       5.895  -3.870  22.306  1.00  0.00     0.186 C 
HETATM   26  O   UNL     1       7.479  -5.934  22.212  1.00  0.00    -0.206 OA
HETATM   27  O   UNL     1       5.814  -5.935  23.914  1.00  0.00    -0.206 OA
ENDBRANCH  22  24
ENDBRANCH   1  22
TORSDOF 4
ENDMDL
MODEL 3
REMARK VINA RESULT:    -7.217      1.964      2.490
REMARK INTER + INTRA:          -9.839
REMARK INTER:                  -9.013
REMARK INTRA:                  -0.826
REMARK UNBOUND:                -0.935
REMARK  4 active torsions:
REMARK  status: ('A' for Active; 'I' for Inactive)
REMARK    1  A    between atoms: S_2  and  N_5 
REMARK    2  A    between atoms: N_5  and  C_7 
REMARK    3  A    between atoms: C_15  and  C_16 
REMARK       I    between atoms: C_16  and  N_18 
REMARK    4  A    between atoms: N_18  and  C_20 
ROOT
HETATM    1  C   UNL     1       6.655  -1.001  21.274  1.00  0.00     0.109 C 
HETATM    2  C   UNL     1       7.319  -1.643  22.129  1.00  0.00    -0.008 A 
HETATM    3  C   UNL     1       8.323  -1.797  22.843  1.00  0.00     0.057 A 
HETATM    4  C   UNL     1       9.921  -1.877  22.414  1.00  0.00    -0.007 C 
HETATM    5  C   UNL     1      10.743  -1.485  22.933  1.00  0.00    -0.025 C 
HETATM    6  C   UNL     1      10.649  -0.583  24.295  1.00  0.00     0.053 C 
HETATM    7  C   UNL     1       9.460  -0.368  24.551  1.00  0.00    -0.025 C 
HETATM    8  C   UNL     1       8.446  -0.626  24.164  1.00  0.00    -0.007 C 
HETATM    9  C   UNL     1       7.917  -2.798  23.377  1.00  0.00     0.040 A 
ENDROOT
BRANCH   9  10
HETATM   10  C   UNL     1       7.529  -3.949  23.947  1.00  0.00     0.254 C 
HETATM   11  O   UNL     1       7.970  -4.906  23.539  1.00  0.00    -0.268 OA
HETATM   12  N   UNL     1       6.635  -3.737  24.904  1.00  0.00    -0.321 N 
ATOM     13  HN  UNL     1       6.321  -2.787  25.100  1.00  0.00     0.169 HD
BRANCH  12  14
HETATM   14  C   UNL     1       6.172  -4.694  25.569  1.00  0.00     0.056 A 
HETATM   15  C   UNL     1       6.523  -5.397  26.624  1.00  0.00     0.117 A 
HETATM   16  N   UNL     1       6.351  -6.302  27.431  1.00  0.00    -0.373 N 
HETATM   17  C   UNL     1       5.215  -6.765  26.922  1.00  0.00     0.088 A 
ATOM     18  HN  UNL     1       6.901  -6.604  28.235  1.00  0.00     0.164 HD
HETATM   19  C   UNL     1       4.568  -6.371  25.961  1.00  0.00     0.026 A 
HETATM   20  C   UNL     1       4.818  -5.351  25.142  1.00  0.00    -0.033 A 
HETATM   21  C   UNL     1       3.992  -4.824  23.884  1.00  0.00     0.050 C 
ENDBRANCH  12  14
ENDBRANCH   9  10
BRANCH   1  22
HETATM   22  N   UNL     1       5.945  -0.885  20.310  1.00  0.00    -0.295 N 
ATOM     23  HN  UNL     1       5.096  -1.451  20.305  1.00  0.00     0.177 HD
BRANCH  22  24
HETATM   24  S   UNL     1       6.178   0.066  19.015  1.00  0.00     0.226 S 
HETATM   25  C   UNL     1       5.133   1.513  19.278  1.00  0.00     0.186 C 
HETATM   26  O   UNL     1       7.529   0.546  18.955  1.00  0.00    -0.206 OA
HETATM   27  O   UNL     1       5.764  -0.546  17.788  1.00  0.00    -0.206 OA
ENDBRANCH  22  24
ENDBRANCH   1  22
TORSDOF 4
ENDMDL
MODEL 4
REMARK VINA RESULT:    -7.192      2.723      5.267
REMARK INTER + INTRA:          -9.809
REMARK INTER:                  -8.985
REMARK INTRA:                  -0.824
REMARK UNBOUND:                -0.935
REMARK  4 active torsions:
REMARK  status: ('A' for Active; 'I' for Inactive)
REMARK    1  A    between atoms: S_2  and  N_5 
REMARK    2  A    between atoms: N_5  and  C_7 
REMARK    3  A    between atoms: C_15  and  C_16 
REMARK       I    between atoms: C_16  and  N_18 
REMARK    4  A    between atoms: N_18  and  C_20 
ROOT
HETATM    1  C   UNL     1       9.408   0.142  21.373  1.00  0.00     0.109 C 
HETATM    2  C   UNL     1       8.212  -0.193  21.171  1.00  0.00    -0.008 A 
HETATM    3  C   UNL     1       7.082   0.017  20.703  1.00  0.00     0.057 A 
HETATM    4  C   UNL     1       6.058   1.295  20.950  1.00  0.00    -0.007 C 
HETATM    5  C   UNL     1       5.429   1.756  20.249  1.00  0.00    -0.025 C 
HETATM    6  C   UNL     1       5.366   1.380  18.657  1.00  0.00     0.053 C 
HETATM    7  C   UNL     1       6.236   0.541  18.409  1.00  0.00    -0.025 C 
HETATM    8  C   UNL     1       7.017  -0.058  18.936  1.00  0.00    -0.007 C 
HETATM    9  C   UNL     1       6.625  -1.041  21.056  1.00  0.00     0.040 A 
ENDROOT
BRANCH   9  10
HETATM   10  C   UNL     1       6.063  -2.180  21.489  1.00  0.00     0.254 C 
HETATM   11  O   UNL     1       5.641  -2.881  20.710  1.00  0.00    -0.268 OA
HETATM   12  N   UNL     1       6.080  -2.253  22.814  1.00  0.00    -0.321 N 
ATOM     13  HN  UNL     1       6.472  -1.485  23.358  1.00  0.00     0.169 HD
BRANCH  12  14
HETATM   14  C   UNL     1       5.620  -3.260  23.404  1.00  0.00     0.056 A 
HETATM   15  C   UNL     1       4.436  -3.746  23.708  1.00  0.00     0.117 A 
HETATM   16  N   UNL     1       3.706  -4.580  24.230  1.00  0.00    -0.373 N 
HETATM   17  C   UNL     1       4.666  -5.357  24.718  1.00  0.00     0.088 A 
ATOM     18  HN  UNL     1       2.690  -4.654  24.275  1.00  0.00     0.164 HD
HETATM   19  C   UNL     1       5.881  -5.250  24.634  1.00  0.00     0.026 A 
HETATM   20  C   UNL     1       6.601  -4.313  24.018  1.00  0.00    -0.033 A 
HETATM   21  C   UNL     1       8.183  -4.153  23.900  1.00  0.00     0.050 C 
ENDBRANCH  12  14
ENDBRANCH   9  10
BRANCH   1  22
HETATM   22  N   UNL     1      10.414   0.251  22.025  1.00  0.00    -0.295 N 
ATOM     23  HN  UNL     1      10.963   1.096  21.867  1.00  0.00     0.177 HD
BRANCH  22  24
HETATM   24  S   UNL     1      11.000  -0.789  23.125  1.00  0.00     0.226 S 
HETATM   25  C   UNL     1      12.202   0.149  24.089  1.00  0.00     0.186 C 
HETATM   26  O   UNL     1       9.981  -1.208  24.044  1.00  0.00    -0.206 OA
HETATM   27  O   UNL     1      11.691  -1.897  22.537  1.00  0.00    -0.206 OA
ENDBRANCH  22  24
ENDBRANCH   1  22
TORSDOF 4
ENDMDL
MODEL 5
REMARK VINA RESULT:    -6.991     13.836     16.429
REMARK INTER + INTRA:          -9.560
REMARK INTER:                  -8.746
REMARK INTRA:                  -0.814
REMARK UNBOUND:                -0.935
REMARK  4 active torsions:
REMARK  status: ('A' for Active; 'I' for Inactive)
REMARK    1  A    between atoms: S_2  and  N_5 
REMARK    2  A    between atoms: N_5  and  C_7 
REMARK    3  A    between atoms: C_15  and  C_16 
REMARK       I    between atoms: C_16  and  N_18 
REMARK    4  A    between atoms: N_18  and  C_20 
ROOT
HETATM    1  C   UNL     1      23.897  -4.116  24.271  1.00  0.00     0.109 C 
HETATM    2  C   UNL     1      23.582  -3.047  23.686  1.00  0.00    -0.008 A 
HETATM    3  C   UNL     1      22.995  -1.954  23.647  1.00  0.00     0.057 A 
HETATM    4  C   UNL     1      21.389  -1.610  23.864  1.00  0.00    -0.007 C 
HETATM    5  C   UNL     1      20.973  -0.777  24.346  1.00  0.00    -0.025 C 
HETATM    6  C   UNL     1      21.829   0.386  25.116  1.00  0.00     0.053 C 
HETATM    7  C   UNL     1      23.023   0.072  25.113  1.00  0.00    -0.025 C 
HETATM    8  C   UNL     1      23.692  -0.731  24.720  1.00  0.00    -0.007 C 
HETATM    9  C   UNL     1      23.409  -1.653  22.556  1.00  0.00     0.040 A 
ENDROOT
BRANCH   9  10
HETATM   10  C   UNL     1      23.796  -1.312  21.317  1.00  0.00     0.254 C 
HETATM   11  O   UNL     1      24.689  -0.626  21.221  1.00  0.00    -0.268 OA
HETATM   12  N   UNL     1      22.999  -1.843  20.399  1.00  0.00    -0.321 N 
ATOM     13  HN  UNL     1      22.202  -2.409  20.688  1.00  0.00     0.169 HD
BRANCH  12  14
HETATM   14  C   UNL     1      23.218  -1.657  19.178  1.00  0.00     0.056 A 
HETATM   15  C   UNL     1      22.914  -0.758  18.267  1.00  0.00     0.117 A 
HETATM   16  N   UNL     1      22.931  -0.324  17.122  1.00  0.00    -0.373 N 
HETATM   17  C   UNL     1      23.628  -1.315  16.580  1.00  0.00     0.088 A 
ATOM     18  HN  UNL     1      22.538   0.525  16.716  1.00  0.00     0.164 HD
HETATM   19  C   UNL     1      24.101  -2.317  17.099  1.00  0.00     0.026 A 
HETATM   20  C   UNL     1      24.056  -2.705  18.373  1.00  0.00    -0.033 A 
HETATM   21  C   UNL     1      24.661  -4.005  19.068  1.00  0.00     0.050 C 
ENDBRANCH  12  14
ENDBRANCH   9  10
BRANCH   1  22
HETATM   22  N   UNL     1      24.107  -5.299  24.340  1.00  0.00    -0.295 N 
ATOM     23  HN  UNL     1      24.106  -5.808  23.456  1.00  0.00     0.177 HD
BRANCH  22  24
HETATM   24  S   UNL     1      24.393  -6.179  25.674  1.00  0.00     0.226 S 
HETATM   25  C   UNL     1      26.185  -6.188  25.877  1.00  0.00     0.186 C 
HETATM   26  O   UNL     1      23.855  -5.547  26.844  1.00  0.00    -0.206 OA
HETATM   27  O   UNL     1      23.968  -7.541  25.548  1.00  0.00    -0.206 OA
ENDBRANCH  22  24
ENDBRANCH   1  22
TORSDOF 4
ENDMDL
MODEL 6
REMARK VINA RESULT:    -6.738      1.823      2.266
REMARK INTER + INTRA:          -9.248
REMARK INTER:                  -8.405
REMARK INTRA:                  -0.843
REMARK UNBOUND:                -0.935
REMARK  4 active torsions:
REMARK  status: ('A' for Active; 'I' for Inactive)
REMARK    1  A    between atoms: S_2  and  N_5 
REMARK    2  A    between atoms: N_5  and  C_7 
REMARK    3  A    between atoms: C_15  and  C_16 
REMARK       I    between atoms: C_16  and  N_18 
REMARK    4  A    between atoms: N_18  and  C_20 
ROOT
HETATM    1  C   UNL     1       8.195  -0.031  20.522  1.00  0.00     0.109 C 
HETATM    2  C   UNL     1       8.487  -0.532  21.639  1.00  0.00    -0.008 A 
HETATM    3  C   UNL     1       9.298  -0.789  22.544  1.00  0.00     0.057 A 
HETATM    4  C   UNL     1      10.738  -1.605  22.470  1.00  0.00    -0.007 C 
HETATM    5  C   UNL     1      11.620  -1.393  22.995  1.00  0.00    -0.025 C 
HETATM    6  C   UNL     1      11.838  -0.107  23.983  1.00  0.00     0.053 C 
HETATM    7  C   UNL     1      10.835   0.611  23.932  1.00  0.00    -0.025 C 
HETATM    8  C   UNL     1       9.826   0.633  23.454  1.00  0.00    -0.007 C 
HETATM    9  C   UNL     1       8.485  -1.311  23.265  1.00  0.00     0.040 A 
ENDROOT
BRANCH   9  10
HETATM   10  C   UNL     1       7.624  -1.957  24.066  1.00  0.00     0.254 C 
HETATM   11  O   UNL     1       7.318  -1.441  25.024  1.00  0.00    -0.268 OA
HETATM   12  N   UNL     1       7.308  -3.148  23.575  1.00  0.00    -0.321 N 
ATOM     13  HN  UNL     1       7.730  -3.463  22.702  1.00  0.00     0.169 HD
BRANCH  12  14
HETATM   14  C   UNL     1       6.493  -3.890  24.174  1.00  0.00     0.056 A 
HETATM   15  C   UNL     1       5.188  -4.047  24.231  1.00  0.00     0.117 A 
HETATM   16  N   UNL     1       4.177  -4.583  24.668  1.00  0.00    -0.373 N 
HETATM   17  C   UNL     1       4.782  -5.419  25.503  1.00  0.00     0.088 A 
ATOM     18  HN  UNL     1       3.190  -4.435  24.458  1.00  0.00     0.164 HD
HETATM   19  C   UNL     1       5.974  -5.584  25.723  1.00  0.00     0.026 A 
HETATM   20  C   UNL     1       7.022  -4.968  25.177  1.00  0.00    -0.033 A 
HETATM   21  C   UNL     1       8.579  -5.165  25.451  1.00  0.00     0.050 C 
ENDBRANCH  12  14
ENDBRANCH   9  10
BRANCH   1  22
HETATM   22  N   UNL     1       7.649  -0.003  19.450  1.00  0.00    -0.295 N 
ATOM     23  HN  UNL     1       8.233   0.255  18.654  1.00  0.00     0.177 HD
BRANCH  22  24
HETATM   24  S   UNL     1       6.094  -0.329  19.120  1.00  0.00     0.226 S 
HETATM   25  C   UNL     1       5.190   1.188  19.490  1.00  0.00     0.186 C 
HETATM   26  O   UNL     1       5.898  -0.587  17.723  1.00  0.00    -0.206 OA
HETATM   27  O   UNL     1       5.551  -1.365  19.946  1.00  0.00    -0.206 OA
ENDBRANCH  22  24
ENDBRANCH   1  22
TORSDOF 4
ENDMDL
MODEL 7
REMARK VINA RESULT:    -6.575      6.028      8.356
REMARK INTER + INTRA:          -9.047
REMARK INTER:                  -8.312
REMARK INTRA:                  -0.735
REMARK UNBOUND:                -0.935
REMARK  4 active torsions:
REMARK  status: ('A' for Active; 'I' for Inactive)
REMARK    1  A    between atoms: S_2  and  N_5 
REMARK    2  A    between atoms: N_5  and  C_7 
REMARK    3  A    between atoms: C_15  and  C_16 
REMARK       I    between atoms: C_16  and  N_18 
REMARK    4  A    between atoms: N_18  and  C_20 
ROOT
HETATM    1  C   UNL     1       6.831  -5.637  26.493  1.00  0.00     0.109 C 
HETATM    2  C   UNL     1       6.062  -5.661  25.497  1.00  0.00    -0.008 A 
HETATM    3  C   UNL     1       5.699  -5.245  24.385  1.00  0.00     0.057 A 
HETATM    4  C   UNL     1       5.291  -3.710  23.914  1.00  0.00    -0.007 C 
HETATM    5  C   UNL     1       5.502  -3.244  22.999  1.00  0.00    -0.025 C 
HETATM    6  C   UNL     1       6.397  -3.901  21.797  1.00  0.00     0.053 C 
HETATM    7  C   UNL     1       6.854  -4.982  22.183  1.00  0.00    -0.025 C 
HETATM    8  C   UNL     1       6.814  -5.654  23.073  1.00  0.00    -0.007 C 
HETATM    9  C   UNL     1       4.802  -6.041  24.264  1.00  0.00     0.040 A 
ENDROOT
BRANCH   9  10
HETATM   10  C   UNL     1       3.754  -6.866  24.122  1.00  0.00     0.254 C 
HETATM   11  O   UNL     1       3.734  -7.797  24.762  1.00  0.00    -0.268 OA
HETATM   12  N   UNL     1       2.918  -6.428  23.190  1.00  0.00    -0.321 N 
ATOM     13  HN  UNL     1       3.134  -5.573  22.678  1.00  0.00     0.169 HD
BRANCH  12  14
HETATM   14  C   UNL     1       1.863  -7.055  22.932  1.00  0.00     0.056 A 
HETATM   15  C   UNL     1       1.500  -8.066  22.173  1.00  0.00     0.117 A 
HETATM   16  N   UNL     1       0.662  -8.831  21.712  1.00  0.00    -0.373 N 
HETATM   17  C   UNL     1      -0.390  -8.324  22.344  1.00  0.00     0.088 A 
ATOM     18  HN  UNL     1       0.745  -9.608  21.055  1.00  0.00     0.164 HD
HETATM   19  C   UNL     1      -0.456  -7.399  23.140  1.00  0.00     0.026 A 
HETATM   20  C   UNL     1       0.521  -6.625  23.612  1.00  0.00    -0.033 A 
HETATM   21  C   UNL     1       0.456  -5.413  24.645  1.00  0.00     0.050 C 
ENDBRANCH  12  14
ENDBRANCH   9  10
BRANCH   1  22
HETATM   22  N   UNL     1       7.096  -5.683  27.666  1.00  0.00    -0.295 N 
ATOM     23  HN  UNL     1       8.018  -5.336  27.932  1.00  0.00     0.177 HD
BRANCH  22  24
HETATM   24  S   UNL     1       6.161  -6.231  28.874  1.00  0.00     0.226 S 
HETATM   25  C   UNL     1       4.554  -5.446  28.641  1.00  0.00     0.186 C 
HETATM   26  O   UNL     1       5.942  -7.645  28.766  1.00  0.00    -0.206 OA
HETATM   27  O   UNL     1       6.640  -5.852  30.170  1.00  0.00    -0.206 OA
ENDBRANCH  22  24
ENDBRANCH   1  22
TORSDOF 4
ENDMDL
MODEL 8
REMARK VINA RESULT:    -6.470     24.584     27.606
REMARK INTER + INTRA:          -8.918
REMARK INTER:                  -8.134
REMARK INTRA:                  -0.783
REMARK UNBOUND:                -0.935
REMARK  4 active torsions:
REMARK  status: ('A' for Active; 'I' for Inactive)
REMARK    1  A    between atoms: S_2  and  N_5 
REMARK    2  A    between atoms: N_5  and  C_7 
REMARK    3  A    between atoms: C_15  and  C_16 
REMARK       I    between atoms: C_16  and  N_18 
REMARK    4  A    between atoms: N_18  and  C_20 
ROOT
HETATM    1  C   UNL     1       7.728  14.208   2.295  1.00  0.00     0.109 C 
HETATM    2  C   UNL     1       8.369  15.271   2.502  1.00  0.00    -0.008 A 
HETATM    3  C   UNL     1       8.633  16.456   2.243  1.00  0.00     0.057 A 
HETATM    4  C   UNL     1       9.120  17.142   0.816  1.00  0.00    -0.007 C 
HETATM    5  C   UNL     1       8.846  18.077   0.429  1.00  0.00    -0.025 C 
HETATM    6  C   UNL     1       7.759  19.092   1.112  1.00  0.00     0.053 C 
HETATM    7  C   UNL     1       7.256  18.537   2.093  1.00  0.00    -0.025 C 
HETATM    8  C   UNL     1       7.340  17.586   2.670  1.00  0.00    -0.007 C 
HETATM    9  C   UNL     1       9.435  16.580   3.135  1.00  0.00     0.040 A 
ENDROOT
BRANCH   9  10
HETATM   10  C   UNL     1      10.379  16.738   4.074  1.00  0.00     0.254 C 
HETATM   11  O   UNL     1      11.240  16.006   4.075  1.00  0.00    -0.268 OA
HETATM   12  N   UNL     1      10.092  17.751   4.882  1.00  0.00    -0.321 N 
ATOM     13  HN  UNL     1       9.228  18.276   4.747  1.00  0.00     0.169 HD
BRANCH  12  14
HETATM   14  C   UNL     1      10.874  18.069   5.810  1.00  0.00     0.056 A 
HETATM   15  C   UNL     1      11.052  17.755   7.075  1.00  0.00     0.117 A 
HETATM   16  N   UNL     1      11.622  17.873   8.153  1.00  0.00    -0.373 N 
HETATM   17  C   UNL     1      12.488  18.807   7.780  1.00  0.00     0.088 A 
ATOM     18  HN  UNL     1      11.478  17.404   9.047  1.00  0.00     0.164 HD
HETATM   19  C   UNL     1      12.647  19.341   6.691  1.00  0.00     0.026 A 
HETATM   20  C   UNL     1      11.990  19.134   5.551  1.00  0.00    -0.033 A 
HETATM   21  C   UNL     1      12.178  19.820   4.124  1.00  0.00     0.050 C 
ENDBRANCH  12  14
ENDBRANCH   9  10
BRANCH   1  22
HETATM   22  N   UNL     1       7.600  13.016   2.190  1.00  0.00    -0.295 N 
ATOM     23  HN  UNL     1       7.582  12.647   1.239  1.00  0.00     0.177 HD
BRANCH  22  24
HETATM   24  S   UNL     1       7.451  11.926   3.384  1.00  0.00     0.226 S 
HETATM   25  C   UNL     1       6.296  12.650   4.564  1.00  0.00     0.186 C 
HETATM   26  O   UNL     1       6.845  10.714   2.912  1.00  0.00    -0.206 OA
HETATM   27  O   UNL     1       8.681  11.684   4.078  1.00  0.00    -0.206 OA
ENDBRANCH  22  24
ENDBRANCH   1  22
TORSDOF 4
ENDMDL
MODEL 9
REMARK VINA RESULT:    -6.433      3.397      6.752
REMARK INTER + INTRA:          -8.872
REMARK INTER:                  -8.141
REMARK INTRA:                  -0.730
REMARK UNBOUND:                -0.935
REMARK  4 active torsions:
REMARK  status: ('A' for Active; 'I' for Inactive)
REMARK    1  A    between atoms: S_2  and  N_5 
REMARK    2  A    between atoms: N_5  and  C_7 
REMARK    3  A    between atoms: C_15  and  C_16 
REMARK       I    between atoms: C_16  and  N_18 
REMARK    4  A    between atoms: N_18  and  C_20 
ROOT
HETATM    1  C   UNL     1       7.097  -1.994  22.979  1.00  0.00     0.109 C 
HETATM    2  C   UNL     1       7.914  -1.037  22.963  1.00  0.00    -0.008 A 
HETATM    3  C   UNL     1       9.023  -0.541  23.217  1.00  0.00     0.057 A 
HETATM    4  C   UNL     1       9.815  -0.414  24.667  1.00  0.00    -0.007 C 
HETATM    5  C   UNL     1      10.843  -0.516  24.845  1.00  0.00    -0.025 C 
HETATM    6  C   UNL     1      11.953  -0.934  23.718  1.00  0.00     0.053 C 
HETATM    7  C   UNL     1      11.371  -1.195  22.660  1.00  0.00    -0.025 C 
HETATM    8  C   UNL     1      10.340  -1.199  22.235  1.00  0.00    -0.007 C 
HETATM    9  C   UNL     1       8.781   0.523  22.706  1.00  0.00     0.040 A 
ENDROOT
BRANCH   9  10
HETATM   10  C   UNL     1       8.527   1.741  22.205  1.00  0.00     0.254 C 
HETATM   11  O   UNL     1       8.672   1.888  21.094  1.00  0.00    -0.268 OA
HETATM   12  N   UNL     1       8.170   2.591  23.159  1.00  0.00    -0.321 N 
ATOM     13  HN  UNL     1       8.140   2.277  24.129  1.00  0.00     0.169 HD
BRANCH  12  14
HETATM   14  C   UNL     1       7.867   3.775  22.880  1.00  0.00     0.056 A 
HETATM   15  C   UNL     1       6.906   4.402  22.236  1.00  0.00     0.117 A 
HETATM   16  N   UNL     1       6.373   5.415  21.800  1.00  0.00    -0.373 N 
HETATM   17  C   UNL     1       7.282   6.280  22.235  1.00  0.00     0.088 A 
ATOM     18  HN  UNL     1       5.510   5.551  21.273  1.00  0.00     0.164 HD
HETATM   19  C   UNL     1       8.303   6.088  22.881  1.00  0.00     0.026 A 
HETATM   20  C   UNL     1       8.802   4.942  23.341  1.00  0.00    -0.033 A 
HETATM   21  C   UNL     1      10.130   4.669  24.179  1.00  0.00     0.050 C 
ENDBRANCH  12  14
ENDBRANCH   9  10
BRANCH   1  22
HETATM   22  N   UNL     1       6.014  -2.500  23.112  1.00  0.00    -0.295 N 
ATOM     23  HN  UNL     1       5.359  -2.008  23.719  1.00  0.00     0.177 HD
BRANCH  22  24
HETATM   24  S   UNL     1       5.470  -3.874  22.438  1.00  0.00     0.226 S 
HETATM   25  C   UNL     1       6.521  -5.186  23.093  1.00  0.00     0.186 C 
HETATM   26  O   UNL     1       4.133  -4.172  22.865  1.00  0.00    -0.206 OA
HETATM   27  O   UNL     1       5.602  -3.889  21.012  1.00  0.00    -0.206 OA
ENDBRANCH  22  24
ENDBRANCH   1  22
TORSDOF 4
ENDMDL
