stable:False satoms:6 tatoms:24 sratio:0.25
  -OEChem-07092417453D

 24 25  0     1  0  0  0  0  0999 V2000
    6.5760   -4.8588   26.4263 C   0  0  0  0  0  0  0  0  0  0  0  0
    8.2121   -4.3029   26.0912 S   0  0  0  0  0  0  0  0  0  0  0  0
    9.0900   -5.4494   26.0245 O   0  0  0  0  0  0  0  0  0  0  0  0
    8.5989   -3.4334   27.1803 O   0  0  0  0  0  0  0  0  0  0  0  0
    8.0980   -3.5420   24.6574 N   0  0  0  0  0  0  0  0  0  0  0  0
    8.9289   -2.8664   24.1576 C   0  0  0  0  0  0  0  0  0  0  0  0
    9.4246   -1.9601   23.5718 C   0  0  0  0  0  0  0  0  0  0  0  0
   10.2868   -1.0632   23.3414 C   0  0  2  0  0  0  0  0  0  0  0  0
   11.0514   -0.0202   24.3298 C   0  0  0  0  0  0  0  0  0  0  0  0
   12.0997    0.2667   24.2316 C   0  0  0  0  0  0  0  0  0  0  0  0
   13.1128   -0.1933   23.4492 C   0  0  0  0  0  0  0  0  0  0  0  0
   12.7094   -1.2410   22.6215 C   0  0  0  0  0  0  0  0  0  0  0  0
   11.8550   -1.7151   22.4630 C   0  0  0  0  0  0  0  0  0  0  0  0
    9.6524   -0.6320   22.4066 C   0  0  2  0  0  0  0  0  0  0  0  0
    9.0731    0.0312   21.3880 C   0  0  0  0  0  0  0  0  0  0  0  0
    9.6035    0.9573   20.9706 O   0  0  0  0  0  0  0  0  0  0  0  0
    7.8976   -0.5502   21.1262 N   0  0  0  0  0  0  0  0  0  0  0  0
    7.1714   -0.0882   20.2206 C   0  0  0  0  0  0  0  0  0  0  0  0
    7.2131   -0.0343   18.8965 C   0  0  0  0  0  0  0  0  0  0  0  0
    6.7594    0.2872   17.8318 N   0  0  0  0  0  0  0  0  0  0  0  0
    5.6710    0.8652   18.2744 C   0  0  0  0  0  0  0  0  0  0  0  0
    5.2643    0.9785   19.4345 C   0  0  0  0  0  0  0  0  0  0  0  0
    5.8045    0.5762   20.5898 C   0  0  0  0  0  0  0  0  0  0  0  0
    5.4300    0.6981   21.6120 C   0  0  0  0  0  0  0  0  0  0  0  0
 20 21  2  0  0  0  0
 19 20  1  0  0  0  0
 21 22  1  0  0  0  0
 18 19  2  0  0  0  0
 22 23  2  0  0  0  0
 18 23  1  0  0  0  0
 17 18  1  0  0  0  0
 23 24  1  0  0  0  0
 15 16  2  0  0  0  0
 15 17  1  0  0  0  0
 14 15  1  0  0  0  0
  8 14  1  0  0  0  0
  7 14  1  0  0  0  0
 12 13  2  0  0  0  0
 11 12  1  0  0  0  0
  7  8  1  0  0  0  0
  8  9  1  0  0  0  0
 10 11  1  0  0  0  0
  6  7  2  3  0  0  0
  5  6  1  0  0  0  0
  9 10  2  0  0  0  0
  2  5  1  0  0  0  0
  2  3  2  0  0  0  0
  1  2  1  0  0  0  0
  2  4  2  0  0  0  0
M  END
> <Shapegauss>
-287.795776

$$$$
