REMARK  8 active torsions:
REMARK  status: ('A' for Active; 'I' for Inactive)
REMARK    1  A    between atoms: S_2  and  N_5 
REMARK    2  A    between atoms: C_7  and  C_8 
REMARK    3  A    between atoms: C_9  and  C_10 
REMARK    4  A    between atoms: C_10  and  C_11 
REMARK    5  A    between atoms: C_11  and  C_12 
REMARK    6  A    between atoms: C_12  and  C_13 
REMARK    7  A    between atoms: C_15  and  C_16 
REMARK       I    between atoms: C_16  and  N_18 
REMARK    8  A    between atoms: N_18  and  C_20 
ROOT
HETATM    1  C   UNL     1       9.425  -1.960  23.572  1.00  0.00    -0.017 A 
HETATM    2  C   UNL     1      10.287  -1.063  23.341  1.00  0.00     0.082 A 
HETATM    3  C   UNL     1       9.652  -0.632  22.407  1.00  0.00     0.031 A 
ENDROOT
BRANCH   3   4
HETATM    4  C   UNL     1       9.073   0.031  21.388  1.00  0.00     0.253 C 
HETATM    5  O   UNL     1       9.604   0.957  20.971  1.00  0.00    -0.268 OA
HETATM    6  N   UNL     1       7.898  -0.550  21.126  1.00  0.00    -0.321 N 
ATOM      7  HN  UNL     1       7.597  -1.365  21.661  1.00  0.00     0.169 HD
BRANCH   6   8
HETATM    8  C   UNL     1       7.171  -0.088  20.221  1.00  0.00     0.060 A 
HETATM    9  C   UNL     1       7.213  -0.034  18.896  1.00  0.00     0.117 A 
HETATM   10  N   UNL     1       6.759   0.287  17.832  1.00  0.00    -0.373 N 
HETATM   11  C   UNL     1       5.671   0.865  18.274  1.00  0.00     0.088 A 
ATOM     12  HN  UNL     1       7.110   0.152  16.884  1.00  0.00     0.164 HD
HETATM   13  C   UNL     1       5.264   0.979  19.434  1.00  0.00     0.030 A 
HETATM   14  C   UNL     1       5.804   0.576  20.590  1.00  0.00    -0.016 A 
HETATM   15  C   UNL     1       5.430   0.698  21.612  1.00  0.00     0.026 C 
ENDBRANCH   6   8
ENDBRANCH   3   4
BRANCH   1  16
HETATM   16  C   UNL     1       8.929  -2.866  24.158  1.00  0.00     0.108 C 
HETATM   17  N   UNL     1       8.098  -3.542  24.657  1.00  0.00    -0.295 N 
ATOM     18  HN  UNL     1       7.227  -3.660  24.140  1.00  0.00     0.177 HD
BRANCH  17  19
HETATM   19  S   UNL     1       8.212  -4.303  26.091  1.00  0.00     0.226 S 
HETATM   20  C   UNL     1       6.576  -4.859  26.426  1.00  0.00     0.186 C 
HETATM   21  O   UNL     1       9.090  -5.449  26.024  1.00  0.00    -0.206 OA
HETATM   22  O   UNL     1       8.599  -3.433  27.180  1.00  0.00    -0.206 OA
ENDBRANCH  17  19
ENDBRANCH   1  16
BRANCH   2  23
HETATM   23  C   UNL     1      11.051  -0.020  24.330  1.00  0.00    -0.012 C 
BRANCH  23  24
HETATM   24  C   UNL     1      12.100   0.267  24.232  1.00  0.00    -0.003 C 
BRANCH  24  25
HETATM   25  C   UNL     1      13.113  -0.193  23.449  1.00  0.00    -0.001 C 
BRANCH  25  26
HETATM   26  C   UNL     1      12.709  -1.241  22.622  1.00  0.00    -0.010 C 
HETATM   27  C   UNL     1      11.855  -1.715  22.463  1.00  0.00     0.011 C 
ENDBRANCH  25  26
ENDBRANCH  24  25
ENDBRANCH  23  24
ENDBRANCH   2  23
TORSDOF 8
