REMARK  5 active torsions:
REMARK  status: ('A' for Active; 'I' for Inactive)
REMARK    1  A    between atoms: N_2  and  C_10 
REMARK    2  A    between atoms: C_5  and  O_8 
REMARK    3  A    between atoms: C_5  and  C_10 
REMARK    4  A    between atoms: C_5  and  N_9 
REMARK    5  A    between atoms: N_16  and  C_18 
ROOT
HETATM    1  C   UNL     1       8.261  -3.698  25.453  1.00  0.00     0.000 C 
ENDROOT
TORSDOF 5
