stable:False satoms:18 tatoms:24 sratio:0.75
  -OEChem-07092417353D

 24 24  0     1  0  0  0  0  0999 V2000
    7.6152   -4.7019   25.9011 H   0  0  0  0  0  0  0  0  0  0  0  0
    9.3992   -4.5182   25.9170 H   0  0  0  0  0  0  0  0  0  0  0  0
    8.4463   -3.9994   25.9919 C   0  0  0  0  0  0  0  0  0  0  0  0
    8.3775   -3.5111   26.9721 H   0  0  0  0  0  0  0  0  0  0  0  0
    8.3276   -3.0269   24.9771 O   0  0  0  0  0  0  0  0  0  0  0  0
    8.0010   -2.5071   22.5705 H   0  0  0  0  0  0  0  0  0  0  0  0
    9.2365   -2.2755   24.2480 C   0  0  0  0  0  0  0  0  0  0  0  0
    8.9166   -2.0296   22.9441 C   0  0  0  0  0  0  0  0  0  0  0  0
   10.4095   -1.6520   24.5846 N   0  0  0  0  0  0  0  0  0  0  0  0
   10.0472    0.8330   22.2689 N   0  0  0  0  0  0  0  0  0  0  0  0
   11.7820   -0.0472   22.0943 H   0  0  0  0  0  0  0  0  0  0  0  0
   12.2667   -1.0812   24.0321 H   0  0  0  0  0  0  0  0  0  0  0  0
   11.1988   -1.1029   23.7881 C   0  0  0  0  0  0  0  0  0  0  0  0
   10.7150   -0.3392   22.5492 C   0  0  1  0  0  0  0  0  0  0  0  0
    9.6494   -1.3293   22.2010 C   0  0  0  0  0  0  0  0  0  0  0  0
    9.1921    0.5183   21.1481 C   0  0  0  0  0  0  0  0  0  0  0  0
    7.9399    0.4208   21.2181 N   0  0  0  0  0  0  0  0  0  0  0  0
    9.5509    0.2241   20.1541 H   0  0  0  0  0  0  0  0  0  0  0  0
    7.3790   -0.9780   19.8146 H   0  0  0  0  0  0  0  0  0  0  0  0
    6.7104    1.4444   18.8326 H   0  0  0  0  0  0  0  0  0  0  0  0
    5.4720    0.2535   18.9338 H   0  0  0  0  0  0  0  0  0  0  0  0
    6.1745    0.8081   19.5707 C   0  0  0  0  0  0  0  0  0  0  0  0
    7.1922   -0.0007   20.2287 C   0  3  0  0  0  0  0  0  0  0  0  0
    5.5843    1.3079   20.3559 H   0  0  0  0  0  0  0  0  0  0  0  0
 20 22  1  0  0  0  0
 21 22  1  0  0  0  0
 22 23  1  0  0  0  0
 22 24  1  0  0  0  0
 19 23  1  0  0  0  0
 16 18  1  0  0  0  0
 17 23  1  0  0  0  0
 16 17  2  0  0  0  0
 10 16  1  0  0  0  0
 11 14  1  0  0  0  0
 14 15  1  0  0  0  0
  8 15  1  0  0  0  0
 10 14  1  0  0  0  0
 13 14  1  0  0  0  0
  6  8  1  0  0  0  0
  7  8  2  0  0  0  0
 12 13  1  0  0  0  0
  9 13  2  0  0  0  0
  7  9  1  0  0  0  0
  5  7  1  0  0  0  0
  3  5  1  0  0  0  0
  1  3  1  0  0  0  0
  2  3  1  0  0  0  0
  3  4  1  0  0  0  0
M  CHG  1  23   1
M  END
> <Shapegauss>
-143.566223

$$$$
