stable:False satoms:18 tatoms:24 sratio:0.75
  -OEChem-08052423423D

 27 27  0     1  0  0  0  0  0999 V2000
   -7.7430    3.6355  -25.9529 H   0  0  0  0  0  0  0  0  0  0  0  0
   -9.5300    3.7400  -25.8429 H   0  0  0  0  0  0  0  0  0  0  0  0
   -8.6128    3.5146  -25.3039 C   0  0  0  0  0  0  0  0  0  0  0  0
   -8.5105    4.2084  -24.4600 H   0  0  0  0  0  0  0  0  0  0  0  0
   -8.6327    2.1902  -24.8188 O   0  0  0  0  0  0  0  0  0  0  0  0
   -8.5107   -0.2432  -25.3009 H   0  0  0  0  0  0  0  0  0  0  0  0
   -9.6402    1.3085  -24.4581 C   0  0  0  0  0  0  0  0  0  0  0  0
   -9.4293   -0.0087  -24.7468 C   0  0  0  0  0  0  0  0  0  0  0  0
  -10.8277    1.4747  -23.7946 N   0  0  0  0  0  0  0  0  0  0  0  0
  -10.8008   -1.6618  -22.4414 N   0  0  0  0  0  0  0  0  0  0  0  0
  -12.4779   -1.3119  -23.3793 H   0  0  0  0  0  0  0  0  0  0  0  0
  -12.7539    0.9129  -23.5621 H   0  0  0  0  0  0  0  0  0  0  0  0
  -11.7066    0.6012  -23.6416 C   0  0  0  0  0  0  0  0  0  0  0  0
  -11.3642   -0.8780  -23.4247 C   0  0  1  0  0  0  0  0  0  0  0  0
  -10.2588   -0.8988  -24.4320 C   0  0  0  0  0  0  0  0  0  0  0  0
  -10.0056   -2.6375  -23.1498 C   0  0  0  0  0  0  0  0  0  0  0  0
   -8.7478   -2.6493  -23.1656 N   0  3  0  0  0  0  0  0  0  0  0  0
  -10.4109   -3.3947  -23.8321 H   0  0  0  0  0  0  0  0  0  0  0  0
   -7.7608   -5.3466  -23.1458 H   0  0  0  0  0  0  0  0  0  0  0  0
   -6.4383   -4.8932  -24.1495 H   0  0  0  0  0  0  0  0  0  0  0  0
   -7.1320   -4.4685  -23.4111 C   0  0  0  0  0  0  0  0  0  0  0  0
   -8.0428   -3.4528  -23.9226 C   0  0  0  0  0  2  0  0  0  0  0  0
   -6.5252   -4.0049  -22.6165 H   0  0  0  0  0  0  0  0  0  0  0  0
  -10.9173   -1.5741  -21.4521 H   0  0  0  0  0  0  0  0  0  0  0  0
   -9.6334   -1.7499  -24.1245 H   0  0  0  0  0  0  0  0  0  0  0  0
  -10.7649   -1.1389  -25.3787 H   0  0  0  0  0  0  0  0  0  0  0  0
   -8.2605   -2.0117  -22.5688 H   0  0  0  0  0  0  0  0  0  0  0  0
 19 21  1  0  0  0  0
 20 21  1  0  0  0  0
 21 22  1  0  0  0  0
 21 23  1  0  0  0  0
 16 18  1  0  0  0  0
 17 22  1  0  0  0  0
 16 17  2  0  0  0  0
 10 16  1  0  0  0  0
 11 14  1  0  0  0  0
 14 15  1  0  0  0  0
  8 15  1  0  0  0  0
 10 14  1  0  0  0  0
 13 14  1  0  0  0  0
  6  8  1  0  0  0  0
  7  8  2  0  0  0  0
 12 13  1  0  0  0  0
  9 13  2  0  0  0  0
  7  9  1  0  0  0  0
  5  7  1  0  0  0  0
  3  5  1  0  0  0  0
  1  3  1  0  0  0  0
  2  3  1  0  0  0  0
  3  4  1  0  0  0  0
 10 24  1  0  0  0  0
 15 25  1  0  0  0  0
 15 26  1  0  0  0  0
 17 27  1  0  0  0  0
M  CHG  1  17   1
M  END
> <Chemgauss4>
-6.277755

$$$$
