stable:False satoms:18 tatoms:24 sratio:0.75
  -OEChem-08052423423D

 27 27  0     1  0  0  0  0  0999 V2000
    8.0553    3.8670   25.7787 H   0  0  0  0  0  0  0  0  0  0  0  0
    9.8424    3.9715   25.6686 H   0  0  0  0  0  0  0  0  0  0  0  0
    8.9251    3.7461   25.1296 C   0  0  0  0  0  0  0  0  0  0  0  0
    8.8228    4.4399   24.2857 H   0  0  0  0  0  0  0  0  0  0  0  0
    8.9451    2.4217   24.6446 O   0  0  0  0  0  0  0  0  0  0  0  0
    8.8230   -0.0117   25.1267 H   0  0  0  0  0  0  0  0  0  0  0  0
    9.9525    1.5400   24.2838 C   0  0  0  0  0  0  0  0  0  0  0  0
    9.7416    0.2228   24.5725 C   0  0  0  0  0  0  0  0  0  0  0  0
   11.1400    1.7062   23.6203 N   0  0  0  0  0  0  0  0  0  0  0  0
   11.1132   -1.4303   22.2671 N   0  0  0  0  0  0  0  0  0  0  0  0
   12.7903   -1.0804   23.2051 H   0  0  0  0  0  0  0  0  0  0  0  0
   13.0663    1.1444   23.3878 H   0  0  0  0  0  0  0  0  0  0  0  0
   12.0190    0.8327   23.4674 C   0  0  0  0  0  0  0  0  0  0  0  0
   11.6766   -0.6465   23.2504 C   0  0  1  0  0  0  0  0  0  0  0  0
   10.5712   -0.6673   24.2577 C   0  0  0  0  0  0  0  0  0  0  0  0
   10.3179   -2.4060   22.9755 C   0  0  0  0  0  0  0  0  0  0  0  0
    9.0601   -2.4178   22.9913 N   0  3  0  0  0  0  0  0  0  0  0  0
   10.7233   -3.1632   23.6579 H   0  0  0  0  0  0  0  0  0  0  0  0
    8.0732   -5.1151   22.9715 H   0  0  0  0  0  0  0  0  0  0  0  0
    6.7507   -4.6617   23.9753 H   0  0  0  0  0  0  0  0  0  0  0  0
    7.4444   -4.2370   23.2369 C   0  0  0  0  0  0  0  0  0  0  0  0
    8.3552   -3.2213   23.7483 C   0  0  0  0  0  2  0  0  0  0  0  0
    6.8375   -3.7734   22.4422 H   0  0  0  0  0  0  0  0  0  0  0  0
   11.2297   -1.3426   21.2778 H   0  0  0  0  0  0  0  0  0  0  0  0
    9.9458   -1.5184   23.9502 H   0  0  0  0  0  0  0  0  0  0  0  0
   11.0773   -0.9074   25.2045 H   0  0  0  0  0  0  0  0  0  0  0  0
    8.5729   -1.7802   22.3946 H   0  0  0  0  0  0  0  0  0  0  0  0
 19 21  1  0  0  0  0
 20 21  1  0  0  0  0
 21 22  1  0  0  0  0
 21 23  1  0  0  0  0
 16 18  1  0  0  0  0
 17 22  1  0  0  0  0
 16 17  2  0  0  0  0
 10 16  1  0  0  0  0
 11 14  1  0  0  0  0
 14 15  1  0  0  0  0
  8 15  1  0  0  0  0
 10 14  1  0  0  0  0
 13 14  1  0  0  0  0
  6  8  1  0  0  0  0
  7  8  2  0  0  0  0
 12 13  1  0  0  0  0
  9 13  2  0  0  0  0
  7  9  1  0  0  0  0
  5  7  1  0  0  0  0
  3  5  1  0  0  0  0
  1  3  1  0  0  0  0
  2  3  1  0  0  0  0
  3  4  1  0  0  0  0
 10 24  1  0  0  0  0
 15 25  1  0  0  0  0
 15 26  1  0  0  0  0
 17 27  1  0  0  0  0
M  CHG  1  17   1
M  END
> <Chemgauss4>
-6.269557

$$$$
