stable:False satoms:10 tatoms:24 sratio:0.4166666666666667
  -OEChem-07092417433D

 24 23  0     1  0  0  0  0  0999 V2000
    6.5304   -4.7898   26.4912 Cl  0  0  0  0  0  0  0  0  0  0  0  0
    8.2663   -4.3126   26.1135 S   0  0  0  0  0  0  0  0  0  0  0  0
    9.0562   -5.5080   26.0100 O   0  0  0  0  0  0  0  0  0  0  0  0
    8.6796   -3.4390   27.1494 O   0  0  0  0  0  0  0  0  0  0  0  0
    8.0861   -3.5976   24.6996 N   0  0  0  0  0  0  0  0  0  0  0  0
    8.8403   -2.8763   24.2104 C   0  0  0  0  0  0  0  0  0  0  0  0
    9.3423   -2.0426   23.7439 C   0  0  0  0  0  0  0  0  0  0  0  0
   10.0935   -1.0273   23.4424 C   0  0  0  0  0  0  0  0  0  0  0  0
   11.1347   -0.4047   24.1025 C   0  0  0  0  0  0  0  0  0  0  0  0
   12.9120    0.4511   24.1981 H   0  0  0  0  0  0  0  0  0  0  0  0
   12.3553   -0.2888   23.7560 C   0  0  0  0  0  0  0  0  0  0  0  0
   13.0705   -1.6725   22.2202 C   0  0  0  0  0  0  0  0  0  0  0  0
   12.5874   -1.2178   22.7810 C   0  0  0  0  0  0  0  0  0  0  0  0
    9.7110   -0.6019   22.4040 C   0  0  0  0  0  0  0  0  0  0  0  0
    9.0577    0.0745   21.3921 C   0  0  0  0  0  0  0  0  0  0  0  0
    9.5515    1.0606   21.0031 O   0  0  0  0  0  0  0  0  0  0  0  0
    7.8939   -0.5249   21.0351 N   0  0  0  0  0  0  0  0  0  0  0  0
    7.0521   -0.0303   20.1808 C   0  0  3  0  0  0  0  0  0  0  0  0
    6.9936    0.0334   18.7015 C   0  0  0  0  0  0  0  0  0  0  0  0
    7.0243    0.0257   17.6205 N   0  0  0  0  0  0  0  0  0  0  0  0
    5.0118    1.2596   18.3551 H   0  0  0  0  0  0  0  0  0  0  0  0
    5.3564    0.9366   19.2533 C   0  5  0  0  0  0  0  0  0  0  0  0
    5.8309    0.5428   20.4026 C   0  0  0  0  0  0  0  0  0  0  0  0
    5.1463    0.6597   22.0306 Br  0  0  0  0  0  0  0  0  0  0  0  0
 19 20  3  0  0  0  0
 21 22  1  0  0  0  0
 18 19  1  0  0  0  0
 22 23  2  3  0  0  0
 18 23  1  0  0  0  0
 17 18  1  0  0  0  0
 23 24  1  0  0  0  0
 15 16  2  0  0  0  0
 15 17  1  0  0  0  0
 14 15  1  0  0  0  0
 12 13  3  0  0  0  0
  8 14  2  3  0  0  0
 11 13  1  0  0  0  0
  7  8  1  0  0  0  0
  8  9  1  0  0  0  0
  6  7  3  0  0  0  0
  9 11  2  0  0  0  0
 10 11  1  0  0  0  0
  5  6  1  0  0  0  0
  2  5  1  0  0  0  0
  2  3  2  0  0  0  0
  1  2  1  0  0  0  0
  2  4  2  0  0  0  0
M  CHG  1  22  -1
M  END
> <Shapegauss>
-254.567581

$$$$
