REMARK  7 active torsions:
REMARK  status: ('A' for Active; 'I' for Inactive)
REMARK    1  A    between atoms: S_2  and  N_5 
REMARK    2  A    between atoms: N_5  and  C_7 
REMARK    3  A    between atoms: C_8  and  C_9 
REMARK    4  A    between atoms: C_9  and  C_14 
REMARK    5  A    between atoms: C_10  and  C_11 
REMARK    6  A    between atoms: C_14  and  C_15 
REMARK       I    between atoms: C_15  and  N_17 
REMARK    7  A    between atoms: C_19  and  C_23 
ROOT
HETATM    1  C   UNL     1       9.058   0.074  21.392  1.00  0.00     0.295 C 
HETATM    2  O   UNL     1       9.552   1.061  21.003  1.00  0.00    -0.258 OA
HETATM    3  N   UNL     1       7.894  -0.525  21.035  1.00  0.00    -0.306 N 
ATOM      4  HN  UNL     1       7.667  -1.421  21.465  1.00  0.00     0.170 HD
HETATM    5  C   UNL     1       7.052  -0.030  20.181  1.00  0.00     0.141 C 
HETATM    6  C   UNL     1       6.994   0.033  18.701  1.00  0.00     0.119 C 
HETATM    7  N   UNL     1       7.024   0.026  17.620  1.00  0.00    -0.190 NA
ENDROOT
BRANCH   5   8
HETATM    8  C   UNL     1       5.831   0.543  20.403  1.00  0.00     0.079 C 
HETATM    9  C   UNL     1       5.356   0.937  19.253  1.00  0.00    -0.024 C 
HETATM   10 BR   UNL     1       5.146   0.660  22.031  1.00  0.00    -0.040 Br
ENDBRANCH   5   8
BRANCH   1  11
HETATM   11  C   UNL     1       9.711  -0.602  22.404  1.00  0.00    -0.035 C 
BRANCH  11  12
HETATM   12  C   UNL     1      10.094  -1.027  23.442  1.00  0.00     0.070 C 
HETATM   13  C   UNL     1      11.135  -0.405  24.102  1.00  0.00     0.029 C 
BRANCH  12  14
HETATM   14  C   UNL     1       9.342  -2.043  23.744  1.00  0.00    -0.034 C 
HETATM   15  C   UNL     1       8.840  -2.876  24.210  1.00  0.00     0.027 C 
BRANCH  15  16
HETATM   16  N   UNL     1       8.086  -3.598  24.700  1.00  0.00    -0.229 N 
ATOM     17  HN  UNL     1       7.229  -3.796  24.184  1.00  0.00     0.190 HD
BRANCH  16  18
HETATM   18  S   UNL     1       8.266  -4.313  26.113  1.00  0.00     0.327 S 
HETATM   19 CL   UNL     1       6.530  -4.790  26.491  1.00  0.00     0.042 Cl
HETATM   20  O   UNL     1       9.056  -5.508  26.010  1.00  0.00    -0.188 OA
HETATM   21  O   UNL     1       8.680  -3.439  27.149  1.00  0.00    -0.188 OA
ENDBRANCH  16  18
ENDBRANCH  15  16
ENDBRANCH  12  14
BRANCH  13  22
HETATM   22  C   UNL     1      12.355  -0.289  23.756  1.00  0.00     0.001 C 
HETATM   23  C   UNL     1      12.587  -1.218  22.781  1.00  0.00    -0.010 C 
HETATM   24  C   UNL     1      13.070  -1.673  22.220  1.00  0.00     0.011 C 
ENDBRANCH  13  22
ENDBRANCH  11  12
ENDBRANCH   1  11
TORSDOF 7
