MODEL 1
REMARK VINA RESULT:    -5.276      0.000      0.000
REMARK INTER + INTRA:          -7.470
REMARK INTER:                  -6.972
REMARK INTRA:                  -0.498
REMARK UNBOUND:                -0.498
REMARK  6 active torsions:
REMARK  status: ('A' for Active; 'I' for Inactive)
REMARK    1  A    between atoms: N_2  and  C_5 
REMARK    2  A    between atoms: C_5  and  O_6 
REMARK    3  A    between atoms: O_6  and  C_10 
REMARK    4  A    between atoms: C_8  and  C_10 
REMARK    5  A    between atoms: N_11  and  C_12 
REMARK    6  A    between atoms: N_13  and  C_16 
ROOT
HETATM    1  H   UNL     1       9.675  -2.016  20.692  1.00  0.00     0.167 HD
HETATM    2  C   UNL     1       9.533  -0.053  21.315  1.00  0.00     0.089 C 
HETATM    3  N   UNL     1       9.728  -1.381  21.469  1.00  0.00    -0.348 N 
ENDROOT
BRANCH   3   4
HETATM    4  C   UNL     1       9.668  -1.873  22.759  1.00  0.00     0.156 C 
HETATM    5  S   UNL     1      10.898  -1.059  23.762  1.00  0.00    -0.013 SA
HETATM    6  N   UNL     1       8.870  -2.807  23.168  1.00  0.00    -0.322 N 
ATOM      7  HN  UNL     1       9.202  -3.208  24.045  1.00  0.00     0.169 HD
BRANCH   6   8
HETATM    8  C   UNL     1       7.722  -3.405  22.771  1.00  0.00     0.106 C 
HETATM    9  N   UNL     1       7.723  -4.600  22.305  1.00  0.00    -0.352 N 
HETATM   10  H   UNL     1       8.554  -5.110  22.074  1.00  0.00     0.166 HD
HETATM   11  C   UNL     1       6.473  -4.862  21.720  1.00  0.00     0.090 C 
HETATM   12  C   UNL     1       5.677  -3.800  21.996  1.00  0.00     0.021 C 
HETATM   13  C   UNL     1       6.361  -2.943  22.637  1.00  0.00     0.050 C 
ENDBRANCH   6   8
ENDBRANCH   3   4
BRANCH   2  14
HETATM   14  C   UNL     1       8.129   0.198  20.958  1.00  0.00     0.222 C 
BRANCH  14  15
HETATM   15  O   UNL     1       7.915   0.510  19.522  1.00  0.00    -0.322 OA
BRANCH  15  16
HETATM   16  C   UNL     1       6.746   0.286  18.955  1.00  0.00     0.208 C 
HETATM   17  S   UNL     1       5.693  -0.757  19.565  1.00  0.00    -0.033 SA
BRANCH  16  18
HETATM   18  N   UNL     1       6.498   0.849  17.709  1.00  0.00    -0.371 N 
HETATM   19  H   UNL     1       7.122   0.982  16.921  1.00  0.00     0.159 HD
HETATM   20  H   UNL     1       5.524   0.899  17.481  1.00  0.00     0.159 HD
ENDBRANCH  16  18
ENDBRANCH  15  16
ENDBRANCH  14  15
ENDBRANCH   2  14
TORSDOF 6
ENDMDL
MODEL 2
REMARK VINA RESULT:    -5.162      2.399      4.072
REMARK INTER + INTRA:          -7.321
REMARK INTER:                  -7.051
REMARK INTRA:                  -0.269
REMARK UNBOUND:                -0.498
REMARK  6 active torsions:
REMARK  status: ('A' for Active; 'I' for Inactive)
REMARK    1  A    between atoms: N_2  and  C_5 
REMARK    2  A    between atoms: C_5  and  O_6 
REMARK    3  A    between atoms: O_6  and  C_10 
REMARK    4  A    between atoms: C_8  and  C_10 
REMARK    5  A    between atoms: N_11  and  C_12 
REMARK    6  A    between atoms: N_13  and  C_16 
ROOT
HETATM    1  H   UNL     1       8.976  -1.743  20.378  1.00  0.00     0.167 HD
HETATM    2  C   UNL     1       9.013   0.197  21.081  1.00  0.00     0.089 C 
HETATM    3  N   UNL     1       9.024  -1.149  21.188  1.00  0.00    -0.348 N 
ENDROOT
BRANCH   3   4
HETATM    4  C   UNL     1       8.767  -1.677  22.439  1.00  0.00     0.156 C 
HETATM    5  S   UNL     1       7.211  -2.549  22.407  1.00  0.00    -0.013 SA
HETATM    6  N   UNL     1       9.519  -1.530  23.482  1.00  0.00    -0.322 N 
ATOM      7  HN  UNL     1       8.999  -1.735  24.335  1.00  0.00     0.169 HD
BRANCH   6   8
HETATM    8  C   UNL     1      10.797  -1.184  23.770  1.00  0.00     0.106 C 
HETATM    9  N   UNL     1      11.059  -0.276  24.637  1.00  0.00    -0.352 N 
HETATM   10  H   UNL     1      10.367   0.323  25.048  1.00  0.00     0.166 HD
HETATM   11  C   UNL     1      12.415   0.074  24.535  1.00  0.00     0.090 C 
HETATM   12  C   UNL     1      12.979  -0.787  23.653  1.00  0.00     0.021 C 
HETATM   13  C   UNL     1      12.073  -1.558  23.210  1.00  0.00     0.050 C 
ENDBRANCH   6   8
ENDBRANCH   3   4
BRANCH   2  14
HETATM   14  C   UNL     1       7.696   0.640  20.596  1.00  0.00     0.222 C 
BRANCH  14  15
HETATM   15  O   UNL     1       7.444   0.335  19.165  1.00  0.00    -0.322 OA
BRANCH  15  16
HETATM   16  C   UNL     1       6.217   0.359  18.682  1.00  0.00     0.208 C 
HETATM   17  S   UNL     1       5.096   1.346  19.261  1.00  0.00    -0.033 SA
BRANCH  16  18
HETATM   18  N   UNL     1       5.852  -0.615  17.761  1.00  0.00    -0.371 N 
HETATM   19  H   UNL     1       5.273  -0.540  16.932  1.00  0.00     0.159 HD
HETATM   20  H   UNL     1       6.439  -1.427  17.785  1.00  0.00     0.159 HD
ENDBRANCH  16  18
ENDBRANCH  15  16
ENDBRANCH  14  15
ENDBRANCH   2  14
TORSDOF 6
ENDMDL
MODEL 3
REMARK VINA RESULT:    -5.146     25.467     27.911
REMARK INTER + INTRA:          -7.299
REMARK INTER:                  -6.732
REMARK INTRA:                  -0.567
REMARK UNBOUND:                -0.498
REMARK  6 active torsions:
REMARK  status: ('A' for Active; 'I' for Inactive)
REMARK    1  A    between atoms: N_2  and  C_5 
REMARK    2  A    between atoms: C_5  and  O_6 
REMARK    3  A    between atoms: O_6  and  C_10 
REMARK    4  A    between atoms: C_8  and  C_10 
REMARK    5  A    between atoms: N_11  and  C_12 
REMARK    6  A    between atoms: N_13  and  C_16 
ROOT
HETATM    1  H   UNL     1      10.867  17.901   0.705  1.00  0.00     0.167 HD
HETATM    2  C   UNL     1       8.816  17.996   0.503  1.00  0.00     0.089 C 
HETATM    3  N   UNL     1      10.060  18.498   0.661  1.00  0.00    -0.348 N 
ENDROOT
BRANCH   3   4
HETATM    4  C   UNL     1      10.153  19.808   1.089  1.00  0.00     0.156 C 
HETATM    5  S   UNL     1       9.233  20.861  -0.019  1.00  0.00    -0.013 SA
HETATM    6  N   UNL     1      10.832  20.214   2.114  1.00  0.00    -0.322 N 
ATOM      7  HN  UNL     1      11.001  21.219   2.061  1.00  0.00     0.169 HD
BRANCH   6   8
HETATM    8  C   UNL     1      11.382  19.693   3.237  1.00  0.00     0.106 C 
HETATM    9  N   UNL     1      12.647  19.504   3.329  1.00  0.00    -0.352 N 
HETATM   10  H   UNL     1      13.284  19.588   2.559  1.00  0.00     0.166 HD
HETATM   11  C   UNL     1      12.908  18.710   4.458  1.00  0.00     0.090 C 
HETATM   12  C   UNL     1      11.731  18.561   5.116  1.00  0.00     0.021 C 
HETATM   13  C   UNL     1      10.823  19.150   4.451  1.00  0.00     0.050 C 
ENDBRANCH   6   8
ENDBRANCH   3   4
BRANCH   2  14
HETATM   14  C   UNL     1       8.433  17.246   1.709  1.00  0.00     0.222 C 
BRANCH  14  15
HETATM   15  O   UNL     1       9.558  16.523   2.355  1.00  0.00    -0.322 OA
BRANCH  15  16
HETATM   16  C   UNL     1       9.559  15.206   2.416  1.00  0.00     0.208 C 
HETATM   17  S   UNL     1       8.230  14.344   2.176  1.00  0.00    -0.033 SA
BRANCH  16  18
HETATM   18  N   UNL     1      10.710  14.567   2.862  1.00  0.00    -0.371 N 
HETATM   19  H   UNL     1      10.856  13.991   3.683  1.00  0.00     0.159 HD
HETATM   20  H   UNL     1      11.408  14.462   2.151  1.00  0.00     0.159 HD
ENDBRANCH  16  18
ENDBRANCH  15  16
ENDBRANCH  14  15
ENDBRANCH   2  14
TORSDOF 6
ENDMDL
MODEL 4
REMARK VINA RESULT:    -4.766     14.929     16.411
REMARK INTER + INTRA:          -6.797
REMARK INTER:                  -6.379
REMARK INTRA:                  -0.418
REMARK UNBOUND:                -0.498
REMARK  6 active torsions:
REMARK  status: ('A' for Active; 'I' for Inactive)
REMARK    1  A    between atoms: N_2  and  C_5 
REMARK    2  A    between atoms: C_5  and  O_6 
REMARK    3  A    between atoms: O_6  and  C_10 
REMARK    4  A    between atoms: C_8  and  C_10 
REMARK    5  A    between atoms: N_11  and  C_12 
REMARK    6  A    between atoms: N_13  and  C_16 
ROOT
HETATM    1  H   UNL     1      22.703  -5.407  24.101  1.00  0.00     0.167 HD
HETATM    2  C   UNL     1      24.688  -5.914  24.351  1.00  0.00     0.089 C 
HETATM    3  N   UNL     1      23.498  -5.387  24.715  1.00  0.00    -0.348 N 
ENDROOT
BRANCH   3   4
HETATM    4  C   UNL     1      23.501  -4.537  25.804  1.00  0.00     0.156 C 
HETATM    5  S   UNL     1      24.599  -5.179  27.055  1.00  0.00    -0.013 SA
HETATM    6  N   UNL     1      22.791  -3.460  25.915  1.00  0.00    -0.322 N 
ATOM      7  HN  UNL     1      22.724  -3.170  26.891  1.00  0.00     0.169 HD
BRANCH   6   8
HETATM    8  C   UNL     1      22.111  -2.607  25.113  1.00  0.00     0.106 C 
HETATM    9  N   UNL     1      22.612  -2.197  24.005  1.00  0.00    -0.352 N 
HETATM   10  H   UNL     1      23.562  -2.354  23.727  1.00  0.00     0.166 HD
HETATM   11  C   UNL     1      21.838  -1.128  23.523  1.00  0.00     0.090 C 
HETATM   12  C   UNL     1      20.760  -1.023  24.338  1.00  0.00     0.021 C 
HETATM   13  C   UNL     1      20.867  -1.891  25.258  1.00  0.00     0.050 C 
ENDBRANCH   6   8
ENDBRANCH   3   4
BRANCH   2  14
HETATM   14  C   UNL     1      25.267  -5.112  23.263  1.00  0.00     0.222 C 
BRANCH  14  15
HETATM   15  O   UNL     1      24.347  -4.891  22.118  1.00  0.00    -0.322 OA
BRANCH  15  16
HETATM   16  C   UNL     1      24.727  -5.186  20.889  1.00  0.00     0.208 C 
HETATM   17  S   UNL     1      25.398  -4.097  19.925  1.00  0.00    -0.033 SA
BRANCH  16  18
HETATM   18  N   UNL     1      24.380  -6.429  20.373  1.00  0.00    -0.371 N 
HETATM   19  H   UNL     1      24.971  -7.170  20.013  1.00  0.00     0.159 HD
HETATM   20  H   UNL     1      23.454  -6.719  20.619  1.00  0.00     0.159 HD
ENDBRANCH  16  18
ENDBRANCH  15  16
ENDBRANCH  14  15
ENDBRANCH   2  14
TORSDOF 6
ENDMDL
MODEL 5
REMARK VINA RESULT:    -4.764      3.417      5.485
REMARK INTER + INTRA:          -6.794
REMARK INTER:                  -6.442
REMARK INTRA:                  -0.352
REMARK UNBOUND:                -0.498
REMARK  6 active torsions:
REMARK  status: ('A' for Active; 'I' for Inactive)
REMARK    1  A    between atoms: N_2  and  C_5 
REMARK    2  A    between atoms: C_5  and  O_6 
REMARK    3  A    between atoms: O_6  and  C_10 
REMARK    4  A    between atoms: C_8  and  C_10 
REMARK    5  A    between atoms: N_11  and  C_12 
REMARK    6  A    between atoms: N_13  and  C_16 
ROOT
HETATM    1  H   UNL     1       8.066   0.698  23.215  1.00  0.00     0.167 HD
HETATM    2  C   UNL     1       9.182   1.870  21.934  1.00  0.00     0.089 C 
HETATM    3  N   UNL     1       8.445   0.795  22.290  1.00  0.00    -0.348 N 
ENDROOT
BRANCH   3   4
HETATM    4  C   UNL     1       8.509  -0.306  21.458  1.00  0.00     0.156 C 
HETATM    5  S   UNL     1       9.526  -1.562  22.214  1.00  0.00    -0.013 SA
HETATM    6  N   UNL     1       7.950  -0.400  20.294  1.00  0.00    -0.322 N 
ATOM      7  HN  UNL     1       8.371  -1.151  19.748  1.00  0.00     0.169 HD
BRANCH   6   8
HETATM    8  C   UNL     1       6.967   0.211  19.590  1.00  0.00     0.106 C 
HETATM    9  N   UNL     1       7.051   0.351  18.318  1.00  0.00    -0.352 N 
HETATM   10  H   UNL     1       7.878   0.157  17.786  1.00  0.00     0.166 HD
HETATM   11  C   UNL     1       6.057   1.246  17.891  1.00  0.00     0.090 C 
HETATM   12  C   UNL     1       5.281   1.518  18.970  1.00  0.00     0.021 C 
HETATM   13  C   UNL     1       5.761   0.905  19.973  1.00  0.00     0.050 C 
ENDBRANCH   6   8
ENDBRANCH   3   4
BRANCH   2  14
HETATM   14  C   UNL     1      10.459   1.850  22.663  1.00  0.00     0.222 C 
BRANCH  14  15
HETATM   15  O   UNL     1      10.314   1.804  24.140  1.00  0.00    -0.322 OA
BRANCH  15  16
HETATM   16  C   UNL     1      10.850   0.818  24.834  1.00  0.00     0.208 C 
HETATM   17  S   UNL     1      12.265   0.178  24.445  1.00  0.00    -0.033 SA
BRANCH  16  18
HETATM   18  N   UNL     1      10.083   0.218  25.826  1.00  0.00    -0.371 N 
HETATM   19  H   UNL     1       9.075   0.137  25.907  1.00  0.00     0.159 HD
HETATM   20  H   UNL     1      10.599  -0.426  26.394  1.00  0.00     0.159 HD
ENDBRANCH  16  18
ENDBRANCH  15  16
ENDBRANCH  14  15
ENDBRANCH   2  14
TORSDOF 6
ENDMDL
MODEL 6
REMARK VINA RESULT:    -4.634      2.270      3.920
REMARK INTER + INTRA:          -6.623
REMARK INTER:                  -6.180
REMARK INTRA:                  -0.443
REMARK UNBOUND:                -0.498
REMARK  6 active torsions:
REMARK  status: ('A' for Active; 'I' for Inactive)
REMARK    1  A    between atoms: N_2  and  C_5 
REMARK    2  A    between atoms: C_5  and  O_6 
REMARK    3  A    between atoms: O_6  and  C_10 
REMARK    4  A    between atoms: C_8  and  C_10 
REMARK    5  A    between atoms: N_11  and  C_12 
REMARK    6  A    between atoms: N_13  and  C_16 
ROOT
HETATM    1  H   UNL     1       7.101  -0.812  23.782  1.00  0.00     0.167 HD
HETATM    2  C   UNL     1       7.057  -1.116  21.741  1.00  0.00     0.089 C 
HETATM    3  N   UNL     1       7.325  -1.435  23.026  1.00  0.00    -0.348 N 
ENDROOT
BRANCH   3   4
HETATM    4  C   UNL     1       8.207  -2.477  23.237  1.00  0.00     0.156 C 
HETATM    5  S   UNL     1       7.429  -4.015  22.776  1.00  0.00    -0.013 SA
HETATM    6  N   UNL     1       9.400  -2.362  23.726  1.00  0.00    -0.322 N 
ATOM      7  HN  UNL     1       9.740  -3.260  24.068  1.00  0.00     0.169 HD
BRANCH   6   8
HETATM    8  C   UNL     1      10.328  -1.394  23.916  1.00  0.00     0.106 C 
HETATM    9  N   UNL     1      11.477  -1.455  23.348  1.00  0.00    -0.352 N 
HETATM   10  H   UNL     1      11.816  -2.259  22.855  1.00  0.00     0.166 HD
HETATM   11  C   UNL     1      12.323  -0.496  23.927  1.00  0.00     0.090 C 
HETATM   12  C   UNL     1      11.564   0.241  24.775  1.00  0.00     0.021 C 
HETATM   13  C   UNL     1      10.385  -0.232  24.771  1.00  0.00     0.050 C 
ENDBRANCH   6   8
ENDBRANCH   3   4
BRANCH   2  14
HETATM   14  C   UNL     1       7.913   0.006  21.326  1.00  0.00     0.222 C 
BRANCH  14  15
HETATM   15  O   UNL     1       7.225   1.013  20.479  1.00  0.00    -0.322 OA
BRANCH  15  16
HETATM   16  C   UNL     1       6.723   0.671  19.308  1.00  0.00     0.208 C 
HETATM   17  S   UNL     1       5.158   0.790  18.988  1.00  0.00    -0.033 SA
BRANCH  16  18
HETATM   18  N   UNL     1       7.557   0.039  18.393  1.00  0.00    -0.371 N 
HETATM   19  H   UNL     1       7.323  -0.522  17.581  1.00  0.00     0.159 HD
HETATM   20  H   UNL     1       8.495   0.390  18.399  1.00  0.00     0.159 HD
ENDBRANCH  16  18
ENDBRANCH  15  16
ENDBRANCH  14  15
ENDBRANCH   2  14
TORSDOF 6
ENDMDL
MODEL 7
REMARK VINA RESULT:    -4.620     20.599     22.338
REMARK INTER + INTRA:          -6.603
REMARK INTER:                  -6.328
REMARK INTRA:                  -0.275
REMARK UNBOUND:                -0.498
REMARK  6 active torsions:
REMARK  status: ('A' for Active; 'I' for Inactive)
REMARK    1  A    between atoms: N_2  and  C_5 
REMARK    2  A    between atoms: C_5  and  O_6 
REMARK    3  A    between atoms: O_6  and  C_10 
REMARK    4  A    between atoms: C_8  and  C_10 
REMARK    5  A    between atoms: N_11  and  C_12 
REMARK    6  A    between atoms: N_13  and  C_16 
ROOT
HETATM    1  H   UNL     1       8.575  10.810   2.963  1.00  0.00     0.167 HD
HETATM    2  C   UNL     1       7.487  11.861   4.367  1.00  0.00     0.089 C 
HETATM    3  N   UNL     1       7.659  11.043   3.306  1.00  0.00    -0.348 N 
ENDROOT
BRANCH   3   4
HETATM    4  C   UNL     1       6.552  10.810   2.513  1.00  0.00     0.156 C 
HETATM    5  S   UNL     1       6.650  11.819   1.045  1.00  0.00    -0.013 SA
HETATM    6  N   UNL     1       5.576  10.012   2.806  1.00  0.00    -0.322 N 
ATOM      7  HN  UNL     1       4.753  10.224   2.242  1.00  0.00     0.169 HD
BRANCH   6   8
HETATM    8  C   UNL     1       5.330   8.976   3.643  1.00  0.00     0.106 C 
HETATM    9  N   UNL     1       4.839   7.873   3.208  1.00  0.00    -0.352 N 
HETATM   10  H   UNL     1       4.480   7.747   2.281  1.00  0.00     0.166 HD
HETATM   11  C   UNL     1       4.430   7.094   4.302  1.00  0.00     0.090 C 
HETATM   12  C   UNL     1       4.843   7.737   5.422  1.00  0.00     0.021 C 
HETATM   13  C   UNL     1       5.402   8.824   5.076  1.00  0.00     0.050 C 
ENDBRANCH   6   8
ENDBRANCH   3   4
BRANCH   2  14
HETATM   14  C   UNL     1       7.910  13.223   4.008  1.00  0.00     0.222 C 
BRANCH  14  15
HETATM   15  O   UNL     1       9.367  13.360   3.762  1.00  0.00    -0.322 OA
BRANCH  15  16
HETATM   16  C   UNL     1       9.831  14.351   3.024  1.00  0.00     0.208 C 
HETATM   17  S   UNL     1       8.980  14.987   1.826  1.00  0.00    -0.033 SA
BRANCH  16  18
HETATM   18  N   UNL     1      11.157  14.733   3.193  1.00  0.00    -0.371 N 
HETATM   19  H   UNL     1      11.950  14.618   2.572  1.00  0.00     0.159 HD
HETATM   20  H   UNL     1      11.284  15.427   3.904  1.00  0.00     0.159 HD
ENDBRANCH  16  18
ENDBRANCH  15  16
ENDBRANCH  14  15
ENDBRANCH   2  14
TORSDOF 6
ENDMDL
MODEL 8
REMARK VINA RESULT:    -4.544      2.813      5.386
REMARK INTER + INTRA:          -6.503
REMARK INTER:                  -6.216
REMARK INTRA:                  -0.287
REMARK UNBOUND:                -0.498
REMARK  6 active torsions:
REMARK  status: ('A' for Active; 'I' for Inactive)
REMARK    1  A    between atoms: N_2  and  C_5 
REMARK    2  A    between atoms: C_5  and  O_6 
REMARK    3  A    between atoms: O_6  and  C_10 
REMARK    4  A    between atoms: C_8  and  C_10 
REMARK    5  A    between atoms: N_11  and  C_12 
REMARK    6  A    between atoms: N_13  and  C_16 
ROOT
HETATM    1  H   UNL     1       6.221  -0.602  22.712  1.00  0.00     0.167 HD
HETATM    2  C   UNL     1       6.792  -2.585  22.690  1.00  0.00     0.089 C 
HETATM    3  N   UNL     1       6.954  -1.257  22.502  1.00  0.00    -0.348 N 
ENDROOT
BRANCH   3   4
HETATM    4  C   UNL     1       8.016  -0.865  21.710  1.00  0.00     0.156 C 
HETATM    5  S   UNL     1       9.525  -1.566  22.352  1.00  0.00    -0.013 SA
HETATM    6  N   UNL     1       7.934  -0.081  20.682  1.00  0.00    -0.322 N 
ATOM      7  HN  UNL     1       8.849   0.303  20.447  1.00  0.00     0.169 HD
BRANCH   6   8
HETATM    8  C   UNL     1       6.987   0.376  19.829  1.00  0.00     0.106 C 
HETATM    9  N   UNL     1       6.107   1.227  20.210  1.00  0.00    -0.352 N 
HETATM   10  H   UNL     1       5.967   1.500  21.165  1.00  0.00     0.166 HD
HETATM   11  C   UNL     1       5.101   1.312  19.233  1.00  0.00     0.090 C 
HETATM   12  C   UNL     1       5.513   0.567  18.178  1.00  0.00     0.021 C 
HETATM   13  C   UNL     1       6.626   0.032  18.475  1.00  0.00     0.050 C 
ENDBRANCH   6   8
ENDBRANCH   3   4
BRANCH   2  14
HETATM   14  C   UNL     1       5.797  -3.097  21.735  1.00  0.00     0.222 C 
BRANCH  14  15
HETATM   15  O   UNL     1       4.880  -4.116  22.305  1.00  0.00    -0.322 OA
BRANCH  15  16
HETATM   16  C   UNL     1       5.249  -5.381  22.379  1.00  0.00     0.208 C 
HETATM   17  S   UNL     1       6.476  -5.959  21.527  1.00  0.00    -0.033 SA
BRANCH  16  18
HETATM   18  N   UNL     1       4.443  -6.261  23.092  1.00  0.00    -0.371 N 
HETATM   19  H   UNL     1       3.965  -7.100  22.781  1.00  0.00     0.159 HD
HETATM   20  H   UNL     1       4.557  -6.192  24.085  1.00  0.00     0.159 HD
ENDBRANCH  16  18
ENDBRANCH  15  16
ENDBRANCH  14  15
ENDBRANCH   2  14
TORSDOF 6
ENDMDL
MODEL 9
REMARK VINA RESULT:    -4.506     25.627     26.907
REMARK INTER + INTRA:          -6.453
REMARK INTER:                  -5.642
REMARK INTRA:                  -0.811
REMARK UNBOUND:                -0.498
REMARK  6 active torsions:
REMARK  status: ('A' for Active; 'I' for Inactive)
REMARK    1  A    between atoms: N_2  and  C_5 
REMARK    2  A    between atoms: C_5  and  O_6 
REMARK    3  A    between atoms: O_6  and  C_10 
REMARK    4  A    between atoms: C_8  and  C_10 
REMARK    5  A    between atoms: N_11  and  C_12 
REMARK    6  A    between atoms: N_13  and  C_16 
ROOT
HETATM    1  H   UNL     1      11.804  17.820   3.209  1.00  0.00     0.167 HD
HETATM    2  C   UNL     1      11.329  19.814   3.450  1.00  0.00     0.089 C 
HETATM    3  N   UNL     1      11.337  18.504   3.778  1.00  0.00    -0.348 N 
ENDROOT
BRANCH   3   4
HETATM    4  C   UNL     1      10.416  18.094   4.723  1.00  0.00     0.156 C 
HETATM    5  S   UNL     1      10.433  19.228   6.100  1.00  0.00    -0.013 SA
HETATM    6  N   UNL     1       9.681  17.031   4.640  1.00  0.00    -0.322 N 
ATOM      7  HN  UNL     1       9.315  16.772   5.556  1.00  0.00     0.169 HD
BRANCH   6   8
HETATM    8  C   UNL     1       9.257  16.164   3.690  1.00  0.00     0.106 C 
HETATM    9  N   UNL     1      10.078  15.639   2.856  1.00  0.00    -0.352 N 
HETATM   10  H   UNL     1      11.033  15.927   2.754  1.00  0.00     0.166 HD
HETATM   11  C   UNL     1       9.349  15.017   1.829  1.00  0.00     0.090 C 
HETATM   12  C   UNL     1       8.041  15.077   2.181  1.00  0.00     0.021 C 
HETATM   13  C   UNL     1       7.951  15.710   3.278  1.00  0.00     0.050 C 
ENDBRANCH   6   8
ENDBRANCH   3   4
BRANCH   2  14
HETATM   14  C   UNL     1      10.534  20.007   2.228  1.00  0.00     0.222 C 
BRANCH  14  15
HETATM   15  O   UNL     1      10.289  18.760   1.460  1.00  0.00    -0.322 OA
BRANCH  15  16
HETATM   16  C   UNL     1       9.141  18.570   0.841  1.00  0.00     0.208 C 
HETATM   17  S   UNL     1       7.744  19.015   1.487  1.00  0.00    -0.033 SA
BRANCH  16  18
HETATM   18  N   UNL     1       9.138  17.816  -0.327  1.00  0.00    -0.371 N 
HETATM   19  H   UNL     1       9.912  17.403  -0.835  1.00  0.00     0.159 HD
HETATM   20  H   UNL     1       8.242  17.427  -0.548  1.00  0.00     0.159 HD
ENDBRANCH  16  18
ENDBRANCH  15  16
ENDBRANCH  14  15
ENDBRANCH   2  14
TORSDOF 6
ENDMDL
