stable:False satoms:7 tatoms:24 sratio:0.2916666666666667
  -OEChem-07092417473D

 24 24  0     0  0  0  0  0  0999 V2000
    6.6178   -4.8621   26.4039 C   0  0  0  0  0  0  0  0  0  0  0  0
    8.2076   -4.3248   26.0915 S   0  0  0  0  0  0  0  0  0  0  0  0
    9.0703   -5.4678   26.0313 O   0  0  0  0  0  0  0  0  0  0  0  0
    8.6041   -3.4015   27.1301 O   0  0  0  0  0  0  0  0  0  0  0  0
    8.1281   -3.6323   24.6462 N   0  0  0  0  0  0  0  0  0  0  0  0
    8.9246   -2.9649   24.1178 C   0  0  0  0  0  0  0  0  0  0  0  0
    9.4037   -2.0836   23.4998 C   0  0  0  0  0  0  0  0  0  0  0  0
   10.2974   -1.3946   22.9209 C   0  0  0  0  0  0  0  0  0  0  0  0
   11.1997    0.2451   24.6109 C   0  0  0  0  0  0  0  0  0  0  0  0
   12.0889    0.2783   24.3169 C   0  0  0  0  0  0  0  0  0  0  0  0
   13.0733   -0.1369   23.5466 C   0  0  0  0  0  0  0  0  0  0  0  0
   12.7078   -1.1946   22.7275 C   0  0  0  0  0  0  0  0  0  0  0  0
   11.7534   -1.6433   22.5866 C   0  0  0  0  0  0  0  0  0  0  0  0
    9.7233   -0.5387   22.3132 C   0  0  0  0  0  0  0  0  0  0  0  0
    9.0563    0.0690   21.3781 C   0  0  0  0  0  0  0  0  0  0  0  0
    9.5714    0.9912   20.9498 O   0  0  0  0  0  0  0  0  0  0  0  0
    7.9070   -0.5456   21.1011 N   0  0  0  0  0  0  0  0  0  0  0  0
    7.1652   -0.0764   20.1680 C   0  0  0  0  0  0  0  0  0  0  0  0
    7.2306   -0.0032   18.8572 C   0  0  0  0  0  0  0  0  0  0  0  0
    6.8241    0.2573   17.7573 N   0  0  0  0  0  0  0  0  0  0  0  0
    5.6927    0.8792   18.2356 C   0  0  0  0  0  0  0  0  0  0  0  0
    5.3093    0.9768   19.3678 C   0  0  0  0  0  0  0  0  0  0  0  0
    5.8074    0.5753   20.5296 C   0  0  0  0  0  0  0  0  0  0  0  0
    5.2198    0.7079   22.0089 C   0  0  0  0  0  0  0  0  0  0  0  0
 20 21  2  0  0  0  0
 19 20  1  0  0  0  0
 21 22  1  0  0  0  0
 18 19  2  0  0  0  0
 22 23  2  0  0  0  0
 18 23  1  0  0  0  0
 17 18  1  0  0  0  0
 23 24  1  0  0  0  0
 15 16  2  0  0  0  0
 15 17  1  0  0  0  0
 14 15  1  0  0  0  0
  8 14  2  3  0  0  0
 12 13  2  0  0  0  0
  8 13  1  0  0  0  0
 11 12  1  0  0  0  0
  7  8  1  0  0  0  0
  6  7  3  0  0  0  0
 10 11  1  0  0  0  0
  5  6  1  0  0  0  0
  9 10  2  0  0  0  0
  2  5  1  0  0  0  0
  2  3  2  0  0  0  0
  1  2  1  0  0  0  0
  2  4  2  0  0  0  0
M  END
> <Shapegauss>
-288.919220

$$$$
