REMARK  10 active torsions:
REMARK  status: ('A' for Active; 'I' for Inactive)
REMARK    1  A    between atoms: S_2  and  N_5 
REMARK    2  A    between atoms: N_5  and  C_7 
REMARK    3  A    between atoms: C_7  and  C_8 
REMARK    4  A    between atoms: C_9  and  C_15 
REMARK    5  A    between atoms: C_9  and  C_14 
REMARK    6  A    between atoms: C_11  and  C_12 
REMARK    7  A    between atoms: C_12  and  C_13 
REMARK    8  A    between atoms: C_13  and  C_14 
REMARK    9  A    between atoms: C_15  and  C_16 
REMARK       I    between atoms: C_16  and  N_18 
REMARK   10  A    between atoms: N_18  and  C_20 
ROOT
HETATM    1  C   UNL     1       9.404  -2.084  23.500  1.00  0.00     0.095 C 
HETATM    2  C   UNL     1      10.297  -1.395  22.921  1.00  0.00     0.024 C 
ENDROOT
BRANCH   2   3
HETATM    3  C   UNL     1       9.723  -0.539  22.313  1.00  0.00    -0.043 C 
BRANCH   3   4
HETATM    4  C   UNL     1       9.056   0.069  21.378  1.00  0.00     0.294 C 
HETATM    5  O   UNL     1       9.571   0.991  20.950  1.00  0.00    -0.258 OA
HETATM    6  N   UNL     1       7.907  -0.546  21.101  1.00  0.00    -0.315 N 
ATOM      7  HN  UNL     1       7.623  -1.376  21.622  1.00  0.00     0.170 HD
BRANCH   6   8
HETATM    8  C   UNL     1       7.165  -0.076  20.168  1.00  0.00     0.057 A 
HETATM    9  C   UNL     1       7.231  -0.003  18.857  1.00  0.00     0.117 A 
HETATM   10  N   UNL     1       6.824   0.257  17.757  1.00  0.00    -0.373 N 
HETATM   11  C   UNL     1       5.693   0.879  18.236  1.00  0.00     0.088 A 
ATOM     12  HN  UNL     1       7.183   0.082  16.818  1.00  0.00     0.164 HD
HETATM   13  C   UNL     1       5.309   0.977  19.368  1.00  0.00     0.026 A 
HETATM   14  C   UNL     1       5.807   0.575  20.530  1.00  0.00    -0.033 A 
HETATM   15  C   UNL     1       5.220   0.708  22.009  1.00  0.00     0.050 C 
ENDBRANCH   6   8
ENDBRANCH   3   4
ENDBRANCH   2   3
BRANCH   2  16
HETATM   16  C   UNL     1      11.753  -1.643  22.587  1.00  0.00     0.021 C 
BRANCH  16  17
HETATM   17  C   UNL     1      12.708  -1.195  22.727  1.00  0.00     0.001 C 
BRANCH  17  18
HETATM   18  C   UNL     1      13.073  -0.137  23.547  1.00  0.00    -0.001 C 
BRANCH  18  19
HETATM   19  C   UNL     1      12.089   0.278  24.317  1.00  0.00    -0.010 C 
HETATM   20  C   UNL     1      11.200   0.245  24.611  1.00  0.00     0.011 C 
ENDBRANCH  18  19
ENDBRANCH  17  18
ENDBRANCH  16  17
ENDBRANCH   2  16
BRANCH   1  21
HETATM   21  C   UNL     1       8.925  -2.965  24.118  1.00  0.00    -0.030 C 
BRANCH  21  22
HETATM   22  N   UNL     1       8.128  -3.632  24.646  1.00  0.00    -0.250 N 
ATOM     23  HN  UNL     1       7.269  -3.796  24.122  1.00  0.00     0.188 HD
BRANCH  22  24
HETATM   24  S   UNL     1       8.208  -4.325  26.091  1.00  0.00     0.233 S 
HETATM   25  C   UNL     1       6.618  -4.862  26.404  1.00  0.00     0.186 C 
HETATM   26  O   UNL     1       9.070  -5.468  26.031  1.00  0.00    -0.205 OA
HETATM   27  O   UNL     1       8.604  -3.401  27.130  1.00  0.00    -0.205 OA
ENDBRANCH  22  24
ENDBRANCH  21  22
ENDBRANCH   1  21
TORSDOF 10
