MODEL 1
REMARK VINA RESULT:    -6.283      0.000      0.000
REMARK INTER + INTRA:         -11.405
REMARK INTER:                  -9.956
REMARK INTRA:                  -1.448
REMARK UNBOUND:                -1.448
REMARK  10 active torsions:
REMARK  status: ('A' for Active; 'I' for Inactive)
REMARK    1  A    between atoms: S_2  and  N_5 
REMARK    2  A    between atoms: N_5  and  C_7 
REMARK    3  A    between atoms: C_7  and  C_8 
REMARK    4  A    between atoms: C_9  and  C_15 
REMARK    5  A    between atoms: C_9  and  C_14 
REMARK    6  A    between atoms: C_11  and  C_12 
REMARK    7  A    between atoms: C_12  and  C_13 
REMARK    8  A    between atoms: C_13  and  C_14 
REMARK    9  A    between atoms: C_15  and  C_16 
REMARK       I    between atoms: C_16  and  N_18 
REMARK   10  A    between atoms: N_18  and  C_20 
ROOT
HETATM    1  C   UNL     1       9.120  -1.373  22.042  1.00  0.00     0.095 C 
HETATM    2  C   UNL     1       9.974  -1.860  22.844  1.00  0.00     0.024 C 
ENDROOT
BRANCH   2   3
HETATM    3  C   UNL     1       9.372  -2.592  23.575  1.00  0.00    -0.043 C 
BRANCH   3   4
HETATM    4  C   UNL     1       8.722  -3.036  24.609  1.00  0.00     0.294 C 
HETATM    5  O   UNL     1       8.621  -2.288  25.463  1.00  0.00    -0.258 OA
HETATM    6  N   UNL     1       8.286  -4.282  24.430  1.00  0.00    -0.315 N 
ATOM      7  HN  UNL     1       8.499  -4.789  23.570  1.00  0.00     0.170 HD
BRANCH   6   8
HETATM    8  C   UNL     1       7.593  -4.832  25.356  1.00  0.00     0.057 A 
HETATM    9  C   UNL     1       7.851  -5.430  26.498  1.00  0.00     0.117 A 
HETATM   10  N   UNL     1       7.571  -5.964  27.537  1.00  0.00    -0.373 N 
HETATM   11  C   UNL     1       6.223  -5.975  27.261  1.00  0.00     0.088 A 
ATOM     12  HN  UNL     1       8.127  -6.290  28.329  1.00  0.00     0.164 HD
HETATM   13  C   UNL     1       5.641  -5.499  26.326  1.00  0.00     0.026 A 
HETATM   14  C   UNL     1       6.048  -4.845  25.246  1.00  0.00    -0.033 A 
HETATM   15  C   UNL     1       5.209  -4.202  24.049  1.00  0.00     0.050 C 
ENDBRANCH   6   8
ENDBRANCH   3   4
ENDBRANCH   2   3
BRANCH   2  16
HETATM   16  C   UNL     1      11.376  -1.455  23.247  1.00  0.00     0.021 C 
BRANCH  16  17
HETATM   17  C   UNL     1      11.916  -0.594  23.561  1.00  0.00     0.001 C 
BRANCH  17  18
HETATM   18  C   UNL     1      11.767   0.168  24.711  1.00  0.00    -0.001 C 
BRANCH  18  19
HETATM   19  C   UNL     1      10.688   0.923  24.690  1.00  0.00    -0.010 C 
HETATM   20  C   UNL     1      10.263   1.754  24.617  1.00  0.00     0.011 C 
ENDBRANCH  18  19
ENDBRANCH  17  18
ENDBRANCH  16  17
ENDBRANCH   2  16
BRANCH   1  21
HETATM   21  C   UNL     1       8.675  -0.684  21.197  1.00  0.00    -0.030 C 
BRANCH  21  22
HETATM   22  N   UNL     1       8.410  -0.271  20.140  1.00  0.00    -0.250 N 
ATOM     23  HN  UNL     1       9.183  -0.223  19.476  1.00  0.00     0.188 HD
BRANCH  22  24
HETATM   24  S   UNL     1       6.987   0.230  19.593  1.00  0.00     0.233 S 
HETATM   25  C   UNL     1       6.449   1.360  20.754  1.00  0.00     0.186 C 
HETATM   26  O   UNL     1       7.162   0.910  18.344  1.00  0.00    -0.205 OA
HETATM   27  O   UNL     1       6.020  -0.841  19.497  1.00  0.00    -0.205 OA
ENDBRANCH  22  24
ENDBRANCH  21  22
ENDBRANCH   1  21
TORSDOF 10
ENDMDL
MODEL 2
REMARK VINA RESULT:    -6.256      1.715      2.253
REMARK INTER + INTRA:         -11.362
REMARK INTER:                  -9.897
REMARK INTRA:                  -1.464
REMARK UNBOUND:                -1.448
REMARK  10 active torsions:
REMARK  status: ('A' for Active; 'I' for Inactive)
REMARK    1  A    between atoms: S_2  and  N_5 
REMARK    2  A    between atoms: N_5  and  C_7 
REMARK    3  A    between atoms: C_7  and  C_8 
REMARK    4  A    between atoms: C_9  and  C_15 
REMARK    5  A    between atoms: C_9  and  C_14 
REMARK    6  A    between atoms: C_11  and  C_12 
REMARK    7  A    between atoms: C_12  and  C_13 
REMARK    8  A    between atoms: C_13  and  C_14 
REMARK    9  A    between atoms: C_15  and  C_16 
REMARK       I    between atoms: C_16  and  N_18 
REMARK   10  A    between atoms: N_18  and  C_20 
ROOT
HETATM    1  C   UNL     1       8.611   0.069  20.774  1.00  0.00     0.095 C 
HETATM    2  C   UNL     1       9.369   0.250  21.774  1.00  0.00     0.024 C 
ENDROOT
BRANCH   2   3
HETATM    3  C   UNL     1       9.156  -0.654  22.529  1.00  0.00    -0.043 C 
BRANCH   3   4
HETATM    4  C   UNL     1       9.296  -1.765  23.188  1.00  0.00     0.294 C 
HETATM    5  O   UNL     1      10.319  -2.255  23.081  1.00  0.00    -0.258 OA
HETATM    6  N   UNL     1       8.200  -2.080  23.877  1.00  0.00    -0.315 N 
ATOM      7  HN  UNL     1       7.367  -1.494  23.826  1.00  0.00     0.170 HD
BRANCH   6   8
HETATM    8  C   UNL     1       8.212  -3.134  24.606  1.00  0.00     0.057 A 
HETATM    9  C   UNL     1       8.512  -3.413  25.855  1.00  0.00     0.117 A 
HETATM   10  N   UNL     1       8.612  -4.120  26.822  1.00  0.00    -0.373 N 
HETATM   11  C   UNL     1       8.265  -5.256  26.125  1.00  0.00     0.088 A 
ATOM     12  HN  UNL     1       8.861  -3.944  27.796  1.00  0.00     0.164 HD
HETATM   13  C   UNL     1       7.912  -5.361  24.984  1.00  0.00     0.026 A 
HETATM   14  C   UNL     1       7.757  -4.485  24.000  1.00  0.00    -0.033 A 
HETATM   15  C   UNL     1       7.245  -4.691  22.502  1.00  0.00     0.050 C 
ENDBRANCH   6   8
ENDBRANCH   3   4
ENDBRANCH   2   3
BRANCH   2  16
HETATM   16  C   UNL     1      10.129   1.448  22.304  1.00  0.00     0.021 C 
BRANCH  16  17
HETATM   17  C   UNL     1      11.036   1.678  22.809  1.00  0.00     0.001 C 
BRANCH  17  18
HETATM   18  C   UNL     1      11.343   1.578  24.159  1.00  0.00    -0.001 C 
BRANCH  18  19
HETATM   19  C   UNL     1      12.167   0.586  24.425  1.00  0.00    -0.010 C 
HETATM   20  C   UNL     1      12.773  -0.078  24.161  1.00  0.00     0.011 C 
ENDBRANCH  18  19
ENDBRANCH  17  18
ENDBRANCH  16  17
ENDBRANCH   2  16
BRANCH   1  21
HETATM   21  C   UNL     1       8.063   0.294  19.756  1.00  0.00    -0.030 C 
BRANCH  21  22
HETATM   22  N   UNL     1       7.418   0.143  18.797  1.00  0.00    -0.250 N 
ATOM     23  HN  UNL     1       7.925   0.175  17.913  1.00  0.00     0.188 HD
BRANCH  22  24
HETATM   24  S   UNL     1       5.838  -0.110  18.688  1.00  0.00     0.233 S 
HETATM   25  C   UNL     1       5.129   1.384  19.111  1.00  0.00     0.186 C 
HETATM   26  O   UNL     1       5.490  -0.410  17.330  1.00  0.00    -0.205 OA
HETATM   27  O   UNL     1       5.372  -1.126  19.604  1.00  0.00    -0.205 OA
ENDBRANCH  22  24
ENDBRANCH  21  22
ENDBRANCH   1  21
TORSDOF 10
ENDMDL
MODEL 3
REMARK VINA RESULT:    -6.105      2.491      6.318
REMARK INTER + INTRA:         -11.122
REMARK INTER:                 -10.167
REMARK INTRA:                  -0.955
REMARK UNBOUND:                -1.448
REMARK  10 active torsions:
REMARK  status: ('A' for Active; 'I' for Inactive)
REMARK    1  A    between atoms: S_2  and  N_5 
REMARK    2  A    between atoms: N_5  and  C_7 
REMARK    3  A    between atoms: C_7  and  C_8 
REMARK    4  A    between atoms: C_9  and  C_15 
REMARK    5  A    between atoms: C_9  and  C_14 
REMARK    6  A    between atoms: C_11  and  C_12 
REMARK    7  A    between atoms: C_12  and  C_13 
REMARK    8  A    between atoms: C_13  and  C_14 
REMARK    9  A    between atoms: C_15  and  C_16 
REMARK       I    between atoms: C_16  and  N_18 
REMARK   10  A    between atoms: N_18  and  C_20 
ROOT
HETATM    1  C   UNL     1       8.917  -2.051  23.291  1.00  0.00     0.095 C 
HETATM    2  C   UNL     1       9.251  -0.843  23.485  1.00  0.00     0.024 C 
ENDROOT
BRANCH   2   3
HETATM    3  C   UNL     1       9.095  -0.277  22.443  1.00  0.00    -0.043 C 
BRANCH   3   4
HETATM    4  C   UNL     1       8.520   0.262  21.409  1.00  0.00     0.294 C 
HETATM    5  O   UNL     1       9.130   1.077  20.897  1.00  0.00    -0.258 OA
HETATM    6  N   UNL     1       7.333  -0.286  21.154  1.00  0.00    -0.315 N 
ATOM      7  HN  UNL     1       6.957  -1.018  21.759  1.00  0.00     0.170 HD
BRANCH   6   8
HETATM    8  C   UNL     1       6.671   0.122  20.136  1.00  0.00     0.057 A 
HETATM    9  C   UNL     1       6.477  -0.300  18.906  1.00  0.00     0.117 A 
HETATM   10  N   UNL     1       5.988  -0.276  17.809  1.00  0.00    -0.373 N 
HETATM   11  C   UNL     1       5.349   0.922  18.032  1.00  0.00     0.088 A 
ATOM     12  HN  UNL     1       6.031  -0.909  17.009  1.00  0.00     0.164 HD
HETATM   13  C   UNL     1       5.294   1.570  19.040  1.00  0.00     0.026 A 
HETATM   14  C   UNL     1       5.818   1.410  20.248  1.00  0.00    -0.033 A 
HETATM   15  C   UNL     1       5.672   2.300  21.566  1.00  0.00     0.050 C 
ENDBRANCH   6   8
ENDBRANCH   3   4
ENDBRANCH   2   3
BRANCH   2  16
HETATM   16  C   UNL     1      10.066  -0.145  24.553  1.00  0.00     0.021 C 
BRANCH  16  17
HETATM   17  C   UNL     1      10.696   0.704  24.671  1.00  0.00     0.001 C 
BRANCH  17  18
HETATM   18  C   UNL     1      11.980   0.922  24.192  1.00  0.00    -0.001 C 
BRANCH  18  19
HETATM   19  C   UNL     1      12.765  -0.125  24.335  1.00  0.00    -0.010 C 
HETATM   20  C   UNL     1      13.394  -0.737  24.007  1.00  0.00     0.011 C 
ENDBRANCH  18  19
ENDBRANCH  17  18
ENDBRANCH  16  17
ENDBRANCH   2  16
BRANCH   1  21
HETATM   21  C   UNL     1       8.776  -3.200  23.507  1.00  0.00    -0.030 C 
BRANCH  21  22
HETATM   22  N   UNL     1       8.270  -4.214  23.779  1.00  0.00    -0.250 N 
ATOM     23  HN  UNL     1       8.624  -4.676  24.616  1.00  0.00     0.188 HD
BRANCH  22  24
HETATM   24  S   UNL     1       7.089  -4.977  23.006  1.00  0.00     0.233 S 
HETATM   25  C   UNL     1       6.013  -5.470  24.236  1.00  0.00     0.186 C 
HETATM   26  O   UNL     1       6.405  -4.060  22.145  1.00  0.00    -0.205 OA
HETATM   27  O   UNL     1       7.554  -6.146  22.294  1.00  0.00    -0.205 OA
ENDBRANCH  22  24
ENDBRANCH  21  22
ENDBRANCH   1  21
TORSDOF 10
ENDMDL
MODEL 4
REMARK VINA RESULT:    -5.974      2.948      6.897
REMARK INTER + INTRA:         -10.915
REMARK INTER:                  -9.719
REMARK INTRA:                  -1.197
REMARK UNBOUND:                -1.448
REMARK  10 active torsions:
REMARK  status: ('A' for Active; 'I' for Inactive)
REMARK    1  A    between atoms: S_2  and  N_5 
REMARK    2  A    between atoms: N_5  and  C_7 
REMARK    3  A    between atoms: C_7  and  C_8 
REMARK    4  A    between atoms: C_9  and  C_15 
REMARK    5  A    between atoms: C_9  and  C_14 
REMARK    6  A    between atoms: C_11  and  C_12 
REMARK    7  A    between atoms: C_12  and  C_13 
REMARK    8  A    between atoms: C_13  and  C_14 
REMARK    9  A    between atoms: C_15  and  C_16 
REMARK       I    between atoms: C_16  and  N_18 
REMARK   10  A    between atoms: N_18  and  C_20 
ROOT
HETATM    1  C   UNL     1       7.496  -2.902  24.548  1.00  0.00     0.095 C 
HETATM    2  C   UNL     1       8.201  -1.895  24.240  1.00  0.00     0.024 C 
ENDROOT
BRANCH   2   3
HETATM    3  C   UNL     1       8.092  -1.755  23.056  1.00  0.00    -0.043 C 
BRANCH   3   4
HETATM    4  C   UNL     1       7.887  -1.206  21.896  1.00  0.00     0.294 C 
HETATM    5  O   UNL     1       8.831  -1.015  21.288  1.00  0.00    -0.258 OA
HETATM    6  N   UNL     1       6.591  -1.008  21.658  1.00  0.00    -0.315 N 
ATOM      7  HN  UNL     1       5.891  -1.249  22.359  1.00  0.00     0.170 HD
BRANCH   6   8
HETATM    8  C   UNL     1       6.241  -0.509  20.531  1.00  0.00     0.057 A 
HETATM    9  C   UNL     1       5.919  -0.985  19.348  1.00  0.00     0.117 A 
HETATM   10  N   UNL     1       5.542  -0.914  18.209  1.00  0.00    -0.373 N 
HETATM   11  C   UNL     1       5.537   0.463  18.213  1.00  0.00     0.088 A 
ATOM     12  HN  UNL     1       5.313  -1.614  17.503  1.00  0.00     0.164 HD
HETATM   13  C   UNL     1       5.755   1.215  19.122  1.00  0.00     0.026 A 
HETATM   14  C   UNL     1       6.093   1.026  20.390  1.00  0.00    -0.033 A 
HETATM   15  C   UNL     1       6.334   2.081  21.565  1.00  0.00     0.050 C 
ENDBRANCH   6   8
ENDBRANCH   3   4
ENDBRANCH   2   3
BRANCH   2  16
HETATM   16  C   UNL     1       9.319  -1.150  24.939  1.00  0.00     0.021 C 
BRANCH  16  17
HETATM   17  C   UNL     1       9.741  -0.174  24.987  1.00  0.00     0.001 C 
BRANCH  17  18
HETATM   18  C   UNL     1      10.703   0.410  24.175  1.00  0.00    -0.001 C 
BRANCH  18  19
HETATM   19  C   UNL     1      11.914  -0.055  24.398  1.00  0.00    -0.010 C 
HETATM   20  C   UNL     1      12.838  -0.059  24.245  1.00  0.00     0.011 C 
ENDBRANCH  18  19
ENDBRANCH  17  18
ENDBRANCH  16  17
ENDBRANCH   2  16
BRANCH   1  21
HETATM   21  C   UNL     1       7.044  -3.765  25.211  1.00  0.00    -0.030 C 
BRANCH  21  22
HETATM   22  N   UNL     1       6.275  -4.404  25.810  1.00  0.00    -0.250 N 
ATOM     23  HN  UNL     1       5.324  -4.412  25.443  1.00  0.00     0.188 HD
BRANCH  22  24
HETATM   24  S   UNL     1       6.519  -5.271  27.138  1.00  0.00     0.233 S 
HETATM   25  C   UNL     1       5.546  -4.528  28.327  1.00  0.00     0.186 C 
HETATM   26  O   UNL     1       6.047  -6.608  26.935  1.00  0.00    -0.205 OA
HETATM   27  O   UNL     1       7.897  -5.243  27.575  1.00  0.00    -0.205 OA
ENDBRANCH  22  24
ENDBRANCH  21  22
ENDBRANCH   1  21
TORSDOF 10
ENDMDL
MODEL 5
REMARK VINA RESULT:    -5.963      1.810      2.505
REMARK INTER + INTRA:         -10.897
REMARK INTER:                  -9.845
REMARK INTRA:                  -1.052
REMARK UNBOUND:                -1.448
REMARK  10 active torsions:
REMARK  status: ('A' for Active; 'I' for Inactive)
REMARK    1  A    between atoms: S_2  and  N_5 
REMARK    2  A    between atoms: N_5  and  C_7 
REMARK    3  A    between atoms: C_7  and  C_8 
REMARK    4  A    between atoms: C_9  and  C_15 
REMARK    5  A    between atoms: C_9  and  C_14 
REMARK    6  A    between atoms: C_11  and  C_12 
REMARK    7  A    between atoms: C_12  and  C_13 
REMARK    8  A    between atoms: C_13  and  C_14 
REMARK    9  A    between atoms: C_15  and  C_16 
REMARK       I    between atoms: C_16  and  N_18 
REMARK   10  A    between atoms: N_18  and  C_20 
ROOT
HETATM    1  C   UNL     1       9.204  -2.130  22.946  1.00  0.00     0.095 C 
HETATM    2  C   UNL     1       9.154  -2.248  24.208  1.00  0.00     0.024 C 
ENDROOT
BRANCH   2   3
HETATM    3  C   UNL     1       8.779  -3.363  24.428  1.00  0.00    -0.043 C 
BRANCH   3   4
HETATM    4  C   UNL     1       8.043  -4.434  24.438  1.00  0.00     0.294 C 
HETATM    5  O   UNL     1       8.610  -5.402  24.240  1.00  0.00    -0.258 OA
HETATM    6  N   UNL     1       6.767  -4.162  24.708  1.00  0.00    -0.315 N 
ATOM      7  HN  UNL     1       6.458  -3.200  24.848  1.00  0.00     0.170 HD
BRANCH   6   8
HETATM    8  C   UNL     1       5.933  -5.132  24.789  1.00  0.00     0.057 A 
HETATM    9  C   UNL     1       5.152  -5.777  23.951  1.00  0.00     0.117 A 
HETATM   10  N   UNL     1       4.373  -6.631  23.623  1.00  0.00    -0.373 N 
HETATM   11  C   UNL     1       4.218  -7.095  24.909  1.00  0.00     0.088 A 
ATOM     12  HN  UNL     1       3.975  -6.907  22.725  1.00  0.00     0.164 HD
HETATM   13  C   UNL     1       4.787  -6.754  25.908  1.00  0.00     0.026 A 
HETATM   14  C   UNL     1       5.711  -5.833  26.153  1.00  0.00    -0.033 A 
HETATM   15  C   UNL     1       6.458  -5.453  27.511  1.00  0.00     0.050 C 
ENDBRANCH   6   8
ENDBRANCH   3   4
ENDBRANCH   2   3
BRANCH   2  16
HETATM   16  C   UNL     1       9.120  -1.253  25.348  1.00  0.00     0.021 C 
BRANCH  16  17
HETATM   17  C   UNL     1       9.404  -0.249  25.562  1.00  0.00     0.001 C 
BRANCH  17  18
HETATM   18  C   UNL     1      10.244   0.598  24.854  1.00  0.00    -0.001 C 
BRANCH  18  19
HETATM   19  C   UNL     1      11.467   0.126  24.735  1.00  0.00    -0.010 C 
HETATM   20  C   UNL     1      12.382   0.236  24.566  1.00  0.00     0.011 C 
ENDBRANCH  18  19
ENDBRANCH  17  18
ENDBRANCH  16  17
ENDBRANCH   2  16
BRANCH   1  21
HETATM   21  C   UNL     1       9.320  -1.610  21.895  1.00  0.00    -0.030 C 
BRANCH  21  22
HETATM   22  N   UNL     1       9.370  -0.781  21.078  1.00  0.00    -0.250 N 
ATOM     23  HN  UNL     1      10.250  -0.714  20.567  1.00  0.00     0.188 HD
BRANCH  22  24
HETATM   24  S   UNL     1       8.234   0.269  20.653  1.00  0.00     0.233 S 
HETATM   25  C   UNL     1       6.838  -0.236  21.497  1.00  0.00     0.186 C 
HETATM   26  O   UNL     1       8.592   1.579  21.111  1.00  0.00    -0.205 OA
HETATM   27  O   UNL     1       7.958   0.247  19.234  1.00  0.00    -0.205 OA
ENDBRANCH  22  24
ENDBRANCH  21  22
ENDBRANCH   1  21
TORSDOF 10
ENDMDL
MODEL 6
REMARK VINA RESULT:    -5.768      3.615      8.001
REMARK INTER + INTRA:         -10.589
REMARK INTER:                  -9.025
REMARK INTRA:                  -1.564
REMARK UNBOUND:                -1.448
REMARK  10 active torsions:
REMARK  status: ('A' for Active; 'I' for Inactive)
REMARK    1  A    between atoms: S_2  and  N_5 
REMARK    2  A    between atoms: N_5  and  C_7 
REMARK    3  A    between atoms: C_7  and  C_8 
REMARK    4  A    between atoms: C_9  and  C_15 
REMARK    5  A    between atoms: C_9  and  C_14 
REMARK    6  A    between atoms: C_11  and  C_12 
REMARK    7  A    between atoms: C_12  and  C_13 
REMARK    8  A    between atoms: C_13  and  C_14 
REMARK    9  A    between atoms: C_15  and  C_16 
REMARK       I    between atoms: C_16  and  N_18 
REMARK   10  A    between atoms: N_18  and  C_20 
ROOT
HETATM    1  C   UNL     1       7.436  -5.167  26.648  1.00  0.00     0.095 C 
HETATM    2  C   UNL     1       7.005  -4.793  25.516  1.00  0.00     0.024 C 
ENDROOT
BRANCH   2   3
HETATM    3  C   UNL     1       7.625  -3.812  25.225  1.00  0.00    -0.043 C 
BRANCH   3   4
HETATM    4  C   UNL     1       8.005  -2.736  24.602  1.00  0.00     0.294 C 
HETATM    5  O   UNL     1       7.880  -1.773  25.198  1.00  0.00    -0.258 OA
HETATM    6  N   UNL     1       8.491  -3.004  23.391  1.00  0.00    -0.315 N 
ATOM      7  HN  UNL     1       8.506  -3.960  23.037  1.00  0.00     0.170 HD
BRANCH   6   8
HETATM    8  C   UNL     1       8.941  -2.038  22.680  1.00  0.00     0.057 A 
HETATM    9  C   UNL     1      10.107  -1.454  22.510  1.00  0.00     0.117 A 
HETATM   10  N   UNL     1      10.878  -0.683  22.006  1.00  0.00    -0.373 N 
HETATM   11  C   UNL     1       9.898  -0.068  21.260  1.00  0.00     0.088 A 
ATOM     12  HN  UNL     1      11.884  -0.538  22.098  1.00  0.00     0.164 HD
HETATM   13  C   UNL     1       8.738  -0.354  21.157  1.00  0.00     0.026 A 
HETATM   14  C   UNL     1       7.987  -1.297  21.710  1.00  0.00    -0.033 A 
HETATM   15  C   UNL     1       6.443  -1.647  21.499  1.00  0.00     0.050 C 
ENDBRANCH   6   8
ENDBRANCH   3   4
ENDBRANCH   2   3
BRANCH   2  16
HETATM   16  C   UNL     1       5.750  -5.095  24.725  1.00  0.00     0.021 C 
BRANCH  16  17
HETATM   17  C   UNL     1       5.187  -4.705  23.911  1.00  0.00     0.001 C 
BRANCH  17  18
HETATM   18  C   UNL     1       5.299  -4.974  22.554  1.00  0.00    -0.001 C 
BRANCH  18  19
HETATM   19  C   UNL     1       6.387  -5.651  22.254  1.00  0.00    -0.010 C 
HETATM   20  C   UNL     1       7.067  -5.901  21.660  1.00  0.00     0.011 C 
ENDBRANCH  18  19
ENDBRANCH  17  18
ENDBRANCH  16  17
ENDBRANCH   2  16
BRANCH   1  21
HETATM   21  C   UNL     1       7.496  -5.778  27.653  1.00  0.00    -0.030 C 
BRANCH  21  22
HETATM   22  N   UNL     1       7.252  -6.564  28.479  1.00  0.00    -0.250 N 
ATOM     23  HN  UNL     1       7.773  -7.439  28.426  1.00  0.00     0.188 HD
BRANCH  22  24
HETATM   24  S   UNL     1       6.202  -6.448  29.687  1.00  0.00     0.233 S 
HETATM   25  C   UNL     1       4.700  -6.880  29.000  1.00  0.00     0.186 C 
HETATM   26  O   UNL     1       6.529  -7.404  30.703  1.00  0.00    -0.205 OA
HETATM   27  O   UNL     1       6.108  -5.106  30.215  1.00  0.00    -0.205 OA
ENDBRANCH  22  24
ENDBRANCH  21  22
ENDBRANCH   1  21
TORSDOF 10
ENDMDL
MODEL 7
REMARK VINA RESULT:    -5.759      3.948      6.993
REMARK INTER + INTRA:         -10.575
REMARK INTER:                  -9.275
REMARK INTRA:                  -1.299
REMARK UNBOUND:                -1.448
REMARK  10 active torsions:
REMARK  status: ('A' for Active; 'I' for Inactive)
REMARK    1  A    between atoms: S_2  and  N_5 
REMARK    2  A    between atoms: N_5  and  C_7 
REMARK    3  A    between atoms: C_7  and  C_8 
REMARK    4  A    between atoms: C_9  and  C_15 
REMARK    5  A    between atoms: C_9  and  C_14 
REMARK    6  A    between atoms: C_11  and  C_12 
REMARK    7  A    between atoms: C_12  and  C_13 
REMARK    8  A    between atoms: C_13  and  C_14 
REMARK    9  A    between atoms: C_15  and  C_16 
REMARK       I    between atoms: C_16  and  N_18 
REMARK   10  A    between atoms: N_18  and  C_20 
ROOT
HETATM    1  C   UNL     1       7.741   0.040  22.171  1.00  0.00     0.095 C 
HETATM    2  C   UNL     1       8.597   0.102  23.104  1.00  0.00     0.024 C 
ENDROOT
BRANCH   2   3
HETATM    3  C   UNL     1       8.784   1.265  23.315  1.00  0.00    -0.043 C 
BRANCH   3   4
HETATM    4  C   UNL     1       8.854   2.408  23.930  1.00  0.00     0.294 C 
HETATM    5  O   UNL     1       8.728   2.347  25.061  1.00  0.00    -0.258 OA
HETATM    6  N   UNL     1       9.088   3.415  23.090  1.00  0.00    -0.315 N 
ATOM      7  HN  UNL     1       9.160   3.249  22.086  1.00  0.00     0.170 HD
BRANCH   6   8
HETATM    8  C   UNL     1       9.221   4.597  23.566  1.00  0.00     0.057 A 
HETATM    9  C   UNL     1       8.408   5.564  23.931  1.00  0.00     0.117 A 
HETATM   10  N   UNL     1       8.126   6.636  24.395  1.00  0.00    -0.373 N 
HETATM   11  C   UNL     1       9.443   7.015  24.524  1.00  0.00     0.088 A 
ATOM     12  HN  UNL     1       7.241   7.094  24.613  1.00  0.00     0.164 HD
HETATM   13  C   UNL     1      10.436   6.377  24.308  1.00  0.00     0.026 A 
HETATM   14  C   UNL     1      10.639   5.145  23.861  1.00  0.00    -0.033 A 
HETATM   15  C   UNL     1      11.999   4.339  23.629  1.00  0.00     0.050 C 
ENDBRANCH   6   8
ENDBRANCH   3   4
ENDBRANCH   2   3
BRANCH   2  16
HETATM   16  C   UNL     1       9.589  -0.888  23.678  1.00  0.00     0.021 C 
BRANCH  16  17
HETATM   17  C   UNL     1      10.298  -1.612  23.352  1.00  0.00     0.001 C 
BRANCH  17  18
HETATM   18  C   UNL     1      11.624  -1.441  22.982  1.00  0.00    -0.001 C 
BRANCH  18  19
HETATM   19  C   UNL     1      12.284  -0.641  23.793  1.00  0.00    -0.010 C 
HETATM   20  C   UNL     1      13.068  -0.371  24.229  1.00  0.00     0.011 C 
ENDBRANCH  18  19
ENDBRANCH  17  18
ENDBRANCH  16  17
ENDBRANCH   2  16
BRANCH   1  21
HETATM   21  C   UNL     1       7.061  -0.434  21.334  1.00  0.00    -0.030 C 
BRANCH  21  22
HETATM   22  N   UNL     1       6.236  -0.542  20.518  1.00  0.00    -0.250 N 
ATOM     23  HN  UNL     1       5.415  -1.084  20.787  1.00  0.00     0.188 HD
BRANCH  22  24
HETATM   24  S   UNL     1       6.225   0.049  19.027  1.00  0.00     0.233 S 
HETATM   25  C   UNL     1       5.121   1.350  19.083  1.00  0.00     0.186 C 
HETATM   26  O   UNL     1       7.521   0.568  18.704  1.00  0.00    -0.205 OA
HETATM   27  O   UNL     1       5.767  -0.913  18.049  1.00  0.00    -0.205 OA
ENDBRANCH  22  24
ENDBRANCH  21  22
ENDBRANCH   1  21
TORSDOF 10
ENDMDL
MODEL 8
REMARK VINA RESULT:    -5.637      3.074      6.475
REMARK INTER + INTRA:         -10.381
REMARK INTER:                  -8.888
REMARK INTRA:                  -1.493
REMARK UNBOUND:                -1.448
REMARK  10 active torsions:
REMARK  status: ('A' for Active; 'I' for Inactive)
REMARK    1  A    between atoms: S_2  and  N_5 
REMARK    2  A    between atoms: N_5  and  C_7 
REMARK    3  A    between atoms: C_7  and  C_8 
REMARK    4  A    between atoms: C_9  and  C_15 
REMARK    5  A    between atoms: C_9  and  C_14 
REMARK    6  A    between atoms: C_11  and  C_12 
REMARK    7  A    between atoms: C_12  and  C_13 
REMARK    8  A    between atoms: C_13  and  C_14 
REMARK    9  A    between atoms: C_15  and  C_16 
REMARK       I    between atoms: C_16  and  N_18 
REMARK   10  A    between atoms: N_18  and  C_20 
ROOT
HETATM    1  C   UNL     1       8.322  -2.398  22.634  1.00  0.00     0.095 C 
HETATM    2  C   UNL     1       9.322  -1.621  22.694  1.00  0.00     0.024 C 
ENDROOT
BRANCH   2   3
HETATM    3  C   UNL     1       8.962  -0.570  22.248  1.00  0.00    -0.043 C 
BRANCH   3   4
HETATM    4  C   UNL     1       8.879   0.707  22.024  1.00  0.00     0.294 C 
HETATM    5  O   UNL     1       9.409   1.059  21.078  1.00  0.00    -0.258 OA
HETATM    6  N   UNL     1       8.155   1.332  22.951  1.00  0.00    -0.315 N 
ATOM      7  HN  UNL     1       7.766   0.817  23.741  1.00  0.00     0.170 HD
BRANCH   6   8
HETATM    8  C   UNL     1       7.956   2.593  22.832  1.00  0.00     0.057 A 
HETATM    9  C   UNL     1       8.591   3.686  23.193  1.00  0.00     0.117 A 
HETATM   10  N   UNL     1       8.778   4.871  23.248  1.00  0.00    -0.373 N 
HETATM   11  C   UNL     1       7.586   5.168  22.626  1.00  0.00     0.088 A 
ATOM     12  HN  UNL     1       9.536   5.444  23.618  1.00  0.00     0.164 HD
HETATM   13  C   UNL     1       6.777   4.420  22.152  1.00  0.00     0.026 A 
HETATM   14  C   UNL     1       6.704   3.098  22.072  1.00  0.00    -0.033 A 
HETATM   15  C   UNL     1       5.607   2.161  21.389  1.00  0.00     0.050 C 
ENDBRANCH   6   8
ENDBRANCH   3   4
ENDBRANCH   2   3
BRANCH   2  16
HETATM   16  C   UNL     1      10.811  -1.847  22.855  1.00  0.00     0.021 C 
BRANCH  16  17
HETATM   17  C   UNL     1      11.706  -1.294  23.012  1.00  0.00     0.001 C 
BRANCH  17  18
HETATM   18  C   UNL     1      12.083  -0.517  24.097  1.00  0.00    -0.001 C 
BRANCH  18  19
HETATM   19  C   UNL     1      11.923   0.773  23.885  1.00  0.00    -0.010 C 
HETATM   20  C   UNL     1      11.692   1.635  24.171  1.00  0.00     0.011 C 
ENDBRANCH  18  19
ENDBRANCH  17  18
ENDBRANCH  16  17
ENDBRANCH   2  16
BRANCH   1  21
HETATM   21  C   UNL     1       7.703  -3.398  22.693  1.00  0.00    -0.030 C 
BRANCH  21  22
HETATM   22  N   UNL     1       7.140  -4.318  23.135  1.00  0.00    -0.250 N 
ATOM     23  HN  UNL     1       7.167  -4.410  24.150  1.00  0.00     0.188 HD
BRANCH  22  24
HETATM   24  S   UNL     1       6.327  -5.459  22.351  1.00  0.00     0.233 S 
HETATM   25  C   UNL     1       5.182  -6.030  23.481  1.00  0.00     0.186 C 
HETATM   26  O   UNL     1       5.624  -4.878  21.247  1.00  0.00    -0.205 OA
HETATM   27  O   UNL     1       7.169  -6.559  21.940  1.00  0.00    -0.205 OA
ENDBRANCH  22  24
ENDBRANCH  21  22
ENDBRANCH   1  21
TORSDOF 10
ENDMDL
MODEL 9
REMARK VINA RESULT:    -5.623     13.649     16.843
REMARK INTER + INTRA:         -10.359
REMARK INTER:                  -9.115
REMARK INTRA:                  -1.244
REMARK UNBOUND:                -1.448
REMARK  10 active torsions:
REMARK  status: ('A' for Active; 'I' for Inactive)
REMARK    1  A    between atoms: S_2  and  N_5 
REMARK    2  A    between atoms: N_5  and  C_7 
REMARK    3  A    between atoms: C_7  and  C_8 
REMARK    4  A    between atoms: C_9  and  C_15 
REMARK    5  A    between atoms: C_9  and  C_14 
REMARK    6  A    between atoms: C_11  and  C_12 
REMARK    7  A    between atoms: C_12  and  C_13 
REMARK    8  A    between atoms: C_13  and  C_14 
REMARK    9  A    between atoms: C_15  and  C_16 
REMARK       I    between atoms: C_16  and  N_18 
REMARK   10  A    between atoms: N_18  and  C_20 
ROOT
HETATM    1  C   UNL     1      23.950  -3.015  23.678  1.00  0.00     0.095 C 
HETATM    2  C   UNL     1      23.611  -1.818  23.436  1.00  0.00     0.024 C 
ENDROOT
BRANCH   2   3
HETATM    3  C   UNL     1      23.599  -1.703  22.245  1.00  0.00    -0.043 C 
BRANCH   3   4
HETATM    4  C   UNL     1      23.183  -1.702  21.014  1.00  0.00     0.294 C 
HETATM    5  O   UNL     1      22.064  -1.881  20.890  1.00  0.00    -0.258 OA
HETATM    6  N   UNL     1      24.170  -1.460  20.152  1.00  0.00    -0.315 N 
ATOM      7  HN  UNL     1      25.127  -1.333  20.480  1.00  0.00     0.170 HD
BRANCH   6   8
HETATM    8  C   UNL     1      23.894  -1.390  18.902  1.00  0.00     0.057 A 
HETATM    9  C   UNL     1      23.498  -0.448  18.075  1.00  0.00     0.117 A 
HETATM   10  N   UNL     1      23.209   0.012  17.004  1.00  0.00    -0.373 N 
HETATM   11  C   UNL     1      23.309  -1.204  16.366  1.00  0.00     0.088 A 
ATOM     12  HN  UNL     1      22.976   0.953  16.686  1.00  0.00     0.164 HD
HETATM   13  C   UNL     1      23.663  -2.261  16.809  1.00  0.00     0.026 A 
HETATM   14  C   UNL     1      24.046  -2.652  18.017  1.00  0.00    -0.033 A 
HETATM   15  C   UNL     1      24.545  -4.079  18.533  1.00  0.00     0.050 C 
ENDBRANCH   6   8
ENDBRANCH   3   4
ENDBRANCH   2   3
BRANCH   2  16
HETATM   16  C   UNL     1      23.587  -0.552  24.267  1.00  0.00     0.021 C 
BRANCH  16  17
HETATM   17  C   UNL     1      23.037  -0.113  25.066  1.00  0.00     0.001 C 
BRANCH  17  18
HETATM   18  C   UNL     1      22.239  -0.720  26.024  1.00  0.00    -0.001 C 
BRANCH  18  19
HETATM   19  C   UNL     1      21.020  -0.968  25.594  1.00  0.00    -0.010 C 
HETATM   20  C   UNL     1      20.361  -1.549  25.268  1.00  0.00     0.011 C 
ENDBRANCH  18  19
ENDBRANCH  17  18
ENDBRANCH  16  17
ENDBRANCH   2  16
BRANCH   1  21
HETATM   21  C   UNL     1      24.275  -3.960  24.301  1.00  0.00    -0.030 C 
BRANCH  21  22
HETATM   22  N   UNL     1      24.626  -5.042  24.557  1.00  0.00    -0.250 N 
ATOM     23  HN  UNL     1      25.195  -5.503  23.847  1.00  0.00     0.188 HD
BRANCH  22  24
HETATM   24  S   UNL     1      24.328  -5.900  25.879  1.00  0.00     0.233 S 
HETATM   25  C   UNL     1      25.797  -5.881  26.749  1.00  0.00     0.186 C 
HETATM   26  O   UNL     1      23.326  -5.243  26.665  1.00  0.00    -0.205 OA
HETATM   27  O   UNL     1      23.975  -7.271  25.586  1.00  0.00    -0.205 OA
ENDBRANCH  22  24
ENDBRANCH  21  22
ENDBRANCH   1  21
TORSDOF 10
ENDMDL
