
 OpenBabel07202414163D

 46 48  0  0  0  0  0  0  0  0999 V2000
    1.2092    0.5878   -0.4611 C   0  0  0  0  0  0  0  0  0  0  0  0
    2.6602    0.2408   -0.2578 C   0  0  0  0  0  0  0  0  0  0  0  0
    3.5313    1.3596   -0.2918 C   0  0  0  0  0  0  0  0  0  0  0  0
    4.8906    1.2443   -0.0430 C   0  0  0  0  0  0  0  0  0  0  0  0
    5.4127   -0.0019    0.2475 C   0  0  0  0  0  0  0  0  0  0  0  0
    4.5740   -1.1262    0.2593 C   0  0  0  0  0  0  0  0  0  0  0  0
    3.1814   -1.0550   -0.0020 C   0  0  0  0  0  0  0  0  0  0  0  0
    2.4412   -2.3740    0.0120 C   0  0  0  0  0  0  0  0  0  0  0  0
    3.1044   -3.5057    0.3256 C   0  0  0  0  0  0  0  0  0  0  0  0
    4.5469   -3.5373    0.6021 C   0  0  0  0  0  0  0  0  0  0  0  0
    5.1150   -4.5937    0.8554 O   0  0  0  0  0  0  0  0  0  0  0  0
    5.1942   -2.3477    0.5493 N   0  0  0  0  0  0  0  0  0  0  0  0
    0.9567   -2.5753   -0.1452 C   0  0  0  0  0  0  0  0  0  0  0  0
    0.1402   -1.7636    0.2713 O   0  0  0  0  0  0  0  0  0  0  0  0
    0.5271   -3.7398   -0.7567 N   0  0  0  0  0  0  0  0  0  0  0  0
   -0.8985   -3.9175   -1.0043 C   0  0  0  0  0  0  0  0  0  0  0  0
   -1.3002   -5.3482   -1.3457 C   0  0  0  0  0  0  0  0  0  0  0  0
   -2.7169   -5.3855   -1.5617 O   0  0  0  0  0  0  0  0  0  0  0  0
   -3.2390   -6.5930   -1.9492 C   0  0  0  0  0  0  0  0  0  0  0  0
   -2.6688   -7.8068   -1.5268 C   0  0  0  0  0  0  0  0  0  0  0  0
   -3.2082   -9.0347   -1.9142 C   0  0  0  0  0  0  0  0  0  0  0  0
   -4.3344   -9.0707   -2.7162 C   0  0  0  0  0  0  0  0  0  0  0  0
   -4.9283   -7.8760   -3.1190 C   0  0  0  0  0  0  0  0  0  0  0  0
   -4.3993   -6.6298   -2.7422 C   0  0  0  0  0  0  0  0  0  0  0  0
   -5.1351   -5.5936   -3.2524 O   0  0  0  0  0  0  0  0  0  0  0  0
   -4.7589   -4.2598   -2.9552 C   0  0  0  0  0  0  0  0  0  0  0  0
    1.0711    1.6598   -0.6511 H   0  0  0  0  0  0  0  0  0  0  0  0
    0.6460    0.3980    0.4556 H   0  0  0  0  0  0  0  0  0  0  0  0
    0.7947    0.0655   -1.3265 H   0  0  0  0  0  0  0  0  0  0  0  0
    3.1351    2.3538   -0.5032 H   0  0  0  0  0  0  0  0  0  0  0  0
    5.5274    2.1243   -0.0578 H   0  0  0  0  0  0  0  0  0  0  0  0
    6.4740   -0.0887    0.4639 H   0  0  0  0  0  0  0  0  0  0  0  0
    2.6377   -4.4776    0.4289 H   0  0  0  0  0  0  0  0  0  0  0  0
    6.1819   -2.3864    0.7505 H   0  0  0  0  0  0  0  0  0  0  0  0
    1.1851   -4.3846   -1.1737 H   0  0  0  0  0  0  0  0  0  0  0  0
   -1.1861   -3.2355   -1.8123 H   0  0  0  0  0  0  0  0  0  0  0  0
   -1.4565   -3.5964   -0.1157 H   0  0  0  0  0  0  0  0  0  0  0  0
   -1.0153   -5.9821   -0.4997 H   0  0  0  0  0  0  0  0  0  0  0  0
   -0.7756   -5.6808   -2.2499 H   0  0  0  0  0  0  0  0  0  0  0  0
   -1.8076   -7.8357   -0.8684 H   0  0  0  0  0  0  0  0  0  0  0  0
   -2.7410   -9.9589   -1.5779 H   0  0  0  0  0  0  0  0  0  0  0  0
   -4.7602  -10.0224   -3.0216 H   0  0  0  0  0  0  0  0  0  0  0  0
   -5.8223   -7.9102   -3.7383 H   0  0  0  0  0  0  0  0  0  0  0  0
   -5.4576   -3.5995   -3.4809 H   0  0  0  0  0  0  0  0  0  0  0  0
   -3.7586   -4.0325   -3.3343 H   0  0  0  0  0  0  0  0  0  0  0  0
   -4.8541   -4.0490   -1.8860 H   0  0  0  0  0  0  0  0  0  0  0  0
  1  2  1  0  0  0  0
  1 27  1  0  0  0  0
  1 28  1  0  0  0  0
  1 29  1  0  0  0  0
  2  3  1  0  0  0  0
  2  7  2  0  0  0  0
  3  4  2  0  0  0  0
  3 30  1  0  0  0  0
  4  5  1  0  0  0  0
  4 31  1  0  0  0  0
  5  6  2  0  0  0  0
  5 32  1  0  0  0  0
  6  7  1  0  0  0  0
  6 12  1  0  0  0  0
  7  8  1  0  0  0  0
  8  9  2  0  0  0  0
  8 13  1  0  0  0  0
  9 10  1  0  0  0  0
  9 33  1  0  0  0  0
 10 11  2  0  0  0  0
 10 12  1  0  0  0  0
 12 34  1  0  0  0  0
 13 14  2  0  0  0  0
 13 15  1  0  0  0  0
 15 16  1  0  0  0  0
 15 35  1  0  0  0  0
 16 17  1  0  0  0  0
 16 36  1  0  0  0  0
 16 37  1  0  0  0  0
 17 18  1  0  0  0  0
 17 38  1  0  0  0  0
 17 39  1  0  0  0  0
 18 19  1  0  0  0  0
 19 20  1  0  0  0  0
 19 24  2  0  0  0  0
 20 21  2  0  0  0  0
 20 40  1  0  0  0  0
 21 22  1  0  0  0  0
 21 41  1  0  0  0  0
 22 23  2  0  0  0  0
 22 42  1  0  0  0  0
 23 24  1  0  0  0  0
 23 43  1  0  0  0  0
 24 25  1  0  0  0  0
 25 26  1  0  0  0  0
 26 44  1  0  0  0  0
 26 45  1  0  0  0  0
 26 46  1  0  0  0  0
M  END
$$$$
