REMARK  3 active torsions:
REMARK  status: ('A' for Active; 'I' for Inactive)
REMARK    1  A    between atoms: C_8  and  C_16 
REMARK    2  A    between atoms: C_8  and  N_13 
REMARK    3  A    between atoms: N_21  and  C_23 
ROOT
HETATM    1  C   UNL     1       7.409  -4.244  25.861  1.00  0.00     0.346 A 
HETATM    2  O   UNL     1       8.290  -4.736  25.243  1.00  0.00    -0.262 OA
HETATM    3  N   UNL     1       7.341  -3.562  24.899  1.00  0.00    -0.275 N 
ATOM      4  HN  UNL     1       6.965  -2.813  24.318  1.00  0.00     0.190 HD
ENDROOT
TORSDOF 3
