stable:False satoms:8 tatoms:24 sratio:0.3333333333333333
  -OEChem-07092417493D

 24 24  0     1  0  0  0  0  0999 V2000
    6.6324   -4.8298   26.4827 C   0  0  0  0  0  0  0  0  0  0  0  0
    8.1715   -4.3070   26.1182 S   0  0  0  0  0  0  0  0  0  0  0  0
    9.0327   -5.4853   26.0475 O   0  0  0  0  0  0  0  0  0  0  0  0
    8.6171   -3.4040   27.1590 O   0  0  0  0  0  0  0  0  0  0  0  0
    8.0671   -3.5754   24.7062 N   0  0  0  0  0  0  0  0  0  0  0  0
    8.9852   -2.9223   24.1364 C   0  0  0  0  0  0  0  0  0  0  0  0
    9.3988   -1.9693   23.4981 C   0  0  0  0  0  0  0  0  0  0  0  0
   10.2845   -1.1169   23.2927 C   0  0  2  0  0  0  0  0  0  0  0  0
   11.0496    0.0040   24.3267 C   0  0  0  0  0  0  0  0  0  0  0  0
   12.0503    0.2940   24.2637 C   0  0  0  0  0  0  0  0  0  0  0  0
   13.1510   -0.1573   23.4232 C   0  0  0  0  0  0  0  0  0  0  0  0
   12.7106   -1.2753   22.6149 C   0  0  0  0  0  0  0  0  0  0  0  0
   11.8383   -1.7556   22.4693 C   0  0  0  0  0  0  0  0  0  0  0  0
    9.7500   -0.5666   22.3552 C   0  0  0  0  0  0  0  0  0  0  0  0
    9.0816    0.0351   21.3633 C   0  0  0  0  0  0  0  0  0  0  0  0
    9.5197    0.9970   20.9386 O   0  0  0  0  0  0  0  0  0  0  0  0
    7.9467   -0.5727   21.0790 N   0  0  0  0  0  0  0  0  0  0  0  0
    7.1710   -0.1095   20.1856 C   0  0  0  0  0  0  0  0  0  0  0  0
    7.2414   -0.0309   18.8616 C   0  0  0  0  0  0  0  0  0  0  0  0
    6.8066    0.3142   17.7778 N   0  0  0  0  0  0  0  0  0  0  0  0
    5.6570    0.9071   18.2316 C   0  0  0  0  0  0  0  0  0  0  0  0
    5.2545    0.9984   19.3851 C   0  0  0  0  0  0  0  0  0  0  0  0
    5.8327    0.5485   20.5450 C   0  0  0  0  0  0  0  0  0  0  0  0
    5.3339    0.6896   22.0351 C   0  0  0  0  0  0  0  0  0  0  0  0
 20 21  2  0  0  0  0
 19 20  1  0  0  0  0
 21 22  1  0  0  0  0
 18 19  2  0  0  0  0
 22 23  2  0  0  0  0
 18 23  1  0  0  0  0
 17 18  1  0  0  0  0
 23 24  1  0  0  0  0
 15 16  2  0  0  0  0
 15 17  1  0  0  0  0
 14 15  1  0  0  0  0
  8 14  1  0  0  0  0
 12 13  2  0  0  0  0
 11 12  1  0  0  0  0
  7  8  1  0  0  0  0
  8  9  1  0  0  0  0
 10 11  1  0  0  0  0
  6  7  2  3  0  0  0
  5  6  1  0  0  0  0
  9 10  2  0  0  0  0
  2  5  1  0  0  0  0
  2  3  2  0  0  0  0
  1  2  1  0  0  0  0
  2  4  2  0  0  0  0
M  END
> <Shapegauss>
-284.963776

$$$$
