MODEL 1
REMARK VINA RESULT:    -6.447      0.000      0.000
REMARK INTER + INTRA:         -10.820
REMARK INTER:                  -9.651
REMARK INTRA:                  -1.169
REMARK UNBOUND:                -1.169
REMARK  10 active torsions:
REMARK  status: ('A' for Active; 'I' for Inactive)
REMARK    1  A    between atoms: S_2  and  N_5 
REMARK    2  A    between atoms: C_7  and  C_8 
REMARK    3  A    between atoms: C_8  and  C_9 
REMARK    4  A    between atoms: C_9  and  C_15 
REMARK    5  A    between atoms: C_9  and  C_10 
REMARK    6  A    between atoms: C_10  and  C_11 
REMARK    7  A    between atoms: C_11  and  C_12 
REMARK    8  A    between atoms: C_12  and  C_13 
REMARK    9  A    between atoms: C_15  and  C_16 
REMARK       I    between atoms: C_16  and  N_18 
REMARK   10  A    between atoms: N_18  and  C_20 
ROOT
HETATM    1  C   UNL     1       9.613  -1.140  23.436  1.00  0.00     0.108 C 
ENDROOT
BRANCH   1   2
HETATM    2  C   UNL     1       9.315  -2.344  23.329  1.00  0.00     0.011 C 
BRANCH   2   3
HETATM    3  C   UNL     1       8.467  -3.208  23.178  1.00  0.00     0.097 C 
HETATM    4  N   UNL     1       7.932  -4.152  22.534  1.00  0.00    -0.296 N 
ATOM      5  HN  UNL     1       8.559  -4.831  22.102  1.00  0.00     0.177 HD
BRANCH   4   6
HETATM    6  S   UNL     1       6.368  -4.383  22.329  1.00  0.00     0.226 S 
HETATM    7  C   UNL     1       6.223  -5.700  21.319  1.00  0.00     0.186 C 
HETATM    8  O   UNL     1       5.709  -4.718  23.590  1.00  0.00    -0.206 OA
HETATM    9  O   UNL     1       5.734  -3.241  21.703  1.00  0.00    -0.206 OA
ENDBRANCH   4   6
ENDBRANCH   2   3
ENDBRANCH   1   2
BRANCH   1  10
HETATM   10  C   UNL     1       9.084  -0.761  22.414  1.00  0.00    -0.071 C 
BRANCH  10  11
HETATM   11  C   UNL     1       8.555  -0.271  21.286  1.00  0.00     0.289 C 
HETATM   12  O   UNL     1       9.235   0.334  20.603  1.00  0.00    -0.259 OA
HETATM   13  N   UNL     1       7.264  -0.522  21.186  1.00  0.00    -0.315 N 
ATOM     14  HN  UNL     1       6.797  -1.064  21.913  1.00  0.00     0.170 HD
BRANCH  13  15
HETATM   15  C   UNL     1       6.597  -0.094  20.193  1.00  0.00     0.057 A 
HETATM   16  C   UNL     1       6.314  -0.593  18.995  1.00  0.00     0.117 A 
HETATM   17  N   UNL     1       5.816  -0.520  17.887  1.00  0.00    -0.373 N 
HETATM   18  C   UNL     1       5.292   0.740  18.015  1.00  0.00     0.088 A 
ATOM     19  HN  UNL     1       5.795  -1.183  17.111  1.00  0.00     0.164 HD
HETATM   20  C   UNL     1       5.336   1.485  18.986  1.00  0.00     0.026 A 
HETATM   21  C   UNL     1       5.923   1.283  20.209  1.00  0.00    -0.033 A 
HETATM   22  C   UNL     1       6.009   2.252  21.452  1.00  0.00     0.050 C 
ENDBRANCH  13  15
ENDBRANCH  10  11
ENDBRANCH   1  10
BRANCH   1  23
HETATM   23  C   UNL     1       9.399  -0.021  24.707  1.00  0.00    -0.010 C 
BRANCH  23  24
HETATM   24  C   UNL     1       9.863   0.911  24.772  1.00  0.00    -0.025 C 
BRANCH  24  25
HETATM   25  C   UNL     1       9.368   2.268  24.579  1.00  0.00     0.053 C 
BRANCH  25  26
HETATM   26  C   UNL     1      10.183   2.940  23.589  1.00  0.00    -0.033 C 
HETATM   27  C   UNL     1      11.142   3.246  23.535  1.00  0.00     0.007 C 
ENDBRANCH  25  26
ENDBRANCH  24  25
ENDBRANCH  23  24
ENDBRANCH   1  23
TORSDOF 10
ENDMDL
MODEL 2
REMARK VINA RESULT:    -6.211      2.306      2.771
REMARK INTER + INTRA:         -10.466
REMARK INTER:                  -9.726
REMARK INTRA:                  -0.740
REMARK UNBOUND:                -1.169
REMARK  10 active torsions:
REMARK  status: ('A' for Active; 'I' for Inactive)
REMARK    1  A    between atoms: S_2  and  N_5 
REMARK    2  A    between atoms: C_7  and  C_8 
REMARK    3  A    between atoms: C_8  and  C_9 
REMARK    4  A    between atoms: C_9  and  C_15 
REMARK    5  A    between atoms: C_9  and  C_10 
REMARK    6  A    between atoms: C_10  and  C_11 
REMARK    7  A    between atoms: C_11  and  C_12 
REMARK    8  A    between atoms: C_12  and  C_13 
REMARK    9  A    between atoms: C_15  and  C_16 
REMARK       I    between atoms: C_16  and  N_18 
REMARK   10  A    between atoms: N_18  and  C_20 
ROOT
HETATM    1  C   UNL     1       9.391  -1.599  23.508  1.00  0.00     0.108 C 
ENDROOT
BRANCH   1   2
HETATM    2  C   UNL     1       8.933  -2.704  23.853  1.00  0.00     0.011 C 
BRANCH   2   3
HETATM    3  C   UNL     1       8.229  -3.364  24.598  1.00  0.00     0.097 C 
HETATM    4  N   UNL     1       7.717  -3.616  25.725  1.00  0.00    -0.296 N 
ATOM      5  HN  UNL     1       7.374  -2.821  26.264  1.00  0.00     0.177 HD
BRANCH   4   6
HETATM    6  S   UNL     1       7.557  -5.058  26.384  1.00  0.00     0.226 S 
HETATM    7  C   UNL     1       6.120  -5.673  25.808  1.00  0.00     0.186 C 
HETATM    8  O   UNL     1       8.625  -5.961  25.960  1.00  0.00    -0.206 OA
HETATM    9  O   UNL     1       7.489  -4.983  27.828  1.00  0.00    -0.206 OA
ENDBRANCH   4   6
ENDBRANCH   2   3
ENDBRANCH   1   2
BRANCH   1  10
HETATM   10  C   UNL     1       8.505  -1.302  22.737  1.00  0.00    -0.071 C 
BRANCH  10  11
HETATM   11  C   UNL     1       7.488  -1.053  21.902  1.00  0.00     0.289 C 
HETATM   12  O   UNL     1       6.524  -1.638  22.056  1.00  0.00    -0.259 OA
HETATM   13  N   UNL     1       7.810  -0.188  20.961  1.00  0.00    -0.315 N 
ATOM     14  HN  UNL     1       8.742   0.229  20.954  1.00  0.00     0.170 HD
BRANCH  13  15
HETATM   15  C   UNL     1       6.971   0.132  20.062  1.00  0.00     0.057 A 
HETATM   16  C   UNL     1       6.675  -0.365  18.866  1.00  0.00     0.117 A 
HETATM   17  N   UNL     1       6.061  -0.351  17.815  1.00  0.00    -0.373 N 
HETATM   18  C   UNL     1       5.305   0.765  18.070  1.00  0.00     0.088 A 
ATOM     19  HN  UNL     1       6.097  -0.970  17.005  1.00  0.00     0.164 HD
HETATM   20  C   UNL     1       5.296   1.460  19.077  1.00  0.00     0.026 A 
HETATM   21  C   UNL     1       6.035   1.335  20.227  1.00  0.00    -0.033 A 
HETATM   22  C   UNL     1       6.048   2.247  21.514  1.00  0.00     0.050 C 
ENDBRANCH  13  15
ENDBRANCH  10  11
ENDBRANCH   1  10
BRANCH   1  23
HETATM   23  C   UNL     1       9.919  -0.250  24.411  1.00  0.00    -0.010 C 
BRANCH  23  24
HETATM   24  C   UNL     1      10.875  -0.131  24.810  1.00  0.00    -0.025 C 
BRANCH  24  25
HETATM   25  C   UNL     1      12.031   0.640  24.373  1.00  0.00     0.053 C 
BRANCH  25  26
HETATM   26  C   UNL     1      13.145  -0.256  24.139  1.00  0.00    -0.033 C 
HETATM   27  C   UNL     1      13.250  -1.193  23.783  1.00  0.00     0.007 C 
ENDBRANCH  25  26
ENDBRANCH  24  25
ENDBRANCH  23  24
ENDBRANCH   1  23
TORSDOF 10
ENDMDL
MODEL 3
REMARK VINA RESULT:    -6.186      2.793      5.161
REMARK INTER + INTRA:         -10.429
REMARK INTER:                  -9.478
REMARK INTRA:                  -0.950
REMARK UNBOUND:                -1.169
REMARK  10 active torsions:
REMARK  status: ('A' for Active; 'I' for Inactive)
REMARK    1  A    between atoms: S_2  and  N_5 
REMARK    2  A    between atoms: C_7  and  C_8 
REMARK    3  A    between atoms: C_8  and  C_9 
REMARK    4  A    between atoms: C_9  and  C_15 
REMARK    5  A    between atoms: C_9  and  C_10 
REMARK    6  A    between atoms: C_10  and  C_11 
REMARK    7  A    between atoms: C_11  and  C_12 
REMARK    8  A    between atoms: C_12  and  C_13 
REMARK    9  A    between atoms: C_15  and  C_16 
REMARK       I    between atoms: C_16  and  N_18 
REMARK   10  A    between atoms: N_18  and  C_20 
ROOT
HETATM    1  C   UNL     1       7.786  -2.656  24.152  1.00  0.00     0.108 C 
ENDROOT
BRANCH   1   2
HETATM    2  C   UNL     1       8.571  -1.883  24.732  1.00  0.00     0.011 C 
BRANCH   2   3
HETATM    3  C   UNL     1       9.667  -1.353  24.800  1.00  0.00     0.097 C 
HETATM    4  N   UNL     1      10.420  -0.352  24.957  1.00  0.00    -0.296 N 
ATOM      5  HN  UNL     1      10.166   0.306  25.694  1.00  0.00     0.177 HD
BRANCH   4   6
HETATM    6  S   UNL     1      11.729  -0.018  24.112  1.00  0.00     0.226 S 
HETATM    7  C   UNL     1      11.916  -1.273  23.032  1.00  0.00     0.186 C 
HETATM    8  O   UNL     1      11.566   1.211  23.337  1.00  0.00    -0.206 OA
HETATM    9  O   UNL     1      12.906   0.056  24.952  1.00  0.00    -0.206 OA
ENDBRANCH   4   6
ENDBRANCH   2   3
ENDBRANCH   1   2
BRANCH   1  10
HETATM   10  C   UNL     1       7.724  -2.051  23.104  1.00  0.00    -0.071 C 
BRANCH  10  11
HETATM   11  C   UNL     1       7.638  -1.460  21.906  1.00  0.00     0.289 C 
HETATM   12  O   UNL     1       8.611  -1.175  21.387  1.00  0.00    -0.259 OA
HETATM   13  N   UNL     1       6.390  -1.236  21.544  1.00  0.00    -0.315 N 
ATOM     14  HN  UNL     1       5.627  -1.538  22.149  1.00  0.00     0.170 HD
BRANCH  13  15
HETATM   15  C   UNL     1       6.130  -0.647  20.448  1.00  0.00     0.057 A 
HETATM   16  C   UNL     1       5.860  -1.074  19.220  1.00  0.00     0.117 A 
HETATM   17  N   UNL     1       5.622  -0.886  18.041  1.00  0.00    -0.373 N 
HETATM   18  C   UNL     1       5.658   0.485  18.073  1.00  0.00     0.088 A 
ATOM     19  HN  UNL     1       5.450  -1.537  17.275  1.00  0.00     0.164 HD
HETATM   20  C   UNL     1       5.853   1.215  19.036  1.00  0.00     0.026 A 
HETATM   21  C   UNL     1       6.099   0.882  20.344  1.00  0.00    -0.033 A 
HETATM   22  C   UNL     1       6.382   1.819  21.582  1.00  0.00     0.050 C 
ENDBRANCH  13  15
ENDBRANCH  10  11
ENDBRANCH   1  10
BRANCH   1  23
HETATM   23  C   UNL     1       7.823  -4.344  23.903  1.00  0.00    -0.010 C 
BRANCH  23  24
HETATM   24  C   UNL     1       7.323  -5.049  24.487  1.00  0.00    -0.025 C 
BRANCH  24  25
HETATM   25  C   UNL     1       5.925  -5.452  24.557  1.00  0.00     0.053 C 
BRANCH  25  26
HETATM   26  C   UNL     1       5.227  -4.969  23.384  1.00  0.00    -0.033 C 
HETATM   27  C   UNL     1       4.266  -4.783  23.145  1.00  0.00     0.007 C 
ENDBRANCH  25  26
ENDBRANCH  24  25
ENDBRANCH  23  24
ENDBRANCH   1  23
TORSDOF 10
ENDMDL
MODEL 4
REMARK VINA RESULT:    -5.986      2.935      6.832
REMARK INTER + INTRA:         -10.130
REMARK INTER:                  -9.283
REMARK INTRA:                  -0.847
REMARK UNBOUND:                -1.169
REMARK  10 active torsions:
REMARK  status: ('A' for Active; 'I' for Inactive)
REMARK    1  A    between atoms: S_2  and  N_5 
REMARK    2  A    between atoms: C_7  and  C_8 
REMARK    3  A    between atoms: C_8  and  C_9 
REMARK    4  A    between atoms: C_9  and  C_15 
REMARK    5  A    between atoms: C_9  and  C_10 
REMARK    6  A    between atoms: C_10  and  C_11 
REMARK    7  A    between atoms: C_11  and  C_12 
REMARK    8  A    between atoms: C_12  and  C_13 
REMARK    9  A    between atoms: C_15  and  C_16 
REMARK       I    between atoms: C_16  and  N_18 
REMARK   10  A    between atoms: N_18  and  C_20 
ROOT
HETATM    1  C   UNL     1       8.110  -0.322  20.591  1.00  0.00     0.108 C 
ENDROOT
BRANCH   1   2
HETATM    2  C   UNL     1       8.685   0.589  21.216  1.00  0.00     0.011 C 
BRANCH   2   3
HETATM    3  C   UNL     1       9.628   0.970  21.888  1.00  0.00     0.097 C 
HETATM    4  N   UNL     1      10.750   0.801  22.442  1.00  0.00    -0.296 N 
ATOM      5  HN  UNL     1      11.460   0.301  21.906  1.00  0.00     0.177 HD
BRANCH   4   6
HETATM    6  S   UNL     1      11.162   1.293  23.901  1.00  0.00     0.226 S 
HETATM    7  C   UNL     1      12.388   0.283  24.402  1.00  0.00     0.186 C 
HETATM    8  O   UNL     1      11.692   2.654  23.876  1.00  0.00    -0.206 OA
HETATM    9  O   UNL     1      10.059   1.187  24.834  1.00  0.00    -0.206 OA
ENDBRANCH   4   6
ENDBRANCH   2   3
ENDBRANCH   1   2
BRANCH   1  10
HETATM   10  C   UNL     1       7.756  -0.966  21.554  1.00  0.00    -0.071 C 
BRANCH  10  11
HETATM   11  C   UNL     1       7.431  -1.736  22.601  1.00  0.00     0.289 C 
HETATM   12  O   UNL     1       6.430  -1.543  23.107  1.00  0.00    -0.259 OA
HETATM   13  N   UNL     1       8.395  -2.575  22.927  1.00  0.00    -0.315 N 
ATOM     14  HN  UNL     1       9.252  -2.599  22.374  1.00  0.00     0.170 HD
BRANCH  13  15
HETATM   15  C   UNL     1       8.266  -3.353  23.923  1.00  0.00     0.057 A 
HETATM   16  C   UNL     1       8.532  -3.235  25.219  1.00  0.00     0.117 A 
HETATM   17  N   UNL     1       8.590  -3.676  26.352  1.00  0.00    -0.373 N 
HETATM   18  C   UNL     1       8.117  -4.933  26.074  1.00  0.00     0.088 A 
ATOM     19  HN  UNL     1       8.893  -3.249  27.227  1.00  0.00     0.164 HD
HETATM   20  C   UNL     1       7.750  -5.383  24.996  1.00  0.00     0.026 A 
HETATM   21  C   UNL     1       7.714  -4.775  23.766  1.00  0.00    -0.033 A 
HETATM   22  C   UNL     1       7.272  -5.361  22.370  1.00  0.00     0.050 C 
ENDBRANCH  13  15
ENDBRANCH  10  11
ENDBRANCH   1  10
BRANCH   1  23
HETATM   23  C   UNL     1       6.911  -0.293  19.377  1.00  0.00    -0.010 C 
BRANCH  23  24
HETATM   24  C   UNL     1       6.812   0.446  18.648  1.00  0.00    -0.025 C 
BRANCH  24  25
HETATM   25  C   UNL     1       5.648   1.123  18.090  1.00  0.00     0.053 C 
BRANCH  25  26
HETATM   26  C   UNL     1       4.970   1.856  19.139  1.00  0.00    -0.033 C 
HETATM   27  C   UNL     1       4.057   1.823  19.562  1.00  0.00     0.007 C 
ENDBRANCH  25  26
ENDBRANCH  24  25
ENDBRANCH  23  24
ENDBRANCH   1  23
TORSDOF 10
ENDMDL
MODEL 5
REMARK VINA RESULT:    -5.965      3.305      6.421
REMARK INTER + INTRA:         -10.098
REMARK INTER:                  -9.355
REMARK INTRA:                  -0.743
REMARK UNBOUND:                -1.169
REMARK  10 active torsions:
REMARK  status: ('A' for Active; 'I' for Inactive)
REMARK    1  A    between atoms: S_2  and  N_5 
REMARK    2  A    between atoms: C_7  and  C_8 
REMARK    3  A    between atoms: C_8  and  C_9 
REMARK    4  A    between atoms: C_9  and  C_15 
REMARK    5  A    between atoms: C_9  and  C_10 
REMARK    6  A    between atoms: C_10  and  C_11 
REMARK    7  A    between atoms: C_11  and  C_12 
REMARK    8  A    between atoms: C_12  and  C_13 
REMARK    9  A    between atoms: C_15  and  C_16 
REMARK       I    between atoms: C_16  and  N_18 
REMARK   10  A    between atoms: N_18  and  C_20 
ROOT
HETATM    1  C   UNL     1       7.952  -2.027  22.849  1.00  0.00     0.108 C 
ENDROOT
BRANCH   1   2
HETATM    2  C   UNL     1       7.236  -1.887  21.839  1.00  0.00     0.011 C 
BRANCH   2   3
HETATM    3  C   UNL     1       6.622  -1.159  21.079  1.00  0.00     0.097 C 
HETATM    4  N   UNL     1       5.795  -0.953  20.148  1.00  0.00    -0.296 N 
ATOM      5  HN  UNL     1       4.931  -1.495  20.169  1.00  0.00     0.177 HD
BRANCH   4   6
HETATM    6  S   UNL     1       5.973   0.072  18.940  1.00  0.00     0.226 S 
HETATM    7  C   UNL     1       4.938   1.339  19.253  1.00  0.00     0.186 C 
HETATM    8  O   UNL     1       7.330   0.611  18.893  1.00  0.00    -0.206 OA
HETATM    9  O   UNL     1       5.611  -0.525  17.671  1.00  0.00    -0.206 OA
ENDBRANCH   4   6
ENDBRANCH   2   3
ENDBRANCH   1   2
BRANCH   1  10
HETATM   10  C   UNL     1       7.462  -3.064  23.239  1.00  0.00    -0.071 C 
BRANCH  10  11
HETATM   11  C   UNL     1       6.986  -4.214  23.733  1.00  0.00     0.289 C 
HETATM   12  O   UNL     1       7.306  -5.180  23.222  1.00  0.00    -0.259 OA
HETATM   13  N   UNL     1       6.136  -4.023  24.722  1.00  0.00    -0.315 N 
ATOM     14  HN  UNL     1       5.938  -3.075  25.043  1.00  0.00     0.170 HD
BRANCH  13  15
HETATM   15  C   UNL     1       5.561  -5.010  25.280  1.00  0.00     0.057 A 
HETATM   16  C   UNL     1       5.858  -5.773  26.326  1.00  0.00     0.117 A 
HETATM   17  N   UNL     1       5.641  -6.708  27.074  1.00  0.00    -0.373 N 
HETATM   18  C   UNL     1       4.483  -7.141  26.480  1.00  0.00     0.088 A 
ATOM     19  HN  UNL     1       6.156  -7.058  27.882  1.00  0.00     0.164 HD
HETATM   20  C   UNL     1       3.902  -6.664  25.514  1.00  0.00     0.026 A 
HETATM   21  C   UNL     1       4.239  -5.577  24.747  1.00  0.00    -0.033 A 
HETATM   22  C   UNL     1       3.510  -4.977  23.483  1.00  0.00     0.050 C 
ENDBRANCH  13  15
ENDBRANCH  10  11
ENDBRANCH   1  10
BRANCH   1  23
HETATM   23  C   UNL     1       9.645  -2.013  23.058  1.00  0.00    -0.010 C 
BRANCH  23  24
HETATM   24  C   UNL     1      10.222  -1.163  23.238  1.00  0.00    -0.025 C 
BRANCH  24  25
HETATM   25  C   UNL     1      10.646  -0.506  24.468  1.00  0.00     0.053 C 
BRANCH  25  26
HETATM   26  C   UNL     1      12.088  -0.378  24.471  1.00  0.00    -0.033 C 
HETATM   27  C   UNL     1      12.748   0.314  24.153  1.00  0.00     0.007 C 
ENDBRANCH  25  26
ENDBRANCH  24  25
ENDBRANCH  23  24
ENDBRANCH   1  23
TORSDOF 10
ENDMDL
MODEL 6
REMARK VINA RESULT:    -5.958     14.735     16.316
REMARK INTER + INTRA:         -10.088
REMARK INTER:                  -9.621
REMARK INTRA:                  -0.466
REMARK UNBOUND:                -1.169
REMARK  10 active torsions:
REMARK  status: ('A' for Active; 'I' for Inactive)
REMARK    1  A    between atoms: S_2  and  N_5 
REMARK    2  A    between atoms: C_7  and  C_8 
REMARK    3  A    between atoms: C_8  and  C_9 
REMARK    4  A    between atoms: C_9  and  C_15 
REMARK    5  A    between atoms: C_9  and  C_10 
REMARK    6  A    between atoms: C_10  and  C_11 
REMARK    7  A    between atoms: C_11  and  C_12 
REMARK    8  A    between atoms: C_12  and  C_13 
REMARK    9  A    between atoms: C_15  and  C_16 
REMARK       I    between atoms: C_16  and  N_18 
REMARK   10  A    between atoms: N_18  and  C_20 
ROOT
HETATM    1  C   UNL     1      24.185  -2.005  23.631  1.00  0.00     0.108 C 
ENDROOT
BRANCH   1   2
HETATM    2  C   UNL     1      23.909  -3.207  23.807  1.00  0.00     0.011 C 
BRANCH   2   3
HETATM    3  C   UNL     1      24.272  -4.343  24.062  1.00  0.00     0.097 C 
HETATM    4  N   UNL     1      24.166  -5.598  23.977  1.00  0.00    -0.296 N 
ATOM      5  HN  UNL     1      23.939  -5.982  23.060  1.00  0.00     0.177 HD
BRANCH   4   6
HETATM    6  S   UNL     1      24.355  -6.640  25.169  1.00  0.00     0.226 S 
HETATM    7  C   UNL     1      25.988  -6.677  25.498  1.00  0.00     0.186 C 
HETATM    8  O   UNL     1      23.670  -6.195  26.381  1.00  0.00    -0.206 OA
HETATM    9  O   UNL     1      23.924  -7.970  24.792  1.00  0.00    -0.206 OA
ENDBRANCH   4   6
ENDBRANCH   2   3
ENDBRANCH   1   2
BRANCH   1  10
HETATM   10  C   UNL     1      23.785  -1.923  22.491  1.00  0.00    -0.071 C 
BRANCH  10  11
HETATM   11  C   UNL     1      23.280  -1.775  21.260  1.00  0.00     0.289 C 
HETATM   12  O   UNL     1      22.147  -1.821  21.144  1.00  0.00    -0.259 OA
HETATM   13  N   UNL     1      24.218  -1.667  20.340  1.00  0.00    -0.315 N 
ATOM     14  HN  UNL     1      25.200  -1.670  20.617  1.00  0.00     0.170 HD
BRANCH  13  15
HETATM   15  C   UNL     1      23.911  -1.557  19.112  1.00  0.00     0.057 A 
HETATM   16  C   UNL     1      23.443  -0.560  18.369  1.00  0.00     0.117 A 
HETATM   17  N   UNL     1      23.035  -0.097  17.320  1.00  0.00    -0.373 N 
HETATM   18  C   UNL     1      23.156  -1.237  16.568  1.00  0.00     0.088 A 
ATOM     19  HN  UNL     1      22.708   0.838  17.078  1.00  0.00     0.164 HD
HETATM   20  C   UNL     1      23.575  -2.334  16.916  1.00  0.00     0.026 A 
HETATM   21  C   UNL     1      24.032  -2.741  18.144  1.00  0.00    -0.033 A 
HETATM   22  C   UNL     1      24.544  -4.160  18.604  1.00  0.00     0.050 C 
ENDBRANCH  13  15
ENDBRANCH  10  11
ENDBRANCH   1  10
BRANCH   1  23
HETATM   23  C   UNL     1      23.811  -0.605  24.532  1.00  0.00    -0.010 C 
BRANCH  23  24
HETATM   24  C   UNL     1      23.048   0.069  24.306  1.00  0.00    -0.025 C 
BRANCH  24  25
HETATM   25  C   UNL     1      21.737   0.302  24.898  1.00  0.00     0.053 C 
BRANCH  25  26
HETATM   26  C   UNL     1      21.221  -0.943  25.427  1.00  0.00    -0.033 C 
HETATM   27  C   UNL     1      20.441  -1.544  25.216  1.00  0.00     0.007 C 
ENDBRANCH  25  26
ENDBRANCH  24  25
ENDBRANCH  23  24
ENDBRANCH   1  23
TORSDOF 10
ENDMDL
MODEL 7
REMARK VINA RESULT:    -5.918     14.672     16.284
REMARK INTER + INTRA:         -10.027
REMARK INTER:                  -9.082
REMARK INTRA:                  -0.945
REMARK UNBOUND:                -1.169
REMARK  10 active torsions:
REMARK  status: ('A' for Active; 'I' for Inactive)
REMARK    1  A    between atoms: S_2  and  N_5 
REMARK    2  A    between atoms: C_7  and  C_8 
REMARK    3  A    between atoms: C_8  and  C_9 
REMARK    4  A    between atoms: C_9  and  C_15 
REMARK    5  A    between atoms: C_9  and  C_10 
REMARK    6  A    between atoms: C_10  and  C_11 
REMARK    7  A    between atoms: C_11  and  C_12 
REMARK    8  A    between atoms: C_12  and  C_13 
REMARK    9  A    between atoms: C_15  and  C_16 
REMARK       I    between atoms: C_16  and  N_18 
REMARK   10  A    between atoms: N_18  and  C_20 
ROOT
HETATM    1  C   UNL     1      24.000  -1.572  23.238  1.00  0.00     0.108 C 
ENDROOT
BRANCH   1   2
HETATM    2  C   UNL     1      23.732  -2.709  23.668  1.00  0.00     0.011 C 
BRANCH   2   3
HETATM    3  C   UNL     1      24.107  -3.812  24.028  1.00  0.00     0.097 C 
HETATM    4  N   UNL     1      24.090  -5.074  23.974  1.00  0.00    -0.296 N 
ATOM      5  HN  UNL     1      24.055  -5.497  23.047  1.00  0.00     0.177 HD
BRANCH   4   6
HETATM    6  S   UNL     1      24.119  -6.068  25.220  1.00  0.00     0.226 S 
HETATM    7  C   UNL     1      25.674  -6.021  25.814  1.00  0.00     0.186 C 
HETATM    8  O   UNL     1      23.225  -5.617  26.284  1.00  0.00    -0.206 OA
HETATM    9  O   UNL     1      23.809  -7.428  24.828  1.00  0.00    -0.206 OA
ENDBRANCH   4   6
ENDBRANCH   2   3
ENDBRANCH   1   2
BRANCH   1  10
HETATM   10  C   UNL     1      23.596  -1.738  22.108  1.00  0.00    -0.071 C 
BRANCH  10  11
HETATM   11  C   UNL     1      23.230  -1.895  20.830  1.00  0.00     0.289 C 
HETATM   12  O   UNL     1      22.117  -1.988  20.607  1.00  0.00    -0.259 OA
HETATM   13  N   UNL     1      24.264  -1.989  20.018  1.00  0.00    -0.315 N 
ATOM     14  HN  UNL     1      25.210  -1.908  20.393  1.00  0.00     0.170 HD
BRANCH  13  15
HETATM   15  C   UNL     1      24.095  -2.178  18.773  1.00  0.00     0.057 A 
HETATM   16  C   UNL     1      24.032  -3.265  18.012  1.00  0.00     0.117 A 
HETATM   17  N   UNL     1      23.934  -3.821  16.933  1.00  0.00    -0.373 N 
HETATM   18  C   UNL     1      23.830  -2.691  16.163  1.00  0.00     0.088 A 
ATOM     19  HN  UNL     1      23.931  -4.810  16.682  1.00  0.00     0.164 HD
HETATM   20  C   UNL     1      23.824  -1.523  16.529  1.00  0.00     0.026 A 
HETATM   21  C   UNL     1      23.926  -1.008  17.796  1.00  0.00    -0.033 A 
HETATM   22  C   UNL     1      23.949   0.497  18.269  1.00  0.00     0.050 C 
ENDBRANCH  13  15
ENDBRANCH  10  11
ENDBRANCH   1  10
BRANCH   1  23
HETATM   23  C   UNL     1      23.618  -0.013  23.819  1.00  0.00    -0.010 C 
BRANCH  23  24
HETATM   24  C   UNL     1      23.176   0.193  24.741  1.00  0.00    -0.025 C 
BRANCH  24  25
HETATM   25  C   UNL     1      21.794   0.434  25.134  1.00  0.00     0.053 C 
BRANCH  25  26
HETATM   26  C   UNL     1      21.189  -0.813  25.551  1.00  0.00    -0.033 C 
HETATM   27  C   UNL     1      20.522  -1.456  25.155  1.00  0.00     0.007 C 
ENDBRANCH  25  26
ENDBRANCH  24  25
ENDBRANCH  23  24
ENDBRANCH   1  23
TORSDOF 10
ENDMDL
MODEL 8
REMARK VINA RESULT:    -5.798      1.580      2.160
REMARK INTER + INTRA:          -9.848
REMARK INTER:                  -9.083
REMARK INTRA:                  -0.764
REMARK UNBOUND:                -1.169
REMARK  10 active torsions:
REMARK  status: ('A' for Active; 'I' for Inactive)
REMARK    1  A    between atoms: S_2  and  N_5 
REMARK    2  A    between atoms: C_7  and  C_8 
REMARK    3  A    between atoms: C_8  and  C_9 
REMARK    4  A    between atoms: C_9  and  C_15 
REMARK    5  A    between atoms: C_9  and  C_10 
REMARK    6  A    between atoms: C_10  and  C_11 
REMARK    7  A    between atoms: C_11  and  C_12 
REMARK    8  A    between atoms: C_12  and  C_13 
REMARK    9  A    between atoms: C_15  and  C_16 
REMARK       I    between atoms: C_16  and  N_18 
REMARK   10  A    between atoms: N_18  and  C_20 
ROOT
HETATM    1  C   UNL     1       9.527  -1.222  22.591  1.00  0.00     0.108 C 
ENDROOT
BRANCH   1   2
HETATM    2  C   UNL     1       8.866  -2.227  22.269  1.00  0.00     0.011 C 
BRANCH   2   3
HETATM    3  C   UNL     1       8.018  -3.060  22.543  1.00  0.00     0.097 C 
HETATM    4  N   UNL     1       7.650  -4.167  23.025  1.00  0.00    -0.296 N 
ATOM      5  HN  UNL     1       8.072  -4.449  23.910  1.00  0.00     0.177 HD
BRANCH   4   6
HETATM    6  S   UNL     1       6.589  -5.167  22.381  1.00  0.00     0.226 S 
HETATM    7  C   UNL     1       5.691  -5.769  23.648  1.00  0.00     0.186 C 
HETATM    8  O   UNL     1       5.672  -4.467  21.483  1.00  0.00    -0.206 OA
HETATM    9  O   UNL     1       7.235  -6.270  21.700  1.00  0.00    -0.206 OA
ENDBRANCH   4   6
ENDBRANCH   2   3
ENDBRANCH   1   2
BRANCH   1  10
HETATM   10  C   UNL     1       8.874  -0.408  21.977  1.00  0.00    -0.071 C 
BRANCH  10  11
HETATM   11  C   UNL     1       8.118   0.520  21.377  1.00  0.00     0.289 C 
HETATM   12  O   UNL     1       8.621   1.495  21.070  1.00  0.00    -0.259 OA
HETATM   13  N   UNL     1       6.850   0.165  21.300  1.00  0.00    -0.315 N 
ATOM     14  HN  UNL     1       6.560  -0.748  21.653  1.00  0.00     0.170 HD
BRANCH  13  15
HETATM   15  C   UNL     1       5.988   0.947  20.792  1.00  0.00     0.057 A 
HETATM   16  C   UNL     1       5.324   2.002  21.252  1.00  0.00     0.117 A 
HETATM   17  N   UNL     1       4.501   2.892  21.136  1.00  0.00    -0.373 N 
HETATM   18  C   UNL     1       4.110   2.601  19.854  1.00  0.00     0.088 A 
ATOM     19  HN  UNL     1       4.199   3.619  21.784  1.00  0.00     0.164 HD
HETATM   20  C   UNL     1       4.526   1.717  19.116  1.00  0.00     0.026 A 
HETATM   21  C   UNL     1       5.485   0.766  19.355  1.00  0.00    -0.033 A 
HETATM   22  C   UNL     1       6.002  -0.394  18.418  1.00  0.00     0.050 C 
ENDBRANCH  13  15
ENDBRANCH  10  11
ENDBRANCH   1  10
BRANCH   1  23
HETATM   23  C   UNL     1      10.019  -0.618  24.110  1.00  0.00    -0.010 C 
BRANCH  23  24
HETATM   24  C   UNL     1      11.006  -0.547  24.438  1.00  0.00    -0.025 C 
BRANCH  24  25
HETATM   25  C   UNL     1      11.942   0.568  24.496  1.00  0.00     0.053 C 
BRANCH  25  26
HETATM   26  C   UNL     1      11.455   1.648  23.664  1.00  0.00    -0.033 C 
HETATM   27  C   UNL     1      11.163   2.600  23.821  1.00  0.00     0.007 C 
ENDBRANCH  25  26
ENDBRANCH  24  25
ENDBRANCH  23  24
ENDBRANCH   1  23
TORSDOF 10
ENDMDL
MODEL 9
REMARK VINA RESULT:    -5.747      2.875      5.603
REMARK INTER + INTRA:          -9.771
REMARK INTER:                  -8.922
REMARK INTRA:                  -0.849
REMARK UNBOUND:                -1.169
REMARK  10 active torsions:
REMARK  status: ('A' for Active; 'I' for Inactive)
REMARK    1  A    between atoms: S_2  and  N_5 
REMARK    2  A    between atoms: C_7  and  C_8 
REMARK    3  A    between atoms: C_8  and  C_9 
REMARK    4  A    between atoms: C_9  and  C_15 
REMARK    5  A    between atoms: C_9  and  C_10 
REMARK    6  A    between atoms: C_10  and  C_11 
REMARK    7  A    between atoms: C_11  and  C_12 
REMARK    8  A    between atoms: C_12  and  C_13 
REMARK    9  A    between atoms: C_15  and  C_16 
REMARK       I    between atoms: C_16  and  N_18 
REMARK   10  A    between atoms: N_18  and  C_20 
ROOT
HETATM    1  C   UNL     1       8.479  -0.655  23.707  1.00  0.00     0.108 C 
ENDROOT
BRANCH   1   2
HETATM    2  C   UNL     1       8.368  -0.205  22.551  1.00  0.00     0.011 C 
BRANCH   2   3
HETATM    3  C   UNL     1       7.679   0.302  21.682  1.00  0.00     0.097 C 
HETATM    4  N   UNL     1       6.568   0.556  21.140  1.00  0.00    -0.296 N 
ATOM      5  HN  UNL     1       5.798   0.808  21.759  1.00  0.00     0.177 HD
BRANCH   4   6
HETATM    6  S   UNL     1       6.255   0.520  19.577  1.00  0.00     0.226 S 
HETATM    7  C   UNL     1       5.566  -0.967  19.277  1.00  0.00     0.186 C 
HETATM    8  O   UNL     1       5.279   1.542  19.204  1.00  0.00    -0.206 OA
HETATM    9  O   UNL     1       7.461   0.645  18.785  1.00  0.00    -0.206 OA
ENDBRANCH   4   6
ENDBRANCH   2   3
ENDBRANCH   1   2
BRANCH   1  10
HETATM   10  C   UNL     1       7.951  -1.726  23.503  1.00  0.00    -0.071 C 
BRANCH  10  11
HETATM   11  C   UNL     1       7.401  -2.938  23.356  1.00  0.00     0.289 C 
HETATM   12  O   UNL     1       7.815  -3.610  22.535  1.00  0.00    -0.259 OA
HETATM   13  N   UNL     1       6.386  -3.133  24.174  1.00  0.00    -0.315 N 
ATOM     14  HN  UNL     1       6.127  -2.405  24.841  1.00  0.00     0.170 HD
BRANCH  13  15
HETATM   15  C   UNL     1       5.726  -4.218  24.139  1.00  0.00     0.057 A 
HETATM   16  C   UNL     1       4.734  -4.665  23.377  1.00  0.00     0.117 A 
HETATM   17  N   UNL     1       3.905  -5.500  23.067  1.00  0.00    -0.373 N 
HETATM   18  C   UNL     1       4.220  -6.424  24.030  1.00  0.00     0.088 A 
ATOM     19  HN  UNL     1       3.202  -5.510  22.328  1.00  0.00     0.164 HD
HETATM   20  C   UNL     1       5.095  -6.360  24.885  1.00  0.00     0.026 A 
HETATM   21  C   UNL     1       5.996  -5.356  25.132  1.00  0.00    -0.033 A 
HETATM   22  C   UNL     1       7.104  -5.256  26.251  1.00  0.00     0.050 C 
ENDBRANCH  13  15
ENDBRANCH  10  11
ENDBRANCH   1  10
BRANCH   1  23
HETATM   23  C   UNL     1       9.822  -0.804  24.750  1.00  0.00    -0.010 C 
BRANCH  23  24
HETATM   24  C   UNL     1      10.365  -0.008  25.149  1.00  0.00    -0.025 C 
BRANCH  24  25
HETATM   25  C   UNL     1      11.588   0.658  24.721  1.00  0.00     0.053 C 
BRANCH  25  26
HETATM   26  C   UNL     1      12.447  -0.298  24.054  1.00  0.00    -0.033 C 
HETATM   27  C   UNL     1      13.382  -0.645  24.196  1.00  0.00     0.007 C 
ENDBRANCH  25  26
ENDBRANCH  24  25
ENDBRANCH  23  24
ENDBRANCH   1  23
TORSDOF 10
ENDMDL
