stable:False satoms:21 tatoms:24 sratio:0.875
  -OEChem-07092417313D

 24 24  0     1  0  0  0  0  0999 V2000
    9.7265   -1.6701   25.3910 H   0  0  0  0  0  0  0  0  0  0  0  0
    6.6969   -3.0556   22.6813 Cl  0  0  0  0  0  0  0  0  0  0  0  0
    9.0449   -1.8005   24.5699 C   0  0  0  0  0  0  0  0  0  0  0  0
    9.5837   -2.8514   23.6267 C   0  0  0  0  0  0  0  0  0  0  0  0
    7.9474   -2.3992   21.7786 C   0  0  0  0  0  0  0  0  0  0  0  0
    8.7746   -0.5547   23.7521 C   0  0  0  0  0  0  0  0  0  0  0  0
    7.1102    0.1654   24.8960 H   0  0  0  0  0  0  0  0  0  0  0  0
    9.3247    1.6904   22.0050 H   0  0  0  0  0  0  0  0  0  0  0  0
   10.6577   -2.9122   23.7232 H   0  0  0  0  0  0  0  0  0  0  0  0
    8.1142   -2.0771   25.0324 H   0  0  0  0  0  0  0  0  0  0  0  0
   11.1282   -2.0382   21.2671 H   0  0  0  0  0  0  0  0  0  0  0  0
   10.0646   -1.9969   21.1876 C   0  0  0  0  0  0  0  0  0  0  0  0
    9.4792    0.0260   22.8634 C   0  0  0  0  0  0  0  0  0  0  0  0
    9.1440   -3.8086   23.8145 H   0  0  0  0  0  0  0  0  0  0  0  0
   10.2659    0.5391   21.1345 H   0  0  0  0  0  0  0  0  0  0  0  0
    9.2487   -2.4537   22.1897 C   0  0  0  0  0  0  0  0  0  0  0  0
    9.6910    0.7721   21.9004 N   0  0  0  0  0  0  0  0  0  0  0  0
    7.4819    0.1394   23.8925 C   0  0  0  0  0  0  0  0  0  0  0  0
    9.2085   -1.4497   20.1665 C   0  0  0  0  0  0  0  0  0  0  0  0
    9.5714   -0.9212   19.3049 H   0  0  0  0  0  0  0  0  0  0  0  0
    7.0524   -1.2147   20.0075 H   0  0  0  0  0  0  0  0  0  0  0  0
    7.9092   -1.6285   20.5241 C   0  5  3  0  0  0  0  0  0  0  0  0
    6.7285    0.7084   23.1093 C   0  0  0  0  0  0  0  0  0  0  0  0
    5.6297    1.5014   22.4785 Cl  0  0  0  0  0  0  0  0  0  0  0  0
 19 20  1  0  0  0  0
 21 22  1  0  0  0  0
 19 22  1  0  0  0  0
 12 19  2  0  0  0  0
  5 22  1  0  0  0  0
 15 17  1  0  0  0  0
 11 12  1  0  0  0  0
 12 16  1  0  0  0  0
  5 16  2  0  0  0  0
  2  5  1  0  0  0  0
  8 17  1  0  0  0  0
 13 17  1  0  0  0  0
  4 16  1  0  0  0  0
 23 24  1  0  0  0  0
  6 13  2  0  0  0  0
 18 23  2  0  0  0  0
  4  9  1  0  0  0  0
  4 14  1  0  0  0  0
  3  4  1  0  0  0  0
  6 18  1  0  0  0  0
  3  6  1  0  0  0  0
  7 18  1  0  0  0  0
  3 10  1  0  0  0  0
  1  3  1  0  0  0  0
M  CHG  1  22  -1
M  END
> <Shapegauss>
-102.300781

$$$$
