stable:False satoms:21 tatoms:24 sratio:0.875
  -OEChem-08052421263D

 28 28  0     1  0  0  0  0  0999 V2000
  -12.3374    2.2742  -23.0947 H   0  0  0  0  0  0  0  0  0  0  0  0
   -9.8234    0.0031  -25.7333 Cl  0  0  0  0  0  0  0  0  0  0  0  0
  -11.5996    1.6199  -23.5228 C   0  0  0  0  0  0  0  0  0  0  0  0
  -12.2504    0.3155  -23.9219 C   0  0  0  0  0  0  0  0  0  0  0  0
  -10.1080   -0.9154  -24.3604 C   0  0  0  0  0  0  0  0  0  0  0  0
  -10.4322    1.2847  -22.6180 C   0  0  0  0  0  0  0  0  0  0  0  0
   -9.1704    2.9231  -23.1842 H   0  0  0  0  0  0  0  0  0  0  0  0
  -10.4151   -0.5590  -20.1241 H   0  0  0  0  0  0  0  0  0  0  0  0
  -13.1381    0.1539  -23.3282 H   0  0  0  0  0  0  0  0  0  0  0  0
  -11.1998    2.1711  -24.3553 H   0  0  0  0  0  0  0  0  0  0  0  0
  -12.1649   -1.9765  -22.0904 H   0  0  0  0  0  0  0  0  0  0  0  0
  -11.3017   -1.8071  -22.6950 C   0  0  0  0  0  0  0  0  0  0  0  0
  -10.3454    0.4756  -21.6376 C   0  0  0  0  0  0  0  0  0  0  0  0
  -12.4983    0.3038  -24.9627 H   0  0  0  0  0  0  0  0  0  0  0  0
   -9.3884   -1.0335  -21.3062 H   0  0  0  0  0  0  0  0  0  0  0  0
  -11.2761   -0.8318  -23.6576 C   0  0  0  0  0  0  0  0  0  0  0  0
   -9.7663   -0.2468  -20.8180 N   0  3  0  0  0  0  0  0  0  0  0  0
   -9.1174    1.9008  -22.8712 C   0  0  0  0  0  0  0  0  0  0  0  0
   -9.9936   -2.4100  -22.6740 C   0  0  0  0  0  0  0  0  0  0  0  0
   -9.6833   -3.1350  -21.9449 H   0  0  0  0  0  0  0  0  0  0  0  0
   -8.3772   -1.3053  -23.1928 H   0  0  0  0  0  0  0  0  0  0  0  0
   -9.2224   -1.8475  -23.6418 C   0  0  3  0  0  0  0  0  0  0  0  0
   -7.9593    1.5034  -22.7963 C   0  0  0  0  0  0  0  0  0  0  0  0
   -6.4692    1.3888  -22.7710 Cl  0  0  0  0  0  0  0  0  0  0  0  0
  -11.3812    0.3441  -21.3615 H   0  0  0  0  0  0  0  0  0  0  0  0
   -8.8408   -2.6196  -24.3262 H   0  0  0  0  0  0  0  0  0  0  0  0
   -8.1815    0.4629  -22.6105 H   0  0  0  0  0  0  0  0  0  0  0  0
   -9.0282    0.2648  -20.3781 H   0  0  0  0  0  0  0  0  0  0  0  0
 19 20  1  0  0  0  0
 21 22  1  0  0  0  0
 19 22  1  0  0  0  0
 12 19  2  0  0  0  0
  5 22  1  0  0  0  0
 15 17  1  0  0  0  0
 11 12  1  0  0  0  0
 12 16  1  0  0  0  0
  5 16  2  0  0  0  0
  2  5  1  0  0  0  0
  8 17  1  0  0  0  0
 13 17  1  0  0  0  0
  4 16  1  0  0  0  0
 23 24  1  0  0  0  0
  6 13  2  0  0  0  0
 18 23  2  0  0  0  0
  4  9  1  0  0  0  0
  4 14  1  0  0  0  0
  3  4  1  0  0  0  0
  6 18  1  0  0  0  0
  3  6  1  0  0  0  0
  7 18  1  0  0  0  0
  3 10  1  0  0  0  0
  1  3  1  0  0  0  0
 13 25  1  0  0  0  0
 22 26  1  0  0  0  0
 23 27  1  0  0  0  0
 17 28  1  0  0  0  0
M  CHG  1  17   1
M  END
> <Chemgauss4>
-6.961478

$$$$
