stable:False satoms:20 tatoms:24 sratio:0.8333333333333334
  -OEChem-07092417303D

 24 23  0     0  0  0  0  0  0999 V2000
    9.8299   -0.8900   23.8033 H   0  0  0  0  0  0  0  0  0  0  0  0
   10.4834   -0.6378   21.4197 O   0  0  0  0  0  0  0  0  0  0  0  0
    8.6581   -0.6383   26.1055 H   0  0  0  0  0  0  0  0  0  0  0  0
   11.4345    1.1548   21.2932 H   0  0  0  0  0  0  0  0  0  0  0  0
    6.1170   -4.1404   21.5887 H   0  0  0  0  0  0  0  0  0  0  0  0
    7.2159   -3.7858   20.2388 H   0  0  0  0  0  0  0  0  0  0  0  0
    9.9470    1.4201   22.5996 O   0  0  0  0  0  0  0  0  0  0  0  0
   11.6117    0.2452   22.8337 H   0  0  0  0  0  0  0  0  0  0  0  0
    7.8130   -4.6532   21.6868 H   0  0  0  0  0  0  0  0  0  0  0  0
    6.8449   -2.1064   22.3990 H   0  0  0  0  0  0  0  0  0  0  0  0
    8.3230   -1.7115   24.1881 H   0  0  0  0  0  0  0  0  0  0  0  0
    7.5519   -2.6221   21.9114 N   0  0  0  0  0  0  0  0  0  0  0  0
    9.6647   -2.9578   22.4805 O   0  0  0  0  0  0  0  0  0  0  0  0
    9.2757   -1.0274   21.1055 C   0  0  0  0  0  0  0  0  0  0  0  0
    8.8476   -2.3033   21.9135 C   0  0  0  0  0  0  0  0  0  0  0  0
    8.9215   -0.0982   25.3894 O   0  0  0  0  0  0  0  0  0  0  0  0
    7.5767   -0.0907   22.3549 H   0  0  0  0  0  0  0  0  0  0  0  0
   10.9025    0.5536   22.0549 C   0  0  0  0  0  0  0  0  0  0  0  0
    7.1403   -3.8803   21.3278 C   0  0  0  0  0  0  0  0  0  0  0  0
    8.6309   -0.5344   20.2370 O   0  0  0  0  0  0  0  0  0  0  0  0
    7.1732    0.5831   23.9362 H   0  0  0  0  0  0  0  0  0  0  0  0
    8.0000    0.2699   23.2959 C   0  0  0  0  0  0  0  0  0  0  0  0
    8.7993    1.2973   22.9751 C   0  0  0  0  0  0  0  0  0  0  0  0
    8.8213   -0.7367   24.1581 C   0  0  0  0  0  0  0  0  0  0  0  0
 14 20  2  0  0  0  0
  6 19  1  0  0  0  0
  2 14  1  0  0  0  0
 14 15  1  0  0  0  0
  4 18  1  0  0  0  0
  5 19  1  0  0  0  0
  9 19  1  0  0  0  0
 12 19  1  0  0  0  0
  2 18  1  0  0  0  0
 12 15  1  0  0  0  0
 10 12  1  0  0  0  0
 13 15  2  0  0  0  0
  7 18  1  0  0  0  0
  8 18  1  0  0  0  0
 17 22  1  0  0  0  0
  7 23  1  0  0  0  0
 22 23  1  0  0  0  0
 21 22  1  0  0  0  0
 22 24  1  0  0  0  0
  1 24  1  0  0  0  0
 11 24  1  0  0  0  0
 16 24  1  0  0  0  0
  3 16  1  0  0  0  0
M  END
> <Shapegauss>
-103.232887

$$$$
