stable:False satoms:20 tatoms:24 sratio:0.8333333333333334
  -OEChem-08052415153D

 26 25  0     0  0  0  0  0  0999 V2000
  -11.0055   -1.2887  -25.2367 H   0  0  0  0  0  0  0  0  0  0  0  0
  -11.6720   -1.8458  -22.9092 O   0  0  0  0  0  0  0  0  0  0  0  0
  -10.3989   -0.0213  -27.4190 H   0  0  0  0  0  0  0  0  0  0  0  0
  -13.6621   -1.4456  -22.7925 H   0  0  0  0  0  0  0  0  0  0  0  0
   -6.1879   -0.7134  -22.8460 H   0  0  0  0  0  0  0  0  0  0  0  0
   -7.1928   -1.4525  -21.5814 H   0  0  0  0  0  0  0  0  0  0  0  0
  -12.8883   -0.0183  -23.9560 O   0  0  0  0  0  0  0  0  0  0  0  0
  -13.0379   -2.0198  -24.3776 H   0  0  0  0  0  0  0  0  0  0  0  0
   -6.8708   -2.3301  -23.1084 H   0  0  0  0  0  0  0  0  0  0  0  0
   -8.1997    0.0967  -23.6334 H   0  0  0  0  0  0  0  0  0  0  0  0
   -9.4035   -0.6218  -25.5245 H   0  0  0  0  0  0  0  0  0  0  0  0
   -8.2642   -0.8174  -23.2287 N   0  0  0  0  0  0  0  0  0  0  0  0
   -9.3380   -2.5980  -23.9884 O   0  0  0  0  0  0  0  0  0  0  0  0
  -10.6099   -1.1969  -22.5092 C   0  0  0  0  0  0  0  0  0  0  0  0
   -9.3352   -1.6071  -23.3282 C   0  0  0  0  0  0  0  0  0  0  0  0
  -10.9996    0.0553  -26.7069 O   0  0  0  0  0  0  0  0  0  0  0  0
  -10.2200    0.8143  -23.5712 H   0  0  0  0  0  0  0  0  0  0  0  0
  -12.8421   -1.3511  -23.5296 C   0  0  0  0  0  0  0  0  0  0  0  0
   -7.0463   -1.3556  -22.6629 C   0  0  0  0  0  0  0  0  0  0  0  0
  -10.5995   -0.4683  -21.5700 O   0  0  0  0  0  0  0  0  0  0  0  0
  -10.4450    1.6960  -25.0842 H   0  0  0  0  0  0  0  0  0  0  0  0
  -10.7454    0.8051  -24.5296 C   0  0  0  0  0  0  0  0  0  0  0  0
  -12.0537    0.8171  -24.2372 C   0  0  0  0  0  0  0  0  0  0  0  0
  -10.4728   -0.3861  -25.4981 C   0  0  0  0  0  0  0  0  0  0  0  0
  -12.4920    1.3061  -25.1196 H   0  0  0  0  0  0  0  0  0  0  0  0
  -12.1008    1.5016  -23.3774 H   0  0  0  0  0  0  0  0  0  0  0  0
 14 20  2  0  0  0  0
  6 19  1  0  0  0  0
  2 14  1  0  0  0  0
 14 15  1  0  0  0  0
  4 18  1  0  0  0  0
  5 19  1  0  0  0  0
  9 19  1  0  0  0  0
 12 19  1  0  0  0  0
  2 18  1  0  0  0  0
 12 15  1  0  0  0  0
 10 12  1  0  0  0  0
 13 15  2  0  0  0  0
  7 18  1  0  0  0  0
  8 18  1  0  0  0  0
 17 22  1  0  0  0  0
  7 23  1  0  0  0  0
 22 23  1  0  0  0  0
 21 22  1  0  0  0  0
 22 24  1  0  0  0  0
  1 24  1  0  0  0  0
 11 24  1  0  0  0  0
 16 24  1  0  0  0  0
  3 16  1  0  0  0  0
 23 25  1  0  0  0  0
 23 26  1  0  0  0  0
M  END
> <Chemgauss4>
-4.627541

$$$$
