stable:False satoms:20 tatoms:24 sratio:0.8333333333333334
  -OEChem-08052415153D

 26 25  0     0  0  0  0  0  0999 V2000
    9.6123   -1.1676   21.2786 H   0  0  0  0  0  0  0  0  0  0  0  0
    9.2966   -2.6872   23.2185 O   0  0  0  0  0  0  0  0  0  0  0  0
    9.5474    0.8726   19.6754 H   0  0  0  0  0  0  0  0  0  0  0  0
    7.3480   -3.2645   23.1580 H   0  0  0  0  0  0  0  0  0  0  0  0
   13.6358    0.6488   24.4039 H   0  0  0  0  0  0  0  0  0  0  0  0
   13.0962   -0.8244   25.2370 H   0  0  0  0  0  0  0  0  0  0  0  0
    7.3652   -1.3500   22.5887 O   0  0  0  0  0  0  0  0  0  0  0  0
    8.1549   -2.9529   21.5820 H   0  0  0  0  0  0  0  0  0  0  0  0
   13.7759   -0.9183   23.5833 H   0  0  0  0  0  0  0  0  0  0  0  0
   11.4715    0.7002   23.6060 H   0  0  0  0  0  0  0  0  0  0  0  0
   10.7220    0.1882   21.4340 H   0  0  0  0  0  0  0  0  0  0  0  0
   11.8401   -0.2253   23.7112 N   0  0  0  0  0  0  0  0  0  0  0  0
   11.7056   -1.9387   22.3160 O   0  0  0  0  0  0  0  0  0  0  0  0
    9.9413   -1.8084   23.9404 C   0  0  0  0  0  0  0  0  0  0  0  0
   11.2550   -1.3240   23.2307 C   0  0  0  0  0  0  0  0  0  0  0  0
    8.9848    0.4401   20.2839 O   0  0  0  0  0  0  0  0  0  0  0  0
    9.3488    0.3930   23.5827 H   0  0  0  0  0  0  0  0  0  0  0  0
    8.0258   -2.5844   22.6078 C   0  0  0  0  0  0  0  0  0  0  0  0
   13.1731   -0.3255   24.2645 C   0  0  0  0  0  0  0  0  0  0  0  0
    9.6208   -1.5009   25.0431 O   0  0  0  0  0  0  0  0  0  0  0  0
    8.7301    1.5264   22.3785 H   0  0  0  0  0  0  0  0  0  0  0  0
    8.8800    0.4676   22.5981 C   0  0  0  0  0  0  0  0  0  0  0  0
    7.7167   -0.1925   22.6887 C   0  0  0  0  0  0  0  0  0  0  0  0
    9.6652   -0.0929   21.3732 C   0  0  0  0  0  0  0  0  0  0  0  0
    7.0952    0.3125   21.9346 H   0  0  0  0  0  0  0  0  0  0  0  0
    7.3650    0.0787   23.6950 H   0  0  0  0  0  0  0  0  0  0  0  0
 14 20  2  0  0  0  0
  6 19  1  0  0  0  0
  2 14  1  0  0  0  0
 14 15  1  0  0  0  0
  4 18  1  0  0  0  0
  5 19  1  0  0  0  0
  9 19  1  0  0  0  0
 12 19  1  0  0  0  0
  2 18  1  0  0  0  0
 12 15  1  0  0  0  0
 10 12  1  0  0  0  0
 13 15  2  0  0  0  0
  7 18  1  0  0  0  0
  8 18  1  0  0  0  0
 17 22  1  0  0  0  0
  7 23  1  0  0  0  0
 22 23  1  0  0  0  0
 21 22  1  0  0  0  0
 22 24  1  0  0  0  0
  1 24  1  0  0  0  0
 11 24  1  0  0  0  0
 16 24  1  0  0  0  0
  3 16  1  0  0  0  0
 23 25  1  0  0  0  0
 23 26  1  0  0  0  0
M  END
> <Chemgauss4>
-4.650271

$$$$
