stable:False satoms:3 tatoms:24 sratio:0.125
  -OEChem-07092417463D

 24 25  0     1  0  0  0  0  0999 V2000
    6.6387   -4.8184   26.3874 C   0  0  0  0  0  0  0  0  0  0  0  0
    8.2548   -4.3158   26.0991 S   0  0  0  0  0  0  0  0  0  0  0  0
    9.1169   -5.4857   25.9948 O   0  0  0  0  0  0  0  0  0  0  0  0
    8.6611   -3.4280   27.1411 O   0  0  0  0  0  0  0  0  0  0  0  0
    8.1841   -3.5585   24.6778 N   0  0  0  0  0  0  0  0  0  0  0  0
    8.9962   -2.9532   24.1309 C   0  0  0  0  0  0  0  0  0  0  0  0
    9.4560   -2.0171   23.5079 C   0  0  0  0  0  0  0  0  0  0  0  0
   10.3291   -1.1540   23.1663 C   0  0  1  0  0  0  0  0  0  0  0  0
   11.0364   -0.0148   24.2771 C   0  0  0  0  0  0  0  0  0  0  0  0
   12.0820    0.2388   24.1938 C   0  0  0  0  0  0  0  0  0  0  0  0
   13.1012   -0.1275   23.5321 C   0  0  0  0  0  0  0  0  0  0  0  0
   12.7213   -1.2549   22.6589 C   0  0  0  0  0  0  0  0  0  0  0  0
   11.7527   -1.7039   22.5126 C   0  0  0  0  0  0  0  0  0  0  0  0
    9.6823   -0.5763   22.2977 C   0  0  0  0  0  0  0  0  0  0  0  0
    9.0270    0.0474   21.3630 C   0  0  0  0  0  0  0  0  0  0  0  0
    9.5453    0.9621   20.9373 O   0  0  0  0  0  0  0  0  0  0  0  0
    7.8522   -0.5627   21.1279 N   0  0  0  0  0  0  0  0  0  0  0  0
    7.1801   -0.0725   20.2183 C   0  0  0  0  0  0  0  0  0  0  0  0
    7.2075    0.0409   18.9997 C   0  0  0  0  0  0  0  0  0  0  0  0
    6.7537    0.3276   17.7861 N   0  0  0  0  0  0  0  0  0  0  0  0
    5.6930    0.8173   18.3152 C   0  0  0  0  0  0  0  0  0  0  0  0
    5.2470    0.9739   19.4176 C   0  0  0  0  0  0  0  0  0  0  0  0
    5.7561    0.6191   20.6233 C   0  0  0  0  0  0  0  0  0  0  0  0
    5.3092    0.7259   21.9309 C   0  0  0  0  0  0  0  0  0  0  0  0
 20 21  2  0  0  0  0
 19 20  1  0  0  0  0
 21 22  1  0  0  0  0
 18 19  2  0  0  0  0
 22 23  2  0  0  0  0
 18 23  1  0  0  0  0
 17 18  1  0  0  0  0
 23 24  1  0  0  0  0
 15 16  2  0  0  0  0
 15 17  1  0  0  0  0
 14 15  1  0  0  0  0
  8 14  1  0  0  0  0
 12 13  1  0  0  0  0
  8 13  1  0  0  0  0
 11 12  2  0  0  0  0
  7  8  1  0  0  0  0
  8  9  1  0  0  0  0
  6  7  3  0  0  0  0
 10 11  1  0  0  0  0
  5  6  1  0  0  0  0
  9 10  2  0  0  0  0
  2  5  1  0  0  0  0
  2  3  2  0  0  0  0
  1  2  1  0  0  0  0
  2  4  2  0  0  0  0
M  END
> <Shapegauss>
-287.244385

$$$$
