MODEL 1
REMARK VINA RESULT:    -7.303      0.000      0.000
REMARK INTER + INTRA:         -10.842
REMARK INTER:                  -9.865
REMARK INTRA:                  -0.977
REMARK UNBOUND:                -0.977
REMARK  6 active torsions:
REMARK  status: ('A' for Active; 'I' for Inactive)
REMARK    1  A    between atoms: S_2  and  N_5 
REMARK    2  A    between atoms: N_5  and  C_7 
REMARK    3  A    between atoms: C_7  and  C_8 
REMARK    4  A    between atoms: C_8  and  C_9 
REMARK    5  A    between atoms: C_9  and  C_15 
REMARK    6  A    between atoms: C_15  and  C_16 
REMARK       I    between atoms: C_16  and  N_18 
ROOT
HETATM    1  C   UNL     1       9.596  -1.360  23.394  1.00  0.00     0.076 C 
HETATM    2  C   UNL     1       9.702  -0.124  24.615  1.00  0.00     0.003 C 
HETATM    3  C   UNL     1      10.644   0.372  24.798  1.00  0.00    -0.002 C 
HETATM    4  C   UNL     1      11.856   0.278  24.434  1.00  0.00    -0.001 C 
HETATM    5  C   UNL     1      11.992  -0.878  23.527  1.00  0.00    -0.002 C 
HETATM    6  C   UNL     1      11.229  -1.537  23.149  1.00  0.00     0.003 C 
ENDROOT
BRANCH   1   7
HETATM    7  C   UNL     1       8.894  -2.415  23.524  1.00  0.00     0.021 C 
BRANCH   7   8
HETATM    8  C   UNL     1       8.138  -3.302  23.180  1.00  0.00     0.098 C 
BRANCH   8   9
HETATM    9  N   UNL     1       7.786  -4.206  22.561  1.00  0.00    -0.296 N 
ATOM     10  HN  UNL     1       8.505  -4.901  22.356  1.00  0.00     0.177 HD
BRANCH   9  11
HETATM   11  S   UNL     1       6.323  -4.535  21.970  1.00  0.00     0.226 S 
HETATM   12  C   UNL     1       5.413  -5.012  23.345  1.00  0.00     0.186 C 
HETATM   13  O   UNL     1       5.739  -3.331  21.393  1.00  0.00    -0.206 OA
HETATM   14  O   UNL     1       6.370  -5.619  21.042  1.00  0.00    -0.206 OA
ENDBRANCH   9  11
ENDBRANCH   8   9
ENDBRANCH   7   8
ENDBRANCH   1   7
BRANCH   1  15
HETATM   15  C   UNL     1       9.079  -0.922  22.371  1.00  0.00    -0.061 C 
BRANCH  15  16
HETATM   16  C   UNL     1       8.562  -0.455  21.272  1.00  0.00     0.290 C 
HETATM   17  O   UNL     1       9.312  -0.152  20.476  1.00  0.00    -0.259 OA
HETATM   18  N   UNL     1       7.220  -0.438  21.355  1.00  0.00    -0.315 N 
HETATM   19  C   UNL     1       6.638  -0.057  20.338  1.00  0.00     0.060 A 
ATOM     20  HN  UNL     1       6.721  -0.720  22.198  1.00  0.00     0.170 HD
HETATM   21  C   UNL     1       6.424  -0.433  19.193  1.00  0.00     0.117 A 
HETATM   22  C   UNL     1       5.799   1.342  20.430  1.00  0.00    -0.016 A 
HETATM   23  N   UNL     1       5.870  -0.434  17.987  1.00  0.00    -0.373 N 
HETATM   24  C   UNL     1       5.288   0.673  18.272  1.00  0.00     0.088 A 
ATOM     25  HN  UNL     1       5.897  -1.052  17.177  1.00  0.00     0.164 HD
HETATM   26  C   UNL     1       5.229   1.426  19.204  1.00  0.00     0.030 A 
HETATM   27  C   UNL     1       5.766   2.133  21.569  1.00  0.00     0.026 C 
ENDBRANCH  15  16
ENDBRANCH   1  15
TORSDOF 6
ENDMDL
MODEL 2
REMARK VINA RESULT:    -7.112      3.959      6.245
REMARK INTER + INTRA:         -10.584
REMARK INTER:                  -9.776
REMARK INTRA:                  -0.808
REMARK UNBOUND:                -0.977
REMARK  6 active torsions:
REMARK  status: ('A' for Active; 'I' for Inactive)
REMARK    1  A    between atoms: S_2  and  N_5 
REMARK    2  A    between atoms: N_5  and  C_7 
REMARK    3  A    between atoms: C_7  and  C_8 
REMARK    4  A    between atoms: C_8  and  C_9 
REMARK    5  A    between atoms: C_9  and  C_15 
REMARK    6  A    between atoms: C_15  and  C_16 
REMARK       I    between atoms: C_16  and  N_18 
ROOT
HETATM    1  C   UNL     1       7.487  -4.816  23.875  1.00  0.00     0.076 C 
HETATM    2  C   UNL     1       7.649  -5.656  22.359  1.00  0.00     0.003 C 
HETATM    3  C   UNL     1       6.777  -5.837  21.748  1.00  0.00    -0.002 C 
HETATM    4  C   UNL     1       5.518  -5.699  21.823  1.00  0.00    -0.001 C 
HETATM    5  C   UNL     1       5.175  -5.171  23.157  1.00  0.00    -0.002 C 
HETATM    6  C   UNL     1       5.830  -4.876  23.959  1.00  0.00     0.003 C 
ENDROOT
BRANCH   1   7
HETATM    7  C   UNL     1       8.150  -5.121  24.920  1.00  0.00     0.021 C 
BRANCH   7   8
HETATM    8  C   UNL     1       8.343  -5.307  26.104  1.00  0.00     0.098 C 
BRANCH   8   9
HETATM    9  N   UNL     1       8.085  -5.644  27.174  1.00  0.00    -0.296 N 
ATOM     10  HN  UNL     1       8.884  -5.899  27.755  1.00  0.00     0.177 HD
BRANCH   9  11
HETATM   11  S   UNL     1       6.645  -5.773  27.888  1.00  0.00     0.226 S 
HETATM   12  C   UNL     1       5.932  -4.226  27.675  1.00  0.00     0.186 C 
HETATM   13  O   UNL     1       5.841  -6.778  27.205  1.00  0.00    -0.206 OA
HETATM   14  O   UNL     1       6.780  -6.037  29.284  1.00  0.00    -0.206 OA
ENDBRANCH   9  11
ENDBRANCH   8   9
ENDBRANCH   7   8
ENDBRANCH   1   7
BRANCH   1  15
HETATM   15  C   UNL     1       7.845  -3.647  23.768  1.00  0.00    -0.061 C 
BRANCH  15  16
HETATM   16  C   UNL     1       8.204  -2.400  23.684  1.00  0.00     0.290 C 
HETATM   17  O   UNL     1       7.517  -1.739  23.069  1.00  0.00    -0.259 OA
HETATM   18  N   UNL     1       9.346  -2.194  24.364  1.00  0.00    -0.315 N 
HETATM   19  C   UNL     1       9.740  -1.026  24.384  1.00  0.00     0.060 A 
ATOM     20  HN  UNL     1       9.850  -2.949  24.829  1.00  0.00     0.170 HD
HETATM   21  C   UNL     1       9.423   0.054  24.865  1.00  0.00     0.117 A 
HETATM   22  C   UNL     1      11.147  -0.693  23.623  1.00  0.00    -0.016 A 
HETATM   23  N   UNL     1       9.554   1.330  25.204  1.00  0.00    -0.373 N 
HETATM   24  C   UNL     1      10.657   1.373  24.550  1.00  0.00     0.088 A 
ATOM     25  HN  UNL     1       9.009   1.995  25.751  1.00  0.00     0.164 HD
HETATM   26  C   UNL     1      11.328   0.621  23.899  1.00  0.00     0.030 A 
HETATM   27  C   UNL     1      11.871  -1.642  22.917  1.00  0.00     0.026 C 
ENDBRANCH  15  16
ENDBRANCH   1  15
TORSDOF 6
ENDMDL
MODEL 3
REMARK VINA RESULT:    -6.997      2.733      5.799
REMARK INTER + INTRA:         -10.428
REMARK INTER:                  -9.658
REMARK INTRA:                  -0.770
REMARK UNBOUND:                -0.977
REMARK  6 active torsions:
REMARK  status: ('A' for Active; 'I' for Inactive)
REMARK    1  A    between atoms: S_2  and  N_5 
REMARK    2  A    between atoms: N_5  and  C_7 
REMARK    3  A    between atoms: C_7  and  C_8 
REMARK    4  A    between atoms: C_8  and  C_9 
REMARK    5  A    between atoms: C_9  and  C_15 
REMARK    6  A    between atoms: C_15  and  C_16 
REMARK       I    between atoms: C_16  and  N_18 
ROOT
HETATM    1  C   UNL     1      10.321  -1.056  22.968  1.00  0.00     0.076 C 
HETATM    2  C   UNL     1      11.986  -1.538  22.804  1.00  0.00     0.003 C 
HETATM    3  C   UNL     1      12.722  -1.179  23.507  1.00  0.00    -0.002 C 
HETATM    4  C   UNL     1      12.795  -0.358  24.473  1.00  0.00    -0.001 C 
HETATM    5  C   UNL     1      11.489   0.311  24.629  1.00  0.00    -0.002 C 
HETATM    6  C   UNL     1      10.571   0.141  24.091  1.00  0.00     0.003 C 
ENDROOT
BRANCH   1   7
HETATM    7  C   UNL     1       9.565  -0.795  21.975  1.00  0.00     0.021 C 
BRANCH   7   8
HETATM    8  C   UNL     1       8.561  -0.418  21.406  1.00  0.00     0.098 C 
BRANCH   8   9
HETATM    9  N   UNL     1       7.431  -0.255  21.258  1.00  0.00    -0.296 N 
ATOM     10  HN  UNL     1       6.866  -0.327  22.104  1.00  0.00     0.177 HD
BRANCH   9  11
HETATM   11  S   UNL     1       6.612   0.070  19.908  1.00  0.00     0.226 S 
HETATM   12  C   UNL     1       5.710   1.479  20.294  1.00  0.00     0.186 C 
HETATM   13  O   UNL     1       7.538   0.367  18.824  1.00  0.00    -0.206 OA
HETATM   14  O   UNL     1       5.709  -0.987  19.582  1.00  0.00    -0.206 OA
ENDBRANCH   9  11
ENDBRANCH   8   9
ENDBRANCH   7   8
ENDBRANCH   1   7
BRANCH   1  15
HETATM   15  C   UNL     1       9.652  -1.952  23.473  1.00  0.00    -0.061 C 
BRANCH  15  16
HETATM   16  C   UNL     1       8.961  -2.897  24.040  1.00  0.00     0.290 C 
HETATM   17  O   UNL     1       8.596  -3.714  23.343  1.00  0.00    -0.259 OA
HETATM   18  N   UNL     1       8.837  -2.660  25.358  1.00  0.00    -0.315 N 
HETATM   19  C   UNL     1       8.237  -3.532  25.992  1.00  0.00     0.060 A 
ATOM     20  HN  UNL     1       9.211  -1.821  25.801  1.00  0.00     0.170 HD
HETATM   21  C   UNL     1       8.394  -4.690  26.355  1.00  0.00     0.117 A 
HETATM   22  C   UNL     1       6.804  -3.123  26.661  1.00  0.00    -0.016 A 
HETATM   23  N   UNL     1       8.139  -5.810  27.020  1.00  0.00    -0.373 N 
HETATM   24  C   UNL     1       7.049  -5.289  27.449  1.00  0.00     0.088 A 
ATOM     25  HN  UNL     1       8.611  -6.706  27.139  1.00  0.00     0.164 HD
HETATM   26  C   UNL     1       6.462  -4.248  27.335  1.00  0.00     0.030 A 
HETATM   27  C   UNL     1       6.218  -1.878  26.498  1.00  0.00     0.026 C 
ENDBRANCH  15  16
ENDBRANCH   1  15
TORSDOF 6
ENDMDL
MODEL 4
REMARK VINA RESULT:    -6.954      2.501      6.144
REMARK INTER + INTRA:         -10.369
REMARK INTER:                  -9.800
REMARK INTRA:                  -0.569
REMARK UNBOUND:                -0.977
REMARK  6 active torsions:
REMARK  status: ('A' for Active; 'I' for Inactive)
REMARK    1  A    between atoms: S_2  and  N_5 
REMARK    2  A    between atoms: N_5  and  C_7 
REMARK    3  A    between atoms: C_7  and  C_8 
REMARK    4  A    between atoms: C_8  and  C_9 
REMARK    5  A    between atoms: C_9  and  C_15 
REMARK    6  A    between atoms: C_15  and  C_16 
REMARK       I    between atoms: C_16  and  N_18 
ROOT
HETATM    1  C   UNL     1       6.534  -3.125  22.432  1.00  0.00     0.076 C 
HETATM    2  C   UNL     1       5.390  -3.508  23.687  1.00  0.00     0.003 C 
HETATM    3  C   UNL     1       5.084  -4.532  23.843  1.00  0.00    -0.002 C 
HETATM    4  C   UNL     1       5.237  -5.665  23.291  1.00  0.00    -0.001 C 
HETATM    5  C   UNL     1       6.037  -5.493  22.064  1.00  0.00    -0.002 C 
HETATM    6  C   UNL     1       6.495  -4.600  21.672  1.00  0.00     0.003 C 
ENDROOT
BRANCH   1   7
HETATM    7  C   UNL     1       6.458  -2.078  21.710  1.00  0.00     0.021 C 
BRANCH   7   8
HETATM    8  C   UNL     1       6.142  -1.406  20.748  1.00  0.00     0.098 C 
BRANCH   8   9
HETATM    9  N   UNL     1       5.647  -0.529  20.192  1.00  0.00    -0.296 N 
ATOM     10  HN  UNL     1       4.823  -0.134  20.648  1.00  0.00     0.177 HD
BRANCH   9  11
HETATM   11  S   UNL     1       6.063   0.167  18.799  1.00  0.00     0.226 S 
HETATM   12  C   UNL     1       5.145   1.616  18.764  1.00  0.00     0.186 C 
HETATM   13  O   UNL     1       7.484   0.490  18.811  1.00  0.00    -0.206 OA
HETATM   14  O   UNL     1       5.697  -0.646  17.683  1.00  0.00    -0.206 OA
ENDBRANCH   9  11
ENDBRANCH   8   9
ENDBRANCH   7   8
ENDBRANCH   1   7
BRANCH   1  15
HETATM   15  C   UNL     1       7.653  -2.941  22.901  1.00  0.00    -0.061 C 
BRANCH  15  16
HETATM   16  C   UNL     1       8.833  -2.710  23.398  1.00  0.00     0.290 C 
HETATM   17  O   UNL     1       9.218  -3.499  24.117  1.00  0.00    -0.259 OA
HETATM   18  N   UNL     1       9.320  -1.549  22.927  1.00  0.00    -0.315 N 
HETATM   19  C   UNL     1      10.461  -1.268  23.304  1.00  0.00     0.060 A 
ATOM     20  HN  UNL     1       8.787  -0.943  22.304  1.00  0.00     0.170 HD
HETATM   21  C   UNL     1      11.611  -1.654  23.150  1.00  0.00     0.117 A 
HETATM   22  C   UNL     1      10.635   0.043  24.263  1.00  0.00    -0.016 A 
HETATM   23  N   UNL     1      12.936  -1.623  23.234  1.00  0.00    -0.373 N 
HETATM   24  C   UNL     1      12.848  -0.578  23.972  1.00  0.00     0.088 A 
ATOM     25  HN  UNL     1      13.699  -2.190  22.867  1.00  0.00     0.164 HD
HETATM   26  C   UNL     1      11.979   0.116  24.423  1.00  0.00     0.030 A 
HETATM   27  C   UNL     1       9.566   0.804  24.710  1.00  0.00     0.026 C 
ENDBRANCH  15  16
ENDBRANCH   1  15
TORSDOF 6
ENDMDL
MODEL 5
REMARK VINA RESULT:    -6.502     14.545     15.996
REMARK INTER + INTRA:          -9.759
REMARK INTER:                  -9.058
REMARK INTRA:                  -0.701
REMARK UNBOUND:                -0.977
REMARK  6 active torsions:
REMARK  status: ('A' for Active; 'I' for Inactive)
REMARK    1  A    between atoms: S_2  and  N_5 
REMARK    2  A    between atoms: N_5  and  C_7 
REMARK    3  A    between atoms: C_7  and  C_8 
REMARK    4  A    between atoms: C_8  and  C_9 
REMARK    5  A    between atoms: C_9  and  C_15 
REMARK    6  A    between atoms: C_15  and  C_16 
REMARK       I    between atoms: C_16  and  N_18 
ROOT
HETATM    1  C   UNL     1      23.166  -1.690  23.569  1.00  0.00     0.076 C 
HETATM    2  C   UNL     1      21.683  -1.592  24.477  1.00  0.00     0.003 C 
HETATM    3  C   UNL     1      21.383  -0.653  24.916  1.00  0.00    -0.002 C 
HETATM    4  C   UNL     1      21.852   0.515  25.081  1.00  0.00    -0.001 C 
HETATM    5  C   UNL     1      23.223   0.558  24.535  1.00  0.00    -0.002 C 
HETATM    6  C   UNL     1      23.773  -0.212  24.021  1.00  0.00     0.003 C 
ENDROOT
BRANCH   1   7
HETATM    7  C   UNL     1      23.948  -2.695  23.611  1.00  0.00     0.021 C 
BRANCH   7   8
HETATM    8  C   UNL     1      24.281  -3.842  23.833  1.00  0.00     0.098 C 
BRANCH   8   9
HETATM    9  N   UNL     1      24.126  -4.968  24.016  1.00  0.00    -0.296 N 
ATOM     10  HN  UNL     1      24.091  -5.545  23.175  1.00  0.00     0.177 HD
BRANCH   9  11
HETATM   11  S   UNL     1      23.958  -5.766  25.406  1.00  0.00     0.226 S 
HETATM   12  C   UNL     1      25.528  -5.735  26.099  1.00  0.00     0.186 C 
HETATM   13  O   UNL     1      23.029  -5.057  26.276  1.00  0.00    -0.206 OA
HETATM   14  O   UNL     1      23.572  -7.122  25.183  1.00  0.00    -0.206 OA
ENDBRANCH   9  11
ENDBRANCH   8   9
ENDBRANCH   7   8
ENDBRANCH   1   7
BRANCH   1  15
HETATM   15  C   UNL     1      22.942  -1.684  22.362  1.00  0.00    -0.061 C 
BRANCH  15  16
HETATM   16  C   UNL     1      22.674  -1.695  21.090  1.00  0.00     0.290 C 
HETATM   17  O   UNL     1      21.572  -1.756  20.828  1.00  0.00    -0.259 OA
HETATM   18  N   UNL     1      23.810  -1.638  20.372  1.00  0.00    -0.315 N 
HETATM   19  C   UNL     1      23.654  -1.592  19.149  1.00  0.00     0.060 A 
ATOM     20  HN  UNL     1      24.733  -1.633  20.806  1.00  0.00     0.170 HD
HETATM   21  C   UNL     1      23.238  -0.822  18.294  1.00  0.00     0.117 A 
HETATM   22  C   UNL     1      24.184  -2.866  18.275  1.00  0.00    -0.016 A 
HETATM   23  N   UNL     1      23.007  -0.356  17.073  1.00  0.00    -0.373 N 
HETATM   24  C   UNL     1      23.480  -1.444  16.586  1.00  0.00     0.088 A 
ATOM     25  HN  UNL     1      22.619   0.503  16.685  1.00  0.00     0.164 HD
HETATM   26  C   UNL     1      23.944  -2.470  17.001  1.00  0.00     0.030 A 
HETATM   27  C   UNL     1      24.737  -4.002  18.846  1.00  0.00     0.026 C 
ENDBRANCH  15  16
ENDBRANCH   1  15
TORSDOF 6
ENDMDL
MODEL 6
REMARK VINA RESULT:    -6.207     24.575     27.897
REMARK INTER + INTRA:          -9.361
REMARK INTER:                  -8.096
REMARK INTRA:                  -1.265
REMARK UNBOUND:                -0.977
REMARK  6 active torsions:
REMARK  status: ('A' for Active; 'I' for Inactive)
REMARK    1  A    between atoms: S_2  and  N_5 
REMARK    2  A    between atoms: N_5  and  C_7 
REMARK    3  A    between atoms: C_7  and  C_8 
REMARK    4  A    between atoms: C_8  and  C_9 
REMARK    5  A    between atoms: C_9  and  C_15 
REMARK    6  A    between atoms: C_15  and  C_16 
REMARK       I    between atoms: C_16  and  N_18 
ROOT
HETATM    1  C   UNL     1       9.394  20.239   1.545  1.00  0.00     0.076 C 
HETATM    2  C   UNL     1       7.986  20.930   2.301  1.00  0.00     0.003 C 
HETATM    3  C   UNL     1       7.184  21.318   1.692  1.00  0.00    -0.002 C 
HETATM    4  C   UNL     1       6.941  21.539   0.465  1.00  0.00    -0.001 C 
HETATM    5  C   UNL     1       8.136  21.190  -0.327  1.00  0.00    -0.002 C 
HETATM    6  C   UNL     1       9.067  20.762   0.003  1.00  0.00     0.003 C 
ENDROOT
BRANCH   1   7
HETATM    7  C   UNL     1      10.577  20.396   1.991  1.00  0.00     0.021 C 
BRANCH   7   8
HETATM    8  C   UNL     1      11.571  20.129   2.636  1.00  0.00     0.098 C 
BRANCH   8   9
HETATM    9  N   UNL     1      12.212  20.014   3.585  1.00  0.00    -0.296 N 
ATOM     10  HN  UNL     1      12.983  20.676   3.673  1.00  0.00     0.177 HD
BRANCH   9  11
HETATM   11  S   UNL     1      12.068  18.959   4.796  1.00  0.00     0.226 S 
HETATM   12  C   UNL     1      10.598  19.401   5.564  1.00  0.00     0.186 C 
HETATM   13  O   UNL     1      11.953  17.607   4.265  1.00  0.00    -0.206 OA
HETATM   14  O   UNL     1      13.141  19.091   5.729  1.00  0.00    -0.206 OA
ENDBRANCH   9  11
ENDBRANCH   8   9
ENDBRANCH   7   8
ENDBRANCH   1   7
BRANCH   1  15
HETATM   15  C   UNL     1       9.350  19.013   1.574  1.00  0.00    -0.061 C 
BRANCH  15  16
HETATM   16  C   UNL     1       9.275  17.716   1.627  1.00  0.00     0.290 C 
HETATM   17  O   UNL     1       9.327  17.187   0.625  1.00  0.00    -0.259 OA
HETATM   18  N   UNL     1       9.141  17.306   2.901  1.00  0.00    -0.315 N 
HETATM   19  C   UNL     1       9.112  16.083   3.057  1.00  0.00     0.060 A 
ATOM     20  HN  UNL     1       9.068  17.958   3.681  1.00  0.00     0.170 HD
HETATM   21  C   UNL     1       9.859  15.117   2.970  1.00  0.00     0.117 A 
HETATM   22  C   UNL     1       7.721  15.427   3.607  1.00  0.00    -0.016 A 
HETATM   23  N   UNL     1      10.255  13.859   3.111  1.00  0.00    -0.373 N 
HETATM   24  C   UNL     1       9.085  13.555   3.537  1.00  0.00     0.088 A 
ATOM     25  HN  UNL     1      11.123  13.349   2.950  1.00  0.00     0.164 HD
HETATM   26  C   UNL     1       8.045  14.117   3.741  1.00  0.00     0.030 A 
HETATM   27  C   UNL     1       6.574  16.168   3.845  1.00  0.00     0.026 C 
ENDBRANCH  15  16
ENDBRANCH   1  15
TORSDOF 6
ENDMDL
MODEL 7
REMARK VINA RESULT:    -5.944      5.915      8.624
REMARK INTER + INTRA:          -9.006
REMARK INTER:                  -8.137
REMARK INTRA:                  -0.869
REMARK UNBOUND:                -0.977
REMARK  6 active torsions:
REMARK  status: ('A' for Active; 'I' for Inactive)
REMARK    1  A    between atoms: S_2  and  N_5 
REMARK    2  A    between atoms: N_5  and  C_7 
REMARK    3  A    between atoms: C_7  and  C_8 
REMARK    4  A    between atoms: C_8  and  C_9 
REMARK    5  A    between atoms: C_9  and  C_15 
REMARK    6  A    between atoms: C_15  and  C_16 
REMARK       I    between atoms: C_16  and  N_18 
ROOT
HETATM    1  C   UNL     1       4.974  -5.277  23.827  1.00  0.00     0.076 C 
HETATM    2  C   UNL     1       5.205  -3.650  23.253  1.00  0.00     0.003 C 
HETATM    3  C   UNL     1       5.675  -3.478  22.297  1.00  0.00    -0.002 C 
HETATM    4  C   UNL     1       6.260  -4.147  21.390  1.00  0.00    -0.001 C 
HETATM    5  C   UNL     1       6.336  -5.558  21.813  1.00  0.00    -0.002 C 
HETATM    6  C   UNL     1       5.936  -6.024  22.698  1.00  0.00     0.003 C 
ENDROOT
BRANCH   1   7
HETATM    7  C   UNL     1       5.112  -5.617  25.047  1.00  0.00     0.021 C 
BRANCH   7   8
HETATM    8  C   UNL     1       5.450  -6.318  25.979  1.00  0.00     0.098 C 
BRANCH   8   9
HETATM    9  N   UNL     1       5.332  -6.861  26.987  1.00  0.00    -0.296 N 
ATOM     10  HN  UNL     1       4.845  -7.756  26.946  1.00  0.00     0.177 HD
BRANCH   9  11
HETATM   11  S   UNL     1       5.826  -6.414  28.455  1.00  0.00     0.226 S 
HETATM   12  C   UNL     1       5.098  -4.877  28.691  1.00  0.00     0.186 C 
HETATM   13  O   UNL     1       5.325  -7.348  29.454  1.00  0.00    -0.206 OA
HETATM   14  O   UNL     1       7.246  -6.270  28.504  1.00  0.00    -0.206 OA
ENDBRANCH   9  11
ENDBRANCH   8   9
ENDBRANCH   7   8
ENDBRANCH   1   7
BRANCH   1  15
HETATM   15  C   UNL     1       3.811  -5.637  23.669  1.00  0.00    -0.061 C 
BRANCH  15  16
HETATM   16  C   UNL     1       2.590  -6.051  23.497  1.00  0.00     0.290 C 
HETATM   17  O   UNL     1       1.787  -5.264  23.646  1.00  0.00    -0.259 OA
HETATM   18  N   UNL     1       2.579  -7.358  23.182  1.00  0.00    -0.315 N 
HETATM   19  C   UNL     1       1.464  -7.831  22.949  1.00  0.00     0.060 A 
ATOM     20  HN  UNL     1       3.430  -7.918  23.138  1.00  0.00     0.170 HD
HETATM   21  C   UNL     1       0.583  -7.761  22.102  1.00  0.00     0.117 A 
HETATM   22  C   UNL     1       0.895  -8.960  23.983  1.00  0.00    -0.016 A 
HETATM   23  N   UNL     1      -0.535  -8.090  21.468  1.00  0.00    -0.373 N 
HETATM   24  C   UNL     1      -0.790  -8.941  22.393  1.00  0.00     0.088 A 
ATOM     25  HN  UNL     1      -0.997  -7.792  20.609  1.00  0.00     0.164 HD
HETATM   26  C   UNL     1      -0.279  -9.321  23.410  1.00  0.00     0.030 A 
HETATM   27  C   UNL     1       1.577  -9.358  25.123  1.00  0.00     0.026 C 
ENDBRANCH  15  16
ENDBRANCH   1  15
TORSDOF 6
ENDMDL
MODEL 8
REMARK VINA RESULT:    -5.840     14.629     17.585
REMARK INTER + INTRA:          -8.865
REMARK INTER:                  -7.769
REMARK INTRA:                  -1.096
REMARK UNBOUND:                -0.977
REMARK  6 active torsions:
REMARK  status: ('A' for Active; 'I' for Inactive)
REMARK    1  A    between atoms: S_2  and  N_5 
REMARK    2  A    between atoms: N_5  and  C_7 
REMARK    3  A    between atoms: C_7  and  C_8 
REMARK    4  A    between atoms: C_8  and  C_9 
REMARK    5  A    between atoms: C_9  and  C_15 
REMARK    6  A    between atoms: C_15  and  C_16 
REMARK       I    between atoms: C_16  and  N_18 
ROOT
HETATM    1  C   UNL     1      23.060  -1.412  23.175  1.00  0.00     0.076 C 
HETATM    2  C   UNL     1      23.575  -0.053  24.135  1.00  0.00     0.003 C 
HETATM    3  C   UNL     1      22.903   0.377  24.862  1.00  0.00    -0.002 C 
HETATM    4  C   UNL     1      21.693   0.260  25.227  1.00  0.00    -0.001 C 
HETATM    5  C   UNL     1      21.030  -0.735  24.362  1.00  0.00    -0.002 C 
HETATM    6  C   UNL     1      21.450  -1.338  23.575  1.00  0.00     0.003 C 
ENDROOT
BRANCH   1   7
HETATM    7  C   UNL     1      23.364  -1.557  21.946  1.00  0.00     0.021 C 
BRANCH   7   8
HETATM    8  C   UNL     1      23.319  -2.047  20.836  1.00  0.00     0.098 C 
BRANCH   8   9
HETATM    9  N   UNL     1      23.692  -2.667  19.941  1.00  0.00    -0.296 N 
ATOM     10  HN  UNL     1      23.437  -2.304  19.022  1.00  0.00     0.177 HD
BRANCH   9  11
HETATM   11  S   UNL     1      24.559  -4.026  19.928  1.00  0.00     0.226 S 
HETATM   12  C   UNL     1      25.043  -4.198  18.290  1.00  0.00     0.186 C 
HETATM   13  O   UNL     1      25.738  -3.871  20.770  1.00  0.00    -0.206 OA
HETATM   14  O   UNL     1      23.764  -5.152  20.301  1.00  0.00    -0.206 OA
ENDBRANCH   9  11
ENDBRANCH   8   9
ENDBRANCH   7   8
ENDBRANCH   1   7
BRANCH   1  15
HETATM   15  C   UNL     1      23.537  -2.458  23.605  1.00  0.00    -0.061 C 
BRANCH  15  16
HETATM   16  C   UNL     1      24.041  -3.553  24.094  1.00  0.00     0.290 C 
HETATM   17  O   UNL     1      23.625  -4.513  23.656  1.00  0.00    -0.259 OA
HETATM   18  N   UNL     1      24.956  -3.267  25.036  1.00  0.00    -0.315 N 
HETATM   19  C   UNL     1      25.528  -4.245  25.524  1.00  0.00     0.060 A 
ATOM     20  HN  UNL     1      25.163  -2.312  25.327  1.00  0.00     0.170 HD
HETATM   21  C   UNL     1      26.333  -5.108  25.200  1.00  0.00     0.117 A 
HETATM   22  C   UNL     1      25.262  -4.561  27.104  1.00  0.00    -0.016 A 
HETATM   23  N   UNL     1      27.181  -6.116  25.363  1.00  0.00    -0.373 N 
HETATM   24  C   UNL     1      26.834  -6.187  26.596  1.00  0.00     0.088 A 
ATOM     25  HN  UNL     1      27.832  -6.621  24.763  1.00  0.00     0.164 HD
HETATM   26  C   UNL     1      26.079  -5.618  27.336  1.00  0.00     0.030 A 
HETATM   27  C   UNL     1      24.390  -3.823  27.890  1.00  0.00     0.026 C 
ENDBRANCH  15  16
ENDBRANCH   1  15
TORSDOF 6
ENDMDL
MODEL 9
REMARK VINA RESULT:    -5.746     14.599     16.532
REMARK INTER + INTRA:          -8.739
REMARK INTER:                  -7.949
REMARK INTRA:                  -0.790
REMARK UNBOUND:                -0.977
REMARK  6 active torsions:
REMARK  status: ('A' for Active; 'I' for Inactive)
REMARK    1  A    between atoms: S_2  and  N_5 
REMARK    2  A    between atoms: N_5  and  C_7 
REMARK    3  A    between atoms: C_7  and  C_8 
REMARK    4  A    between atoms: C_8  and  C_9 
REMARK    5  A    between atoms: C_9  and  C_15 
REMARK    6  A    between atoms: C_15  and  C_16 
REMARK       I    between atoms: C_16  and  N_18 
ROOT
HETATM    1  C   UNL     1      24.031  -1.973  19.581  1.00  0.00     0.076 C 
HETATM    2  C   UNL     1      25.201  -0.687  19.481  1.00  0.00     0.003 C 
HETATM    3  C   UNL     1      25.058   0.117  18.774  1.00  0.00    -0.002 C 
HETATM    4  C   UNL     1      24.274   0.420  17.824  1.00  0.00    -0.001 C 
HETATM    5  C   UNL     1      23.313  -0.683  17.629  1.00  0.00    -0.002 C 
HETATM    6  C   UNL     1      23.200  -1.592  18.194  1.00  0.00     0.003 C 
ENDROOT
BRANCH   1   7
HETATM    7  C   UNL     1      24.345  -3.193  19.773  1.00  0.00     0.021 C 
BRANCH   7   8
HETATM    8  C   UNL     1      24.170  -4.356  20.075  1.00  0.00     0.098 C 
BRANCH   8   9
HETATM    9  N   UNL     1      24.275  -5.498  19.977  1.00  0.00    -0.296 N 
ATOM     10  HN  UNL     1      23.676  -5.932  19.275  1.00  0.00     0.177 HD
BRANCH   9  11
HETATM   11  S   UNL     1      25.231  -6.511  20.788  1.00  0.00     0.226 S 
HETATM   12  C   UNL     1      26.818  -5.954  20.445  1.00  0.00     0.186 C 
HETATM   13  O   UNL     1      24.974  -6.400  22.218  1.00  0.00    -0.206 OA
HETATM   14  O   UNL     1      25.093  -7.850  20.310  1.00  0.00    -0.206 OA
ENDBRANCH   9  11
ENDBRANCH   8   9
ENDBRANCH   7   8
ENDBRANCH   1   7
BRANCH   1  15
HETATM   15  C   UNL     1      23.294  -1.821  20.550  1.00  0.00    -0.061 C 
BRANCH  15  16
HETATM   16  C   UNL     1      22.532  -1.632  21.587  1.00  0.00     0.290 C 
HETATM   17  O   UNL     1      21.419  -1.599  21.371  1.00  0.00    -0.259 OA
HETATM   18  N   UNL     1      23.278  -1.510  22.699  1.00  0.00    -0.315 N 
HETATM   19  C   UNL     1      22.639  -1.378  23.746  1.00  0.00     0.060 A 
ATOM     20  HN  UNL     1      24.297  -1.525  22.679  1.00  0.00     0.170 HD
HETATM   21  C   UNL     1      21.906  -2.032  24.476  1.00  0.00     0.117 A 
HETATM   22  C   UNL     1      22.777   0.045  24.537  1.00  0.00    -0.016 A 
HETATM   23  N   UNL     1      21.197  -2.319  25.560  1.00  0.00    -0.373 N 
HETATM   24  C   UNL     1      21.439  -1.143  26.010  1.00  0.00     0.088 A 
ATOM     25  HN  UNL     1      20.680  -3.131  25.895  1.00  0.00     0.164 HD
HETATM   26  C   UNL     1      22.037  -0.166  25.653  1.00  0.00     0.030 A 
HETATM   27  C   UNL     1      23.522   1.111  24.058  1.00  0.00     0.026 C 
ENDBRANCH  15  16
ENDBRANCH   1  15
TORSDOF 6
ENDMDL
