REMARK  6 active torsions:
REMARK  status: ('A' for Active; 'I' for Inactive)
REMARK    1  A    between atoms: S_2  and  N_5 
REMARK    2  A    between atoms: N_5  and  C_7 
REMARK    3  A    between atoms: C_7  and  C_8 
REMARK    4  A    between atoms: C_8  and  C_9 
REMARK    5  A    between atoms: C_9  and  C_15 
REMARK    6  A    between atoms: C_15  and  C_16 
REMARK       I    between atoms: C_16  and  N_18 
ROOT
HETATM    1  C   UNL     1      10.329  -1.154  23.166  1.00  0.00     0.076 C 
HETATM    2  C   UNL     1      11.036  -0.015  24.277  1.00  0.00     0.003 C 
HETATM    3  C   UNL     1      12.082   0.239  24.194  1.00  0.00    -0.002 C 
HETATM    4  C   UNL     1      13.101  -0.128  23.532  1.00  0.00    -0.001 C 
HETATM    5  C   UNL     1      12.721  -1.255  22.659  1.00  0.00    -0.002 C 
HETATM    6  C   UNL     1      11.753  -1.704  22.513  1.00  0.00     0.003 C 
ENDROOT
BRANCH   1   7
HETATM    7  C   UNL     1       9.456  -2.017  23.508  1.00  0.00     0.021 C 
BRANCH   7   8
HETATM    8  C   UNL     1       8.996  -2.953  24.131  1.00  0.00     0.098 C 
BRANCH   8   9
HETATM    9  N   UNL     1       8.184  -3.558  24.678  1.00  0.00    -0.296 N 
ATOM     10  HN  UNL     1       7.289  -3.624  24.193  1.00  0.00     0.177 HD
BRANCH   9  11
HETATM   11  S   UNL     1       8.255  -4.316  26.099  1.00  0.00     0.226 S 
HETATM   12  C   UNL     1       6.639  -4.818  26.387  1.00  0.00     0.186 C 
HETATM   13  O   UNL     1       9.117  -5.486  25.995  1.00  0.00    -0.206 OA
HETATM   14  O   UNL     1       8.661  -3.428  27.141  1.00  0.00    -0.206 OA
ENDBRANCH   9  11
ENDBRANCH   8   9
ENDBRANCH   7   8
ENDBRANCH   1   7
BRANCH   1  15
HETATM   15  C   UNL     1       9.682  -0.576  22.298  1.00  0.00    -0.061 C 
BRANCH  15  16
HETATM   16  C   UNL     1       9.027   0.047  21.363  1.00  0.00     0.290 C 
HETATM   17  O   UNL     1       9.545   0.962  20.937  1.00  0.00    -0.259 OA
HETATM   18  N   UNL     1       7.852  -0.563  21.128  1.00  0.00    -0.315 N 
HETATM   19  C   UNL     1       7.180  -0.072  20.218  1.00  0.00     0.060 A 
ATOM     20  HN  UNL     1       7.539  -1.373  21.663  1.00  0.00     0.170 HD
HETATM   21  C   UNL     1       7.207   0.041  19.000  1.00  0.00     0.117 A 
HETATM   22  C   UNL     1       5.756   0.619  20.623  1.00  0.00    -0.016 A 
HETATM   23  N   UNL     1       6.754   0.328  17.786  1.00  0.00    -0.373 N 
HETATM   24  C   UNL     1       5.693   0.817  18.315  1.00  0.00     0.088 A 
ATOM     25  HN  UNL     1       7.102   0.210  16.835  1.00  0.00     0.164 HD
HETATM   26  C   UNL     1       5.247   0.974  19.418  1.00  0.00     0.030 A 
HETATM   27  C   UNL     1       5.309   0.726  21.931  1.00  0.00     0.026 C 
ENDBRANCH  15  16
ENDBRANCH   1  15
TORSDOF 6
