stable:False satoms:11 tatoms:24 sratio:0.4583333333333333
  -OEChem-08062409543D

 34 35  0     1  0  0  0  0  0999 V2000
   -6.2223   -5.2773  -26.1941 Cl  0  0  0  0  0  0  0  0  0  0  0  0
   -7.9863   -4.7509  -25.9791 S   0  0  0  0  0  0  0  0  0  0  0  0
   -8.8110   -5.9190  -25.8026 O   0  0  0  0  0  0  0  0  0  0  0  0
   -8.3566   -3.9705  -27.1038 O   0  0  0  0  0  0  0  0  0  0  0  0
   -7.9229   -3.8852  -24.5954 N   0  0  0  0  0  0  0  0  0  0  0  0
   -8.7992   -3.0912  -24.2226 C   0  0  0  0  0  0  0  0  0  0  0  0
   -9.3801   -2.2676  -23.8042 C   0  0  0  0  0  0  0  0  0  0  0  0
  -10.2668   -1.2938  -23.4295 C   0  0  1  0  0  0  0  0  0  0  0  0
  -10.5693   -0.2990  -24.8838 S   0  0  0  0  0  0  0  0  0  0  0  0
  -11.9032    0.0482  -24.6880 C   0  0  0  0  0  0  0  0  0  0  0  0
  -12.8158   -0.2763  -24.1233 C   0  0  0  0  0  0  0  0  0  0  0  0
  -12.6343   -1.2362  -23.3055 C   0  0  0  0  0  0  0  0  0  0  0  0
  -11.6353   -1.6828  -23.0301 C   0  0  0  0  0  0  0  0  0  0  0  0
  -10.0089   -0.5345  -22.4315 N   0  0  0  0  0  0  0  0  0  0  0  0
   -9.2405    0.1043  -21.4185 C   0  0  0  0  0  0  0  0  0  0  0  0
   -9.7110    1.1050  -20.9454 O   0  0  0  0  0  0  0  0  0  0  0  0
   -8.1027   -0.5109  -21.1018 N   0  0  0  0  0  0  0  0  0  0  0  0
   -7.4985    0.0696  -20.1714 C   0  0  0  0  0  0  0  0  0  0  0  0
   -7.6295    0.2987  -18.8845 C   0  0  0  0  0  0  0  0  0  0  0  0
   -7.2083    0.6343  -17.8135 N   0  0  0  0  0  0  0  0  0  0  0  0
   -6.1188    1.0669  -18.1576 C   0  0  0  0  0  0  0  0  0  0  0  0
   -5.6293    1.0537  -19.2973 C   0  0  0  0  0  0  0  0  0  0  0  0
   -6.0128    0.6041  -20.4166 C   0  0  0  0  0  0  0  0  0  0  0  0
   -5.5232    0.5564  -21.3738 H   0  0  0  0  0  0  0  0  0  0  0  0
   -7.0809   -3.3488  -24.6524 H   0  0  0  0  0  0  0  0  0  0  0  0
  -12.1372    0.9226  -25.2772 H   0  0  0  0  0  0  0  0  0  0  0  0
  -13.7794    0.1912  -24.2624 H   0  0  0  0  0  0  0  0  0  0  0  0
  -13.5107   -1.6582  -22.8362 H   0  0  0  0  0  0  0  0  0  0  0  0
  -11.6880   -2.5331  -22.3663 H   0  0  0  0  0  0  0  0  0  0  0  0
  -10.9139   -0.1492  -22.2508 H   0  0  0  0  0  0  0  0  0  0  0  0
   -7.7701   -1.3387  -21.5537 H   0  0  0  0  0  0  0  0  0  0  0  0
   -8.6633    0.0568  -18.6869 H   0  0  0  0  0  0  0  0  0  0  0  0
   -5.5131    1.5110  -17.3815 H   0  0  0  0  0  0  0  0  0  0  0  0
   -4.6620    1.5317  -19.3451 H   0  0  0  0  0  0  0  0  0  0  0  0
 20 21  2  0  0  0  0
 19 20  1  0  0  0  0
 21 22  1  0  0  0  0
 18 19  2  0  0  0  0
 22 23  2  0  0  0  0
 18 23  1  0  0  0  0
 17 18  1  0  0  0  0
 23 24  1  0  0  0  0
 15 16  2  0  0  0  0
 15 17  1  0  0  0  0
 14 15  1  0  0  0  0
  8 14  1  0  0  0  0
 12 13  2  0  0  0  0
  8 13  1  0  0  0  0
 11 12  1  0  0  0  0
  7  8  1  0  0  0  0
  8  9  1  0  0  0  0
 10 11  2  0  0  0  0
  6  7  3  0  0  0  0
  9 10  1  0  0  0  0
  5  6  1  0  0  0  0
  2  5  1  0  0  0  0
  2  3  2  0  0  0  0
  1  2  1  0  0  0  0
  2  4  2  0  0  0  0
  5 25  1  0  0  0  0
 10 26  1  0  0  0  0
 11 27  1  0  0  0  0
 12 28  1  0  0  0  0
 13 29  1  0  0  0  0
 14 30  1  0  0  0  0
 17 31  1  0  0  0  0
 19 32  1  0  0  0  0
 21 33  1  0  0  0  0
 22 34  1  0  0  0  0
M  END
> <Chemgauss4>
-13.310907

$$$$
