stable:False satoms:11 tatoms:24 sratio:0.4583333333333333
  -OEChem-08062409543D

 34 35  0     1  0  0  0  0  0999 V2000
    5.9675   -5.4111   26.2774 Cl  0  0  0  0  0  0  0  0  0  0  0  0
    7.7315   -4.8847   26.0624 S   0  0  0  0  0  0  0  0  0  0  0  0
    8.5562   -6.0528   25.8859 O   0  0  0  0  0  0  0  0  0  0  0  0
    8.1018   -4.1044   27.1872 O   0  0  0  0  0  0  0  0  0  0  0  0
    7.6681   -4.0190   24.6788 N   0  0  0  0  0  0  0  0  0  0  0  0
    8.5443   -3.2250   24.3060 C   0  0  0  0  0  0  0  0  0  0  0  0
    9.1253   -2.4014   23.8876 C   0  0  0  0  0  0  0  0  0  0  0  0
   10.0119   -1.4276   23.5128 C   0  0  1  0  0  0  0  0  0  0  0  0
   10.3144   -0.4328   24.9671 S   0  0  0  0  0  0  0  0  0  0  0  0
   11.6483   -0.0856   24.7714 C   0  0  0  0  0  0  0  0  0  0  0  0
   12.5610   -0.4101   24.2066 C   0  0  0  0  0  0  0  0  0  0  0  0
   12.3794   -1.3700   23.3889 C   0  0  0  0  0  0  0  0  0  0  0  0
   11.3805   -1.8166   23.1134 C   0  0  0  0  0  0  0  0  0  0  0  0
    9.7541   -0.6683   22.5148 N   0  0  0  0  0  0  0  0  0  0  0  0
    8.9857   -0.0295   21.5018 C   0  0  0  0  0  0  0  0  0  0  0  0
    9.4561    0.9711   21.0287 O   0  0  0  0  0  0  0  0  0  0  0  0
    7.8478   -0.6447   21.1851 N   0  0  0  0  0  0  0  0  0  0  0  0
    7.2437   -0.0642   20.2547 C   0  0  0  0  0  0  0  0  0  0  0  0
    7.3747    0.1649   18.9678 C   0  0  0  0  0  0  0  0  0  0  0  0
    6.9534    0.5005   17.8968 N   0  0  0  0  0  0  0  0  0  0  0  0
    5.8639    0.9331   18.2409 C   0  0  0  0  0  0  0  0  0  0  0  0
    5.3745    0.9199   19.3806 C   0  0  0  0  0  0  0  0  0  0  0  0
    5.7580    0.4703   20.4999 C   0  0  0  0  0  0  0  0  0  0  0  0
    5.2683    0.4226   21.4571 H   0  0  0  0  0  0  0  0  0  0  0  0
    6.8260   -3.4826   24.7357 H   0  0  0  0  0  0  0  0  0  0  0  0
   11.8823    0.7888   25.3605 H   0  0  0  0  0  0  0  0  0  0  0  0
   13.5246    0.0574   24.3458 H   0  0  0  0  0  0  0  0  0  0  0  0
   13.2558   -1.7920   22.9196 H   0  0  0  0  0  0  0  0  0  0  0  0
   11.4331   -2.6669   22.4496 H   0  0  0  0  0  0  0  0  0  0  0  0
   10.6590   -0.2830   22.3341 H   0  0  0  0  0  0  0  0  0  0  0  0
    7.5152   -1.4725   21.6370 H   0  0  0  0  0  0  0  0  0  0  0  0
    8.4085   -0.0770   18.7702 H   0  0  0  0  0  0  0  0  0  0  0  0
    5.2583    1.3772   17.4648 H   0  0  0  0  0  0  0  0  0  0  0  0
    4.4072    1.3979   19.4284 H   0  0  0  0  0  0  0  0  0  0  0  0
 20 21  2  0  0  0  0
 19 20  1  0  0  0  0
 21 22  1  0  0  0  0
 18 19  2  0  0  0  0
 22 23  2  0  0  0  0
 18 23  1  0  0  0  0
 17 18  1  0  0  0  0
 23 24  1  0  0  0  0
 15 16  2  0  0  0  0
 15 17  1  0  0  0  0
 14 15  1  0  0  0  0
  8 14  1  0  0  0  0
 12 13  2  0  0  0  0
  8 13  1  0  0  0  0
 11 12  1  0  0  0  0
  7  8  1  0  0  0  0
  8  9  1  0  0  0  0
 10 11  2  0  0  0  0
  6  7  3  0  0  0  0
  9 10  1  0  0  0  0
  5  6  1  0  0  0  0
  2  5  1  0  0  0  0
  2  3  2  0  0  0  0
  1  2  1  0  0  0  0
  2  4  2  0  0  0  0
  5 25  1  0  0  0  0
 10 26  1  0  0  0  0
 11 27  1  0  0  0  0
 12 28  1  0  0  0  0
 13 29  1  0  0  0  0
 14 30  1  0  0  0  0
 17 31  1  0  0  0  0
 19 32  1  0  0  0  0
 21 33  1  0  0  0  0
 22 34  1  0  0  0  0
M  END
> <Chemgauss4>
-12.977587

$$$$
