stable:False satoms:10 tatoms:24 sratio:0.4166666666666667
  -OEChem-08062417383D

 45 45  0     0  0  0  0  0  0999 V2000
   -5.7770   -5.3142  -25.7233 C   0  0  0  0  0  0  0  0  0  0  0  0
   -7.4531   -4.7472  -25.6337 S   0  0  0  0  0  0  0  0  0  0  0  0
   -8.3192   -5.9129  -25.5970 O   0  0  0  0  0  0  0  0  0  0  0  0
   -7.7401   -3.9369  -26.7776 O   0  0  0  0  0  0  0  0  0  0  0  0
   -7.5197   -3.9118  -24.2499 N   0  0  0  0  0  0  0  0  0  0  0  0
   -8.4666   -3.2414  -23.8685 C   0  0  0  0  0  0  0  0  0  0  0  0
   -8.9913   -2.2404  -23.3556 C   0  0  0  0  0  0  0  0  0  0  0  0
   -9.8568   -1.3044  -23.3319 C   0  0  0  0  0  0  0  0  0  0  0  0
  -10.5224   -0.3528  -24.4957 C   0  0  0  0  0  0  0  0  0  0  0  0
  -11.5004   -0.0587  -24.6305 C   0  0  0  0  0  0  0  0  0  0  0  0
  -12.7105   -0.5123  -23.8894 C   0  0  0  0  0  0  0  0  0  0  0  0
  -12.3607   -1.5318  -22.9558 C   0  0  0  0  0  0  0  0  0  0  0  0
  -11.5165   -1.9829  -22.6462 C   0  0  0  0  0  0  0  0  0  0  0  0
   -9.4269   -0.7360  -22.3418 C   0  0  0  0  0  0  0  0  0  0  0  0
   -8.8784   -0.0574  -21.3686 C   0  0  0  0  0  0  0  0  0  0  0  0
   -9.3820    0.9396  -21.0994 O   0  0  0  0  0  0  0  0  0  0  0  0
   -7.8269   -0.6144  -20.8580 N   0  0  0  0  0  0  0  0  0  0  0  0
   -7.1645   -0.0848  -19.9431 C   0  0  0  0  0  0  0  0  0  0  0  0
   -7.3517    0.1285  -18.6681 C   0  0  0  0  0  0  0  0  0  0  0  0
   -7.0112    0.5580  -17.5890 N   0  0  0  0  0  0  0  0  0  0  0  0
   -5.8329    1.1273  -17.9475 C   0  0  0  0  0  0  0  0  0  0  0  0
   -5.3408    1.0947  -19.0913 C   0  0  0  0  0  0  0  0  0  0  0  0
   -5.7570    0.5812  -20.2561 C   0  0  0  0  0  0  0  0  0  0  0  0
   -5.1068    0.6087  -21.7130 C   0  0  0  0  0  0  0  0  0  0  0  0
   -5.6362   -5.8997  -26.6439 H   0  0  0  0  0  0  0  0  0  0  0  0
   -5.0974   -4.4493  -25.7314 H   0  0  0  0  0  0  0  0  0  0  0  0
   -5.5565   -5.9457  -24.8501 H   0  0  0  0  0  0  0  0  0  0  0  0
   -6.7462   -3.2790  -24.2863 H   0  0  0  0  0  0  0  0  0  0  0  0
   -9.3162   -3.8621  -24.1119 H   0  0  0  0  0  0  0  0  0  0  0  0
   -8.4103   -2.0760  -22.4601 H   0  0  0  0  0  0  0  0  0  0  0  0
   -9.8271    0.0217  -25.2324 H   0  0  0  0  0  0  0  0  0  0  0  0
  -11.6701    0.6713  -25.4081 H   0  0  0  0  0  0  0  0  0  0  0  0
  -13.4466   -0.9102  -24.6036 H   0  0  0  0  0  0  0  0  0  0  0  0
  -13.1474    0.3408  -23.3496 H   0  0  0  0  0  0  0  0  0  0  0  0
  -13.2301   -1.9222  -22.4479 H   0  0  0  0  0  0  0  0  0  0  0  0
  -11.5620   -2.7551  -21.8925 H   0  0  0  0  0  0  0  0  0  0  0  0
  -10.5646   -1.6949  -23.0674 H   0  0  0  0  0  0  0  0  0  0  0  0
  -10.0946   -1.2634  -21.6766 H   0  0  0  0  0  0  0  0  0  0  0  0
   -7.5346   -1.5034  -21.2106 H   0  0  0  0  0  0  0  0  0  0  0  0
   -8.3203   -0.3086  -18.4752 H   0  0  0  0  0  0  0  0  0  0  0  0
   -5.2787    1.6494  -17.1816 H   0  0  0  0  0  0  0  0  0  0  0  0
   -4.3789    1.5814  -19.1575 H   0  0  0  0  0  0  0  0  0  0  0  0
   -4.4721   -0.2794  -21.8487 H   0  0  0  0  0  0  0  0  0  0  0  0
   -5.9045    0.6084  -22.4704 H   0  0  0  0  0  0  0  0  0  0  0  0
   -4.4956    1.5165  -21.8245 H   0  0  0  0  0  0  0  0  0  0  0  0
 20 21  2  0  0  0  0
 19 20  1  0  0  0  0
 21 22  1  0  0  0  0
 18 19  2  0  0  0  0
 22 23  2  0  0  0  0
 18 23  1  0  0  0  0
 17 18  1  0  0  0  0
 23 24  1  0  0  0  0
 15 16  2  0  0  0  0
 15 17  1  0  0  0  0
 14 15  1  0  0  0  0
  8 14  2  3  0  0  0
 12 13  2  0  0  0  0
 11 12  1  0  0  0  0
  7  8  1  0  0  0  0
  8  9  1  0  0  0  0
 10 11  1  0  0  0  0
  6  7  2  3  0  0  0
  5  6  1  0  0  0  0
  9 10  2  0  0  0  0
  2  5  1  0  0  0  0
  2  3  2  0  0  0  0
  1  2  1  0  0  0  0
  2  4  2  0  0  0  0
  1 25  1  0  0  0  0
  1 26  1  0  0  0  0
  1 27  1  0  0  0  0
  5 28  1  0  0  0  0
  6 29  1  0  0  0  0
  7 30  1  0  0  0  0
  9 31  1  0  0  0  0
 10 32  1  0  0  0  0
 11 33  1  0  0  0  0
 11 34  1  0  0  0  0
 12 35  1  0  0  0  0
 13 36  1  0  0  0  0
 13 37  1  0  0  0  0
 14 38  1  0  0  0  0
 17 39  1  0  0  0  0
 19 40  1  0  0  0  0
 21 41  1  0  0  0  0
 22 42  1  0  0  0  0
 24 43  1  0  0  0  0
 24 44  1  0  0  0  0
 24 45  1  0  0  0  0
M  END
> <Chemgauss4>
-12.832863

$$$$
