stable:False satoms:10 tatoms:24 sratio:0.4166666666666667
  -OEChem-08062417393D

 45 45  0     0  0  0  0  0  0999 V2000
    5.8969   -5.1880   25.9570 C   0  0  0  0  0  0  0  0  0  0  0  0
    7.5730   -4.6210   25.8674 S   0  0  0  0  0  0  0  0  0  0  0  0
    8.4391   -5.7867   25.8307 O   0  0  0  0  0  0  0  0  0  0  0  0
    7.8600   -3.8107   27.0112 O   0  0  0  0  0  0  0  0  0  0  0  0
    7.6396   -3.7856   24.4836 N   0  0  0  0  0  0  0  0  0  0  0  0
    8.5864   -3.1152   24.1022 C   0  0  0  0  0  0  0  0  0  0  0  0
    9.1112   -2.1142   23.5892 C   0  0  0  0  0  0  0  0  0  0  0  0
    9.9767   -1.1782   23.5655 C   0  0  0  0  0  0  0  0  0  0  0  0
   10.6423   -0.2266   24.7294 C   0  0  0  0  0  0  0  0  0  0  0  0
   11.6203    0.0675   24.8642 C   0  0  0  0  0  0  0  0  0  0  0  0
   12.8304   -0.3861   24.1231 C   0  0  0  0  0  0  0  0  0  0  0  0
   12.4805   -1.4056   23.1895 C   0  0  0  0  0  0  0  0  0  0  0  0
   11.6364   -1.8567   22.8798 C   0  0  0  0  0  0  0  0  0  0  0  0
    9.5468   -0.6098   22.5754 C   0  0  0  0  0  0  0  0  0  0  0  0
    8.9983    0.0688   21.6023 C   0  0  0  0  0  0  0  0  0  0  0  0
    9.5019    1.0658   21.3330 O   0  0  0  0  0  0  0  0  0  0  0  0
    7.9468   -0.4882   21.0917 N   0  0  0  0  0  0  0  0  0  0  0  0
    7.2844    0.0414   20.1768 C   0  0  0  0  0  0  0  0  0  0  0  0
    7.4716    0.2547   18.9017 C   0  0  0  0  0  0  0  0  0  0  0  0
    7.1311    0.6842   17.8226 N   0  0  0  0  0  0  0  0  0  0  0  0
    5.9528    1.2535   18.1812 C   0  0  0  0  0  0  0  0  0  0  0  0
    5.4607    1.2209   19.3250 C   0  0  0  0  0  0  0  0  0  0  0  0
    5.8769    0.7074   20.4898 C   0  0  0  0  0  0  0  0  0  0  0  0
    5.2267    0.7349   21.9466 C   0  0  0  0  0  0  0  0  0  0  0  0
    5.7561   -5.7735   26.8776 H   0  0  0  0  0  0  0  0  0  0  0  0
    5.2173   -4.3231   25.9651 H   0  0  0  0  0  0  0  0  0  0  0  0
    5.6764   -5.8195   25.0837 H   0  0  0  0  0  0  0  0  0  0  0  0
    6.8661   -3.1528   24.5200 H   0  0  0  0  0  0  0  0  0  0  0  0
    9.4361   -3.7359   24.3455 H   0  0  0  0  0  0  0  0  0  0  0  0
    8.5302   -1.9498   22.6938 H   0  0  0  0  0  0  0  0  0  0  0  0
    9.9470    0.1479   25.4661 H   0  0  0  0  0  0  0  0  0  0  0  0
   11.7900    0.7975   25.6418 H   0  0  0  0  0  0  0  0  0  0  0  0
   13.5664   -0.7840   24.8372 H   0  0  0  0  0  0  0  0  0  0  0  0
   13.2673    0.4670   23.5833 H   0  0  0  0  0  0  0  0  0  0  0  0
   13.3500   -1.7960   22.6815 H   0  0  0  0  0  0  0  0  0  0  0  0
   11.6819   -2.6289   22.1261 H   0  0  0  0  0  0  0  0  0  0  0  0
   10.6845   -1.5687   23.3011 H   0  0  0  0  0  0  0  0  0  0  0  0
   10.2145   -1.1372   21.9103 H   0  0  0  0  0  0  0  0  0  0  0  0
    7.6545   -1.3772   21.4443 H   0  0  0  0  0  0  0  0  0  0  0  0
    8.4401   -0.1825   18.7089 H   0  0  0  0  0  0  0  0  0  0  0  0
    5.3986    1.7756   17.4152 H   0  0  0  0  0  0  0  0  0  0  0  0
    4.4988    1.7076   19.3911 H   0  0  0  0  0  0  0  0  0  0  0  0
    4.5920   -0.1532   22.0823 H   0  0  0  0  0  0  0  0  0  0  0  0
    6.0244    0.7346   22.7041 H   0  0  0  0  0  0  0  0  0  0  0  0
    4.6155    1.6427   22.0582 H   0  0  0  0  0  0  0  0  0  0  0  0
 20 21  2  0  0  0  0
 19 20  1  0  0  0  0
 21 22  1  0  0  0  0
 18 19  2  0  0  0  0
 22 23  2  0  0  0  0
 18 23  1  0  0  0  0
 17 18  1  0  0  0  0
 23 24  1  0  0  0  0
 15 16  2  0  0  0  0
 15 17  1  0  0  0  0
 14 15  1  0  0  0  0
  8 14  2  3  0  0  0
 12 13  2  0  0  0  0
 11 12  1  0  0  0  0
  7  8  1  0  0  0  0
  8  9  1  0  0  0  0
 10 11  1  0  0  0  0
  6  7  2  3  0  0  0
  5  6  1  0  0  0  0
  9 10  2  0  0  0  0
  2  5  1  0  0  0  0
  2  3  2  0  0  0  0
  1  2  1  0  0  0  0
  2  4  2  0  0  0  0
  1 25  1  0  0  0  0
  1 26  1  0  0  0  0
  1 27  1  0  0  0  0
  5 28  1  0  0  0  0
  6 29  1  0  0  0  0
  7 30  1  0  0  0  0
  9 31  1  0  0  0  0
 10 32  1  0  0  0  0
 11 33  1  0  0  0  0
 11 34  1  0  0  0  0
 12 35  1  0  0  0  0
 13 36  1  0  0  0  0
 13 37  1  0  0  0  0
 14 38  1  0  0  0  0
 17 39  1  0  0  0  0
 19 40  1  0  0  0  0
 21 41  1  0  0  0  0
 22 42  1  0  0  0  0
 24 43  1  0  0  0  0
 24 44  1  0  0  0  0
 24 45  1  0  0  0  0
M  END
> <Chemgauss4>
-12.756767

$$$$
