stable:False satoms:18 tatoms:24 sratio:0.75
  -OEChem-07092417343D

 24 25  0     1  0  0  0  0  0999 V2000
    7.6120   -4.3381   26.5786 H   0  0  0  0  0  0  0  0  0  0  0  0
    7.6353   -4.3983   24.8379 H   0  0  0  0  0  0  0  0  0  0  0  0
    9.0633   -4.9570   25.7641 H   0  0  0  0  0  0  0  0  0  0  0  0
    8.8631   -2.2557   26.6619 O   0  0  0  0  0  0  0  0  0  0  0  0
    8.2713   -4.2314   25.6916 C   0  0  0  0  0  0  0  0  0  0  0  0
    8.9660   -2.8874   25.6205 C   0  0  0  0  0  0  0  0  0  0  0  0
    9.8125   -2.4596   24.5536 C   0  0  3  0  0  0  0  0  0  0  0  0
   10.3676    0.5509   21.9424 C   0  0  0  0  0  0  0  0  0  0  0  0
    9.3357   -0.3747   21.9611 C   0  0  3  0  0  0  0  0  0  0  0  0
   11.5566    0.2351   22.6788 C   0  0  0  0  0  0  0  0  0  0  0  0
   12.4511    0.8610   22.7326 H   0  0  0  0  0  0  0  0  0  0  0  0
   10.9671   -2.4715   24.2286 O   0  0  0  0  0  0  0  0  0  0  0  0
   11.5872   -0.9369   23.2055 N   0  0  0  0  0  0  0  0  0  0  0  0
    9.2925   -1.5190   22.4703 O   0  0  0  0  0  0  0  0  0  0  0  0
   10.3671   -1.5096   23.2706 C   0  0  2  0  0  0  0  0  0  0  0  0
   10.2585    1.4615   21.3601 H   0  0  0  0  0  0  0  0  0  0  0  0
    7.6454   -1.2318   20.8986 H   0  0  0  0  0  0  0  0  0  0  0  0
    7.9876   -0.2282   21.0924 C   0  3  0  0  0  0  0  0  0  0  0  0
    7.2221    0.1279   18.7081 H   0  0  0  0  0  0  0  0  0  0  0  0
    6.4790    0.3998   19.4769 C   0  0  0  0  0  0  0  0  0  0  0  0
    5.0925    1.2829   18.0703 H   0  0  0  0  0  0  0  0  0  0  0  0
    5.6640    1.2461   18.8914 C   0  0  0  0  0  2  0  0  0  0  0  0
    5.8343   -0.4208   19.8608 H   0  0  0  0  0  0  0  0  0  0  0  0
    7.2523    0.7647   20.7401 O   0  0  0  0  0  0  0  0  0  0  0  0
 21 22  1  0  0  0  0
 19 20  1  0  0  0  0
 20 22  1  0  0  0  0
 20 23  1  0  0  0  0
 20 24  1  0  0  0  0
 18 24  1  0  0  0  0
 17 18  1  0  0  0  0
  9 18  1  0  0  0  0
  8 16  1  0  0  0  0
  8  9  1  0  0  0  0
  8 10  2  0  0  0  0
  9 14  1  0  0  0  0
 14 15  1  0  0  0  0
 10 11  1  0  0  0  0
 10 13  1  0  0  0  0
 13 15  1  0  0  0  0
 12 15  1  0  0  0  0
  7 15  1  0  0  0  0
  7 12  1  0  0  0  0
  6  7  1  0  0  0  0
  2  5  1  0  0  0  0
  5  6  1  0  0  0  0
  4  6  2  0  0  0  0
  3  5  1  0  0  0  0
  1  5  1  0  0  0  0
M  CHG  1  18   1
M  END
> <Shapegauss>
-166.739655

$$$$
