stable:False satoms:18 tatoms:24 sratio:0.75
  -OEChem-08062400473D

 27 28  0     1  0  0  0  0  0999 V2000
   13.7446   -0.2302   25.6211 H   0  0  0  0  0  0  0  0  0  0  0  0
   13.2158   -1.7946   25.0668 H   0  0  0  0  0  0  0  0  0  0  0  0
   14.0979   -0.7086   23.9480 H   0  0  0  0  0  0  0  0  0  0  0  0
   11.8518    0.9190   24.6184 O   0  0  0  0  0  0  0  0  0  0  0  0
   13.3660   -0.7807   24.7343 C   0  0  0  0  0  0  0  0  0  0  0  0
   12.0988   -0.1854   24.1564 C   0  0  0  0  0  0  0  0  0  0  0  0
   11.3633   -0.7323   23.0620 C   0  0  3  0  0  0  0  0  0  0  0  0
    7.6681   -1.8963   21.9755 C   0  0  0  0  0  0  0  0  0  0  0  0
    8.5134   -2.5054   22.8899 C   0  0  3  0  0  0  0  0  0  0  0  0
    8.2502   -0.9738   21.0449 C   0  0  0  0  0  0  0  0  0  0  0  0
    7.7071   -0.4415   20.2598 H   0  0  0  0  0  0  0  0  0  0  0  0
   11.3009   -0.6668   21.8659 O   0  0  0  0  0  0  0  0  0  0  0  0
    9.5315   -0.8807   21.0851 N   0  3  0  0  0  0  0  0  0  0  0  0
    9.7604   -2.4417   22.9971 O   0  0  0  0  0  0  0  0  0  0  0  0
   10.0545   -1.3908   22.2196 C   0  0  2  0  0  0  0  0  0  0  0  0
    6.6117   -2.1495   21.9728 H   0  0  0  0  0  0  0  0  0  0  0  0
    8.0411   -3.6511   23.9185 C   0  0  0  0  0  2  0  0  0  0  0  0
    6.8794   -5.8976   23.9505 H   0  0  0  0  0  0  0  0  0  0  0  0
    6.8593   -5.3539   24.9103 C   0  0  0  0  0  0  0  0  0  0  0  0
    5.5115   -6.7485   25.8691 H   0  0  0  0  0  0  0  0  0  0  0  0
    5.8404   -5.8508   25.5722 C   0  0  0  0  0  2  0  0  0  0  0  0
    7.7408   -5.4825   25.5758 H   0  0  0  0  0  0  0  0  0  0  0  0
    6.9653   -3.8670   24.5867 O   0  0  0  0  0  0  0  0  0  0  0  0
   11.9172   -1.6827   23.0688 H   0  0  0  0  0  0  0  0  0  0  0  0
    8.3557   -1.7128   23.6361 H   0  0  0  0  0  0  0  0  0  0  0  0
    9.9132   -1.3769   20.3053 H   0  0  0  0  0  0  0  0  0  0  0  0
    9.7844    0.0848   21.0220 H   0  0  0  0  0  0  0  0  0  0  0  0
 20 21  1  0  0  0  0
 18 19  1  0  0  0  0
 19 21  1  0  0  0  0
 19 22  1  0  0  0  0
 19 23  1  0  0  0  0
 17 23  1  0  0  0  0
  9 17  1  0  0  0  0
  8 16  1  0  0  0  0
  8  9  1  0  0  0  0
  8 10  2  0  0  0  0
  9 14  1  0  0  0  0
 14 15  1  0  0  0  0
 10 11  1  0  0  0  0
 10 13  1  0  0  0  0
 13 15  1  0  0  0  0
 12 15  1  0  0  0  0
  7 15  1  0  0  0  0
  7 12  1  0  0  0  0
  6  7  1  0  0  0  0
  2  5  1  0  0  0  0
  5  6  1  0  0  0  0
  4  6  2  0  0  0  0
  3  5  1  0  0  0  0
  1  5  1  0  0  0  0
  7 24  1  0  0  0  0
  9 25  1  0  0  0  0
 13 26  1  0  0  0  0
 13 27  1  0  0  0  0
M  CHG  1  13   1
M  END
> <Chemgauss4>
-6.358506

$$$$
