stable:False satoms:18 tatoms:24 sratio:0.75
  -OEChem-08062400473D

 27 28  0     1  0  0  0  0  0999 V2000
  -14.0062   -0.2617  -25.4026 H   0  0  0  0  0  0  0  0  0  0  0  0
  -13.4482   -1.8082  -24.8272 H   0  0  0  0  0  0  0  0  0  0  0  0
  -14.3050   -0.7019  -23.7086 H   0  0  0  0  0  0  0  0  0  0  0  0
  -12.0935    0.9256  -24.4857 O   0  0  0  0  0  0  0  0  0  0  0  0
  -13.5966   -0.7877  -24.5147 C   0  0  0  0  0  0  0  0  0  0  0  0
  -12.3174   -0.1691  -23.9901 C   0  0  0  0  0  0  0  0  0  0  0  0
  -11.5448   -0.6839  -22.9057 C   0  0  3  0  0  0  0  0  0  0  0  0
   -7.8091   -1.7936  -21.9042 C   0  0  0  0  0  0  0  0  0  0  0  0
   -8.6766   -2.4310  -22.7777 C   0  0  3  0  0  0  0  0  0  0  0  0
   -8.3704   -0.8532  -20.9788 C   0  0  0  0  0  0  0  0  0  0  0  0
   -7.8083   -0.2979  -20.2235 H   0  0  0  0  0  0  0  0  0  0  0  0
  -11.4469   -0.5888  -21.7139 O   0  0  0  0  0  0  0  0  0  0  0  0
   -9.6530   -0.7705  -20.9823 N   0  3  0  0  0  0  0  0  0  0  0  0
   -9.9268   -2.3792  -22.8485 O   0  0  0  0  0  0  0  0  0  0  0  0
  -10.2058   -1.3119  -22.0879 C   0  0  2  0  0  0  0  0  0  0  0  0
   -6.7511   -2.0388  -21.9275 H   0  0  0  0  0  0  0  0  0  0  0  0
   -8.2262   -3.5977  -23.7923 C   0  0  0  0  0  2  0  0  0  0  0  0
   -7.0476   -5.8356  -23.8056 H   0  0  0  0  0  0  0  0  0  0  0  0
   -7.0609   -5.3152  -24.7784 C   0  0  0  0  0  0  0  0  0  0  0  0
   -5.7313   -6.7226  -25.7438 H   0  0  0  0  0  0  0  0  0  0  0  0
   -6.0584   -5.8204  -25.4588 C   0  0  0  0  0  2  0  0  0  0  0  0
   -7.9610   -5.4664  -25.4135 H   0  0  0  0  0  0  0  0  0  0  0  0
   -7.1692   -3.8217  -24.4875 O   0  0  0  0  0  0  0  0  0  0  0  0
  -12.0909   -1.6382  -22.8728 H   0  0  0  0  0  0  0  0  0  0  0  0
   -8.5480   -1.6555  -23.5471 H   0  0  0  0  0  0  0  0  0  0  0  0
  -10.0069   -1.2506  -20.1796 H   0  0  0  0  0  0  0  0  0  0  0  0
   -9.9118    0.1942  -20.9347 H   0  0  0  0  0  0  0  0  0  0  0  0
 20 21  1  0  0  0  0
 18 19  1  0  0  0  0
 19 21  1  0  0  0  0
 19 22  1  0  0  0  0
 19 23  1  0  0  0  0
 17 23  1  0  0  0  0
  9 17  1  0  0  0  0
  8 16  1  0  0  0  0
  8  9  1  0  0  0  0
  8 10  2  0  0  0  0
  9 14  1  0  0  0  0
 14 15  1  0  0  0  0
 10 11  1  0  0  0  0
 10 13  1  0  0  0  0
 13 15  1  0  0  0  0
 12 15  1  0  0  0  0
  7 15  1  0  0  0  0
  7 12  1  0  0  0  0
  6  7  1  0  0  0  0
  2  5  1  0  0  0  0
  5  6  1  0  0  0  0
  4  6  2  0  0  0  0
  3  5  1  0  0  0  0
  1  5  1  0  0  0  0
  7 24  1  0  0  0  0
  9 25  1  0  0  0  0
 13 26  1  0  0  0  0
 13 27  1  0  0  0  0
M  CHG  1  13   1
M  END
> <Chemgauss4>
-6.591547

$$$$
