stable:False satoms:21 tatoms:24 sratio:0.875
  -OEChem-07092417383D

 24 24  0     1  0  0  0  0  0999 V2000
    7.0631   -4.6430   26.0258 H   0  0  0  0  0  0  0  0  0  0  0  0
    8.0999   -4.2607   25.9498 C   0  0  0  0  0  0  0  0  0  0  0  0
    8.7784   -5.1132   26.0783 H   0  0  0  0  0  0  0  0  0  0  0  0
    8.2680   -3.5406   26.7728 H   0  0  0  0  0  0  0  0  0  0  0  0
    8.3122   -3.6899   24.6640 N   0  0  0  0  0  0  0  0  0  0  0  0
    8.9524   -2.8484   24.1152 C   0  0  0  0  0  0  0  0  0  0  0  0
    9.5408   -2.0484   23.3594 C   0  0  0  0  0  0  0  0  0  0  0  0
   11.6063   -0.9682   24.2686 H   0  0  0  0  0  0  0  0  0  0  0  0
   11.4289    0.3757   23.5115 H   0  0  0  0  0  0  0  0  0  0  0  0
   12.9616    0.2292   24.3738 H   0  0  0  0  0  0  0  0  0  0  0  0
   12.2309   -0.2685   23.7465 C   0  0  0  0  0  0  0  0  0  0  0  0
   12.7526   -0.7493   22.9094 H   0  0  0  0  0  0  0  0  0  0  0  0
   10.8183   -1.7524   22.5349 O   0  0  0  0  0  0  0  0  0  0  0  0
    9.7615   -1.1732   22.4469 C   0  0  3  0  0  0  0  0  0  0  0  0
    9.0263   -0.1548   21.4450 C   0  0  0  0  0  0  0  0  0  0  0  0
    9.5776    0.8067   21.0201 O   0  0  0  0  0  0  0  0  0  0  0  0
    7.7895   -0.5901   21.1655 N   0  0  0  0  0  0  0  0  0  0  0  0
    7.0253   -0.0453   20.2115 C   0  0  0  0  0  0  0  0  0  0  0  0
    7.3097   -0.0065   18.8876 N   0  0  0  0  0  0  0  0  0  0  0  0
    6.5095    0.4295   18.0314 N   0  0  0  0  0  0  0  0  0  0  0  0
    5.4312    0.9427   18.2123 N   0  0  0  0  0  0  0  0  0  0  0  0
    5.3214    0.8394   19.4482 C   0  0  0  0  0  0  0  0  0  0  0  0
    5.7305    0.4598   20.5669 C   0  0  0  0  0  0  0  0  0  0  0  0
    5.2883    0.4796   21.5511 H   0  0  0  0  0  0  0  0  0  0  0  0
 20 21  2  0  0  0  0
 19 20  1  0  0  0  0
 21 22  1  0  0  0  0
 18 19  2  0  0  0  0
 22 23  2  0  0  0  0
 18 23  1  0  0  0  0
 17 18  1  0  0  0  0
 23 24  1  0  0  0  0
 15 16  2  0  0  0  0
 15 17  1  0  0  0  0
 14 15  1  0  0  0  0
 13 14  1  0  0  0  0
  7 14  1  0  0  0  0
  7 13  1  0  0  0  0
 11 12  1  0  0  0  0
  6  7  2  3  0  0  0
  9 11  1  0  0  0  0
  8 11  1  0  0  0  0
 10 11  1  0  0  0  0
  5  6  1  0  0  0  0
  2  5  1  0  0  0  0
  1  2  1  0  0  0  0
  2  3  1  0  0  0  0
  2  4  1  0  0  0  0
M  END
> <Shapegauss>
-195.653259

$$$$
