
 OpenBabel07202414153D

 42 45  0  0  1  0  0  0  0  0999 V2000
    3.1207   -0.3241   -1.3516 C   0  0  0  0  0  0  0  0  0  0  0  0
    2.8440   -0.2088    0.1474 C   0  0  1  0  0  0  0  0  0  0  0  0
    3.3363   -1.3787    0.9914 C   0  0  0  0  0  0  0  0  0  0  0  0
    4.8650   -1.4576    1.0139 C   0  0  2  0  0  0  0  0  0  0  0  0
    5.3241   -2.3357    2.1905 C   0  0  0  0  0  0  0  0  0  0  0  0
    5.8952   -3.4004    1.9842 O   0  0  0  0  0  0  0  0  0  0  0  0
    5.0435   -1.7959    3.4365 N   0  0  0  0  0  0  0  0  0  0  0  0
    5.4587   -2.3072    4.6943 C   0  0  0  0  0  0  0  0  0  0  0  0
    5.9660   -3.5957    4.8521 C   0  0  0  0  0  0  0  0  0  0  0  0
    6.5812   -4.0423    5.9712 N   0  0  0  0  0  0  0  0  0  0  0  0
    6.6099   -3.1938    7.0179 C   0  0  0  0  0  0  0  0  0  0  0  0
    5.9445   -1.9641    7.0460 C   0  0  0  0  0  0  0  0  0  0  0  0
    5.8411   -1.2348    8.2489 C   0  0  0  0  0  0  0  0  0  0  0  0
    5.1651   -0.0176    8.2807 C   0  0  0  0  0  0  0  0  0  0  0  0
    4.6632    0.5141    7.1032 C   0  0  0  0  0  0  0  0  0  0  0  0
    4.7800   -0.1955    5.9044 C   0  0  0  0  0  0  0  0  0  0  0  0
    5.3850   -1.4804    5.8530 C   0  0  0  0  0  0  0  0  0  0  0  0
    5.4906   -0.0756    1.0290 C   0  0  0  0  0  0  0  0  0  0  0  0
    6.8809    0.0803    1.1657 C   0  0  0  0  0  0  0  0  0  0  0  0
    7.4500    1.3552    1.1806 C   0  0  0  0  0  0  0  0  0  0  0  0
    9.1535    1.5281    1.3462 Cl  0  0  0  0  0  0  0  0  0  0  0  0
    6.6496    2.4879    1.0618 C   0  0  0  0  0  0  0  0  0  0  0  0
    5.2721    2.3423    0.9029 C   0  0  0  0  0  0  0  0  0  0  0  0
    4.7017    1.0689    0.8632 C   0  0  0  0  0  0  0  0  0  0  0  0
    3.3498    1.0324    0.6579 O   0  0  0  0  0  0  0  0  0  0  0  0
    2.6884   -1.2397   -1.7653 H   0  0  0  0  0  0  0  0  0  0  0  0
    4.1906   -0.3098   -1.5822 H   0  0  0  0  0  0  0  0  0  0  0  0
    2.6844    0.5340   -1.8757 H   0  0  0  0  0  0  0  0  0  0  0  0
    1.7548   -0.1566    0.2667 H   0  0  0  0  0  0  0  0  0  0  0  0
    2.9142   -2.3278    0.6400 H   0  0  0  0  0  0  0  0  0  0  0  0
    2.9531   -1.2312    2.0099 H   0  0  0  0  0  0  0  0  0  0  0  0
    5.1999   -1.9494    0.0901 H   0  0  0  0  0  0  0  0  0  0  0  0
    4.7132   -0.8420    3.4300 H   0  0  0  0  0  0  0  0  0  0  0  0
    5.8880   -4.3482    4.0735 H   0  0  0  0  0  0  0  0  0  0  0  0
    7.1971   -3.5446    7.8658 H   0  0  0  0  0  0  0  0  0  0  0  0
    6.2308   -1.6404    9.1827 H   0  0  0  0  0  0  0  0  0  0  0  0
    5.0276    0.5119    9.2236 H   0  0  0  0  0  0  0  0  0  0  0  0
    4.1533    1.4778    7.1144 H   0  0  0  0  0  0  0  0  0  0  0  0
    4.3548    0.2683    5.0231 H   0  0  0  0  0  0  0  0  0  0  0  0
    7.5268   -0.7919    1.2584 H   0  0  0  0  0  0  0  0  0  0  0  0
    7.0893    3.4813    1.0778 H   0  0  0  0  0  0  0  0  0  0  0  0
    4.6436    3.2224    0.7855 H   0  0  0  0  0  0  0  0  0  0  0  0
  1 26  1  0  0  0  0
  1 27  1  0  0  0  0
  1 28  1  0  0  0  0
  2  3  1  0  0  0  0
  2 25  1  0  0  0  0
  2  1  1  0  0  0  0
  2 29  1  1  0  0  0
  3  4  1  0  0  0  0
  3 30  1  0  0  0  0
  3 31  1  0  0  0  0
  4 18  1  0  0  0  0
  4  5  1  0  0  0  0
  4 32  1  6  0  0  0
  5  6  2  0  0  0  0
  5  7  1  0  0  0  0
  7  8  1  0  0  0  0
  7 33  1  0  0  0  0
  8  9  1  0  0  0  0
  8 17  2  0  0  0  0
  9 10  2  0  0  0  0
  9 34  1  0  0  0  0
 10 11  1  0  0  0  0
 11 12  2  0  0  0  0
 11 35  1  0  0  0  0
 12 13  1  0  0  0  0
 12 17  1  0  0  0  0
 13 14  2  0  0  0  0
 13 36  1  0  0  0  0
 14 15  1  0  0  0  0
 14 37  1  0  0  0  0
 15 16  2  0  0  0  0
 15 38  1  0  0  0  0
 16 17  1  0  0  0  0
 16 39  1  0  0  0  0
 18 19  1  0  0  0  0
 18 24  2  0  0  0  0
 19 20  2  0  0  0  0
 19 40  1  0  0  0  0
 20 21  1  0  0  0  0
 20 22  1  0  0  0  0
 22 23  2  0  0  0  0
 22 41  1  0  0  0  0
 23 24  1  0  0  0  0
 23 42  1  0  0  0  0
 24 25  1  0  0  0  0
M  END
$$$$
