stable:False satoms:6 tatoms:24 sratio:0.25
  -OEChem-07092417503D

 24 26  0     1  0  0  0  0  0999 V2000
    6.5853   -4.8352   26.4110 C   0  0  0  0  0  0  0  0  0  0  0  0
    8.2025   -4.3046   26.1079 S   0  0  0  0  0  0  0  0  0  0  0  0
    9.0457   -5.4602   26.0377 O   0  0  0  0  0  0  0  0  0  0  0  0
    8.6063   -3.4298   27.1484 O   0  0  0  0  0  0  0  0  0  0  0  0
    8.0974   -3.5434   24.6698 N   0  0  0  0  0  0  0  0  0  0  0  0
    8.9588   -2.9334   24.1425 C   0  0  0  0  0  0  0  0  0  0  0  0
    9.4347   -1.9283   23.4699 C   0  0  0  0  0  0  0  0  0  0  0  0
   10.3473   -1.1869   23.2300 C   0  0  1  0  0  0  0  0  0  0  0  0
   11.0372    0.0366   24.3276 C   0  0  0  0  0  0  0  0  0  0  0  0
   12.0084    0.2904   24.2767 C   0  0  0  0  0  0  0  0  0  0  0  0
   13.1582   -0.2444   23.4134 C   0  0  0  0  0  0  0  0  0  0  0  0
   12.7317   -1.2600   22.6793 C   0  0  0  0  0  0  0  0  0  0  0  0
   11.7968   -1.7492   22.5566 C   0  0  0  0  0  0  0  0  0  0  0  0
    9.7204   -0.6048   22.3906 C   0  0  1  0  0  0  0  0  0  0  0  0
    9.0870    0.0491   21.3835 C   0  0  0  0  0  0  0  0  0  0  0  0
    9.5819    0.9924   20.9964 O   0  0  0  0  0  0  0  0  0  0  0  0
    7.9849   -0.5716   21.0451 N   0  0  0  0  0  0  0  0  0  0  0  0
    7.2355   -0.1028   20.1652 C   0  0  0  0  0  0  0  0  0  0  0  0
    7.2103    0.0068   18.8740 C   0  0  0  0  0  0  0  0  0  0  0  0
    6.7766    0.2970   17.7977 N   0  0  0  0  0  0  0  0  0  0  0  0
    5.5725    0.9227   18.2294 C   0  0  0  0  0  0  0  0  0  0  0  0
    5.2398    0.9952   19.4290 C   0  0  0  0  0  0  0  0  0  0  0  0
    5.8310    0.5658   20.5299 C   0  0  0  0  0  0  0  0  0  0  0  0
    5.3342    0.7086   21.9853 C   0  0  0  0  0  0  0  0  0  0  0  0
 20 21  2  0  0  0  0
 19 20  1  0  0  0  0
 21 22  1  0  0  0  0
 18 19  2  0  0  0  0
 22 23  2  0  0  0  0
 18 23  1  0  0  0  0
 17 18  1  0  0  0  0
 23 24  1  0  0  0  0
 15 16  2  0  0  0  0
 15 17  1  0  0  0  0
 14 15  1  0  0  0  0
  8 14  1  0  0  0  0
  7 14  1  0  0  0  0
 12 13  1  0  0  0  0
  8 13  1  0  0  0  0
 11 12  2  0  0  0  0
  7  8  1  0  0  0  0
  8  9  1  0  0  0  0
 10 11  1  0  0  0  0
  6  7  2  3  0  0  0
  5  6  1  0  0  0  0
  9 10  2  0  0  0  0
  2  5  1  0  0  0  0
  2  3  2  0  0  0  0
  1  2  1  0  0  0  0
  2  4  2  0  0  0  0
M  END
> <Shapegauss>
-286.492126

$$$$
