stable:False satoms:6 tatoms:24 sratio:0.25
  -OEChem-08062416113D

 43 45  0     1  0  0  0  0  0999 V2000
    6.2081   -5.1875   26.2605 C   0  0  0  0  0  0  0  0  0  0  0  0
    7.8138   -4.5544   26.1619 S   0  0  0  0  0  0  0  0  0  0  0  0
    8.7294   -5.6557   26.1727 O   0  0  0  0  0  0  0  0  0  0  0  0
    8.0369   -3.6831   27.2582 O   0  0  0  0  0  0  0  0  0  0  0  0
    7.8323   -3.7656   24.7350 N   0  0  0  0  0  0  0  0  0  0  0  0
    8.7105   -3.0926   24.3250 C   0  0  0  0  0  0  0  0  0  0  0  0
    9.1992   -2.0447   23.7316 C   0  0  0  0  0  0  0  0  0  0  0  0
   10.0861   -1.2447   23.6153 C   0  0  1  0  0  0  0  0  0  0  0  0
   10.5644   -0.0098   24.8085 C   0  0  0  0  0  0  0  0  0  0  0  0
   11.5172    0.3025   24.8783 C   0  0  0  0  0  0  0  0  0  0  0  0
   12.7918   -0.1416   24.1493 C   0  0  0  0  0  0  0  0  0  0  0  0
   12.5187   -1.1623   23.3519 C   0  0  0  0  0  0  0  0  0  0  0  0
   11.6370   -1.7031   23.1100 C   0  0  0  0  0  0  0  0  0  0  0  0
    9.5278   -0.6804   22.7173 C   0  0  1  0  0  0  0  0  0  0  0  0
    8.9785   -0.0407   21.6533 C   0  0  0  0  0  0  0  0  0  0  0  0
    9.4562    0.9397   21.3446 O   0  0  0  0  0  0  0  0  0  0  0  0
    7.9646   -0.7172   21.1751 N   0  0  0  0  0  0  0  0  0  0  0  0
    7.2968   -0.2723   20.2203 C   0  0  0  0  0  0  0  0  0  0  0  0
    7.4175   -0.1326   18.9374 C   0  0  0  0  0  0  0  0  0  0  0  0
    7.0968    0.1578   17.8223 N   0  0  0  0  0  0  0  0  0  0  0  0
    5.8137    0.7000   18.1180 C   0  0  0  0  0  0  0  0  0  0  0  0
    5.3378    0.7230   19.2704 C   0  0  0  0  0  0  0  0  0  0  0  0
    5.8203    0.3025   20.4263 C   0  0  0  0  0  0  0  0  0  0  0  0
    5.1473    0.3795   21.8143 C   0  0  0  0  0  0  0  0  0  0  0  0
    6.0906   -5.7455   27.2011 H   0  0  0  0  0  0  0  0  0  0  0  0
    5.4851   -4.3590   26.2330 H   0  0  0  0  0  0  0  0  0  0  0  0
    6.0267   -5.8608   25.4097 H   0  0  0  0  0  0  0  0  0  0  0  0
    7.0316   -3.1669   24.7563 H   0  0  0  0  0  0  0  0  0  0  0  0
    9.5927   -3.6580   24.5863 H   0  0  0  0  0  0  0  0  0  0  0  0
    9.8183    0.4097   25.4671 H   0  0  0  0  0  0  0  0  0  0  0  0
   11.6717    1.0940   25.5967 H   0  0  0  0  0  0  0  0  0  0  0  0
   13.7654    0.3105   24.2685 H   0  0  0  0  0  0  0  0  0  0  0  0
   13.3898   -1.5283   22.8288 H   0  0  0  0  0  0  0  0  0  0  0  0
   11.5970   -1.7354   22.0112 H   0  0  0  0  0  0  0  0  0  0  0  0
   11.7917   -2.7194   23.5013 H   0  0  0  0  0  0  0  0  0  0  0  0
    9.0137   -0.0082   23.4201 H   0  0  0  0  0  0  0  0  0  0  0  0
    7.7234   -1.5995   21.5793 H   0  0  0  0  0  0  0  0  0  0  0  0
    8.4181   -0.5064   18.7782 H   0  0  0  0  0  0  0  0  0  0  0  0
    5.2270    1.1092   17.3088 H   0  0  0  0  0  0  0  0  0  0  0  0
    4.3550    1.1660   19.3353 H   0  0  0  0  0  0  0  0  0  0  0  0
    4.5786   -0.5439   21.9984 H   0  0  0  0  0  0  0  0  0  0  0  0
    5.9187    0.4957   22.5898 H   0  0  0  0  0  0  0  0  0  0  0  0
    4.4652    1.2420   21.8435 H   0  0  0  0  0  0  0  0  0  0  0  0
 20 21  2  0  0  0  0
 19 20  1  0  0  0  0
 21 22  1  0  0  0  0
 18 19  2  0  0  0  0
 22 23  2  0  0  0  0
 18 23  1  0  0  0  0
 17 18  1  0  0  0  0
 23 24  1  0  0  0  0
 15 16  2  0  0  0  0
 15 17  1  0  0  0  0
 14 15  1  0  0  0  0
  8 14  1  0  0  0  0
  7 14  1  0  0  0  0
 12 13  1  0  0  0  0
  8 13  1  0  0  0  0
 11 12  2  0  0  0  0
  7  8  1  0  0  0  0
  8  9  1  0  0  0  0
 10 11  1  0  0  0  0
  6  7  2  3  0  0  0
  5  6  1  0  0  0  0
  9 10  2  0  0  0  0
  2  5  1  0  0  0  0
  2  3  2  0  0  0  0
  1  2  1  0  0  0  0
  2  4  2  0  0  0  0
  1 25  1  0  0  0  0
  1 26  1  0  0  0  0
  1 27  1  0  0  0  0
  5 28  1  0  0  0  0
  6 29  1  0  0  0  0
  9 30  1  0  0  0  0
 10 31  1  0  0  0  0
 11 32  1  0  0  0  0
 12 33  1  0  0  0  0
 13 34  1  0  0  0  0
 13 35  1  0  0  0  0
 14 36  1  0  0  0  0
 17 37  1  0  0  0  0
 19 38  1  0  0  0  0
 21 39  1  0  0  0  0
 22 40  1  0  0  0  0
 24 41  1  0  0  0  0
 24 42  1  0  0  0  0
 24 43  1  0  0  0  0
M  END
> <Chemgauss4>
-12.787999

$$$$
