stable:False satoms:6 tatoms:24 sratio:0.25
  -OEChem-08062416113D

 43 45  0     1  0  0  0  0  0999 V2000
   -6.6933   -5.3898  -26.1848 C   0  0  0  0  0  0  0  0  0  0  0  0
   -8.2967   -4.7725  -25.9931 S   0  0  0  0  0  0  0  0  0  0  0  0
   -9.1967   -5.8840  -25.9163 O   0  0  0  0  0  0  0  0  0  0  0  0
   -8.6040   -3.9307  -27.0921 O   0  0  0  0  0  0  0  0  0  0  0  0
   -8.2295   -3.9495  -24.5872 N   0  0  0  0  0  0  0  0  0  0  0  0
   -9.0867   -3.2766  -24.1349 C   0  0  0  0  0  0  0  0  0  0  0  0
   -9.5480   -2.2202  -23.5347 C   0  0  0  0  0  0  0  0  0  0  0  0
  -10.4352   -1.4275  -23.3777 C   0  0  1  0  0  0  0  0  0  0  0  0
  -11.0083   -0.2274  -24.5647 C   0  0  0  0  0  0  0  0  0  0  0  0
  -11.9676    0.0723  -24.5775 C   0  0  0  0  0  0  0  0  0  0  0  0
  -13.1846   -0.3681  -23.7539 C   0  0  0  0  0  0  0  0  0  0  0  0
  -12.8456   -1.3660  -22.9530 C   0  0  0  0  0  0  0  0  0  0  0  0
  -11.9427   -1.8908  -22.7585 C   0  0  0  0  0  0  0  0  0  0  0  0
   -9.8252   -0.8353  -22.5330 C   0  0  1  0  0  0  0  0  0  0  0  0
   -9.2140   -0.1638  -21.5238 C   0  0  0  0  0  0  0  0  0  0  0  0
   -9.6824    0.8183  -21.2067 O   0  0  0  0  0  0  0  0  0  0  0  0
   -8.1617   -0.8171  -21.0991 N   0  0  0  0  0  0  0  0  0  0  0  0
   -7.4370   -0.3416  -20.2023 C   0  0  0  0  0  0  0  0  0  0  0  0
   -7.4732   -0.1721  -18.9179 C   0  0  0  0  0  0  0  0  0  0  0  0
   -7.0821    0.1489  -17.8340 N   0  0  0  0  0  0  0  0  0  0  0  0
   -5.8288    0.6981  -18.2282 C   0  0  0  0  0  0  0  0  0  0  0  0
   -5.4317    0.6983  -19.4103 C   0  0  0  0  0  0  0  0  0  0  0  0
   -5.9852    0.2445  -20.5208 C   0  0  0  0  0  0  0  0  0  0  0  0
   -5.4079    0.2953  -21.9524 C   0  0  0  0  0  0  0  0  0  0  0  0
   -6.6320   -5.9692  -27.1179 H   0  0  0  0  0  0  0  0  0  0  0  0
   -5.9807   -4.5528  -26.2257 H   0  0  0  0  0  0  0  0  0  0  0  0
   -6.4466   -6.0402  -25.3327 H   0  0  0  0  0  0  0  0  0  0  0  0
   -7.4398   -3.3425  -24.6765 H   0  0  0  0  0  0  0  0  0  0  0  0
   -9.9772   -3.8581  -24.3228 H   0  0  0  0  0  0  0  0  0  0  0  0
  -10.3135    0.1842  -25.2818 H   0  0  0  0  0  0  0  0  0  0  0  0
  -12.1800    0.8443  -25.3023 H   0  0  0  0  0  0  0  0  0  0  0  0
  -14.1697    0.0700  -23.8179 H   0  0  0  0  0  0  0  0  0  0  0  0
  -13.6748   -1.7289  -22.3639 H   0  0  0  0  0  0  0  0  0  0  0  0
  -11.8287   -1.8959  -21.6644 H   0  0  0  0  0  0  0  0  0  0  0  0
  -12.1103   -2.9180  -23.1145 H   0  0  0  0  0  0  0  0  0  0  0  0
   -9.3680   -0.1747  -23.2844 H   0  0  0  0  0  0  0  0  0  0  0  0
   -7.9369   -1.7062  -21.4979 H   0  0  0  0  0  0  0  0  0  0  0  0
   -8.4560   -0.5531  -18.6827 H   0  0  0  0  0  0  0  0  0  0  0  0
   -5.1944    1.1334  -17.4702 H   0  0  0  0  0  0  0  0  0  0  0  0
   -4.4612    1.1507  -19.5516 H   0  0  0  0  0  0  0  0  0  0  0  0
   -4.8411   -0.6259  -22.1527 H   0  0  0  0  0  0  0  0  0  0  0  0
   -6.2310    0.3839  -22.6767 H   0  0  0  0  0  0  0  0  0  0  0  0
   -4.7404    1.1644  -22.0478 H   0  0  0  0  0  0  0  0  0  0  0  0
 20 21  2  0  0  0  0
 19 20  1  0  0  0  0
 21 22  1  0  0  0  0
 18 19  2  0  0  0  0
 22 23  2  0  0  0  0
 18 23  1  0  0  0  0
 17 18  1  0  0  0  0
 23 24  1  0  0  0  0
 15 16  2  0  0  0  0
 15 17  1  0  0  0  0
 14 15  1  0  0  0  0
  8 14  1  0  0  0  0
  7 14  1  0  0  0  0
 12 13  1  0  0  0  0
  8 13  1  0  0  0  0
 11 12  2  0  0  0  0
  7  8  1  0  0  0  0
  8  9  1  0  0  0  0
 10 11  1  0  0  0  0
  6  7  2  3  0  0  0
  5  6  1  0  0  0  0
  9 10  2  0  0  0  0
  2  5  1  0  0  0  0
  2  3  2  0  0  0  0
  1  2  1  0  0  0  0
  2  4  2  0  0  0  0
  1 25  1  0  0  0  0
  1 26  1  0  0  0  0
  1 27  1  0  0  0  0
  5 28  1  0  0  0  0
  6 29  1  0  0  0  0
  9 30  1  0  0  0  0
 10 31  1  0  0  0  0
 11 32  1  0  0  0  0
 12 33  1  0  0  0  0
 13 34  1  0  0  0  0
 13 35  1  0  0  0  0
 14 36  1  0  0  0  0
 17 37  1  0  0  0  0
 19 38  1  0  0  0  0
 21 39  1  0  0  0  0
 22 40  1  0  0  0  0
 24 41  1  0  0  0  0
 24 42  1  0  0  0  0
 24 43  1  0  0  0  0
M  END
> <Chemgauss4>
-13.005862

$$$$
