MODEL 1
REMARK VINA RESULT:    -4.669      0.000      0.000
REMARK INTER + INTRA:          -4.990
REMARK INTER:                  -4.942
REMARK INTRA:                  -0.048
REMARK UNBOUND:                -0.048
REMARK  1 active torsions:
REMARK  status: ('A' for Active; 'I' for Inactive)
REMARK    1  A    between atoms: C_5  and  C_7 
ROOT
HETATM    1  H   UNK A   1      23.294  -0.245  25.394  1.00  0.00     0.154 HD
HETATM    2  C   UNK A   1      20.952  -0.653  24.357  1.00  0.00     0.011 C 
HETATM    3  C   UNK A   1      21.271  -1.559  25.543  1.00  0.00     0.001 C 
HETATM    4  C   UNK A   1      21.985  -0.755  26.637  1.00  0.00     0.119 C 
HETATM    5  C   UNK A   1      23.339  -3.370  25.658  1.00  0.00     0.180 C 
HETATM    6  N   UNK A   1      23.380  -3.108  27.092  1.00  0.00    -0.393 N 
HETATM    7  C   UNK A   1      22.021  -2.907  25.055  1.00  0.00     0.041 C 
HETATM    8  H   UNK A   1      22.738  -3.787  27.492  1.00  0.00     0.155 HD
HETATM    9  N   UNK A   1      23.388  -0.850  26.252  1.00  0.00    -0.406 N 
HETATM   10  C   UNK A   0      23.931  -1.826  27.273  1.00  0.00     0.233 C 
ENDROOT
BRANCH   5  11
HETATM   11  C   UNK A   1      23.468  -4.910  25.410  1.00  0.00     0.196 C 
HETATM   12  O   UNK A   1      23.472  -5.681  26.363  1.00  0.00    -0.646 OA
HETATM   13  O   UNK A   1      23.529  -5.300  24.218  1.00  0.00    -0.646 OA
ENDBRANCH   5  11
TORSDOF 1
ENDMDL
MODEL 2
REMARK VINA RESULT:    -4.364     11.543     12.754
REMARK INTER + INTRA:          -4.667
REMARK INTER:                  -4.625
REMARK INTRA:                  -0.043
REMARK UNBOUND:                -0.048
REMARK  1 active torsions:
REMARK  status: ('A' for Active; 'I' for Inactive)
REMARK    1  A    between atoms: C_5  and  C_7 
ROOT
HETATM    1  H   UNK A   1       9.345   2.164  25.874  1.00  0.00     0.154 HD
HETATM    2  C   UNK A   1      10.119   3.718  23.946  1.00  0.00     0.011 C 
HETATM    3  C   UNK A   1       9.946   2.259  23.534  1.00  0.00     0.001 C 
HETATM    4  C   UNK A   1       8.684   1.678  24.187  1.00  0.00     0.119 C 
HETATM    5  C   UNK A   1      11.346   0.130  24.572  1.00  0.00     0.180 C 
HETATM    6  N   UNK A   1      10.153  -0.670  24.324  1.00  0.00    -0.393 N 
HETATM    7  C   UNK A   1      11.312   1.425  23.774  1.00  0.00     0.041 C 
HETATM    8  H   UNK A   1      10.277  -1.024  23.379  1.00  0.00     0.155 HD
HETATM    9  N   UNK A   1       9.171   1.204  25.476  1.00  0.00    -0.406 N 
HETATM   10  C   UNK A   0       9.186  -0.296  25.276  1.00  0.00     0.233 C 
ENDROOT
BRANCH   5  11
HETATM   11  C   UNK A   1      12.612  -0.677  24.127  1.00  0.00     0.196 C 
HETATM   12  O   UNK A   1      12.515  -1.518  23.240  1.00  0.00    -0.646 OA
HETATM   13  O   UNK A   1      13.701  -0.396  24.685  1.00  0.00    -0.646 OA
ENDBRANCH   5  11
TORSDOF 1
ENDMDL
MODEL 3
REMARK VINA RESULT:    -4.318     32.168     33.386
REMARK INTER + INTRA:          -4.618
REMARK INTER:                  -4.563
REMARK INTRA:                  -0.056
REMARK UNBOUND:                -0.048
REMARK  1 active torsions:
REMARK  status: ('A' for Active; 'I' for Inactive)
REMARK    1  A    between atoms: C_5  and  C_7 
ROOT
HETATM    1  H   UNK A   1       8.350  14.760   4.718  1.00  0.00     0.154 HD
HETATM    2  C   UNK A   1       5.985  14.378   3.722  1.00  0.00     0.011 C 
HETATM    3  C   UNK A   1       7.109  14.320   2.691  1.00  0.00     0.001 C 
HETATM    4  C   UNK A   1       8.312  13.566   3.271  1.00  0.00     0.119 C 
HETATM    5  C   UNK A   1       8.820  16.386   2.077  1.00  0.00     0.180 C 
HETATM    6  N   UNK A   1       9.820  15.364   1.792  1.00  0.00    -0.393 N 
HETATM    7  C   UNK A   1       7.419  15.791   2.093  1.00  0.00     0.041 C 
HETATM    8  H   UNK A   1       9.692  15.152   0.806  1.00  0.00     0.155 HD
HETATM    9  N   UNK A   1       9.059  14.616   3.953  1.00  0.00    -0.406 N 
HETATM   10  C   UNK A   0      10.236  14.822   3.023  1.00  0.00     0.233 C 
ENDROOT
BRANCH   5  11
HETATM   11  C   UNK A   1       8.867  17.481   0.961  1.00  0.00     0.196 C 
HETATM   12  O   UNK A   1       9.945  17.815   0.482  1.00  0.00    -0.646 OA
HETATM   13  O   UNK A   1       7.772  17.956   0.571  1.00  0.00    -0.646 OA
ENDBRANCH   5  11
TORSDOF 1
ENDMDL
MODEL 4
REMARK VINA RESULT:    -4.178     14.762     15.612
REMARK INTER + INTRA:          -4.470
REMARK INTER:                  -4.430
REMARK INTRA:                  -0.040
REMARK UNBOUND:                -0.048
REMARK  1 active torsions:
REMARK  status: ('A' for Active; 'I' for Inactive)
REMARK    1  A    between atoms: C_5  and  C_7 
ROOT
HETATM    1  H   UNK A   1       8.664  -4.165  21.912  1.00  0.00     0.154 HD
HETATM    2  C   UNK A   1       6.939  -6.103  21.912  1.00  0.00     0.011 C 
HETATM    3  C   UNK A   1       6.574  -4.949  22.841  1.00  0.00     0.001 C 
HETATM    4  C   UNK A   1       6.889  -3.611  22.160  1.00  0.00     0.119 C 
HETATM    5  C   UNK A   1       8.065  -4.097  24.991  1.00  0.00     0.180 C 
HETATM    6  N   UNK A   1       7.545  -2.762  24.718  1.00  0.00    -0.393 N 
HETATM    7  C   UNK A   1       7.220  -5.163  24.309  1.00  0.00     0.041 C 
HETATM    8  H   UNK A   1       6.690  -2.707  25.264  1.00  0.00     0.155 HD
HETATM    9  N   UNK A   1       8.285  -3.385  22.511  1.00  0.00    -0.406 N 
HETATM   10  C   UNK A   0       8.177  -2.291  23.551  1.00  0.00     0.233 C 
ENDROOT
BRANCH   5  11
HETATM   11  C   UNK A   1       8.024  -4.362  26.532  1.00  0.00     0.196 C 
HETATM   12  O   UNK A   1       6.958  -4.293  27.133  1.00  0.00    -0.646 OA
HETATM   13  O   UNK A   1       9.103  -4.675  27.093  1.00  0.00    -0.646 OA
ENDBRANCH   5  11
TORSDOF 1
ENDMDL
MODEL 5
REMARK VINA RESULT:    -4.087     20.357     21.143
REMARK INTER + INTRA:          -4.374
REMARK INTER:                  -4.320
REMARK INTRA:                  -0.055
REMARK UNBOUND:                -0.048
REMARK  1 active torsions:
REMARK  status: ('A' for Active; 'I' for Inactive)
REMARK    1  A    between atoms: C_5  and  C_7 
ROOT
HETATM    1  H   UNK A   1      22.776 -21.005  11.834  1.00  0.00     0.154 HD
HETATM    2  C   UNK A   1      21.070 -19.522  10.560  1.00  0.00     0.011 C 
HETATM    3  C   UNK A   1      21.457 -18.982  11.934  1.00  0.00     0.001 C 
HETATM    4  C   UNK A   1      22.963 -19.167  12.164  1.00  0.00     0.119 C 
HETATM    5  C   UNK A   1      21.031 -20.261  14.332  1.00  0.00     0.180 C 
HETATM    6  N   UNK A   1      22.241 -19.601  14.806  1.00  0.00    -0.393 N 
HETATM    7  C   UNK A   1      20.489 -19.580  13.084  1.00  0.00     0.041 C 
HETATM    8  H   UNK A   1      21.914 -18.721  15.195  1.00  0.00     0.155 HD
HETATM    9  N   UNK A   1      23.046 -20.510  12.725  1.00  0.00    -0.406 N 
HETATM   10  C   UNK A   0      23.337 -20.226  14.182  1.00  0.00     0.233 C 
ENDROOT
BRANCH   5  11
HETATM   11  C   UNK A   1      19.930 -20.181  15.442  1.00  0.00     0.196 C 
HETATM   12  O   UNK A   1      20.259 -20.074  16.618  1.00  0.00    -0.646 OA
HETATM   13  O   UNK A   1      18.731 -20.195  15.068  1.00  0.00    -0.646 OA
ENDBRANCH   5  11
TORSDOF 1
ENDMDL
MODEL 6
REMARK VINA RESULT:    -4.086     20.258     21.508
REMARK INTER + INTRA:          -4.373
REMARK INTER:                  -4.330
REMARK INTRA:                  -0.042
REMARK UNBOUND:                -0.048
REMARK  1 active torsions:
REMARK  status: ('A' for Active; 'I' for Inactive)
REMARK    1  A    between atoms: C_5  and  C_7 
ROOT
HETATM    1  H   UNK A   1      23.159 -21.616  13.098  1.00  0.00     0.154 HD
HETATM    2  C   UNK A   1      21.034 -22.841  12.255  1.00  0.00     0.011 C 
HETATM    3  C   UNK A   1      20.746 -21.535  12.990  1.00  0.00     0.001 C 
HETATM    4  C   UNK A   1      21.769 -20.468  12.580  1.00  0.00     0.119 C 
HETATM    5  C   UNK A   1      21.386 -21.004  15.613  1.00  0.00     0.180 C 
HETATM    6  N   UNK A   1      21.540 -19.612  15.208  1.00  0.00    -0.393 N 
HETATM    7  C   UNK A   1      20.591 -21.790  14.580  1.00  0.00     0.041 C 
HETATM    8  H   UNK A   1      20.615 -19.208  15.332  1.00  0.00     0.155 HD
HETATM    9  N   UNK A   1      22.867 -20.691  13.512  1.00  0.00    -0.406 N 
HETATM   10  C   UNK A   0      22.725 -19.517  14.456  1.00  0.00     0.233 C 
ENDROOT
BRANCH   5  11
HETATM   11  C   UNK A   1      20.609 -21.065  16.970  1.00  0.00     0.196 C 
HETATM   12  O   UNK A   1      21.195 -21.409  17.991  1.00  0.00    -0.646 OA
HETATM   13  O   UNK A   1      19.402 -20.720  16.960  1.00  0.00    -0.646 OA
ENDBRANCH   5  11
TORSDOF 1
ENDMDL
MODEL 7
REMARK VINA RESULT:    -4.030     11.613     12.824
REMARK INTER + INTRA:          -4.314
REMARK INTER:                  -4.274
REMARK INTRA:                  -0.039
REMARK UNBOUND:                -0.048
REMARK  1 active torsions:
REMARK  status: ('A' for Active; 'I' for Inactive)
REMARK    1  A    between atoms: C_5  and  C_7 
ROOT
HETATM    1  H   UNK A   1       8.207   0.278  23.069  1.00  0.00     0.154 HD
HETATM    2  C   UNK A   1       7.971  -0.572  25.508  1.00  0.00     0.011 C 
HETATM    3  C   UNK A   1       9.193   0.311  25.275  1.00  0.00     0.001 C 
HETATM    4  C   UNK A   1       8.822   1.488  24.364  1.00  0.00     0.119 C 
HETATM    5  C   UNK A   1      11.262  -0.248  23.549  1.00  0.00     0.180 C 
HETATM    6  N   UNK A   1      11.395   1.193  23.371  1.00  0.00    -0.393 N 
HETATM    7  C   UNK A   1      10.463  -0.573  24.803  1.00  0.00     0.041 C 
HETATM    8  H   UNK A   1      12.050   1.479  24.095  1.00  0.00     0.155 HD
HETATM    9  N   UNK A   1       9.023   0.944  23.027  1.00  0.00    -0.406 N 
HETATM   10  C   UNK A   0      10.303   1.627  22.596  1.00  0.00     0.233 C 
ENDROOT
BRANCH   5  11
HETATM   11  C   UNK A   1      12.684  -0.883  23.705  1.00  0.00     0.196 C 
HETATM   12  O   UNK A   1      13.472  -0.416  24.520  1.00  0.00    -0.646 OA
HETATM   13  O   UNK A   1      12.949  -1.886  22.998  1.00  0.00    -0.646 OA
ENDBRANCH   5  11
TORSDOF 1
ENDMDL
MODEL 8
REMARK VINA RESULT:    -3.998     15.955     16.727
REMARK INTER + INTRA:          -4.280
REMARK INTER:                  -4.224
REMARK INTRA:                  -0.055
REMARK UNBOUND:                -0.048
REMARK  1 active torsions:
REMARK  status: ('A' for Active; 'I' for Inactive)
REMARK    1  A    between atoms: C_5  and  C_7 
ROOT
HETATM    1  H   UNK A   1       5.946  -6.834  23.051  1.00  0.00     0.154 HD
HETATM    2  C   UNK A   1       3.801  -6.824  24.509  1.00  0.00     0.011 C 
HETATM    3  C   UNK A   1       4.655  -5.569  24.656  1.00  0.00     0.001 C 
HETATM    4  C   UNK A   1       5.186  -5.135  23.283  1.00  0.00     0.119 C 
HETATM    5  C   UNK A   1       7.248  -5.499  25.573  1.00  0.00     0.180 C 
HETATM    6  N   UNK A   1       7.443  -4.354  24.693  1.00  0.00    -0.393 N 
HETATM    7  C   UNK A   1       5.768  -5.759  25.814  1.00  0.00     0.041 C 
HETATM    8  H   UNK A   1       7.199  -3.550  25.265  1.00  0.00     0.155 HD
HETATM    9  N   UNK A   1       6.420  -5.899  23.152  1.00  0.00    -0.406 N 
HETATM   10  C   UNK A   0       7.475  -4.835  23.370  1.00  0.00     0.233 C 
ENDROOT
BRANCH   5  11
HETATM   11  C   UNK A   1       7.919  -5.208  26.957  1.00  0.00     0.196 C 
HETATM   12  O   UNK A   1       7.551  -5.825  27.952  1.00  0.00    -0.646 OA
HETATM   13  O   UNK A   1       8.846  -4.363  26.983  1.00  0.00    -0.646 OA
ENDBRANCH   5  11
TORSDOF 1
ENDMDL
MODEL 9
REMARK VINA RESULT:    -3.916     15.338     16.135
REMARK INTER + INTRA:          -4.193
REMARK INTER:                  -4.147
REMARK INTRA:                  -0.046
REMARK UNBOUND:                -0.048
REMARK  1 active torsions:
REMARK  status: ('A' for Active; 'I' for Inactive)
REMARK    1  A    between atoms: C_5  and  C_7 
ROOT
HETATM    1  H   UNK A   1       7.192  -2.835  26.166  1.00  0.00     0.154 HD
HETATM    2  C   UNK A   1       6.307  -4.973  27.339  1.00  0.00     0.011 C 
HETATM    3  C   UNK A   1       7.247  -5.252  26.171  1.00  0.00     0.001 C 
HETATM    4  C   UNK A   1       8.416  -4.258  26.191  1.00  0.00     0.119 C 
HETATM    5  C   UNK A   1       6.801  -4.528  23.554  1.00  0.00     0.180 C 
HETATM    6  N   UNK A   1       8.249  -4.407  23.426  1.00  0.00    -0.393 N 
HETATM    7  C   UNK A   1       6.426  -5.348  24.779  1.00  0.00     0.041 C 
HETATM    8  H   UNK A   1       8.556  -5.332  23.138  1.00  0.00     0.155 HD
HETATM    9  N   UNK A   1       7.895  -3.125  25.435  1.00  0.00    -0.406 N 
HETATM   10  C   UNK A   0       8.641  -3.249  24.125  1.00  0.00     0.233 C 
ENDROOT
BRANCH   5  11
HETATM   11  C   UNK A   1       6.230  -5.257  22.292  1.00  0.00     0.196 C 
HETATM   12  O   UNK A   1       6.993  -5.840  21.530  1.00  0.00    -0.646 OA
HETATM   13  O   UNK A   1       4.985  -5.242  22.131  1.00  0.00    -0.646 OA
ENDBRANCH   5  11
TORSDOF 1
ENDMDL
