REMARK  1 active torsions:
REMARK  status: ('A' for Active; 'I' for Inactive)
REMARK    1  A    between atoms: C_5  and  C_7 
ROOT
HETATM    1  H   UNK A   1       9.112  -0.681  24.586  1.00  0.00     0.154 HD
HETATM    2  C   UNK A   1       7.644  -2.789  24.223  1.00  0.00     0.011 C 
HETATM    3  C   UNK A   1       8.503  -2.417  23.018  1.00  0.00     0.001 C 
HETATM    4  C   UNK A   1       9.898  -1.981  23.485  1.00  0.00     0.119 C 
HETATM    5  C   UNK A   1       8.343  -0.059  21.609  1.00  0.00     0.180 C 
HETATM    6  N   UNK A   1       9.771  -0.208  21.356  1.00  0.00    -0.393 N 
HETATM    7  C   UNK A   1       7.725  -1.377  22.053  1.00  0.00     0.041 C 
HETATM    8  H   UNK A   1       9.821  -0.743  20.493  1.00  0.00     0.155 HD
HETATM    9  N   UNK A   1       9.728  -0.556  23.740  1.00  0.00    -0.406 N 
HETATM   10  C   UNK A   0      10.446   0.064  22.561  1.00  0.00     0.233 C 
ENDROOT
BRANCH   5  11
HETATM   11  C   UNK A   1       7.628   0.389  20.291  1.00  0.00     0.196 C 
HETATM   12  O   UNK A   1       8.049  -0.003  19.208  1.00  0.00    -0.646 OA
HETATM   13  O   UNK A   1       6.612   1.118  20.404  1.00  0.00    -0.646 OA
ENDBRANCH   5  11
TORSDOF 1
