stable:False satoms:20 tatoms:24 sratio:0.8333333333333334
  -OEChem-07092417333D

 24 25  0     0  0  0  0  0  0999 V2000
    7.6806   -3.6319   24.6052 H   0  0  0  0  0  0  0  0  0  0  0  0
    7.9932   -2.4399   21.0548 H   0  0  0  0  0  0  0  0  0  0  0  0
    9.7108   -3.7426   23.9049 O   0  0  0  0  0  0  0  0  0  0  0  0
   11.9397   -2.6420   23.4379 H   0  0  0  0  0  0  0  0  0  0  0  0
    7.7085   -0.0043   23.9144 C   0  0  0  0  0  0  0  0  0  0  0  0
    9.4260   -2.7959   23.1921 C   0  0  0  0  0  0  0  0  0  0  0  0
    7.3789   -2.7879   24.2397 O   0  0  0  0  0  0  0  0  0  0  0  0
    6.8630    0.4943   21.3518 C   0  0  0  0  0  0  0  0  0  0  0  0
    9.7874   -1.5515   21.1199 C   0  0  0  0  0  0  0  0  0  0  0  0
   10.3135   -2.1528   22.2061 C   0  0  0  0  0  0  0  0  0  0  0  0
   11.7617   -2.4061   22.3813 C   0  0  0  0  0  0  0  0  0  0  0  0
   10.4472   -1.0923   20.3855 H   0  0  0  0  0  0  0  0  0  0  0  0
   12.0830   -3.2565   21.7874 H   0  0  0  0  0  0  0  0  0  0  0  0
   12.3142   -1.5286   22.0331 H   0  0  0  0  0  0  0  0  0  0  0  0
    7.7608    2.1063   24.0657 H   0  0  0  0  0  0  0  0  0  0  0  0
    7.6901   -0.6065   21.6018 C   0  0  0  0  0  0  0  0  0  0  0  0
    8.4163   -1.5187   20.8154 N   0  0  0  0  0  0  0  0  0  0  0  0
    7.8281   -0.9610   22.9169 C   0  0  0  0  0  0  0  0  0  0  0  0
    7.4597    1.2640   23.4638 C   0  0  0  0  0  0  0  0  0  0  0  0
    6.7932    1.4905   22.2690 C   0  0  0  0  0  0  0  0  0  0  0  0
    6.0313    0.6022   20.2699 F   0  0  0  0  0  0  0  0  0  0  0  0
    8.1464   -2.2418   23.2491 N   0  0  0  0  0  0  0  0  0  0  0  0
    7.8232   -0.2785   24.9418 H   0  0  0  0  0  0  0  0  0  0  0  0
    6.2270    2.3916   22.0890 H   0  0  0  0  0  0  0  0  0  0  0  0
  8 21  1  0  0  0  0
  9 12  1  0  0  0  0
  2 17  1  0  0  0  0
  9 17  1  0  0  0  0
 16 17  1  0  0  0  0
  9 10  2  0  0  0  0
  8 16  2  0  0  0  0
  8 20  1  0  0  0  0
 16 18  1  0  0  0  0
 11 13  1  0  0  0  0
 11 14  1  0  0  0  0
 20 24  1  0  0  0  0
 10 11  1  0  0  0  0
  6 10  1  0  0  0  0
 19 20  2  0  0  0  0
  4 11  1  0  0  0  0
 18 22  1  0  0  0  0
  5 18  2  0  0  0  0
  6 22  1  0  0  0  0
  3  6  2  0  0  0  0
  7 22  1  0  0  0  0
  5 19  1  0  0  0  0
 15 19  1  0  0  0  0
  5 23  1  0  0  0  0
  1  7  1  0  0  0  0
M  END
> <Shapegauss>
-103.272087

$$$$
