stable:False satoms:20 tatoms:24 sratio:0.8333333333333334
  -OEChem-08052421173D

 24 25  0     0  0  0  0  0  0999 V2000
    9.5108    1.8325   20.6982 H   0  0  0  0  0  0  0  0  0  0  0  0
   10.5675   -1.7329   21.2414 H   0  0  0  0  0  0  0  0  0  0  0  0
    7.8807    0.6179   21.3995 O   0  0  0  0  0  0  0  0  0  0  0  0
    6.6218   -0.4957   23.2896 H   0  0  0  0  0  0  0  0  0  0  0  0
   11.3944    0.9526   23.7503 C   0  0  0  0  0  0  0  0  0  0  0  0
    8.7316   -0.0448   21.9674 C   0  0  0  0  0  0  0  0  0  0  0  0
   10.2534    1.5141   21.2312 O   0  0  0  0  0  0  0  0  0  0  0  0
   12.8903   -1.3110   23.3395 C   0  0  0  0  0  0  0  0  0  0  0  0
    9.4631   -2.2055   22.8443 C   0  0  0  0  0  0  0  0  0  0  0  0
    8.4972   -1.2689   22.7547 C   0  0  0  0  0  0  0  0  0  0  0  0
    7.1085   -1.4768   23.2243 C   0  0  0  0  0  0  0  0  0  0  0  0
    9.2799   -3.1158   23.4130 H   0  0  0  0  0  0  0  0  0  0  0  0
    6.5469   -2.0855   22.5221 H   0  0  0  0  0  0  0  0  0  0  0  0
    7.1389   -2.0109   24.1784 H   0  0  0  0  0  0  0  0  0  0  0  0
   12.3440    0.9627   25.6420 H   0  0  0  0  0  0  0  0  0  0  0  0
   11.6012   -1.2307   22.8008 C   0  0  0  0  0  0  0  0  0  0  0  0
   10.7062   -2.1301   22.1943 N   0  0  0  0  0  0  0  0  0  0  0  0
   11.0367    0.0165   22.7910 C   0  0  0  0  0  0  0  0  0  0  0  0
   12.3161    0.5138   24.6622 C   0  0  0  0  0  0  0  0  0  0  0  0
   13.2417   -0.4678   24.3415 C   0  0  0  0  0  0  0  0  0  0  0  0
   13.8748   -2.1327   22.8605 F   0  0  0  0  0  0  0  0  0  0  0  0
   10.0747    0.3235   21.8786 N   0  0  0  0  0  0  0  0  0  0  0  0
   10.9489    1.9250   23.7482 H   0  0  0  0  0  0  0  0  0  0  0  0
   14.1977   -0.5397   24.8373 H   0  0  0  0  0  0  0  0  0  0  0  0
  8 21  1  0  0  0  0
  9 12  1  0  0  0  0
  2 17  1  0  0  0  0
  9 17  1  0  0  0  0
 16 17  1  0  0  0  0
  9 10  2  0  0  0  0
  8 16  2  0  0  0  0
  8 20  1  0  0  0  0
 16 18  1  0  0  0  0
 11 13  1  0  0  0  0
 11 14  1  0  0  0  0
 20 24  1  0  0  0  0
 10 11  1  0  0  0  0
  6 10  1  0  0  0  0
 19 20  2  0  0  0  0
  4 11  1  0  0  0  0
 18 22  1  0  0  0  0
  5 18  2  0  0  0  0
  6 22  1  0  0  0  0
  3  6  2  0  0  0  0
  7 22  1  0  0  0  0
  5 19  1  0  0  0  0
 15 19  1  0  0  0  0
  5 23  1  0  0  0  0
  1  7  1  0  0  0  0
M  END
> <Chemgauss4>
-8.051243

$$$$
