stable:False satoms:20 tatoms:24 sratio:0.8333333333333334
  -OEChem-08052421173D

 24 25  0     0  0  0  0  0  0999 V2000
  -10.2410    1.9465  -20.3020 H   0  0  0  0  0  0  0  0  0  0  0  0
  -10.7677   -1.7224  -20.9229 H   0  0  0  0  0  0  0  0  0  0  0  0
   -8.3832    0.9269  -20.6670 O   0  0  0  0  0  0  0  0  0  0  0  0
   -6.6854   -0.0450  -22.2703 H   0  0  0  0  0  0  0  0  0  0  0  0
  -11.4307    0.8284  -23.6144 C   0  0  0  0  0  0  0  0  0  0  0  0
   -9.0363    0.1645  -21.3581 C   0  0  0  0  0  0  0  0  0  0  0  0
  -10.8340    1.5390  -20.9494 O   0  0  0  0  0  0  0  0  0  0  0  0
  -12.7073   -1.5923  -23.4121 C   0  0  0  0  0  0  0  0  0  0  0  0
   -9.3459   -2.0738  -22.2894 C   0  0  0  0  0  0  0  0  0  0  0  0
   -8.5255   -1.0294  -22.0560 C   0  0  0  0  0  0  0  0  0  0  0  0
   -7.0605   -1.0760  -22.2647 C   0  0  0  0  0  0  0  0  0  0  0  0
   -8.9604   -2.9605  -22.7902 H   0  0  0  0  0  0  0  0  0  0  0  0
   -6.5687   -1.6092  -21.4567 H   0  0  0  0  0  0  0  0  0  0  0  0
   -6.8572   -1.6172  -23.1934 H   0  0  0  0  0  0  0  0  0  0  0  0
  -12.0188    0.7126  -25.6444 H   0  0  0  0  0  0  0  0  0  0  0  0
  -11.5541   -1.3569  -22.6550 C   0  0  0  0  0  0  0  0  0  0  0  0
  -10.6861   -2.1402  -21.8735 N   0  0  0  0  0  0  0  0  0  0  0  0
  -11.1470   -0.0519  -22.5804 C   0  0  0  0  0  0  0  0  0  0  0  0
  -12.1167    0.2775  -24.6629 C   0  0  0  0  0  0  0  0  0  0  0  0
  -12.9665   -0.8037  -24.4843 C   0  0  0  0  0  0  0  0  0  0  0  0
  -13.6615   -2.5204  -23.0929 F   0  0  0  0  0  0  0  0  0  0  0  0
  -10.4067    0.3729  -21.5204 N   0  0  0  0  0  0  0  0  0  0  0  0
  -11.1070    1.8464  -23.5606 H   0  0  0  0  0  0  0  0  0  0  0  0
  -13.8030   -0.9914  -25.1401 H   0  0  0  0  0  0  0  0  0  0  0  0
  8 21  1  0  0  0  0
  9 12  1  0  0  0  0
  2 17  1  0  0  0  0
  9 17  1  0  0  0  0
 16 17  1  0  0  0  0
  9 10  2  0  0  0  0
  8 16  2  0  0  0  0
  8 20  1  0  0  0  0
 16 18  1  0  0  0  0
 11 13  1  0  0  0  0
 11 14  1  0  0  0  0
 20 24  1  0  0  0  0
 10 11  1  0  0  0  0
  6 10  1  0  0  0  0
 19 20  2  0  0  0  0
  4 11  1  0  0  0  0
 18 22  1  0  0  0  0
  5 18  2  0  0  0  0
  6 22  1  0  0  0  0
  3  6  2  0  0  0  0
  7 22  1  0  0  0  0
  5 19  1  0  0  0  0
 15 19  1  0  0  0  0
  5 23  1  0  0  0  0
  1  7  1  0  0  0  0
M  END
> <Chemgauss4>
-8.210600

$$$$
