stable:False satoms:22 tatoms:24 sratio:0.9166666666666666
  -OEChem-07092417363D

 24 23  0     1  0  0  0  0  0999 V2000
    7.7212   -3.4107   26.0621 H   0  0  0  0  0  0  0  0  0  0  0  0
    8.6998   -3.4106   25.5760 C   0  0  0  0  0  0  0  0  0  0  0  0
    8.8828   -4.3982   25.1798 H   0  0  0  0  0  0  0  0  0  0  0  0
    9.4827   -3.1560   26.2816 H   0  0  0  0  0  0  0  0  0  0  0  0
    7.6212   -2.0431   24.0202 O   0  0  0  0  0  0  0  0  0  0  0  0
    9.9666   -2.5861   22.8022 H   0  0  0  0  0  0  0  0  0  0  0  0
    8.6994   -2.3565   24.3906 C   0  0  0  0  0  0  0  0  0  0  0  0
    9.9232   -0.4556   23.1147 C   0  0  1  0  0  0  0  0  0  0  0  0
    9.9421   -1.9015   23.6392 C   0  0  0  0  0  0  0  0  0  0  0  0
   11.3717   -0.1426   23.1226 C   0  5  0  0  0  0  0  0  0  0  0  0
   11.8668    0.3576   23.9152 H   0  0  0  0  0  0  0  0  0  0  0  0
   12.0120   -0.5923   22.3823 H   0  0  0  0  0  0  0  0  0  0  0  0
   10.8854   -2.0725   24.1876 H   0  0  0  0  0  0  0  0  0  0  0  0
    9.4183    0.1317   23.8790 H   0  0  0  0  0  0  0  0  0  0  0  0
    9.2320   -0.9425   20.3784 H   0  0  0  0  0  0  0  0  0  0  0  0
    9.1192   -0.0036   21.9396 N   0  3  0  0  0  0  0  0  0  0  0  0
    7.8796    0.1345   21.5821 C   0  0  3  0  0  0  0  0  0  0  0  0
    8.3695   -0.8197   19.8121 N   0  5  0  0  0  0  0  0  0  0  0  0
    6.8752   -0.9885   18.2640 H   0  0  0  0  0  0  0  0  0  0  0  0
    6.2327   -0.2798   18.3531 O   0  0  0  0  0  0  0  0  0  0  0  0
    7.4276   -0.0932   20.2683 C   0  0  3  0  0  0  0  0  0  0  0  0
    5.3804    0.7775   19.8370 H   0  0  0  0  0  0  0  0  0  0  0  0
    6.2245    0.1957   19.5561 C   0  3  0  0  0  0  0  0  0  0  0  0
    6.3501    0.7658   22.7532 Br  0  0  0  0  0  0  0  0  0  0  0  0
 19 20  1  0  0  0  0
 20 23  1  0  0  0  0
 22 23  1  0  0  0  0
 21 23  1  0  0  0  0
 18 21  1  0  0  0  0
 15 18  1  0  0  0  0
 17 21  1  0  0  0  0
 16 17  1  0  0  0  0
 17 24  1  0  0  0  0
  8 16  1  0  0  0  0
 10 12  1  0  0  0  0
  6  9  1  0  0  0  0
  8 10  1  0  0  0  0
  8  9  1  0  0  0  0
  8 14  1  0  0  0  0
 10 11  1  0  0  0  0
  9 13  1  0  0  0  0
  7  9  1  0  0  0  0
  5  7  2  0  0  0  0
  2  7  1  0  0  0  0
  2  3  1  0  0  0  0
  1  2  1  0  0  0  0
  2  4  1  0  0  0  0
M  CHG  4  10  -1  16   1  18  -1  23   1
M  END
> <Shapegauss>
-137.271545

$$$$
