stable:False satoms:22 tatoms:24 sratio:0.9166666666666666
  -OEChem-08062401493D

 29 28  0     1  0  0  0  0  0999 V2000
   13.7198   -1.5906   23.8990 H   0  0  0  0  0  0  0  0  0  0  0  0
   13.4854   -0.5615   24.1818 C   0  0  0  0  0  0  0  0  0  0  0  0
   14.1940    0.0939   23.6978 H   0  0  0  0  0  0  0  0  0  0  0  0
   13.5510   -0.4305   25.2561 H   0  0  0  0  0  0  0  0  0  0  0  0
   11.5957   -0.9184   22.8568 O   0  0  0  0  0  0  0  0  0  0  0  0
   11.4985    1.7379   23.3196 H   0  0  0  0  0  0  0  0  0  0  0  0
   12.0176   -0.2033   23.6987 C   0  0  0  0  0  0  0  0  0  0  0  0
    9.7241    0.9009   24.2083 C   0  0  1  0  0  0  0  0  0  0  0  0
   11.2526    1.0453   24.1131 C   0  0  0  0  0  0  0  0  0  0  0  0
    9.4164    1.9217   25.2376 C   0  0  0  0  0  0  0  0  0  0  0  0
    8.4162    1.7323   25.6542 H   0  0  0  0  0  0  0  0  0  0  0  0
   10.1646    1.8690   26.0423 H   0  0  0  0  0  0  0  0  0  0  0  0
   11.6277    1.5139   25.0402 H   0  0  0  0  0  0  0  0  0  0  0  0
    9.5437   -0.0926   24.6137 H   0  0  0  0  0  0  0  0  0  0  0  0
    8.9640    1.8749   21.7141 H   0  0  0  0  0  0  0  0  0  0  0  0
    8.8181    0.8106   23.0241 N   0  3  0  0  0  0  0  0  0  0  0  0
    8.5627    0.0153   22.0312 C   0  0  3  0  0  0  0  0  0  0  0  0
    8.6304    1.6727   20.7934 N   0  0  0  0  0  0  0  0  0  0  0  0
    8.1320    1.4430   18.7061 H   0  0  0  0  0  0  0  0  0  0  0  0
    7.5483    0.6885   18.5919 O   0  0  0  0  0  0  0  0  0  0  0  0
    8.1985    0.4749   20.7511 C   0  0  3  0  0  0  0  0  0  0  0  0
    7.6509   -0.1365   19.5830 C   0  0  0  0  0  2  0  0  0  0  0  0
    8.5430   -2.0110   22.0835 Br  0  0  0  0  0  0  0  0  0  0  0  0
    9.4397    2.9219   24.7804 H   0  0  0  0  0  0  0  0  0  0  0  0
    9.0299    1.6632   22.5464 H   0  0  0  0  0  0  0  0  0  0  0  0
    9.6242    0.0080   21.7429 H   0  0  0  0  0  0  0  0  0  0  0  0
    9.3771    1.7810   20.1371 H   0  0  0  0  0  0  0  0  0  0  0  0
    7.2018    0.7788   21.1035 H   0  0  0  0  0  0  0  0  0  0  0  0
    7.9191    0.8847   23.4556 H   0  0  0  0  0  0  0  0  0  0  0  0
 19 20  1  0  0  0  0
 20 22  1  0  0  0  0
 21 22  1  0  0  0  0
 18 21  1  0  0  0  0
 15 18  1  0  0  0  0
 17 21  1  0  0  0  0
 16 17  1  0  0  0  0
 17 23  1  0  0  0  0
  8 16  1  0  0  0  0
 10 12  1  0  0  0  0
  6  9  1  0  0  0  0
  8 10  1  0  0  0  0
  8  9  1  0  0  0  0
  8 14  1  0  0  0  0
 10 11  1  0  0  0  0
  9 13  1  0  0  0  0
  7  9  1  0  0  0  0
  5  7  2  0  0  0  0
  2  7  1  0  0  0  0
  2  3  1  0  0  0  0
  1  2  1  0  0  0  0
  2  4  1  0  0  0  0
 10 24  1  0  0  0  0
 16 25  1  0  0  0  0
 17 26  1  0  0  0  0
 18 27  1  0  0  0  0
 21 28  1  0  0  0  0
 16 29  1  0  0  0  0
M  CHG  1  16   1
M  END
> <Chemgauss4>
-5.553177

$$$$
