stable:False satoms:22 tatoms:24 sratio:0.9166666666666666
  -OEChem-08062401483D

 29 28  0     1  0  0  0  0  0999 V2000
  -13.9083   -3.2013  -23.5693 H   0  0  0  0  0  0  0  0  0  0  0  0
  -14.0386   -2.1330  -23.7577 C   0  0  0  0  0  0  0  0  0  0  0  0
  -14.8126   -1.7638  -23.1016 H   0  0  0  0  0  0  0  0  0  0  0  0
  -14.3255   -1.9536  -24.7879 H   0  0  0  0  0  0  0  0  0  0  0  0
  -11.9270   -1.9813  -22.7720 O   0  0  0  0  0  0  0  0  0  0  0  0
  -12.6942    0.6009  -22.9227 H   0  0  0  0  0  0  0  0  0  0  0  0
  -12.6795   -1.3742  -23.4524 C   0  0  0  0  0  0  0  0  0  0  0  0
  -10.9354    0.4168  -24.1521 C   0  0  1  0  0  0  0  0  0  0  0  0
  -12.3982    0.0754  -23.8205 C   0  0  0  0  0  0  0  0  0  0  0  0
  -11.1242    1.5523  -25.0855 C   0  0  0  0  0  0  0  0  0  0  0  0
  -10.2008    1.7105  -25.6619 H   0  0  0  0  0  0  0  0  0  0  0  0
  -11.9522    1.3279  -25.7741 H   0  0  0  0  0  0  0  0  0  0  0  0
  -13.0494    0.4692  -24.6209 H   0  0  0  0  0  0  0  0  0  0  0  0
  -10.5452   -0.4415  -24.6952 H   0  0  0  0  0  0  0  0  0  0  0  0
  -10.0723    1.4004  -21.6955 H   0  0  0  0  0  0  0  0  0  0  0  0
   -9.8512    0.5276  -23.1306 N   0  3  0  0  0  0  0  0  0  0  0  0
   -9.2053   -0.2176  -22.2873 C   0  0  3  0  0  0  0  0  0  0  0  0
   -9.5392    1.2469  -20.8635 N   0  0  0  0  0  0  0  0  0  0  0  0
   -8.6403    1.0363  -18.9127 H   0  0  0  0  0  0  0  0  0  0  0  0
   -7.8506    0.4927  -18.9751 O   0  0  0  0  0  0  0  0  0  0  0  0
   -8.7749    0.2409  -21.0276 C   0  0  3  0  0  0  0  0  0  0  0  0
   -7.8778   -0.2520  -20.0325 C   0  0  0  0  0  2  0  0  0  0  0  0
   -8.6023   -2.1301  -22.5840 Br  0  0  0  0  0  0  0  0  0  0  0  0
  -11.3596    2.4619  -24.5133 H   0  0  0  0  0  0  0  0  0  0  0  0
  -10.2170    1.2375  -22.5287 H   0  0  0  0  0  0  0  0  0  0  0  0
  -10.1510   -0.5724  -21.8517 H   0  0  0  0  0  0  0  0  0  0  0  0
  -10.1589    1.0732  -20.0980 H   0  0  0  0  0  0  0  0  0  0  0  0
   -7.9881    0.8615  -21.4814 H   0  0  0  0  0  0  0  0  0  0  0  0
   -9.1027    0.9057  -23.6754 H   0  0  0  0  0  0  0  0  0  0  0  0
 19 20  1  0  0  0  0
 20 22  1  0  0  0  0
 21 22  1  0  0  0  0
 18 21  1  0  0  0  0
 15 18  1  0  0  0  0
 17 21  1  0  0  0  0
 16 17  1  0  0  0  0
 17 23  1  0  0  0  0
  8 16  1  0  0  0  0
 10 12  1  0  0  0  0
  6  9  1  0  0  0  0
  8 10  1  0  0  0  0
  8  9  1  0  0  0  0
  8 14  1  0  0  0  0
 10 11  1  0  0  0  0
  9 13  1  0  0  0  0
  7  9  1  0  0  0  0
  5  7  2  0  0  0  0
  2  7  1  0  0  0  0
  2  3  1  0  0  0  0
  1  2  1  0  0  0  0
  2  4  1  0  0  0  0
 10 24  1  0  0  0  0
 16 25  1  0  0  0  0
 17 26  1  0  0  0  0
 18 27  1  0  0  0  0
 21 28  1  0  0  0  0
 16 29  1  0  0  0  0
M  CHG  1  16   1
M  END
> <Chemgauss4>
-5.271521

$$$$
