stable:False satoms:8 tatoms:24 sratio:0.3333333333333333
  -OEChem-08062404193D

 41 43  0     1  0  0  0  0  0999 V2000
   13.6390   -1.0757   22.1488 H   0  0  0  0  0  0  0  0  0  0  0  0
   13.0901   -1.7058   22.8610 C   0  0  0  0  0  0  0  0  0  0  0  0
   13.3704   -1.4125   23.8772 H   0  0  0  0  0  0  0  0  0  0  0  0
   13.3463   -2.7570   22.6937 H   0  0  0  0  0  0  0  0  0  0  0  0
   11.6624   -1.5414   22.6652 N   0  0  0  0  0  0  0  0  0  0  0  0
   10.7658   -1.9670   23.1191 C   0  0  0  0  0  0  0  0  0  0  0  0
    8.6779   -2.2805   22.8865 N   0  3  0  0  0  0  0  0  0  0  0  0
    9.3641   -2.4001   23.2658 C   0  0  0  0  0  0  0  0  0  0  0  0
    8.2796   -4.0329   24.0397 C   0  0  0  0  0  0  0  0  0  0  0  0
    7.6792   -4.7474   24.2700 C   0  0  0  0  0  0  0  0  0  0  0  0
    7.5526   -4.1295   26.1382 H   0  0  0  0  0  0  0  0  0  0  0  0
    7.6591   -3.7328   25.1815 C   0  0  0  0  0  0  0  0  0  0  0  0
    7.2645   -2.0611   25.0865 S   0  0  0  0  0  0  0  0  0  0  0  0
    7.2521   -2.1753   23.1998 C   0  0  1  0  0  0  0  0  0  0  0  0
    6.6456   -1.4688   22.4054 C   0  0  3  0  0  0  0  0  0  0  0  0
    5.9913   -2.4814   22.5666 O   0  0  0  0  0  0  0  0  0  0  0  0
    6.7963   -0.1763   21.9381 N   0  0  0  0  0  0  0  0  0  0  0  0
    6.7077   -0.0373   20.8418 C   0  0  0  0  0  0  0  0  0  0  0  0
    5.3367    2.5173   20.9130 H   0  0  0  0  0  0  0  0  0  0  0  0
    4.8596    1.7511   20.4825 N   0  3  0  0  0  0  0  0  0  0  0  0
    4.2543    1.9508   19.6116 C   0  0  0  0  0  0  0  0  0  0  0  0
    5.3584    1.2430   19.5031 C   0  0  3  0  0  0  0  0  0  0  0  0
    6.2411    0.5581   18.8468 N   0  0  0  0  0  0  0  0  0  0  0  0
    6.9779   -0.1071   19.5691 N   0  0  0  0  0  0  0  0  0  0  0  0
   11.5457   -1.7627   21.6970 H   0  0  0  0  0  0  0  0  0  0  0  0
   10.7825   -1.3328   24.0177 H   0  0  0  0  0  0  0  0  0  0  0  0
   11.2112   -2.9453   23.3526 H   0  0  0  0  0  0  0  0  0  0  0  0
    8.6846   -3.0214   22.2149 H   0  0  0  0  0  0  0  0  0  0  0  0
    9.1251   -2.0736   24.2886 H   0  0  0  0  0  0  0  0  0  0  0  0
    9.4552   -3.4961   23.2426 H   0  0  0  0  0  0  0  0  0  0  0  0
    8.0479   -3.4285   23.1503 H   0  0  0  0  0  0  0  0  0  0  0  0
    9.3606   -4.2335   24.0753 H   0  0  0  0  0  0  0  0  0  0  0  0
    8.1027   -5.7176   24.5689 H   0  0  0  0  0  0  0  0  0  0  0  0
    6.7900   -4.9126   23.6439 H   0  0  0  0  0  0  0  0  0  0  0  0
    7.1815   -1.8912   21.5426 H   0  0  0  0  0  0  0  0  0  0  0  0
    5.7915    0.5333   20.8032 H   0  0  0  0  0  0  0  0  0  0  0  0
    3.2746    1.4637   19.4985 H   0  0  0  0  0  0  0  0  0  0  0  0
    4.2087    2.9674   19.1940 H   0  0  0  0  0  0  0  0  0  0  0  0
    5.9313    2.1631   19.3159 H   0  0  0  0  0  0  0  0  0  0  0  0
    8.8495   -1.4103   22.4246 H   0  0  0  0  0  0  0  0  0  0  0  0
    4.4875    1.1502   21.1899 H   0  0  0  0  0  0  0  0  0  0  0  0
 20 21  1  0  0  0  0
 21 22  1  0  0  0  0
 19 20  1  0  0  0  0
 20 22  1  0  0  0  0
 22 23  1  0  0  0  0
 23 24  2  0  0  0  0
 17 18  2  3  0  0  0
 15 17  1  0  0  0  0
 18 24  1  0  0  0  0
 15 16  1  0  0  0  0
 14 15  1  0  0  0  0
 14 16  1  0  0  0  0
 13 14  1  0  0  0  0
 12 13  1  0  0  0  0
  7 14  1  0  0  0  0
 11 12  1  0  0  0  0
  9 12  1  0  0  0  0
 10 12  1  0  0  0  0
  7  8  1  0  0  0  0
  6  8  1  0  0  0  0
  9 10  1  0  0  0  0
  5  6  1  0  0  0  0
  2  5  1  0  0  0  0
  2  3  1  0  0  0  0
  1  2  1  0  0  0  0
  2  4  1  0  0  0  0
  5 25  1  0  0  0  0
  6 26  1  0  0  0  0
  6 27  1  0  0  0  0
  7 28  1  0  0  0  0
  8 29  1  0  0  0  0
  8 30  1  0  0  0  0
  9 31  1  0  0  0  0
  9 32  1  0  0  0  0
 10 33  1  0  0  0  0
 10 34  1  0  0  0  0
 15 35  1  0  0  0  0
 18 36  1  0  0  0  0
 21 37  1  0  0  0  0
 21 38  1  0  0  0  0
 22 39  1  0  0  0  0
  7 40  1  0  0  0  0
 20 41  1  0  0  0  0
M  CHG  2   7   1  20   1
M  END
> <Chemgauss4>
-7.453046

$$$$
