stable:False satoms:8 tatoms:24 sratio:0.3333333333333333
  -OEChem-08062404193D

 41 43  0     1  0  0  0  0  0999 V2000
  -13.4594   -0.5448  -22.6032 H   0  0  0  0  0  0  0  0  0  0  0  0
  -12.9180   -1.3467  -23.1221 C   0  0  0  0  0  0  0  0  0  0  0  0
  -13.0643   -1.2281  -24.2000 H   0  0  0  0  0  0  0  0  0  0  0  0
  -13.3049   -2.3187  -22.7994 H   0  0  0  0  0  0  0  0  0  0  0  0
  -11.5066   -1.2795  -22.7951 N   0  0  0  0  0  0  0  0  0  0  0  0
  -10.6234   -1.8642  -23.0583 C   0  0  0  0  0  0  0  0  0  0  0  0
   -8.6158   -2.3176  -22.5329 N   0  3  0  0  0  0  0  0  0  0  0  0
   -9.2712   -2.4439  -22.9614 C   0  0  0  0  0  0  0  0  0  0  0  0
   -8.3059   -4.2867  -23.2985 C   0  0  0  0  0  0  0  0  0  0  0  0
   -7.7695   -5.0839  -23.3257 C   0  0  0  0  0  0  0  0  0  0  0  0
   -7.3948   -4.8478  -25.2470 H   0  0  0  0  0  0  0  0  0  0  0  0
   -7.5483   -4.2679  -24.3960 C   0  0  0  0  0  0  0  0  0  0  0  0
   -6.9807   -2.6520  -24.5579 S   0  0  0  0  0  0  0  0  0  0  0  0
   -7.1636   -2.4051  -22.6928 C   0  0  1  0  0  0  0  0  0  0  0  0
   -6.5617   -1.6187  -21.9736 C   0  0  3  0  0  0  0  0  0  0  0  0
   -6.0120   -2.6992  -21.8733 O   0  0  0  0  0  0  0  0  0  0  0  0
   -6.6117   -0.2526  -21.7667 N   0  0  0  0  0  0  0  0  0  0  0  0
   -6.6146    0.0841  -20.7105 C   0  0  0  0  0  0  0  0  0  0  0  0
   -4.9667    2.4417  -21.0804 H   0  0  0  0  0  0  0  0  0  0  0  0
   -4.6220    1.7312  -20.4669 N   0  3  0  0  0  0  0  0  0  0  0  0
   -4.0852    2.0369  -19.5819 C   0  0  0  0  0  0  0  0  0  0  0  0
   -5.2666    1.4669  -19.4766 C   0  0  3  0  0  0  0  0  0  0  0  0
   -6.2796    1.0036  -18.8146 N   0  0  0  0  0  0  0  0  0  0  0  0
   -7.0127    0.2833  -19.4859 N   0  0  0  0  0  0  0  0  0  0  0  0
  -11.5094   -1.3220  -21.7960 H   0  0  0  0  0  0  0  0  0  0  0  0
  -10.4822   -1.4141  -24.0520 H   0  0  0  0  0  0  0  0  0  0  0  0
  -11.1504   -2.8241  -23.1621 H   0  0  0  0  0  0  0  0  0  0  0  0
   -8.7700   -2.9131  -21.7445 H   0  0  0  0  0  0  0  0  0  0  0  0
   -8.8994   -2.3417  -23.9916 H   0  0  0  0  0  0  0  0  0  0  0  0
   -9.4858   -3.5023  -22.7524 H   0  0  0  0  0  0  0  0  0  0  0  0
   -8.0953   -3.5476  -22.5115 H   0  0  0  0  0  0  0  0  0  0  0  0
   -9.3940   -4.3904  -23.4224 H   0  0  0  0  0  0  0  0  0  0  0  0
   -8.2677   -6.0503  -23.4923 H   0  0  0  0  0  0  0  0  0  0  0  0
   -6.9690   -5.2076  -22.5814 H   0  0  0  0  0  0  0  0  0  0  0  0
   -7.2223   -1.8180  -21.1169 H   0  0  0  0  0  0  0  0  0  0  0  0
   -5.6485    0.5651  -20.6693 H   0  0  0  0  0  0  0  0  0  0  0  0
   -3.1815    1.4926  -19.2705 H   0  0  0  0  0  0  0  0  0  0  0  0
   -3.9670    3.1060  -19.3513 H   0  0  0  0  0  0  0  0  0  0  0  0
   -5.7487    2.4545  -19.5253 H   0  0  0  0  0  0  0  0  0  0  0  0
   -8.7331   -1.3633  -22.2579 H   0  0  0  0  0  0  0  0  0  0  0  0
   -4.2525    0.9750  -21.0069 H   0  0  0  0  0  0  0  0  0  0  0  0
 20 21  1  0  0  0  0
 21 22  1  0  0  0  0
 19 20  1  0  0  0  0
 20 22  1  0  0  0  0
 22 23  1  0  0  0  0
 23 24  2  0  0  0  0
 17 18  2  3  0  0  0
 15 17  1  0  0  0  0
 18 24  1  0  0  0  0
 15 16  1  0  0  0  0
 14 15  1  0  0  0  0
 14 16  1  0  0  0  0
 13 14  1  0  0  0  0
 12 13  1  0  0  0  0
  7 14  1  0  0  0  0
 11 12  1  0  0  0  0
  9 12  1  0  0  0  0
 10 12  1  0  0  0  0
  7  8  1  0  0  0  0
  6  8  1  0  0  0  0
  9 10  1  0  0  0  0
  5  6  1  0  0  0  0
  2  5  1  0  0  0  0
  2  3  1  0  0  0  0
  1  2  1  0  0  0  0
  2  4  1  0  0  0  0
  5 25  1  0  0  0  0
  6 26  1  0  0  0  0
  6 27  1  0  0  0  0
  7 28  1  0  0  0  0
  8 29  1  0  0  0  0
  8 30  1  0  0  0  0
  9 31  1  0  0  0  0
  9 32  1  0  0  0  0
 10 33  1  0  0  0  0
 10 34  1  0  0  0  0
 15 35  1  0  0  0  0
 18 36  1  0  0  0  0
 21 37  1  0  0  0  0
 21 38  1  0  0  0  0
 22 39  1  0  0  0  0
  7 40  1  0  0  0  0
 20 41  1  0  0  0  0
M  CHG  2   7   1  20   1
M  END
> <Chemgauss4>
-7.097670

$$$$
