
 OpenBabel07202414153D

 42 45  0  0  1  0  0  0  0  0999 V2000
    2.7673    0.5955   -1.4837 C   0  0  0  0  0  0  0  0  0  0  0  0
    2.3599   -0.0104   -0.1261 C   0  0  1  0  0  0  0  0  0  0  0  0
    2.9684   -1.4250   -0.0325 C   0  0  0  0  0  0  0  0  0  0  0  0
    2.7237   -1.9865    1.3599 C   0  0  0  0  0  0  0  0  0  0  0  0
    3.3552   -1.2209    2.3848 O   0  0  0  0  0  0  0  0  0  0  0  0
    3.3715    0.1342    2.2184 C   0  0  0  0  0  0  0  0  0  0  0  0
    2.9365    0.7927    1.0608 C   0  0  0  0  0  0  0  0  0  0  0  0
    3.0816    2.1962    1.0162 C   0  0  0  0  0  0  0  0  0  0  0  0
    3.6387    2.9006    2.0936 C   0  0  0  0  0  0  0  0  0  0  0  0
    4.0479    2.2318    3.2385 C   0  0  0  0  0  0  0  0  0  0  0  0
    3.9090    0.8491    3.2970 C   0  0  0  0  0  0  0  0  0  0  0  0
    3.8299    4.6084    1.9952 Cl  0  0  0  0  0  0  0  0  0  0  0  0
    0.7945   -0.1329   -0.1557 C   0  0  0  0  0  0  0  0  0  0  0  0
    0.2264   -1.0342   -0.7676 O   0  0  0  0  0  0  0  0  0  0  0  0
    0.1374    0.8613    0.5258 N   0  0  0  0  0  0  0  0  0  0  0  0
   -1.2534    1.0768    0.6844 C   0  0  0  0  0  0  0  0  0  0  0  0
   -1.6267    1.3616    1.9978 C   0  0  0  0  0  0  0  0  0  0  0  0
   -2.6459    2.1612    2.3517 N   0  0  0  0  0  0  0  0  0  0  0  0
   -3.3457    2.6896    1.3294 C   0  0  0  0  0  0  0  0  0  0  0  0
   -3.1844    2.3409   -0.0133 C   0  0  0  0  0  0  0  0  0  0  0  0
   -2.1371    1.4447   -0.3615 C   0  0  0  0  0  0  0  0  0  0  0  0
   -2.0864    1.0408   -1.7181 C   0  0  0  0  0  0  0  0  0  0  0  0
   -3.0171    1.5027   -2.6624 C   0  0  0  0  0  0  0  0  0  0  0  0
   -3.9666    2.4536   -2.3065 C   0  0  0  0  0  0  0  0  0  0  0  0
   -4.0382    2.8864   -0.9879 C   0  0  0  0  0  0  0  0  0  0  0  0
    3.8518    0.7406   -1.5520 H   0  0  0  0  0  0  0  0  0  0  0  0
    2.2854    1.5643   -1.6586 H   0  0  0  0  0  0  0  0  0  0  0  0
    2.4627   -0.0565   -2.3093 H   0  0  0  0  0  0  0  0  0  0  0  0
    4.0512   -1.3784   -0.2116 H   0  0  0  0  0  0  0  0  0  0  0  0
    2.5427   -2.0986   -0.7837 H   0  0  0  0  0  0  0  0  0  0  0  0
    3.1398   -2.9982    1.4205 H   0  0  0  0  0  0  0  0  0  0  0  0
    1.6567   -2.0656    1.5949 H   0  0  0  0  0  0  0  0  0  0  0  0
    2.7670    2.7625    0.1415 H   0  0  0  0  0  0  0  0  0  0  0  0
    4.4847    2.7686    4.0772 H   0  0  0  0  0  0  0  0  0  0  0  0
    4.2476    0.3087    4.1804 H   0  0  0  0  0  0  0  0  0  0  0  0
    0.6739    1.2613    1.2859 H   0  0  0  0  0  0  0  0  0  0  0  0
   -1.0441    0.9737    2.8304 H   0  0  0  0  0  0  0  0  0  0  0  0
   -4.0871    3.4214    1.6380 H   0  0  0  0  0  0  0  0  0  0  0  0
   -1.3762    0.2798   -2.0393 H   0  0  0  0  0  0  0  0  0  0  0  0
   -3.0060    1.1154   -3.6798 H   0  0  0  0  0  0  0  0  0  0  0  0
   -4.6683    2.8424   -3.0442 H   0  0  0  0  0  0  0  0  0  0  0  0
   -4.7825    3.6327   -0.7150 H   0  0  0  0  0  0  0  0  0  0  0  0
  1 26  1  0  0  0  0
  1 27  1  0  0  0  0
  1 28  1  0  0  0  0
  2  3  1  0  0  0  0
  2  7  1  0  0  0  0
  2 13  1  1  0  0  0
  2  1  1  0  0  0  0
  3  4  1  0  0  0  0
  3 29  1  0  0  0  0
  3 30  1  0  0  0  0
  4  5  1  0  0  0  0
  4 31  1  0  0  0  0
  4 32  1  0  0  0  0
  5  6  1  0  0  0  0
  6  7  1  0  0  0  0
  6 11  2  0  0  0  0
  7  8  2  0  0  0  0
  8  9  1  0  0  0  0
  8 33  1  0  0  0  0
  9 10  2  0  0  0  0
  9 12  1  0  0  0  0
 10 11  1  0  0  0  0
 10 34  1  0  0  0  0
 11 35  1  0  0  0  0
 13 14  2  0  0  0  0
 13 15  1  0  0  0  0
 15 16  1  0  0  0  0
 15 36  1  0  0  0  0
 16 17  1  0  0  0  0
 16 21  2  0  0  0  0
 17 18  2  0  0  0  0
 17 37  1  0  0  0  0
 18 19  1  0  0  0  0
 19 20  2  0  0  0  0
 19 38  1  0  0  0  0
 20 21  1  0  0  0  0
 20 25  1  0  0  0  0
 21 22  1  0  0  0  0
 22 23  2  0  0  0  0
 22 39  1  0  0  0  0
 23 24  1  0  0  0  0
 23 40  1  0  0  0  0
 24 25  2  0  0  0  0
 24 41  1  0  0  0  0
 25 42  1  0  0  0  0
M  END
$$$$
