REMARK  6 active torsions:
REMARK  status: ('A' for Active; 'I' for Inactive)
REMARK       I    between atoms: C_2  and  N_5 
REMARK    1  A    between atoms: C_2  and  O_3 
REMARK    2  A    between atoms: N_5  and  C_8 
REMARK    3  A    between atoms: N_7  and  C_15 
REMARK    4  A    between atoms: C_8  and  C_11 
REMARK    5  A    between atoms: C_10  and  C_11 
REMARK    6  A    between atoms: O_14  and  C_17 
ROOT
HETATM    1  N   UNL     1       7.641  -1.239  22.584  1.00  0.00    -0.343 N 
HETATM    2  C   UNL     1       8.583  -1.844  23.312  1.00  0.00     0.161 C 
HETATM    3  H   UNL     1       7.024  -0.546  23.057  1.00  0.00     0.167 HD
ENDROOT
BRANCH   2   4
HETATM    4  N   UNL     1       8.259  -2.897  24.279  1.00  0.00    -0.282 N 
HETATM    5  C   UNL     1       8.170  -3.522  25.435  1.00  0.00     0.256 C 
HETATM    6  O   UNL     1       7.328  -3.193  26.256  1.00  0.00    -0.632 OA
ATOM      7  HN  UNL     1       7.826  -3.585  23.664  1.00  0.00     0.174 HD
BRANCH   5   8
HETATM    8  O   UNL     1       8.941  -4.667  25.631  1.00  0.00    -0.760 OA
HETATM    9  H   UNL     1       8.666  -4.657  26.661  1.00  0.00     0.169 HD
ENDBRANCH   5   8
ENDBRANCH   2   4
BRANCH   2  10
HETATM   10  C   UNL     1       9.789  -1.511  23.088  1.00  0.00    -0.031 C 
BRANCH  10  11
HETATM   11  C   UNL     1      10.964  -0.998  22.790  1.00  0.00     0.194 C 
HETATM   12  C   UNL     1      11.586  -0.256  23.948  1.00  0.00     0.106 C 
HETATM   13  O   UNL     1      11.356  -1.229  21.669  1.00  0.00    -0.284 OA
ENDBRANCH  10  11
ENDBRANCH   2  10
BRANCH   1  14
HETATM   14  C   UNL     1       7.314  -1.106  21.161  1.00  0.00     0.121 C 
HETATM   15  C   UNL     1       7.534  -0.071  20.363  1.00  0.00     0.054 C 
HETATM   16  C   UNL     1       6.722   0.391  19.150  1.00  0.00     0.077 C 
BRANCH  15  17
HETATM   17  O   UNL     1       8.702   0.599  20.631  1.00  0.00    -0.364 OA
HETATM   18  H   UNL     1       9.289   0.124  21.268  1.00  0.00     0.217 HD
ENDBRANCH  15  17
ENDBRANCH   1  14
TORSDOF 6
