MODEL 1
REMARK VINA RESULT:    -5.544      0.000      0.000
REMARK INTER + INTRA:          -7.826
REMARK INTER:                  -7.165
REMARK INTRA:                  -0.661
REMARK UNBOUND:                -0.661
REMARK  6 active torsions:
REMARK  status: ('A' for Active; 'I' for Inactive)
REMARK       I    between atoms: C_2  and  N_5 
REMARK    1  A    between atoms: C_2  and  O_3 
REMARK    2  A    between atoms: N_5  and  C_8 
REMARK    3  A    between atoms: N_7  and  C_15 
REMARK    4  A    between atoms: C_8  and  C_11 
REMARK    5  A    between atoms: C_10  and  C_11 
REMARK    6  A    between atoms: O_14  and  C_17 
ROOT
HETATM    1  N   UNL     1       8.585  13.960   1.913  1.00  0.00    -0.343 N 
HETATM    2  C   UNL     1       9.274  15.095   2.058  1.00  0.00     0.161 C 
HETATM    3  H   UNL     1       8.905  13.280   1.192  1.00  0.00     0.167 HD
ENDROOT
BRANCH   2   4
HETATM    4  N   UNL     1       9.179  16.189   1.086  1.00  0.00    -0.282 N 
HETATM    5  C   UNL     1       9.093  17.418   0.620  1.00  0.00     0.256 C 
HETATM    6  O   UNL     1      10.072  18.146   0.604  1.00  0.00    -0.632 OA
ATOM      7  HN  UNL     1       9.183  15.661   0.214  1.00  0.00     0.174 HD
BRANCH   5   8
HETATM    8  O   UNL     1       7.908  17.808  -0.004  1.00  0.00    -0.760 OA
HETATM    9  H   UNL     1       7.431  17.826   0.949  1.00  0.00     0.169 HD
ENDBRANCH   5   8
ENDBRANCH   2   4
BRANCH   2  10
HETATM   10  C   UNL     1       9.973  15.216   3.112  1.00  0.00    -0.031 C 
BRANCH  10  11
HETATM   11  C   UNL     1      10.551  15.252   4.294  1.00  0.00     0.194 C 
HETATM   12  C   UNL     1      10.773  16.659   4.792  1.00  0.00     0.106 C 
HETATM   13  O   UNL     1      10.774  14.171   4.790  1.00  0.00    -0.284 OA
ENDBRANCH  10  11
ENDBRANCH   2  10
BRANCH   1  14
HETATM   14  C   UNL     1       7.546  13.241   2.656  1.00  0.00     0.121 C 
HETATM   15  C   UNL     1       7.676  12.152   3.401  1.00  0.00     0.054 C 
HETATM   16  C   UNL     1       6.653  11.043   3.659  1.00  0.00     0.077 C 
BRANCH  15  17
HETATM   17  O   UNL     1       8.861  12.088   4.090  1.00  0.00    -0.364 OA
HETATM   18  H   UNL     1       8.748  12.139   5.070  1.00  0.00     0.217 HD
ENDBRANCH  15  17
ENDBRANCH   1  14
TORSDOF 6
ENDMDL
MODEL 2
REMARK VINA RESULT:    -5.266      1.717      5.433
REMARK INTER + INTRA:          -7.467
REMARK INTER:                  -7.170
REMARK INTRA:                  -0.297
REMARK UNBOUND:                -0.661
REMARK  6 active torsions:
REMARK  status: ('A' for Active; 'I' for Inactive)
REMARK       I    between atoms: C_2  and  N_5 
REMARK    1  A    between atoms: C_2  and  O_3 
REMARK    2  A    between atoms: N_5  and  C_8 
REMARK    3  A    between atoms: N_7  and  C_15 
REMARK    4  A    between atoms: C_8  and  C_11 
REMARK    5  A    between atoms: C_10  and  C_11 
REMARK    6  A    between atoms: O_14  and  C_17 
ROOT
HETATM    1  N   UNL     1       9.440  16.054   0.991  1.00  0.00    -0.343 N 
HETATM    2  C   UNL     1       9.392  15.015   1.828  1.00  0.00     0.161 C 
HETATM    3  H   UNL     1      10.139  16.032   0.219  1.00  0.00     0.167 HD
ENDROOT
BRANCH   2   4
HETATM    4  N   UNL     1      10.415  14.798   2.855  1.00  0.00    -0.282 N 
HETATM    5  C   UNL     1      10.993  14.807   4.038  1.00  0.00     0.256 C 
HETATM    6  O   UNL     1      10.666  14.001   4.895  1.00  0.00    -0.632 OA
ATOM      7  HN  UNL     1      11.147  14.361   2.296  1.00  0.00     0.174 HD
BRANCH   5   8
HETATM    8  O   UNL     1      12.094  15.640   4.233  1.00  0.00    -0.760 OA
HETATM    9  H   UNL     1      12.736  14.814   4.027  1.00  0.00     0.169 HD
ENDBRANCH   5   8
ENDBRANCH   2   4
BRANCH   2  10
HETATM   10  C   UNL     1       8.382  14.248   1.739  1.00  0.00    -0.031 C 
BRANCH  10  11
HETATM   11  C   UNL     1       7.243  13.609   1.576  1.00  0.00     0.194 C 
HETATM   12  C   UNL     1       6.316  13.763   2.758  1.00  0.00     0.106 C 
HETATM   13  O   UNL     1       7.118  13.043   0.515  1.00  0.00    -0.284 OA
ENDBRANCH  10  11
ENDBRANCH   2  10
BRANCH   1  14
HETATM   14  C   UNL     1       8.608  17.224   0.694  1.00  0.00     0.121 C 
HETATM   15  C   UNL     1       8.908  18.505   0.855  1.00  0.00     0.054 C 
HETATM   16  C   UNL     1       7.972  19.674   1.172  1.00  0.00     0.077 C 
BRANCH  15  17
HETATM   17  O   UNL     1      10.225  18.803   0.607  1.00  0.00    -0.364 OA
HETATM   18  H   UNL     1      10.740  18.037   0.253  1.00  0.00     0.217 HD
ENDBRANCH  15  17
ENDBRANCH   1  14
TORSDOF 6
ENDMDL
MODEL 3
REMARK VINA RESULT:    -5.146     23.716     26.053
REMARK INTER + INTRA:          -7.312
REMARK INTER:                  -7.050
REMARK INTRA:                  -0.262
REMARK UNBOUND:                -0.661
REMARK  6 active torsions:
REMARK  status: ('A' for Active; 'I' for Inactive)
REMARK       I    between atoms: C_2  and  N_5 
REMARK    1  A    between atoms: C_2  and  O_3 
REMARK    2  A    between atoms: N_5  and  C_8 
REMARK    3  A    between atoms: N_7  and  C_15 
REMARK    4  A    between atoms: C_8  and  C_11 
REMARK    5  A    between atoms: C_10  and  C_11 
REMARK    6  A    between atoms: O_14  and  C_17 
ROOT
HETATM    1  N   UNL     1       9.156  -2.695  22.529  1.00  0.00    -0.343 N 
HETATM    2  C   UNL     1       9.945  -1.677  22.175  1.00  0.00     0.161 C 
HETATM    3  H   UNL     1       9.006  -3.463  21.842  1.00  0.00     0.167 HD
ENDROOT
BRANCH   2   4
HETATM    4  N   UNL     1       9.505  -0.649  21.227  1.00  0.00    -0.282 N 
HETATM    5  C   UNL     1       8.709   0.209  20.622  1.00  0.00     0.256 C 
HETATM    6  O   UNL     1       8.428   1.274  21.149  1.00  0.00    -0.632 OA
ATOM      7  HN  UNL     1      10.365  -0.505  20.699  1.00  0.00     0.174 HD
BRANCH   5   8
HETATM    8  O   UNL     1       8.331  -0.052  19.306  1.00  0.00    -0.760 OA
HETATM    9  H   UNL     1       9.185  -0.682  19.202  1.00  0.00     0.169 HD
ENDBRANCH   5   8
ENDBRANCH   2   4
BRANCH   2  10
HETATM   10  C   UNL     1      11.079  -1.601  22.743  1.00  0.00    -0.031 C 
BRANCH  10  11
HETATM   11  C   UNL     1      12.247  -1.331  23.288  1.00  0.00     0.194 C 
HETATM   12  C   UNL     1      12.169  -0.227  24.314  1.00  0.00     0.106 C 
HETATM   13  O   UNL     1      13.164  -2.021  22.905  1.00  0.00    -0.284 OA
ENDBRANCH  10  11
ENDBRANCH   2  10
BRANCH   1  14
HETATM   14  C   UNL     1       8.542  -3.188  23.766  1.00  0.00     0.121 C 
HETATM   15  C   UNL     1       7.669  -4.174  23.911  1.00  0.00     0.054 C 
HETATM   16  C   UNL     1       6.567  -4.330  24.962  1.00  0.00     0.077 C 
BRANCH  15  17
HETATM   17  O   UNL     1       7.865  -5.222  23.045  1.00  0.00    -0.364 OA
HETATM   18  H   UNL     1       8.790  -5.280  22.703  1.00  0.00     0.217 HD
ENDBRANCH  15  17
ENDBRANCH   1  14
TORSDOF 6
ENDMDL
MODEL 4
REMARK VINA RESULT:    -5.066     23.020     24.319
REMARK INTER + INTRA:          -7.208
REMARK INTER:                  -6.846
REMARK INTRA:                  -0.362
REMARK UNBOUND:                -0.661
REMARK  6 active torsions:
REMARK  status: ('A' for Active; 'I' for Inactive)
REMARK       I    between atoms: C_2  and  N_5 
REMARK    1  A    between atoms: C_2  and  O_3 
REMARK    2  A    between atoms: N_5  and  C_8 
REMARK    3  A    between atoms: N_7  and  C_15 
REMARK    4  A    between atoms: C_8  and  C_11 
REMARK    5  A    between atoms: C_10  and  C_11 
REMARK    6  A    between atoms: O_14  and  C_17 
ROOT
HETATM    1  N   UNL     1      10.265   2.198  22.278  1.00  0.00    -0.343 N 
HETATM    2  C   UNL     1      11.181   2.332  23.241  1.00  0.00     0.161 C 
HETATM    3  H   UNL     1      10.572   2.313  21.289  1.00  0.00     0.167 HD
ENDROOT
BRANCH   2   4
HETATM    4  N   UNL     1      11.711   3.641  23.631  1.00  0.00    -0.282 N 
HETATM    5  C   UNL     1      12.142   4.880  23.512  1.00  0.00     0.256 C 
HETATM    6  O   UNL     1      11.355   5.799  23.346  1.00  0.00    -0.632 OA
ATOM      7  HN  UNL     1      11.809   3.508  24.637  1.00  0.00     0.174 HD
BRANCH   5   8
HETATM    8  O   UNL     1      13.492   5.138  23.746  1.00  0.00    -0.760 OA
HETATM    9  H   UNL     1      13.211   5.898  24.439  1.00  0.00     0.169 HD
ENDBRANCH   5   8
ENDBRANCH   2   4
BRANCH   2  10
HETATM   10  C   UNL     1      11.532   1.275  23.854  1.00  0.00    -0.031 C 
BRANCH  10  11
HETATM   11  C   UNL     1      11.778   0.087  24.365  1.00  0.00     0.194 C 
HETATM   12  C   UNL     1      10.583  -0.833  24.301  1.00  0.00     0.106 C 
HETATM   13  O   UNL     1      12.908  -0.076  24.765  1.00  0.00    -0.284 OA
ENDBRANCH  10  11
ENDBRANCH   2  10
BRANCH   1  14
HETATM   14  C   UNL     1       8.886   1.710  22.177  1.00  0.00     0.121 C 
HETATM   15  C   UNL     1       8.333   1.016  21.193  1.00  0.00     0.054 C 
HETATM   16  C   UNL     1       6.877   1.021  20.720  1.00  0.00     0.077 C 
BRANCH  15  17
HETATM   17  O   UNL     1       9.184   0.115  20.602  1.00  0.00    -0.364 OA
HETATM   18  H   UNL     1      10.002   0.531  20.236  1.00  0.00     0.217 HD
ENDBRANCH  15  17
ENDBRANCH   1  14
TORSDOF 6
ENDMDL
MODEL 5
REMARK VINA RESULT:    -4.844     23.473     26.131
REMARK INTER + INTRA:          -6.921
REMARK INTER:                  -6.572
REMARK INTRA:                  -0.349
REMARK UNBOUND:                -0.661
REMARK  6 active torsions:
REMARK  status: ('A' for Active; 'I' for Inactive)
REMARK       I    between atoms: C_2  and  N_5 
REMARK    1  A    between atoms: C_2  and  O_3 
REMARK    2  A    between atoms: N_5  and  C_8 
REMARK    3  A    between atoms: N_7  and  C_15 
REMARK    4  A    between atoms: C_8  and  C_11 
REMARK    5  A    between atoms: C_10  and  C_11 
REMARK    6  A    between atoms: O_14  and  C_17 
ROOT
HETATM    1  N   UNL     1       9.811  -1.042  21.430  1.00  0.00    -0.343 N 
HETATM    2  C   UNL     1      10.391  -1.503  22.541  1.00  0.00     0.161 C 
HETATM    3  H   UNL     1      10.059  -1.490  20.523  1.00  0.00     0.167 HD
ENDROOT
BRANCH   2   4
HETATM    4  N   UNL     1      11.792  -1.215  22.862  1.00  0.00    -0.282 N 
HETATM    5  C   UNL     1      12.982  -1.349  23.410  1.00  0.00     0.256 C 
HETATM    6  O   UNL     1      13.764  -2.192  22.999  1.00  0.00    -0.632 OA
ATOM      7  HN  UNL     1      11.939  -0.373  22.306  1.00  0.00     0.174 HD
BRANCH   5   8
HETATM    8  O   UNL     1      13.390  -0.403  24.350  1.00  0.00    -0.760 OA
HETATM    9  H   UNL     1      14.206  -0.146  23.714  1.00  0.00     0.169 HD
ENDBRANCH   5   8
ENDBRANCH   2   4
BRANCH   2  10
HETATM   10  C   UNL     1       9.657  -2.158  23.346  1.00  0.00    -0.031 C 
BRANCH  10  11
HETATM   11  C   UNL     1       8.930  -2.690  24.306  1.00  0.00     0.194 C 
HETATM   12  C   UNL     1       8.228  -3.954  23.872  1.00  0.00     0.106 C 
HETATM   13  O   UNL     1       8.969  -2.105  25.364  1.00  0.00    -0.284 OA
ENDBRANCH  10  11
ENDBRANCH   2  10
BRANCH   1  14
HETATM   14  C   UNL     1       8.696  -0.148  21.101  1.00  0.00     0.121 C 
HETATM   15  C   UNL     1       8.560   1.136  21.397  1.00  0.00     0.054 C 
HETATM   16  C   UNL     1       7.276   1.927  21.659  1.00  0.00     0.077 C 
BRANCH  15  17
HETATM   17  O   UNL     1       9.738   1.841  21.366  1.00  0.00    -0.364 OA
HETATM   18  H   UNL     1      10.539   1.270  21.458  1.00  0.00     0.217 HD
ENDBRANCH  15  17
ENDBRANCH   1  14
TORSDOF 6
ENDMDL
MODEL 6
REMARK VINA RESULT:    -4.681     34.869     36.362
REMARK INTER + INTRA:          -6.710
REMARK INTER:                  -6.102
REMARK INTRA:                  -0.607
REMARK UNBOUND:                -0.661
REMARK  6 active torsions:
REMARK  status: ('A' for Active; 'I' for Inactive)
REMARK       I    between atoms: C_2  and  N_5 
REMARK    1  A    between atoms: C_2  and  O_3 
REMARK    2  A    between atoms: N_5  and  C_8 
REMARK    3  A    between atoms: N_7  and  C_15 
REMARK    4  A    between atoms: C_8  and  C_11 
REMARK    5  A    between atoms: C_10  and  C_11 
REMARK    6  A    between atoms: O_14  and  C_17 
ROOT
HETATM    1  N   UNL     1      -1.165 -17.202  16.842  1.00  0.00    -0.343 N 
HETATM    2  C   UNL     1      -1.909 -16.552  17.741  1.00  0.00     0.161 C 
HETATM    3  H   UNL     1      -1.517 -18.113  16.480  1.00  0.00     0.167 HD
ENDROOT
BRANCH   2   4
HETATM    4  N   UNL     1      -2.000 -16.992  19.136  1.00  0.00    -0.282 N 
HETATM    5  C   UNL     1      -2.126 -16.917  20.445  1.00  0.00     0.256 C 
HETATM    6  O   UNL     1      -3.217 -16.714  20.954  1.00  0.00    -0.632 OA
ATOM      7  HN  UNL     1      -1.907 -18.000  19.018  1.00  0.00     0.174 HD
BRANCH   5   8
HETATM    8  O   UNL     1      -1.024 -17.238  21.237  1.00  0.00    -0.760 OA
HETATM    9  H   UNL     1      -1.163 -18.265  20.986  1.00  0.00     0.169 HD
ENDBRANCH   5   8
ENDBRANCH   2   4
BRANCH   2  10
HETATM   10  C   UNL     1      -2.491 -15.492  17.350  1.00  0.00    -0.031 C 
BRANCH  10  11
HETATM   11  C   UNL     1      -3.261 -14.492  16.976  1.00  0.00     0.194 C 
HETATM   12  C   UNL     1      -4.059 -13.912  18.118  1.00  0.00     0.106 C 
HETATM   13  O   UNL     1      -3.178 -14.190  15.807  1.00  0.00    -0.284 OA
ENDBRANCH  10  11
ENDBRANCH   2  10
BRANCH   1  14
HETATM   14  C   UNL     1      -0.002 -16.902  16.002  1.00  0.00     0.121 C 
HETATM   15  C   UNL     1       0.019 -16.569  14.719  1.00  0.00     0.054 C 
HETATM   16  C   UNL     1       1.103 -16.851  13.676  1.00  0.00     0.077 C 
BRANCH  15  17
HETATM   17  O   UNL     1      -1.042 -15.791  14.330  1.00  0.00    -0.364 OA
HETATM   18  H   UNL     1      -1.881 -16.004  14.807  1.00  0.00     0.217 HD
ENDBRANCH  15  17
ENDBRANCH   1  14
TORSDOF 6
ENDMDL
MODEL 7
REMARK VINA RESULT:    -4.607     24.024     26.412
REMARK INTER + INTRA:          -6.615
REMARK INTER:                  -6.060
REMARK INTRA:                  -0.554
REMARK UNBOUND:                -0.661
REMARK  6 active torsions:
REMARK  status: ('A' for Active; 'I' for Inactive)
REMARK       I    between atoms: C_2  and  N_5 
REMARK    1  A    between atoms: C_2  and  O_3 
REMARK    2  A    between atoms: N_5  and  C_8 
REMARK    3  A    between atoms: N_7  and  C_15 
REMARK    4  A    between atoms: C_8  and  C_11 
REMARK    5  A    between atoms: C_10  and  C_11 
REMARK    6  A    between atoms: O_14  and  C_17 
ROOT
HETATM    1  N   UNL     1       9.980  -2.244  22.706  1.00  0.00    -0.343 N 
HETATM    2  C   UNL     1       8.754  -2.268  22.177  1.00  0.00     0.161 C 
HETATM    3  H   UNL     1      10.735  -2.771  22.219  1.00  0.00     0.167 HD
ENDROOT
BRANCH   2   4
HETATM    4  N   UNL     1       7.892  -3.450  22.270  1.00  0.00    -0.282 N 
HETATM    5  C   UNL     1       7.455  -4.626  22.670  1.00  0.00     0.256 C 
HETATM    6  O   UNL     1       6.904  -4.749  23.753  1.00  0.00    -0.632 OA
ATOM      7  HN  UNL     1       7.171  -3.206  21.592  1.00  0.00     0.174 HD
BRANCH   5   8
HETATM    8  O   UNL     1       7.483  -5.687  21.766  1.00  0.00    -0.760 OA
HETATM    9  H   UNL     1       7.419  -4.986  20.965  1.00  0.00     0.169 HD
ENDBRANCH   5   8
ENDBRANCH   2   4
BRANCH   2  10
HETATM   10  C   UNL     1       8.335  -1.195  21.639  1.00  0.00    -0.031 C 
BRANCH  10  11
HETATM   11  C   UNL     1       7.912  -0.182  20.913  1.00  0.00     0.194 C 
HETATM   12  C   UNL     1       6.488  -0.355  20.445  1.00  0.00     0.106 C 
HETATM   13  O   UNL     1       8.710   0.716  20.770  1.00  0.00    -0.284 OA
ENDBRANCH  10  11
ENDBRANCH   2  10
BRANCH   1  14
HETATM   14  C   UNL     1      10.680  -1.480  23.743  1.00  0.00     0.121 C 
HETATM   15  C   UNL     1      11.477  -0.432  23.591  1.00  0.00     0.054 C 
HETATM   16  C   UNL     1      12.669  -0.005  24.451  1.00  0.00     0.077 C 
BRANCH  15  17
HETATM   17  O   UNL     1      11.099   0.411  22.575  1.00  0.00    -0.364 OA
HETATM   18  H   UNL     1      10.687   1.250  22.895  1.00  0.00     0.217 HD
ENDBRANCH  15  17
ENDBRANCH   1  14
TORSDOF 6
ENDMDL
MODEL 8
REMARK VINA RESULT:    -4.561     23.239     24.740
REMARK INTER + INTRA:          -6.555
REMARK INTER:                  -6.266
REMARK INTRA:                  -0.289
REMARK UNBOUND:                -0.661
REMARK  6 active torsions:
REMARK  status: ('A' for Active; 'I' for Inactive)
REMARK       I    between atoms: C_2  and  N_5 
REMARK    1  A    between atoms: C_2  and  O_3 
REMARK    2  A    between atoms: N_5  and  C_8 
REMARK    3  A    between atoms: N_7  and  C_15 
REMARK    4  A    between atoms: C_8  and  C_11 
REMARK    5  A    between atoms: C_10  and  C_11 
REMARK    6  A    between atoms: O_14  and  C_17 
ROOT
HETATM    1  N   UNL     1      11.432   3.266  22.889  1.00  0.00    -0.343 N 
HETATM    2  C   UNL     1      10.686   2.159  22.921  1.00  0.00     0.161 C 
HETATM    3  H   UNL     1      12.229   3.302  22.218  1.00  0.00     0.167 HD
ENDROOT
BRANCH   2   4
HETATM    4  N   UNL     1      11.166   0.917  23.533  1.00  0.00    -0.282 N 
HETATM    5  C   UNL     1      12.001  -0.039  23.886  1.00  0.00     0.256 C 
HETATM    6  O   UNL     1      12.800   0.137  24.792  1.00  0.00    -0.632 OA
ATOM      7  HN  UNL     1      10.305   0.575  23.956  1.00  0.00     0.174 HD
BRANCH   5   8
HETATM    8  O   UNL     1      11.839  -1.303  23.320  1.00  0.00    -0.760 OA
HETATM    9  H   UNL     1      11.676  -0.841  22.373  1.00  0.00     0.169 HD
ENDBRANCH   5   8
ENDBRANCH   2   4
BRANCH   2  10
HETATM   10  C   UNL     1       9.508   2.243  22.451  1.00  0.00    -0.031 C 
BRANCH  10  11
HETATM   11  C   UNL     1       8.269   2.143  22.018  1.00  0.00     0.194 C 
HETATM   12  C   UNL     1       7.447   3.373  22.316  1.00  0.00     0.106 C 
HETATM   13  O   UNL     1       8.009   1.114  21.436  1.00  0.00    -0.284 OA
ENDBRANCH  10  11
ENDBRANCH   2  10
BRANCH   1  14
HETATM   14  C   UNL     1      11.343   4.629  23.421  1.00  0.00     0.121 C 
HETATM   15  C   UNL     1      12.269   5.316  24.074  1.00  0.00     0.054 C 
HETATM   16  C   UNL     1      12.083   6.390  25.149  1.00  0.00     0.077 C 
BRANCH  15  17
HETATM   17  O   UNL     1      13.549   5.076  23.639  1.00  0.00    -0.364 OA
HETATM   18  H   UNL     1      14.209   5.025  24.373  1.00  0.00     0.217 HD
ENDBRANCH  15  17
ENDBRANCH   1  14
TORSDOF 6
ENDMDL
MODEL 9
REMARK VINA RESULT:    -4.471     26.165     28.555
REMARK INTER + INTRA:          -6.438
REMARK INTER:                  -5.994
REMARK INTRA:                  -0.445
REMARK UNBOUND:                -0.661
REMARK  6 active torsions:
REMARK  status: ('A' for Active; 'I' for Inactive)
REMARK       I    between atoms: C_2  and  N_5 
REMARK    1  A    between atoms: C_2  and  O_3 
REMARK    2  A    between atoms: N_5  and  C_8 
REMARK    3  A    between atoms: N_7  and  C_15 
REMARK    4  A    between atoms: C_8  and  C_11 
REMARK    5  A    between atoms: C_10  and  C_11 
REMARK    6  A    between atoms: O_14  and  C_17 
ROOT
HETATM    1  N   UNL     1       7.594  -5.248  22.917  1.00  0.00    -0.343 N 
HETATM    2  C   UNL     1       8.142  -4.330  23.718  1.00  0.00     0.161 C 
HETATM    3  H   UNL     1       8.225  -5.809  22.308  1.00  0.00     0.167 HD
ENDROOT
BRANCH   2   4
HETATM    4  N   UNL     1       8.657  -3.059  23.201  1.00  0.00    -0.282 N 
HETATM    5  C   UNL     1       8.877  -2.071  22.358  1.00  0.00     0.256 C 
HETATM    6  O   UNL     1       8.007  -1.245  22.128  1.00  0.00    -0.632 OA
ATOM      7  HN  UNL     1       9.178  -2.728  24.012  1.00  0.00     0.174 HD
BRANCH   5   8
HETATM    8  O   UNL     1      10.170  -1.894  21.866  1.00  0.00    -0.760 OA
HETATM    9  H   UNL     1      10.278  -2.953  21.814  1.00  0.00     0.169 HD
ENDBRANCH   5   8
ENDBRANCH   2   4
BRANCH   2  10
HETATM   10  C   UNL     1       8.144  -4.578  24.964  1.00  0.00    -0.031 C 
BRANCH  10  11
HETATM   11  C   UNL     1       7.978  -4.927  26.223  1.00  0.00     0.194 C 
HETATM   12  C   UNL     1       6.679  -5.658  26.457  1.00  0.00     0.106 C 
HETATM   13  O   UNL     1       8.892  -4.637  26.961  1.00  0.00    -0.284 OA
ENDBRANCH  10  11
ENDBRANCH   2  10
BRANCH   1  14
HETATM   14  C   UNL     1       6.282  -5.886  22.768  1.00  0.00     0.121 C 
HETATM   15  C   UNL     1       5.092  -5.307  22.703  1.00  0.00     0.054 C 
HETATM   16  C   UNL     1       3.738  -5.850  23.168  1.00  0.00     0.077 C 
BRANCH  15  17
HETATM   17  O   UNL     1       5.095  -4.103  22.045  1.00  0.00    -0.364 OA
HETATM   18  H   UNL     1       5.854  -3.522  22.294  1.00  0.00     0.217 HD
ENDBRANCH  15  17
ENDBRANCH   1  14
TORSDOF 6
ENDMDL
