stable:False satoms:18 tatoms:24 sratio:0.75
  -OEChem-07092417343D

 24 23  0     0  0  0  0  0  0999 V2000
    7.3280   -3.1930   26.2562 O   0  0  0  0  0  0  0  0  0  0  0  0
    8.1704   -3.5221   25.4346 C   0  0  0  0  0  0  0  0  0  0  0  0
    8.9406   -4.6665   25.6311 O   0  0  0  0  0  0  0  0  0  0  0  0
    8.6660   -4.6572   26.6608 H   0  0  0  0  0  0  0  0  0  0  0  0
    8.2587   -2.8966   24.2788 N   0  0  0  0  0  0  0  0  0  0  0  0
    7.6413   -1.2387   22.5835 N   0  3  0  0  0  0  0  0  0  0  0  0
    8.5830   -1.8436   23.3116 C   0  0  0  0  0  0  0  0  0  0  0  0
   11.5857   -0.2555   23.9484 C   0  0  0  0  0  0  0  0  0  0  0  0
   11.1397   -0.6259   24.8598 H   0  0  0  0  0  0  0  0  0  0  0  0
   11.4277    0.8064   23.9327 H   0  0  0  0  0  0  0  0  0  0  0  0
   10.9641   -0.9975   22.7895 C   0  0  0  0  0  0  0  0  0  0  0  0
   12.6476   -0.4335   23.8792 H   0  0  0  0  0  0  0  0  0  0  0  0
    9.7891   -1.5107   23.0878 C   0  0  0  0  0  0  0  0  0  0  0  0
   11.3560   -1.2293   21.6689 O   0  0  0  0  0  0  0  0  0  0  0  0
    9.2885    0.1238   21.2684 H   0  0  0  0  0  0  0  0  0  0  0  0
    8.7024    0.5985   20.6309 O   0  0  0  0  0  0  0  0  0  0  0  0
    6.8770   -2.0045   20.8026 H   0  0  0  0  0  0  0  0  0  0  0  0
    7.3140   -1.1058   21.1612 C   0  0  0  0  0  0  0  0  0  0  0  0
    6.8062    1.4627   19.0930 H   0  0  0  0  0  0  0  0  0  0  0  0
    7.1408    0.0117   18.2249 H   0  0  0  0  0  0  0  0  0  0  0  0
    6.7222    0.3910   19.1499 C   0  0  0  0  0  0  0  0  0  0  0  0
    5.6776    0.1134   19.2234 H   0  0  0  0  0  0  0  0  0  0  0  0
    7.5337   -0.0710   20.3629 C   0  0  0  0  0  0  0  0  0  0  0  0
    7.0237   -0.5462   23.0567 H   0  0  0  0  0  0  0  0  0  0  0  0
 20 21  1  0  0  0  0
 19 21  1  0  0  0  0
 21 22  1  0  0  0  0
 21 23  1  0  0  0  0
 16 23  1  0  0  0  0
 18 23  2  3  0  0  0
 15 16  1  0  0  0  0
 17 18  1  0  0  0  0
  6 18  1  0  0  0  0
 11 14  2  0  0  0  0
  6 24  1  0  0  0  0
  6  7  2  3  0  0  0
 11 13  1  0  0  0  0
  8 11  1  0  0  0  0
  7 13  1  0  0  0  0
  5  7  1  0  0  0  0
  8 12  1  0  0  0  0
  8 10  1  0  0  0  0
  8  9  1  0  0  0  0
  2  5  1  0  0  0  0
  2  3  1  0  0  0  0
  1  2  2  0  0  0  0
  3  4  1  0  0  0  0
M  CHG  1   6   1
M  END
> <Shapegauss>
-146.549011

$$$$
