MODEL 1
REMARK VINA RESULT:    -4.995      0.000      0.000
REMARK INTER + INTRA:          -5.430
REMARK INTER:                  -5.287
REMARK INTRA:                  -0.144
REMARK UNBOUND:                -0.144
REMARK  1 active torsions:
REMARK  status: ('A' for Active; 'I' for Inactive)
REMARK    1  A    between atoms: N_5  and  C_9 
ROOT
HETATM    1  C   UNL     1       8.714  -0.689  21.262  1.00  0.00     0.138 C 
HETATM    2  C   UNL     1      10.797  -0.937  22.378  1.00  0.00     0.090 C 
HETATM    3  C   UNL     1       8.087  -1.512  22.197  1.00  0.00     0.128 C 
HETATM    4  N   UNL     1       6.875  -3.737  23.268  1.00  0.00     0.020 N 
HETATM    5 CL   UNL     1       7.922  -0.035  19.943  1.00  0.00    -0.061 Cl
HETATM    6  H   UNL     1      10.475   0.257  20.763  1.00  0.00     0.166 HD
HETATM    7  C   UNL     1       6.091  -2.655  22.778  1.00  0.00     0.373 A 
HETATM    8  N   UNL     1      10.018  -0.381  21.406  1.00  0.00    -0.354 N 
HETATM    9  C   UNL     1       5.629  -2.805  24.120  1.00  0.00     0.318 A 
HETATM   10  C   UNL     1      10.318  -1.929  23.126  1.00  0.00     0.040 C 
HETATM   11  O   UNL     1       6.737  -1.452  22.321  1.00  0.00    -0.310 OA
HETATM   12  S   UNL     1       8.487  -3.606  23.882  1.00  0.00     0.098 SA
HETATM   13  C   UNL     1       8.952  -2.263  22.995  1.00  0.00     0.067 C 
ENDROOT
BRANCH   4  14
HETATM   14  C   UNL     1       6.690  -5.012  22.964  1.00  0.00     0.251 C 
HETATM   15  C   UNL     1       7.101  -5.642  21.729  1.00  0.00     0.036 C 
ENDBRANCH   4  14
TORSDOF 1
ENDMDL
MODEL 2
REMARK VINA RESULT:    -4.960      3.998      5.485
REMARK INTER + INTRA:          -5.394
REMARK INTER:                  -5.264
REMARK INTRA:                  -0.130
REMARK UNBOUND:                -0.144
REMARK  1 active torsions:
REMARK  status: ('A' for Active; 'I' for Inactive)
REMARK    1  A    between atoms: N_5  and  C_9 
ROOT
HETATM    1  C   UNL     1       5.673  -6.101  26.010  1.00  0.00     0.138 C 
HETATM    2  C   UNL     1       7.777  -5.386  26.852  1.00  0.00     0.090 C 
HETATM    3  C   UNL     1       6.041  -5.740  24.714  1.00  0.00     0.128 C 
HETATM    4  N   UNL     1       6.127  -4.314  22.363  1.00  0.00     0.020 N 
HETATM    5 CL   UNL     1       4.166  -6.712  26.396  1.00  0.00    -0.061 Cl
HETATM    6  H   UNL     1       6.321  -6.276  27.958  1.00  0.00     0.166 HD
HETATM    7  C   UNL     1       5.316  -5.480  22.471  1.00  0.00     0.373 A 
HETATM    8  N   UNL     1       6.556  -5.971  27.019  1.00  0.00    -0.354 N 
HETATM    9  C   UNL     1       6.137  -5.762  21.338  1.00  0.00     0.318 A 
HETATM   10  C   UNL     1       8.071  -4.783  25.701  1.00  0.00     0.040 C 
HETATM   11  O   UNL     1       5.364  -6.277  23.668  1.00  0.00    -0.310 OA
HETATM   12  S   UNL     1       7.563  -4.010  23.276  1.00  0.00     0.098 SA
HETATM   13  C   UNL     1       7.162  -4.913  24.629  1.00  0.00     0.067 C 
ENDROOT
BRANCH   4  14
HETATM   14  C   UNL     1       5.722  -3.144  21.894  1.00  0.00     0.251 C 
HETATM   15  C   UNL     1       6.541  -1.955  21.806  1.00  0.00     0.036 C 
ENDBRANCH   4  14
TORSDOF 1
ENDMDL
MODEL 3
REMARK VINA RESULT:    -4.838      1.902      4.240
REMARK INTER + INTRA:          -5.265
REMARK INTER:                  -5.164
REMARK INTRA:                  -0.101
REMARK UNBOUND:                -0.144
REMARK  1 active torsions:
REMARK  status: ('A' for Active; 'I' for Inactive)
REMARK    1  A    between atoms: N_5  and  C_9 
ROOT
HETATM    1  C   UNL     1       7.032  -0.717  20.950  1.00  0.00     0.138 C 
HETATM    2  C   UNL     1       5.881  -2.682  21.630  1.00  0.00     0.090 C 
HETATM    3  C   UNL     1       8.176  -1.119  21.640  1.00  0.00     0.128 C 
HETATM    4  N   UNL     1      10.120  -1.188  23.585  1.00  0.00     0.020 N 
HETATM    5 CL   UNL     1       6.921   0.736  20.132  1.00  0.00    -0.061 Cl
HETATM    6  H   UNL     1       5.131  -1.267  20.376  1.00  0.00     0.166 HD
HETATM    7  C   UNL     1      10.350  -0.501  22.359  1.00  0.00     0.373 A 
HETATM    8  N   UNL     1       5.952  -1.522  20.916  1.00  0.00    -0.354 N 
HETATM    9  C   UNL     1      11.447  -1.411  22.429  1.00  0.00     0.318 A 
HETATM   10  C   UNL     1       6.833  -2.976  22.514  1.00  0.00     0.040 C 
HETATM   11  O   UNL     1       9.368  -0.564  21.308  1.00  0.00    -0.310 OA
HETATM   12  S   UNL     1       9.048  -2.529  23.791  1.00  0.00     0.098 SA
HETATM   13  C   UNL     1       7.977  -2.148  22.561  1.00  0.00     0.067 C 
ENDROOT
BRANCH   4  14
HETATM   14  C   UNL     1      10.338  -0.689  24.792  1.00  0.00     0.251 C 
HETATM   15  C   UNL     1      10.223   0.709  25.148  1.00  0.00     0.036 C 
ENDBRANCH   4  14
TORSDOF 1
ENDMDL
MODEL 4
REMARK VINA RESULT:    -4.780      2.740      4.276
REMARK INTER + INTRA:          -5.203
REMARK INTER:                  -5.081
REMARK INTRA:                  -0.122
REMARK UNBOUND:                -0.144
REMARK  1 active torsions:
REMARK  status: ('A' for Active; 'I' for Inactive)
REMARK    1  A    between atoms: N_5  and  C_9 
ROOT
HETATM    1  C   UNL     1       9.695  -1.963  22.872  1.00  0.00     0.138 C 
HETATM    2  C   UNL     1       8.050  -3.600  23.385  1.00  0.00     0.090 C 
HETATM    3  C   UNL     1       8.728  -1.134  22.305  1.00  0.00     0.128 C 
HETATM    4  N   UNL     1       7.281   0.193  20.378  1.00  0.00     0.020 N 
HETATM    5 CL   UNL     1      11.322  -1.583  22.901  1.00  0.00    -0.061 Cl
HETATM    6  H   UNL     1      10.014  -3.720  23.900  1.00  0.00     0.166 HD
HETATM    7  C   UNL     1       8.327   0.857  21.079  1.00  0.00     0.373 A 
HETATM    8  N   UNL     1       9.329  -3.129  23.439  1.00  0.00    -0.354 N 
HETATM    9  C   UNL     1       7.202   1.707  21.300  1.00  0.00     0.318 A 
HETATM   10  C   UNL     1       7.148  -2.981  22.625  1.00  0.00     0.040 C 
HETATM   11  O   UNL     1       9.003   0.187  22.159  1.00  0.00    -0.310 OA
HETATM   12  S   UNL     1       6.350  -1.129  20.992  1.00  0.00     0.098 SA
HETATM   13  C   UNL     1       7.509  -1.754  22.027  1.00  0.00     0.067 C 
ENDROOT
BRANCH   4  14
HETATM   14  C   UNL     1       7.131   0.182  19.063  1.00  0.00     0.251 C 
HETATM   15  C   UNL     1       5.978  -0.338  18.361  1.00  0.00     0.036 C 
ENDBRANCH   4  14
TORSDOF 1
ENDMDL
MODEL 5
REMARK VINA RESULT:    -4.758      3.076      3.535
REMARK INTER + INTRA:          -5.179
REMARK INTER:                  -5.080
REMARK INTRA:                  -0.100
REMARK UNBOUND:                -0.144
REMARK  1 active torsions:
REMARK  status: ('A' for Active; 'I' for Inactive)
REMARK    1  A    between atoms: N_5  and  C_9 
ROOT
HETATM    1  C   UNL     1      11.518  -0.809  23.651  1.00  0.00     0.138 C 
HETATM    2  C   UNL     1      10.882   1.332  24.464  1.00  0.00     0.090 C 
HETATM    3  C   UNL     1      10.227  -1.296  23.850  1.00  0.00     0.128 C 
HETATM    4  N   UNL     1       8.150  -2.705  24.976  1.00  0.00     0.020 N 
HETATM    5 CL   UNL     1      12.777  -1.757  23.092  1.00  0.00    -0.061 Cl
HETATM    6  H   UNL     1      12.716   0.866  23.717  1.00  0.00     0.166 HD
HETATM    7  C   UNL     1       8.829  -3.212  23.833  1.00  0.00     0.373 A 
HETATM    8  N   UNL     1      11.794   0.485  23.905  1.00  0.00    -0.354 N 
HETATM    9  C   UNL     1       7.465  -3.191  23.413  1.00  0.00     0.318 A 
HETATM   10  C   UNL     1       9.727   0.853  24.922  1.00  0.00     0.040 C 
HETATM   11  O   UNL     1       9.840  -2.415  23.188  1.00  0.00    -0.310 OA
HETATM   12  S   UNL     1       8.005  -1.032  25.391  1.00  0.00     0.098 SA
HETATM   13  C   UNL     1       9.416  -0.500  24.661  1.00  0.00     0.067 C 
ENDROOT
BRANCH   4  14
HETATM   14  C   UNL     1       7.895  -3.391  26.080  1.00  0.00     0.251 C 
HETATM   15  C   UNL     1       8.716  -4.461  26.602  1.00  0.00     0.036 C 
ENDBRANCH   4  14
TORSDOF 1
ENDMDL
MODEL 6
REMARK VINA RESULT:    -4.750      4.031      5.387
REMARK INTER + INTRA:          -5.171
REMARK INTER:                  -5.057
REMARK INTRA:                  -0.114
REMARK UNBOUND:                -0.144
REMARK  1 active torsions:
REMARK  status: ('A' for Active; 'I' for Inactive)
REMARK    1  A    between atoms: N_5  and  C_9 
ROOT
HETATM    1  C   UNL     1       4.754   1.502  19.532  1.00  0.00     0.138 C 
HETATM    2  C   UNL     1       5.895   0.111  17.979  1.00  0.00     0.090 C 
HETATM    3  C   UNL     1       5.903   1.615  20.313  1.00  0.00     0.128 C 
HETATM    4  N   UNL     1       7.635   1.245  22.418  1.00  0.00     0.020 N 
HETATM    5 CL   UNL     1       3.292   2.197  19.950  1.00  0.00    -0.061 Cl
HETATM    6  H   UNL     1       3.980   0.762  17.772  1.00  0.00     0.166 HD
HETATM    7  C   UNL     1       6.818   2.409  22.353  1.00  0.00     0.373 A 
HETATM    8  N   UNL     1       4.794   0.812  18.375  1.00  0.00    -0.354 N 
HETATM    9  C   UNL     1       8.135   2.946  22.471  1.00  0.00     0.318 A 
HETATM   10  C   UNL     1       6.923  -0.036  18.813  1.00  0.00     0.040 C 
HETATM   11  O   UNL     1       5.997   2.643  21.193  1.00  0.00    -0.310 OA
HETATM   12  S   UNL     1       8.177   0.327  21.056  1.00  0.00     0.098 SA
HETATM   13  C   UNL     1       6.903   0.684  20.028  1.00  0.00     0.067 C 
ENDROOT
BRANCH   4  14
HETATM   14  C   UNL     1       7.760   0.460  23.477  1.00  0.00     0.251 C 
HETATM   15  C   UNL     1       8.788  -0.543  23.653  1.00  0.00     0.036 C 
ENDBRANCH   4  14
TORSDOF 1
ENDMDL
MODEL 7
REMARK VINA RESULT:    -4.716     23.350     25.034
REMARK INTER + INTRA:          -5.136
REMARK INTER:                  -5.006
REMARK INTRA:                  -0.130
REMARK UNBOUND:                -0.144
REMARK  1 active torsions:
REMARK  status: ('A' for Active; 'I' for Inactive)
REMARK    1  A    between atoms: N_5  and  C_9 
ROOT
HETATM    1  C   UNL     1       9.957  15.056   3.735  1.00  0.00     0.138 C 
HETATM    2  C   UNL     1       8.952  16.594   2.228  1.00  0.00     0.090 C 
HETATM    3  C   UNL     1       8.967  14.111   3.470  1.00  0.00     0.128 C 
HETATM    4  N   UNL     1       6.751  12.526   3.846  1.00  0.00     0.020 N 
HETATM    5 CL   UNL     1      11.183  14.810   4.845  1.00  0.00    -0.061 Cl
HETATM    6  H   UNL     1      10.698  16.909   3.222  1.00  0.00     0.166 HD
HETATM    7  C   UNL     1       8.057  12.004   4.068  1.00  0.00     0.373 A 
HETATM    8  N   UNL     1       9.957  16.232   3.077  1.00  0.00    -0.354 N 
HETATM    9  C   UNL     1       7.500  11.088   3.125  1.00  0.00     0.318 A 
HETATM   10  C   UNL     1       7.852  15.848   2.146  1.00  0.00     0.040 C 
HETATM   11  O   UNL     1       9.211  12.809   3.762  1.00  0.00    -0.310 OA
HETATM   12  S   UNL     1       6.361  13.815   2.761  1.00  0.00     0.098 SA
HETATM   13  C   UNL     1       7.835  14.609   2.824  1.00  0.00     0.067 C 
ENDROOT
BRANCH   4  14
HETATM   14  C   UNL     1       5.735  12.420   4.688  1.00  0.00     0.251 C 
HETATM   15  C   UNL     1       5.783  12.746   6.097  1.00  0.00     0.036 C 
ENDBRANCH   4  14
TORSDOF 1
ENDMDL
MODEL 8
REMARK VINA RESULT:    -4.684     22.547     24.229
REMARK INTER + INTRA:          -5.102
REMARK INTER:                  -5.042
REMARK INTRA:                  -0.060
REMARK UNBOUND:                -0.144
REMARK  1 active torsions:
REMARK  status: ('A' for Active; 'I' for Inactive)
REMARK    1  A    between atoms: N_5  and  C_9 
ROOT
HETATM    1  C   UNL     1       3.081 -19.346   9.025  1.00  0.00     0.138 C 
HETATM    2  C   UNL     1       0.830 -18.647   9.329  1.00  0.00     0.090 C 
HETATM    3  C   UNL     1       2.660 -20.625   8.661  1.00  0.00     0.128 C 
HETATM    4  N   UNL     1       2.191 -23.329   8.837  1.00  0.00     0.020 N 
HETATM    5 CL   UNL     1       4.690 -18.912   9.147  1.00  0.00    -0.061 Cl
HETATM    6  H   UNL     1       2.458 -17.442   9.506  1.00  0.00     0.166 HD
HETATM    7  C   UNL     1       3.338 -22.840   8.150  1.00  0.00     0.373 A 
HETATM    8  N   UNL     1       2.169 -18.390   9.290  1.00  0.00    -0.354 N 
HETATM    9  C   UNL     1       2.698 -23.655   7.168  1.00  0.00     0.318 A 
HETATM   10  C   UNL     1       0.393 -19.903   9.256  1.00  0.00     0.040 C 
HETATM   11  O   UNL     1       3.514 -21.422   7.972  1.00  0.00    -0.310 OA
HETATM   12  S   UNL     1       0.702 -22.471   9.034  1.00  0.00     0.098 SA
HETATM   13  C   UNL     1       1.333 -20.920   8.973  1.00  0.00     0.067 C 
ENDROOT
BRANCH   4  14
HETATM   14  C   UNL     1       2.200 -24.283   9.755  1.00  0.00     0.251 C 
HETATM   15  C   UNL     1       3.364 -24.707  10.503  1.00  0.00     0.036 C 
ENDBRANCH   4  14
TORSDOF 1
ENDMDL
MODEL 9
REMARK VINA RESULT:    -4.585      3.214      5.067
REMARK INTER + INTRA:          -4.997
REMARK INTER:                  -4.852
REMARK INTRA:                  -0.145
REMARK UNBOUND:                -0.144
REMARK  1 active torsions:
REMARK  status: ('A' for Active; 'I' for Inactive)
REMARK    1  A    between atoms: N_5  and  C_9 
ROOT
HETATM    1  C   UNL     1       7.972  -4.245  25.350  1.00  0.00     0.138 C 
HETATM    2  C   UNL     1       7.204  -4.756  23.160  1.00  0.00     0.090 C 
HETATM    3  C   UNL     1       8.402  -2.986  24.932  1.00  0.00     0.128 C 
HETATM    4  N   UNL     1      10.111  -0.954  24.215  1.00  0.00     0.020 N 
HETATM    5 CL   UNL     1       8.188  -4.815  26.906  1.00  0.00    -0.061 Cl
HETATM    6  H   UNL     1       6.981  -5.960  24.783  1.00  0.00     0.166 HD
HETATM    7  C   UNL     1       9.579  -1.017  25.534  1.00  0.00     0.373 A 
HETATM    8  N   UNL     1       7.344  -5.062  24.482  1.00  0.00    -0.354 N 
HETATM    9  C   UNL     1       9.206   0.290  25.099  1.00  0.00     0.318 A 
HETATM   10  C   UNL     1       7.830  -3.694  22.655  1.00  0.00     0.040 C 
HETATM   11  O   UNL     1       8.602  -2.021  25.865  1.00  0.00    -0.310 OA
HETATM   12  S   UNL     1       9.351  -1.596  22.800  1.00  0.00     0.098 SA
HETATM   13  C   UNL     1       8.489  -2.822  23.549  1.00  0.00     0.067 C 
ENDROOT
BRANCH   4  14
HETATM   14  C   UNL     1      11.390  -0.788  23.914  1.00  0.00     0.251 C 
HETATM   15  C   UNL     1      12.114  -1.543  22.915  1.00  0.00     0.036 C 
ENDBRANCH   4  14
TORSDOF 1
ENDMDL
