stable:False satoms:18 tatoms:24 sratio:0.75
  -OEChem-07092417273D

 24 26  0     1  0  0  0  0  0999 V2000
   10.3842    1.3459   24.2606 C   0  0  0  0  0  0  0  0  0  0  0  0
    9.4795    1.9336   21.2566 H   0  0  0  0  0  0  0  0  0  0  0  0
    7.8756   -5.6426   21.5798 H   0  0  0  0  0  0  0  0  0  0  0  0
    9.8746   -4.1967   21.2555 H   0  0  0  0  0  0  0  0  0  0  0  0
    6.6543   -2.7923   22.7890 C   0  0  0  0  0  0  0  0  0  0  0  0
    7.8882   -4.6042   21.8720 C   0  0  0  0  0  0  0  0  0  0  0  0
   11.5365   -0.1828   23.2421 H   0  0  0  0  0  0  0  0  0  0  0  0
    7.6026   -1.8804   22.3278 C   0  0  0  0  0  0  0  0  0  0  0  0
    9.6714   -0.0667   22.3776 N   0  3  2  0  0  0  0  0  0  0  0  0
   10.0714    0.8098   25.1525 H   0  0  0  0  0  0  0  0  0  0  0  0
    5.3177   -2.3447   23.6890 Cl  0  0  0  0  0  0  0  0  0  0  0  0
    6.0813   -4.7709   22.7901 H   0  0  0  0  0  0  0  0  0  0  0  0
    8.3196    0.3811   22.3454 C   0  0  1  0  0  0  0  0  0  0  0  0
   10.5966    0.3633   23.2210 C   0  3  0  0  0  0  0  0  0  0  0  0
    6.7889   -4.1019   22.5046 N   0  3  0  0  0  0  0  0  0  0  0  0
    7.8890    1.0623   23.1064 H   0  0  0  0  0  0  0  0  0  0  0  0
    8.9030    1.0330   21.2168 C   0  0  0  0  0  0  0  0  0  0  0  0
    8.4529    0.8219   20.2820 H   0  0  0  0  0  0  0  0  0  0  0  0
   11.3129    1.8691   24.4774 H   0  0  0  0  0  0  0  0  0  0  0  0
    8.9416   -3.8199   21.6518 C   0  0  0  0  0  0  0  0  0  0  0  0
    9.6326    2.0845   24.0054 H   0  0  0  0  0  0  0  0  0  0  0  0
    7.2520   -0.5754   22.2086 O   0  0  0  0  0  0  0  0  0  0  0  0
   10.2387   -1.5737   21.7480 S   0  0  0  0  0  0  0  0  0  0  0  0
    8.8189   -2.4424   21.9368 C   0  0  0  0  0  0  0  0  0  0  0  0
 17 18  1  0  0  0  0
  2 17  1  0  0  0  0
 13 17  1  0  0  0  0
  9 17  1  0  0  0  0
  4 20  1  0  0  0  0
  3  6  1  0  0  0  0
  6 20  2  0  0  0  0
 20 24  1  0  0  0  0
 23 24  1  0  0  0  0
  9 23  1  0  0  0  0
  6 15  1  0  0  0  0
  8 24  2  0  0  0  0
  8 22  1  0  0  0  0
 13 22  1  0  0  0  0
  5  8  1  0  0  0  0
  9 13  1  0  0  0  0
 13 16  1  0  0  0  0
  9 14  1  0  0  0  0
  5 15  2  0  0  0  0
 12 15  1  0  0  0  0
  5 11  1  0  0  0  0
  7 14  1  0  0  0  0
  1 14  1  0  0  0  0
  1 21  1  0  0  0  0
  1 19  1  0  0  0  0
  1 10  1  0  0  0  0
M  CHG  3   9   1  14   1  15   1
M  END
> <Shapegauss>
-119.358025

$$$$
