stable:False satoms:20 tatoms:24 sratio:0.8333333333333334
  -OEChem-07092417343D

 24 23  0     0  0  0  0  0  0999 V2000
    6.9841   -4.8333   25.7007 H   0  0  0  0  0  0  0  0  0  0  0  0
    9.4091   -2.8817   24.8549 C   0  3  0  0  0  0  0  0  0  0  0  0
    9.3371   -4.9491   25.9686 O   0  0  0  0  0  0  0  0  0  0  0  0
    7.4033   -3.9204   25.6964 O   0  0  0  0  0  0  0  0  0  0  0  0
    8.7163   -3.9479   25.4633 C   0  0  0  0  0  0  0  0  0  0  0  0
   10.3819   -2.6574   25.2773 H   0  0  0  0  0  0  0  0  0  0  0  0
    9.8272   -1.3816   23.1971 N   0  3  0  0  0  0  0  0  0  0  0  0
    9.0890   -2.1221   23.8144 N   0  0  0  0  0  0  0  0  0  0  0  0
   11.3446    1.2673   22.9356 H   0  0  0  0  0  0  0  0  0  0  0  0
   11.2821    0.3055   22.4657 C   0  0  0  0  0  0  0  0  0  0  0  0
   11.8434   -1.0651   24.2925 O   0  0  0  0  0  0  0  0  0  0  0  0
   12.1655    0.0349   21.8847 H   0  0  0  0  0  0  0  0  0  0  0  0
    9.5494   -1.0438   21.8545 O   0  0  0  0  0  0  0  0  0  0  0  0
   11.0456   -0.7714   23.4648 C   0  0  0  0  0  0  0  0  0  0  0  0
    9.9705    0.1910   21.6042 C   0  0  0  0  0  0  0  0  0  0  0  0
    9.4705    0.9883   20.8860 O   0  0  0  0  0  0  0  0  0  0  0  0
    7.0254   -1.0955   21.4176 N   0  5  0  0  0  0  0  0  0  0  0  0
    7.6170   -1.5436   20.7367 H   0  0  0  0  0  0  0  0  0  0  0  0
    6.8316   -0.1860   18.8708 H   0  0  0  0  0  0  0  0  0  0  0  0
    6.1272    0.2802   19.5468 C   0  0  0  0  0  0  0  0  0  0  0  0
    5.1230   -0.1154   19.3689 H   0  0  0  0  0  0  0  0  0  0  0  0
    6.0411    1.3504   19.3263 H   0  0  0  0  0  0  0  0  0  0  0  0
    6.5619    0.0284   20.9474 C   0  3  0  0  0  0  0  0  0  0  0  0
    6.4373    0.7781   21.7214 H   0  0  0  0  0  0  0  0  0  0  0  0
 19 20  1  0  0  0  0
 20 22  1  0  0  0  0
 20 21  1  0  0  0  0
 20 23  1  0  0  0  0
 17 18  1  0  0  0  0
 15 16  2  0  0  0  0
 17 23  1  0  0  0  0
 23 24  1  0  0  0  0
 13 15  1  0  0  0  0
 10 15  1  0  0  0  0
  7 13  1  0  0  0  0
 10 12  1  0  0  0  0
  9 10  1  0  0  0  0
 10 14  1  0  0  0  0
  7 14  1  0  0  0  0
  7  8  2  0  0  0  0
 11 14  2  0  0  0  0
  2  8  1  0  0  0  0
  2  6  1  0  0  0  0
  2  5  1  0  0  0  0
  4  5  1  0  0  0  0
  3  5  2  0  0  0  0
  1  4  1  0  0  0  0
M  CHG  4   2   1   7   1  17  -1  23   1
M  END
> <Shapegauss>
-155.085312

$$$$
