stable:False satoms:5 tatoms:24 sratio:0.20833333333333334
  -OEChem-07092417413D

 24 25  0     1  0  0  0  0  0999 V2000
    6.4950   -4.8403   26.3711 O   0  0  0  0  0  0  0  0  0  0  0  0
    8.1419   -4.2948   26.0936 S   0  0  0  0  0  0  0  0  0  0  0  0
    9.0122   -5.4331   26.0137 O   0  0  0  0  0  0  0  0  0  0  0  0
    8.4750   -3.3839   27.1444 O   0  5  0  0  0  0  0  0  0  0  0  0
    8.1348   -3.5615   24.6385 N   0  0  0  0  0  0  0  0  0  0  0  0
    8.8604   -2.7789   24.1243 C   0  0  0  0  0  0  0  0  0  0  0  0
    9.3660   -1.9176   23.5184 C   0  0  0  0  0  0  0  0  0  0  0  0
   10.5902   -1.0061   23.2126 C   0  0  1  0  0  0  0  0  0  0  0  0
   11.3137   -0.0251   24.0705 C   0  0  0  0  0  0  0  0  0  0  0  0
   12.3810    0.1692   24.0158 C   0  0  0  0  0  2  0  0  0  0  0  0
   13.2516    0.4630   24.0635 H   0  0  0  0  0  0  0  0  0  0  0  0
   12.6755   -1.1896   22.7300 C   0  0  0  0  0  0  0  0  0  0  0  0
   11.7840   -1.6083   22.7023 N   0  3  0  0  0  0  0  0  0  0  0  0
    9.5632   -0.8599   22.5550 C   0  0  3  0  0  0  0  0  0  0  0  0
    8.9596   -0.0363   21.4423 C   0  0  0  0  0  0  0  0  0  0  0  0
    9.5182    0.9241   21.0538 O   0  0  0  0  0  0  0  0  0  0  0  0
    7.7982   -0.5253   21.0517 N   0  0  0  0  0  0  0  0  0  0  0  0
    7.0791   -0.0940   20.1057 C   0  0  0  0  0  0  0  0  0  0  0  0
    7.3257   -0.1624   18.8079 N   0  0  0  0  0  0  0  0  0  0  0  0
    6.6453    0.2084   17.8574 N   0  0  0  0  0  0  0  0  0  0  0  0
    5.7336    0.6977   18.2957 C   0  0  0  0  0  0  0  0  0  0  0  0
    5.3016    0.8694   19.4294 C   0  0  0  0  0  0  0  0  0  0  0  0
    5.7656    0.5155   20.5011 C   0  0  0  0  0  0  0  0  0  0  0  0
    5.4125    0.5794   21.4983 H   0  0  0  0  0  0  0  0  0  0  0  0
 20 21  2  0  0  0  0
 19 20  1  0  0  0  0
 21 22  1  0  0  0  0
 18 19  2  0  0  0  0
 22 23  2  0  0  0  0
 18 23  1  0  0  0  0
 17 18  1  0  0  0  0
 23 24  1  0  0  0  0
 15 17  1  0  0  0  0
 15 16  2  0  0  0  0
 14 15  1  0  0  0  0
  8 14  1  0  0  0  0
  7 14  1  0  0  0  0
 12 13  1  0  0  0  0
  8 13  1  0  0  0  0
  7  8  1  0  0  0  0
  8  9  1  0  0  0  0
  6  7  2  0  0  0  0
 10 11  1  0  0  0  0
  9 10  1  0  0  0  0
  5  6  1  0  0  0  0
  2  5  1  0  0  0  0
  2  3  2  0  0  0  0
  1  2  2  0  0  0  0
  2  4  1  0  0  0  0
M  CHG  2   4  -1  13   1
M  END
> <Shapegauss>
-271.913269

$$$$
