stable:False satoms:5 tatoms:24 sratio:0.20833333333333334
  -OEChem-08062412303D

 37 38  0     1  0  0  0  0  0999 V2000
    5.9889   -5.2216   25.7475 O   0  0  0  0  0  0  0  0  0  0  0  0
    7.6639   -4.6936   25.6954 S   0  0  0  0  0  0  0  0  0  0  0  0
    8.5225   -5.8423   25.6431 O   0  0  0  0  0  0  0  0  0  0  0  0
    7.8854   -3.8564   26.8333 O   0  5  0  0  0  0  0  0  0  0  0  0
    7.8343   -3.8718   24.2987 N   0  0  0  0  0  0  0  0  0  0  0  0
    8.6245   -3.0738   23.9218 C   0  0  0  0  0  0  0  0  0  0  0  0
    9.2079   -2.1872   23.4338 C   0  0  0  0  0  0  0  0  0  0  0  0
   10.4711   -1.2836   23.3286 C   0  0  1  0  0  0  0  0  0  0  0  0
   11.1036   -0.3725   24.3244 C   0  0  0  0  0  0  0  0  0  0  0  0
   12.1725   -0.1969   24.4045 C   0  0  0  0  0  2  0  0  0  0  0  0
   13.0356    0.0756   24.5700 H   0  0  0  0  0  0  0  0  0  0  0  0
   12.5955   -1.4794   23.0768 C   0  0  0  0  0  0  0  0  0  0  0  0
   11.7078   -1.8773   22.9208 N   0  3  0  0  0  0  0  0  0  0  0  0
    9.5288   -1.0762   22.5686 C   0  0  3  0  0  0  0  0  0  0  0  0
    9.0684   -0.1733   21.4490 C   0  0  0  0  0  0  0  0  0  0  0  0
    9.6807    0.7977   21.1889 O   0  0  0  0  0  0  0  0  0  0  0  0
    7.9535   -0.6134   20.8979 N   0  0  0  0  0  0  0  0  0  0  0  0
    7.3541   -0.1099   19.9053 C   0  0  0  0  0  0  0  0  0  0  0  0
    7.7478   -0.1030   18.6425 N   0  0  0  0  0  0  0  0  0  0  0  0
    7.1865    0.3396   17.6460 N   0  0  0  0  0  0  0  0  0  0  0  0
    6.2368    0.8194   18.0075 C   0  0  0  0  0  0  0  0  0  0  0  0
    5.6792    0.9294   19.0931 C   0  0  0  0  0  0  0  0  0  0  0  0
    6.0118    0.5006   20.1860 C   0  0  0  0  0  0  0  0  0  0  0  0
    5.5469    0.5099   21.1384 H   0  0  0  0  0  0  0  0  0  0  0  0
    6.9613   -3.3929   24.2055 H   0  0  0  0  0  0  0  0  0  0  0  0
    9.4752   -3.5071   24.4267 H   0  0  0  0  0  0  0  0  0  0  0  0
   10.6537    0.6159   24.1488 H   0  0  0  0  0  0  0  0  0  0  0  0
   10.7906   -0.7480   25.3098 H   0  0  0  0  0  0  0  0  0  0  0  0
   13.3719   -2.1402   22.6638 H   0  0  0  0  0  0  0  0  0  0  0  0
   12.6491   -0.4978   22.5832 H   0  0  0  0  0  0  0  0  0  0  0  0
   12.7568   -1.3554   24.1579 H   0  0  0  0  0  0  0  0  0  0  0  0
   11.6360   -1.9948   21.9303 H   0  0  0  0  0  0  0  0  0  0  0  0
    9.9639   -1.7699   21.8341 H   0  0  0  0  0  0  0  0  0  0  0  0
    7.5410   -1.4276   21.3065 H   0  0  0  0  0  0  0  0  0  0  0  0
    5.6856    1.2957   17.2103 H   0  0  0  0  0  0  0  0  0  0  0  0
    4.7558    1.4894   19.0807 H   0  0  0  0  0  0  0  0  0  0  0  0
   11.7338   -2.7744   23.3618 H   0  0  0  0  0  0  0  0  0  0  0  0
 20 21  2  0  0  0  0
 19 20  1  0  0  0  0
 21 22  1  0  0  0  0
 18 19  2  0  0  0  0
 22 23  2  0  0  0  0
 18 23  1  0  0  0  0
 17 18  1  0  0  0  0
 23 24  1  0  0  0  0
 15 17  1  0  0  0  0
 15 16  2  0  0  0  0
 14 15  1  0  0  0  0
  8 14  1  0  0  0  0
  7 14  1  0  0  0  0
 12 13  1  0  0  0  0
  8 13  1  0  0  0  0
  7  8  1  0  0  0  0
  8  9  1  0  0  0  0
  6  7  2  0  0  0  0
 10 11  1  0  0  0  0
  9 10  1  0  0  0  0
  5  6  1  0  0  0  0
  2  5  1  0  0  0  0
  2  3  2  0  0  0  0
  1  2  2  0  0  0  0
  2  4  1  0  0  0  0
  5 25  1  0  0  0  0
  6 26  1  0  0  0  0
  9 27  1  0  0  0  0
  9 28  1  0  0  0  0
 12 29  1  0  0  0  0
 12 30  1  0  0  0  0
 12 31  1  0  0  0  0
 13 32  1  0  0  0  0
 14 33  1  0  0  0  0
 17 34  1  0  0  0  0
 21 35  1  0  0  0  0
 22 36  1  0  0  0  0
 13 37  1  0  0  0  0
M  CHG  2   4  -1  13   1
M  END
> <Chemgauss4>
-11.011388

$$$$
