stable:False satoms:5 tatoms:24 sratio:0.20833333333333334
  -OEChem-08062412303D

 37 38  0     1  0  0  0  0  0999 V2000
   -5.8400   -5.0275  -25.6243 O   0  0  0  0  0  0  0  0  0  0  0  0
   -7.5149   -4.4995  -25.5721 S   0  0  0  0  0  0  0  0  0  0  0  0
   -8.3736   -5.6482  -25.5198 O   0  0  0  0  0  0  0  0  0  0  0  0
   -7.7365   -3.6623  -26.7100 O   0  5  0  0  0  0  0  0  0  0  0  0
   -7.6853   -3.6777  -24.1755 N   0  0  0  0  0  0  0  0  0  0  0  0
   -8.4756   -2.8797  -23.7985 C   0  0  0  0  0  0  0  0  0  0  0  0
   -9.0590   -1.9931  -23.3105 C   0  0  0  0  0  0  0  0  0  0  0  0
  -10.3221   -1.0895  -23.2054 C   0  0  1  0  0  0  0  0  0  0  0  0
  -10.9547   -0.1784  -24.2011 C   0  0  0  0  0  0  0  0  0  0  0  0
  -12.0236   -0.0028  -24.2813 C   0  0  0  0  0  2  0  0  0  0  0  0
  -12.8867    0.2697  -24.4468 H   0  0  0  0  0  0  0  0  0  0  0  0
  -12.4466   -1.2853  -22.9536 C   0  0  0  0  0  0  0  0  0  0  0  0
  -11.5588   -1.6832  -22.7975 N   0  3  0  0  0  0  0  0  0  0  0  0
   -9.3798   -0.8821  -22.4454 C   0  0  3  0  0  0  0  0  0  0  0  0
   -8.9195    0.0208  -21.3258 C   0  0  0  0  0  0  0  0  0  0  0  0
   -9.5317    0.9918  -21.0657 O   0  0  0  0  0  0  0  0  0  0  0  0
   -7.8046   -0.4193  -20.7746 N   0  0  0  0  0  0  0  0  0  0  0  0
   -7.2051    0.0842  -19.7820 C   0  0  0  0  0  0  0  0  0  0  0  0
   -7.5988    0.0911  -18.5192 N   0  0  0  0  0  0  0  0  0  0  0  0
   -7.0375    0.5337  -17.5228 N   0  0  0  0  0  0  0  0  0  0  0  0
   -6.0879    1.0135  -17.8843 C   0  0  0  0  0  0  0  0  0  0  0  0
   -5.5303    1.1235  -18.9698 C   0  0  0  0  0  0  0  0  0  0  0  0
   -5.8629    0.6947  -20.0628 C   0  0  0  0  0  0  0  0  0  0  0  0
   -5.3980    0.7040  -21.0151 H   0  0  0  0  0  0  0  0  0  0  0  0
   -6.8124   -3.1988  -24.0823 H   0  0  0  0  0  0  0  0  0  0  0  0
   -9.3263   -3.3130  -24.3035 H   0  0  0  0  0  0  0  0  0  0  0  0
  -10.5048    0.8099  -24.0255 H   0  0  0  0  0  0  0  0  0  0  0  0
  -10.6417   -0.5539  -25.1865 H   0  0  0  0  0  0  0  0  0  0  0  0
  -13.2229   -1.9461  -22.5406 H   0  0  0  0  0  0  0  0  0  0  0  0
  -12.5002   -0.3037  -22.4599 H   0  0  0  0  0  0  0  0  0  0  0  0
  -12.6078   -1.1613  -24.0346 H   0  0  0  0  0  0  0  0  0  0  0  0
  -11.4870   -1.8007  -21.8070 H   0  0  0  0  0  0  0  0  0  0  0  0
   -9.8149   -1.5758  -21.7109 H   0  0  0  0  0  0  0  0  0  0  0  0
   -7.3920   -1.2335  -21.1833 H   0  0  0  0  0  0  0  0  0  0  0  0
   -5.5367    1.4898  -17.0870 H   0  0  0  0  0  0  0  0  0  0  0  0
   -4.6069    1.6835  -18.9574 H   0  0  0  0  0  0  0  0  0  0  0  0
  -11.5849   -2.5803  -23.2386 H   0  0  0  0  0  0  0  0  0  0  0  0
 20 21  2  0  0  0  0
 19 20  1  0  0  0  0
 21 22  1  0  0  0  0
 18 19  2  0  0  0  0
 22 23  2  0  0  0  0
 18 23  1  0  0  0  0
 17 18  1  0  0  0  0
 23 24  1  0  0  0  0
 15 17  1  0  0  0  0
 15 16  2  0  0  0  0
 14 15  1  0  0  0  0
  8 14  1  0  0  0  0
  7 14  1  0  0  0  0
 12 13  1  0  0  0  0
  8 13  1  0  0  0  0
  7  8  1  0  0  0  0
  8  9  1  0  0  0  0
  6  7  2  0  0  0  0
 10 11  1  0  0  0  0
  9 10  1  0  0  0  0
  5  6  1  0  0  0  0
  2  5  1  0  0  0  0
  2  3  2  0  0  0  0
  1  2  2  0  0  0  0
  2  4  1  0  0  0  0
  5 25  1  0  0  0  0
  6 26  1  0  0  0  0
  9 27  1  0  0  0  0
  9 28  1  0  0  0  0
 12 29  1  0  0  0  0
 12 30  1  0  0  0  0
 12 31  1  0  0  0  0
 13 32  1  0  0  0  0
 14 33  1  0  0  0  0
 17 34  1  0  0  0  0
 21 35  1  0  0  0  0
 22 36  1  0  0  0  0
 13 37  1  0  0  0  0
M  CHG  2   4  -1  13   1
M  END
> <Chemgauss4>
-10.557961

$$$$
