
 OpenBabel07202414123D

 58 61  0  0  1  0  0  0  0  0999 V2000
    1.7923    0.3090    0.6284 C   0  0  0  0  0  0  0  0  0  0  0  0
    2.7701   -0.7234    1.2354 C   0  0  0  0  0  0  0  0  0  0  0  0
    3.8986    0.0739    1.9242 C   0  0  0  0  0  0  0  0  0  0  0  0
    1.9870   -1.5031    2.3186 C   0  0  0  0  0  0  0  0  0  0  0  0
    3.3310   -1.7341    0.2115 C   0  0  0  0  0  0  0  0  0  0  0  0
    2.9062   -1.7824   -1.1290 C   0  0  0  0  0  0  0  0  0  0  0  0
    3.2989   -2.8232   -1.9897 C   0  0  0  0  0  0  0  0  0  0  0  0
    4.1410   -3.8343   -1.5295 C   0  0  0  0  0  0  0  0  0  0  0  0
    4.3820   -4.9935   -2.3127 N   0  0  0  0  0  0  0  0  0  0  0  0
    3.4963   -6.1550   -2.0440 C   0  0  3  0  0  0  0  0  0  0  0  0
    2.6581   -6.5060   -3.3157 C   0  0  0  0  0  0  0  0  0  0  0  0
    1.6582   -5.8668   -3.6423 O   0  0  0  0  0  0  0  0  0  0  0  0
    3.1806   -7.5151   -4.1058 N   0  0  0  0  0  0  0  0  0  0  0  0
    2.6325   -7.9327   -5.4114 C   0  0  0  0  0  0  0  0  0  0  0  0
    3.7158   -8.2734   -6.4552 C   0  0  0  0  0  0  0  0  0  0  0  0
    3.0300   -7.4964   -7.4685 O   0  0  0  0  0  0  0  0  0  0  0  0
    2.2369   -6.8531   -6.4313 C   0  0  0  0  0  0  0  0  0  0  0  0
    4.1335   -7.3592   -1.3576 C   0  0  0  0  0  0  0  0  0  0  0  0
    5.5001   -7.4926   -1.0904 C   0  0  0  0  0  0  0  0  0  0  0  0
    5.9702   -8.5887   -0.3663 C   0  0  0  0  0  0  0  0  0  0  0  0
    5.0585   -9.5325    0.0688 C   0  0  0  0  0  0  0  0  0  0  0  0
    3.7401   -9.4696   -0.2026 N   0  0  0  0  0  0  0  0  0  0  0  0
    3.3111   -8.3957   -0.9054 C   0  0  0  0  0  0  0  0  0  0  0  0
    5.3031   -5.0608   -3.3667 C   0  0  0  0  0  0  0  0  0  0  0  0
    5.4441   -6.1085   -4.0086 O   0  0  0  0  0  0  0  0  0  0  0  0
    6.1253   -3.9049   -3.7109 C   0  0  0  0  0  0  0  0  0  0  0  0
    6.7295   -3.7294   -4.9414 C   0  0  0  0  0  0  0  0  0  0  0  0
    7.4414   -2.5719   -4.9127 O   0  0  0  0  0  0  0  0  0  0  0  0
    7.2443   -2.1005   -3.6541 C   0  0  0  0  0  0  0  0  0  0  0  0
    6.4789   -2.8532   -2.8897 N   0  0  0  0  0  0  0  0  0  0  0  0
    4.6336   -3.7674   -0.2262 C   0  0  0  0  0  0  0  0  0  0  0  0
    4.2435   -2.7241    0.6252 C   0  0  0  0  0  0  0  0  0  0  0  0
    1.4129    0.9935    1.3971 H   0  0  0  0  0  0  0  0  0  0  0  0
    0.9193   -0.1762    0.1766 H   0  0  0  0  0  0  0  0  0  0  0  0
    2.2791    0.9209   -0.1397 H   0  0  0  0  0  0  0  0  0  0  0  0
    3.4874    0.7770    2.6595 H   0  0  0  0  0  0  0  0  0  0  0  0
    4.4749    0.6565    1.1968 H   0  0  0  0  0  0  0  0  0  0  0  0
    4.5981   -0.5728    2.4638 H   0  0  0  0  0  0  0  0  0  0  0  0
    1.5867   -0.8278    3.0840 H   0  0  0  0  0  0  0  0  0  0  0  0
    2.6152   -2.2369    2.8363 H   0  0  0  0  0  0  0  0  0  0  0  0
    1.1418   -2.0471    1.8801 H   0  0  0  0  0  0  0  0  0  0  0  0
    2.2269   -1.0348   -1.5307 H   0  0  0  0  0  0  0  0  0  0  0  0
    2.9021   -2.8511   -3.0014 H   0  0  0  0  0  0  0  0  0  0  0  0
    2.7380   -5.8105   -1.3206 H   0  0  0  0  0  0  0  0  0  0  0  0
    4.1591   -7.7337   -3.9126 H   0  0  0  0  0  0  0  0  0  0  0  0
    1.8819   -8.7240   -5.2979 H   0  0  0  0  0  0  0  0  0  0  0  0
    3.7950   -9.3301   -6.7224 H   0  0  0  0  0  0  0  0  0  0  0  0
    4.7161   -7.8661   -6.2675 H   0  0  0  0  0  0  0  0  0  0  0  0
    1.1759   -6.8338   -6.6964 H   0  0  0  0  0  0  0  0  0  0  0  0
    2.5952   -5.8358   -6.2490 H   0  0  0  0  0  0  0  0  0  0  0  0
    6.2205   -6.7504   -1.4211 H   0  0  0  0  0  0  0  0  0  0  0  0
    7.0246   -8.6936   -0.1339 H   0  0  0  0  0  0  0  0  0  0  0  0
    5.3718  -10.3828    0.6687 H   0  0  0  0  0  0  0  0  0  0  0  0
    2.2379   -8.3952   -1.0899 H   0  0  0  0  0  0  0  0  0  0  0  0
    6.7433   -4.2927   -5.8640 H   0  0  0  0  0  0  0  0  0  0  0  0
    7.7348   -1.1767   -3.4030 H   0  0  0  0  0  0  0  0  0  0  0  0
    5.3150   -4.5260    0.1474 H   0  0  0  0  0  0  0  0  0  0  0  0
    4.6352   -2.7225    1.6405 H   0  0  0  0  0  0  0  0  0  0  0  0
  1  2  1  0  0  0  0
  1 33  1  0  0  0  0
  1 34  1  0  0  0  0
  1 35  1  0  0  0  0
  2  3  1  0  0  0  0
  2  4  1  0  0  0  0
  2  5  1  0  0  0  0
  3 36  1  0  0  0  0
  3 37  1  0  0  0  0
  3 38  1  0  0  0  0
  4 39  1  0  0  0  0
  4 40  1  0  0  0  0
  4 41  1  0  0  0  0
  5  6  1  0  0  0  0
  5 32  2  0  0  0  0
  6  7  2  0  0  0  0
  6 42  1  0  0  0  0
  7  8  1  0  0  0  0
  7 43  1  0  0  0  0
  8  9  1  0  0  0  0
  8 31  2  0  0  0  0
  9 10  1  0  0  0  0
  9 24  1  0  0  0  0
 10 11  1  0  0  0  0
 10 18  1  0  0  0  0
 10 44  1  0  0  0  0
 11 12  2  0  0  0  0
 11 13  1  0  0  0  0
 13 14  1  0  0  0  0
 13 45  1  0  0  0  0
 14 15  1  0  0  0  0
 14 17  1  0  0  0  0
 14 46  1  0  0  0  0
 15 16  1  0  0  0  0
 15 47  1  0  0  0  0
 15 48  1  0  0  0  0
 16 17  1  0  0  0  0
 17 49  1  0  0  0  0
 17 50  1  0  0  0  0
 18 19  1  0  0  0  0
 18 23  2  0  0  0  0
 19 20  2  0  0  0  0
 19 51  1  0  0  0  0
 20 21  1  0  0  0  0
 20 52  1  0  0  0  0
 21 22  2  0  0  0  0
 21 53  1  0  0  0  0
 22 23  1  0  0  0  0
 23 54  1  0  0  0  0
 24 25  2  0  0  0  0
 24 26  1  0  0  0  0
 26 27  2  0  0  0  0
 26 30  1  0  0  0  0
 27 28  1  0  0  0  0
 27 55  1  0  0  0  0
 28 29  1  0  0  0  0
 29 30  2  0  0  0  0
 29 56  1  0  0  0  0
 31 32  1  0  0  0  0
 31 57  1  0  0  0  0
 32 58  1  0  0  0  0
M  END
$$$$
