stable:False satoms:12 tatoms:24 sratio:0.5
  -OEChem-08062417323D

 45 46  0     1  0  0  0  0  0999 V2000
   -6.3325   -5.1756  -26.2446 C   0  0  0  0  0  0  0  0  0  0  0  0
   -7.9224   -4.5763  -26.0413 S   0  0  0  0  0  0  0  0  0  0  0  0
   -8.8081   -5.7188  -25.9882 O   0  0  0  0  0  0  0  0  0  0  0  0
   -8.2283   -3.7342  -27.1604 O   0  0  0  0  0  0  0  0  0  0  0  0
   -7.9097   -3.8080  -24.6485 N   0  0  0  0  0  0  0  0  0  0  0  0
   -8.8333   -3.1112  -24.1758 C   0  0  0  0  0  0  0  0  0  0  0  0
   -9.2809   -2.0964  -23.5934 C   0  0  0  0  0  0  0  0  0  0  0  0
  -10.1694   -1.2154  -23.5033 C   0  0  1  0  0  0  0  0  0  0  0  0
  -10.7737   -0.1245  -24.5961 C   0  0  0  0  0  0  0  0  0  0  0  0
  -11.7779    0.2104  -24.6448 C   0  0  0  0  0  0  0  0  0  0  0  0
  -12.9789   -0.1947  -23.9099 C   0  0  0  0  0  0  0  0  0  0  0  0
  -12.6214   -1.2995  -23.0074 C   0  0  0  0  0  0  0  0  0  0  0  0
  -11.6891   -1.7501  -22.8322 C   0  0  0  0  0  0  0  0  0  0  0  0
   -9.6175   -0.6394  -22.5461 C   0  0  0  0  0  0  0  0  0  0  0  0
   -9.0001   -0.0219  -21.5559 C   0  0  0  0  0  0  0  0  0  0  0  0
   -9.5309    0.9228  -21.2134 O   0  0  0  0  0  0  0  0  0  0  0  0
   -7.8908   -0.6311  -21.1719 N   0  0  0  0  0  0  0  0  0  0  0  0
   -7.2206   -0.1238  -20.1988 C   0  0  0  0  0  0  0  0  0  0  0  0
   -7.3353    0.0489  -18.9272 C   0  0  0  0  0  0  0  0  0  0  0  0
   -6.9343    0.4162  -17.8065 N   0  0  0  0  0  0  0  0  0  0  0  0
   -5.7086    0.9296  -18.2626 C   0  0  0  0  0  0  0  0  0  0  0  0
   -5.3068    0.9539  -19.3837 C   0  0  0  0  0  0  0  0  0  0  0  0
   -5.7686    0.5037  -20.5327 C   0  0  0  0  0  0  0  0  0  0  0  0
   -5.1932    0.4987  -21.9135 C   0  0  0  0  0  0  0  0  0  0  0  0
   -6.2655   -5.7235  -27.1960 H   0  0  0  0  0  0  0  0  0  0  0  0
   -5.6226   -4.3354  -26.2547 H   0  0  0  0  0  0  0  0  0  0  0  0
   -6.0871   -5.8530  -25.4133 H   0  0  0  0  0  0  0  0  0  0  0  0
   -7.1205   -3.1957  -24.6965 H   0  0  0  0  0  0  0  0  0  0  0  0
   -9.7184   -3.6965  -24.3771 H   0  0  0  0  0  0  0  0  0  0  0  0
   -8.5762   -1.8801  -22.8040 H   0  0  0  0  0  0  0  0  0  0  0  0
  -10.0835    0.2801  -25.3216 H   0  0  0  0  0  0  0  0  0  0  0  0
  -11.9470    0.9938  -25.3687 H   0  0  0  0  0  0  0  0  0  0  0  0
  -13.9604    0.2437  -24.0135 H   0  0  0  0  0  0  0  0  0  0  0  0
  -13.4425   -1.7097  -22.4382 H   0  0  0  0  0  0  0  0  0  0  0  0
  -11.5520   -1.7230  -21.7411 H   0  0  0  0  0  0  0  0  0  0  0  0
  -11.8026   -2.7935  -23.1616 H   0  0  0  0  0  0  0  0  0  0  0  0
   -9.7582   -1.5300  -21.9161 H   0  0  0  0  0  0  0  0  0  0  0  0
  -10.4843    0.0287  -22.4354 H   0  0  0  0  0  0  0  0  0  0  0  0
   -7.5809   -1.4657  -21.6273 H   0  0  0  0  0  0  0  0  0  0  0  0
   -8.3219   -0.3372  -18.7176 H   0  0  0  0  0  0  0  0  0  0  0  0
   -5.0566    1.3500  -17.5113 H   0  0  0  0  0  0  0  0  0  0  0  0
   -4.3550    1.4552  -19.4794 H   0  0  0  0  0  0  0  0  0  0  0  0
   -4.6128   -0.4232  -22.0662 H   0  0  0  0  0  0  0  0  0  0  0  0
   -6.0085    0.5448  -22.6505 H   0  0  0  0  0  0  0  0  0  0  0  0
   -4.5353    1.3712  -22.0396 H   0  0  0  0  0  0  0  0  0  0  0  0
 20 21  2  0  0  0  0
 19 20  1  0  0  0  0
 21 22  1  0  0  0  0
 18 19  2  0  0  0  0
 22 23  2  0  0  0  0
 18 23  1  0  0  0  0
 17 18  1  0  0  0  0
 23 24  1  0  0  0  0
 15 16  2  0  0  0  0
 15 17  1  0  0  0  0
 14 15  1  0  0  0  0
  8 14  1  0  0  0  0
 12 13  1  0  0  0  0
  8 13  1  0  0  0  0
 11 12  2  0  0  0  0
  7  8  1  0  0  0  0
  8  9  1  0  0  0  0
 10 11  1  0  0  0  0
  6  7  2  3  0  0  0
  5  6  1  0  0  0  0
  9 10  2  0  0  0  0
  2  5  1  0  0  0  0
  2  3  2  0  0  0  0
  1  2  1  0  0  0  0
  2  4  2  0  0  0  0
  1 25  1  0  0  0  0
  1 26  1  0  0  0  0
  1 27  1  0  0  0  0
  5 28  1  0  0  0  0
  6 29  1  0  0  0  0
  7 30  1  0  0  0  0
  9 31  1  0  0  0  0
 10 32  1  0  0  0  0
 11 33  1  0  0  0  0
 12 34  1  0  0  0  0
 13 35  1  0  0  0  0
 13 36  1  0  0  0  0
 14 37  1  0  0  0  0
 14 38  1  0  0  0  0
 17 39  1  0  0  0  0
 19 40  1  0  0  0  0
 21 41  1  0  0  0  0
 22 42  1  0  0  0  0
 24 43  1  0  0  0  0
 24 44  1  0  0  0  0
 24 45  1  0  0  0  0
M  END
> <Chemgauss4>
-13.302137

$$$$
