stable:False satoms:14 tatoms:24 sratio:0.5833333333333334
  -OEChem-07092417423D

 24 25  0     0  0  0  0  0  0999 V2000
    6.3975   -4.9423   26.2764 Cl  0  0  0  0  0  0  0  0  0  0  0  0
    8.1518   -4.3730   25.9917 S   0  0  0  0  0  0  0  0  0  0  0  0
    8.9709   -5.5162   25.8372 O   0  0  0  0  0  0  0  0  0  0  0  0
    8.4939   -3.5222   27.0830 O   0  0  0  0  0  0  0  0  0  0  0  0
    8.0489   -3.6243   24.5979 N   0  0  0  0  0  0  0  0  0  0  0  0
    8.7439   -2.8356   24.0377 C   0  0  0  0  0  0  0  0  0  0  0  0
    9.2225   -1.9130   23.3524 C   0  0  0  0  0  0  0  0  0  0  0  0
   10.8362   -0.8896   23.1629 C   0  0  0  0  0  0  0  0  0  0  0  0
   11.4214   -0.1047   24.0644 C   0  0  0  0  0  0  0  0  0  0  0  0
   12.3350    0.3044   24.3591 C   0  5  0  0  0  0  0  0  0  0  0  0
   13.1628    0.1299   23.9012 H   0  0  0  0  0  0  0  0  0  0  0  0
   12.9925   -1.5503   22.4650 C   0  0  0  0  0  0  0  0  0  0  0  0
   12.1098   -1.4038   22.6870 C   0  0  0  0  0  0  0  0  0  0  0  0
    9.6217   -0.9565   22.6575 C   0  0  0  0  0  0  0  0  0  0  0  0
    8.9872   -0.0578   21.5144 C   0  0  0  0  0  0  0  0  0  0  0  0
    9.5447    0.9015   21.0675 O   0  0  0  0  0  0  0  0  0  0  0  0
    7.8318   -0.5193   21.2070 N   0  0  0  0  0  0  0  0  0  0  0  0
    7.0464   -0.0020   20.2790 C   0  0  0  0  0  0  0  0  0  0  0  0
    7.1637    0.1702   18.9729 C   0  0  0  0  0  0  0  0  0  0  0  0
    6.6623    0.4723   17.8625 N   0  0  0  0  0  0  0  0  0  0  0  0
    5.6320    0.8720   18.3143 C   0  0  0  0  0  0  0  0  0  0  0  0
    5.1795    0.9219   19.4739 C   0  0  0  0  0  0  0  0  0  0  0  0
    5.7187    0.5390   20.5788 C   0  0  0  0  0  0  0  0  0  0  0  0
    5.3090    0.6091   21.5528 H   0  0  0  0  0  0  0  0  0  0  0  0
 20 21  2  0  0  0  0
 19 20  1  0  0  0  0
 19 21  1  0  0  0  0
 21 22  1  0  0  0  0
 18 19  2  0  0  0  0
 22 23  2  0  0  0  0
 18 23  1  0  0  0  0
 17 18  1  0  0  0  0
 23 24  1  0  0  0  0
 15 16  2  0  0  0  0
 15 17  1  0  0  0  0
 14 15  1  0  0  0  0
 12 13  3  0  0  0  0
  8 14  2  3  0  0  0
  7 14  1  0  0  0  0
  8 13  1  0  0  0  0
  8  9  1  0  0  0  0
  6  7  3  0  0  0  0
 10 11  1  0  0  0  0
  5  6  1  0  0  0  0
  9 10  2  0  0  0  0
  2  5  1  0  0  0  0
  2  3  2  0  0  0  0
  1  2  1  0  0  0  0
  2  4  2  0  0  0  0
M  CHG  1  10  -1
M  END
> <Shapegauss>
-271.837708

$$$$
