stable:False satoms:14 tatoms:24 sratio:0.5833333333333334
  -OEChem-08062409443D

 30 31  0     0  0  0  0  0  0999 V2000
    6.2599   -5.5037   26.0390 Cl  0  0  0  0  0  0  0  0  0  0  0  0
    8.0093   -4.8710   25.8902 S   0  0  0  0  0  0  0  0  0  0  0  0
    8.8723   -5.9815   25.7360 O   0  0  0  0  0  0  0  0  0  0  0  0
    8.2569   -4.0626   27.0378 O   0  0  0  0  0  0  0  0  0  0  0  0
    7.9678   -4.0613   24.5277 N   0  0  0  0  0  0  0  0  0  0  0  0
    8.6702   -3.2275   24.0479 C   0  0  0  0  0  0  0  0  0  0  0  0
    9.1601   -2.2603   23.4358 C   0  0  0  0  0  0  0  0  0  0  0  0
   10.7489   -1.1828   23.3935 C   0  0  0  0  0  0  0  0  0  0  0  0
   11.2527   -0.4242   24.3640 C   0  0  0  0  0  0  0  0  0  0  0  0
   12.1332   -0.0030   24.7332 C   0  0  0  0  0  0  0  0  0  0  0  0
   13.0688   -0.1719   24.2210 H   0  0  0  0  0  0  0  0  0  0  0  0
   12.9638   -1.7473   22.8026 C   0  0  0  0  0  0  0  0  0  0  0  0
   12.0649   -1.6370   22.9754 C   0  0  0  0  0  0  0  0  0  0  0  0
    9.5703   -1.2612   22.8108 C   0  0  0  0  0  0  0  0  0  0  0  0
    8.9784   -0.3289   21.6718 C   0  0  0  0  0  0  0  0  0  0  0  0
    9.5313    0.6660   21.3040 O   0  0  0  0  0  0  0  0  0  0  0  0
    7.8592   -0.8089   21.2725 N   0  0  0  0  0  0  0  0  0  0  0  0
    7.1158   -0.2718   20.3214 C   0  0  0  0  0  0  0  0  0  0  0  0
    7.3070   -0.0354   19.0342 C   0  0  0  0  0  0  0  0  0  0  0  0
    6.8649    0.3036   17.9094 N   0  0  0  0  0  0  0  0  0  0  0  0
    5.7968    0.6516   18.3135 C   0  0  0  0  0  0  0  0  0  0  0  0
    5.2730    0.6341   19.4436 C   0  0  0  0  0  0  0  0  0  0  0  0
    5.7557    0.2158   20.5618 C   0  0  0  0  0  0  0  0  0  0  0  0
    5.2853    0.2284   21.5104 H   0  0  0  0  0  0  0  0  0  0  0  0
    7.0720   -3.6176   24.5534 H   0  0  0  0  0  0  0  0  0  0  0  0
   10.4431   -0.1347   25.0176 H   0  0  0  0  0  0  0  0  0  0  0  0
   12.1087    0.6019   25.6276 H   0  0  0  0  0  0  0  0  0  0  0  0
   13.9972   -1.8741   22.6039 H   0  0  0  0  0  0  0  0  0  0  0  0
    7.5268   -1.6447   21.7094 H   0  0  0  0  0  0  0  0  0  0  0  0
    4.2681    1.0268   19.4928 H   0  0  0  0  0  0  0  0  0  0  0  0
 20 21  2  0  0  0  0
 19 20  1  0  0  0  0
 19 21  1  0  0  0  0
 21 22  1  0  0  0  0
 18 19  2  0  0  0  0
 22 23  2  0  0  0  0
 18 23  1  0  0  0  0
 17 18  1  0  0  0  0
 23 24  1  0  0  0  0
 15 16  2  0  0  0  0
 15 17  1  0  0  0  0
 14 15  1  0  0  0  0
 12 13  3  0  0  0  0
  8 14  2  3  0  0  0
  7 14  1  0  0  0  0
  8 13  1  0  0  0  0
  8  9  1  0  0  0  0
  6  7  3  0  0  0  0
 10 11  1  0  0  0  0
  5  6  1  0  0  0  0
  9 10  2  0  0  0  0
  2  5  1  0  0  0  0
  2  3  2  0  0  0  0
  1  2  1  0  0  0  0
  2  4  2  0  0  0  0
  5 25  1  0  0  0  0
  9 26  1  0  0  0  0
 10 27  1  0  0  0  0
 12 28  1  0  0  0  0
 17 29  1  0  0  0  0
 22 30  1  0  0  0  0
M  END
> <Chemgauss4>
-9.313209

$$$$
