stable:False satoms:14 tatoms:24 sratio:0.5833333333333334
  -OEChem-08062409443D

 30 31  0     0  0  0  0  0  0999 V2000
   -6.7590   -5.5406  -25.9894 Cl  0  0  0  0  0  0  0  0  0  0  0  0
   -8.5084   -4.9080  -25.8405 S   0  0  0  0  0  0  0  0  0  0  0  0
   -9.3714   -6.0184  -25.6863 O   0  0  0  0  0  0  0  0  0  0  0  0
   -8.7560   -4.0995  -26.9881 O   0  0  0  0  0  0  0  0  0  0  0  0
   -8.4669   -4.0982  -24.4780 N   0  0  0  0  0  0  0  0  0  0  0  0
   -9.1693   -3.2644  -23.9982 C   0  0  0  0  0  0  0  0  0  0  0  0
   -9.6592   -2.2973  -23.3862 C   0  0  0  0  0  0  0  0  0  0  0  0
  -11.2480   -1.2197  -23.3438 C   0  0  0  0  0  0  0  0  0  0  0  0
  -11.7518   -0.4611  -24.3144 C   0  0  0  0  0  0  0  0  0  0  0  0
  -12.6322   -0.0399  -24.6836 C   0  0  0  0  0  0  0  0  0  0  0  0
  -13.5679   -0.2088  -24.1713 H   0  0  0  0  0  0  0  0  0  0  0  0
  -13.4628   -1.7842  -22.7529 C   0  0  0  0  0  0  0  0  0  0  0  0
  -12.5640   -1.6739  -22.9257 C   0  0  0  0  0  0  0  0  0  0  0  0
  -10.0693   -1.2981  -22.7611 C   0  0  0  0  0  0  0  0  0  0  0  0
   -9.4774   -0.3658  -21.6221 C   0  0  0  0  0  0  0  0  0  0  0  0
  -10.0303    0.6291  -21.2543 O   0  0  0  0  0  0  0  0  0  0  0  0
   -8.3582   -0.8458  -21.2228 N   0  0  0  0  0  0  0  0  0  0  0  0
   -7.6148   -0.3087  -20.2717 C   0  0  0  0  0  0  0  0  0  0  0  0
   -7.8060   -0.0723  -18.9846 C   0  0  0  0  0  0  0  0  0  0  0  0
   -7.3640    0.2666  -17.8597 N   0  0  0  0  0  0  0  0  0  0  0  0
   -6.2958    0.6147  -18.2638 C   0  0  0  0  0  0  0  0  0  0  0  0
   -5.7720    0.5972  -19.3940 C   0  0  0  0  0  0  0  0  0  0  0  0
   -6.2547    0.1789  -20.5121 C   0  0  0  0  0  0  0  0  0  0  0  0
   -5.7844    0.1915  -21.4608 H   0  0  0  0  0  0  0  0  0  0  0  0
   -7.5711   -3.6545  -24.5037 H   0  0  0  0  0  0  0  0  0  0  0  0
  -10.9421   -0.1717  -24.9679 H   0  0  0  0  0  0  0  0  0  0  0  0
  -12.6078    0.5650  -25.5779 H   0  0  0  0  0  0  0  0  0  0  0  0
  -14.4963   -1.9110  -22.5542 H   0  0  0  0  0  0  0  0  0  0  0  0
   -8.0258   -1.6816  -21.6597 H   0  0  0  0  0  0  0  0  0  0  0  0
   -4.7672    0.9899  -19.4431 H   0  0  0  0  0  0  0  0  0  0  0  0
 20 21  2  0  0  0  0
 19 20  1  0  0  0  0
 19 21  1  0  0  0  0
 21 22  1  0  0  0  0
 18 19  2  0  0  0  0
 22 23  2  0  0  0  0
 18 23  1  0  0  0  0
 17 18  1  0  0  0  0
 23 24  1  0  0  0  0
 15 16  2  0  0  0  0
 15 17  1  0  0  0  0
 14 15  1  0  0  0  0
 12 13  3  0  0  0  0
  8 14  2  3  0  0  0
  7 14  1  0  0  0  0
  8 13  1  0  0  0  0
  8  9  1  0  0  0  0
  6  7  3  0  0  0  0
 10 11  1  0  0  0  0
  5  6  1  0  0  0  0
  9 10  2  0  0  0  0
  2  5  1  0  0  0  0
  2  3  2  0  0  0  0
  1  2  1  0  0  0  0
  2  4  2  0  0  0  0
  5 25  1  0  0  0  0
  9 26  1  0  0  0  0
 10 27  1  0  0  0  0
 12 28  1  0  0  0  0
 17 29  1  0  0  0  0
 22 30  1  0  0  0  0
M  END
> <Chemgauss4>
-9.008858

$$$$
