REMARK  6 active torsions:
REMARK  status: ('A' for Active; 'I' for Inactive)
REMARK    1  A    between atoms: N_2  and  N_11 
REMARK       I    between atoms: N_2  and  C_4 
REMARK    2  A    between atoms: C_5  and  N_11 
REMARK    3  A    between atoms: C_6  and  N_7 
REMARK    4  A    between atoms: C_12  and  O_14 
REMARK    5  A    between atoms: O_14  and  C_15 
REMARK    6  A    between atoms: C_15  and  C_17 
ROOT
HETATM    1 CL   UNL     2       6.812   0.986  23.249  1.00  0.00     0.000 Cl
ENDROOT
TORSDOF 6
