stable:False satoms:15 tatoms:24 sratio:0.625
  -OEChem-07092417353D

 24 25  0     1  0  0  0  0  0999 V2000
    7.2466   -4.0062   25.7088 O   0  0  0  0  0  0  0  0  0  0  0  0
    8.0836   -3.2086   25.3789 C   0  0  0  0  0  0  0  0  0  0  0  0
    9.3471   -4.0427   24.0084 H   0  0  0  0  0  0  0  0  0  0  0  0
    8.5731   -2.0055   26.4047 S   0  0  0  0  0  0  0  0  0  0  0  0
    8.8093   -3.1061   24.1299 C   0  0  0  0  0  0  0  0  0  0  0  0
    8.2719   -2.8624   23.2638 H   0  0  0  0  0  0  0  0  0  0  0  0
    9.8493   -1.7137   24.1414 C   0  0  1  0  0  0  0  0  0  0  0  0
    9.6419   -1.1836   25.2169 O   0  0  0  0  0  0  0  0  0  0  0  0
   11.6797   -1.9525   22.7771 O   0  0  0  0  0  0  0  0  0  0  0  0
    9.9063    0.5338   23.9649 H   0  0  0  0  0  0  0  0  0  0  0  0
   11.2807    0.1770   22.9915 H   0  0  0  0  0  0  0  0  0  0  0  0
   11.3731   -1.4926   22.0176 H   0  0  0  0  0  0  0  0  0  0  0  0
   10.9619   -2.2287   23.7704 O   0  0  0  0  0  0  0  0  0  0  0  0
   10.2002   -0.0806   23.1666 C   0  0  0  0  0  0  0  0  0  0  0  0
    9.5527   -0.3304   22.1554 C   0  0  0  0  0  0  0  0  0  0  0  0
    8.3407   -0.2269   21.5028 C   0  0  0  0  0  0  0  0  0  0  0  0
    8.7865   -0.2753   20.7068 C   0  0  0  0  0  0  0  0  0  0  0  0
    6.7811   -0.0914   21.3630 C   0  0  0  0  0  0  0  0  0  0  0  0
    8.5532   -0.1461   19.2286 N   0  0  0  0  0  0  0  0  0  0  0  0
    7.3447    0.1702   19.0725 C   0  0  0  0  0  0  0  0  0  0  0  0
    7.0210    0.4790   18.1037 H   0  0  0  0  0  0  0  0  0  0  0  0
    5.3856    0.2878   19.8714 H   0  0  0  0  0  0  0  0  0  0  0  0
    6.3949    0.1416   20.1282 C   0  0  0  0  0  0  0  0  0  0  0  0
    6.1991   -0.1261   22.2235 H   0  0  0  0  0  0  0  0  0  0  0  0
 20 21  1  0  0  0  0
 19 20  2  0  0  0  0
 20 23  1  0  0  0  0
 17 19  1  0  0  0  0
 22 23  1  0  0  0  0
 18 23  2  0  0  0  0
 16 17  2  0  0  0  0
 15 17  1  0  0  0  0
 16 18  1  0  0  0  0
 18 24  1  0  0  0  0
 15 16  1  0  0  0  0
  9 12  1  0  0  0  0
 14 15  2  0  0  0  0
  9 13  1  0  0  0  0
 11 14  1  0  0  0  0
 10 14  1  0  0  0  0
  5  6  1  0  0  0  0
  7 13  1  0  0  0  0
  3  5  1  0  0  0  0
  5  7  1  0  0  0  0
  2  5  1  0  0  0  0
  7  8  1  0  0  0  0
  4  8  1  0  0  0  0
  1  2  2  0  0  0  0
  2  4  1  0  0  0  0
M  END
> <Shapegauss>
-159.866714

$$$$
