stable:False satoms:14 tatoms:24 sratio:0.5833333333333334
  -OEChem-07092417393D

 24 26  0     1  0  0  0  0  0999 V2000
    6.2339   -5.0398   26.2820 Cl  0  0  0  0  0  0  0  0  0  0  0  0
    7.9592   -4.3019   26.1964 S   0  0  0  0  0  0  0  0  0  0  0  0
    8.8813   -5.4061   26.2084 O   0  0  0  0  0  0  0  0  0  0  0  0
    8.1479   -3.3853   27.2486 O   0  0  0  0  0  0  0  0  0  0  0  0
    7.9509   -3.5671   24.7513 N   0  0  0  0  0  0  0  0  0  0  0  0
    8.7402   -2.8568   24.2222 C   0  0  0  0  0  0  0  0  0  0  0  0
    9.1989   -2.0993   23.4557 N   0  0  0  0  0  0  0  0  0  0  0  0
   11.3745   -1.3880   24.1247 O   0  0  0  0  0  0  0  0  0  0  0  0
   10.3024   -0.3067   22.5328 C   0  0  0  0  0  0  0  0  0  0  0  0
   12.2948   -0.4877   23.4777 C   0  0  0  0  0  0  0  0  0  0  0  0
   12.9154    0.2574   23.9821 H   0  0  0  0  0  0  0  0  0  0  0  0
   13.0008   -1.1796   22.9724 H   0  0  0  0  0  0  0  0  0  0  0  0
   10.2906   -1.4030   23.3908 C   0  0  0  0  0  0  0  0  0  0  0  0
   11.3744    0.2298   22.6124 O   0  0  0  0  0  0  0  0  0  0  0  0
    9.2451    0.0453   21.3633 C   0  0  0  0  0  0  0  0  0  0  0  0
    9.7810    0.7014   20.5282 O   0  0  0  0  0  0  0  0  0  0  0  0
    7.9964   -0.3574   21.4208 N   0  0  0  0  0  0  0  0  0  0  0  0
    7.2890    0.0876   20.4343 C   0  0  0  0  0  0  0  0  0  0  0  0
    7.2782    0.2201   19.1163 C   0  0  1  0  0  0  0  0  0  0  0  0
    6.2760    0.5677   17.2751 H   0  0  0  0  0  0  0  0  0  0  0  0
    6.3107    0.5576   18.3178 C   0  5  3  0  0  0  0  0  0  0  0  0
    5.5704    0.7199   19.3580 C   0  0  1  0  0  0  0  0  0  0  0  0
    5.8665    0.5116   20.5589 C   0  0  0  0  0  0  0  0  0  0  0  0
    5.3056    0.5900   21.4667 H   0  0  0  0  0  0  0  0  0  0  0  0
 20 21  1  0  0  0  0
 19 21  1  0  0  0  0
 21 22  1  0  0  0  0
 19 22  1  0  0  0  0
 18 19  1  0  0  0  0
 22 23  1  0  0  0  0
 18 23  2  0  0  0  0
 17 18  1  0  0  0  0
 15 16  2  0  0  0  0
 23 24  1  0  0  0  0
 15 17  1  0  0  0  0
  9 15  1  0  0  0  0
  9 14  1  0  0  0  0
  9 13  2  0  0  0  0
 10 14  1  0  0  0  0
 10 12  1  0  0  0  0
  7 13  1  0  0  0  0
  8 13  1  0  0  0  0
  6  7  2  0  0  0  0
 10 11  1  0  0  0  0
  8 10  1  0  0  0  0
  5  6  1  0  0  0  0
  2  5  1  0  0  0  0
  2  3  2  0  0  0  0
  1  2  1  0  0  0  0
  2  4  2  0  0  0  0
M  CHG  1  21  -1
M  END
> <Shapegauss>
-233.421616

$$$$
