stable:False satoms:14 tatoms:24 sratio:0.5833333333333334
  -OEChem-08062408253D

 30 32  0     1  0  0  0  0  0999 V2000
   -5.4797   -6.1360  -23.8732 Cl  0  0  0  0  0  0  0  0  0  0  0  0
   -5.0381   -4.9427  -22.4913 S   0  0  0  0  0  0  0  0  0  0  0  0
   -3.6801   -4.5279  -22.7226 O   0  0  0  0  0  0  0  0  0  0  0  0
   -5.2466   -5.5518  -21.2389 O   0  0  0  0  0  0  0  0  0  0  0  0
   -6.0710   -3.7194  -22.7459 N   0  0  0  0  0  0  0  0  0  0  0  0
   -6.3085   -2.7425  -22.1161 C   0  0  0  0  0  0  0  0  0  0  0  0
   -6.8549   -1.7714  -21.7553 N   0  0  0  0  0  0  0  0  0  0  0  0
   -5.8746   -0.9064  -19.7610 O   0  0  0  0  0  0  0  0  0  0  0  0
   -7.8369   -0.1663  -20.4354 C   0  0  0  0  0  0  0  0  0  0  0  0
   -6.2147    0.2650  -18.9939 C   0  0  0  0  0  0  0  0  0  0  0  0
   -6.2282    0.3283  -17.9028 H   0  0  0  0  0  0  0  0  0  0  0  0
   -5.4615    1.0071  -19.3322 H   0  0  0  0  0  0  0  0  0  0  0  0
   -6.7478   -0.9808  -20.7334 C   0  0  0  0  0  0  0  0  0  0  0  0
   -7.5751    0.4794  -19.4567 O   0  0  0  0  0  0  0  0  0  0  0  0
   -9.1114    0.1627  -21.3718 C   0  0  0  0  0  0  0  0  0  0  0  0
   -9.5610    1.2224  -21.0720 O   0  0  0  0  0  0  0  0  0  0  0  0
   -9.5291   -0.6819  -22.2866 N   0  0  0  0  0  0  0  0  0  0  0  0
  -10.6048   -0.2758  -22.8780 C   0  0  0  0  0  0  0  0  0  0  0  0
  -11.1533    0.7744  -23.4705 C   0  0  1  0  0  0  0  0  0  0  0  0
  -13.0015    1.5383  -23.7627 H   0  0  0  0  0  0  0  0  0  0  0  0
  -12.2392    0.8627  -24.1780 C   0  0  3  0  0  0  0  0  0  0  0  0
  -12.4425   -0.3852  -23.9376 C   0  0  1  0  0  0  0  0  0  0  0  0
  -11.7102   -1.1801  -23.3011 C   0  0  0  0  0  0  0  0  0  0  0  0
  -11.7911   -2.2254  -23.0874 H   0  0  0  0  0  0  0  0  0  0  0  0
   -6.6053   -3.8037  -23.5870 H   0  0  0  0  0  0  0  0  0  0  0  0
   -5.4801   -2.7600  -21.4233 H   0  0  0  0  0  0  0  0  0  0  0  0
   -9.0672   -1.5423  -22.5017 H   0  0  0  0  0  0  0  0  0  0  0  0
  -11.6983    1.0400  -22.5527 H   0  0  0  0  0  0  0  0  0  0  0  0
  -12.0752    1.1029  -25.2389 H   0  0  0  0  0  0  0  0  0  0  0  0
  -13.0144   -0.1435  -23.0295 H   0  0  0  0  0  0  0  0  0  0  0  0
 20 21  1  0  0  0  0
 19 21  1  0  0  0  0
 21 22  1  0  0  0  0
 19 22  1  0  0  0  0
 18 19  1  0  0  0  0
 22 23  1  0  0  0  0
 18 23  2  0  0  0  0
 17 18  1  0  0  0  0
 15 16  2  0  0  0  0
 23 24  1  0  0  0  0
 15 17  1  0  0  0  0
  9 15  1  0  0  0  0
  9 14  1  0  0  0  0
  9 13  2  0  0  0  0
 10 14  1  0  0  0  0
 10 12  1  0  0  0  0
  7 13  1  0  0  0  0
  8 13  1  0  0  0  0
  6  7  2  0  0  0  0
 10 11  1  0  0  0  0
  8 10  1  0  0  0  0
  5  6  1  0  0  0  0
  2  5  1  0  0  0  0
  2  3  2  0  0  0  0
  1  2  1  0  0  0  0
  2  4  2  0  0  0  0
  5 25  1  0  0  0  0
  6 26  1  0  0  0  0
 17 27  1  0  0  0  0
 19 28  1  0  0  0  0
 21 29  1  0  0  0  0
 22 30  1  0  0  0  0
M  END
> <Chemgauss4>
-6.581314

$$$$
