stable:False satoms:14 tatoms:24 sratio:0.5833333333333334
  -OEChem-08062408253D

 30 32  0     1  0  0  0  0  0999 V2000
    5.8553   -6.0532   23.8851 Cl  0  0  0  0  0  0  0  0  0  0  0  0
    5.4137   -4.8600   22.5032 S   0  0  0  0  0  0  0  0  0  0  0  0
    4.0557   -4.4452   22.7345 O   0  0  0  0  0  0  0  0  0  0  0  0
    5.6222   -5.4691   21.2509 O   0  0  0  0  0  0  0  0  0  0  0  0
    6.4466   -3.6367   22.7579 N   0  0  0  0  0  0  0  0  0  0  0  0
    6.6841   -2.6598   22.1281 C   0  0  0  0  0  0  0  0  0  0  0  0
    7.2305   -1.6887   21.7673 N   0  0  0  0  0  0  0  0  0  0  0  0
    6.2502   -0.8236   19.7729 O   0  0  0  0  0  0  0  0  0  0  0  0
    8.2125   -0.0836   20.4473 C   0  0  0  0  0  0  0  0  0  0  0  0
    6.5903    0.3477   19.0059 C   0  0  0  0  0  0  0  0  0  0  0  0
    6.6038    0.4110   17.9147 H   0  0  0  0  0  0  0  0  0  0  0  0
    5.8371    1.0899   19.3441 H   0  0  0  0  0  0  0  0  0  0  0  0
    7.1234   -0.8981   20.7454 C   0  0  0  0  0  0  0  0  0  0  0  0
    7.9507    0.5621   19.4686 O   0  0  0  0  0  0  0  0  0  0  0  0
    9.4870    0.2454   21.3837 C   0  0  0  0  0  0  0  0  0  0  0  0
    9.9366    1.3051   21.0839 O   0  0  0  0  0  0  0  0  0  0  0  0
    9.9047   -0.5991   22.2986 N   0  0  0  0  0  0  0  0  0  0  0  0
   10.9804   -0.1931   22.8899 C   0  0  0  0  0  0  0  0  0  0  0  0
   11.5289    0.8571   23.4825 C   0  0  1  0  0  0  0  0  0  0  0  0
   13.3771    1.6210   23.7746 H   0  0  0  0  0  0  0  0  0  0  0  0
   12.6148    0.9454   24.1899 C   0  0  3  0  0  0  0  0  0  0  0  0
   12.8181   -0.3025   23.9495 C   0  0  1  0  0  0  0  0  0  0  0  0
   12.0858   -1.0974   23.3131 C   0  0  0  0  0  0  0  0  0  0  0  0
   12.1667   -2.1427   23.0993 H   0  0  0  0  0  0  0  0  0  0  0  0
    6.9809   -3.7210   23.5990 H   0  0  0  0  0  0  0  0  0  0  0  0
    5.8557   -2.6773   21.4353 H   0  0  0  0  0  0  0  0  0  0  0  0
    9.4428   -1.4596   22.5136 H   0  0  0  0  0  0  0  0  0  0  0  0
   12.0739    1.1227   22.5647 H   0  0  0  0  0  0  0  0  0  0  0  0
   12.4508    1.1856   25.2508 H   0  0  0  0  0  0  0  0  0  0  0  0
   13.3900   -0.0608   23.0415 H   0  0  0  0  0  0  0  0  0  0  0  0
 20 21  1  0  0  0  0
 19 21  1  0  0  0  0
 21 22  1  0  0  0  0
 19 22  1  0  0  0  0
 18 19  1  0  0  0  0
 22 23  1  0  0  0  0
 18 23  2  0  0  0  0
 17 18  1  0  0  0  0
 15 16  2  0  0  0  0
 23 24  1  0  0  0  0
 15 17  1  0  0  0  0
  9 15  1  0  0  0  0
  9 14  1  0  0  0  0
  9 13  2  0  0  0  0
 10 14  1  0  0  0  0
 10 12  1  0  0  0  0
  7 13  1  0  0  0  0
  8 13  1  0  0  0  0
  6  7  2  0  0  0  0
 10 11  1  0  0  0  0
  8 10  1  0  0  0  0
  5  6  1  0  0  0  0
  2  5  1  0  0  0  0
  2  3  2  0  0  0  0
  1  2  1  0  0  0  0
  2  4  2  0  0  0  0
  5 25  1  0  0  0  0
  6 26  1  0  0  0  0
 17 27  1  0  0  0  0
 19 28  1  0  0  0  0
 21 29  1  0  0  0  0
 22 30  1  0  0  0  0
M  END
> <Chemgauss4>
-6.684474

$$$$
