stable:False satoms:21 tatoms:24 sratio:0.875
  -OEChem-07092417303D

 24 22  0     0  0  0  0  0  0999 V2000
    8.5476   -2.2337   25.0612 O   0  0  0  0  0  0  0  0  0  0  0  0
    9.0360   -2.8678   22.3268 H   0  0  0  0  0  0  0  0  0  0  0  0
   10.6316   -1.0366   22.5121 C   0  0  0  0  0  0  0  0  0  0  0  0
   10.1255   -1.8395   24.4182 H   0  0  0  0  0  0  0  0  0  0  0  0
    8.1119   -3.8452   23.9701 H   0  0  0  0  0  0  0  0  0  0  0  0
    6.8535   -0.0402   21.9715 H   0  0  0  0  0  0  0  0  0  0  0  0
    7.9506   -2.7464   23.9157 C   0  0  0  0  0  0  0  0  0  0  0  0
    8.7297   -1.2610   24.8405 H   0  0  0  0  0  0  0  0  0  0  0  0
    8.8418    0.2329   21.0020 C   0  5  0  0  0  0  0  0  0  0  0  0
   11.6660   -0.6669   22.4107 H   0  0  0  0  0  0  0  0  0  0  0  0
    9.8031    0.2191   22.7308 C   0  3  0  0  0  0  0  0  0  0  0  0
   10.4076    0.8937   23.3597 H   0  0  0  0  0  0  0  0  0  0  0  0
    6.8886   -2.5733   24.0295 H   0  0  0  0  0  0  0  0  0  0  0  0
   10.5851   -1.9131   23.5416 O   0  0  0  0  0  0  0  0  0  0  0  0
    8.5701    0.4766   22.8154 O   0  0  0  0  0  0  0  0  0  0  0  0
   10.3780   -1.4719   21.5514 H   0  0  0  0  0  0  0  0  0  0  0  0
    6.6743   -3.1447   21.7228 H   0  0  0  0  0  0  0  0  0  0  0  0
    8.2933   -2.1731   22.5592 N   0  0  0  0  0  0  0  0  0  0  0  0
    9.5999    0.8794   20.5642 H   0  0  0  0  0  0  0  0  0  0  0  0
    7.7498    0.5798   21.7142 C   0  0  0  0  0  0  0  0  0  0  0  0
    7.3064    1.5477   21.3945 H   0  0  0  0  0  0  0  0  0  0  0  0
    8.5527   -0.4918   20.1829 H   0  0  0  0  0  0  0  0  0  0  0  0
    7.0082   -1.5570   20.9730 H   0  0  0  0  0  0  0  0  0  0  0  0
    7.2728   -2.2571   21.7286 C   0  3  0  0  0  0  0  0  0  0  0  0
  9 22  1  0  0  0  0
  9 19  1  0  0  0  0
 23 24  1  0  0  0  0
  9 20  1  0  0  0  0
 20 21  1  0  0  0  0
  3 16  1  0  0  0  0
  6 20  1  0  0  0  0
 15 20  1  0  0  0  0
 17 24  1  0  0  0  0
 18 24  1  0  0  0  0
  2 18  1  0  0  0  0
  3 10  1  0  0  0  0
  3 11  1  0  0  0  0
  3 14  1  0  0  0  0
  7 18  1  0  0  0  0
 11 15  1  0  0  0  0
 11 12  1  0  0  0  0
  4 14  1  0  0  0  0
  5  7  1  0  0  0  0
  7 13  1  0  0  0  0
  1  7  1  0  0  0  0
  1  8  1  0  0  0  0
M  CHG  3   9  -1  11   1  24   1
M  END
> <Shapegauss>
-90.581009

$$$$
