REMARK  5 active torsions:
REMARK  status: ('A' for Active; 'I' for Inactive)
REMARK    1  A    between atoms: N_2  and  N_6 
REMARK    2  A    between atoms: N_2  and  O_4 
REMARK    3  A    between atoms: C_9  and  C_11 
REMARK    4  A    between atoms: C_11  and  C_17 
REMARK       I    between atoms: N_13  and  C_14 
REMARK    5  A    between atoms: C_14  and  C_17 
ROOT
HETATM    1 BR   UNL     1       5.736  -2.976  23.938  1.00  0.00     0.000 Br
ENDROOT
TORSDOF 5
