REMARK  4 active torsions:
REMARK  status: ('A' for Active; 'I' for Inactive)
REMARK    1  A    between atoms: S_2  and  N_5 
REMARK    2  A    between atoms: N_5  and  C_7 
REMARK    3  A    between atoms: C_15  and  C_16 
REMARK       I    between atoms: C_16  and  N_18 
REMARK    4  A    between atoms: N_18  and  C_20 
ROOT
HETATM    1  C   UNL     1       8.931  -2.924  24.103  1.00  0.00     0.109 C 
HETATM    2  C   UNL     1       9.438  -1.947  23.458  1.00  0.00    -0.008 A 
HETATM    3  C   UNL     1      10.424  -1.099  23.262  1.00  0.00     0.058 A 
HETATM    4  C   UNL     1      11.085  -0.053  24.328  1.00  0.00    -0.003 C 
HETATM    5  C   UNL     1      12.142   0.237  24.248  1.00  0.00    -0.002 C 
HETATM    6  C   UNL     1      13.114  -0.164  23.520  1.00  0.00    -0.001 C 
HETATM    7  C   UNL     1      12.755  -1.261  22.663  1.00  0.00    -0.002 C 
HETATM    8  C   UNL     1      11.791  -1.702  22.570  1.00  0.00    -0.003 C 
HETATM    9  C   UNL     1       9.658  -0.697  22.429  1.00  0.00     0.040 A 
ENDROOT
BRANCH   9  10
HETATM   10  C   UNL     1       9.055   0.053  21.383  1.00  0.00     0.254 C 
HETATM   11  O   UNL     1       9.562   1.010  20.977  1.00  0.00    -0.268 OA
HETATM   12  N   UNL     1       7.933  -0.563  21.093  1.00  0.00    -0.320 N 
ATOM     13  HN  UNL     1       7.668  -1.409  21.597  1.00  0.00     0.169 HD
BRANCH  12  14
HETATM   14  C   UNL     1       7.179  -0.101  20.182  1.00  0.00     0.072 A 
HETATM   15  C   UNL     1       7.185  -0.020  18.916  1.00  0.00     0.119 A 
HETATM   16  N   UNL     1       6.725   0.331  17.763  1.00  0.00    -0.373 N 
HETATM   17  C   UNL     1       5.679   0.836  18.297  1.00  0.00     0.089 A 
ATOM     18  HN  UNL     1       7.062   0.241  16.805  1.00  0.00     0.164 HD
HETATM   19  C   UNL     1       5.242   0.979  19.425  1.00  0.00     0.043 A 
HETATM   20  C   UNL     1       5.838   0.583  20.541  1.00  0.00     0.063 A 
HETATM   21 CL   UNL     1       5.287   0.729  22.029  1.00  0.00    -0.082 Cl
ENDBRANCH  12  14
ENDBRANCH   9  10
BRANCH   1  22
HETATM   22  N   UNL     1       8.134  -3.566  24.575  1.00  0.00    -0.295 N 
ATOM     23  HN  UNL     1       7.276  -3.717  24.044  1.00  0.00     0.177 HD
BRANCH  22  24
HETATM   24  S   UNL     1       8.247  -4.284  26.065  1.00  0.00     0.226 S 
HETATM   25  C   UNL     1       6.523  -4.867  26.390  1.00  0.00     0.186 C 
HETATM   26  O   UNL     1       9.073  -5.439  25.980  1.00  0.00    -0.206 OA
HETATM   27  O   UNL     1       8.585  -3.363  27.098  1.00  0.00    -0.206 OA
ENDBRANCH  22  24
ENDBRANCH   1  22
TORSDOF 4
