MODEL 1
REMARK VINA RESULT:    -8.097      0.000      0.000
REMARK INTER + INTRA:         -10.683
REMARK INTER:                  -9.990
REMARK INTRA:                  -0.694
REMARK UNBOUND:                -0.694
REMARK  4 active torsions:
REMARK  status: ('A' for Active; 'I' for Inactive)
REMARK    1  A    between atoms: S_2  and  N_5 
REMARK    2  A    between atoms: N_5  and  C_7 
REMARK    3  A    between atoms: C_15  and  C_16 
REMARK       I    between atoms: C_16  and  N_18 
REMARK    4  A    between atoms: N_18  and  C_20 
ROOT
HETATM    1  C   UNL     1       8.403  -3.550  23.737  1.00  0.00     0.109 C 
HETATM    2  C   UNL     1       8.847  -2.445  23.279  1.00  0.00    -0.008 A 
HETATM    3  C   UNL     1       9.665  -1.419  23.370  1.00  0.00     0.058 A 
HETATM    4  C   UNL     1       9.836  -0.369  24.609  1.00  0.00    -0.003 C 
HETATM    5  C   UNL     1      10.804   0.113  24.807  1.00  0.00    -0.002 C 
HETATM    6  C   UNL     1      11.980  -0.041  24.328  1.00  0.00    -0.001 C 
HETATM    7  C   UNL     1      12.056  -1.105  23.364  1.00  0.00    -0.002 C 
HETATM    8  C   UNL     1      11.247  -1.703  23.016  1.00  0.00    -0.003 C 
HETATM    9  C   UNL     1       9.054  -1.090  22.390  1.00  0.00     0.040 A 
ENDROOT
BRANCH   9  10
HETATM   10  C   UNL     1       8.580  -0.372  21.259  1.00  0.00     0.254 C 
HETATM   11  O   UNL     1       9.275   0.358  20.691  1.00  0.00    -0.268 OA
HETATM   12  N   UNL     1       7.324  -0.721  21.105  1.00  0.00    -0.320 N 
ATOM     13  HN  UNL     1       6.897  -1.392  21.744  1.00  0.00     0.169 HD
BRANCH  12  14
HETATM   14  C   UNL     1       6.644  -0.221  20.157  1.00  0.00     0.072 A 
HETATM   15  C   UNL     1       6.298  -0.549  18.981  1.00  0.00     0.119 A 
HETATM   16  N   UNL     1       5.732  -0.373  17.835  1.00  0.00    -0.373 N 
HETATM   17  C   UNL     1       5.276   0.765  18.198  1.00  0.00     0.089 A 
ATOM     18  HN  UNL     1       5.672  -0.924  16.979  1.00  0.00     0.164 HD
HETATM   19  C   UNL     1       5.331   1.464  19.194  1.00  0.00     0.043 A 
HETATM   20  C   UNL     1       5.976   1.166  20.313  1.00  0.00     0.063 A 
HETATM   21 CL   UNL     1       6.049   2.041  21.642  1.00  0.00    -0.082 Cl
ENDBRANCH  12  14
ENDBRANCH   9  10
BRANCH   1  22
HETATM   22  N   UNL     1       7.659  -4.365  23.969  1.00  0.00    -0.295 N 
ATOM     23  HN  UNL     1       7.587  -4.673  24.939  1.00  0.00     0.177 HD
BRANCH  22  24
HETATM   24  S   UNL     1       6.675  -5.101  22.857  1.00  0.00     0.226 S 
HETATM   25  C   UNL     1       5.634  -3.711  22.222  1.00  0.00     0.186 C 
HETATM   26  O   UNL     1       7.454  -5.575  21.766  1.00  0.00    -0.206 OA
HETATM   27  O   UNL     1       5.795  -6.055  23.444  1.00  0.00    -0.206 OA
ENDBRANCH  22  24
ENDBRANCH   1  22
TORSDOF 4
ENDMDL
MODEL 2
REMARK VINA RESULT:    -7.932      2.798      5.882
REMARK INTER + INTRA:         -10.480
REMARK INTER:                  -9.634
REMARK INTRA:                  -0.846
REMARK UNBOUND:                -0.694
REMARK  4 active torsions:
REMARK  status: ('A' for Active; 'I' for Inactive)
REMARK    1  A    between atoms: S_2  and  N_5 
REMARK    2  A    between atoms: N_5  and  C_7 
REMARK    3  A    between atoms: C_15  and  C_16 
REMARK       I    between atoms: C_16  and  N_18 
REMARK    4  A    between atoms: N_18  and  C_20 
ROOT
HETATM    1  C   UNL     1       9.178  -0.170  21.176  1.00  0.00     0.109 C 
HETATM    2  C   UNL     1       9.604  -0.608  22.296  1.00  0.00    -0.008 A 
HETATM    3  C   UNL     1      10.596  -0.837  23.128  1.00  0.00     0.058 A 
HETATM    4  C   UNL     1      11.952  -1.709  22.869  1.00  0.00    -0.003 C 
HETATM    5  C   UNL     1      12.888  -1.460  23.389  1.00  0.00    -0.002 C 
HETATM    6  C   UNL     1      13.248  -0.490  24.141  1.00  0.00    -0.001 C 
HETATM    7  C   UNL     1      12.225   0.508  24.294  1.00  0.00    -0.002 C 
HETATM    8  C   UNL     1      11.242   0.474  23.887  1.00  0.00    -0.003 C 
HETATM    9  C   UNL     1       9.697  -1.309  23.769  1.00  0.00     0.040 A 
ENDROOT
BRANCH   9  10
HETATM   10  C   UNL     1       8.942  -1.949  24.789  1.00  0.00     0.254 C 
HETATM   11  O   UNL     1       8.562  -1.351  25.703  1.00  0.00    -0.268 OA
HETATM   12  N   UNL     1       8.850  -3.210  24.437  1.00  0.00    -0.320 N 
ATOM     13  HN  UNL     1       9.281  -3.533  23.571  1.00  0.00     0.169 HD
BRANCH  12  14
HETATM   14  C   UNL     1       8.221  -4.026  25.179  1.00  0.00     0.072 A 
HETATM   15  C   UNL     1       8.487  -4.811  26.139  1.00  0.00     0.119 A 
HETATM   16  N   UNL     1       8.218  -5.704  27.030  1.00  0.00    -0.373 N 
HETATM   17  C   UNL     1       6.982  -5.705  26.704  1.00  0.00     0.089 A 
ATOM     18  HN  UNL     1       8.772  -6.209  27.722  1.00  0.00     0.164 HD
HETATM   19  C   UNL     1       6.282  -5.137  25.885  1.00  0.00     0.043 A 
HETATM   20  C   UNL     1       6.699  -4.242  25.000  1.00  0.00     0.063 A 
HETATM   21 CL   UNL     1       5.812  -3.460  23.932  1.00  0.00    -0.082 Cl
ENDBRANCH  12  14
ENDBRANCH   9  10
BRANCH   1  22
HETATM   22  N   UNL     1       8.533  -0.103  20.255  1.00  0.00    -0.295 N 
ATOM     23  HN  UNL     1       8.995  -0.188  19.349  1.00  0.00     0.177 HD
BRANCH  22  24
HETATM   24  S   UNL     1       6.890   0.122  20.256  1.00  0.00     0.226 S 
HETATM   25  C   UNL     1       6.516   0.548  18.497  1.00  0.00     0.186 C 
HETATM   26  O   UNL     1       6.237  -1.110  20.539  1.00  0.00    -0.206 OA
HETATM   27  O   UNL     1       6.485   1.229  21.056  1.00  0.00    -0.206 OA
ENDBRANCH  22  24
ENDBRANCH   1  22
TORSDOF 4
ENDMDL
MODEL 3
REMARK VINA RESULT:    -7.620      2.620      6.313
REMARK INTER + INTRA:         -10.096
REMARK INTER:                  -9.434
REMARK INTRA:                  -0.662
REMARK UNBOUND:                -0.694
REMARK  4 active torsions:
REMARK  status: ('A' for Active; 'I' for Inactive)
REMARK    1  A    between atoms: S_2  and  N_5 
REMARK    2  A    between atoms: N_5  and  C_7 
REMARK    3  A    between atoms: C_15  and  C_16 
REMARK       I    between atoms: C_16  and  N_18 
REMARK    4  A    between atoms: N_18  and  C_20 
ROOT
HETATM    1  C   UNL     1       5.836  -1.658  20.545  1.00  0.00     0.109 C 
HETATM    2  C   UNL     1       6.339  -2.371  21.476  1.00  0.00    -0.008 A 
HETATM    3  C   UNL     1       6.261  -3.398  22.294  1.00  0.00     0.058 A 
HETATM    4  C   UNL     1       5.094  -3.737  23.385  1.00  0.00    -0.003 C 
HETATM    5  C   UNL     1       4.859  -4.777  23.651  1.00  0.00    -0.002 C 
HETATM    6  C   UNL     1       5.234  -5.910  23.193  1.00  0.00    -0.001 C 
HETATM    7  C   UNL     1       6.107  -5.793  22.057  1.00  0.00    -0.002 C 
HETATM    8  C   UNL     1       6.471  -4.890  21.629  1.00  0.00    -0.003 C 
HETATM    9  C   UNL     1       7.307  -2.937  22.664  1.00  0.00     0.040 A 
ENDROOT
BRANCH   9  10
HETATM   10  C   UNL     1       8.522  -2.709  23.366  1.00  0.00     0.254 C 
HETATM   11  O   UNL     1       8.759  -3.292  24.337  1.00  0.00    -0.268 OA
HETATM   12  N   UNL     1       9.161  -1.780  22.695  1.00  0.00    -0.320 N 
ATOM     13  HN  UNL     1       8.752  -1.386  21.848  1.00  0.00     0.169 HD
BRANCH  12  14
HETATM   14  C   UNL     1      10.292  -1.373  23.106  1.00  0.00     0.072 A 
HETATM   15  C   UNL     1      11.514  -1.649  22.904  1.00  0.00     0.119 A 
HETATM   16  N   UNL     1      12.785  -1.536  23.089  1.00  0.00    -0.373 N 
HETATM   17  C   UNL     1      12.613  -0.584  23.924  1.00  0.00     0.089 A 
ATOM     18  HN  UNL     1      13.604  -2.017  22.717  1.00  0.00     0.164 HD
HETATM   19  C   UNL     1      11.665   0.010  24.407  1.00  0.00     0.043 A 
HETATM   20  C   UNL     1      10.388  -0.226  24.140  1.00  0.00     0.063 A 
HETATM   21 CL   UNL     1       9.125   0.545  24.730  1.00  0.00    -0.082 Cl
ENDBRANCH  12  14
ENDBRANCH   9  10
BRANCH   1  22
HETATM   22  N   UNL     1       5.602  -0.733  19.945  1.00  0.00    -0.295 N 
ATOM     23  HN  UNL     1       4.659  -0.645  19.565  1.00  0.00     0.177 HD
BRANCH  22  24
HETATM   24  S   UNL     1       6.671   0.494  19.630  1.00  0.00     0.226 S 
HETATM   25  C   UNL     1       6.020   1.238  18.068  1.00  0.00     0.186 C 
HETATM   26  O   UNL     1       6.571   1.489  20.643  1.00  0.00    -0.206 OA
HETATM   27  O   UNL     1       7.988   0.025  19.360  1.00  0.00    -0.206 OA
ENDBRANCH  22  24
ENDBRANCH   1  22
TORSDOF 4
ENDMDL
MODEL 4
REMARK VINA RESULT:    -7.543      3.588      5.595
REMARK INTER + INTRA:         -10.000
REMARK INTER:                  -9.202
REMARK INTRA:                  -0.798
REMARK UNBOUND:                -0.694
REMARK  4 active torsions:
REMARK  status: ('A' for Active; 'I' for Inactive)
REMARK    1  A    between atoms: S_2  and  N_5 
REMARK    2  A    between atoms: N_5  and  C_7 
REMARK    3  A    between atoms: C_15  and  C_16 
REMARK       I    between atoms: C_16  and  N_18 
REMARK    4  A    between atoms: N_18  and  C_20 
ROOT
HETATM    1  C   UNL     1       7.171  -5.553  26.595  1.00  0.00     0.109 C 
HETATM    2  C   UNL     1       7.187  -4.894  25.502  1.00  0.00    -0.008 A 
HETATM    3  C   UNL     1       6.991  -4.836  24.203  1.00  0.00     0.058 A 
HETATM    4  C   UNL     1       7.653  -5.768  23.037  1.00  0.00    -0.003 C 
HETATM    5  C   UNL     1       7.107  -5.976  22.107  1.00  0.00    -0.002 C 
HETATM    6  C   UNL     1       5.915  -5.736  21.712  1.00  0.00    -0.001 C 
HETATM    7  C   UNL     1       5.107  -5.108  22.721  1.00  0.00    -0.002 C 
HETATM    8  C   UNL     1       5.426  -4.810  23.692  1.00  0.00    -0.003 C 
HETATM    9  C   UNL     1       7.405  -3.723  24.384  1.00  0.00     0.040 A 
ENDROOT
BRANCH   9  10
HETATM   10  C   UNL     1       7.843  -2.385  24.189  1.00  0.00     0.254 C 
HETATM   11  O   UNL     1       7.896  -1.647  25.078  1.00  0.00    -0.268 OA
HETATM   12  N   UNL     1       8.101  -2.269  22.908  1.00  0.00    -0.320 N 
ATOM     13  HN  UNL     1       7.971  -3.067  22.285  1.00  0.00     0.169 HD
BRANCH  12  14
HETATM   14  C   UNL     1       8.513  -1.161  22.446  1.00  0.00     0.072 A 
HETATM   15  C   UNL     1       8.004  -0.097  21.977  1.00  0.00     0.119 A 
HETATM   16  N   UNL     1       8.031   1.079  21.447  1.00  0.00    -0.373 N 
HETATM   17  C   UNL     1       9.309   1.105  21.490  1.00  0.00     0.089 A 
ATOM     18  HN  UNL     1       7.316   1.729  21.123  1.00  0.00     0.164 HD
HETATM   19  C   UNL     1      10.198   0.355  21.851  1.00  0.00     0.043 A 
HETATM   20  C   UNL     1      10.028  -0.854  22.367  1.00  0.00     0.063 A 
HETATM   21 CL   UNL     1      11.162  -1.851  22.874  1.00  0.00    -0.082 Cl
ENDBRANCH  12  14
ENDBRANCH   9  10
BRANCH   1  22
HETATM   22  N   UNL     1       7.486  -5.876  27.628  1.00  0.00    -0.295 N 
ATOM     23  HN  UNL     1       8.486  -5.920  27.822  1.00  0.00     0.177 HD
BRANCH  22  24
HETATM   24  S   UNL     1       6.450  -6.283  28.856  1.00  0.00     0.226 S 
HETATM   25  C   UNL     1       4.795  -6.299  28.032  1.00  0.00     0.186 C 
HETATM   26  O   UNL     1       6.717  -7.612  29.289  1.00  0.00    -0.206 OA
HETATM   27  O   UNL     1       6.401  -5.301  29.887  1.00  0.00    -0.206 OA
ENDBRANCH  22  24
ENDBRANCH   1  22
TORSDOF 4
ENDMDL
MODEL 5
REMARK VINA RESULT:    -7.326      3.289      6.426
REMARK INTER + INTRA:          -9.732
REMARK INTER:                  -8.979
REMARK INTRA:                  -0.753
REMARK UNBOUND:                -0.694
REMARK  4 active torsions:
REMARK  status: ('A' for Active; 'I' for Inactive)
REMARK    1  A    between atoms: S_2  and  N_5 
REMARK    2  A    between atoms: N_5  and  C_7 
REMARK    3  A    between atoms: C_15  and  C_16 
REMARK       I    between atoms: C_16  and  N_18 
REMARK    4  A    between atoms: N_18  and  C_20 
ROOT
HETATM    1  C   UNL     1       6.607  -1.166  21.173  1.00  0.00     0.109 C 
HETATM    2  C   UNL     1       7.248  -1.788  22.084  1.00  0.00    -0.008 A 
HETATM    3  C   UNL     1       8.285  -1.882  22.888  1.00  0.00     0.058 A 
HETATM    4  C   UNL     1       9.870  -1.902  22.494  1.00  0.00    -0.003 C 
HETATM    5  C   UNL     1      10.625  -1.508  23.188  1.00  0.00    -0.002 C 
HETATM    6  C   UNL     1      10.559  -0.871  24.296  1.00  0.00    -0.001 C 
HETATM    7  C   UNL     1       9.210  -0.565  24.684  1.00  0.00    -0.002 C 
HETATM    8  C   UNL     1       8.323  -0.850  24.170  1.00  0.00    -0.003 C 
HETATM    9  C   UNL     1       7.728  -2.907  23.173  1.00  0.00     0.040 A 
ENDROOT
BRANCH   9  10
HETATM   10  C   UNL     1       7.398  -4.159  23.760  1.00  0.00     0.254 C 
HETATM   11  O   UNL     1       7.832  -5.142  23.332  1.00  0.00    -0.268 OA
HETATM   12  N   UNL     1       6.576  -3.893  24.748  1.00  0.00    -0.320 N 
ATOM     13  HN  UNL     1       6.311  -2.929  24.948  1.00  0.00     0.169 HD
BRANCH  12  14
HETATM   14  C   UNL     1       6.112  -4.841  25.453  1.00  0.00     0.072 A 
HETATM   15  C   UNL     1       6.444  -5.476  26.500  1.00  0.00     0.119 A 
HETATM   16  N   UNL     1       6.317  -6.382  27.409  1.00  0.00    -0.373 N 
HETATM   17  C   UNL     1       5.209  -6.776  26.909  1.00  0.00     0.089 A 
ATOM     18  HN  UNL     1       6.879  -6.670  28.210  1.00  0.00     0.164 HD
HETATM   19  C   UNL     1       4.511  -6.477  25.956  1.00  0.00     0.043 A 
HETATM   20  C   UNL     1       4.776  -5.524  25.074  1.00  0.00     0.063 A 
HETATM   21 CL   UNL     1       3.878  -5.087  23.832  1.00  0.00    -0.082 Cl
ENDBRANCH  12  14
ENDBRANCH   9  10
BRANCH   1  22
HETATM   22  N   UNL     1       5.947  -1.018  20.272  1.00  0.00    -0.295 N 
ATOM     23  HN  UNL     1       5.119  -1.609  20.194  1.00  0.00     0.177 HD
BRANCH  22  24
HETATM   24  S   UNL     1       6.217   0.082  19.062  1.00  0.00     0.226 S 
HETATM   25  C   UNL     1       5.239   1.556  19.600  1.00  0.00     0.186 C 
HETATM   26  O   UNL     1       7.587   0.465  19.058  1.00  0.00    -0.206 OA
HETATM   27  O   UNL     1       5.694  -0.338  17.805  1.00  0.00    -0.206 OA
ENDBRANCH  22  24
ENDBRANCH   1  22
TORSDOF 4
ENDMDL
MODEL 6
REMARK VINA RESULT:    -7.319      3.640      6.249
REMARK INTER + INTRA:          -9.724
REMARK INTER:                  -8.880
REMARK INTRA:                  -0.844
REMARK UNBOUND:                -0.694
REMARK  4 active torsions:
REMARK  status: ('A' for Active; 'I' for Inactive)
REMARK    1  A    between atoms: S_2  and  N_5 
REMARK    2  A    between atoms: N_5  and  C_7 
REMARK    3  A    between atoms: C_15  and  C_16 
REMARK       I    between atoms: C_16  and  N_18 
REMARK    4  A    between atoms: N_18  and  C_20 
ROOT
HETATM    1  C   UNL     1       8.775   0.760  22.162  1.00  0.00     0.109 C 
HETATM    2  C   UNL     1       9.317  -0.003  23.030  1.00  0.00    -0.008 A 
HETATM    3  C   UNL     1      10.387  -0.577  23.533  1.00  0.00     0.058 A 
HETATM    4  C   UNL     1      11.464  -1.547  22.780  1.00  0.00    -0.003 C 
HETATM    5  C   UNL     1      12.514  -1.577  23.102  1.00  0.00    -0.002 C 
HETATM    6  C   UNL     1      13.201  -0.891  23.935  1.00  0.00    -0.001 C 
HETATM    7  C   UNL     1      12.448   0.177  24.535  1.00  0.00    -0.002 C 
HETATM    8  C   UNL     1      11.418   0.391  24.376  1.00  0.00    -0.003 C 
HETATM    9  C   UNL     1       9.556  -1.057  24.255  1.00  0.00     0.040 A 
ENDROOT
BRANCH   9  10
HETATM   10  C   UNL     1       8.905  -1.814  25.266  1.00  0.00     0.254 C 
HETATM   11  O   UNL     1       8.713  -1.358  26.312  1.00  0.00    -0.268 OA
HETATM   12  N   UNL     1       8.655  -2.989  24.738  1.00  0.00    -0.320 N 
ATOM     13  HN  UNL     1       8.928  -3.186  23.775  1.00  0.00     0.169 HD
BRANCH  12  14
HETATM   14  C   UNL     1       8.073  -3.880  25.430  1.00  0.00     0.072 A 
HETATM   15  C   UNL     1       8.402  -4.781  26.261  1.00  0.00     0.119 A 
HETATM   16  N   UNL     1       8.189  -5.772  27.059  1.00  0.00    -0.373 N 
HETATM   17  C   UNL     1       6.929  -5.713  26.849  1.00  0.00     0.089 A 
ATOM     18  HN  UNL     1       8.788  -6.366  27.631  1.00  0.00     0.164 HD
HETATM   19  C   UNL     1       6.175  -5.038  26.171  1.00  0.00     0.043 A 
HETATM   20  C   UNL     1       6.536  -4.048  25.366  1.00  0.00     0.063 A 
HETATM   21 CL   UNL     1       5.579  -3.128  24.486  1.00  0.00    -0.082 Cl
ENDBRANCH  12  14
ENDBRANCH   9  10
BRANCH   1  22
HETATM   22  N   UNL     1       7.987   1.150  21.457  1.00  0.00    -0.295 N 
ATOM     23  HN  UNL     1       8.116   0.969  20.461  1.00  0.00     0.177 HD
BRANCH  22  24
HETATM   24  S   UNL     1       6.635   1.994  21.912  1.00  0.00     0.226 S 
HETATM   25  C   UNL     1       7.287   3.689  22.259  1.00  0.00     0.186 C 
HETATM   26  O   UNL     1       5.744   2.104  20.809  1.00  0.00    -0.206 OA
HETATM   27  O   UNL     1       6.059   1.506  23.120  1.00  0.00    -0.206 OA
ENDBRANCH  22  24
ENDBRANCH   1  22
TORSDOF 4
ENDMDL
MODEL 7
REMARK VINA RESULT:    -6.994      3.304      6.517
REMARK INTER + INTRA:          -9.323
REMARK INTER:                  -8.464
REMARK INTRA:                  -0.859
REMARK UNBOUND:                -0.694
REMARK  4 active torsions:
REMARK  status: ('A' for Active; 'I' for Inactive)
REMARK    1  A    between atoms: S_2  and  N_5 
REMARK    2  A    between atoms: N_5  and  C_7 
REMARK    3  A    between atoms: C_15  and  C_16 
REMARK       I    between atoms: C_16  and  N_18 
REMARK    4  A    between atoms: N_18  and  C_20 
ROOT
HETATM    1  C   UNL     1       8.296   2.217  21.801  1.00  0.00     0.109 C 
HETATM    2  C   UNL     1       7.721   1.160  21.379  1.00  0.00    -0.008 A 
HETATM    3  C   UNL     1       6.916   0.561  20.528  1.00  0.00     0.058 A 
HETATM    4  C   UNL     1       5.356   0.909  20.195  1.00  0.00    -0.003 C 
HETATM    5  C   UNL     1       4.937   0.711  19.199  1.00  0.00    -0.002 C 
HETATM    6  C   UNL     1       5.445   0.339  18.086  1.00  0.00    -0.001 C 
HETATM    7  C   UNL     1       6.875   0.202  18.143  1.00  0.00    -0.002 C 
HETATM    8  C   UNL     1       7.490   0.338  19.001  1.00  0.00    -0.003 C 
HETATM    9  C   UNL     1       7.182  -0.376  21.231  1.00  0.00     0.040 A 
ENDROOT
BRANCH   9  10
HETATM   10  C   UNL     1       7.237  -1.675  21.804  1.00  0.00     0.254 C 
HETATM   11  O   UNL     1       8.234  -2.098  22.210  1.00  0.00    -0.268 OA
HETATM   12  N   UNL     1       6.021  -2.163  21.719  1.00  0.00    -0.320 N 
ATOM     13  HN  UNL     1       5.274  -1.607  21.303  1.00  0.00     0.169 HD
BRANCH  12  14
HETATM   14  C   UNL     1       5.779  -3.329  22.159  1.00  0.00     0.072 A 
HETATM   15  C   UNL     1       5.804  -4.518  21.717  1.00  0.00     0.119 A 
HETATM   16  N   UNL     1       5.639  -5.796  21.783  1.00  0.00    -0.373 N 
HETATM   17  C   UNL     1       5.285  -5.719  23.009  1.00  0.00     0.089 A 
ATOM     18  HN  UNL     1       5.747  -6.563  21.120  1.00  0.00     0.164 HD
HETATM   19  C   UNL     1       5.129  -4.835  23.832  1.00  0.00     0.043 A 
HETATM   20  C   UNL     1       5.317  -3.540  23.621  1.00  0.00     0.063 A 
HETATM   21 CL   UNL     1       5.147  -2.359  24.676  1.00  0.00    -0.082 Cl
ENDBRANCH  12  14
ENDBRANCH   9  10
BRANCH   1  22
HETATM   22  N   UNL     1       8.746   2.942  22.538  1.00  0.00    -0.295 N 
ATOM     23  HN  UNL     1       8.272   3.836  22.668  1.00  0.00     0.177 HD
BRANCH  22  24
HETATM   24  S   UNL     1      10.118   2.667  23.427  1.00  0.00     0.226 S 
HETATM   25  C   UNL     1       9.529   1.571  24.794  1.00  0.00     0.186 C 
HETATM   26  O   UNL     1      11.048   1.916  22.656  1.00  0.00    -0.206 OA
HETATM   27  O   UNL     1      10.634   3.852  24.026  1.00  0.00    -0.206 OA
ENDBRANCH  22  24
ENDBRANCH   1  22
TORSDOF 4
ENDMDL
MODEL 8
REMARK VINA RESULT:    -6.795     23.657     27.027
REMARK INTER + INTRA:          -9.077
REMARK INTER:                  -8.315
REMARK INTRA:                  -0.763
REMARK UNBOUND:                -0.694
REMARK  4 active torsions:
REMARK  status: ('A' for Active; 'I' for Inactive)
REMARK    1  A    between atoms: S_2  and  N_5 
REMARK    2  A    between atoms: N_5  and  C_7 
REMARK    3  A    between atoms: C_15  and  C_16 
REMARK       I    between atoms: C_16  and  N_18 
REMARK    4  A    between atoms: N_18  and  C_20 
ROOT
HETATM    1  C   UNL     1       7.802  14.785   2.023  1.00  0.00     0.109 C 
HETATM    2  C   UNL     1       8.242  15.970   2.195  1.00  0.00    -0.008 A 
HETATM    3  C   UNL     1       8.478  17.178   1.729  1.00  0.00     0.058 A 
HETATM    4  C   UNL     1       9.362  17.603   0.424  1.00  0.00    -0.003 C 
HETATM    5  C   UNL     1       9.120  18.510  -0.147  1.00  0.00    -0.002 C 
HETATM    6  C   UNL     1       8.153  19.346  -0.106  1.00  0.00    -0.001 C 
HETATM    7  C   UNL     1       7.146  18.989   0.856  1.00  0.00    -0.002 C 
HETATM    8  C   UNL     1       7.172  18.158   1.520  1.00  0.00    -0.003 C 
HETATM    9  C   UNL     1       8.942  17.303   2.830  1.00  0.00     0.040 A 
ENDROOT
BRANCH   9  10
HETATM   10  C   UNL     1       9.575  17.830   3.988  1.00  0.00     0.254 C 
HETATM   11  O   UNL     1       9.153  17.608   5.042  1.00  0.00    -0.268 OA
HETATM   12  N   UNL     1      10.594  18.536   3.558  1.00  0.00    -0.320 N 
ATOM     13  HN  UNL     1      10.782  18.607   2.558  1.00  0.00     0.169 HD
BRANCH  12  14
HETATM   14  C   UNL     1      11.344  19.132   4.391  1.00  0.00     0.072 A 
HETATM   15  C   UNL     1      12.244  18.818   5.228  1.00  0.00     0.119 A 
HETATM   16  N   UNL     1      13.112  19.047   6.155  1.00  0.00    -0.373 N 
HETATM   17  C   UNL     1      12.881  20.303   6.108  1.00  0.00     0.089 A 
ATOM     18  HN  UNL     1      13.735  18.458   6.707  1.00  0.00     0.164 HD
HETATM   19  C   UNL     1      12.144  21.045   5.483  1.00  0.00     0.043 A 
HETATM   20  C   UNL     1      11.272  20.669   4.558  1.00  0.00     0.063 A 
HETATM   21 CL   UNL     1      10.312  21.610   3.703  1.00  0.00    -0.082 Cl
ENDBRANCH  12  14
ENDBRANCH   9  10
BRANCH   1  22
HETATM   22  N   UNL     1       7.731  13.667   2.143  1.00  0.00    -0.295 N 
ATOM     23  HN  UNL     1       7.503  13.118   1.314  1.00  0.00     0.177 HD
BRANCH  22  24
HETATM   24  S   UNL     1       7.968  12.844   3.563  1.00  0.00     0.226 S 
HETATM   25  C   UNL     1       7.299  11.160   3.197  1.00  0.00     0.186 C 
HETATM   26  O   UNL     1       9.362  12.699   3.806  1.00  0.00    -0.206 OA
HETATM   27  O   UNL     1       7.209  13.377   4.644  1.00  0.00    -0.206 OA
ENDBRANCH  22  24
ENDBRANCH   1  22
TORSDOF 4
ENDMDL
MODEL 9
REMARK VINA RESULT:    -6.651      3.952      7.769
REMARK INTER + INTRA:          -8.900
REMARK INTER:                  -8.086
REMARK INTRA:                  -0.815
REMARK UNBOUND:                -0.694
REMARK  4 active torsions:
REMARK  status: ('A' for Active; 'I' for Inactive)
REMARK    1  A    between atoms: S_2  and  N_5 
REMARK    2  A    between atoms: N_5  and  C_7 
REMARK    3  A    between atoms: C_15  and  C_16 
REMARK       I    between atoms: C_16  and  N_18 
REMARK    4  A    between atoms: N_18  and  C_20 
ROOT
HETATM    1  C   UNL     1       8.983  -2.210  22.556  1.00  0.00     0.109 C 
HETATM    2  C   UNL     1       8.262  -3.019  23.229  1.00  0.00    -0.008 A 
HETATM    3  C   UNL     1       7.258  -3.867  23.298  1.00  0.00     0.058 A 
HETATM    4  C   UNL     1       5.690  -3.609  22.922  1.00  0.00    -0.003 C 
HETATM    5  C   UNL     1       5.059  -4.430  22.554  1.00  0.00    -0.002 C 
HETATM    6  C   UNL     1       5.296  -5.637  22.205  1.00  0.00    -0.001 C 
HETATM    7  C   UNL     1       6.694  -5.970  22.260  1.00  0.00    -0.002 C 
HETATM    8  C   UNL     1       7.483  -5.336  22.589  1.00  0.00    -0.003 C 
HETATM    9  C   UNL     1       7.601  -3.884  24.448  1.00  0.00     0.040 A 
ENDROOT
BRANCH   9  10
HETATM   10  C   UNL     1       7.687  -4.165  25.839  1.00  0.00     0.254 C 
HETATM   11  O   UNL     1       8.613  -3.837  26.450  1.00  0.00    -0.268 OA
HETATM   12  N   UNL     1       6.590  -4.815  26.148  1.00  0.00    -0.320 N 
ATOM     13  HN  UNL     1       5.892  -5.012  25.431  1.00  0.00     0.169 HD
BRANCH  12  14
HETATM   14  C   UNL     1       6.402  -5.199  27.343  1.00  0.00     0.072 A 
HETATM   15  C   UNL     1       6.774  -6.158  28.087  1.00  0.00     0.119 A 
HETATM   16  N   UNL     1       6.805  -6.853  29.173  1.00  0.00    -0.373 N 
HETATM   17  C   UNL     1       6.037  -6.022  29.766  1.00  0.00     0.089 A 
ATOM     18  HN  UNL     1       7.262  -7.722  29.449  1.00  0.00     0.164 HD
HETATM   19  C   UNL     1       5.460  -4.988  29.479  1.00  0.00     0.043 A 
HETATM   20  C   UNL     1       5.498  -4.384  28.299  1.00  0.00     0.063 A 
HETATM   21 CL   UNL     1       4.779  -3.021  27.893  1.00  0.00    -0.082 Cl
ENDBRANCH  12  14
ENDBRANCH   9  10
BRANCH   1  22
HETATM   22  N   UNL     1       9.625  -1.309  22.342  1.00  0.00    -0.295 N 
ATOM     23  HN  UNL     1      10.635  -1.419  22.436  1.00  0.00     0.177 HD
BRANCH  22  24
HETATM   24  S   UNL     1       9.057   0.180  21.888  1.00  0.00     0.226 S 
HETATM   25  C   UNL     1       7.917  -0.208  20.485  1.00  0.00     0.186 C 
HETATM   26  O   UNL     1       8.265   0.732  22.933  1.00  0.00    -0.206 OA
HETATM   27  O   UNL     1      10.080   1.031  21.380  1.00  0.00    -0.206 OA
ENDBRANCH  22  24
ENDBRANCH   1  22
TORSDOF 4
ENDMDL
