stable:False satoms:6 tatoms:24 sratio:0.25
  -OEChem-07092417463D

 24 26  0     1  0  0  0  0  0999 V2000
    6.5231   -4.8665   26.3905 C   0  0  0  0  0  0  0  0  0  0  0  0
    8.2472   -4.2841   26.0651 S   0  0  0  0  0  0  0  0  0  0  0  0
    9.0729   -5.4386   25.9804 O   0  0  0  0  0  0  0  0  0  0  0  0
    8.5855   -3.3628   27.0980 O   0  0  0  0  0  0  0  0  0  0  0  0
    8.1343   -3.5663   24.5751 N   0  0  0  0  0  0  0  0  0  0  0  0
    8.9306   -2.9239   24.1034 C   0  0  0  0  0  0  0  0  0  0  0  0
    9.4375   -1.9474   23.4581 C   0  0  0  0  0  0  0  0  0  0  0  0
   10.4238   -1.0986   23.2618 C   0  0  1  0  0  0  0  0  0  0  0  0
   11.0849   -0.0528   24.3280 C   0  0  0  0  0  0  0  0  0  0  0  0
   12.1421    0.2373   24.2483 C   0  0  0  0  0  0  0  0  0  0  0  0
   13.1143   -0.1635   23.5197 C   0  0  0  0  0  0  0  0  0  0  0  0
   12.7546   -1.2608   22.6633 C   0  0  0  0  0  0  0  0  0  0  0  0
   11.7908   -1.7021   22.5701 C   0  0  0  0  0  0  0  0  0  0  0  0
    9.6584   -0.6965   22.4286 C   0  0  3  0  0  0  0  0  0  0  0  0
    9.0546    0.0529   21.3827 C   0  0  0  0  0  0  0  0  0  0  0  0
    9.5622    1.0102   20.9767 O   0  0  0  0  0  0  0  0  0  0  0  0
    7.9329   -0.5632   21.0928 N   0  0  0  0  0  0  0  0  0  0  0  0
    7.1793   -0.1013   20.1816 C   0  0  0  0  0  0  0  0  0  0  0  0
    7.1848   -0.0197   18.9159 C   0  0  0  0  0  0  0  0  0  0  0  0
    6.7251    0.3308   17.7634 N   0  0  0  0  0  0  0  0  0  0  0  0
    5.6788    0.8362   18.2975 C   0  0  0  0  0  0  0  0  0  0  0  0
    5.2421    0.9791   19.4250 C   0  0  0  0  0  0  0  0  0  0  0  0
    5.8375    0.5830   20.5412 C   0  0  0  0  0  0  0  0  0  0  0  0
    5.2868    0.7286   22.0295 Cl  0  0  0  0  0  0  0  0  0  0  0  0
 20 21  2  0  0  0  0
 19 20  1  0  0  0  0
 21 22  1  0  0  0  0
 18 19  2  0  0  0  0
 22 23  2  0  0  0  0
 18 23  1  0  0  0  0
 17 18  1  0  0  0  0
 23 24  1  0  0  0  0
 15 16  2  0  0  0  0
 15 17  1  0  0  0  0
 14 15  1  0  0  0  0
  8 14  1  0  0  0  0
  7 14  1  0  0  0  0
 12 13  1  0  0  0  0
  8 13  1  0  0  0  0
 11 12  2  0  0  0  0
  7  8  1  0  0  0  0
  8  9  1  0  0  0  0
  6  7  2  0  0  0  0
 10 11  1  0  0  0  0
  5  6  1  0  0  0  0
  9 10  2  0  0  0  0
  2  5  1  0  0  0  0
  2  3  2  0  0  0  0
  1  2  1  0  0  0  0
  2  4  2  0  0  0  0
M  END
> <Shapegauss>
-287.845337

$$$$
