MODEL 1
REMARK VINA RESULT:    -8.035      0.000      0.000
REMARK INTER + INTRA:         -10.672
REMARK INTER:                  -9.914
REMARK INTRA:                  -0.759
REMARK UNBOUND:                -0.759
REMARK  4 active torsions:
REMARK  status: ('A' for Active; 'I' for Inactive)
REMARK    1  A    between atoms: S_2  and  N_5 
REMARK    2  A    between atoms: N_5  and  C_7 
REMARK    3  A    between atoms: C_15  and  C_16 
REMARK       I    between atoms: C_16  and  N_18 
REMARK    4  A    between atoms: N_18  and  C_20 
ROOT
HETATM    1  C   UNL     1       8.537  -3.547  23.823  1.00  0.00     0.109 C 
HETATM    2  C   UNL     1       8.904  -2.420  23.355  1.00  0.00    -0.008 A 
HETATM    3  C   UNL     1       9.613  -1.407  23.400  1.00  0.00     0.058 A 
HETATM    4  C   UNL     1       9.754  -0.239  24.700  1.00  0.00    -0.003 C 
HETATM    5  C   UNL     1      10.663   0.229  24.867  1.00  0.00    -0.002 C 
HETATM    6  C   UNL     1      11.960   0.138  24.360  1.00  0.00    -0.001 C 
HETATM    7  C   UNL     1      12.052  -1.004  23.402  1.00  0.00    -0.002 C 
HETATM    8  C   UNL     1      11.370  -1.624  23.036  1.00  0.00    -0.003 C 
HETATM    9  C   UNL     1       9.149  -0.916  22.441  1.00  0.00     0.040 A 
ENDROOT
BRANCH   9  10
HETATM   10  C   UNL     1       8.603  -0.312  21.336  1.00  0.00     0.254 C 
HETATM   11  O   UNL     1       9.300   0.357  20.744  1.00  0.00    -0.268 OA
HETATM   12  N   UNL     1       7.330  -0.610  21.202  1.00  0.00    -0.321 N 
ATOM     13  HN  UNL     1       6.868  -1.205  21.891  1.00  0.00     0.169 HD
BRANCH  12  14
HETATM   14  C   UNL     1       6.684  -0.161  20.225  1.00  0.00     0.056 A 
HETATM   15  C   UNL     1       6.368  -0.528  18.975  1.00  0.00     0.117 A 
HETATM   16  N   UNL     1       5.833  -0.416  17.909  1.00  0.00    -0.373 N 
HETATM   17  C   UNL     1       5.297   0.846  18.171  1.00  0.00     0.088 A 
ATOM     18  HN  UNL     1       5.786  -1.029  17.095  1.00  0.00     0.164 HD
HETATM   19  C   UNL     1       5.355   1.505  19.167  1.00  0.00     0.026 A 
HETATM   20  C   UNL     1       5.957   1.238  20.321  1.00  0.00    -0.033 A 
HETATM   21  C   UNL     1       6.001   2.101  21.577  1.00  0.00     0.050 C 
ENDBRANCH  12  14
ENDBRANCH   9  10
BRANCH   1  22
HETATM   22  N   UNL     1       7.695  -4.381  24.075  1.00  0.00    -0.295 N 
ATOM     23  HN  UNL     1       7.683  -4.779  25.014  1.00  0.00     0.177 HD
BRANCH  22  24
HETATM   24  S   UNL     1       6.594  -4.900  23.021  1.00  0.00     0.226 S 
HETATM   25  C   UNL     1       5.530  -3.567  22.803  1.00  0.00     0.186 C 
HETATM   26  O   UNL     1       7.173  -5.218  21.734  1.00  0.00    -0.206 OA
HETATM   27  O   UNL     1       5.826  -5.976  23.530  1.00  0.00    -0.206 OA
ENDBRANCH  22  24
ENDBRANCH   1  22
TORSDOF 4
ENDMDL
MODEL 2
REMARK VINA RESULT:    -7.878      2.684      6.094
REMARK INTER + INTRA:         -10.479
REMARK INTER:                  -9.697
REMARK INTRA:                  -0.783
REMARK UNBOUND:                -0.759
REMARK  4 active torsions:
REMARK  status: ('A' for Active; 'I' for Inactive)
REMARK    1  A    between atoms: S_2  and  N_5 
REMARK    2  A    between atoms: N_5  and  C_7 
REMARK    3  A    between atoms: C_15  and  C_16 
REMARK       I    between atoms: C_16  and  N_18 
REMARK    4  A    between atoms: N_18  and  C_20 
ROOT
HETATM    1  C   UNL     1       8.912  -0.170  20.950  1.00  0.00     0.109 C 
HETATM    2  C   UNL     1       9.300  -0.802  21.987  1.00  0.00    -0.008 A 
HETATM    3  C   UNL     1      10.135  -1.022  22.872  1.00  0.00     0.058 A 
HETATM    4  C   UNL     1      11.811  -1.503  22.686  1.00  0.00    -0.003 C 
HETATM    5  C   UNL     1      12.512  -1.180  23.377  1.00  0.00    -0.002 C 
HETATM    6  C   UNL     1      12.533  -0.325  24.479  1.00  0.00    -0.001 C 
HETATM    7  C   UNL     1      11.213   0.361  24.614  1.00  0.00    -0.002 C 
HETATM    8  C   UNL     1      10.357   0.263  24.124  1.00  0.00    -0.003 C 
HETATM    9  C   UNL     1       9.510  -1.868  23.393  1.00  0.00     0.040 A 
ENDROOT
BRANCH   9  10
HETATM   10  C   UNL     1       8.807  -2.876  24.004  1.00  0.00     0.254 C 
HETATM   11  O   UNL     1       8.301  -3.615  23.310  1.00  0.00    -0.268 OA
HETATM   12  N   UNL     1       8.831  -2.758  25.313  1.00  0.00    -0.321 N 
ATOM     13  HN  UNL     1       9.314  -1.971  25.747  1.00  0.00     0.169 HD
BRANCH  12  14
HETATM   14  C   UNL     1       8.258  -3.615  26.027  1.00  0.00     0.056 A 
HETATM   15  C   UNL     1       8.508  -4.831  26.533  1.00  0.00     0.117 A 
HETATM   16  N   UNL     1       8.274  -5.810  27.183  1.00  0.00    -0.373 N 
HETATM   17  C   UNL     1       6.988  -5.411  27.550  1.00  0.00     0.088 A 
ATOM     18  HN  UNL     1       8.823  -6.643  27.394  1.00  0.00     0.164 HD
HETATM   19  C   UNL     1       6.407  -4.396  27.301  1.00  0.00     0.026 A 
HETATM   20  C   UNL     1       6.807  -3.348  26.589  1.00  0.00    -0.033 A 
HETATM   21  C   UNL     1       6.039  -2.063  26.300  1.00  0.00     0.050 C 
ENDBRANCH  12  14
ENDBRANCH   9  10
BRANCH   1  22
HETATM   22  N   UNL     1       8.354  -0.111  19.877  1.00  0.00    -0.295 N 
ATOM     23  HN  UNL     1       8.897  -0.333  19.042  1.00  0.00     0.177 HD
BRANCH  22  24
HETATM   24  S   UNL     1       6.808   0.297  19.684  1.00  0.00     0.226 S 
HETATM   25  C   UNL     1       6.497   1.446  20.926  1.00  0.00     0.186 C 
HETATM   26  O   UNL     1       6.566   0.944  18.414  1.00  0.00    -0.206 OA
HETATM   27  O   UNL     1       5.933  -0.797  19.891  1.00  0.00    -0.206 OA
ENDBRANCH  22  24
ENDBRANCH   1  22
TORSDOF 4
ENDMDL
MODEL 3
REMARK VINA RESULT:    -7.804      2.756      6.321
REMARK INTER + INTRA:         -10.387
REMARK INTER:                  -9.712
REMARK INTRA:                  -0.675
REMARK UNBOUND:                -0.759
REMARK  4 active torsions:
REMARK  status: ('A' for Active; 'I' for Inactive)
REMARK    1  A    between atoms: S_2  and  N_5 
REMARK    2  A    between atoms: N_5  and  C_7 
REMARK    3  A    between atoms: C_15  and  C_16 
REMARK       I    between atoms: C_16  and  N_18 
REMARK    4  A    between atoms: N_18  and  C_20 
ROOT
HETATM    1  C   UNL     1       5.862  -1.660  20.748  1.00  0.00     0.109 C 
HETATM    2  C   UNL     1       6.448  -2.373  21.627  1.00  0.00    -0.008 A 
HETATM    3  C   UNL     1       6.493  -3.367  22.362  1.00  0.00     0.058 A 
HETATM    4  C   UNL     1       5.345  -3.857  23.595  1.00  0.00    -0.003 C 
HETATM    5  C   UNL     1       5.190  -4.866  23.772  1.00  0.00    -0.002 C 
HETATM    6  C   UNL     1       5.608  -6.072  23.210  1.00  0.00    -0.001 C 
HETATM    7  C   UNL     1       6.406  -5.807  21.976  1.00  0.00    -0.002 C 
HETATM    8  C   UNL     1       6.728  -4.968  21.557  1.00  0.00    -0.003 C 
HETATM    9  C   UNL     1       7.531  -3.096  22.837  1.00  0.00     0.040 A 
ENDROOT
BRANCH   9  10
HETATM   10  C   UNL     1       8.732  -2.785  23.424  1.00  0.00     0.254 C 
HETATM   11  O   UNL     1       8.991  -3.370  24.358  1.00  0.00    -0.268 OA
HETATM   12  N   UNL     1       9.344  -1.813  22.784  1.00  0.00    -0.321 N 
ATOM     13  HN  UNL     1       8.904  -1.377  21.973  1.00  0.00     0.169 HD
BRANCH  12  14
HETATM   14  C   UNL     1      10.471  -1.423  23.173  1.00  0.00     0.056 A 
HETATM   15  C   UNL     1      11.762  -1.723  22.973  1.00  0.00     0.117 A 
HETATM   16  N   UNL     1      12.945  -1.588  23.106  1.00  0.00    -0.373 N 
HETATM   17  C   UNL     1      12.849  -0.556  24.040  1.00  0.00     0.088 A 
ATOM     18  HN  UNL     1      13.744  -2.063  22.684  1.00  0.00     0.164 HD
HETATM   19  C   UNL     1      11.876  -0.011  24.473  1.00  0.00     0.026 A 
HETATM   20  C   UNL     1      10.594  -0.232  24.202  1.00  0.00    -0.033 A 
HETATM   21  C   UNL     1       9.378   0.493  24.768  1.00  0.00     0.050 C 
ENDBRANCH  12  14
ENDBRANCH   9  10
BRANCH   1  22
HETATM   22  N   UNL     1       5.554  -0.594  20.264  1.00  0.00    -0.295 N 
ATOM     23  HN  UNL     1       4.906  -0.002  20.785  1.00  0.00     0.177 HD
BRANCH  22  24
HETATM   24  S   UNL     1       6.101  -0.051  18.851  1.00  0.00     0.226 S 
HETATM   25  C   UNL     1       7.808   0.036  19.044  1.00  0.00     0.186 C 
HETATM   26  O   UNL     1       5.825  -0.968  17.767  1.00  0.00    -0.206 OA
HETATM   27  O   UNL     1       5.641   1.257  18.562  1.00  0.00    -0.206 OA
ENDBRANCH  22  24
ENDBRANCH   1  22
TORSDOF 4
ENDMDL
MODEL 4
REMARK VINA RESULT:    -7.432      4.043      6.212
REMARK INTER + INTRA:          -9.928
REMARK INTER:                  -9.227
REMARK INTRA:                  -0.702
REMARK UNBOUND:                -0.759
REMARK  4 active torsions:
REMARK  status: ('A' for Active; 'I' for Inactive)
REMARK    1  A    between atoms: S_2  and  N_5 
REMARK    2  A    between atoms: N_5  and  C_7 
REMARK    3  A    between atoms: C_15  and  C_16 
REMARK       I    between atoms: C_16  and  N_18 
REMARK    4  A    between atoms: N_18  and  C_20 
ROOT
HETATM    1  C   UNL     1       6.917  -5.451  26.302  1.00  0.00     0.109 C 
HETATM    2  C   UNL     1       7.110  -4.861  25.189  1.00  0.00    -0.008 A 
HETATM    3  C   UNL     1       7.013  -4.814  23.956  1.00  0.00     0.058 A 
HETATM    4  C   UNL     1       7.629  -5.954  22.775  1.00  0.00    -0.003 C 
HETATM    5  C   UNL     1       7.102  -6.110  21.897  1.00  0.00    -0.002 C 
HETATM    6  C   UNL     1       5.884  -5.697  21.356  1.00  0.00    -0.001 C 
HETATM    7  C   UNL     1       5.122  -4.905  22.367  1.00  0.00    -0.002 C 
HETATM    8  C   UNL     1       5.354  -4.585  23.276  1.00  0.00    -0.003 C 
HETATM    9  C   UNL     1       7.545  -3.773  23.853  1.00  0.00     0.040 A 
ENDROOT
BRANCH   9  10
HETATM   10  C   UNL     1       8.185  -2.568  23.707  1.00  0.00     0.254 C 
HETATM   11  O   UNL     1       7.642  -1.792  23.085  1.00  0.00    -0.268 OA
HETATM   12  N   UNL     1       9.355  -2.567  24.306  1.00  0.00    -0.321 N 
ATOM     13  HN  UNL     1       9.688  -3.406  24.780  1.00  0.00     0.169 HD
BRANCH  12  14
HETATM   14  C   UNL     1      10.062  -1.530  24.293  1.00  0.00     0.056 A 
HETATM   15  C   UNL     1      11.089  -1.024  23.596  1.00  0.00     0.117 A 
HETATM   16  N   UNL     1      11.897  -0.191  23.297  1.00  0.00    -0.373 N 
HETATM   17  C   UNL     1      11.542   0.699  24.312  1.00  0.00     0.088 A 
ATOM     18  HN  UNL     1      12.600  -0.148  22.558  1.00  0.00     0.164 HD
HETATM   19  C   UNL     1      10.676   0.609  25.132  1.00  0.00     0.026 A 
HETATM   20  C   UNL     1       9.801  -0.371  25.332  1.00  0.00    -0.033 A 
HETATM   21  C   UNL     1       8.702  -0.445  26.386  1.00  0.00     0.050 C 
ENDBRANCH  12  14
ENDBRANCH   9  10
BRANCH   1  22
HETATM   22  N   UNL     1       7.252  -5.761  27.423  1.00  0.00    -0.295 N 
ATOM     23  HN  UNL     1       8.251  -5.798  27.631  1.00  0.00     0.177 HD
BRANCH  22  24
HETATM   24  S   UNL     1       6.222  -6.118  28.608  1.00  0.00     0.226 S 
HETATM   25  C   UNL     1       4.665  -5.823  27.941  1.00  0.00     0.186 C 
HETATM   26  O   UNL     1       6.284  -7.512  28.987  1.00  0.00    -0.206 OA
HETATM   27  O   UNL     1       6.372  -5.263  29.727  1.00  0.00    -0.206 OA
ENDBRANCH  22  24
ENDBRANCH   1  22
TORSDOF 4
ENDMDL
MODEL 5
REMARK VINA RESULT:    -7.052     14.658     15.906
REMARK INTER + INTRA:          -9.459
REMARK INTER:                  -8.648
REMARK INTRA:                  -0.811
REMARK UNBOUND:                -0.759
REMARK  4 active torsions:
REMARK  status: ('A' for Active; 'I' for Inactive)
REMARK    1  A    between atoms: S_2  and  N_5 
REMARK    2  A    between atoms: N_5  and  C_7 
REMARK    3  A    between atoms: C_15  and  C_16 
REMARK       I    between atoms: C_16  and  N_18 
REMARK    4  A    between atoms: N_18  and  C_20 
ROOT
HETATM    1  C   UNL     1      24.287  -3.738  24.149  1.00  0.00     0.109 C 
HETATM    2  C   UNL     1      23.716  -2.771  23.549  1.00  0.00    -0.008 A 
HETATM    3  C   UNL     1      23.173  -1.659  23.557  1.00  0.00     0.058 A 
HETATM    4  C   UNL     1      21.759  -1.149  24.460  1.00  0.00    -0.003 C 
HETATM    5  C   UNL     1      21.695  -0.170  24.793  1.00  0.00    -0.002 C 
HETATM    6  C   UNL     1      22.519   0.955  24.805  1.00  0.00    -0.001 C 
HETATM    7  C   UNL     1      23.872   0.599  24.283  1.00  0.00    -0.002 C 
HETATM    8  C   UNL     1      24.237  -0.235  23.888  1.00  0.00    -0.003 C 
HETATM    9  C   UNL     1      22.966  -1.638  22.402  1.00  0.00     0.040 A 
ENDROOT
BRANCH   9  10
HETATM   10  C   UNL     1      22.692  -1.604  21.058  1.00  0.00     0.254 C 
HETATM   11  O   UNL     1      21.609  -1.773  20.771  1.00  0.00    -0.268 OA
HETATM   12  N   UNL     1      23.781  -1.412  20.348  1.00  0.00    -0.321 N 
ATOM     13  HN  UNL     1      24.686  -1.332  20.811  1.00  0.00     0.169 HD
BRANCH  12  14
HETATM   14  C   UNL     1      23.704  -1.327  19.099  1.00  0.00     0.056 A 
HETATM   15  C   UNL     1      23.379  -0.415  18.172  1.00  0.00     0.117 A 
HETATM   16  N   UNL     1      23.233   0.002  17.058  1.00  0.00    -0.373 N 
HETATM   17  C   UNL     1      23.551  -1.203  16.430  1.00  0.00     0.088 A 
ATOM     18  HN  UNL     1      22.968   0.919  16.696  1.00  0.00     0.164 HD
HETATM   19  C   UNL     1      23.894  -2.242  16.911  1.00  0.00     0.026 A 
HETATM   20  C   UNL     1      24.063  -2.566  18.189  1.00  0.00    -0.033 A 
HETATM   21  C   UNL     1      24.512  -3.904  18.765  1.00  0.00     0.050 C 
ENDBRANCH  12  14
ENDBRANCH   9  10
BRANCH   1  22
HETATM   22  N   UNL     1      24.508  -4.918  24.314  1.00  0.00    -0.295 N 
ATOM     23  HN  UNL     1      25.086  -5.397  23.623  1.00  0.00     0.177 HD
BRANCH  22  24
HETATM   24  S   UNL     1      23.946  -5.777  25.555  1.00  0.00     0.226 S 
HETATM   25  C   UNL     1      25.282  -5.924  26.629  1.00  0.00     0.186 C 
HETATM   26  O   UNL     1      22.885  -5.093  26.260  1.00  0.00    -0.206 OA
HETATM   27  O   UNL     1      23.564  -7.087  25.173  1.00  0.00    -0.206 OA
ENDBRANCH  22  24
ENDBRANCH   1  22
TORSDOF 4
ENDMDL
MODEL 6
REMARK VINA RESULT:    -6.948      2.524      6.147
REMARK INTER + INTRA:          -9.332
REMARK INTER:                  -8.527
REMARK INTRA:                  -0.805
REMARK UNBOUND:                -0.759
REMARK  4 active torsions:
REMARK  status: ('A' for Active; 'I' for Inactive)
REMARK    1  A    between atoms: S_2  and  N_5 
REMARK    2  A    between atoms: N_5  and  C_7 
REMARK    3  A    between atoms: C_15  and  C_16 
REMARK       I    between atoms: C_16  and  N_18 
REMARK    4  A    between atoms: N_18  and  C_20 
ROOT
HETATM    1  C   UNL     1       9.184   0.425  21.812  1.00  0.00     0.109 C 
HETATM    2  C   UNL     1       8.062  -0.003  21.387  1.00  0.00    -0.008 A 
HETATM    3  C   UNL     1       7.031   0.138  20.717  1.00  0.00     0.058 A 
HETATM    4  C   UNL     1       5.824   1.404  20.839  1.00  0.00    -0.003 C 
HETATM    5  C   UNL     1       5.330   1.719  19.984  1.00  0.00    -0.002 C 
HETATM    6  C   UNL     1       5.403   1.461  18.615  1.00  0.00    -0.001 C 
HETATM    7  C   UNL     1       6.569   0.572  18.328  1.00  0.00    -0.002 C 
HETATM    8  C   UNL     1       7.216   0.108  18.919  1.00  0.00    -0.003 C 
HETATM    9  C   UNL     1       6.578  -0.905  21.007  1.00  0.00     0.040 A 
ENDROOT
BRANCH   9  10
HETATM   10  C   UNL     1       6.018  -2.109  21.352  1.00  0.00     0.254 C 
HETATM   11  O   UNL     1       5.594  -2.719  20.497  1.00  0.00    -0.268 OA
HETATM   12  N   UNL     1       6.055  -2.305  22.652  1.00  0.00    -0.321 N 
ATOM     13  HN  UNL     1       6.446  -1.590  23.266  1.00  0.00     0.169 HD
BRANCH  12  14
HETATM   14  C   UNL     1       5.608  -3.372  23.135  1.00  0.00     0.056 A 
HETATM   15  C   UNL     1       4.423  -3.971  23.324  1.00  0.00     0.117 A 
HETATM   16  N   UNL     1       3.693  -4.858  23.663  1.00  0.00    -0.373 N 
HETATM   17  C   UNL     1       4.707  -5.664  24.182  1.00  0.00     0.088 A 
ATOM     18  HN  UNL     1       2.682  -4.981  23.594  1.00  0.00     0.164 HD
HETATM   19  C   UNL     1       5.889  -5.481  24.199  1.00  0.00     0.026 A 
HETATM   20  C   UNL     1       6.590  -4.450  23.740  1.00  0.00    -0.033 A 
HETATM   21  C   UNL     1       8.102  -4.257  23.771  1.00  0.00     0.050 C 
ENDBRANCH  12  14
ENDBRANCH   9  10
BRANCH   1  22
HETATM   22  N   UNL     1      10.030   0.545  22.670  1.00  0.00    -0.295 N 
ATOM     23  HN  UNL     1      10.288   1.490  22.958  1.00  0.00     0.177 HD
BRANCH  22  24
HETATM   24  S   UNL     1      10.774  -0.691  23.385  1.00  0.00     0.226 S 
HETATM   25  C   UNL     1       9.822  -1.033  24.776  1.00  0.00     0.186 C 
HETATM   26  O   UNL     1      10.788  -1.876  22.556  1.00  0.00    -0.206 OA
HETATM   27  O   UNL     1      12.073  -0.350  23.835  1.00  0.00    -0.206 OA
ENDBRANCH  22  24
ENDBRANCH   1  22
TORSDOF 4
ENDMDL
MODEL 7
REMARK VINA RESULT:    -6.857      3.235      5.440
REMARK INTER + INTRA:          -9.219
REMARK INTER:                  -8.408
REMARK INTRA:                  -0.811
REMARK UNBOUND:                -0.759
REMARK  4 active torsions:
REMARK  status: ('A' for Active; 'I' for Inactive)
REMARK    1  A    between atoms: S_2  and  N_5 
REMARK    2  A    between atoms: N_5  and  C_7 
REMARK    3  A    between atoms: C_15  and  C_16 
REMARK       I    between atoms: C_16  and  N_18 
REMARK    4  A    between atoms: N_18  and  C_20 
ROOT
HETATM    1  C   UNL     1       5.946  -3.972  26.335  1.00  0.00     0.109 C 
HETATM    2  C   UNL     1       6.582  -3.694  25.266  1.00  0.00    -0.008 A 
HETATM    3  C   UNL     1       6.834  -3.895  24.071  1.00  0.00     0.058 A 
HETATM    4  C   UNL     1       7.409  -5.371  23.318  1.00  0.00    -0.003 C 
HETATM    5  C   UNL     1       7.113  -5.596  22.350  1.00  0.00    -0.002 C 
HETATM    6  C   UNL     1       6.244  -5.056  21.403  1.00  0.00    -0.001 C 
HETATM    7  C   UNL     1       5.485  -3.917  22.001  1.00  0.00    -0.002 C 
HETATM    8  C   UNL     1       5.544  -3.465  22.881  1.00  0.00    -0.003 C 
HETATM    9  C   UNL     1       7.636  -3.042  23.992  1.00  0.00     0.040 A 
ENDROOT
BRANCH   9  10
HETATM   10  C   UNL     1       8.595  -2.066  23.883  1.00  0.00     0.254 C 
HETATM   11  O   UNL     1       9.655  -2.388  24.119  1.00  0.00    -0.268 OA
HETATM   12  N   UNL     1       8.069  -0.908  23.552  1.00  0.00    -0.321 N 
ATOM     13  HN  UNL     1       7.060  -0.819  23.432  1.00  0.00     0.169 HD
BRANCH  12  14
HETATM   14  C   UNL     1       8.812   0.089  23.383  1.00  0.00     0.056 A 
HETATM   15  C   UNL     1       9.501   0.966  24.129  1.00  0.00     0.117 A 
HETATM   16  N   UNL     1      10.239   1.890  24.319  1.00  0.00    -0.373 N 
HETATM   17  C   UNL     1      10.387   2.211  22.969  1.00  0.00     0.088 A 
ATOM     18  HN  UNL     1      10.625   2.298  25.171  1.00  0.00     0.164 HD
HETATM   19  C   UNL     1       9.936   1.668  22.004  1.00  0.00     0.026 A 
HETATM   20  C   UNL     1       9.149   0.600  21.929  1.00  0.00    -0.033 A 
HETATM   21  C   UNL     1       8.600  -0.073  20.675  1.00  0.00     0.050 C 
ENDBRANCH  12  14
ENDBRANCH   9  10
BRANCH   1  22
HETATM   22  N   UNL     1       5.873  -4.096  27.537  1.00  0.00    -0.295 N 
ATOM     23  HN  UNL     1       5.504  -3.313  28.077  1.00  0.00     0.177 HD
BRANCH  22  24
HETATM   24  S   UNL     1       6.320  -5.420  28.338  1.00  0.00     0.226 S 
HETATM   25  C   UNL     1       5.092  -6.575  27.999  1.00  0.00     0.186 C 
HETATM   26  O   UNL     1       7.575  -5.954  27.856  1.00  0.00    -0.206 OA
HETATM   27  O   UNL     1       6.339  -5.220  29.740  1.00  0.00    -0.206 OA
ENDBRANCH  22  24
ENDBRANCH   1  22
TORSDOF 4
ENDMDL
MODEL 8
REMARK VINA RESULT:    -6.743      4.126      8.047
REMARK INTER + INTRA:          -9.078
REMARK INTER:                  -8.381
REMARK INTRA:                  -0.698
REMARK UNBOUND:                -0.759
REMARK  4 active torsions:
REMARK  status: ('A' for Active; 'I' for Inactive)
REMARK    1  A    between atoms: S_2  and  N_5 
REMARK    2  A    between atoms: N_5  and  C_7 
REMARK    3  A    between atoms: C_15  and  C_16 
REMARK       I    between atoms: C_16  and  N_18 
REMARK    4  A    between atoms: N_18  and  C_20 
ROOT
HETATM    1  C   UNL     1       9.118  -2.539  23.710  1.00  0.00     0.109 C 
HETATM    2  C   UNL     1       8.263  -3.441  23.990  1.00  0.00    -0.008 A 
HETATM    3  C   UNL     1       7.355  -4.214  23.660  1.00  0.00     0.058 A 
HETATM    4  C   UNL     1       5.813  -3.823  22.923  1.00  0.00    -0.003 C 
HETATM    5  C   UNL     1       5.383  -4.492  22.258  1.00  0.00    -0.002 C 
HETATM    6  C   UNL     1       5.744  -5.698  21.657  1.00  0.00    -0.001 C 
HETATM    7  C   UNL     1       7.156  -6.037  22.004  1.00  0.00    -0.002 C 
HETATM    8  C   UNL     1       7.815  -5.611  22.610  1.00  0.00    -0.003 C 
HETATM    9  C   UNL     1       7.206  -4.661  24.735  1.00  0.00     0.040 A 
ENDROOT
BRANCH   9  10
HETATM   10  C   UNL     1       6.999  -5.179  25.989  1.00  0.00     0.254 C 
HETATM   11  O   UNL     1       7.931  -5.489  26.555  1.00  0.00    -0.268 OA
HETATM   12  N   UNL     1       5.719  -5.250  26.277  1.00  0.00    -0.321 N 
ATOM     13  HN  UNL     1       5.023  -4.958  25.591  1.00  0.00     0.169 HD
BRANCH  12  14
HETATM   14  C   UNL     1       5.355  -5.677  27.399  1.00  0.00     0.056 A 
HETATM   15  C   UNL     1       5.248  -6.849  28.041  1.00  0.00     0.117 A 
HETATM   16  N   UNL     1       5.015  -7.562  28.975  1.00  0.00    -0.373 N 
HETATM   17  C   UNL     1       4.563  -6.536  29.806  1.00  0.00     0.088 A 
ATOM     18  HN  UNL     1       5.114  -8.568  29.115  1.00  0.00     0.164 HD
HETATM   19  C   UNL     1       4.505  -5.360  29.598  1.00  0.00     0.026 A 
HETATM   20  C   UNL     1       4.845  -4.678  28.509  1.00  0.00    -0.033 A 
HETATM   21  C   UNL     1       4.767  -3.172  28.285  1.00  0.00     0.050 C 
ENDBRANCH  12  14
ENDBRANCH   9  10
BRANCH   1  22
HETATM   22  N   UNL     1       9.743  -1.535  23.971  1.00  0.00    -0.295 N 
ATOM     23  HN  UNL     1       9.464  -0.998  24.793  1.00  0.00     0.177 HD
BRANCH  22  24
HETATM   24  S   UNL     1      10.988  -0.994  23.104  1.00  0.00     0.226 S 
HETATM   25  C   UNL     1      11.807   0.101  24.147  1.00  0.00     0.186 C 
HETATM   26  O   UNL     1      11.913  -2.049  22.756  1.00  0.00    -0.206 OA
HETATM   27  O   UNL     1      10.573  -0.263  21.965  1.00  0.00    -0.206 OA
ENDBRANCH  22  24
ENDBRANCH   1  22
TORSDOF 4
ENDMDL
MODEL 9
REMARK VINA RESULT:    -6.736     23.387     26.839
REMARK INTER + INTRA:          -9.069
REMARK INTER:                  -8.293
REMARK INTRA:                  -0.776
REMARK UNBOUND:                -0.759
REMARK  4 active torsions:
REMARK  status: ('A' for Active; 'I' for Inactive)
REMARK    1  A    between atoms: S_2  and  N_5 
REMARK    2  A    between atoms: N_5  and  C_7 
REMARK    3  A    between atoms: C_15  and  C_16 
REMARK       I    between atoms: C_16  and  N_18 
REMARK    4  A    between atoms: N_18  and  C_20 
ROOT
HETATM    1  C   UNL     1       7.922  14.644   1.959  1.00  0.00     0.109 C 
HETATM    2  C   UNL     1       8.381  15.815   2.165  1.00  0.00    -0.008 A 
HETATM    3  C   UNL     1       8.568  16.984   1.807  1.00  0.00     0.058 A 
HETATM    4  C   UNL     1       9.403  17.559   0.376  1.00  0.00    -0.003 C 
HETATM    5  C   UNL     1       9.085  18.434  -0.080  1.00  0.00    -0.002 C 
HETATM    6  C   UNL     1       8.035  19.339   0.078  1.00  0.00    -0.001 C 
HETATM    7  C   UNL     1       7.087  18.839   1.118  1.00  0.00    -0.002 C 
HETATM    8  C   UNL     1       7.115  18.056   1.726  1.00  0.00    -0.003 C 
HETATM    9  C   UNL     1       9.140  17.299   2.783  1.00  0.00     0.040 A 
ENDROOT
BRANCH   9  10
HETATM   10  C   UNL     1       9.833  17.681   3.904  1.00  0.00     0.254 C 
HETATM   11  O   UNL     1       9.502  17.201   4.875  1.00  0.00    -0.268 OA
HETATM   12  N   UNL     1      10.745  18.585   3.624  1.00  0.00    -0.321 N 
ATOM     13  HN  UNL     1      10.849  18.928   2.669  1.00  0.00     0.169 HD
BRANCH  12  14
HETATM   14  C   UNL     1      11.488  19.024   4.534  1.00  0.00     0.056 A 
HETATM   15  C   UNL     1      12.628  18.682   5.153  1.00  0.00     0.117 A 
HETATM   16  N   UNL     1      13.535  18.827   5.922  1.00  0.00    -0.373 N 
HETATM   17  C   UNL     1      13.035  20.002   6.486  1.00  0.00     0.088 A 
ATOM     18  HN  UNL     1      14.378  18.281   6.102  1.00  0.00     0.164 HD
HETATM   19  C   UNL     1      12.051  20.621   6.205  1.00  0.00     0.026 A 
HETATM   20  C   UNL     1      11.132  20.369   5.279  1.00  0.00    -0.033 A 
HETATM   21  C   UNL     1       9.892  21.190   4.942  1.00  0.00     0.050 C 
ENDBRANCH  12  14
ENDBRANCH   9  10
BRANCH   1  22
HETATM   22  N   UNL     1       7.984  13.438   2.045  1.00  0.00    -0.295 N 
ATOM     23  HN  UNL     1       7.892  12.892   1.187  1.00  0.00     0.177 HD
BRANCH  22  24
HETATM   24  S   UNL     1       8.203  12.640   3.426  1.00  0.00     0.226 S 
HETATM   25  C   UNL     1       6.962  13.217   4.469  1.00  0.00     0.186 C 
HETATM   26  O   UNL     1       8.021  11.214   3.270  1.00  0.00    -0.206 OA
HETATM   27  O   UNL     1       9.444  12.948   4.035  1.00  0.00    -0.206 OA
ENDBRANCH  22  24
ENDBRANCH   1  22
TORSDOF 4
ENDMDL
