stable:False satoms:10 tatoms:24 sratio:0.4166666666666667
  -OEChem-07092417483D

 24 26  0     1  0  0  0  0  0999 V2000
    6.6289   -4.8732   26.4536 C   0  0  0  0  0  0  0  0  0  0  0  0
    8.2171   -4.3145   26.1020 S   0  0  0  0  0  0  0  0  0  0  0  0
    9.0848   -5.4682   26.0257 O   0  0  0  0  0  0  0  0  0  0  0  0
    8.5986   -3.4379   27.1468 O   0  0  0  0  0  0  0  0  0  0  0  0
    8.0834   -3.5570   24.6872 N   0  0  0  0  0  0  0  0  0  0  0  0
    8.9836   -2.9482   24.1544 C   0  0  0  0  0  0  0  0  0  0  0  0
    9.4408   -1.9603   23.4925 C   0  0  0  0  0  0  0  0  0  0  0  0
   10.3281   -1.1301   23.2574 C   0  0  1  0  0  0  0  0  0  0  0  0
   11.0265    0.0491   24.3509 C   0  0  0  0  0  0  0  0  0  0  0  0
   12.0241    0.3109   24.2460 C   0  0  0  0  0  0  0  0  0  0  0  0
   13.1040   -0.0964   23.4616 C   0  0  0  0  0  0  0  0  0  0  0  0
   12.7172   -1.2820   22.6409 C   0  0  0  0  0  0  0  0  0  0  0  0
   11.8536   -1.7538   22.5162 C   0  0  0  0  0  0  0  0  0  0  0  0
    9.7454   -0.6019   22.3858 C   0  0  2  0  0  0  0  0  0  0  0  0
    9.0710    0.0452   21.3815 C   0  0  0  0  0  0  0  0  0  0  0  0
    9.5632    0.9841   20.9817 O   0  0  0  0  0  0  0  0  0  0  0  0
    7.9348   -0.5533   21.0983 N   0  0  0  0  0  0  0  0  0  0  0  0
    7.2058   -0.1048   20.1815 C   0  0  0  0  0  0  0  0  0  0  0  0
    7.2219   -0.0032   18.8436 C   0  0  0  0  0  0  0  0  0  0  0  0
    6.7784    0.2800   17.7680 N   0  0  0  0  0  0  0  0  0  0  0  0
    5.6155    0.8713   18.2642 C   0  0  0  0  0  0  0  0  0  0  0  0
    5.2384    0.9747   19.3944 C   0  0  0  0  0  0  0  0  0  0  0  0
    5.8185    0.5688   20.5177 C   0  0  0  0  0  0  0  0  0  0  0  0
    5.3005    0.7106   21.9449 C   0  0  0  0  0  0  0  0  0  0  0  0
 20 21  2  0  0  0  0
 19 20  1  0  0  0  0
 21 22  1  0  0  0  0
 18 19  2  0  0  0  0
 22 23  2  0  0  0  0
 18 23  1  0  0  0  0
 17 18  1  0  0  0  0
 23 24  1  0  0  0  0
 15 16  2  0  0  0  0
 15 17  1  0  0  0  0
 14 15  1  0  0  0  0
  8 14  1  0  0  0  0
  7 14  1  0  0  0  0
 12 13  1  0  0  0  0
  8 13  1  0  0  0  0
 11 12  2  0  0  0  0
  7  8  1  0  0  0  0
  8  9  1  0  0  0  0
 10 11  1  0  0  0  0
  6  7  2  3  0  0  0
  5  6  1  0  0  0  0
  9 10  2  0  0  0  0
  2  5  1  0  0  0  0
  2  3  2  0  0  0  0
  1  2  1  0  0  0  0
  2  4  2  0  0  0  0
M  END
> <Shapegauss>
-286.743439

$$$$
