stable:True satoms:24 tatoms:24 sratio:1.0
  -OEChem-07092417273D

 24 24  0     1  0  0  0  0  0999 V2000
   10.2847    0.7530   23.6626 H   0  0  0  0  0  0  0  0  0  0  0  0
   10.0131   -1.7077   24.1113 C   0  0  0  0  0  0  0  0  0  0  0  0
   10.5120   -1.4175   22.0337 H   0  0  0  0  0  0  0  0  0  0  0  0
    7.0076   -1.1006   23.6029 H   0  0  0  0  0  0  0  0  0  0  0  0
    8.4318   -1.8033   22.1089 C   0  0  2  0  0  0  0  0  0  0  0  0
    8.9139   -0.8929   20.2830 H   0  0  0  0  0  0  0  0  0  0  0  0
   11.4101   -1.5090   24.4624 N   0  0  0  0  0  0  0  0  0  0  0  0
    8.7062    0.7750   22.8911 H   0  0  0  0  0  0  0  0  0  0  0  0
    8.6996   -2.8419   21.9398 H   0  0  0  0  0  0  0  0  0  0  0  0
    7.0216   -1.8178   22.7790 C   0  0  0  0  0  0  0  0  0  0  0  0
    6.7971   -0.7894   20.6783 C   0  0  0  0  0  0  0  0  0  0  0  0
    9.7054   -1.1256   22.7264 C   0  0  1  0  0  0  0  0  0  0  0  0
    8.1489   -1.1263   20.8880 N   0  0  0  0  0  0  0  0  0  0  0  0
    6.1262   -1.4432   21.7540 N   0  0  0  0  0  0  0  0  0  0  0  0
    6.7666   -2.8076   23.1723 H   0  0  0  0  0  0  0  0  0  0  0  0
    9.4451   -1.1719   24.8758 H   0  0  0  0  0  0  0  0  0  0  0  0
    6.6284    0.3014   20.7200 H   0  0  0  0  0  0  0  0  0  0  0  0
    9.7243    0.4044   22.8057 C   0  0  0  0  0  0  0  0  0  0  0  0
   11.9326   -2.3553   24.5572 H   0  0  0  0  0  0  0  0  0  0  0  0
   11.8526   -0.9228   23.7664 H   0  0  0  0  0  0  0  0  0  0  0  0
    6.4404   -1.1293   19.6904 H   0  0  0  0  0  0  0  0  0  0  0  0
   10.1778    0.8146   21.9075 H   0  0  0  0  0  0  0  0  0  0  0  0
    5.1452   -1.6135   21.7003 H   0  0  0  0  0  0  0  0  0  0  0  0
    9.6929   -2.7629   24.1796 H   0  0  0  0  0  0  0  0  0  0  0  0
 11 21  1  0  0  0  0
  6 13  1  0  0  0  0
 11 17  1  0  0  0  0
 11 13  1  0  0  0  0
 11 14  1  0  0  0  0
  5 13  1  0  0  0  0
 14 23  1  0  0  0  0
 10 14  1  0  0  0  0
 18 22  1  0  0  0  0
  5  9  1  0  0  0  0
  3 12  1  0  0  0  0
  5 12  1  0  0  0  0
  5 10  1  0  0  0  0
 12 18  1  0  0  0  0
  2 12  1  0  0  0  0
 10 15  1  0  0  0  0
  4 10  1  0  0  0  0
  8 18  1  0  0  0  0
  1 18  1  0  0  0  0
  7 20  1  0  0  0  0
  2 24  1  0  0  0  0
  2  7  1  0  0  0  0
  2 16  1  0  0  0  0
  7 19  1  0  0  0  0
M  END
> <Shapegauss>
-80.034012

$$$$
