stable:True satoms:24 tatoms:24 sratio:1.0
  -OEChem-08052415133D

 26 26  0     1  0  0  0  0  0999 V2000
    6.1635    0.1195   19.0357 H   0  0  0  0  0  0  0  0  0  0  0  0
    7.9942    0.6800   20.6680 C   0  0  0  0  0  0  0  0  0  0  0  0
    6.2693   -0.0249   21.7530 H   0  0  0  0  0  0  0  0  0  0  0  0
    6.8287    3.5517   20.4344 H   0  0  0  0  0  0  0  0  0  0  0  0
    6.2912    2.0825   21.9532 C   0  0  2  0  0  0  0  0  0  0  0  0
    4.7068    1.8942   23.1194 H   0  0  0  0  0  0  0  0  0  0  0  0
    8.3283   -0.6942   20.3297 N   0  3  0  0  0  0  0  0  0  0  0  0
    5.3432    1.6143   19.4599 H   0  0  0  0  0  0  0  0  0  0  0  0
    6.8363    1.9089   22.8762 H   0  0  0  0  0  0  0  0  0  0  0  0
    6.6339    3.5397   21.5093 C   0  0  0  0  0  0  0  0  0  0  0  0
    4.3401    3.4740   22.0141 C   0  0  0  0  0  0  0  0  0  0  0  0
    6.5201    0.8047   21.0715 C   0  0  1  0  0  0  0  0  0  0  0  0
    4.8890    2.1872   22.1808 N   0  0  0  0  0  0  0  0  0  0  0  0
    5.4895    4.2994   21.8345 N   0  3  0  0  0  0  0  0  0  0  0  0
    7.5162    3.9281   22.0291 H   0  0  0  0  0  0  0  0  0  0  0  0
    8.1817    1.2544   19.7575 H   0  0  0  0  0  0  0  0  0  0  0  0
    3.6770    3.5330   21.1326 H   0  0  0  0  0  0  0  0  0  0  0  0
    5.6400    0.6360   19.8287 C   0  0  0  0  0  0  0  0  0  0  0  0
    8.9844   -1.0557   20.9921 H   0  0  0  0  0  0  0  0  0  0  0  0
    7.4885   -1.2365   20.3550 H   0  0  0  0  0  0  0  0  0  0  0  0
    3.7364    3.7764   22.8875 H   0  0  0  0  0  0  0  0  0  0  0  0
    4.7499    0.0665   20.0818 H   0  0  0  0  0  0  0  0  0  0  0  0
    5.3102    4.9477   21.0945 H   0  0  0  0  0  0  0  0  0  0  0  0
    8.6561    1.1114   21.4403 H   0  0  0  0  0  0  0  0  0  0  0  0
    8.7263   -0.7296   19.4130 H   0  0  0  0  0  0  0  0  0  0  0  0
    5.6637    4.8007   22.6820 H   0  0  0  0  0  0  0  0  0  0  0  0
 11 21  1  0  0  0  0
  6 13  1  0  0  0  0
 11 17  1  0  0  0  0
 11 13  1  0  0  0  0
 11 14  1  0  0  0  0
  5 13  1  0  0  0  0
 14 23  1  0  0  0  0
 10 14  1  0  0  0  0
 18 22  1  0  0  0  0
  5  9  1  0  0  0  0
  3 12  1  0  0  0  0
  5 12  1  0  0  0  0
  5 10  1  0  0  0  0
 12 18  1  0  0  0  0
  2 12  1  0  0  0  0
 10 15  1  0  0  0  0
  4 10  1  0  0  0  0
  8 18  1  0  0  0  0
  1 18  1  0  0  0  0
  7 20  1  0  0  0  0
  2 24  1  0  0  0  0
  2  7  1  0  0  0  0
  2 16  1  0  0  0  0
  7 19  1  0  0  0  0
  7 25  1  0  0  0  0
 14 26  1  0  0  0  0
M  CHG  2   7   1  14   1
M  END
> <Chemgauss4>
-5.216830

$$$$
