stable:True satoms:24 tatoms:24 sratio:1.0
  -OEChem-08052415133D

 26 26  0     1  0  0  0  0  0999 V2000
  -11.6865   -0.0301  -26.0811 H   0  0  0  0  0  0  0  0  0  0  0  0
  -13.2455   -0.4920  -24.1611 C   0  0  0  0  0  0  0  0  0  0  0  0
  -12.0883    1.2743  -23.7246 H   0  0  0  0  0  0  0  0  0  0  0  0
  -10.9557   -2.3743  -23.2264 H   0  0  0  0  0  0  0  0  0  0  0  0
  -11.2319   -0.3034  -22.6025 C   0  0  2  0  0  0  0  0  0  0  0  0
   -9.9896    1.0345  -21.8461 H   0  0  0  0  0  0  0  0  0  0  0  0
  -14.0991    0.2973  -25.0345 N   0  3  0  0  0  0  0  0  0  0  0  0
  -10.3514   -0.6729  -25.1368 H   0  0  0  0  0  0  0  0  0  0  0  0
  -11.8800    0.0257  -21.7958 H   0  0  0  0  0  0  0  0  0  0  0  0
  -10.8823   -1.7953  -22.3029 C   0  0  0  0  0  0  0  0  0  0  0  0
   -8.8890   -0.5591  -22.1641 C   0  0  0  0  0  0  0  0  0  0  0  0
  -11.9008    0.2069  -23.9272 C   0  0  1  0  0  0  0  0  0  0  0  0
   -9.9446    0.3014  -22.5247 N   0  0  0  0  0  0  0  0  0  0  0  0
   -9.5582   -1.7693  -21.8144 N   0  3  0  0  0  0  0  0  0  0  0  0
  -11.5594   -2.2323  -21.5612 H   0  0  0  0  0  0  0  0  0  0  0  0
  -13.0885   -1.4362  -24.6884 H   0  0  0  0  0  0  0  0  0  0  0  0
   -8.1870   -0.7299  -22.9997 H   0  0  0  0  0  0  0  0  0  0  0  0
  -11.0672    0.1415  -25.2111 C   0  0  0  0  0  0  0  0  0  0  0  0
  -14.9034    0.6097  -24.5292 H   0  0  0  0  0  0  0  0  0  0  0  0
  -13.5748    1.0855  -25.3568 H   0  0  0  0  0  0  0  0  0  0  0  0
   -8.2956   -0.1489  -21.3284 H   0  0  0  0  0  0  0  0  0  0  0  0
  -10.5298    1.0757  -25.3498 H   0  0  0  0  0  0  0  0  0  0  0  0
   -9.0547   -2.5414  -22.2022 H   0  0  0  0  0  0  0  0  0  0  0  0
  -13.7285   -0.7564  -23.2033 H   0  0  0  0  0  0  0  0  0  0  0  0
  -14.3899   -0.2571  -25.8143 H   0  0  0  0  0  0  0  0  0  0  0  0
   -9.5789   -1.8515  -20.8180 H   0  0  0  0  0  0  0  0  0  0  0  0
 11 21  1  0  0  0  0
  6 13  1  0  0  0  0
 11 17  1  0  0  0  0
 11 13  1  0  0  0  0
 11 14  1  0  0  0  0
  5 13  1  0  0  0  0
 14 23  1  0  0  0  0
 10 14  1  0  0  0  0
 18 22  1  0  0  0  0
  5  9  1  0  0  0  0
  3 12  1  0  0  0  0
  5 12  1  0  0  0  0
  5 10  1  0  0  0  0
 12 18  1  0  0  0  0
  2 12  1  0  0  0  0
 10 15  1  0  0  0  0
  4 10  1  0  0  0  0
  8 18  1  0  0  0  0
  1 18  1  0  0  0  0
  7 20  1  0  0  0  0
  2 24  1  0  0  0  0
  2  7  1  0  0  0  0
  2 16  1  0  0  0  0
  7 19  1  0  0  0  0
  7 25  1  0  0  0  0
 14 26  1  0  0  0  0
M  CHG  2   7   1  14   1
M  END
> <Chemgauss4>
-4.756116

$$$$
