stable:False satoms:6 tatoms:24 sratio:0.25
  -OEChem-07092417493D

 24 26  0     1  0  0  0  0  0999 V2000
    6.5544   -4.8745   26.4464 C   0  0  0  0  0  0  0  0  0  0  0  0
    8.2248   -4.3095   26.1226 S   0  0  0  0  0  0  0  0  0  0  0  0
    9.0668   -5.4748   26.1001 O   0  0  0  0  0  0  0  0  0  0  0  0
    8.5620   -3.4345   27.1770 O   0  0  0  0  0  0  0  0  0  0  0  0
    8.1450   -3.5818   24.6944 N   0  0  0  0  0  0  0  0  0  0  0  0
    8.9708   -2.9373   24.1364 C   0  0  0  0  0  0  0  0  0  0  0  0
    9.4432   -1.9755   23.4807 C   0  0  0  0  0  0  0  0  0  0  0  0
   10.3289   -1.1607   23.2212 C   0  0  1  0  0  0  0  0  0  0  0  0
   11.0734    0.0626   24.3097 C   0  0  0  0  0  0  0  0  0  0  0  0
   12.0062    0.3192   24.2614 C   0  0  0  0  0  0  0  0  0  0  0  0
   13.1999   -0.1839   23.4029 C   0  0  0  0  0  0  0  0  0  0  0  0
   12.7389   -1.2607   22.6537 C   0  0  0  0  0  0  0  0  0  0  0  0
   11.8424   -1.7364   22.5167 C   0  0  0  0  0  0  0  0  0  0  0  0
    9.7240   -0.6039   22.3777 C   0  0  1  0  0  0  0  0  0  0  0  0
    9.0527    0.0312   21.3887 C   0  0  0  0  0  0  0  0  0  0  0  0
    9.5233    0.9838   20.9626 O   0  0  0  0  0  0  0  0  0  0  0  0
    7.9169   -0.5720   21.0782 N   0  0  0  0  0  0  0  0  0  0  0  0
    7.1614   -0.1090   20.1758 C   0  0  0  0  0  0  0  0  0  0  0  0
    7.2158   -0.0177   18.8437 C   0  0  0  0  0  0  0  0  0  0  0  0
    6.7824    0.3174   17.7942 N   0  0  0  0  0  0  0  0  0  0  0  0
    5.6257    0.8685   18.2093 C   0  0  0  0  0  0  0  0  0  0  0  0
    5.2630    0.9724   19.3864 C   0  0  0  0  0  0  0  0  0  0  0  0
    5.8420    0.5771   20.5378 C   0  0  0  0  0  0  0  0  0  0  0  0
    5.3201    0.8095   22.0191 C   0  0  0  0  0  0  0  0  0  0  0  0
 20 21  2  0  0  0  0
 19 20  1  0  0  0  0
 21 22  1  0  0  0  0
 18 19  2  0  0  0  0
 22 23  2  0  0  0  0
 18 23  1  0  0  0  0
 17 18  1  0  0  0  0
 23 24  1  0  0  0  0
 15 16  2  0  0  0  0
 15 17  1  0  0  0  0
 14 15  1  0  0  0  0
  8 14  1  0  0  0  0
  7 14  1  0  0  0  0
 12 13  1  0  0  0  0
  8 13  1  0  0  0  0
 11 12  2  0  0  0  0
  7  8  1  0  0  0  0
  8  9  1  0  0  0  0
 10 11  1  0  0  0  0
  6  7  2  3  0  0  0
  5  6  1  0  0  0  0
  9 10  2  0  0  0  0
  2  5  1  0  0  0  0
  2  3  2  0  0  0  0
  1  2  1  0  0  0  0
  2  4  2  0  0  0  0
M  END
> <Shapegauss>
-286.340637

$$$$
