stable:False satoms:6 tatoms:24 sratio:0.25
  -OEChem-08062416203D

 43 45  0     1  0  0  0  0  0999 V2000
   -6.3057   -5.1563  -26.2303 C   0  0  0  0  0  0  0  0  0  0  0  0
   -7.9807   -4.5442  -26.0458 S   0  0  0  0  0  0  0  0  0  0  0  0
   -8.8486   -5.6904  -26.0286 O   0  0  0  0  0  0  0  0  0  0  0  0
   -8.2267   -3.7120  -27.1585 O   0  0  0  0  0  0  0  0  0  0  0  0
   -7.9799   -3.7534  -24.6493 N   0  0  0  0  0  0  0  0  0  0  0  0
   -8.8262   -3.0678  -24.1777 C   0  0  0  0  0  0  0  0  0  0  0  0
   -9.3194   -2.0678  -23.5990 C   0  0  0  0  0  0  0  0  0  0  0  0
  -10.2017   -1.2247  -23.4366 C   0  0  1  0  0  0  0  0  0  0  0  0
  -10.8438   -0.0382  -24.6263 C   0  0  0  0  0  0  0  0  0  0  0  0
  -11.7716    0.2387  -24.6528 C   0  0  0  0  0  0  0  0  0  0  0  0
  -13.0311   -0.2008  -23.8556 C   0  0  0  0  0  0  0  0  0  0  0  0
  -12.6458   -1.2510  -23.0297 C   0  0  0  0  0  0  0  0  0  0  0  0
  -11.7715   -1.7375  -22.8113 C   0  0  0  0  0  0  0  0  0  0  0  0
   -9.6419   -0.6417  -22.5796 C   0  0  1  0  0  0  0  0  0  0  0  0
   -9.0239    0.0247  -21.5766 C   0  0  0  0  0  0  0  0  0  0  0  0
   -9.5001    1.0050  -21.2262 O   0  0  0  0  0  0  0  0  0  0  0  0
   -7.9254   -0.5859  -21.1634 N   0  0  0  0  0  0  0  0  0  0  0  0
   -7.2215   -0.0969  -20.2334 C   0  0  0  0  0  0  0  0  0  0  0  0
   -7.3627    0.0565  -18.9134 C   0  0  0  0  0  0  0  0  0  0  0  0
   -6.9928    0.4308  -17.8529 N   0  0  0  0  0  0  0  0  0  0  0  0
   -5.7987    0.9394  -18.2128 C   0  0  0  0  0  0  0  0  0  0  0  0
   -5.3560    0.9820  -19.3660 C   0  0  0  0  0  0  0  0  0  0  0  0
   -5.8656    0.5457  -20.5353 C   0  0  0  0  0  0  0  0  0  0  0  0
   -5.2408    0.6995  -21.9867 C   0  0  0  0  0  0  0  0  0  0  0  0
   -6.2211   -5.7161  -27.1734 H   0  0  0  0  0  0  0  0  0  0  0  0
   -5.6050   -4.3084  -26.2432 H   0  0  0  0  0  0  0  0  0  0  0  0
   -6.0630   -5.8198  -25.3871 H   0  0  0  0  0  0  0  0  0  0  0  0
   -7.1783   -3.1578  -24.7016 H   0  0  0  0  0  0  0  0  0  0  0  0
   -9.7071   -3.6679  -24.3520 H   0  0  0  0  0  0  0  0  0  0  0  0
  -10.1608    0.3866  -25.3470 H   0  0  0  0  0  0  0  0  0  0  0  0
  -11.9711    1.0082  -25.3839 H   0  0  0  0  0  0  0  0  0  0  0  0
  -14.0194    0.2285  -23.9292 H   0  0  0  0  0  0  0  0  0  0  0  0
  -13.4811   -1.6569  -22.4784 H   0  0  0  0  0  0  0  0  0  0  0  0
  -11.6812   -1.7202  -21.7152 H   0  0  0  0  0  0  0  0  0  0  0  0
  -11.9089   -2.7744  -23.1516 H   0  0  0  0  0  0  0  0  0  0  0  0
   -9.1575    0.0084  -23.3231 H   0  0  0  0  0  0  0  0  0  0  0  0
   -7.6479   -1.4456  -21.5922 H   0  0  0  0  0  0  0  0  0  0  0  0
   -8.3171   -0.4033  -18.7034 H   0  0  0  0  0  0  0  0  0  0  0  0
   -5.1762    1.3437  -17.4283 H   0  0  0  0  0  0  0  0  0  0  0  0
   -4.3878    1.4528  -19.4523 H   0  0  0  0  0  0  0  0  0  0  0  0
   -4.6179   -0.1784  -22.2133 H   0  0  0  0  0  0  0  0  0  0  0  0
   -6.0500    0.7760  -22.7279 H   0  0  0  0  0  0  0  0  0  0  0  0
   -4.6216    1.6079  -22.0248 H   0  0  0  0  0  0  0  0  0  0  0  0
 20 21  2  0  0  0  0
 19 20  1  0  0  0  0
 21 22  1  0  0  0  0
 18 19  2  0  0  0  0
 22 23  2  0  0  0  0
 18 23  1  0  0  0  0
 17 18  1  0  0  0  0
 23 24  1  0  0  0  0
 15 16  2  0  0  0  0
 15 17  1  0  0  0  0
 14 15  1  0  0  0  0
  8 14  1  0  0  0  0
  7 14  1  0  0  0  0
 12 13  1  0  0  0  0
  8 13  1  0  0  0  0
 11 12  2  0  0  0  0
  7  8  1  0  0  0  0
  8  9  1  0  0  0  0
 10 11  1  0  0  0  0
  6  7  2  3  0  0  0
  5  6  1  0  0  0  0
  9 10  2  0  0  0  0
  2  5  1  0  0  0  0
  2  3  2  0  0  0  0
  1  2  1  0  0  0  0
  2  4  2  0  0  0  0
  1 25  1  0  0  0  0
  1 26  1  0  0  0  0
  1 27  1  0  0  0  0
  5 28  1  0  0  0  0
  6 29  1  0  0  0  0
  9 30  1  0  0  0  0
 10 31  1  0  0  0  0
 11 32  1  0  0  0  0
 12 33  1  0  0  0  0
 13 34  1  0  0  0  0
 13 35  1  0  0  0  0
 14 36  1  0  0  0  0
 17 37  1  0  0  0  0
 19 38  1  0  0  0  0
 21 39  1  0  0  0  0
 22 40  1  0  0  0  0
 24 41  1  0  0  0  0
 24 42  1  0  0  0  0
 24 43  1  0  0  0  0
M  END
> <Chemgauss4>
-13.275314

$$$$
