MODEL 1
REMARK VINA RESULT:    -6.932      0.000      0.000
REMARK INTER + INTRA:         -10.236
REMARK INTER:                  -9.363
REMARK INTRA:                  -0.873
REMARK UNBOUND:                -0.873
REMARK  6 active torsions:
REMARK  status: ('A' for Active; 'I' for Inactive)
REMARK    1  A    between atoms: S_2  and  N_5 
REMARK    2  A    between atoms: N_5  and  C_7 
REMARK    3  A    between atoms: C_7  and  C_8 
REMARK    4  A    between atoms: C_9  and  C_12 
REMARK    5  A    between atoms: C_13  and  C_14 
REMARK       I    between atoms: C_14  and  N_16 
REMARK    6  A    between atoms: N_16  and  C_18 
ROOT
HETATM    1  C   UNL     1       7.880  -5.081  25.385  1.00  0.00     0.030 A 
HETATM    2  C   UNL     1       7.963  -5.407  23.884  1.00  0.00     0.091 A 
HETATM    3  C   UNL     1       8.270  -4.238  24.405  1.00  0.00     0.039 A 
ENDROOT
BRANCH   3   4
HETATM    4  C   UNL     1       8.708  -2.751  24.071  1.00  0.00     0.254 C 
HETATM    5  O   UNL     1       8.415  -1.824  24.784  1.00  0.00    -0.268 OA
HETATM    6  N   UNL     1       9.377  -2.774  22.992  1.00  0.00    -0.320 N 
ATOM      7  HN  UNL     1       9.680  -3.661  22.591  1.00  0.00     0.169 HD
BRANCH   6   8
HETATM    8  C   UNL     1       9.683  -1.602  22.380  1.00  0.00     0.073 A 
HETATM    9  C   UNL     1       8.929  -0.907  21.514  1.00  0.00     0.119 A 
HETATM   10  N   UNL     1       9.310   0.168  21.010  1.00  0.00    -0.371 N 
HETATM   11  C   UNL     1      10.436   0.385  21.582  1.00  0.00     0.113 A 
ATOM     12  HN  UNL     1       8.838   0.739  20.309  1.00  0.00     0.164 HD
HETATM   13  C   UNL     1      10.792  -0.780  22.534  1.00  0.00     0.077 A 
HETATM   14 CL   UNL     1      12.079  -1.068  23.521  1.00  0.00    -0.080 Cl
ENDBRANCH   6   8
ENDBRANCH   3   4
BRANCH   1  15
HETATM   15  C   UNL     1       7.590  -5.535  26.531  1.00  0.00    -0.022 C 
BRANCH  15  16
HETATM   16  N   UNL     1       7.637  -5.829  27.665  1.00  0.00    -0.236 N 
ATOM     17  HN  UNL     1       8.564  -5.950  28.073  1.00  0.00     0.189 HD
BRANCH  16  18
HETATM   18  S   UNL     1       6.358  -6.061  28.650  1.00  0.00     0.327 S 
HETATM   19 CL   UNL     1       4.916  -5.330  27.602  1.00  0.00     0.042 Cl
HETATM   20  O   UNL     1       6.058  -7.453  28.805  1.00  0.00    -0.188 OA
HETATM   21  O   UNL     1       6.448  -5.313  29.856  1.00  0.00    -0.188 OA
ENDBRANCH  16  18
ENDBRANCH  15  16
ENDBRANCH   1  15
BRANCH   2  22
HETATM   22  C   UNL     1       6.929  -5.419  23.104  1.00  0.00    -0.013 C 
HETATM   23  C   UNL     1       7.181  -5.970  21.895  1.00  0.00    -0.013 C 
HETATM   24  C   UNL     1       6.311  -5.914  21.426  1.00  0.00     0.011 C 
ENDBRANCH   2  22
TORSDOF 6
ENDMDL
MODEL 2
REMARK VINA RESULT:    -6.848      1.593      1.704
REMARK INTER + INTRA:         -10.123
REMARK INTER:                  -9.130
REMARK INTRA:                  -0.993
REMARK UNBOUND:                -0.873
REMARK  6 active torsions:
REMARK  status: ('A' for Active; 'I' for Inactive)
REMARK    1  A    between atoms: S_2  and  N_5 
REMARK    2  A    between atoms: N_5  and  C_7 
REMARK    3  A    between atoms: C_7  and  C_8 
REMARK    4  A    between atoms: C_9  and  C_12 
REMARK    5  A    between atoms: C_13  and  C_14 
REMARK       I    between atoms: C_14  and  N_16 
REMARK    6  A    between atoms: N_16  and  C_18 
ROOT
HETATM    1  C   UNL     1       8.174  -4.928  25.317  1.00  0.00     0.030 A 
HETATM    2  C   UNL     1       8.066  -5.283  23.825  1.00  0.00     0.091 A 
HETATM    3  C   UNL     1       8.396  -4.094  24.279  1.00  0.00     0.039 A 
ENDROOT
BRANCH   3   4
HETATM    4  C   UNL     1       8.728  -2.599  23.864  1.00  0.00     0.254 C 
HETATM    5  O   UNL     1       8.417  -2.151  22.790  1.00  0.00    -0.268 OA
HETATM    6  N   UNL     1       9.329  -2.049  24.838  1.00  0.00    -0.320 N 
ATOM      7  HN  UNL     1       9.375  -2.512  25.745  1.00  0.00     0.169 HD
BRANCH   6   8
HETATM    8  C   UNL     1       9.911  -0.836  24.655  1.00  0.00     0.073 A 
HETATM    9  C   UNL     1       9.525   0.344  25.165  1.00  0.00     0.119 A 
HETATM   10  N   UNL     1      10.138   1.404  24.932  1.00  0.00    -0.371 N 
HETATM   11  C   UNL     1      11.143   1.023  24.235  1.00  0.00     0.113 A 
ATOM     12  HN  UNL     1       9.897   2.351  25.226  1.00  0.00     0.164 HD
HETATM   13  C   UNL     1      11.074  -0.499  23.976  1.00  0.00     0.077 A 
HETATM   14 CL   UNL     1      12.054  -1.543  23.161  1.00  0.00    -0.080 Cl
ENDBRANCH   6   8
ENDBRANCH   3   4
BRANCH   1  15
HETATM   15  C   UNL     1       8.058  -5.366  26.500  1.00  0.00    -0.022 C 
BRANCH  15  16
HETATM   16  N   UNL     1       7.855  -6.060  27.422  1.00  0.00    -0.236 N 
ATOM     17  HN  UNL     1       8.626  -6.652  27.735  1.00  0.00     0.189 HD
BRANCH  16  18
HETATM   18  S   UNL     1       6.455  -6.167  28.252  1.00  0.00     0.327 S 
HETATM   19 CL   UNL     1       5.167  -6.343  26.831  1.00  0.00     0.042 Cl
HETATM   20  O   UNL     1       6.377  -7.386  29.001  1.00  0.00    -0.188 OA
HETATM   21  O   UNL     1       6.152  -4.981  28.976  1.00  0.00    -0.188 OA
ENDBRANCH  16  18
ENDBRANCH  15  16
ENDBRANCH   1  15
BRANCH   2  22
HETATM   22  C   UNL     1       6.937  -5.349  23.193  1.00  0.00    -0.013 C 
HETATM   23  C   UNL     1       7.062  -5.801  21.924  1.00  0.00    -0.013 C 
HETATM   24  C   UNL     1       6.134  -5.802  21.582  1.00  0.00     0.011 C 
ENDBRANCH   2  22
TORSDOF 6
ENDMDL
MODEL 3
REMARK VINA RESULT:    -6.355      4.261      7.639
REMARK INTER + INTRA:          -9.457
REMARK INTER:                  -8.345
REMARK INTRA:                  -1.113
REMARK UNBOUND:                -0.873
REMARK  6 active torsions:
REMARK  status: ('A' for Active; 'I' for Inactive)
REMARK    1  A    between atoms: S_2  and  N_5 
REMARK    2  A    between atoms: N_5  and  C_7 
REMARK    3  A    between atoms: C_7  and  C_8 
REMARK    4  A    between atoms: C_9  and  C_12 
REMARK    5  A    between atoms: C_13  and  C_14 
REMARK       I    between atoms: C_14  and  N_16 
REMARK    6  A    between atoms: N_16  and  C_18 
ROOT
HETATM    1  C   UNL     1       8.588  -0.580  21.182  1.00  0.00     0.030 A 
HETATM    2  C   UNL     1       9.755  -0.602  22.184  1.00  0.00     0.091 A 
HETATM    3  C   UNL     1       8.814  -1.519  22.126  1.00  0.00     0.039 A 
ENDROOT
BRANCH   3   4
HETATM    4  C   UNL     1       8.246  -2.832  22.811  1.00  0.00     0.254 C 
HETATM    5  O   UNL     1       8.819  -3.377  23.720  1.00  0.00    -0.268 OA
HETATM    6  N   UNL     1       7.154  -3.130  22.236  1.00  0.00    -0.320 N 
ATOM      7  HN  UNL     1       6.715  -2.475  21.589  1.00  0.00     0.169 HD
BRANCH   6   8
HETATM    8  C   UNL     1       6.578  -4.332  22.495  1.00  0.00     0.073 A 
HETATM    9  C   UNL     1       6.818  -5.505  21.886  1.00  0.00     0.119 A 
HETATM   10  N   UNL     1       6.230  -6.556  22.208  1.00  0.00    -0.371 N 
HETATM   11  C   UNL     1       5.513  -6.204  23.209  1.00  0.00     0.113 A 
ATOM     12  HN  UNL     1       6.303  -7.477  21.776  1.00  0.00     0.164 HD
HETATM   13  C   UNL     1       5.669  -4.691  23.481  1.00  0.00     0.077 A 
HETATM   14 CL   UNL     1       5.013  -3.680  24.605  1.00  0.00    -0.080 Cl
ENDBRANCH   6   8
ENDBRANCH   3   4
BRANCH   1  15
HETATM   15  C   UNL     1       8.053   0.054  20.227  1.00  0.00    -0.022 C 
BRANCH  15  16
HETATM   16  N   UNL     1       7.293   0.428  19.416  1.00  0.00    -0.236 N 
ATOM     17  HN  UNL     1       7.551   1.262  18.887  1.00  0.00     0.189 HD
BRANCH  16  18
HETATM   18  S   UNL     1       5.859  -0.263  19.056  1.00  0.00     0.327 S 
HETATM   19 CL   UNL     1       4.623   1.156  19.468  1.00  0.00     0.042 Cl
HETATM   20  O   UNL     1       5.726  -0.498  17.649  1.00  0.00    -0.188 OA
HETATM   21  O   UNL     1       5.555  -1.369  19.895  1.00  0.00    -0.188 OA
ENDBRANCH  16  18
ENDBRANCH  15  16
ENDBRANCH   1  15
BRANCH   2  22
HETATM   22  C   UNL     1       9.775   0.114  23.264  1.00  0.00    -0.013 C 
HETATM   23  C   UNL     1      10.857  -0.123  24.040  1.00  0.00    -0.013 C 
HETATM   24  C   UNL     1      10.735   0.491  24.806  1.00  0.00     0.011 C 
ENDBRANCH   2  22
TORSDOF 6
ENDMDL
MODEL 4
REMARK VINA RESULT:    -6.202      4.012      7.484
REMARK INTER + INTRA:          -9.251
REMARK INTER:                  -8.385
REMARK INTRA:                  -0.866
REMARK UNBOUND:                -0.873
REMARK  6 active torsions:
REMARK  status: ('A' for Active; 'I' for Inactive)
REMARK    1  A    between atoms: S_2  and  N_5 
REMARK    2  A    between atoms: N_5  and  C_7 
REMARK    3  A    between atoms: C_7  and  C_8 
REMARK    4  A    between atoms: C_9  and  C_12 
REMARK    5  A    between atoms: C_13  and  C_14 
REMARK       I    between atoms: C_14  and  N_16 
REMARK    6  A    between atoms: N_16  and  C_18 
ROOT
HETATM    1  C   UNL     1       8.149  -1.190  22.485  1.00  0.00     0.030 A 
HETATM    2  C   UNL     1       9.593  -1.719  22.460  1.00  0.00     0.091 A 
HETATM    3  C   UNL     1       8.581  -2.358  23.006  1.00  0.00     0.039 A 
ENDROOT
BRANCH   3   4
HETATM    4  C   UNL     1       8.164  -3.637  23.847  1.00  0.00     0.254 C 
HETATM    5  O   UNL     1       7.790  -4.654  23.319  1.00  0.00    -0.268 OA
HETATM    6  N   UNL     1       8.312  -3.360  25.077  1.00  0.00    -0.320 N 
ATOM      7  HN  UNL     1       8.795  -2.507  25.360  1.00  0.00     0.169 HD
BRANCH   6   8
HETATM    8  C   UNL     1       7.819  -4.214  26.010  1.00  0.00     0.073 A 
HETATM    9  C   UNL     1       8.459  -5.229  26.613  1.00  0.00     0.119 A 
HETATM   10  N   UNL     1       7.907  -5.953  27.464  1.00  0.00    -0.371 N 
HETATM   11  C   UNL     1       6.750  -5.423  27.605  1.00  0.00     0.113 A 
ATOM     12  HN  UNL     1       8.287  -6.774  27.936  1.00  0.00     0.164 HD
HETATM   13  C   UNL     1       6.582  -4.227  26.640  1.00  0.00     0.077 A 
HETATM   14 CL   UNL     1       5.345  -3.176  26.362  1.00  0.00    -0.080 Cl
ENDBRANCH   6   8
ENDBRANCH   3   4
BRANCH   1  15
HETATM   15  C   UNL     1       7.387  -0.236  22.149  1.00  0.00    -0.022 C 
BRANCH  15  16
HETATM   16  N   UNL     1       6.626   0.438  21.565  1.00  0.00    -0.236 N 
ATOM     17  HN  UNL     1       6.026   1.047  22.120  1.00  0.00     0.189 HD
BRANCH  16  18
HETATM   18  S   UNL     1       6.440   0.490  19.945  1.00  0.00     0.327 S 
HETATM   19 CL   UNL     1       5.581  -1.197  19.591  1.00  0.00     0.042 Cl
HETATM   20  O   UNL     1       5.497   1.495  19.554  1.00  0.00    -0.188 OA
HETATM   21  O   UNL     1       7.680   0.507  19.248  1.00  0.00    -0.188 OA
ENDBRANCH  16  18
ENDBRANCH  15  16
ENDBRANCH   1  15
BRANCH   2  22
HETATM   22  C   UNL     1      10.510  -1.314  23.280  1.00  0.00    -0.013 C 
HETATM   23  C   UNL     1      11.765  -1.520  22.820  1.00  0.00    -0.013 C 
HETATM   24  C   UNL     1      12.341  -1.160  23.539  1.00  0.00     0.011 C 
ENDBRANCH   2  22
TORSDOF 6
ENDMDL
MODEL 5
REMARK VINA RESULT:    -6.074      3.784      5.333
REMARK INTER + INTRA:          -9.077
REMARK INTER:                  -8.130
REMARK INTRA:                  -0.947
REMARK UNBOUND:                -0.873
REMARK  6 active torsions:
REMARK  status: ('A' for Active; 'I' for Inactive)
REMARK    1  A    between atoms: S_2  and  N_5 
REMARK    2  A    between atoms: N_5  and  C_7 
REMARK    3  A    between atoms: C_7  and  C_8 
REMARK    4  A    between atoms: C_9  and  C_12 
REMARK    5  A    between atoms: C_13  and  C_14 
REMARK       I    between atoms: C_14  and  N_16 
REMARK    6  A    between atoms: N_16  and  C_18 
ROOT
HETATM    1  C   UNL     1       8.130  -2.347  23.126  1.00  0.00     0.030 A 
HETATM    2  C   UNL     1       9.399  -1.500  23.326  1.00  0.00     0.091 A 
HETATM    3  C   UNL     1       8.522  -1.303  22.365  1.00  0.00     0.039 A 
ENDROOT
BRANCH   3   4
HETATM    4  C   UNL     1       8.199  -0.449  21.067  1.00  0.00     0.254 C 
HETATM    5  O   UNL     1       9.010   0.291  20.572  1.00  0.00    -0.268 OA
HETATM    6  N   UNL     1       7.009  -0.716  20.713  1.00  0.00    -0.320 N 
ATOM      7  HN  UNL     1       6.503  -1.490  21.142  1.00  0.00     0.169 HD
BRANCH   6   8
HETATM    8  C   UNL     1       6.419   0.045  19.755  1.00  0.00     0.073 A 
HETATM    9  C   UNL     1       6.233  -0.263  18.462  1.00  0.00     0.119 A 
HETATM   10  N   UNL     1       5.674   0.515  17.665  1.00  0.00    -0.371 N 
HETATM   11  C   UNL     1       5.316   1.498  18.405  1.00  0.00     0.113 A 
ATOM     12  HN  UNL     1       5.533   0.397  16.661  1.00  0.00     0.164 HD
HETATM   13  C   UNL     1       5.793   1.280  19.859  1.00  0.00     0.077 A 
HETATM   14 CL   UNL     1       5.642   2.175  21.234  1.00  0.00    -0.080 Cl
ENDBRANCH   6   8
ENDBRANCH   3   4
BRANCH   1  15
HETATM   15  C   UNL     1       7.454  -3.323  23.565  1.00  0.00    -0.022 C 
BRANCH  15  16
HETATM   16  N   UNL     1       6.628  -3.968  24.091  1.00  0.00    -0.236 N 
ATOM     17  HN  UNL     1       6.870  -4.388  24.989  1.00  0.00     0.189 HD
BRANCH  16  18
HETATM   18  S   UNL     1       5.128  -4.254  23.518  1.00  0.00     0.327 S 
HETATM   19 CL   UNL     1       4.976  -6.161  23.744  1.00  0.00     0.042 Cl
HETATM   20  O   UNL     1       4.122  -3.682  24.364  1.00  0.00    -0.188 OA
HETATM   21  O   UNL     1       5.002  -3.964  22.132  1.00  0.00    -0.188 OA
ENDBRANCH  16  18
ENDBRANCH  15  16
ENDBRANCH   1  15
BRANCH   2  22
HETATM   22  C   UNL     1      10.575  -1.885  22.942  1.00  0.00    -0.013 C 
HETATM   23  C   UNL     1      11.569  -1.086  23.391  1.00  0.00    -0.013 C 
HETATM   24  C   UNL     1      12.389  -1.505  23.029  1.00  0.00     0.011 C 
ENDBRANCH   2  22
TORSDOF 6
ENDMDL
MODEL 6
REMARK VINA RESULT:    -5.985      3.261      3.920
REMARK INTER + INTRA:          -8.957
REMARK INTER:                  -8.038
REMARK INTRA:                  -0.919
REMARK UNBOUND:                -0.873
REMARK  6 active torsions:
REMARK  status: ('A' for Active; 'I' for Inactive)
REMARK    1  A    between atoms: S_2  and  N_5 
REMARK    2  A    between atoms: N_5  and  C_7 
REMARK    3  A    between atoms: C_7  and  C_8 
REMARK    4  A    between atoms: C_9  and  C_12 
REMARK    5  A    between atoms: C_13  and  C_14 
REMARK       I    between atoms: C_14  and  N_16 
REMARK    6  A    between atoms: N_16  and  C_18 
ROOT
HETATM    1  C   UNL     1       4.704  -6.765  25.773  1.00  0.00     0.030 A 
HETATM    2  C   UNL     1       3.797  -7.041  24.562  1.00  0.00     0.091 A 
HETATM    3  C   UNL     1       4.951  -6.413  24.494  1.00  0.00     0.039 A 
ENDROOT
BRANCH   3   4
HETATM    4  C   UNL     1       5.942  -5.634  23.531  1.00  0.00     0.254 C 
HETATM    5  O   UNL     1       6.337  -6.112  22.498  1.00  0.00    -0.268 OA
HETATM    6  N   UNL     1       6.185  -4.502  24.055  1.00  0.00    -0.320 N 
ATOM      7  HN  UNL     1       5.644  -4.177  24.856  1.00  0.00     0.169 HD
BRANCH   6   8
HETATM    8  C   UNL     1       7.174  -3.732  23.533  1.00  0.00     0.073 A 
HETATM    9  C   UNL     1       8.447  -3.641  23.947  1.00  0.00     0.119 A 
HETATM   10  N   UNL     1       9.278  -2.898  23.389  1.00  0.00    -0.371 N 
HETATM   11  C   UNL     1       8.628  -2.411  22.398  1.00  0.00     0.113 A 
ATOM     12  HN  UNL     1      10.247  -2.721  23.657  1.00  0.00     0.164 HD
HETATM   13  C   UNL     1       7.166  -2.910  22.414  1.00  0.00     0.077 A 
HETATM   14 CL   UNL     1       5.877  -2.636  21.426  1.00  0.00    -0.080 Cl
ENDBRANCH   6   8
ENDBRANCH   3   4
BRANCH   1  15
HETATM   15  C   UNL     1       4.836  -6.907  27.025  1.00  0.00    -0.022 C 
BRANCH  15  16
HETATM   16  N   UNL     1       5.182  -7.284  28.079  1.00  0.00    -0.236 N 
ATOM     17  HN  UNL     1       4.725  -8.119  28.446  1.00  0.00     0.189 HD
BRANCH  16  18
HETATM   18  S   UNL     1       6.328  -6.596  29.014  1.00  0.00     0.327 S 
HETATM   19 CL   UNL     1       5.363  -5.129  29.806  1.00  0.00     0.042 Cl
HETATM   20  O   UNL     1       6.702  -7.448  30.103  1.00  0.00    -0.188 OA
HETATM   21  O   UNL     1       7.405  -6.057  28.258  1.00  0.00    -0.188 OA
ENDBRANCH  16  18
ENDBRANCH  15  16
ENDBRANCH   1  15
BRANCH   2  22
HETATM   22  C   UNL     1       2.752  -6.328  24.283  1.00  0.00    -0.013 C 
HETATM   23  C   UNL     1       2.341  -6.464  23.002  1.00  0.00    -0.013 C 
HETATM   24  C   UNL     1       1.548  -5.876  22.946  1.00  0.00     0.011 C 
ENDBRANCH   2  22
TORSDOF 6
ENDMDL
MODEL 7
REMARK VINA RESULT:    -5.851      4.119      5.961
REMARK INTER + INTRA:          -8.777
REMARK INTER:                  -7.899
REMARK INTRA:                  -0.878
REMARK UNBOUND:                -0.873
REMARK  6 active torsions:
REMARK  status: ('A' for Active; 'I' for Inactive)
REMARK    1  A    between atoms: S_2  and  N_5 
REMARK    2  A    between atoms: N_5  and  C_7 
REMARK    3  A    between atoms: C_7  and  C_8 
REMARK    4  A    between atoms: C_9  and  C_12 
REMARK    5  A    between atoms: C_13  and  C_14 
REMARK       I    between atoms: C_14  and  N_16 
REMARK    6  A    between atoms: N_16  and  C_18 
ROOT
HETATM    1  C   UNL     1       8.674  -1.584  22.929  1.00  0.00     0.030 A 
HETATM    2  C   UNL     1       9.524  -0.850  23.980  1.00  0.00     0.091 A 
HETATM    3  C   UNL     1       8.863  -0.249  23.014  1.00  0.00     0.039 A 
ENDROOT
BRANCH   3   4
HETATM    4  C   UNL     1       8.573   1.149  22.323  1.00  0.00     0.254 C 
HETATM    5  O   UNL     1       9.077   1.459  21.274  1.00  0.00    -0.268 OA
HETATM    6  N   UNL     1       7.760   1.787  23.062  1.00  0.00    -0.320 N 
ATOM      7  HN  UNL     1       7.295   1.321  23.840  1.00  0.00     0.169 HD
BRANCH   6   8
HETATM    8  C   UNL     1       7.520   3.097  22.800  1.00  0.00     0.073 A 
HETATM    9  C   UNL     1       6.488   3.622  22.120  1.00  0.00     0.119 A 
HETATM   10  N   UNL     1       6.364   4.850  21.940  1.00  0.00    -0.371 N 
HETATM   11  C   UNL     1       7.343   5.350  22.597  1.00  0.00     0.113 A 
ATOM     12  HN  UNL     1       5.652   5.339  21.397  1.00  0.00     0.164 HD
HETATM   13  C   UNL     1       8.208   4.229  23.216  1.00  0.00     0.077 A 
HETATM   14 CL   UNL     1       9.568   4.246  24.145  1.00  0.00    -0.080 Cl
ENDBRANCH   6   8
ENDBRANCH   3   4
BRANCH   1  15
HETATM   15  C   UNL     1       8.272  -2.714  22.525  1.00  0.00    -0.022 C 
BRANCH  15  16
HETATM   16  N   UNL     1       7.928  -3.834  22.491  1.00  0.00    -0.236 N 
ATOM     17  HN  UNL     1       8.654  -4.545  22.584  1.00  0.00     0.189 HD
BRANCH  16  18
HETATM   18  S   UNL     1       6.395  -4.361  22.308  1.00  0.00     0.327 S 
HETATM   19 CL   UNL     1       6.668  -6.177  21.726  1.00  0.00     0.042 Cl
HETATM   20  O   UNL     1       5.716  -4.454  23.566  1.00  0.00    -0.188 OA
HETATM   21  O   UNL     1       5.694  -3.670  21.282  1.00  0.00    -0.188 OA
ENDBRANCH  16  18
ENDBRANCH  15  16
ENDBRANCH   1  15
BRANCH   2  22
HETATM   22  C   UNL     1      10.815  -0.766  23.914  1.00  0.00    -0.013 C 
HETATM   23  C   UNL     1      11.327   0.197  24.714  1.00  0.00    -0.013 C 
HETATM   24  C   UNL     1      12.303   0.134  24.562  1.00  0.00     0.011 C 
ENDBRANCH   2  22
TORSDOF 6
ENDMDL
MODEL 8
REMARK VINA RESULT:    -5.728      4.832      7.524
REMARK INTER + INTRA:          -8.611
REMARK INTER:                  -7.680
REMARK INTRA:                  -0.930
REMARK UNBOUND:                -0.873
REMARK  6 active torsions:
REMARK  status: ('A' for Active; 'I' for Inactive)
REMARK    1  A    between atoms: S_2  and  N_5 
REMARK    2  A    between atoms: N_5  and  C_7 
REMARK    3  A    between atoms: C_7  and  C_8 
REMARK    4  A    between atoms: C_9  and  C_12 
REMARK    5  A    between atoms: C_13  and  C_14 
REMARK       I    between atoms: C_14  and  N_16 
REMARK    6  A    between atoms: N_16  and  C_18 
ROOT
HETATM    1  C   UNL     1       4.690  -6.246  25.421  1.00  0.00     0.030 A 
HETATM    2  C   UNL     1       5.344  -5.544  24.219  1.00  0.00     0.091 A 
HETATM    3  C   UNL     1       4.095  -5.956  24.245  1.00  0.00     0.039 A 
ENDROOT
BRANCH   3   4
HETATM    4  C   UNL     1       2.769  -6.113  23.388  1.00  0.00     0.254 C 
HETATM    5  O   UNL     1       2.190  -5.163  22.927  1.00  0.00    -0.268 OA
HETATM    6  N   UNL     1       2.502  -7.352  23.308  1.00  0.00    -0.320 N 
ATOM      7  HN  UNL     1       3.181  -8.048  23.615  1.00  0.00     0.169 HD
BRANCH   6   8
HETATM    8  C   UNL     1       1.299  -7.738  22.809  1.00  0.00     0.073 A 
HETATM    9  C   UNL     1       1.008  -8.080  21.544  1.00  0.00     0.119 A 
HETATM   10  N   UNL     1      -0.138  -8.423  21.193  1.00  0.00    -0.371 N 
HETATM   11  C   UNL     1      -0.800  -8.425  22.290  1.00  0.00     0.113 A 
ATOM     12  HN  UNL     1      -0.470  -8.648  20.255  1.00  0.00     0.164 HD
HETATM   13  C   UNL     1       0.093  -7.955  23.461  1.00  0.00     0.077 A 
HETATM   14 CL   UNL     1      -0.186  -7.752  25.072  1.00  0.00    -0.080 Cl
ENDBRANCH   6   8
ENDBRANCH   3   4
BRANCH   1  15
HETATM   15  C   UNL     1       4.873  -6.672  26.599  1.00  0.00    -0.022 C 
BRANCH  15  16
HETATM   16  N   UNL     1       5.339  -7.182  27.547  1.00  0.00    -0.236 N 
ATOM     17  HN  UNL     1       5.167  -8.181  27.667  1.00  0.00     0.189 HD
BRANCH  16  18
HETATM   18  S   UNL     1       6.237  -6.442  28.690  1.00  0.00     0.327 S 
HETATM   19 CL   UNL     1       5.150  -4.909  29.113  1.00  0.00     0.042 Cl
HETATM   20  O   UNL     1       6.301  -7.217  29.893  1.00  0.00    -0.188 OA
HETATM   21  O   UNL     1       7.484  -5.974  28.194  1.00  0.00    -0.188 OA
ENDBRANCH  16  18
ENDBRANCH  15  16
ENDBRANCH   1  15
BRANCH   2  22
HETATM   22  C   UNL     1       6.119  -6.154  23.379  1.00  0.00    -0.013 C 
HETATM   23  C   UNL     1       6.470  -5.385  22.324  1.00  0.00    -0.013 C 
HETATM   24  C   UNL     1       7.055  -5.975  21.787  1.00  0.00     0.011 C 
ENDBRANCH   2  22
TORSDOF 6
ENDMDL
MODEL 9
REMARK VINA RESULT:    -5.646     26.590     29.188
REMARK INTER + INTRA:          -8.499
REMARK INTER:                  -7.479
REMARK INTRA:                  -1.020
REMARK UNBOUND:                -0.873
REMARK  6 active torsions:
REMARK  status: ('A' for Active; 'I' for Inactive)
REMARK    1  A    between atoms: S_2  and  N_5 
REMARK    2  A    between atoms: N_5  and  C_7 
REMARK    3  A    between atoms: C_7  and  C_8 
REMARK    4  A    between atoms: C_9  and  C_12 
REMARK    5  A    between atoms: C_13  and  C_14 
REMARK       I    between atoms: C_14  and  N_16 
REMARK    6  A    between atoms: N_16  and  C_18 
ROOT
HETATM    1  C   UNL     1       9.655  16.535   4.553  1.00  0.00     0.030 A 
HETATM    2  C   UNL     1       8.494  16.755   3.568  1.00  0.00     0.091 A 
HETATM    3  C   UNL     1       8.938  15.573   3.935  1.00  0.00     0.039 A 
ENDROOT
BRANCH   3   4
HETATM    4  C   UNL     1       8.795  14.010   3.702  1.00  0.00     0.254 C 
HETATM    5  O   UNL     1       9.752  13.300   3.525  1.00  0.00    -0.268 OA
HETATM    6  N   UNL     1       7.559  13.721   3.750  1.00  0.00    -0.320 N 
ATOM      7  HN  UNL     1       6.879  14.410   4.071  1.00  0.00     0.169 HD
BRANCH   6   8
HETATM    8  C   UNL     1       7.156  12.482   3.368  1.00  0.00     0.073 A 
HETATM    9  C   UNL     1       6.961  11.406   4.147  1.00  0.00     0.119 A 
HETATM   10  N   UNL     1       6.584  10.310   3.688  1.00  0.00    -0.371 N 
HETATM   11  C   UNL     1       6.390  10.555   2.445  1.00  0.00     0.113 A 
ATOM     12  HN  UNL     1       6.459   9.428   4.184  1.00  0.00     0.164 HD
HETATM   13  C   UNL     1       6.767  12.018   2.119  1.00  0.00     0.077 A 
HETATM   14 CL   UNL     1       6.738  12.899   0.727  1.00  0.00    -0.080 Cl
ENDBRANCH   6   8
ENDBRANCH   3   4
BRANCH   1  15
HETATM   15  C   UNL     1      10.516  17.105   5.286  1.00  0.00    -0.022 C 
BRANCH  15  16
HETATM   16  N   UNL     1      11.402  17.775   5.660  1.00  0.00    -0.236 N 
ATOM     17  HN  UNL     1      11.655  17.703   6.646  1.00  0.00     0.189 HD
BRANCH  16  18
HETATM   18  S   UNL     1      12.270  18.813   4.747  1.00  0.00     0.327 S 
HETATM   19 CL   UNL     1      10.911  19.570   3.611  1.00  0.00     0.042 Cl
HETATM   20  O   UNL     1      12.776  19.903   5.526  1.00  0.00    -0.188 OA
HETATM   21  O   UNL     1      13.220  18.156   3.919  1.00  0.00    -0.188 OA
ENDBRANCH  16  18
ENDBRANCH  15  16
ENDBRANCH   1  15
BRANCH   2  22
HETATM   22  C   UNL     1       8.671  17.060   2.322  1.00  0.00    -0.013 C 
HETATM   23  C   UNL     1       7.613  17.700   1.775  1.00  0.00    -0.013 C 
HETATM   24  C   UNL     1       7.897  17.868   0.842  1.00  0.00     0.011 C 
ENDBRANCH   2  22
TORSDOF 6
ENDMDL
