REMARK  6 active torsions:
REMARK  status: ('A' for Active; 'I' for Inactive)
REMARK    1  A    between atoms: S_2  and  N_5 
REMARK    2  A    between atoms: N_5  and  C_7 
REMARK    3  A    between atoms: C_7  and  C_8 
REMARK    4  A    between atoms: C_9  and  C_12 
REMARK    5  A    between atoms: C_13  and  C_14 
REMARK       I    between atoms: C_14  and  N_16 
REMARK    6  A    between atoms: N_16  and  C_18 
ROOT
HETATM    1  C   UNL     1       9.419  -1.878  23.547  1.00  0.00     0.030 A 
HETATM    2  C   UNL     1      10.655  -0.964  23.492  1.00  0.00     0.091 A 
HETATM    3  C   UNL     1       9.617  -0.852  22.692  1.00  0.00     0.039 A 
ENDROOT
BRANCH   3   4
HETATM    4  C   UNL     1       9.029  -0.075  21.440  1.00  0.00     0.254 C 
HETATM    5  O   UNL     1       9.551   0.919  21.003  1.00  0.00    -0.268 OA
HETATM    6  N   UNL     1       7.992  -0.695  21.049  1.00  0.00    -0.320 N 
ATOM      7  HN  UNL     1       7.769  -1.617  21.423  1.00  0.00     0.169 HD
BRANCH   6   8
HETATM    8  C   UNL     1       7.184  -0.113  20.126  1.00  0.00     0.073 A 
HETATM    9  C   UNL     1       7.364  -0.057  18.797  1.00  0.00     0.119 A 
HETATM   10  N   UNL     1       6.551   0.505  18.037  1.00  0.00    -0.371 N 
HETATM   11  C   UNL     1       5.604   0.863  18.822  1.00  0.00     0.113 A 
ATOM     12  HN  UNL     1       6.623   0.646  17.029  1.00  0.00     0.164 HD
HETATM   13  C   UNL     1       5.947   0.497  20.284  1.00  0.00     0.077 A 
HETATM   14 CL   UNL     1       5.144   0.700  21.708  1.00  0.00    -0.080 Cl
ENDBRANCH   6   8
ENDBRANCH   3   4
BRANCH   1  15
HETATM   15  C   UNL     1       8.883  -2.864  24.133  1.00  0.00    -0.022 C 
BRANCH  15  16
HETATM   16  N   UNL     1       8.097  -3.598  24.600  1.00  0.00    -0.236 N 
ATOM     17  HN  UNL     1       7.266  -3.802  24.044  1.00  0.00     0.189 HD
BRANCH  16  18
HETATM   18  S   UNL     1       8.210  -4.323  26.057  1.00  0.00     0.327 S 
HETATM   19 CL   UNL     1       6.404  -4.932  26.336  1.00  0.00     0.042 Cl
HETATM   20  O   UNL     1       9.014  -5.507  25.996  1.00  0.00    -0.188 OA
HETATM   21  O   UNL     1       8.534  -3.414  27.101  1.00  0.00    -0.188 OA
ENDBRANCH  16  18
ENDBRANCH  15  16
ENDBRANCH   1  15
BRANCH   2  22
HETATM   22  C   UNL     1      11.767  -1.310  22.924  1.00  0.00    -0.013 C 
HETATM   23  C   UNL     1      12.811  -0.526  23.276  1.00  0.00    -0.013 C 
HETATM   24  C   UNL     1      13.573  -0.912  22.777  1.00  0.00     0.011 C 
ENDBRANCH   2  22
TORSDOF 6
