MODEL 1
REMARK VINA RESULT:    -5.305      0.000      0.000
REMARK INTER + INTRA:          -6.864
REMARK INTER:                  -6.546
REMARK INTRA:                  -0.318
REMARK UNBOUND:                -0.318
REMARK  4 active torsions:
REMARK  status: ('A' for Active; 'I' for Inactive)
REMARK    1  A    between atoms: C_1  and  O_8 
REMARK    2  A    between atoms: C_6  and  C_12 
REMARK    3  A    between atoms: C_7  and  O_8 
REMARK    4  A    between atoms: C_7  and  C_12 
ROOT
HETATM    1  C   UNL     1       6.752   0.231  18.678  1.00  0.00     0.051 A 
HETATM    2  C   UNL     1       4.690   1.692  19.612  1.00  0.00     0.077 A 
HETATM    3  N   UNL     1       4.941   1.761  18.310  1.00  0.00    -0.356 N 
ATOM      4  HN  UNL     1       4.408   2.371  17.691  1.00  0.00     0.166 HD
HETATM    5  C   UNL     1       6.439   0.272  20.026  1.00  0.00     0.087 A 
HETATM    6  C   UNL     1       5.924   0.992  17.857  1.00  0.00     0.092 A 
HETATM    7  N   UNL     1       5.431   1.007  20.476  1.00  0.00    -0.343 N 
ATOM      8  HN  UNL     1       5.227   1.046  21.475  1.00  0.00     0.167 HD
HETATM    9  C   UNL     1       3.500   2.413  20.155  1.00  0.00     0.089 C 
ENDROOT
BRANCH   5  10
HETATM   10  C   UNL     1       7.228  -0.521  21.018  1.00  0.00     0.220 C 
HETATM   11  O   UNL     1       6.776  -1.463  21.657  1.00  0.00    -0.284 OA
BRANCH  10  12
HETATM   12  C   UNL     1       8.542  -0.017  21.139  1.00  0.00     0.192 C 
BRANCH  12  13
HETATM   13  O   UNL     1       8.684   1.313  21.112  1.00  0.00    -0.351 OA
BRANCH  13  14
HETATM   14  C   UNL     1       9.394   1.955  22.080  1.00  0.00     0.157 A 
HETATM   15  O   UNL     1      10.799   2.547  21.647  1.00  0.00     0.000 OA
HETATM   16  H   UNL     1      10.737   2.632  20.684  1.00  0.00     0.000 HD
HETATM   17  C   UNL     1      10.759   1.514  22.546  1.00  0.00     0.037 A 
ENDBRANCH  13  14
ENDBRANCH  12  13
ENDBRANCH  10  12
ENDBRANCH   5  10
TORSDOF 4
ENDMDL
MODEL 2
REMARK VINA RESULT:    -4.980     19.613     20.829
REMARK INTER + INTRA:          -6.463
REMARK INTER:                  -6.249
REMARK INTRA:                  -0.214
REMARK UNBOUND:                -0.318
REMARK  4 active torsions:
REMARK  status: ('A' for Active; 'I' for Inactive)
REMARK    1  A    between atoms: C_1  and  O_8 
REMARK    2  A    between atoms: C_6  and  C_12 
REMARK    3  A    between atoms: C_7  and  O_8 
REMARK    4  A    between atoms: C_7  and  C_12 
ROOT
HETATM    1  C   UNL     1       6.369  12.645   2.157  1.00  0.00     0.051 A 
HETATM    2  C   UNL     1       5.337  10.174   2.462  1.00  0.00     0.077 A 
HETATM    3  N   UNL     1       4.671  11.018   1.683  1.00  0.00    -0.356 N 
ATOM      4  HN  UNL     1       3.783  10.763   1.249  1.00  0.00     0.166 HD
HETATM    5  C   UNL     1       6.956  11.706   2.989  1.00  0.00     0.087 A 
HETATM    6  C   UNL     1       5.221  12.212   1.498  1.00  0.00     0.092 A 
HETATM    7  N   UNL     1       6.431  10.499   3.143  1.00  0.00    -0.343 N 
ATOM      8  HN  UNL     1       6.861   9.827   3.778  1.00  0.00     0.167 HD
HETATM    9  C   UNL     1       4.850   8.768   2.583  1.00  0.00     0.089 C 
ENDROOT
BRANCH   5  10
HETATM   10  C   UNL     1       8.211  12.028   3.736  1.00  0.00     0.220 C 
HETATM   11  O   UNL     1       8.760  11.260   4.516  1.00  0.00    -0.284 OA
BRANCH  10  12
HETATM   12  C   UNL     1       8.651  13.339   3.447  1.00  0.00     0.192 C 
BRANCH  12  13
HETATM   13  O   UNL     1       9.836  13.704   3.952  1.00  0.00    -0.351 OA
BRANCH  13  14
HETATM   14  C   UNL     1      10.379  14.913   3.645  1.00  0.00     0.157 A 
HETATM   15  O   UNL     1      11.881  15.146   4.095  1.00  0.00     0.000 OA
HETATM   16  H   UNL     1      12.238  14.252   4.209  1.00  0.00     0.000 HD
HETATM   17  C   UNL     1      10.888  15.887   4.678  1.00  0.00     0.037 A 
ENDBRANCH  13  14
ENDBRANCH  12  13
ENDBRANCH  10  12
ENDBRANCH   5  10
TORSDOF 4
ENDMDL
MODEL 3
REMARK VINA RESULT:    -4.933      2.999      5.663
REMARK INTER + INTRA:          -6.405
REMARK INTER:                  -6.113
REMARK INTRA:                  -0.291
REMARK UNBOUND:                -0.318
REMARK  4 active torsions:
REMARK  status: ('A' for Active; 'I' for Inactive)
REMARK    1  A    between atoms: C_1  and  O_8 
REMARK    2  A    between atoms: C_6  and  C_12 
REMARK    3  A    between atoms: C_7  and  O_8 
REMARK    4  A    between atoms: C_7  and  C_12 
ROOT
HETATM    1  C   UNL     1       8.685  -1.583  22.069  1.00  0.00     0.051 A 
HETATM    2  C   UNL     1       9.983  -0.403  24.114  1.00  0.00     0.077 A 
HETATM    3  N   UNL     1       9.836  -1.722  24.169  1.00  0.00    -0.356 N 
ATOM      4  HN  UNL     1      10.161  -2.266  24.968  1.00  0.00     0.166 HD
HETATM    5  C   UNL     1       8.845  -0.209  22.135  1.00  0.00     0.087 A 
HETATM    6  C   UNL     1       9.245  -2.294  23.127  1.00  0.00     0.092 A 
HETATM    7  N   UNL     1       9.472   0.361  23.155  1.00  0.00    -0.343 N 
ATOM      8  HN  UNL     1       9.561   1.376  23.203  1.00  0.00     0.167 HD
HETATM    9  C   UNL     1      10.776   0.278  25.181  1.00  0.00     0.089 C 
ENDROOT
BRANCH   5  10
HETATM   10  C   UNL     1       8.319   0.674  21.050  1.00  0.00     0.220 C 
HETATM   11  O   UNL     1       8.312   1.897  21.105  1.00  0.00    -0.284 OA
BRANCH  10  12
HETATM   12  C   UNL     1       7.805  -0.091  19.979  1.00  0.00     0.192 C 
BRANCH  12  13
HETATM   13  O   UNL     1       7.431   0.580  18.883  1.00  0.00    -0.351 OA
BRANCH  13  14
HETATM   14  C   UNL     1       6.152   0.505  18.425  1.00  0.00     0.157 A 
HETATM   15  O   UNL     1       5.571   1.810  17.739  1.00  0.00     0.000 OA
HETATM   16  H   UNL     1       6.357   2.311  17.473  1.00  0.00     0.000 HD
HETATM   17  C   UNL     1       5.034   1.386  18.925  1.00  0.00     0.037 A 
ENDBRANCH  13  14
ENDBRANCH  12  13
ENDBRANCH  10  12
ENDBRANCH   5  10
TORSDOF 4
ENDMDL
MODEL 4
REMARK VINA RESULT:    -4.904     23.516     25.022
REMARK INTER + INTRA:          -6.369
REMARK INTER:                  -6.124
REMARK INTRA:                  -0.245
REMARK UNBOUND:                -0.318
REMARK  4 active torsions:
REMARK  status: ('A' for Active; 'I' for Inactive)
REMARK    1  A    between atoms: C_1  and  O_8 
REMARK    2  A    between atoms: C_6  and  C_12 
REMARK    3  A    between atoms: C_7  and  O_8 
REMARK    4  A    between atoms: C_7  and  C_12 
ROOT
HETATM    1  C   UNL     1       8.117  18.399   0.052  1.00  0.00     0.051 A 
HETATM    2  C   UNL     1      10.165  19.575   1.352  1.00  0.00     0.077 A 
HETATM    3  N   UNL     1       9.701  20.189   0.269  1.00  0.00    -0.356 N 
ATOM      4  HN  UNL     1      10.124  21.046  -0.085  1.00  0.00     0.166 HD
HETATM    5  C   UNL     1       8.709  17.816   1.160  1.00  0.00     0.087 A 
HETATM    6  C   UNL     1       8.656  19.626  -0.327  1.00  0.00     0.092 A 
HETATM    7  N   UNL     1       9.726  18.397   1.781  1.00  0.00    -0.343 N 
ATOM      8  HN  UNL     1      10.168  17.943   2.581  1.00  0.00     0.167 HD
HETATM    9  C   UNL     1      11.236  20.239   2.153  1.00  0.00     0.089 C 
ENDROOT
BRANCH   5  10
HETATM   10  C   UNL     1       8.211  16.511   1.693  1.00  0.00     0.220 C 
HETATM   11  O   UNL     1       7.185  16.386   2.349  1.00  0.00    -0.284 OA
BRANCH  10  12
HETATM   12  C   UNL     1       9.097  15.460   1.367  1.00  0.00     0.192 C 
BRANCH  12  13
HETATM   13  O   UNL     1       9.990  15.112   2.301  1.00  0.00    -0.351 OA
BRANCH  13  14
HETATM   14  C   UNL     1       9.601  14.443   3.420  1.00  0.00     0.157 A 
HETATM   15  O   UNL     1       9.771  12.867   3.394  1.00  0.00     0.000 OA
HETATM   16  H   UNL     1      10.438  12.709   2.708  1.00  0.00     0.000 HD
HETATM   17  C   UNL     1       8.510  13.401   3.433  1.00  0.00     0.037 A 
ENDBRANCH  13  14
ENDBRANCH  12  13
ENDBRANCH  10  12
ENDBRANCH   5  10
TORSDOF 4
ENDMDL
MODEL 5
REMARK VINA RESULT:    -4.894      7.729      9.480
REMARK INTER + INTRA:          -6.357
REMARK INTER:                  -6.083
REMARK INTRA:                  -0.273
REMARK UNBOUND:                -0.318
REMARK  4 active torsions:
REMARK  status: ('A' for Active; 'I' for Inactive)
REMARK    1  A    between atoms: C_1  and  O_8 
REMARK    2  A    between atoms: C_6  and  C_12 
REMARK    3  A    between atoms: C_7  and  O_8 
REMARK    4  A    between atoms: C_7  and  C_12 
ROOT
HETATM    1  C   UNL     1       5.328  -5.876  25.515  1.00  0.00     0.051 A 
HETATM    2  C   UNL     1       6.444  -5.768  23.065  1.00  0.00     0.077 A 
HETATM    3  N   UNL     1       5.299  -6.430  23.181  1.00  0.00    -0.356 N 
ATOM      4  HN  UNL     1       4.876  -6.916  22.390  1.00  0.00     0.166 HD
HETATM    5  C   UNL     1       6.547  -5.257  25.295  1.00  0.00     0.087 A 
HETATM    6  C   UNL     1       4.733  -6.426  24.382  1.00  0.00     0.092 A 
HETATM    7  N   UNL     1       7.094  -5.224  24.088  1.00  0.00    -0.343 N 
ATOM      8  HN  UNL     1       8.004  -4.786  23.947  1.00  0.00     0.167 HD
HETATM    9  C   UNL     1       7.048  -5.606  21.709  1.00  0.00     0.089 C 
ENDROOT
BRANCH   5  10
HETATM   10  C   UNL     1       7.282  -4.599  26.419  1.00  0.00     0.220 C 
HETATM   11  O   UNL     1       8.276  -3.900  26.271  1.00  0.00    -0.284 OA
BRANCH  10  12
HETATM   12  C   UNL     1       6.696  -4.919  27.664  1.00  0.00     0.192 C 
BRANCH  12  13
HETATM   13  O   UNL     1       7.223  -5.954  28.331  1.00  0.00    -0.351 OA
BRANCH  13  14
HETATM   14  C   UNL     1       6.482  -6.641  29.243  1.00  0.00     0.157 A 
HETATM   15  O   UNL     1       5.817  -7.988  28.738  1.00  0.00     0.000 OA
HETATM   16  H   UNL     1       6.344  -8.241  27.965  1.00  0.00     0.000 HD
HETATM   17  C   UNL     1       5.012  -6.933  29.074  1.00  0.00     0.037 A 
ENDBRANCH  13  14
ENDBRANCH  12  13
ENDBRANCH  10  12
ENDBRANCH   5  10
TORSDOF 4
ENDMDL
MODEL 6
REMARK VINA RESULT:    -4.866     24.974     26.493
REMARK INTER + INTRA:          -6.322
REMARK INTER:                  -5.949
REMARK INTRA:                  -0.374
REMARK UNBOUND:                -0.318
REMARK  4 active torsions:
REMARK  status: ('A' for Active; 'I' for Inactive)
REMARK    1  A    between atoms: C_1  and  O_8 
REMARK    2  A    between atoms: C_6  and  C_12 
REMARK    3  A    between atoms: C_7  and  O_8 
REMARK    4  A    between atoms: C_7  and  C_12 
ROOT
HETATM    1  C   UNL     1       9.748  20.922   0.234  1.00  0.00     0.051 A 
HETATM    2  C   UNL     1      11.213  20.215   2.382  1.00  0.00     0.077 A 
HETATM    3  N   UNL     1      11.360  21.455   1.929  1.00  0.00    -0.356 N 
ATOM      4  HN  UNL     1      12.029  22.103   2.345  1.00  0.00     0.166 HD
HETATM    5  C   UNL     1       9.709  19.639   0.753  1.00  0.00     0.087 A 
HETATM    6  C   UNL     1      10.590  21.805   0.906  1.00  0.00     0.092 A 
HETATM    7  N   UNL     1      10.446  19.299   1.801  1.00  0.00    -0.343 N 
ATOM      8  HN  UNL     1      10.425  18.343   2.157  1.00  0.00     0.167 HD
HETATM    9  C   UNL     1      11.936  19.812   3.625  1.00  0.00     0.089 C 
ENDROOT
BRANCH   5  10
HETATM   10  C   UNL     1       8.824  18.597   0.147  1.00  0.00     0.220 C 
HETATM   11  O   UNL     1       7.719  18.828  -0.327  1.00  0.00    -0.284 OA
BRANCH  10  12
HETATM   12  C   UNL     1       9.420  17.318   0.226  1.00  0.00     0.192 C 
BRANCH  12  13
HETATM   13  O   UNL     1       9.241  16.638   1.365  1.00  0.00    -0.351 OA
BRANCH  13  14
HETATM   14  C   UNL     1       9.454  15.295   1.412  1.00  0.00     0.157 A 
HETATM   15  O   UNL     1       8.203  14.372   1.099  1.00  0.00     0.000 OA
HETATM   16  H   UNL     1       7.601  14.946   0.601  1.00  0.00     0.000 HD
HETATM   17  C   UNL     1       8.735  14.369   2.361  1.00  0.00     0.037 A 
ENDBRANCH  13  14
ENDBRANCH  12  13
ENDBRANCH  10  12
ENDBRANCH   5  10
TORSDOF 4
ENDMDL
MODEL 7
REMARK VINA RESULT:    -4.755     23.391     24.866
REMARK INTER + INTRA:          -6.185
REMARK INTER:                  -5.642
REMARK INTRA:                  -0.542
REMARK UNBOUND:                -0.318
REMARK  4 active torsions:
REMARK  status: ('A' for Active; 'I' for Inactive)
REMARK    1  A    between atoms: C_1  and  O_8 
REMARK    2  A    between atoms: C_6  and  C_12 
REMARK    3  A    between atoms: C_7  and  O_8 
REMARK    4  A    between atoms: C_7  and  C_12 
ROOT
HETATM    1  C   UNL     1       7.487  16.933   1.894  1.00  0.00     0.051 A 
HETATM    2  C   UNL     1       9.398  15.734   3.367  1.00  0.00     0.077 A 
HETATM    3  N   UNL     1       8.147  15.327   3.550  1.00  0.00    -0.356 N 
ATOM      4  HN  UNL     1       7.907  14.622   4.246  1.00  0.00     0.166 HD
HETATM    5  C   UNL     1       8.815  17.319   1.820  1.00  0.00     0.087 A 
HETATM    6  C   UNL     1       7.225  15.888   2.776  1.00  0.00     0.092 A 
HETATM    7  N   UNL     1       9.744  16.731   2.561  1.00  0.00    -0.343 N 
ATOM      8  HN  UNL     1      10.714  17.043   2.514  1.00  0.00     0.167 HD
HETATM    9  C   UNL     1      10.497  15.032   4.096  1.00  0.00     0.089 C 
ENDROOT
BRANCH   5  10
HETATM   10  C   UNL     1       9.242  18.410   0.891  1.00  0.00     0.220 C 
HETATM   11  O   UNL     1       9.126  18.358  -0.327  1.00  0.00    -0.284 OA
BRANCH  10  12
HETATM   12  C   UNL     1       9.824  19.483   1.603  1.00  0.00     0.192 C 
BRANCH  12  13
HETATM   13  O   UNL     1      11.127  19.379   1.893  1.00  0.00    -0.351 OA
BRANCH  13  14
HETATM   14  C   UNL     1      11.615  19.851   3.072  1.00  0.00     0.157 A 
HETATM   15  O   UNL     1      13.112  19.465   3.420  1.00  0.00     0.000 OA
HETATM   16  H   UNL     1      13.508  19.244   2.563  1.00  0.00     0.000 HD
HETATM   17  C   UNL     1      12.098  18.962   4.191  1.00  0.00     0.037 A 
ENDBRANCH  13  14
ENDBRANCH  12  13
ENDBRANCH  10  12
ENDBRANCH   5  10
TORSDOF 4
ENDMDL
MODEL 8
REMARK VINA RESULT:    -4.717      1.850      2.264
REMARK INTER + INTRA:          -6.137
REMARK INTER:                  -5.835
REMARK INTRA:                  -0.302
REMARK UNBOUND:                -0.318
REMARK  4 active torsions:
REMARK  status: ('A' for Active; 'I' for Inactive)
REMARK    1  A    between atoms: C_1  and  O_8 
REMARK    2  A    between atoms: C_6  and  C_12 
REMARK    3  A    between atoms: C_7  and  O_8 
REMARK    4  A    between atoms: C_7  and  C_12 
ROOT
HETATM    1  C   UNL     1       7.030  -0.018  19.009  1.00  0.00     0.051 A 
HETATM    2  C   UNL     1       4.784   1.397  19.472  1.00  0.00     0.077 A 
HETATM    3  N   UNL     1       4.854   0.727  18.328  1.00  0.00    -0.356 N 
ATOM      4  HN  UNL     1       4.111   0.777  17.630  1.00  0.00     0.166 HD
HETATM    5  C   UNL     1       6.878   0.757  20.146  1.00  0.00     0.087 A 
HETATM    6  C   UNL     1       5.942  -0.010  18.140  1.00  0.00     0.092 A 
HETATM    7  N   UNL     1       5.775   1.461  20.356  1.00  0.00    -0.343 N 
ATOM      8  HN  UNL     1       5.687   2.047  21.187  1.00  0.00     0.167 HD
HETATM    9  C   UNL     1       3.521   2.118  19.809  1.00  0.00     0.089 C 
ENDROOT
BRANCH   5  10
HETATM   10  C   UNL     1       7.957   0.816  21.179  1.00  0.00     0.220 C 
HETATM   11  O   UNL     1       9.075   1.274  20.978  1.00  0.00    -0.284 OA
BRANCH  10  12
HETATM   12  C   UNL     1       7.524   0.246  22.397  1.00  0.00     0.192 C 
BRANCH  12  13
HETATM   13  O   UNL     1       8.408   0.223  23.402  1.00  0.00    -0.351 OA
BRANCH  13  14
HETATM   14  C   UNL     1       8.892  -0.958  23.875  1.00  0.00     0.157 A 
HETATM   15  O   UNL     1      10.469  -1.100  23.934  1.00  0.00     0.000 OA
HETATM   16  H   UNL     1      10.792  -0.186  23.936  1.00  0.00     0.000 HD
HETATM   17  C   UNL     1       9.761  -1.888  23.067  1.00  0.00     0.037 A 
ENDBRANCH  13  14
ENDBRANCH  12  13
ENDBRANCH  10  12
ENDBRANCH   5  10
TORSDOF 4
ENDMDL
MODEL 9
REMARK VINA RESULT:    -4.667      2.240      3.767
REMARK INTER + INTRA:          -6.076
REMARK INTER:                  -5.708
REMARK INTRA:                  -0.368
REMARK UNBOUND:                -0.318
REMARK  4 active torsions:
REMARK  status: ('A' for Active; 'I' for Inactive)
REMARK    1  A    between atoms: C_1  and  O_8 
REMARK    2  A    between atoms: C_6  and  C_12 
REMARK    3  A    between atoms: C_7  and  O_8 
REMARK    4  A    between atoms: C_7  and  C_12 
ROOT
HETATM    1  C   UNL     1       8.218  -0.647  22.670  1.00  0.00     0.051 A 
HETATM    2  C   UNL     1       6.750   0.060  20.524  1.00  0.00     0.077 A 
HETATM    3  N   UNL     1       6.390  -1.044  21.167  1.00  0.00    -0.356 N 
ATOM      4  HN  UNL     1       5.619  -1.628  20.843  1.00  0.00     0.166 HD
HETATM    5  C   UNL     1       8.540   0.456  21.898  1.00  0.00     0.087 A 
HETATM    6  C   UNL     1       7.089  -1.348  22.255  1.00  0.00     0.092 A 
HETATM    7  N   UNL     1       7.819   0.786  20.835  1.00  0.00    -0.343 N 
ATOM      8  HN  UNL     1       8.083   1.587  20.262  1.00  0.00     0.167 HD
HETATM    9  C   UNL     1       5.909   0.538  19.386  1.00  0.00     0.089 C 
ENDROOT
BRANCH   5  10
HETATM   10  C   UNL     1       9.712   1.317  22.247  1.00  0.00     0.220 C 
HETATM   11  O   UNL     1      10.476   1.802  21.423  1.00  0.00    -0.284 OA
BRANCH  10  12
HETATM   12  C   UNL     1       9.833   1.463  23.647  1.00  0.00     0.192 C 
BRANCH  12  13
HETATM   13  O   UNL     1      11.073   1.443  24.151  1.00  0.00    -0.351 OA
BRANCH  13  14
HETATM   14  C   UNL     1      11.576   0.309  24.712  1.00  0.00     0.157 A 
HETATM   15  O   UNL     1      13.117   0.028  24.471  1.00  0.00     0.000 OA
HETATM   16  H   UNL     1      13.487   0.897  24.251  1.00  0.00     0.000 HD
HETATM   17  C   UNL     1      12.192  -0.814  23.914  1.00  0.00     0.037 A 
ENDBRANCH  13  14
ENDBRANCH  12  13
ENDBRANCH  10  12
ENDBRANCH   5  10
TORSDOF 4
ENDMDL
