REMARK  4 active torsions:
REMARK  status: ('A' for Active; 'I' for Inactive)
REMARK    1  A    between atoms: C_1  and  O_8 
REMARK    2  A    between atoms: C_6  and  C_12 
REMARK    3  A    between atoms: C_7  and  O_8 
REMARK    4  A    between atoms: C_7  and  C_12 
ROOT
HETATM    1  C   UNL     1       9.904  -3.336  24.098  1.00  0.00     0.051 A 
HETATM    2  C   UNL     1      11.084  -0.953  23.662  1.00  0.00     0.077 A 
HETATM    3  N   UNL     1      11.788  -1.867  24.320  1.00  0.00    -0.356 N 
ATOM      4  HN  UNL     1      12.719  -1.668  24.685  1.00  0.00     0.166 HD
HETATM    5  C   UNL     1       9.239  -2.297  23.469  1.00  0.00     0.087 A 
HETATM    6  C   UNL     1      11.214  -3.054  24.477  1.00  0.00     0.092 A 
HETATM    7  N   UNL     1       9.825  -1.124  23.274  1.00  0.00    -0.343 N 
ATOM      8  HN  UNL     1       9.314  -0.360  22.831  1.00  0.00     0.167 HD
HETATM    9  C   UNL     1      11.734   0.347  23.319  1.00  0.00     0.089 C 
ENDROOT
BRANCH   5  10
HETATM   10  C   UNL     1       7.836  -2.472  22.983  1.00  0.00     0.220 C 
HETATM   11  O   UNL     1       7.085  -3.361  23.363  1.00  0.00    -0.284 OA
BRANCH  10  12
HETATM   12  C   UNL     1       7.512  -1.500  22.010  1.00  0.00     0.192 C 
BRANCH  12  13
HETATM   13  O   UNL     1       6.518  -1.799  21.165  1.00  0.00    -0.351 OA
BRANCH  13  14
HETATM   14  C   UNL     1       5.644  -0.840  20.754  1.00  0.00     0.157 A 
HETATM   15  O   UNL     1       6.217   0.258  19.765  1.00  0.00     0.000 OA
HETATM   16  H   UNL     1       7.000  -0.158  19.373  1.00  0.00     0.000 HD
HETATM   17  C   UNL     1       5.832   0.632  21.025  1.00  0.00     0.037 A 
ENDBRANCH  13  14
ENDBRANCH  12  13
ENDBRANCH  10  12
ENDBRANCH   5  10
TORSDOF 4
