stable:False satoms:10 tatoms:24 sratio:0.4166666666666667
  -OEChem-07092417473D

 24 24  0     0  0  0  0  0  0999 V2000
    6.5867   -4.7991   26.5052 C   0  0  0  0  0  0  0  0  0  0  0  0
    8.2478   -4.2599   26.1333 S   0  0  0  0  0  0  0  0  0  0  0  0
    9.0478   -5.4620   26.0748 O   0  0  0  0  0  0  0  0  0  0  0  0
    8.6556   -3.3431   27.1399 O   0  0  0  0  0  0  0  0  0  0  0  0
    8.0655   -3.5614   24.7133 N   0  0  0  0  0  0  0  0  0  0  0  0
    8.9614   -2.8828   24.1548 C   0  0  0  0  0  0  0  0  0  0  0  0
    9.4041   -2.0021   23.5927 C   0  0  0  0  0  0  0  0  0  0  0  0
   10.1437   -0.9743   23.3619 C   0  0  0  0  0  0  0  0  0  0  0  0
   11.0689   -0.0092   24.2822 C   0  0  0  0  0  0  0  0  0  0  0  0
   12.0746    0.2042   24.2257 C   0  0  0  0  0  0  0  0  0  0  0  0
   13.1456   -0.3531   23.3183 C   0  0  0  0  0  0  0  0  0  0  0  0
   12.7135   -1.2296   22.6778 C   0  0  0  0  0  0  0  0  0  0  0  0
   12.0117   -1.8693   22.3520 C   0  0  0  0  0  0  0  0  0  0  0  0
    9.7049   -0.5952   22.3942 C   0  0  0  0  0  0  0  0  0  0  0  0
    9.0265    0.0250   21.3590 C   0  0  0  0  0  0  0  0  0  0  0  0
    9.4964    0.9622   20.8966 O   0  0  0  0  0  0  0  0  0  0  0  0
    7.9128   -0.6013   21.1176 N   0  0  0  0  0  0  0  0  0  0  0  0
    7.1707   -0.0898   20.1828 C   0  0  0  0  0  0  0  0  0  0  0  0
    7.2349    0.0127   18.9053 C   0  0  0  0  0  0  0  0  0  0  0  0
    6.8059    0.3337   17.7582 N   0  0  0  0  0  0  0  0  0  0  0  0
    5.7116    0.9071   18.2165 C   0  0  0  0  0  0  0  0  0  0  0  0
    5.2742    0.9975   19.3902 C   0  0  0  0  0  0  0  0  0  0  0  0
    5.8231    0.5726   20.5196 C   0  0  0  0  0  0  0  0  0  0  0  0
    5.2960    0.7269   22.0250 Cl  0  0  0  0  0  0  0  0  0  0  0  0
 20 21  2  0  0  0  0
 19 20  1  0  0  0  0
 21 22  1  0  0  0  0
 18 19  2  0  0  0  0
 22 23  2  0  0  0  0
 18 23  1  0  0  0  0
 17 18  1  0  0  0  0
 23 24  1  0  0  0  0
 15 16  2  0  0  0  0
 15 17  1  0  0  0  0
 14 15  1  0  0  0  0
 12 13  3  0  0  0  0
  8 14  2  3  0  0  0
 11 12  1  0  0  0  0
 10 11  1  0  0  0  0
  7  8  1  0  0  0  0
  8  9  1  0  0  0  0
  6  7  3  0  0  0  0
  5  6  1  0  0  0  0
  9 10  2  0  0  0  0
  2  5  1  0  0  0  0
  2  3  2  0  0  0  0
  1  2  1  0  0  0  0
  2  4  2  0  0  0  0
M  END
> <Shapegauss>
-283.824921

$$$$
