REMARK  9 active torsions:
REMARK  status: ('A' for Active; 'I' for Inactive)
REMARK    1  A    between atoms: S_2  and  N_5 
REMARK    2  A    between atoms: C_7  and  C_8 
REMARK    3  A    between atoms: C_9  and  C_15 
REMARK    4  A    between atoms: C_9  and  C_10 
REMARK    5  A    between atoms: C_10  and  C_11 
REMARK    6  A    between atoms: C_11  and  C_12 
REMARK    7  A    between atoms: C_12  and  C_13 
REMARK    8  A    between atoms: C_15  and  C_16 
REMARK       I    between atoms: C_16  and  N_18 
REMARK    9  A    between atoms: N_18  and  C_20 
ROOT
HETATM    1  C   UNL     1       9.404  -2.002  23.593  1.00  0.00     0.038 C 
HETATM    2  C   UNL     1      10.144  -0.974  23.362  1.00  0.00     0.016 C 
ENDROOT
BRANCH   2   3
HETATM    3  C   UNL     1       9.705  -0.595  22.394  1.00  0.00    -0.044 C 
BRANCH   3   4
HETATM    4  C   UNL     1       9.027   0.025  21.359  1.00  0.00     0.294 C 
HETATM    5  O   UNL     1       9.496   0.962  20.897  1.00  0.00    -0.258 OA
HETATM    6  N   UNL     1       7.913  -0.601  21.118  1.00  0.00    -0.314 N 
ATOM      7  HN  UNL     1       7.640  -1.439  21.630  1.00  0.00     0.170 HD
BRANCH   6   8
HETATM    8  C   UNL     1       7.171  -0.090  20.183  1.00  0.00     0.072 A 
HETATM    9  C   UNL     1       7.235   0.013  18.905  1.00  0.00     0.119 A 
HETATM   10  N   UNL     1       6.806   0.334  17.758  1.00  0.00    -0.373 N 
HETATM   11  C   UNL     1       5.712   0.907  18.216  1.00  0.00     0.089 A 
ATOM     12  HN  UNL     1       7.175   0.198  16.817  1.00  0.00     0.164 HD
HETATM   13  C   UNL     1       5.274   0.998  19.390  1.00  0.00     0.043 A 
HETATM   14  C   UNL     1       5.823   0.573  20.520  1.00  0.00     0.063 A 
HETATM   15 CL   UNL     1       5.296   0.727  22.025  1.00  0.00    -0.082 Cl
ENDBRANCH   6   8
ENDBRANCH   3   4
ENDBRANCH   2   3
BRANCH   2  16
HETATM   16  C   UNL     1      11.069  -0.009  24.282  1.00  0.00     0.020 C 
BRANCH  16  17
HETATM   17  C   UNL     1      12.075   0.204  24.226  1.00  0.00     0.001 C 
BRANCH  17  18
HETATM   18  C   UNL     1      13.146  -0.353  23.318  1.00  0.00    -0.001 C 
BRANCH  18  19
HETATM   19  C   UNL     1      12.713  -1.230  22.678  1.00  0.00    -0.010 C 
HETATM   20  C   UNL     1      12.012  -1.869  22.352  1.00  0.00     0.011 C 
ENDBRANCH  18  19
ENDBRANCH  17  18
ENDBRANCH  16  17
ENDBRANCH   2  16
BRANCH   1  21
HETATM   21  C   UNL     1       8.961  -2.883  24.155  1.00  0.00     0.101 C 
HETATM   22  N   UNL     1       8.066  -3.561  24.713  1.00  0.00    -0.295 N 
ATOM     23  HN  UNL     1       7.173  -3.671  24.232  1.00  0.00     0.177 HD
BRANCH  22  24
HETATM   24  S   UNL     1       8.248  -4.260  26.133  1.00  0.00     0.226 S 
HETATM   25  C   UNL     1       6.587  -4.799  26.505  1.00  0.00     0.186 C 
HETATM   26  O   UNL     1       9.048  -5.462  26.075  1.00  0.00    -0.206 OA
HETATM   27  O   UNL     1       8.656  -3.343  27.140  1.00  0.00    -0.206 OA
ENDBRANCH  22  24
ENDBRANCH   1  21
TORSDOF 9
