stable:False satoms:23 tatoms:24 sratio:0.9583333333333334
  -OEChem-07092417283D

 24 24  0     1  0  0  0  0  0999 V2000
   11.3238   -1.4539   23.8552 H   0  0  0  0  0  0  0  0  0  0  0  0
    8.2900    0.7512   25.4141 H   0  0  0  0  0  0  0  0  0  0  0  0
   11.9054    0.1501   23.3546 H   0  0  0  0  0  0  0  0  0  0  0  0
   10.0652    0.0997   24.5178 C   0  0  0  0  0  0  0  0  0  0  0  0
    9.0371   -2.1698   19.8449 H   0  0  0  0  0  0  0  0  0  0  0  0
    7.8998   -1.5130   21.4832 C   0  0  3  0  0  0  0  0  0  0  0  0
    6.7568   -2.0398   21.0288 O   0  0  0  0  0  0  0  0  0  0  0  0
   10.4846   -1.4585   21.3077 C   0  0  0  0  0  0  0  0  0  0  0  0
    5.3482   -1.6209   22.4714 H   0  0  0  0  0  0  0  0  0  0  0  0
   10.9183   -0.9595   20.4246 H   0  0  0  0  0  0  0  0  0  0  0  0
    8.6946    0.2164   24.5504 C   0  0  0  0  0  0  0  0  0  0  0  0
    5.0609   -3.0373   21.4108 H   0  0  0  0  0  0  0  0  0  0  0  0
    6.7292   -0.4501   24.0697 H   0  0  0  0  0  0  0  0  0  0  0  0
    6.2310   -3.1546   22.7322 H   0  0  0  0  0  0  0  0  0  0  0  0
    8.0053    0.5607   21.7971 H   0  0  0  0  0  0  0  0  0  0  0  0
    9.1703   -3.1670   21.2991 H   0  0  0  0  0  0  0  0  0  0  0  0
    7.7157   -0.2673   23.6764 C   0  0  0  0  0  0  0  0  0  0  0  0
   10.3000   -0.4910   22.2832 O   0  0  0  0  0  0  0  0  0  0  0  0
    5.8100   -2.4753   21.9802 C   0  0  0  0  0  0  0  0  0  0  0  0
   10.6031    0.3875   25.4151 H   0  0  0  0  0  0  0  0  0  0  0  0
    9.1419   -2.1342   20.9426 C   0  0  0  0  0  0  0  0  0  0  0  0
    7.8911   -0.3781   22.3058 C   0  0  0  0  0  0  0  0  0  0  0  0
   10.9987   -0.4641   23.4988 C   0  0  0  0  0  0  0  0  0  0  0  0
   11.2029   -2.2212   21.6327 H   0  0  0  0  0  0  0  0  0  0  0  0
  5 21  1  0  0  0  0
  8 10  1  0  0  0  0
 16 21  1  0  0  0  0
  8 21  1  0  0  0  0
  6 21  1  0  0  0  0
  6  7  1  0  0  0  0
  7 19  1  0  0  0  0
  8 24  1  0  0  0  0
  8 18  1  0  0  0  0
 12 19  1  0  0  0  0
  6 22  1  0  0  0  0
 15 22  1  0  0  0  0
  9 19  1  0  0  0  0
 14 19  1  0  0  0  0
 18 23  1  0  0  0  0
 17 22  2  3  0  0  0
  3 23  1  0  0  0  0
  1 23  1  0  0  0  0
  4 23  1  0  0  0  0
 13 17  1  0  0  0  0
 11 17  1  0  0  0  0
  4 11  2  0  0  0  0
  4 20  1  0  0  0  0
  2 11  1  0  0  0  0
M  END
> <Shapegauss>
-90.174606

$$$$
