stable:False satoms:23 tatoms:24 sratio:0.9583333333333334
  -OEChem-08052414553D

 25 25  0     1  0  0  0  0  0999 V2000
   12.9108   -2.6456   23.8317 H   0  0  0  0  0  0  0  0  0  0  0  0
   13.2225    1.1796   25.1612 H   0  0  0  0  0  0  0  0  0  0  0  0
   13.5189   -1.9137   22.3296 H   0  0  0  0  0  0  0  0  0  0  0  0
   13.3081   -0.5880   24.0443 C   0  0  0  0  0  0  0  0  0  0  0  0
    8.4375   -2.0884   22.6057 H   0  0  0  0  0  0  0  0  0  0  0  0
    9.2490   -0.6612   23.9146 C   0  0  3  0  0  0  0  0  0  0  0  0
    8.0672   -0.3332   24.4497 O   0  0  0  0  0  0  0  0  0  0  0  0
   10.5941   -2.3720   22.5080 C   0  0  0  0  0  0  0  0  0  0  0  0
    8.4893    1.0792   25.8877 H   0  0  0  0  0  0  0  0  0  0  0  0
   10.3986   -2.3950   21.4226 H   0  0  0  0  0  0  0  0  0  0  0  0
   12.6096    0.4193   24.6693 C   0  0  0  0  0  0  0  0  0  0  0  0
    6.9917    0.1132   26.0810 H   0  0  0  0  0  0  0  0  0  0  0  0
   10.8913    1.1926   25.6630 H   0  0  0  0  0  0  0  0  0  0  0  0
    8.5576   -0.6087   26.4757 H   0  0  0  0  0  0  0  0  0  0  0  0
   10.3681    0.8256   22.9415 H   0  0  0  0  0  0  0  0  0  0  0  0
    9.1644   -2.7469   24.0770 H   0  0  0  0  0  0  0  0  0  0  0  0
   11.2335    0.6221   24.8152 C   0  0  0  0  0  0  0  0  0  0  0  0
   11.5852   -1.4290   22.7321 O   0  0  0  0  0  0  0  0  0  0  0  0
    8.0498    0.0877   25.7965 C   0  0  0  0  0  0  0  0  0  0  0  0
   14.3750   -0.6366   24.2359 H   0  0  0  0  0  0  0  0  0  0  0  0
    9.3052   -2.0096   23.2826 C   0  0  0  0  0  0  0  0  0  0  0  0
   10.2953    0.2699   23.8575 C   0  0  0  0  0  0  0  0  0  0  0  0
   12.8679   -1.7411   23.2052 C   0  0  0  0  0  0  0  0  0  0  0  0
   10.9261   -3.3766   22.7975 H   0  0  0  0  0  0  0  0  0  0  0  0
    9.6119   -1.0605   24.8732 H   0  0  0  0  0  0  0  0  0  0  0  0
  5 21  1  0  0  0  0
  8 10  1  0  0  0  0
 16 21  1  0  0  0  0
  8 21  1  0  0  0  0
  6 21  1  0  0  0  0
  6  7  1  0  0  0  0
  7 19  1  0  0  0  0
  8 24  1  0  0  0  0
  8 18  1  0  0  0  0
 12 19  1  0  0  0  0
  6 22  1  0  0  0  0
 15 22  1  0  0  0  0
  9 19  1  0  0  0  0
 14 19  1  0  0  0  0
 18 23  1  0  0  0  0
 17 22  2  3  0  0  0
  3 23  1  0  0  0  0
  1 23  1  0  0  0  0
  4 23  1  0  0  0  0
 13 17  1  0  0  0  0
 11 17  1  0  0  0  0
  4 11  2  0  0  0  0
  4 20  1  0  0  0  0
  2 11  1  0  0  0  0
  6 25  1  0  0  0  0
M  END
> <Chemgauss4>
-5.461158

$$$$
