stable:False satoms:23 tatoms:24 sratio:0.9583333333333334
  -OEChem-08052414543D

 25 25  0     1  0  0  0  0  0999 V2000
  -12.9363   -2.7030  -23.2841 H   0  0  0  0  0  0  0  0  0  0  0  0
  -13.1601    0.8848  -25.1748 H   0  0  0  0  0  0  0  0  0  0  0  0
  -13.3433   -1.7061  -21.8690 H   0  0  0  0  0  0  0  0  0  0  0  0
  -13.2331   -0.6789  -23.7860 C   0  0  0  0  0  0  0  0  0  0  0  0
   -8.3359   -2.2945  -22.5813 H   0  0  0  0  0  0  0  0  0  0  0  0
   -9.1933   -1.0297  -24.0214 C   0  0  3  0  0  0  0  0  0  0  0  0
   -8.0557   -0.8757  -24.7089 O   0  0  0  0  0  0  0  0  0  0  0  0
  -10.4839   -2.4003  -22.2408 C   0  0  0  0  0  0  0  0  0  0  0  0
   -8.5405    0.3260  -26.3094 H   0  0  0  0  0  0  0  0  0  0  0  0
  -10.1796   -2.2705  -21.1884 H   0  0  0  0  0  0  0  0  0  0  0  0
  -12.5451    0.1662  -24.6260 C   0  0  0  0  0  0  0  0  0  0  0  0
   -7.1293   -0.7657  -26.4828 H   0  0  0  0  0  0  0  0  0  0  0  0
  -10.8959    0.6490  -25.8851 H   0  0  0  0  0  0  0  0  0  0  0  0
   -8.7667   -1.4226  -26.6105 H   0  0  0  0  0  0  0  0  0  0  0  0
  -10.1183    0.6673  -23.2000 H   0  0  0  0  0  0  0  0  0  0  0  0
   -9.2472   -3.1161  -23.8547 H   0  0  0  0  0  0  0  0  0  0  0  0
  -11.1818    0.2423  -24.9290 C   0  0  0  0  0  0  0  0  0  0  0  0
  -11.4363   -1.4326  -22.5207 O   0  0  0  0  0  0  0  0  0  0  0  0
   -8.1523   -0.6692  -26.1015 C   0  0  0  0  0  0  0  0  0  0  0  0
  -14.3150   -0.6778  -23.8681 H   0  0  0  0  0  0  0  0  0  0  0  0
   -9.2625   -2.2571  -23.1790 C   0  0  0  0  0  0  0  0  0  0  0  0
  -10.1723   -0.0265  -24.0178 C   0  0  0  0  0  0  0  0  0  0  0  0
  -12.7768   -1.7186  -22.8172 C   0  0  0  0  0  0  0  0  0  0  0  0
  -10.9017   -3.4103  -22.3338 H   0  0  0  0  0  0  0  0  0  0  0  0
   -9.6753   -1.5439  -24.8660 H   0  0  0  0  0  0  0  0  0  0  0  0
  5 21  1  0  0  0  0
  8 10  1  0  0  0  0
 16 21  1  0  0  0  0
  8 21  1  0  0  0  0
  6 21  1  0  0  0  0
  6  7  1  0  0  0  0
  7 19  1  0  0  0  0
  8 24  1  0  0  0  0
  8 18  1  0  0  0  0
 12 19  1  0  0  0  0
  6 22  1  0  0  0  0
 15 22  1  0  0  0  0
  9 19  1  0  0  0  0
 14 19  1  0  0  0  0
 18 23  1  0  0  0  0
 17 22  2  3  0  0  0
  3 23  1  0  0  0  0
  1 23  1  0  0  0  0
  4 23  1  0  0  0  0
 13 17  1  0  0  0  0
 11 17  1  0  0  0  0
  4 11  2  0  0  0  0
  4 20  1  0  0  0  0
  2 11  1  0  0  0  0
  6 25  1  0  0  0  0
M  END
> <Chemgauss4>
-5.408655

$$$$
