REMARK  7 active torsions:
REMARK  status: ('A' for Active; 'I' for Inactive)
REMARK    1  A    between atoms: N_2  and  C_13 
REMARK    2  A    between atoms: N_2  and  O_10 
REMARK    3  A    between atoms: C_5  and  C_8 
REMARK    4  A    between atoms: N_6  and  C_18 
REMARK       I    between atoms: N_6  and  C_8 
REMARK    5  A    between atoms: C_12  and  O_14 
REMARK    6  A    between atoms: C_12  and  C_16 
REMARK    7  A    between atoms: C_16  and  C_18 
ROOT
HETATM    1  N   UNL     1       8.367  -0.281  23.021  1.00  0.00    -0.343 N 
ATOM      2  HN  UNL     1       8.358   0.735  22.929  1.00  0.00     0.164 HD
HETATM    3  C   UNL     1       9.372  -0.750  23.786  1.00  0.00     0.251 C 
HETATM    4  O   UNL     1       9.953  -0.085  24.622  1.00  0.00    -0.268 OA
ENDROOT
BRANCH   3   5
HETATM    5  C   UNL     1       9.685  -2.131  23.568  1.00  0.00     0.045 C 
HETATM    6  C   UNL     1       9.933  -2.863  24.841  1.00  0.00     0.057 C 
HETATM    7  C   UNL     1       9.997  -2.651  22.306  1.00  0.00     0.132 C 
HETATM    8  S   UNL     1       9.708  -2.005  20.732  1.00  0.00    -0.058 SA
BRANCH   7   9
HETATM    9  N   UNL     1      10.639  -3.854  22.491  1.00  0.00    -0.258 N 
ATOM     10  HN  UNL     1      10.181  -4.757  22.368  1.00  0.00     0.195 HD
BRANCH   9  11
HETATM   11  O   UNL     1      11.904  -3.726  22.843  1.00  0.00    -0.289 OA
HETATM   12  H   UNL     1      12.190  -3.005  22.234  1.00  0.00     0.244 HD
ENDBRANCH   9  11
ENDBRANCH   7   9
ENDBRANCH   3   5
BRANCH   1  13
HETATM   13  C   UNL     1       7.380  -0.893  22.360  1.00  0.00     0.159 C 
HETATM   14 BR   UNL     1       6.168  -1.745  23.793  1.00  0.00    -0.069 Br
BRANCH  13  15
HETATM   15  C   UNL     1       6.657   0.122  21.469  1.00  0.00     0.062 C 
BRANCH  15  16
HETATM   16  C   UNL     1       7.742   1.064  20.943  1.00  0.00     0.167 C 
BRANCH  16  17
HETATM   17  O   UNL     1       7.142   1.977  20.077  1.00  0.00    -0.401 OA
HETATM   18  H   UNL     1       6.203   1.961  20.126  1.00  0.00     0.209 HD
ENDBRANCH  16  17
ENDBRANCH  15  16
ENDBRANCH  13  15
ENDBRANCH   1  13
TORSDOF 7
