stable:False satoms:4 tatoms:24 sratio:0.16666666666666666
  -OEChem-08062413143D

 43 45  0     1  0  0  0  0  0999 V2000
   -6.0233   -5.1847  -25.7446 C   0  0  0  0  0  0  0  0  0  0  0  0
   -7.5360   -4.7322  -25.6335 S   0  0  0  0  0  0  0  0  0  0  0  0
   -8.3617   -5.9075  -25.4958 O   0  0  0  0  0  0  0  0  0  0  0  0
   -7.9172   -3.9476  -26.7749 O   0  0  0  0  0  0  0  0  0  0  0  0
   -7.6689   -3.8121  -24.2906 N   0  0  0  0  0  0  0  0  0  0  0  0
   -8.5329   -3.1487  -23.8820 C   0  0  0  0  0  0  0  0  0  0  0  0
   -9.1207   -2.1783  -23.4072 C   0  0  0  0  0  0  0  0  0  0  0  0
  -10.1190   -1.3554  -23.2868 C   0  0  1  0  0  0  0  0  0  0  0  0
  -10.6863   -0.3167  -24.4579 C   0  0  0  0  0  0  0  0  0  0  0  0
  -11.7664   -0.0409  -24.5670 C   0  0  0  0  0  0  0  0  0  0  0  0
  -12.8299   -0.4616  -23.9163 C   0  0  0  0  0  0  0  0  0  0  0  0
  -12.5210   -1.5040  -22.9741 C   0  0  0  0  0  0  0  0  0  0  0  0
  -11.5532   -1.8965  -22.7529 C   0  0  0  0  0  0  0  0  0  0  0  0
   -9.5331   -0.7914  -22.4317 C   0  0  3  0  0  0  0  0  0  0  0  0
   -9.0138    0.0089  -21.4085 C   0  0  0  0  0  0  0  0  0  0  0  0
   -9.6242    0.9291  -21.0813 O   0  0  0  0  0  0  0  0  0  0  0  0
   -7.8688   -0.4862  -21.0028 N   0  0  0  0  0  0  0  0  0  0  0  0
   -7.2808    0.0577  -20.0284 C   0  0  0  0  0  0  0  0  0  0  0  0
   -7.4066    0.2492  -18.7237 C   0  0  0  0  0  0  0  0  0  0  0  0
   -7.1241    0.6108  -17.6182 N   0  0  0  0  0  0  0  0  0  0  0  0
   -5.9497    1.1104  -18.0114 C   0  0  0  0  0  0  0  0  0  0  0  0
   -5.4533    1.1107  -19.0681 C   0  0  0  0  0  0  0  0  0  0  0  0
   -5.8542    0.6640  -20.2745 C   0  0  0  0  0  0  0  0  0  0  0  0
   -5.2941    0.6640  -21.3633 C   0  0  0  0  0  0  0  0  0  0  0  0
   -5.8917   -5.8092  -26.6404 H   0  0  0  0  0  0  0  0  0  0  0  0
   -5.3794   -4.2959  -25.8195 H   0  0  0  0  0  0  0  0  0  0  0  0
   -5.7471   -5.7632  -24.8507 H   0  0  0  0  0  0  0  0  0  0  0  0
   -6.9004   -3.1766  -24.3650 H   0  0  0  0  0  0  0  0  0  0  0  0
   -9.3611   -3.8333  -23.9910 H   0  0  0  0  0  0  0  0  0  0  0  0
   -9.9759    0.1134  -25.1483 H   0  0  0  0  0  0  0  0  0  0  0  0
  -11.9686    0.6924  -25.3337 H   0  0  0  0  0  0  0  0  0  0  0  0
  -13.8236   -0.0683  -24.0721 H   0  0  0  0  0  0  0  0  0  0  0  0
  -13.3530   -1.9332  -22.4357 H   0  0  0  0  0  0  0  0  0  0  0  0
  -11.4778   -1.8550  -21.6562 H   0  0  0  0  0  0  0  0  0  0  0  0
  -11.5954   -2.9464  -23.0780 H   0  0  0  0  0  0  0  0  0  0  0  0
   -9.9891   -1.4544  -21.6818 H   0  0  0  0  0  0  0  0  0  0  0  0
   -7.4688   -1.2815  -21.4583 H   0  0  0  0  0  0  0  0  0  0  0  0
   -8.3685   -0.2084  -18.5455 H   0  0  0  0  0  0  0  0  0  0  0  0
   -5.3712    1.5865  -17.2336 H   0  0  0  0  0  0  0  0  0  0  0  0
   -4.4719    1.5613  -19.0814 H   0  0  0  0  0  0  0  0  0  0  0  0
   -4.7071   -0.2596  -21.4743 H   0  0  0  0  0  0  0  0  0  0  0  0
   -6.0475    0.7177  -22.1630 H   0  0  0  0  0  0  0  0  0  0  0  0
   -4.6247    1.5342  -21.4312 H   0  0  0  0  0  0  0  0  0  0  0  0
 20 21  2  0  0  0  0
 19 20  1  0  0  0  0
 21 22  1  0  0  0  0
 18 19  2  0  0  0  0
 22 23  2  0  0  0  0
 18 23  1  0  0  0  0
 17 18  1  0  0  0  0
 23 24  1  0  0  0  0
 15 16  2  0  0  0  0
 15 17  1  0  0  0  0
 14 15  1  0  0  0  0
  8 14  1  0  0  0  0
  7 14  1  0  0  0  0
 12 13  1  0  0  0  0
  8 13  1  0  0  0  0
 11 12  2  0  0  0  0
  7  8  1  0  0  0  0
  8  9  1  0  0  0  0
 10 11  1  0  0  0  0
  6  7  2  3  0  0  0
  5  6  1  0  0  0  0
  9 10  2  0  0  0  0
  2  5  1  0  0  0  0
  2  3  2  0  0  0  0
  1  2  1  0  0  0  0
  2  4  2  0  0  0  0
  1 25  1  0  0  0  0
  1 26  1  0  0  0  0
  1 27  1  0  0  0  0
  5 28  1  0  0  0  0
  6 29  1  0  0  0  0
  9 30  1  0  0  0  0
 10 31  1  0  0  0  0
 11 32  1  0  0  0  0
 12 33  1  0  0  0  0
 13 34  1  0  0  0  0
 13 35  1  0  0  0  0
 14 36  1  0  0  0  0
 17 37  1  0  0  0  0
 19 38  1  0  0  0  0
 21 39  1  0  0  0  0
 22 40  1  0  0  0  0
 24 41  1  0  0  0  0
 24 42  1  0  0  0  0
 24 43  1  0  0  0  0
M  END
> <Chemgauss4>
-13.299442

$$$$
