stable:False satoms:4 tatoms:24 sratio:0.16666666666666666
  -OEChem-08062413143D

 43 45  0     1  0  0  0  0  0999 V2000
    6.2854   -5.2130   25.8442 C   0  0  0  0  0  0  0  0  0  0  0  0
    7.7981   -4.7605   25.7331 S   0  0  0  0  0  0  0  0  0  0  0  0
    8.6238   -5.9358   25.5955 O   0  0  0  0  0  0  0  0  0  0  0  0
    8.1793   -3.9760   26.8746 O   0  0  0  0  0  0  0  0  0  0  0  0
    7.9310   -3.8404   24.3903 N   0  0  0  0  0  0  0  0  0  0  0  0
    8.7950   -3.1770   23.9817 C   0  0  0  0  0  0  0  0  0  0  0  0
    9.3828   -2.2066   23.5069 C   0  0  0  0  0  0  0  0  0  0  0  0
   10.3811   -1.3837   23.3865 C   0  0  1  0  0  0  0  0  0  0  0  0
   10.9484   -0.3451   24.5576 C   0  0  0  0  0  0  0  0  0  0  0  0
   12.0285   -0.0692   24.6667 C   0  0  0  0  0  0  0  0  0  0  0  0
   13.0919   -0.4899   24.0160 C   0  0  0  0  0  0  0  0  0  0  0  0
   12.7831   -1.5323   23.0738 C   0  0  0  0  0  0  0  0  0  0  0  0
   11.8153   -1.9248   22.8525 C   0  0  0  0  0  0  0  0  0  0  0  0
    9.7952   -0.8197   22.5314 C   0  0  3  0  0  0  0  0  0  0  0  0
    9.2759   -0.0194   21.5081 C   0  0  0  0  0  0  0  0  0  0  0  0
    9.8862    0.9008   21.1810 O   0  0  0  0  0  0  0  0  0  0  0  0
    8.1309   -0.5145   21.1025 N   0  0  0  0  0  0  0  0  0  0  0  0
    7.5429    0.0294   20.1281 C   0  0  0  0  0  0  0  0  0  0  0  0
    7.6687    0.2209   18.8233 C   0  0  0  0  0  0  0  0  0  0  0  0
    7.3862    0.5825   17.7179 N   0  0  0  0  0  0  0  0  0  0  0  0
    6.2118    1.0821   18.1111 C   0  0  0  0  0  0  0  0  0  0  0  0
    5.7154    1.0824   19.1678 C   0  0  0  0  0  0  0  0  0  0  0  0
    6.1162    0.6357   20.3742 C   0  0  0  0  0  0  0  0  0  0  0  0
    5.5562    0.6357   21.4630 C   0  0  0  0  0  0  0  0  0  0  0  0
    6.1538   -5.8376   26.7401 H   0  0  0  0  0  0  0  0  0  0  0  0
    5.6415   -4.3243   25.9192 H   0  0  0  0  0  0  0  0  0  0  0  0
    6.0092   -5.7915   24.9503 H   0  0  0  0  0  0  0  0  0  0  0  0
    7.1625   -3.2049   24.4647 H   0  0  0  0  0  0  0  0  0  0  0  0
    9.6231   -3.8616   24.0907 H   0  0  0  0  0  0  0  0  0  0  0  0
   10.2380    0.0851   25.2480 H   0  0  0  0  0  0  0  0  0  0  0  0
   12.2307    0.6641   25.4334 H   0  0  0  0  0  0  0  0  0  0  0  0
   14.0856   -0.0966   24.1718 H   0  0  0  0  0  0  0  0  0  0  0  0
   13.6151   -1.9615   22.5354 H   0  0  0  0  0  0  0  0  0  0  0  0
   11.7399   -1.8833   21.7559 H   0  0  0  0  0  0  0  0  0  0  0  0
   11.8575   -2.9748   23.1777 H   0  0  0  0  0  0  0  0  0  0  0  0
   10.2512   -1.4827   21.7815 H   0  0  0  0  0  0  0  0  0  0  0  0
    7.7309   -1.3098   21.5580 H   0  0  0  0  0  0  0  0  0  0  0  0
    8.6306   -0.2367   18.6452 H   0  0  0  0  0  0  0  0  0  0  0  0
    5.6333    1.5582   17.3333 H   0  0  0  0  0  0  0  0  0  0  0  0
    4.7340    1.5330   19.1811 H   0  0  0  0  0  0  0  0  0  0  0  0
    4.9691   -0.2879   21.5739 H   0  0  0  0  0  0  0  0  0  0  0  0
    6.3096    0.6894   22.2627 H   0  0  0  0  0  0  0  0  0  0  0  0
    4.8867    1.5059   21.5309 H   0  0  0  0  0  0  0  0  0  0  0  0
 20 21  2  0  0  0  0
 19 20  1  0  0  0  0
 21 22  1  0  0  0  0
 18 19  2  0  0  0  0
 22 23  2  0  0  0  0
 18 23  1  0  0  0  0
 17 18  1  0  0  0  0
 23 24  1  0  0  0  0
 15 16  2  0  0  0  0
 15 17  1  0  0  0  0
 14 15  1  0  0  0  0
  8 14  1  0  0  0  0
  7 14  1  0  0  0  0
 12 13  1  0  0  0  0
  8 13  1  0  0  0  0
 11 12  2  0  0  0  0
  7  8  1  0  0  0  0
  8  9  1  0  0  0  0
 10 11  1  0  0  0  0
  6  7  2  3  0  0  0
  5  6  1  0  0  0  0
  9 10  2  0  0  0  0
  2  5  1  0  0  0  0
  2  3  2  0  0  0  0
  1  2  1  0  0  0  0
  2  4  2  0  0  0  0
  1 25  1  0  0  0  0
  1 26  1  0  0  0  0
  1 27  1  0  0  0  0
  5 28  1  0  0  0  0
  6 29  1  0  0  0  0
  9 30  1  0  0  0  0
 10 31  1  0  0  0  0
 11 32  1  0  0  0  0
 12 33  1  0  0  0  0
 13 34  1  0  0  0  0
 13 35  1  0  0  0  0
 14 36  1  0  0  0  0
 17 37  1  0  0  0  0
 19 38  1  0  0  0  0
 21 39  1  0  0  0  0
 22 40  1  0  0  0  0
 24 41  1  0  0  0  0
 24 42  1  0  0  0  0
 24 43  1  0  0  0  0
M  END
> <Chemgauss4>
-13.254600

$$$$
