stable:False satoms:7 tatoms:24 sratio:0.2916666666666667
  -OEChem-08062415243D

 45 46  0     1  0  0  0  0  0999 V2000
   -6.1960   -5.2348  -26.3014 C   0  0  0  0  0  0  0  0  0  0  0  0
   -7.8193   -4.5391  -26.1794 S   0  0  0  0  0  0  0  0  0  0  0  0
   -8.7396   -5.6445  -26.2250 O   0  0  0  0  0  0  0  0  0  0  0  0
   -7.9834   -3.6397  -27.2853 O   0  0  0  0  0  0  0  0  0  0  0  0
   -7.7907   -3.7818  -24.7611 N   0  0  0  0  0  0  0  0  0  0  0  0
   -8.6960   -3.1232  -24.3334 C   0  0  0  0  0  0  0  0  0  0  0  0
   -9.1486   -2.1368  -23.7857 C   0  0  0  0  0  0  0  0  0  0  0  0
   -9.9759   -1.2313  -23.6622 C   0  0  1  0  0  0  0  0  0  0  0  0
  -10.5071   -0.0588  -24.7873 C   0  0  0  0  0  0  0  0  0  0  0  0
  -11.5409    0.3044  -24.8641 C   0  0  0  0  0  0  0  0  0  0  0  0
  -12.6737   -0.0839  -24.2280 C   0  0  0  0  0  0  0  0  0  0  0  0
  -12.4506   -1.2044  -23.3413 C   0  0  0  0  0  0  0  0  0  0  0  0
  -11.6114   -1.7195  -23.0874 C   0  0  0  0  0  0  0  0  0  0  0  0
   -9.5048   -0.6414  -22.7056 C   0  0  0  0  0  0  0  0  0  0  0  0
   -8.9128   -0.0436  -21.6786 C   0  0  0  0  0  0  0  0  0  0  0  0
   -9.3646    0.9499  -21.3550 O   0  0  0  0  0  0  0  0  0  0  0  0
   -7.8452   -0.7120  -21.2465 N   0  0  0  0  0  0  0  0  0  0  0  0
   -7.2321   -0.2785  -20.2516 C   0  0  0  0  0  0  0  0  0  0  0  0
   -7.4154   -0.1677  -18.9324 C   0  0  0  0  0  0  0  0  0  0  0  0
   -7.0491    0.1773  -17.8394 N   0  0  0  0  0  0  0  0  0  0  0  0
   -5.8722    0.7037  -18.1529 C   0  0  0  0  0  0  0  0  0  0  0  0
   -5.3275    0.7380  -19.2894 C   0  0  0  0  0  0  0  0  0  0  0  0
   -5.7468    0.2998  -20.4880 C   0  0  0  0  0  0  0  0  0  0  0  0
   -5.1041    0.3314  -21.8294 C   0  0  0  0  0  0  0  0  0  0  0  0
   -6.1025   -5.7847  -27.2495 H   0  0  0  0  0  0  0  0  0  0  0  0
   -5.4483   -4.4286  -26.2701 H   0  0  0  0  0  0  0  0  0  0  0  0
   -6.0281   -5.9234  -25.4602 H   0  0  0  0  0  0  0  0  0  0  0  0
   -7.0027   -3.1672  -24.7982 H   0  0  0  0  0  0  0  0  0  0  0  0
   -9.5699   -3.7208  -24.5468 H   0  0  0  0  0  0  0  0  0  0  0  0
   -8.4572   -1.9588  -22.9753 H   0  0  0  0  0  0  0  0  0  0  0  0
   -9.7769    0.3526  -25.4685 H   0  0  0  0  0  0  0  0  0  0  0  0
  -11.6791    1.1111  -25.5688 H   0  0  0  0  0  0  0  0  0  0  0  0
  -13.6341    0.3900  -24.3678 H   0  0  0  0  0  0  0  0  0  0  0  0
  -13.3465   -1.5624  -22.8559 H   0  0  0  0  0  0  0  0  0  0  0  0
  -11.5661   -1.7102  -21.9883 H   0  0  0  0  0  0  0  0  0  0  0  0
  -11.7656   -2.7503  -23.4393 H   0  0  0  0  0  0  0  0  0  0  0  0
  -10.3220   -0.9926  -22.0585 H   0  0  0  0  0  0  0  0  0  0  0  0
   -9.7757    0.3306  -23.1436 H   0  0  0  0  0  0  0  0  0  0  0  0
   -7.5417   -1.5442  -21.7105 H   0  0  0  0  0  0  0  0  0  0  0  0
   -8.3834   -0.6146  -18.7598 H   0  0  0  0  0  0  0  0  0  0  0  0
   -5.3180    1.1540  -17.3427 H   0  0  0  0  0  0  0  0  0  0  0  0
   -4.3519    1.2012  -19.3014 H   0  0  0  0  0  0  0  0  0  0  0  0
   -4.5347   -0.5967  -21.9856 H   0  0  0  0  0  0  0  0  0  0  0  0
   -5.8789    0.4210  -22.6050 H   0  0  0  0  0  0  0  0  0  0  0  0
   -4.4235    1.1935  -21.8895 H   0  0  0  0  0  0  0  0  0  0  0  0
 20 21  2  0  0  0  0
 19 20  1  0  0  0  0
 21 22  1  0  0  0  0
 18 19  2  0  0  0  0
 22 23  2  0  0  0  0
 18 23  1  0  0  0  0
 17 18  1  0  0  0  0
 23 24  1  0  0  0  0
 15 16  2  0  0  0  0
 15 17  1  0  0  0  0
 14 15  1  0  0  0  0
  8 14  1  0  0  0  0
 12 13  1  0  0  0  0
  8 13  1  0  0  0  0
 11 12  2  0  0  0  0
  7  8  1  0  0  0  0
  8  9  1  0  0  0  0
 10 11  1  0  0  0  0
  6  7  2  3  0  0  0
  5  6  1  0  0  0  0
  9 10  2  0  0  0  0
  2  5  1  0  0  0  0
  2  3  2  0  0  0  0
  1  2  1  0  0  0  0
  2  4  2  0  0  0  0
  1 25  1  0  0  0  0
  1 26  1  0  0  0  0
  1 27  1  0  0  0  0
  5 28  1  0  0  0  0
  6 29  1  0  0  0  0
  7 30  1  0  0  0  0
  9 31  1  0  0  0  0
 10 32  1  0  0  0  0
 11 33  1  0  0  0  0
 12 34  1  0  0  0  0
 13 35  1  0  0  0  0
 13 36  1  0  0  0  0
 14 37  1  0  0  0  0
 14 38  1  0  0  0  0
 17 39  1  0  0  0  0
 19 40  1  0  0  0  0
 21 41  1  0  0  0  0
 22 42  1  0  0  0  0
 24 43  1  0  0  0  0
 24 44  1  0  0  0  0
 24 45  1  0  0  0  0
M  END
> <Chemgauss4>
-12.621161

$$$$
