stable:False satoms:7 tatoms:24 sratio:0.2916666666666667
  -OEChem-08062415383D

 47 47  0     1  0  0  0  0  0999 V2000
    6.2344   -5.1598   25.9451 C   0  0  0  0  0  0  0  0  0  0  0  0
    7.8653   -4.6267   25.8008 S   0  0  0  0  0  0  0  0  0  0  0  0
    8.7315   -5.7900   25.7566 O   0  0  0  0  0  0  0  0  0  0  0  0
    8.1571   -3.8086   26.9358 O   0  0  0  0  0  0  0  0  0  0  0  0
    7.9381   -3.7996   24.3971 N   0  0  0  0  0  0  0  0  0  0  0  0
    8.8899   -3.1271   24.0195 C   0  0  0  0  0  0  0  0  0  0  0  0
    9.4164   -2.1671   23.5108 C   0  0  0  0  0  0  0  0  0  0  0  0
   10.2761   -1.2609   23.4200 C   0  0  2  0  0  0  0  0  0  0  0  0
   10.9187   -0.2518   24.5701 C   0  0  0  0  0  0  0  0  0  0  0  0
   12.0038    0.0380   24.6779 C   0  0  0  0  0  0  0  0  0  0  0  0
   13.0722   -0.4174   23.9852 C   0  0  0  0  0  0  0  0  0  0  0  0
   12.7643   -1.4622   23.0396 C   0  0  0  0  0  0  0  0  0  0  0  0
   11.9140   -1.9122   22.7470 C   0  0  0  0  0  0  0  0  0  0  0  0
    9.8794   -0.6387   22.4593 C   0  0  0  0  0  0  0  0  0  0  0  0
    9.3011    0.0155   21.4711 C   0  0  0  0  0  0  0  0  0  0  0  0
    9.8129    0.9946   21.1950 O   0  0  0  0  0  0  0  0  0  0  0  0
    8.2199   -0.5720   20.9735 N   0  0  0  0  0  0  0  0  0  0  0  0
    7.5625   -0.0344   20.0299 C   0  0  0  0  0  0  0  0  0  0  0  0
    7.7352    0.1193   18.7223 C   0  0  0  0  0  0  0  0  0  0  0  0
    7.4144    0.4868   17.6172 N   0  0  0  0  0  0  0  0  0  0  0  0
    6.2153    1.1025   17.9937 C   0  0  0  0  0  0  0  0  0  0  0  0
    5.7379    1.1596   19.0903 C   0  0  0  0  0  0  0  0  0  0  0  0
    6.2254    0.6075   20.3238 C   0  0  0  0  0  0  0  0  0  0  0  0
    5.4994    0.6958   21.6521 C   0  0  0  0  0  0  0  0  0  0  0  0
    6.1155   -5.7293   26.8787 H   0  0  0  0  0  0  0  0  0  0  0  0
    5.5637   -4.2881   25.9596 H   0  0  0  0  0  0  0  0  0  0  0  0
    5.9818   -5.8026   25.0889 H   0  0  0  0  0  0  0  0  0  0  0  0
    7.1612   -3.1704   24.4195 H   0  0  0  0  0  0  0  0  0  0  0  0
    9.7354   -3.7377   24.3003 H   0  0  0  0  0  0  0  0  0  0  0  0
    8.7953   -1.9895   22.6454 H   0  0  0  0  0  0  0  0  0  0  0  0
   11.1818   -1.7769   23.0687 H   0  0  0  0  0  0  0  0  0  0  0  0
   10.2294    0.1696   25.2869 H   0  0  0  0  0  0  0  0  0  0  0  0
   12.2177    0.7775   25.4354 H   0  0  0  0  0  0  0  0  0  0  0  0
   13.8075   -0.8086   24.7038 H   0  0  0  0  0  0  0  0  0  0  0  0
   13.5113    0.4275   23.4345 H   0  0  0  0  0  0  0  0  0  0  0  0
   13.6391   -1.8453   22.5350 H   0  0  0  0  0  0  0  0  0  0  0  0
   11.9449   -2.6916   22.0000 H   0  0  0  0  0  0  0  0  0  0  0  0
   10.9699   -1.6161   23.1798 H   0  0  0  0  0  0  0  0  0  0  0  0
   10.4005   -1.3101   21.7610 H   0  0  0  0  0  0  0  0  0  0  0  0
   10.5277    0.2173   22.6977 H   0  0  0  0  0  0  0  0  0  0  0  0
    7.9192   -1.4496   21.3469 H   0  0  0  0  0  0  0  0  0  0  0  0
    8.6979   -0.3396   18.5522 H   0  0  0  0  0  0  0  0  0  0  0  0
    5.6559    1.5816   17.2038 H   0  0  0  0  0  0  0  0  0  0  0  0
    4.8079    1.7038   19.1625 H   0  0  0  0  0  0  0  0  0  0  0  0
    4.8420   -0.1782   21.7700 H   0  0  0  0  0  0  0  0  0  0  0  0
    6.2340    0.7150   22.4707 H   0  0  0  0  0  0  0  0  0  0  0  0
    4.8958    1.6150   21.6795 H   0  0  0  0  0  0  0  0  0  0  0  0
 20 21  2  0  0  0  0
 19 20  1  0  0  0  0
 21 22  1  0  0  0  0
 18 19  2  0  0  0  0
 22 23  2  0  0  0  0
 18 23  1  0  0  0  0
 17 18  1  0  0  0  0
 23 24  1  0  0  0  0
 15 16  2  0  0  0  0
 15 17  1  0  0  0  0
 14 15  1  0  0  0  0
  8 14  1  0  0  0  0
 12 13  2  0  0  0  0
 11 12  1  0  0  0  0
  7  8  1  0  0  0  0
  8  9  1  0  0  0  0
 10 11  1  0  0  0  0
  6  7  2  3  0  0  0
  5  6  1  0  0  0  0
  9 10  2  0  0  0  0
  2  5  1  0  0  0  0
  2  3  2  0  0  0  0
  1  2  1  0  0  0  0
  2  4  2  0  0  0  0
  1 25  1  0  0  0  0
  1 26  1  0  0  0  0
  1 27  1  0  0  0  0
  5 28  1  0  0  0  0
  6 29  1  0  0  0  0
  7 30  1  0  0  0  0
  8 31  1  0  0  0  0
  9 32  1  0  0  0  0
 10 33  1  0  0  0  0
 11 34  1  0  0  0  0
 11 35  1  0  0  0  0
 12 36  1  0  0  0  0
 13 37  1  0  0  0  0
 13 38  1  0  0  0  0
 14 39  1  0  0  0  0
 14 40  1  0  0  0  0
 17 41  1  0  0  0  0
 19 42  1  0  0  0  0
 21 43  1  0  0  0  0
 22 44  1  0  0  0  0
 24 45  1  0  0  0  0
 24 46  1  0  0  0  0
 24 47  1  0  0  0  0
M  END
> <Chemgauss4>
-13.127508

$$$$
