stable:False satoms:7 tatoms:24 sratio:0.2916666666666667
  -OEChem-08062415383D

 47 47  0     1  0  0  0  0  0999 V2000
   -6.6966   -5.5470  -26.2615 C   0  0  0  0  0  0  0  0  0  0  0  0
   -8.2885   -4.9593  -25.9694 S   0  0  0  0  0  0  0  0  0  0  0  0
   -9.1806   -6.0932  -25.8146 O   0  0  0  0  0  0  0  0  0  0  0  0
   -8.6665   -4.1540  -27.0880 O   0  0  0  0  0  0  0  0  0  0  0  0
   -8.1973   -4.1039  -24.5839 N   0  0  0  0  0  0  0  0  0  0  0  0
   -9.0865   -3.3942  -24.1295 C   0  0  0  0  0  0  0  0  0  0  0  0
   -9.5310   -2.4084  -23.5928 C   0  0  0  0  0  0  0  0  0  0  0  0
  -10.3500   -1.4735  -23.4379 C   0  0  2  0  0  0  0  0  0  0  0  0
  -11.0726   -0.4664  -24.5412 C   0  0  0  0  0  0  0  0  0  0  0  0
  -12.1539   -0.1441  -24.5483 C   0  0  0  0  0  0  0  0  0  0  0  0
  -13.1617   -0.5518  -23.7441 C   0  0  0  0  0  0  0  0  0  0  0  0
  -12.7934   -1.5879  -22.8105 C   0  0  0  0  0  0  0  0  0  0  0  0
  -11.9321   -2.0592  -22.5931 C   0  0  0  0  0  0  0  0  0  0  0  0
   -9.8418   -0.8463  -22.5348 C   0  0  0  0  0  0  0  0  0  0  0  0
   -9.1492   -0.1924  -21.6228 C   0  0  0  0  0  0  0  0  0  0  0  0
   -9.6016    0.8077  -21.3193 O   0  0  0  0  0  0  0  0  0  0  0  0
   -8.0422   -0.8046  -21.2211 N   0  0  0  0  0  0  0  0  0  0  0  0
   -7.2789   -0.2706  -20.3587 C   0  0  0  0  0  0  0  0  0  0  0  0
   -7.3167   -0.0867  -19.0441 C   0  0  0  0  0  0  0  0  0  0  0  0
   -6.8774    0.2913  -17.9842 N   0  0  0  0  0  0  0  0  0  0  0  0
   -5.7035    0.8611  -18.4902 C   0  0  0  0  0  0  0  0  0  0  0  0
   -5.3354    0.8820  -19.6294 C   0  0  0  0  0  0  0  0  0  0  0  0
   -5.9587    0.3225  -20.7966 C   0  0  0  0  0  0  0  0  0  0  0  0
   -5.3654    0.3624  -22.1914 C   0  0  0  0  0  0  0  0  0  0  0  0
   -6.6877   -6.1376  -27.1894 H   0  0  0  0  0  0  0  0  0  0  0  0
   -6.0048   -4.6976  -26.3610 H   0  0  0  0  0  0  0  0  0  0  0  0
   -6.3799   -6.1812  -25.4203 H   0  0  0  0  0  0  0  0  0  0  0  0
   -7.4079   -3.5004  -24.6964 H   0  0  0  0  0  0  0  0  0  0  0  0
   -9.9735   -3.9826  -24.3123 H   0  0  0  0  0  0  0  0  0  0  0  0
   -8.8223   -2.2344  -22.7966 H   0  0  0  0  0  0  0  0  0  0  0  0
  -11.2316   -1.9536  -22.9880 H   0  0  0  0  0  0  0  0  0  0  0  0
  -10.4453   -0.0809  -25.3314 H   0  0  0  0  0  0  0  0  0  0  0  0
  -12.4194    0.5874  -25.2971 H   0  0  0  0  0  0  0  0  0  0  0  0
  -13.9759   -0.9328  -24.3781 H   0  0  0  0  0  0  0  0  0  0  0  0
  -13.5187    0.3170  -23.1716 H   0  0  0  0  0  0  0  0  0  0  0  0
  -13.6250   -1.9331  -22.2141 H   0  0  0  0  0  0  0  0  0  0  0  0
  -11.9123   -2.8229  -21.8297 H   0  0  0  0  0  0  0  0  0  0  0  0
  -11.0270   -1.8018  -23.1230 H   0  0  0  0  0  0  0  0  0  0  0  0
  -10.3112   -1.4873  -21.7740 H   0  0  0  0  0  0  0  0  0  0  0  0
  -10.4845    0.0254  -22.7271 H   0  0  0  0  0  0  0  0  0  0  0  0
   -7.8064   -1.6983  -21.6027 H   0  0  0  0  0  0  0  0  0  0  0  0
   -8.2712   -0.5112  -18.7701 H   0  0  0  0  0  0  0  0  0  0  0  0
   -5.0546    1.3369  -17.7698 H   0  0  0  0  0  0  0  0  0  0  0  0
   -4.4011    1.3947  -19.8045 H   0  0  0  0  0  0  0  0  0  0  0  0
   -4.7493   -0.5343  -22.3541 H   0  0  0  0  0  0  0  0  0  0  0  0
   -6.1764    0.3896  -22.9341 H   0  0  0  0  0  0  0  0  0  0  0  0
   -4.7401    1.2611  -22.2982 H   0  0  0  0  0  0  0  0  0  0  0  0
 20 21  2  0  0  0  0
 19 20  1  0  0  0  0
 21 22  1  0  0  0  0
 18 19  2  0  0  0  0
 22 23  2  0  0  0  0
 18 23  1  0  0  0  0
 17 18  1  0  0  0  0
 23 24  1  0  0  0  0
 15 16  2  0  0  0  0
 15 17  1  0  0  0  0
 14 15  1  0  0  0  0
  8 14  1  0  0  0  0
 12 13  2  0  0  0  0
 11 12  1  0  0  0  0
  7  8  1  0  0  0  0
  8  9  1  0  0  0  0
 10 11  1  0  0  0  0
  6  7  2  3  0  0  0
  5  6  1  0  0  0  0
  9 10  2  0  0  0  0
  2  5  1  0  0  0  0
  2  3  2  0  0  0  0
  1  2  1  0  0  0  0
  2  4  2  0  0  0  0
  1 25  1  0  0  0  0
  1 26  1  0  0  0  0
  1 27  1  0  0  0  0
  5 28  1  0  0  0  0
  6 29  1  0  0  0  0
  7 30  1  0  0  0  0
  8 31  1  0  0  0  0
  9 32  1  0  0  0  0
 10 33  1  0  0  0  0
 11 34  1  0  0  0  0
 11 35  1  0  0  0  0
 12 36  1  0  0  0  0
 13 37  1  0  0  0  0
 13 38  1  0  0  0  0
 14 39  1  0  0  0  0
 14 40  1  0  0  0  0
 17 41  1  0  0  0  0
 19 42  1  0  0  0  0
 21 43  1  0  0  0  0
 22 44  1  0  0  0  0
 24 45  1  0  0  0  0
 24 46  1  0  0  0  0
 24 47  1  0  0  0  0
M  END
> <Chemgauss4>
-12.556297

$$$$
