stable:False satoms:7 tatoms:24 sratio:0.2916666666666667
  -OEChem-07092417513D

 24 26  0     1  0  0  0  0  0999 V2000
    6.5452   -4.8853   26.4882 C   0  0  0  0  0  0  0  0  0  0  0  0
    8.2392   -4.2878   26.0932 S   0  0  0  0  0  0  0  0  0  0  0  0
    9.0649   -5.4803   26.0160 O   0  0  0  0  0  0  0  0  0  0  0  0
    8.6199   -3.4311   27.1636 O   0  0  0  0  0  0  0  0  0  0  0  0
    8.1053   -3.5568   24.6738 N   0  0  0  0  0  0  0  0  0  0  0  0
    8.9503   -2.9090   24.1542 C   0  0  0  0  0  0  0  0  0  0  0  0
    9.3979   -1.9456   23.4763 C   0  0  0  0  0  0  0  0  0  0  0  0
   10.3348   -1.1450   23.2332 C   0  0  1  0  0  0  0  0  0  0  0  0
   11.0309   -0.0188   24.3169 C   0  0  0  0  0  0  0  0  0  0  0  0
   12.0512    0.2823   24.2756 C   0  0  0  0  0  0  0  0  0  0  0  0
   13.1679   -0.2061   23.4374 C   0  0  0  0  0  0  0  0  0  0  0  0
   12.7300   -1.2304   22.6639 C   0  0  0  0  0  0  0  0  0  0  0  0
   11.7975   -1.7277   22.4873 C   0  0  0  0  0  0  0  0  0  0  0  0
    9.7222   -0.5657   22.3562 C   0  0  1  0  0  0  0  0  0  0  0  0
    9.0590    0.0469   21.3901 C   0  0  0  0  0  0  0  0  0  0  0  0
    9.5158    1.0142   21.0105 O   0  0  0  0  0  0  0  0  0  0  0  0
    7.9451   -0.5776   21.0510 N   0  0  0  0  0  0  0  0  0  0  0  0
    7.1835   -0.1343   20.1540 C   0  0  0  0  0  0  0  0  0  0  0  0
    7.2332   -0.0456   18.8489 C   0  0  0  0  0  0  0  0  0  0  0  0
    6.7882    0.3058   17.7590 N   0  0  0  0  0  0  0  0  0  0  0  0
    5.6480    0.8894   18.2527 C   0  0  0  0  0  0  0  0  0  0  0  0
    5.2769    0.9878   19.4169 C   0  0  0  0  0  0  0  0  0  0  0  0
    5.8317    0.5704   20.5337 C   0  0  0  0  0  0  0  0  0  0  0  0
    5.3455    0.7603   22.0440 C   0  0  0  0  0  0  0  0  0  0  0  0
 20 21  2  0  0  0  0
 19 20  1  0  0  0  0
 21 22  1  0  0  0  0
 18 19  2  0  0  0  0
 22 23  2  0  0  0  0
 18 23  1  0  0  0  0
 17 18  1  0  0  0  0
 23 24  1  0  0  0  0
 15 16  2  0  0  0  0
 15 17  1  0  0  0  0
 14 15  1  0  0  0  0
  8 14  1  0  0  0  0
  7 14  1  0  0  0  0
 12 13  1  0  0  0  0
  8 13  1  0  0  0  0
 11 12  2  0  0  0  0
  7  8  1  0  0  0  0
  8  9  1  0  0  0  0
 10 11  1  0  0  0  0
  6  7  2  0  0  0  0
  5  6  1  0  0  0  0
  9 10  2  0  0  0  0
  2  5  1  0  0  0  0
  2  3  2  0  0  0  0
  1  2  1  0  0  0  0
  2  4  2  0  0  0  0
M  END
> <Shapegauss>
-286.315430

$$$$
