stable:False satoms:7 tatoms:24 sratio:0.2916666666666667
  -OEChem-08062416413D

 43 45  0     1  0  0  0  0  0999 V2000
    6.2583   -5.2257   26.2920 C   0  0  0  0  0  0  0  0  0  0  0  0
    7.9616   -4.5794   26.0391 S   0  0  0  0  0  0  0  0  0  0  0  0
    8.8162   -5.7515   25.9657 O   0  0  0  0  0  0  0  0  0  0  0  0
    8.2513   -3.7650   27.1693 O   0  0  0  0  0  0  0  0  0  0  0  0
    7.9069   -3.7876   24.6473 N   0  0  0  0  0  0  0  0  0  0  0  0
    8.7705   -3.1013   24.2150 C   0  0  0  0  0  0  0  0  0  0  0  0
    9.2413   -2.1000   23.6118 C   0  0  0  0  0  0  0  0  0  0  0  0
   10.1748   -1.2719   23.4680 C   0  0  1  0  0  0  0  0  0  0  0  0
   10.7724   -0.1830   24.6446 C   0  0  0  0  0  0  0  0  0  0  0  0
   11.7864    0.1387   24.6857 C   0  0  0  0  0  0  0  0  0  0  0  0
   12.9669   -0.2904   23.9044 C   0  0  0  0  0  0  0  0  0  0  0  0
   12.6039   -1.2867   23.0588 C   0  0  0  0  0  0  0  0  0  0  0  0
   11.6963   -1.7928   22.7979 C   0  0  0  0  0  0  0  0  0  0  0  0
    9.6097   -0.6650   22.5778 C   0  0  1  0  0  0  0  0  0  0  0  0
    8.9993   -0.0219   21.5968 C   0  0  0  0  0  0  0  0  0  0  0  0
    9.4593    0.9699   21.2918 O   0  0  0  0  0  0  0  0  0  0  0  0
    7.9243   -0.6511   21.1561 N   0  0  0  0  0  0  0  0  0  0  0  0
    7.2149   -0.1820   20.2299 C   0  0  0  0  0  0  0  0  0  0  0  0
    7.3497   -0.0335   18.9363 C   0  0  0  0  0  0  0  0  0  0  0  0
    6.9709    0.3584   17.8353 N   0  0  0  0  0  0  0  0  0  0  0  0
    5.7879    0.8977   18.2758 C   0  0  0  0  0  0  0  0  0  0  0  0
    5.3378    0.9364   19.4154 C   0  0  0  0  0  0  0  0  0  0  0  0
    5.8258    0.4794   20.5478 C   0  0  0  0  0  0  0  0  0  0  0  0
    5.2358    0.5917   22.0286 C   0  0  0  0  0  0  0  0  0  0  0  0
    6.2151   -5.7869   27.2371 H   0  0  0  0  0  0  0  0  0  0  0  0
    5.5496   -4.3853   26.3320 H   0  0  0  0  0  0  0  0  0  0  0  0
    5.9912   -5.8912   25.4579 H   0  0  0  0  0  0  0  0  0  0  0  0
    7.1040   -3.1949   24.7109 H   0  0  0  0  0  0  0  0  0  0  0  0
    9.6613   -3.6411   24.5002 H   0  0  0  0  0  0  0  0  0  0  0  0
   10.0845    0.1982   25.3849 H   0  0  0  0  0  0  0  0  0  0  0  0
   11.9863    0.9054   25.4195 H   0  0  0  0  0  0  0  0  0  0  0  0
   13.9603    0.1240   23.9932 H   0  0  0  0  0  0  0  0  0  0  0  0
   13.4486   -1.6689   22.5050 H   0  0  0  0  0  0  0  0  0  0  0  0
   11.5998   -1.7248   21.7043 H   0  0  0  0  0  0  0  0  0  0  0  0
   11.8263   -2.8454   23.0898 H   0  0  0  0  0  0  0  0  0  0  0  0
    9.1362   -0.0029   23.3176 H   0  0  0  0  0  0  0  0  0  0  0  0
    7.6679   -1.5244   21.5704 H   0  0  0  0  0  0  0  0  0  0  0  0
    8.2969   -0.5070   18.7244 H   0  0  0  0  0  0  0  0  0  0  0  0
    5.1692    1.3495   17.5145 H   0  0  0  0  0  0  0  0  0  0  0  0
    4.3804    1.4281   19.5043 H   0  0  0  0  0  0  0  0  0  0  0  0
    4.6137   -0.2896   22.2439 H   0  0  0  0  0  0  0  0  0  0  0  0
    6.0644    0.6406   22.7505 H   0  0  0  0  0  0  0  0  0  0  0  0
    4.6234    1.5017   22.1112 H   0  0  0  0  0  0  0  0  0  0  0  0
 20 21  2  0  0  0  0
 19 20  1  0  0  0  0
 21 22  1  0  0  0  0
 18 19  2  0  0  0  0
 22 23  2  0  0  0  0
 18 23  1  0  0  0  0
 17 18  1  0  0  0  0
 23 24  1  0  0  0  0
 15 16  2  0  0  0  0
 15 17  1  0  0  0  0
 14 15  1  0  0  0  0
  8 14  1  0  0  0  0
  7 14  1  0  0  0  0
 12 13  1  0  0  0  0
  8 13  1  0  0  0  0
 11 12  2  0  0  0  0
  7  8  1  0  0  0  0
  8  9  1  0  0  0  0
 10 11  1  0  0  0  0
  6  7  2  0  0  0  0
  5  6  1  0  0  0  0
  9 10  2  0  0  0  0
  2  5  1  0  0  0  0
  2  3  2  0  0  0  0
  1  2  1  0  0  0  0
  2  4  2  0  0  0  0
  1 25  1  0  0  0  0
  1 26  1  0  0  0  0
  1 27  1  0  0  0  0
  5 28  1  0  0  0  0
  6 29  1  0  0  0  0
  9 30  1  0  0  0  0
 10 31  1  0  0  0  0
 11 32  1  0  0  0  0
 12 33  1  0  0  0  0
 13 34  1  0  0  0  0
 13 35  1  0  0  0  0
 14 36  1  0  0  0  0
 17 37  1  0  0  0  0
 19 38  1  0  0  0  0
 21 39  1  0  0  0  0
 22 40  1  0  0  0  0
 24 41  1  0  0  0  0
 24 42  1  0  0  0  0
 24 43  1  0  0  0  0
M  END
> <Chemgauss4>
-13.186295

$$$$
