REMARK  6 active torsions:
REMARK  status: ('A' for Active; 'I' for Inactive)
REMARK    1  A    between atoms: S_2  and  N_5 
REMARK    2  A    between atoms: N_5  and  C_7 
REMARK    3  A    between atoms: C_8  and  C_9 
REMARK    4  A    between atoms: C_9  and  C_14 
REMARK    5  A    between atoms: C_14  and  C_15 
REMARK       I    between atoms: C_15  and  N_17 
REMARK    6  A    between atoms: N_17  and  C_19 
ROOT
HETATM    1  C   UNL     1      10.428  -1.165  23.265  1.00  0.00     0.141 C 
HETATM    2  S   UNL     1      10.981  -0.073  24.600  1.00  0.00    -0.106 SA
HETATM    3  C   UNL     1      12.481  -0.044  24.000  1.00  0.00     0.043 C 
HETATM    4  C   UNL     1      12.514  -1.099  23.077  1.00  0.00    -0.016 C 
HETATM    5  C   UNL     1      11.771  -1.710  22.766  1.00  0.00     0.074 C 
ENDROOT
BRANCH   1   6
HETATM    6  C   UNL     1       9.510  -2.097  23.592  1.00  0.00    -0.048 C 
HETATM    7  C   UNL     1       8.934  -2.934  24.138  1.00  0.00     0.024 C 
BRANCH   7   8
HETATM    8  N   UNL     1       8.113  -3.638  24.662  1.00  0.00    -0.230 N 
ATOM      9  HN  UNL     1       7.229  -3.772  24.171  1.00  0.00     0.190 HD
BRANCH   8  10
HETATM   10  S   UNL     1       8.295  -4.385  26.073  1.00  0.00     0.327 S 
HETATM   11 CL   UNL     1       6.491  -4.948  26.405  1.00  0.00     0.042 Cl
HETATM   12  O   UNL     1       9.076  -5.578  25.947  1.00  0.00    -0.188 OA
HETATM   13  O   UNL     1       8.672  -3.509  27.134  1.00  0.00    -0.188 OA
ENDBRANCH   8  10
ENDBRANCH   7   8
ENDBRANCH   1   6
BRANCH   1  14
HETATM   14  C   UNL     1       9.784  -0.606  22.369  1.00  0.00    -0.049 C 
BRANCH  14  15
HETATM   15  C   UNL     1       9.124  -0.027  21.297  1.00  0.00     0.291 C 
HETATM   16  O   UNL     1       9.679   0.827  20.676  1.00  0.00    -0.259 OA
HETATM   17  N   UNL     1       7.932  -0.587  21.089  1.00  0.00    -0.315 N 
ATOM     18  HN  UNL     1       7.671  -1.441  21.582  1.00  0.00     0.170 HD
BRANCH  17  19
HETATM   19  C   UNL     1       7.077  -0.015  20.224  1.00  0.00     0.059 A 
HETATM   20  C   UNL     1       6.981   0.143  18.931  1.00  0.00     0.126 A 
HETATM   21  N   UNL     1       6.226   0.566  18.180  1.00  0.00    -0.335 N 
HETATM   22  H   UNL     1       5.853   0.843  17.338  1.00  0.00     0.173 HD
HETATM   23  S   UNL     1       4.940   1.123  19.311  1.00  0.00    -0.025 SA
HETATM   24  C   UNL     1       5.852   0.574  20.546  1.00  0.00     0.099 A 
ENDBRANCH  17  19
ENDBRANCH  14  15
ENDBRANCH   1  14
TORSDOF 6
