stable:False satoms:21 tatoms:24 sratio:0.875
  -OEChem-07092417323D

 24 24  0     1  0  0  0  0  0999 V2000
    6.8227   -1.5232   24.5653 H   0  0  0  0  0  0  0  0  0  0  0  0
    7.6534   -3.0010   25.0868 H   0  0  0  0  0  0  0  0  0  0  0  0
    8.2391   -2.3090   23.1595 O   0  3  2  0  0  0  0  0  0  0  0  0
    8.9558   -1.2703   25.1168 C   0  0  0  0  0  0  0  0  0  0  0  0
    7.7798   -2.0583   24.5423 C   0  0  0  0  0  0  0  0  0  0  0  0
   10.2300   -2.9831   24.8024 H   0  0  0  0  0  0  0  0  0  0  0  0
    7.6527   -2.0351   22.3854 H   0  0  0  0  0  0  0  0  0  0  0  0
   11.0500   -0.4949   22.2158 H   0  0  0  0  0  0  0  0  0  0  0  0
   11.0451   -1.4040   24.5228 H   0  0  0  0  0  0  0  0  0  0  0  0
    9.5212    0.1693   22.8302 H   0  0  0  0  0  0  0  0  0  0  0  0
    9.9839   -0.6634   22.2943 C   0  0  0  0  0  0  0  0  0  0  0  0
   10.2105   -2.7995   22.4256 H   0  0  0  0  0  0  0  0  0  0  0  0
    9.9246   -1.4560   20.4978 H   0  0  0  0  0  0  0  0  0  0  0  0
    8.9881   -1.3107   26.2027 H   0  0  0  0  0  0  0  0  0  0  0  0
    9.3546   -0.7257   20.9440 N   0  0  0  0  0  0  0  0  0  0  0  0
    8.9175   -0.2236   24.7832 H   0  0  0  0  0  0  0  0  0  0  0  0
    8.3796   -0.3250   19.9060 C   0  0  0  0  0  0  0  0  0  0  0  0
    9.6736   -2.0173   22.9657 C   0  0  1  0  0  0  0  0  0  0  0  0
    6.1893    0.0369   20.6036 H   0  0  0  0  0  0  0  0  0  0  0  0
    6.9296    1.3277   19.5860 H   0  0  0  0  0  0  0  0  0  0  0  0
    6.3946   -0.1805   18.8459 H   0  0  0  0  0  0  0  0  0  0  0  0
    6.7857    0.2772   19.7501 C   0  0  0  0  0  0  0  0  0  0  0  0
    8.7841   -0.3604   18.8399 O   0  0  0  0  0  0  0  0  0  0  0  0
   10.1185   -1.9602   24.4246 C   0  0  0  0  0  0  0  0  0  0  0  0
 17 23  2  0  0  0  0
 21 22  1  0  0  0  0
 20 22  1  0  0  0  0
 17 22  1  0  0  0  0
 19 22  1  0  0  0  0
 15 17  1  0  0  0  0
 13 15  1  0  0  0  0
 11 15  1  0  0  0  0
  8 11  1  0  0  0  0
 10 11  1  0  0  0  0
 11 18  1  0  0  0  0
  3  7  1  0  0  0  0
 12 18  1  0  0  0  0
  3 18  1  0  0  0  0
 18 24  1  0  0  0  0
  3  5  1  0  0  0  0
  9 24  1  0  0  0  0
  6 24  1  0  0  0  0
  4 24  1  0  0  0  0
  1  5  1  0  0  0  0
  2  5  1  0  0  0  0
  4  5  1  0  0  0  0
  4 16  1  0  0  0  0
  4 14  1  0  0  0  0
M  CHG  1   3   1
M  END
> <Shapegauss>
-92.311310

$$$$
