MODEL 1
REMARK VINA RESULT:    -4.166      0.000      0.000
REMARK INTER + INTRA:          -4.808
REMARK INTER:                  -4.653
REMARK INTRA:                  -0.155
REMARK UNBOUND:                -0.155
REMARK  2 active torsions:
REMARK  status: ('A' for Active; 'I' for Inactive)
REMARK    1  A    between atoms: C_5  and  N_7 
REMARK    2  A    between atoms: C_5  and  C_9 
REMARK       I    between atoms: N_7  and  C_8 
ROOT
HETATM    1  O   UNL     1       9.746  -2.258  22.398  1.00  0.00     0.000 OA
HETATM    2  C   UNL     1       9.569  -1.286  24.507  1.00  0.00     0.000 C 
HETATM    3  C   UNL     1       9.083  -2.488  23.698  1.00  0.00     0.000 C 
HETATM    4  H   UNL     1       9.191  -2.231  21.556  1.00  0.00     0.000 HD
HETATM    5  C   UNL     1      10.800  -1.224  22.462  1.00  0.00     0.009 C 
HETATM    6  C   UNL     1      10.984  -1.147  23.975  1.00  0.00     0.007 C 
ENDROOT
BRANCH   5   7
HETATM    7  C   UNL     1      10.388   0.167  21.936  1.00  0.00     0.127 C 
BRANCH   7   8
HETATM    8  N   UNL     1       9.441  -0.088  20.813  1.00  0.00    -0.361 N 
HETATM    9  H   UNL     1      10.092  -0.384  20.074  1.00  0.00     0.162 HD
HETATM   10  C   UNL     1       8.104  -0.148  20.182  1.00  0.00     0.213 C 
HETATM   11  O   UNL     1       8.092   0.121  19.074  1.00  0.00    -0.274 OA
HETATM   12  C   UNL     1       6.464  -0.428  20.582  1.00  0.00     0.117 C 
ENDBRANCH   7   8
ENDBRANCH   5   7
TORSDOF 2
ENDMDL
MODEL 2
REMARK VINA RESULT:    -4.162     25.389     27.545
REMARK INTER + INTRA:          -4.804
REMARK INTER:                  -4.707
REMARK INTRA:                  -0.097
REMARK UNBOUND:                -0.155
REMARK  2 active torsions:
REMARK  status: ('A' for Active; 'I' for Inactive)
REMARK    1  A    between atoms: C_5  and  N_7 
REMARK    2  A    between atoms: C_5  and  C_9 
REMARK       I    between atoms: N_7  and  C_8 
ROOT
HETATM    1  O   UNL     1      10.248  18.637   1.019  1.00  0.00     0.000 OA
HETATM    2  C   UNL     1       8.367  19.973   0.701  1.00  0.00     0.000 C 
HETATM    3  C   UNL     1       9.864  20.064   0.990  1.00  0.00     0.000 C 
HETATM    4  H   UNL     1      10.727  18.268   1.827  1.00  0.00     0.000 HD
HETATM    5  C   UNL     1       9.200  17.747   0.478  1.00  0.00     0.009 C 
HETATM    6  C   UNL     1       8.337  18.781  -0.239  1.00  0.00     0.007 C 
ENDROOT
BRANCH   5   7
HETATM    7  C   UNL     1       8.341  17.025   1.537  1.00  0.00     0.127 C 
BRANCH   7   8
HETATM    8  N   UNL     1       9.286  16.176   2.317  1.00  0.00    -0.361 N 
HETATM    9  H   UNL     1       9.997  16.870   2.582  1.00  0.00     0.162 HD
HETATM   10  C   UNL     1       9.762  14.907   2.911  1.00  0.00     0.213 C 
HETATM   11  O   UNL     1      10.896  14.791   2.932  1.00  0.00    -0.274 OA
HETATM   12  C   UNL     1       9.160  13.437   3.547  1.00  0.00     0.117 C 
ENDBRANCH   7   8
ENDBRANCH   5   7
TORSDOF 2
ENDMDL
MODEL 3
REMARK VINA RESULT:    -4.114     22.775     23.757
REMARK INTER + INTRA:          -4.750
REMARK INTER:                  -4.641
REMARK INTRA:                  -0.109
REMARK UNBOUND:                -0.155
REMARK  2 active torsions:
REMARK  status: ('A' for Active; 'I' for Inactive)
REMARK    1  A    between atoms: C_5  and  N_7 
REMARK    2  A    between atoms: C_5  and  C_9 
REMARK       I    between atoms: N_7  and  C_8 
ROOT
HETATM    1  O   UNL     1       4.145 -20.422   7.901  1.00  0.00     0.000 OA
HETATM    2  C   UNL     1       2.259 -21.742   8.247  1.00  0.00     0.000 C 
HETATM    3  C   UNL     1       3.669 -21.800   7.662  1.00  0.00     0.000 C 
HETATM    4  H   UNL     1       4.498 -19.878   7.127  1.00  0.00     0.000 HD
HETATM    5  C   UNL     1       3.281 -19.664   8.829  1.00  0.00     0.009 C 
HETATM    6  C   UNL     1       2.486 -20.820   9.431  1.00  0.00     0.007 C 
ENDROOT
BRANCH   5   7
HETATM    7  C   UNL     1       2.301 -18.679   8.157  1.00  0.00     0.127 C 
BRANCH   7   8
HETATM    8  N   UNL     1       1.618 -17.963   9.272  1.00  0.00    -0.361 N 
HETATM    9  H   UNL     1       2.260 -18.157  10.051  1.00  0.00     0.162 HD
HETATM   10  C   UNL     1       0.543 -17.140   9.869  1.00  0.00     0.213 C 
HETATM   11  O   UNL     1       0.291 -17.405  10.950  1.00  0.00    -0.274 OA
HETATM   12  C   UNL     1      -0.567 -15.907   9.451  1.00  0.00     0.117 C 
ENDBRANCH   7   8
ENDBRANCH   5   7
TORSDOF 2
ENDMDL
MODEL 4
REMARK VINA RESULT:    -4.062      1.987      4.558
REMARK INTER + INTRA:          -4.691
REMARK INTER:                  -4.591
REMARK INTRA:                  -0.100
REMARK UNBOUND:                -0.155
REMARK  2 active torsions:
REMARK  status: ('A' for Active; 'I' for Inactive)
REMARK    1  A    between atoms: C_5  and  N_7 
REMARK    2  A    between atoms: C_5  and  C_9 
REMARK       I    between atoms: N_7  and  C_8 
ROOT
HETATM    1  O   UNL     1       9.105   1.318  21.358  1.00  0.00     0.000 OA
HETATM    2  C   UNL     1       6.821   1.002  21.689  1.00  0.00     0.000 C 
HETATM    3  C   UNL     1       7.902   2.081  21.750  1.00  0.00     0.000 C 
HETATM    4  H   UNL     1       9.915   1.324  21.960  1.00  0.00     0.000 HD
HETATM    5  C   UNL     1       8.788  -0.006  20.785  1.00  0.00     0.009 C 
HETATM    6  C   UNL     1       7.302   0.194  20.497  1.00  0.00     0.007 C 
ENDROOT
BRANCH   5   7
HETATM    7  C   UNL     1       8.955  -1.197  21.752  1.00  0.00     0.127 C 
BRANCH   7   8
HETATM    8  N   UNL     1      10.414  -1.283  22.042  1.00  0.00    -0.361 N 
HETATM    9  H   UNL     1      10.771  -1.630  21.142  1.00  0.00     0.162 HD
HETATM   10  C   UNL     1      11.616  -1.149  22.895  1.00  0.00     0.213 C 
HETATM   11  O   UNL     1      12.421  -1.934  22.704  1.00  0.00    -0.274 OA
HETATM   12  C   UNL     1      12.218  -0.212  24.194  1.00  0.00     0.117 C 
ENDBRANCH   7   8
ENDBRANCH   5   7
TORSDOF 2
ENDMDL
MODEL 5
REMARK VINA RESULT:    -4.058      1.903      5.057
REMARK INTER + INTRA:          -4.687
REMARK INTER:                  -4.533
REMARK INTRA:                  -0.155
REMARK UNBOUND:                -0.155
REMARK  2 active torsions:
REMARK  status: ('A' for Active; 'I' for Inactive)
REMARK    1  A    between atoms: C_5  and  N_7 
REMARK    2  A    between atoms: C_5  and  C_9 
REMARK       I    between atoms: N_7  and  C_8 
ROOT
HETATM    1  O   UNL     1       7.307   0.684  18.246  1.00  0.00     0.000 OA
HETATM    2  C   UNL     1       5.172   0.740  19.173  1.00  0.00     0.000 C 
HETATM    3  C   UNL     1       5.930   1.085  17.892  1.00  0.00     0.000 C 
HETATM    4  H   UNL     1       8.058   1.352  18.152  1.00  0.00     0.000 HD
HETATM    5  C   UNL     1       7.374  -0.133  19.475  1.00  0.00     0.009 C 
HETATM    6  C   UNL     1       5.903  -0.521  19.598  1.00  0.00     0.007 C 
ENDROOT
BRANCH   5   7
HETATM    7  C   UNL     1       7.800   0.629  20.747  1.00  0.00     0.127 C 
BRANCH   7   8
HETATM    8  N   UNL     1       8.441  -0.385  21.632  1.00  0.00    -0.361 N 
HETATM    9  H   UNL     1       9.127   0.198  22.130  1.00  0.00     0.162 HD
HETATM   10  C   UNL     1       8.636  -1.745  22.181  1.00  0.00     0.213 C 
HETATM   11  O   UNL     1       9.715  -1.993  22.456  1.00  0.00    -0.274 OA
HETATM   12  C   UNL     1       7.762  -3.182  22.497  1.00  0.00     0.117 C 
ENDBRANCH   7   8
ENDBRANCH   5   7
TORSDOF 2
ENDMDL
MODEL 6
REMARK VINA RESULT:    -4.047      2.835      3.499
REMARK INTER + INTRA:          -4.676
REMARK INTER:                  -4.496
REMARK INTRA:                  -0.179
REMARK UNBOUND:                -0.155
REMARK  2 active torsions:
REMARK  status: ('A' for Active; 'I' for Inactive)
REMARK    1  A    between atoms: C_5  and  N_7 
REMARK    2  A    between atoms: C_5  and  C_9 
REMARK       I    between atoms: N_7  and  C_8 
ROOT
HETATM    1  O   UNL     1       9.430   2.234  21.404  1.00  0.00     0.000 OA
HETATM    2  C   UNL     1       9.718   1.645  23.638  1.00  0.00     0.000 C 
HETATM    3  C   UNL     1      10.504   1.857  22.345  1.00  0.00     0.000 C 
HETATM    4  H   UNL     1       9.321   1.719  20.542  1.00  0.00     0.000 HD
HETATM    5  C   UNL     1       8.157   2.558  22.080  1.00  0.00     0.009 C 
HETATM    6  C   UNL     1       8.668   2.733  23.507  1.00  0.00     0.007 C 
ENDROOT
BRANCH   5   7
HETATM    7  C   UNL     1       7.098   1.435  22.061  1.00  0.00     0.127 C 
BRANCH   7   8
HETATM    8  N   UNL     1       7.300   0.709  20.775  1.00  0.00    -0.361 N 
HETATM    9  H   UNL     1       8.031   0.038  21.043  1.00  0.00     0.162 HD
HETATM   10  C   UNL     1       7.035   0.424  19.347  1.00  0.00     0.213 C 
HETATM   11  O   UNL     1       7.952   0.095  18.753  1.00  0.00    -0.274 OA
HETATM   12  C   UNL     1       5.770   0.491  18.197  1.00  0.00     0.117 C 
ENDBRANCH   7   8
ENDBRANCH   5   7
TORSDOF 2
ENDMDL
MODEL 7
REMARK VINA RESULT:    -4.008      2.880      5.230
REMARK INTER + INTRA:          -4.631
REMARK INTER:                  -4.523
REMARK INTRA:                  -0.109
REMARK UNBOUND:                -0.155
REMARK  2 active torsions:
REMARK  status: ('A' for Active; 'I' for Inactive)
REMARK    1  A    between atoms: C_5  and  N_7 
REMARK    2  A    between atoms: C_5  and  C_9 
REMARK       I    between atoms: N_7  and  C_8 
ROOT
HETATM    1  O   UNL     1       7.418   0.640  18.780  1.00  0.00     0.000 OA
HETATM    2  C   UNL     1       5.092   0.630  18.901  1.00  0.00     0.000 C 
HETATM    3  C   UNL     1       6.240   0.980  17.955  1.00  0.00     0.000 C 
HETATM    4  H   UNL     1       8.133   1.335  18.934  1.00  0.00     0.000 HD
HETATM    5  C   UNL     1       7.074  -0.151  19.980  1.00  0.00     0.009 C 
HETATM    6  C   UNL     1       5.666  -0.594  19.594  1.00  0.00     0.007 C 
ENDROOT
BRANCH   5   7
HETATM    7  C   UNL     1       7.004   0.651  21.297  1.00  0.00     0.127 C 
BRANCH   7   8
HETATM    8  N   UNL     1       8.320   1.340  21.423  1.00  0.00    -0.361 N 
HETATM    9  H   UNL     1       8.428   1.727  20.477  1.00  0.00     0.162 HD
HETATM   10  C   UNL     1       9.539   1.767  22.145  1.00  0.00     0.213 C 
HETATM   11  O   UNL     1      10.477   1.816  21.500  1.00  0.00    -0.274 OA
HETATM   12  C   UNL     1      10.071   2.167  23.722  1.00  0.00     0.117 C 
ENDBRANCH   7   8
ENDBRANCH   5   7
TORSDOF 2
ENDMDL
MODEL 8
REMARK VINA RESULT:    -3.997     12.506     14.378
REMARK INTER + INTRA:          -4.620
REMARK INTER:                  -4.499
REMARK INTRA:                  -0.120
REMARK UNBOUND:                -0.155
REMARK  2 active torsions:
REMARK  status: ('A' for Active; 'I' for Inactive)
REMARK    1  A    between atoms: C_5  and  N_7 
REMARK    2  A    between atoms: C_5  and  C_9 
REMARK       I    between atoms: N_7  and  C_8 
ROOT
HETATM    1  O   UNL     1      20.976  -1.718  26.200  1.00  0.00     0.000 OA
HETATM    2  C   UNL     1      21.676  -0.616  24.272  1.00  0.00     0.000 C 
HETATM    3  C   UNL     1      20.529  -1.466  24.814  1.00  0.00     0.000 C 
HETATM    4  H   UNL     1      21.038  -2.668  26.536  1.00  0.00     0.000 HD
HETATM    5  C   UNL     1      22.104  -0.857  26.608  1.00  0.00     0.009 C 
HETATM    6  C   UNL     1      22.028   0.196  25.506  1.00  0.00     0.007 C 
ENDROOT
BRANCH   5   7
HETATM    7  C   UNL     1      23.493  -1.528  26.565  1.00  0.00     0.127 C 
BRANCH   7   8
HETATM    8  N   UNL     1      23.233  -2.991  26.440  1.00  0.00    -0.361 N 
HETATM    9  H   UNL     1      22.456  -3.108  27.102  1.00  0.00     0.162 HD
HETATM   10  C   UNL     1      23.471  -4.347  25.898  1.00  0.00     0.213 C 
HETATM   11  O   UNL     1      23.293  -5.191  26.644  1.00  0.00    -0.274 OA
HETATM   12  C   UNL     1      24.024  -5.126  24.478  1.00  0.00     0.117 C 
ENDBRANCH   7   8
ENDBRANCH   5   7
TORSDOF 2
ENDMDL
MODEL 9
REMARK VINA RESULT:    -3.985      4.370      5.259
REMARK INTER + INTRA:          -4.606
REMARK INTER:                  -4.506
REMARK INTRA:                  -0.100
REMARK UNBOUND:                -0.155
REMARK  2 active torsions:
REMARK  status: ('A' for Active; 'I' for Inactive)
REMARK    1  A    between atoms: C_5  and  N_7 
REMARK    2  A    between atoms: C_5  and  C_9 
REMARK       I    between atoms: N_7  and  C_8 
ROOT
HETATM    1  O   UNL     1      12.538   1.065  24.200  1.00  0.00     0.000 OA
HETATM    2  C   UNL     1      10.945  -0.622  24.001  1.00  0.00     0.000 C 
HETATM    3  C   UNL     1      12.444  -0.409  24.211  1.00  0.00     0.000 C 
HETATM    4  H   UNL     1      13.177   1.517  23.562  1.00  0.00     0.000 HD
HETATM    5  C   UNL     1      11.223   1.729  24.312  1.00  0.00     0.009 C 
HETATM    6  C   UNL     1      10.385   0.547  24.792  1.00  0.00     0.007 C 
ENDROOT
BRANCH   5   7
HETATM    7  C   UNL     1      10.637   2.253  22.984  1.00  0.00     0.127 C 
BRANCH   7   8
HETATM    8  N   UNL     1      11.233   3.605  22.782  1.00  0.00    -0.361 N 
HETATM    9  H   UNL     1      11.148   3.704  21.762  1.00  0.00     0.162 HD
HETATM   10  C   UNL     1      11.870   4.863  23.230  1.00  0.00     0.213 C 
HETATM   11  O   UNL     1      12.622   5.299  22.493  1.00  0.00    -0.274 OA
HETATM   12  C   UNL     1      11.923   5.910  24.582  1.00  0.00     0.117 C 
ENDBRANCH   7   8
ENDBRANCH   5   7
TORSDOF 2
ENDMDL
