REMARK  0 active torsions:
REMARK  status: ('A' for Active; 'I' for Inactive)
ROOT
HETATM    1  O   UNL     2       7.079  -4.025  21.965  1.00  0.00    -0.648 OA
HETATM    2  C   UNL     2       8.573  -5.850  22.364  1.00  0.00     0.129 C 
HETATM    3  C   UNL     2       7.561  -4.791  22.823  1.00  0.00     0.168 C 
HETATM    4  O   UNL     2       7.276  -4.763  24.015  1.00  0.00    -0.648 OA
ENDROOT
TORSDOF 0
