stable:False satoms:21 tatoms:24 sratio:0.875
  -OEChem-07092417323D

 24 24  0     1  0  0  0  0  0999 V2000
    8.0127   -2.6267   24.8038 H   0  0  0  0  0  0  0  0  0  0  0  0
    8.9778   -2.2988   25.2058 C   0  0  0  0  0  0  0  0  0  0  0  0
    8.4488   -2.6947   22.7177 H   0  0  0  0  0  0  0  0  0  0  0  0
    8.8141   -1.9808   26.2335 H   0  0  0  0  0  0  0  0  0  0  0  0
    9.6112   -3.1873   25.1935 H   0  0  0  0  0  0  0  0  0  0  0  0
    6.0722   -1.9638   20.9824 H   0  0  0  0  0  0  0  0  0  0  0  0
   11.2276   -0.3550   23.5621 H   0  0  0  0  0  0  0  0  0  0  0  0
    9.0444   -0.4789   24.1893 H   0  0  0  0  0  0  0  0  0  0  0  0
    9.6613   -1.2053   24.5453 N   0  0  0  0  0  0  0  0  0  0  0  0
    9.1632    0.7438   21.9767 H   0  0  0  0  0  0  0  0  0  0  0  0
   10.2839   -1.7374   22.1650 C   0  0  0  0  0  0  0  0  0  0  0  0
   11.4796   -2.0391   23.9568 H   0  0  0  0  0  0  0  0  0  0  0  0
   10.7293   -1.3319   23.5830 C   0  0  0  0  0  0  0  0  0  0  0  0
   10.5728   -0.9604   21.4629 H   0  0  0  0  0  0  0  0  0  0  0  0
    7.3460    2.1744   20.7361 H   0  0  0  0  0  0  0  0  0  0  0  0
    8.8068   -2.1006   21.8575 C   0  0  0  0  0  0  0  0  0  0  0  0
   10.8031   -2.6572   21.9320 H   0  0  0  0  0  0  0  0  0  0  0  0
    8.7631   -2.7764   20.9955 H   0  0  0  0  0  0  0  0  0  0  0  0
    6.2777    0.2252   20.4948 C   0  0  0  0  0  0  0  0  0  0  0  0
    8.2692    0.3546   21.4872 C   0  0  0  0  0  0  0  0  0  0  0  0
    6.6414   -1.0387   20.9118 C   0  0  0  0  0  0  0  0  0  0  0  0
    5.3650    0.5081   19.9782 H   0  0  0  0  0  0  0  0  0  0  0  0
    7.9362   -0.9711   21.4492 C   0  0  0  0  0  0  0  0  0  0  0  0
    7.2767    1.1079   20.8767 C   0  5  3  0  0  0  0  0  0  0  0  0
 19 22  1  0  0  0  0
 19 24  1  0  0  0  0
 19 21  2  0  0  0  0
 15 24  1  0  0  0  0
 20 24  1  0  0  0  0
  6 21  1  0  0  0  0
 21 23  1  0  0  0  0
 16 18  1  0  0  0  0
 20 23  2  0  0  0  0
 16 23  1  0  0  0  0
 11 14  1  0  0  0  0
 10 20  1  0  0  0  0
 11 16  1  0  0  0  0
  3 16  1  0  0  0  0
 11 17  1  0  0  0  0
 11 13  1  0  0  0  0
  7 13  1  0  0  0  0
 12 13  1  0  0  0  0
  9 13  1  0  0  0  0
  8  9  1  0  0  0  0
  2  9  1  0  0  0  0
  1  2  1  0  0  0  0
  2  5  1  0  0  0  0
  2  4  1  0  0  0  0
M  CHG  1  24  -1
M  END
> <Shapegauss>
-100.493935

$$$$
