MODEL 1
REMARK VINA RESULT:    -4.325      0.000      0.000
REMARK INTER + INTRA:          -5.457
REMARK INTER:                  -5.337
REMARK INTRA:                  -0.120
REMARK UNBOUND:                -0.120
REMARK  4 active torsions:
REMARK  status: ('A' for Active; 'I' for Inactive)
REMARK    1  A    between atoms: N_3  and  C_5 
REMARK    2  A    between atoms: C_4  and  C_6 
REMARK    3  A    between atoms: C_4  and  C_5 
REMARK    4  A    between atoms: C_6  and  C_10 
ROOT
HETATM    1  C   UNL     1       3.250 -19.444   9.032  1.00  0.00     0.040 C 
ENDROOT
BRANCH   1   2
HETATM    2  C   UNL     1       2.276 -18.457   8.337  1.00  0.00     0.024 C 
BRANCH   2   3
HETATM    3  C   UNL     1       1.102 -17.818   9.104  1.00  0.00     0.113 C 
BRANCH   3   4
HETATM    4  N   UNL     1       1.106 -16.375   9.135  1.00  0.00    -0.425 N 
HETATM    5  C   UNL     1      -0.059 -15.520   9.037  1.00  0.00     0.139 C 
HETATM    6  H   UNL     1       1.892 -16.082   8.559  1.00  0.00     0.152 HD
ENDBRANCH   3   4
ENDBRANCH   2   3
ENDBRANCH   1   2
BRANCH   1   7
HETATM    7  C   UNL     1       3.108 -20.870   8.645  1.00  0.00    -0.058 A 
HETATM    8  C   UNL     1       3.713 -21.478   7.580  1.00  0.00     0.007 A 
HETATM    9  C   UNL     1       3.484 -22.845   7.624  1.00  0.00     0.001 A 
HETATM   10  C   UNL     1       2.672 -23.082   8.723  1.00  0.00     0.001 A 
HETATM   11  C   UNL     1       2.375 -21.868   9.307  1.00  0.00     0.007 A 
ENDBRANCH   1   7
TORSDOF 4
ENDMDL
MODEL 2
REMARK VINA RESULT:    -4.009     24.582     26.916
REMARK INTER + INTRA:          -5.067
REMARK INTER:                  -4.810
REMARK INTRA:                  -0.257
REMARK UNBOUND:                -0.120
REMARK  4 active torsions:
REMARK  status: ('A' for Active; 'I' for Inactive)
REMARK    1  A    between atoms: N_3  and  C_5 
REMARK    2  A    between atoms: C_4  and  C_6 
REMARK    3  A    between atoms: C_4  and  C_5 
REMARK    4  A    between atoms: C_6  and  C_10 
ROOT
HETATM    1  C   UNL     1      12.183  -0.039  24.487  1.00  0.00     0.040 C 
ENDROOT
BRANCH   1   2
HETATM    2  C   UNL     1      12.140  -1.153  23.407  1.00  0.00     0.024 C 
BRANCH   2   3
HETATM    3  C   UNL     1      10.811  -1.584  22.757  1.00  0.00     0.113 C 
BRANCH   3   4
HETATM    4  N   UNL     1      10.469  -0.881  21.544  1.00  0.00    -0.425 N 
HETATM    5  C   UNL     1       9.293  -0.059  21.341  1.00  0.00     0.139 C 
HETATM    6  H   UNL     1      10.671  -1.521  20.779  1.00  0.00     0.152 HD
ENDBRANCH   3   4
ENDBRANCH   2   3
ENDBRANCH   1   2
BRANCH   1   7
HETATM    7  C   UNL     1      11.129   1.000  24.384  1.00  0.00    -0.058 A 
HETATM    8  C   UNL     1       9.893   0.952  24.968  1.00  0.00     0.007 A 
HETATM    9  C   UNL     1       9.242   2.164  24.794  1.00  0.00     0.001 A 
HETATM   10  C   UNL     1      10.081   2.968  24.036  1.00  0.00     0.001 A 
HETATM   11  C   UNL     1      11.204   2.233  23.717  1.00  0.00     0.007 A 
ENDBRANCH   1   7
TORSDOF 4
ENDMDL
MODEL 3
REMARK VINA RESULT:    -3.967     25.494     26.730
REMARK INTER + INTRA:          -5.015
REMARK INTER:                  -4.716
REMARK INTRA:                  -0.299
REMARK UNBOUND:                -0.120
REMARK  4 active torsions:
REMARK  status: ('A' for Active; 'I' for Inactive)
REMARK    1  A    between atoms: N_3  and  C_5 
REMARK    2  A    between atoms: C_4  and  C_6 
REMARK    3  A    between atoms: C_4  and  C_5 
REMARK    4  A    between atoms: C_6  and  C_10 
ROOT
HETATM    1  C   UNL     1       9.828  -0.003  23.979  1.00  0.00     0.040 C 
ENDROOT
BRANCH   1   2
HETATM    2  C   UNL     1       9.363   0.861  22.777  1.00  0.00     0.024 C 
BRANCH   2   3
HETATM    3  C   UNL     1      10.315   1.867  22.101  1.00  0.00     0.113 C 
BRANCH   3   4
HETATM    4  N   UNL     1      10.396   3.157  22.743  1.00  0.00    -0.425 N 
HETATM    5  C   UNL     1      11.470   3.611  23.604  1.00  0.00     0.139 C 
HETATM    6  H   UNL     1       9.463   3.357  23.095  1.00  0.00     0.152 HD
ENDBRANCH   3   4
ENDBRANCH   2   3
ENDBRANCH   1   2
BRANCH   1   7
HETATM    7  C   UNL     1      11.219  -0.516  23.905  1.00  0.00    -0.058 A 
HETATM    8  C   UNL     1      11.659  -1.533  23.104  1.00  0.00     0.007 A 
HETATM    9  C   UNL     1      13.041  -1.626  23.177  1.00  0.00     0.001 A 
HETATM   10  C   UNL     1      13.462  -0.670  24.089  1.00  0.00     0.001 A 
HETATM   11  C   UNL     1      12.344  -0.040  24.596  1.00  0.00     0.007 A 
ENDBRANCH   1   7
TORSDOF 4
ENDMDL
MODEL 4
REMARK VINA RESULT:    -3.817     26.272     29.151
REMARK INTER + INTRA:          -4.829
REMARK INTER:                  -4.655
REMARK INTRA:                  -0.175
REMARK UNBOUND:                -0.120
REMARK  4 active torsions:
REMARK  status: ('A' for Active; 'I' for Inactive)
REMARK    1  A    between atoms: N_3  and  C_5 
REMARK    2  A    between atoms: C_4  and  C_6 
REMARK    3  A    between atoms: C_4  and  C_5 
REMARK    4  A    between atoms: C_6  and  C_10 
ROOT
HETATM    1  C   UNL     1      10.457   2.519  23.362  1.00  0.00     0.040 C 
ENDROOT
BRANCH   1   2
HETATM    2  C   UNL     1      10.907   1.428  24.370  1.00  0.00     0.024 C 
BRANCH   2   3
HETATM    3  C   UNL     1      12.215   0.641  24.164  1.00  0.00     0.113 C 
BRANCH   3   4
HETATM    4  N   UNL     1      12.054  -0.786  24.025  1.00  0.00    -0.425 N 
HETATM    5  C   UNL     1      11.570  -1.476  22.847  1.00  0.00     0.139 C 
HETATM    6  H   UNL     1      11.647  -1.112  24.899  1.00  0.00     0.152 HD
ENDBRANCH   3   4
ENDBRANCH   2   3
ENDBRANCH   1   2
BRANCH   1   7
HETATM    7  C   UNL     1      10.880   3.905  23.681  1.00  0.00    -0.058 A 
HETATM    8  C   UNL     1      10.064   4.917  24.105  1.00  0.00     0.007 A 
HETATM    9  C   UNL     1      10.826   6.019  24.463  1.00  0.00     0.001 A 
HETATM   10  C   UNL     1      12.149   5.695  24.204  1.00  0.00     0.001 A 
HETATM   11  C   UNL     1      12.181   4.431  23.653  1.00  0.00     0.007 A 
ENDBRANCH   1   7
TORSDOF 4
ENDMDL
MODEL 5
REMARK VINA RESULT:    -3.800     23.165     24.189
REMARK INTER + INTRA:          -4.809
REMARK INTER:                  -4.623
REMARK INTRA:                  -0.186
REMARK UNBOUND:                -0.120
REMARK  4 active torsions:
REMARK  status: ('A' for Active; 'I' for Inactive)
REMARK    1  A    between atoms: N_3  and  C_5 
REMARK    2  A    between atoms: C_4  and  C_6 
REMARK    3  A    between atoms: C_4  and  C_5 
REMARK    4  A    between atoms: C_6  and  C_10 
ROOT
HETATM    1  C   UNL     1       7.952   0.698  21.295  1.00  0.00     0.040 C 
ENDROOT
BRANCH   1   2
HETATM    2  C   UNL     1       7.708  -0.410  22.354  1.00  0.00     0.024 C 
BRANCH   2   3
HETATM    3  C   UNL     1       8.269  -1.832  22.166  1.00  0.00     0.113 C 
BRANCH   3   4
HETATM    4  N   UNL     1       9.667  -1.896  21.815  1.00  0.00    -0.425 N 
HETATM    5  C   UNL     1      10.776  -1.547  22.680  1.00  0.00     0.139 C 
HETATM    6  H   UNL     1       9.739  -1.527  20.870  1.00  0.00     0.152 HD
ENDBRANCH   3   4
ENDBRANCH   2   3
ENDBRANCH   1   2
BRANCH   1   7
HETATM    7  C   UNL     1       6.946   0.784  20.207  1.00  0.00    -0.058 A 
HETATM    8  C   UNL     1       5.754   1.452  20.265  1.00  0.00     0.007 A 
HETATM    9  C   UNL     1       5.153   1.454  19.016  1.00  0.00     0.001 A 
HETATM   10  C   UNL     1       5.975   0.722  18.172  1.00  0.00     0.001 A 
HETATM   11  C   UNL     1       7.034   0.244  18.915  1.00  0.00     0.007 A 
ENDBRANCH   1   7
TORSDOF 4
ENDMDL
MODEL 6
REMARK VINA RESULT:    -3.785      3.039      4.574
REMARK INTER + INTRA:          -4.790
REMARK INTER:                  -4.622
REMARK INTRA:                  -0.168
REMARK UNBOUND:                -0.120
REMARK  4 active torsions:
REMARK  status: ('A' for Active; 'I' for Inactive)
REMARK    1  A    between atoms: N_3  and  C_5 
REMARK    2  A    between atoms: C_4  and  C_6 
REMARK    3  A    between atoms: C_4  and  C_5 
REMARK    4  A    between atoms: C_6  and  C_10 
ROOT
HETATM    1  C   UNL     1       2.657 -23.595   9.859  1.00  0.00     0.040 C 
ENDROOT
BRANCH   1   2
HETATM    2  C   UNL     1       2.443 -23.063   8.417  1.00  0.00     0.024 C 
BRANCH   2   3
HETATM    3  C   UNL     1       3.422 -22.056   7.784  1.00  0.00     0.113 C 
BRANCH   3   4
HETATM    4  N   UNL     1       3.386 -20.730   8.352  1.00  0.00    -0.425 N 
HETATM    5  C   UNL     1       2.447 -19.682   8.005  1.00  0.00     0.139 C 
HETATM    6  H   UNL     1       4.354 -20.423   8.414  1.00  0.00     0.152 HD
ENDBRANCH   3   4
ENDBRANCH   2   3
ENDBRANCH   1   2
BRANCH   1   7
HETATM    7  C   UNL     1       3.414 -24.866   9.972  1.00  0.00    -0.058 A 
HETATM    8  C   UNL     1       3.819 -25.655   8.930  1.00  0.00     0.007 A 
HETATM    9  C   UNL     1       4.640 -26.670   9.399  1.00  0.00     0.001 A 
HETATM   10  C   UNL     1       4.703 -26.533  10.778  1.00  0.00     0.001 A 
HETATM   11  C   UNL     1       3.892 -25.478  11.141  1.00  0.00     0.007 A 
ENDBRANCH   1   7
TORSDOF 4
ENDMDL
MODEL 7
REMARK VINA RESULT:    -3.781     17.094     18.307
REMARK INTER + INTRA:          -4.785
REMARK INTER:                  -4.616
REMARK INTRA:                  -0.170
REMARK UNBOUND:                -0.120
REMARK  4 active torsions:
REMARK  status: ('A' for Active; 'I' for Inactive)
REMARK    1  A    between atoms: N_3  and  C_5 
REMARK    2  A    between atoms: C_4  and  C_6 
REMARK    3  A    between atoms: C_4  and  C_5 
REMARK    4  A    between atoms: C_6  and  C_10 
ROOT
HETATM    1  C   UNL     1      -3.148  -6.487  18.721  1.00  0.00     0.040 C 
ENDROOT
BRANCH   1   2
HETATM    2  C   UNL     1      -1.839  -6.234  19.516  1.00  0.00     0.024 C 
BRANCH   2   3
HETATM    3  C   UNL     1      -0.693  -7.263  19.517  1.00  0.00     0.113 C 
BRANCH   3   4
HETATM    4  N   UNL     1      -0.556  -8.023  20.736  1.00  0.00    -0.425 N 
HETATM    5  C   UNL     1      -1.564  -8.165  21.767  1.00  0.00     0.139 C 
HETATM    6  H   UNL     1       0.379  -7.829  21.087  1.00  0.00     0.152 HD
ENDBRANCH   3   4
ENDBRANCH   2   3
ENDBRANCH   1   2
BRANCH   1   7
HETATM    7  C   UNL     1      -3.483  -5.471  17.692  1.00  0.00    -0.058 A 
HETATM    8  C   UNL     1      -3.102  -4.158  17.704  1.00  0.00     0.007 A 
HETATM    9  C   UNL     1      -3.454  -3.553  16.507  1.00  0.00     0.001 A 
HETATM   10  C   UNL     1      -4.118  -4.509  15.753  1.00  0.00     0.001 A 
HETATM   11  C   UNL     1      -4.207  -5.662  16.504  1.00  0.00     0.007 A 
ENDBRANCH   1   7
TORSDOF 4
ENDMDL
MODEL 8
REMARK VINA RESULT:    -3.725     22.198     24.643
REMARK INTER + INTRA:          -4.716
REMARK INTER:                  -4.591
REMARK INTRA:                  -0.125
REMARK UNBOUND:                -0.120
REMARK  4 active torsions:
REMARK  status: ('A' for Active; 'I' for Inactive)
REMARK    1  A    between atoms: N_3  and  C_5 
REMARK    2  A    between atoms: C_4  and  C_6 
REMARK    3  A    between atoms: C_4  and  C_5 
REMARK    4  A    between atoms: C_6  and  C_10 
ROOT
HETATM    1  C   UNL     1       9.206  -1.265  23.796  1.00  0.00     0.040 C 
ENDROOT
BRANCH   1   2
HETATM    2  C   UNL     1       8.715  -2.399  22.857  1.00  0.00     0.024 C 
BRANCH   2   3
HETATM    3  C   UNL     1       7.615  -3.383  23.300  1.00  0.00     0.113 C 
BRANCH   3   4
HETATM    4  N   UNL     1       7.797  -4.743  22.855  1.00  0.00    -0.425 N 
HETATM    5  C   UNL     1       7.013  -5.417  21.839  1.00  0.00     0.139 C 
HETATM    6  H   UNL     1       7.963  -5.295  23.693  1.00  0.00     0.152 HD
ENDBRANCH   3   4
ENDBRANCH   2   3
ENDBRANCH   1   2
BRANCH   1   7
HETATM    7  C   UNL     1      10.665  -0.995  23.772  1.00  0.00    -0.058 A 
HETATM    8  C   UNL     1      11.333  -0.116  24.580  1.00  0.00     0.007 A 
HETATM    9  C   UNL     1      12.700  -0.247  24.390  1.00  0.00     0.001 A 
HETATM   10  C   UNL     1      12.880  -1.201  23.400  1.00  0.00     0.001 A 
HETATM   11  C   UNL     1      11.636  -1.606  22.963  1.00  0.00     0.007 A 
ENDBRANCH   1   7
TORSDOF 4
ENDMDL
MODEL 9
REMARK VINA RESULT:    -3.694     27.471     28.709
REMARK INTER + INTRA:          -4.678
REMARK INTER:                  -4.443
REMARK INTRA:                  -0.235
REMARK UNBOUND:                -0.120
REMARK  4 active torsions:
REMARK  status: ('A' for Active; 'I' for Inactive)
REMARK    1  A    between atoms: N_3  and  C_5 
REMARK    2  A    between atoms: C_4  and  C_6 
REMARK    3  A    between atoms: C_4  and  C_5 
REMARK    4  A    between atoms: C_6  and  C_10 
ROOT
HETATM    1  C   UNL     1       9.017   2.832  24.654  1.00  0.00     0.040 C 
ENDROOT
BRANCH   1   2
HETATM    2  C   UNL     1       9.035   3.977  23.607  1.00  0.00     0.024 C 
BRANCH   2   3
HETATM    3  C   UNL     1       9.664   5.345  23.929  1.00  0.00     0.113 C 
BRANCH   3   4
HETATM    4  N   UNL     1      10.888   5.636  23.221  1.00  0.00    -0.425 N 
HETATM    5  C   UNL     1      12.221   5.623  23.788  1.00  0.00     0.139 C 
HETATM    6  H   UNL     1      10.690   6.442  22.633  1.00  0.00     0.152 HD
ENDBRANCH   3   4
ENDBRANCH   2   3
ENDBRANCH   1   2
BRANCH   1   7
HETATM    7  C   UNL     1      10.077   1.804  24.503  1.00  0.00    -0.058 A 
HETATM    8  C   UNL     1      11.289   1.982  23.896  1.00  0.00     0.007 A 
HETATM    9  C   UNL     1      12.083   0.861  24.088  1.00  0.00     0.001 A 
HETATM   10  C   UNL     1      11.320  -0.057  24.793  1.00  0.00     0.001 A 
HETATM   11  C   UNL     1      10.065   0.484  24.982  1.00  0.00     0.007 A 
ENDBRANCH   1   7
TORSDOF 4
ENDMDL
