REMARK  4 active torsions:
REMARK  status: ('A' for Active; 'I' for Inactive)
REMARK    1  A    between atoms: N_3  and  C_5 
REMARK    2  A    between atoms: C_4  and  C_6 
REMARK    3  A    between atoms: C_4  and  C_5 
REMARK    4  A    between atoms: C_6  and  C_10 
ROOT
HETATM    1  C   UNL     1       8.807  -2.101  21.858  1.00  0.00     0.040 C 
ENDROOT
BRANCH   1   2
HETATM    2  C   UNL     1      10.284  -1.737  22.165  1.00  0.00     0.024 C 
BRANCH   2   3
HETATM    3  C   UNL     1      10.729  -1.332  23.583  1.00  0.00     0.113 C 
BRANCH   3   4
HETATM    4  N   UNL     1       9.661  -1.205  24.545  1.00  0.00    -0.425 N 
HETATM    5  C   UNL     1       8.978  -2.299  25.206  1.00  0.00     0.139 C 
HETATM    6  H   UNL     1       9.044  -0.479  24.189  1.00  0.00     0.152 HD
ENDBRANCH   3   4
ENDBRANCH   2   3
ENDBRANCH   1   2
BRANCH   1   7
HETATM    7  C   UNL     1       7.936  -0.971  21.449  1.00  0.00    -0.058 A 
HETATM    8  C   UNL     1       8.269   0.355  21.487  1.00  0.00     0.007 A 
HETATM    9  C   UNL     1       7.277   1.108  20.877  1.00  0.00     0.001 A 
HETATM   10  C   UNL     1       6.278   0.225  20.495  1.00  0.00     0.001 A 
HETATM   11  C   UNL     1       6.641  -1.039  20.912  1.00  0.00     0.007 A 
ENDBRANCH   1   7
TORSDOF 4
