REMARK  4 active torsions:
REMARK  status: ('A' for Active; 'I' for Inactive)
REMARK    1  A    between atoms: S_2  and  N_5 
REMARK    2  A    between atoms: N_5  and  C_7 
REMARK    3  A    between atoms: C_15  and  C_16 
REMARK       I    between atoms: C_16  and  N_18 
REMARK    4  A    between atoms: N_18  and  C_20 
ROOT
HETATM    1  C   UNL     1       8.959  -2.933  24.142  1.00  0.00     0.109 C 
HETATM    2  C   UNL     1       9.435  -1.928  23.470  1.00  0.00    -0.008 A 
HETATM    3  C   UNL     1      10.347  -1.187  23.230  1.00  0.00     0.057 A 
HETATM    4  C   UNL     1      11.037   0.037  24.328  1.00  0.00    -0.007 C 
HETATM    5  C   UNL     1      12.008   0.290  24.277  1.00  0.00    -0.025 C 
HETATM    6  C   UNL     1      13.158  -0.244  23.413  1.00  0.00     0.053 C 
HETATM    7  C   UNL     1      12.732  -1.260  22.679  1.00  0.00    -0.025 C 
HETATM    8  C   UNL     1      11.797  -1.749  22.557  1.00  0.00    -0.007 C 
HETATM    9  C   UNL     1       9.720  -0.605  22.391  1.00  0.00     0.040 A 
ENDROOT
BRANCH   9  10
HETATM   10  C   UNL     1       9.087   0.049  21.384  1.00  0.00     0.254 C 
HETATM   11  O   UNL     1       9.582   0.992  20.996  1.00  0.00    -0.268 OA
HETATM   12  N   UNL     1       7.985  -0.572  21.045  1.00  0.00    -0.321 N 
ATOM     13  HN  UNL     1       7.737  -1.448  21.505  1.00  0.00     0.169 HD
BRANCH  12  14
HETATM   14  C   UNL     1       7.236  -0.103  20.165  1.00  0.00     0.056 A 
HETATM   15  C   UNL     1       7.210   0.007  18.874  1.00  0.00     0.117 A 
HETATM   16  N   UNL     1       6.777   0.297  17.798  1.00  0.00    -0.373 N 
HETATM   17  C   UNL     1       5.572   0.923  18.229  1.00  0.00     0.088 A 
ATOM     18  HN  UNL     1       7.153   0.144  16.862  1.00  0.00     0.164 HD
HETATM   19  C   UNL     1       5.240   0.995  19.429  1.00  0.00     0.026 A 
HETATM   20  C   UNL     1       5.831   0.566  20.530  1.00  0.00    -0.033 A 
HETATM   21  C   UNL     1       5.334   0.709  21.985  1.00  0.00     0.050 C 
ENDBRANCH  12  14
ENDBRANCH   9  10
BRANCH   1  22
HETATM   22  N   UNL     1       8.097  -3.543  24.670  1.00  0.00    -0.295 N 
ATOM     23  HN  UNL     1       7.203  -3.599  24.182  1.00  0.00     0.177 HD
BRANCH  22  24
HETATM   24  S   UNL     1       8.203  -4.305  26.108  1.00  0.00     0.226 S 
HETATM   25  C   UNL     1       6.585  -4.835  26.411  1.00  0.00     0.186 C 
HETATM   26  O   UNL     1       9.046  -5.460  26.038  1.00  0.00    -0.206 OA
HETATM   27  O   UNL     1       8.606  -3.430  27.148  1.00  0.00    -0.206 OA
ENDBRANCH  22  24
ENDBRANCH   1  22
TORSDOF 4
