MODEL 1
REMARK VINA RESULT:    -7.866      0.000      0.000
REMARK INTER + INTRA:         -10.576
REMARK INTER:                  -9.706
REMARK INTRA:                  -0.870
REMARK UNBOUND:                -0.870
REMARK  4 active torsions:
REMARK  status: ('A' for Active; 'I' for Inactive)
REMARK    1  A    between atoms: S_2  and  N_5 
REMARK    2  A    between atoms: N_5  and  C_7 
REMARK    3  A    between atoms: C_15  and  C_16 
REMARK       I    between atoms: C_16  and  N_18 
REMARK    4  A    between atoms: N_18  and  C_20 
ROOT
HETATM    1  C   UNL     1       8.804   0.950  22.170  1.00  0.00     0.109 C 
HETATM    2  C   UNL     1       9.310   0.095  23.008  1.00  0.00    -0.008 A 
HETATM    3  C   UNL     1      10.276  -0.416  23.503  1.00  0.00     0.057 A 
HETATM    4  C   UNL     1      11.448  -1.482  22.685  1.00  0.00    -0.007 C 
HETATM    5  C   UNL     1      12.411  -1.510  22.972  1.00  0.00    -0.025 C 
HETATM    6  C   UNL     1      13.185  -0.710  24.028  1.00  0.00     0.053 C 
HETATM    7  C   UNL     1      12.392   0.204  24.567  1.00  0.00    -0.025 C 
HETATM    8  C   UNL     1      11.373   0.474  24.438  1.00  0.00    -0.007 C 
HETATM    9  C   UNL     1       9.607  -1.102  24.222  1.00  0.00     0.040 A 
ENDROOT
BRANCH   9  10
HETATM   10  C   UNL     1       8.907  -1.855  25.109  1.00  0.00     0.254 C 
HETATM   11  O   UNL     1       8.600  -1.351  26.077  1.00  0.00    -0.268 OA
HETATM   12  N   UNL     1       8.716  -3.064  24.645  1.00  0.00    -0.321 N 
ATOM     13  HN  UNL     1       9.049  -3.306  23.712  1.00  0.00     0.169 HD
BRANCH  12  14
HETATM   14  C   UNL     1       8.130  -3.924  25.333  1.00  0.00     0.056 A 
HETATM   15  C   UNL     1       8.417  -4.778  26.265  1.00  0.00     0.117 A 
HETATM   16  N   UNL     1       8.222  -5.627  27.083  1.00  0.00    -0.373 N 
HETATM   17  C   UNL     1       6.828  -5.809  26.855  1.00  0.00     0.088 A 
ATOM     18  HN  UNL     1       8.857  -6.080  27.741  1.00  0.00     0.164 HD
HETATM   19  C   UNL     1       6.185  -5.137  26.024  1.00  0.00     0.026 A 
HETATM   20  C   UNL     1       6.556  -4.170  25.204  1.00  0.00    -0.033 A 
HETATM   21  C   UNL     1       5.675  -3.393  24.201  1.00  0.00     0.050 C 
ENDBRANCH  12  14
ENDBRANCH   9  10
BRANCH   1  22
HETATM   22  N   UNL     1       7.982   1.338  21.417  1.00  0.00    -0.295 N 
ATOM     23  HN  UNL     1       7.778   2.337  21.427  1.00  0.00     0.177 HD
BRANCH  22  24
HETATM   24  S   UNL     1       7.141   0.423  20.360  1.00  0.00     0.226 S 
HETATM   25  C   UNL     1       5.696   1.333  20.090  1.00  0.00     0.186 C 
HETATM   26  O   UNL     1       7.825   0.289  19.110  1.00  0.00    -0.206 OA
HETATM   27  O   UNL     1       6.798  -0.841  20.903  1.00  0.00    -0.206 OA
ENDBRANCH  22  24
ENDBRANCH   1  22
TORSDOF 4
ENDMDL
MODEL 2
REMARK VINA RESULT:    -7.106      2.619      5.318
REMARK INTER + INTRA:          -9.638
REMARK INTER:                  -8.956
REMARK INTRA:                  -0.682
REMARK UNBOUND:                -0.870
REMARK  4 active torsions:
REMARK  status: ('A' for Active; 'I' for Inactive)
REMARK    1  A    between atoms: S_2  and  N_5 
REMARK    2  A    between atoms: N_5  and  C_7 
REMARK    3  A    between atoms: C_15  and  C_16 
REMARK       I    between atoms: C_16  and  N_18 
REMARK    4  A    between atoms: N_18  and  C_20 
ROOT
HETATM    1  C   UNL     1       9.475  -0.028  21.173  1.00  0.00     0.109 C 
HETATM    2  C   UNL     1       8.224  -0.339  21.006  1.00  0.00    -0.008 A 
HETATM    3  C   UNL     1       7.152  -0.082  20.535  1.00  0.00     0.057 A 
HETATM    4  C   UNL     1       6.096   1.284  20.981  1.00  0.00    -0.007 C 
HETATM    5  C   UNL     1       5.481   1.705  20.307  1.00  0.00    -0.025 C 
HETATM    6  C   UNL     1       5.273   1.442  18.810  1.00  0.00     0.053 C 
HETATM    7  C   UNL     1       6.140   0.533  18.391  1.00  0.00    -0.025 C 
HETATM    8  C   UNL     1       6.903  -0.039  18.859  1.00  0.00    -0.007 C 
HETATM    9  C   UNL     1       6.660  -1.078  20.983  1.00  0.00     0.040 A 
ENDROOT
BRANCH   9  10
HETATM   10  C   UNL     1       6.062  -2.222  21.405  1.00  0.00     0.254 C 
HETATM   11  O   UNL     1       5.597  -2.880  20.608  1.00  0.00    -0.268 OA
HETATM   12  N   UNL     1       6.150  -2.341  22.706  1.00  0.00    -0.321 N 
ATOM     13  HN  UNL     1       6.657  -1.638  23.245  1.00  0.00     0.169 HD
BRANCH  12  14
HETATM   14  C   UNL     1       5.621  -3.306  23.294  1.00  0.00     0.056 A 
HETATM   15  C   UNL     1       4.433  -3.712  23.612  1.00  0.00     0.117 A 
HETATM   16  N   UNL     1       3.596  -4.438  24.063  1.00  0.00    -0.373 N 
HETATM   17  C   UNL     1       4.462  -5.444  24.579  1.00  0.00     0.088 A 
ATOM     18  HN  UNL     1       2.579  -4.361  24.075  1.00  0.00     0.164 HD
HETATM   19  C   UNL     1       5.702  -5.403  24.446  1.00  0.00     0.026 A 
HETATM   20  C   UNL     1       6.492  -4.522  23.858  1.00  0.00    -0.033 A 
HETATM   21  C   UNL     1       8.031  -4.560  23.749  1.00  0.00     0.050 C 
ENDBRANCH  12  14
ENDBRANCH   9  10
BRANCH   1  22
HETATM   22  N   UNL     1      10.489   0.001  21.777  1.00  0.00    -0.295 N 
ATOM     23  HN  UNL     1      11.162   0.722  21.517  1.00  0.00     0.177 HD
BRANCH  22  24
HETATM   24  S   UNL     1      10.914  -1.005  22.988  1.00  0.00     0.226 S 
HETATM   25  C   UNL     1      11.534   0.057  24.204  1.00  0.00     0.186 C 
HETATM   26  O   UNL     1       9.782  -1.693  23.531  1.00  0.00    -0.206 OA
HETATM   27  O   UNL     1      11.934  -1.909  22.599  1.00  0.00    -0.206 OA
ENDBRANCH  22  24
ENDBRANCH   1  22
TORSDOF 4
ENDMDL
MODEL 3
REMARK VINA RESULT:    -6.938     13.917     16.429
REMARK INTER + INTRA:          -9.430
REMARK INTER:                  -8.621
REMARK INTRA:                  -0.809
REMARK UNBOUND:                -0.870
REMARK  4 active torsions:
REMARK  status: ('A' for Active; 'I' for Inactive)
REMARK    1  A    between atoms: S_2  and  N_5 
REMARK    2  A    between atoms: N_5  and  C_7 
REMARK    3  A    between atoms: C_15  and  C_16 
REMARK       I    between atoms: C_16  and  N_18 
REMARK    4  A    between atoms: N_18  and  C_20 
ROOT
HETATM    1  C   UNL     1      24.045  -4.000  24.633  1.00  0.00     0.109 C 
HETATM    2  C   UNL     1      23.704  -2.945  23.954  1.00  0.00    -0.008 A 
HETATM    3  C   UNL     1      23.154  -1.880  23.910  1.00  0.00     0.057 A 
HETATM    4  C   UNL     1      21.400  -1.586  24.039  1.00  0.00    -0.007 C 
HETATM    5  C   UNL     1      21.046  -0.733  24.435  1.00  0.00    -0.025 C 
HETATM    6  C   UNL     1      21.756   0.468  25.074  1.00  0.00     0.053 C 
HETATM    7  C   UNL     1      23.058   0.236  25.138  1.00  0.00    -0.025 C 
HETATM    8  C   UNL     1      23.686  -0.565  24.836  1.00  0.00    -0.007 C 
HETATM    9  C   UNL     1      23.465  -1.710  22.765  1.00  0.00     0.040 A 
ENDROOT
BRANCH   9  10
HETATM   10  C   UNL     1      23.842  -1.429  21.492  1.00  0.00     0.254 C 
HETATM   11  O   UNL     1      24.796  -0.832  21.362  1.00  0.00    -0.268 OA
HETATM   12  N   UNL     1      22.991  -1.930  20.632  1.00  0.00    -0.321 N 
ATOM     13  HN  UNL     1      22.200  -2.481  20.967  1.00  0.00     0.169 HD
BRANCH  12  14
HETATM   14  C   UNL     1      23.138  -1.741  19.408  1.00  0.00     0.056 A 
HETATM   15  C   UNL     1      22.830  -0.846  18.523  1.00  0.00     0.117 A 
HETATM   16  N   UNL     1      22.788  -0.322  17.449  1.00  0.00    -0.373 N 
HETATM   17  C   UNL     1      23.478  -1.325  16.710  1.00  0.00     0.088 A 
ATOM     18  HN  UNL     1      22.383   0.566  17.153  1.00  0.00     0.164 HD
HETATM   19  C   UNL     1      23.949  -2.352  17.240  1.00  0.00     0.026 A 
HETATM   20  C   UNL     1      23.950  -2.770  18.493  1.00  0.00    -0.033 A 
HETATM   21  C   UNL     1      24.563  -4.071  19.053  1.00  0.00     0.050 C 
ENDBRANCH  12  14
ENDBRANCH   9  10
BRANCH   1  22
HETATM   22  N   UNL     1      24.296  -5.147  24.755  1.00  0.00    -0.295 N 
ATOM     23  HN  UNL     1      24.273  -5.719  23.911  1.00  0.00     0.177 HD
BRANCH  22  24
HETATM   24  S   UNL     1      24.675  -5.902  26.150  1.00  0.00     0.226 S 
HETATM   25  C   UNL     1      26.361  -6.251  25.981  1.00  0.00     0.186 C 
HETATM   26  O   UNL     1      24.507  -5.044  27.283  1.00  0.00    -0.206 OA
HETATM   27  O   UNL     1      23.965  -7.119  26.309  1.00  0.00    -0.206 OA
ENDBRANCH  22  24
ENDBRANCH   1  22
TORSDOF 4
ENDMDL
MODEL 4
REMARK VINA RESULT:    -6.783      3.672      7.323
REMARK INTER + INTRA:          -9.240
REMARK INTER:                  -8.576
REMARK INTRA:                  -0.663
REMARK UNBOUND:                -0.870
REMARK  4 active torsions:
REMARK  status: ('A' for Active; 'I' for Inactive)
REMARK    1  A    between atoms: S_2  and  N_5 
REMARK    2  A    between atoms: N_5  and  C_7 
REMARK    3  A    between atoms: C_15  and  C_16 
REMARK       I    between atoms: C_16  and  N_18 
REMARK    4  A    between atoms: N_18  and  C_20 
ROOT
HETATM    1  C   UNL     1       5.701  -6.091  26.093  1.00  0.00     0.109 C 
HETATM    2  C   UNL     1       6.395  -5.297  25.333  1.00  0.00    -0.008 A 
HETATM    3  C   UNL     1       6.612  -4.839  24.246  1.00  0.00     0.057 A 
HETATM    4  C   UNL     1       7.255  -5.718  22.834  1.00  0.00    -0.007 C 
HETATM    5  C   UNL     1       7.005  -5.449  21.899  1.00  0.00    -0.025 C 
HETATM    6  C   UNL     1       6.046  -4.376  21.367  1.00  0.00     0.053 C 
HETATM    7  C   UNL     1       5.427  -3.788  22.379  1.00  0.00    -0.025 C 
HETATM    8  C   UNL     1       5.468  -3.889  23.435  1.00  0.00    -0.007 C 
HETATM    9  C   UNL     1       7.489  -4.136  24.662  1.00  0.00     0.040 A 
ENDROOT
BRANCH   9  10
HETATM   10  C   UNL     1       8.444  -3.268  25.082  1.00  0.00     0.254 C 
HETATM   11  O   UNL     1       8.782  -3.362  26.159  1.00  0.00    -0.268 OA
HETATM   12  N   UNL     1       8.801  -2.463  24.112  1.00  0.00    -0.321 N 
ATOM     13  HN  UNL     1       8.390  -2.575  23.185  1.00  0.00     0.169 HD
BRANCH  12  14
HETATM   14  C   UNL     1       9.638  -1.560  24.311  1.00  0.00     0.056 A 
HETATM   15  C   UNL     1      10.888  -1.328  24.062  1.00  0.00     0.117 A 
HETATM   16  N   UNL     1      11.916  -0.717  24.039  1.00  0.00    -0.373 N 
HETATM   17  C   UNL     1      11.476   0.441  24.743  1.00  0.00     0.088 A 
ATOM     18  HN  UNL     1      12.825  -0.951  23.640  1.00  0.00     0.164 HD
HETATM   19  C   UNL     1      10.302   0.586  25.137  1.00  0.00     0.026 A 
HETATM   20  C   UNL     1       9.239  -0.192  25.036  1.00  0.00    -0.033 A 
HETATM   21  C   UNL     1       7.815   0.080  25.566  1.00  0.00     0.050 C 
ENDBRANCH  12  14
ENDBRANCH   9  10
BRANCH   1  22
HETATM   22  N   UNL     1       5.551  -6.815  27.014  1.00  0.00    -0.295 N 
ATOM     23  HN  UNL     1       5.882  -7.774  26.908  1.00  0.00     0.177 HD
BRANCH  22  24
HETATM   24  S   UNL     1       4.864  -6.422  28.440  1.00  0.00     0.226 S 
HETATM   25  C   UNL     1       5.735  -5.015  28.941  1.00  0.00     0.186 C 
HETATM   26  O   UNL     1       3.487  -6.064  28.287  1.00  0.00    -0.206 OA
HETATM   27  O   UNL     1       5.032  -7.440  29.412  1.00  0.00    -0.206 OA
ENDBRANCH  22  24
ENDBRANCH   1  22
TORSDOF 4
ENDMDL
MODEL 5
REMARK VINA RESULT:    -6.720      2.893      5.267
REMARK INTER + INTRA:          -9.161
REMARK INTER:                  -8.464
REMARK INTRA:                  -0.697
REMARK UNBOUND:                -0.870
REMARK  4 active torsions:
REMARK  status: ('A' for Active; 'I' for Inactive)
REMARK    1  A    between atoms: S_2  and  N_5 
REMARK    2  A    between atoms: N_5  and  C_7 
REMARK    3  A    between atoms: C_15  and  C_16 
REMARK       I    between atoms: C_16  and  N_18 
REMARK    4  A    between atoms: N_18  and  C_20 
ROOT
HETATM    1  C   UNL     1       9.358  -2.314  24.028  1.00  0.00     0.109 C 
HETATM    2  C   UNL     1       8.400  -3.125  24.364  1.00  0.00    -0.008 A 
HETATM    3  C   UNL     1       7.472  -3.814  24.044  1.00  0.00     0.057 A 
HETATM    4  C   UNL     1       5.912  -3.255  23.385  1.00  0.00    -0.007 C 
HETATM    5  C   UNL     1       5.386  -3.825  22.745  1.00  0.00    -0.025 C 
HETATM    6  C   UNL     1       5.691  -5.183  22.100  1.00  0.00     0.053 C 
HETATM    7  C   UNL     1       6.907  -5.578  22.441  1.00  0.00    -0.025 C 
HETATM    8  C   UNL     1       7.675  -5.176  23.056  1.00  0.00    -0.007 C 
HETATM    9  C   UNL     1       7.280  -4.168  25.172  1.00  0.00     0.040 A 
ENDROOT
BRANCH   9  10
HETATM   10  C   UNL     1       7.054  -4.658  26.418  1.00  0.00     0.254 C 
HETATM   11  O   UNL     1       7.925  -4.637  27.142  1.00  0.00    -0.268 OA
HETATM   12  N   UNL     1       5.817  -5.072  26.538  1.00  0.00    -0.321 N 
ATOM     13  HN  UNL     1       5.169  -4.961  25.758  1.00  0.00     0.169 HD
BRANCH  12  14
HETATM   14  C   UNL     1       5.423  -5.598  27.598  1.00  0.00     0.056 A 
HETATM   15  C   UNL     1       5.399  -6.774  28.144  1.00  0.00     0.117 A 
HETATM   16  N   UNL     1       5.190  -7.597  28.985  1.00  0.00    -0.373 N 
HETATM   17  C   UNL     1       4.564  -6.751  29.944  1.00  0.00     0.088 A 
ATOM     18  HN  UNL     1       5.396  -8.596  29.008  1.00  0.00     0.164 HD
HETATM   19  C   UNL     1       4.420  -5.524  29.770  1.00  0.00     0.026 A 
HETATM   20  C   UNL     1       4.763  -4.734  28.769  1.00  0.00    -0.033 A 
HETATM   21  C   UNL     1       4.535  -3.211  28.647  1.00  0.00     0.050 C 
ENDBRANCH  12  14
ENDBRANCH   9  10
BRANCH   1  22
HETATM   22  N   UNL     1      10.094  -1.409  24.209  1.00  0.00    -0.295 N 
ATOM     23  HN  UNL     1      10.012  -0.915  25.098  1.00  0.00     0.177 HD
BRANCH  22  24
HETATM   24  S   UNL     1      11.231  -0.874  23.169  1.00  0.00     0.226 S 
HETATM   25  C   UNL     1      12.157   0.241  24.112  1.00  0.00     0.186 C 
HETATM   26  O   UNL     1      12.101  -1.929  22.742  1.00  0.00    -0.206 OA
HETATM   27  O   UNL     1      10.665  -0.189  22.065  1.00  0.00    -0.206 OA
ENDBRANCH  22  24
ENDBRANCH   1  22
TORSDOF 4
ENDMDL
MODEL 6
REMARK VINA RESULT:    -6.603      3.146      7.481
REMARK INTER + INTRA:          -9.017
REMARK INTER:                  -8.280
REMARK INTRA:                  -0.737
REMARK UNBOUND:                -0.870
REMARK  4 active torsions:
REMARK  status: ('A' for Active; 'I' for Inactive)
REMARK    1  A    between atoms: S_2  and  N_5 
REMARK    2  A    between atoms: N_5  and  C_7 
REMARK    3  A    between atoms: C_15  and  C_16 
REMARK       I    between atoms: C_16  and  N_18 
REMARK    4  A    between atoms: N_18  and  C_20 
ROOT
HETATM    1  C   UNL     1       5.597  -4.339  26.527  1.00  0.00     0.109 C 
HETATM    2  C   UNL     1       6.207  -3.902  25.466  1.00  0.00    -0.008 A 
HETATM    3  C   UNL     1       6.494  -4.042  24.310  1.00  0.00     0.057 A 
HETATM    4  C   UNL     1       7.552  -5.303  23.625  1.00  0.00    -0.007 C 
HETATM    5  C   UNL     1       7.409  -5.649  22.693  1.00  0.00    -0.025 C 
HETATM    6  C   UNL     1       6.333  -5.342  21.644  1.00  0.00     0.053 C 
HETATM    7  C   UNL     1       5.432  -4.517  22.155  1.00  0.00    -0.025 C 
HETATM    8  C   UNL     1       5.315  -4.033  23.093  1.00  0.00    -0.007 C 
HETATM    9  C   UNL     1       7.100  -3.009  24.283  1.00  0.00     0.040 A 
ENDROOT
BRANCH   9  10
HETATM   10  C   UNL     1       7.743  -1.819  24.169  1.00  0.00     0.254 C 
HETATM   11  O   UNL     1       7.900  -1.229  25.124  1.00  0.00    -0.268 OA
HETATM   12  N   UNL     1       8.071  -1.584  22.923  1.00  0.00    -0.321 N 
ATOM     13  HN  UNL     1       7.866  -2.280  22.207  1.00  0.00     0.169 HD
BRANCH  12  14
HETATM   14  C   UNL     1       8.633  -0.517  22.604  1.00  0.00     0.056 A 
HETATM   15  C   UNL     1       8.300   0.698  22.297  1.00  0.00     0.117 A 
HETATM   16  N   UNL     1       8.457   1.845  22.001  1.00  0.00    -0.373 N 
HETATM   17  C   UNL     1       9.879   1.837  21.914  1.00  0.00     0.088 A 
ATOM     18  HN  UNL     1       7.783   2.597  21.855  1.00  0.00     0.164 HD
HETATM   19  C   UNL     1      10.565   0.825  22.163  1.00  0.00     0.026 A 
HETATM   20  C   UNL     1      10.225  -0.395  22.536  1.00  0.00    -0.033 A 
HETATM   21  C   UNL     1      11.160  -1.591  22.819  1.00  0.00     0.050 C 
ENDBRANCH  12  14
ENDBRANCH   9  10
BRANCH   1  22
HETATM   22  N   UNL     1       5.464  -4.479  27.692  1.00  0.00    -0.295 N 
ATOM     23  HN  UNL     1       4.822  -3.844  28.165  1.00  0.00     0.177 HD
BRANCH  22  24
HETATM   24  S   UNL     1       6.213  -5.595  28.616  1.00  0.00     0.226 S 
HETATM   25  C   UNL     1       5.198  -6.988  28.480  1.00  0.00     0.186 C 
HETATM   26  O   UNL     1       7.506  -5.932  28.101  1.00  0.00    -0.206 OA
HETATM   27  O   UNL     1       6.282  -5.203  29.976  1.00  0.00    -0.206 OA
ENDBRANCH  22  24
ENDBRANCH   1  22
TORSDOF 4
ENDMDL
MODEL 7
REMARK VINA RESULT:    -6.424     24.893     26.470
REMARK INTER + INTRA:          -8.796
REMARK INTER:                  -7.870
REMARK INTRA:                  -0.926
REMARK UNBOUND:                -0.870
REMARK  4 active torsions:
REMARK  status: ('A' for Active; 'I' for Inactive)
REMARK    1  A    between atoms: S_2  and  N_5 
REMARK    2  A    between atoms: N_5  and  C_7 
REMARK    3  A    between atoms: C_15  and  C_16 
REMARK       I    between atoms: C_16  and  N_18 
REMARK    4  A    between atoms: N_18  and  C_20 
ROOT
HETATM    1  C   UNL     1      22.737 -14.095   6.180  1.00  0.00     0.109 C 
HETATM    2  C   UNL     1      21.855 -14.928   5.716  1.00  0.00    -0.008 A 
HETATM    3  C   UNL     1      21.254 -15.380   4.781  1.00  0.00     0.057 A 
HETATM    4  C   UNL     1      20.043 -14.529   3.787  1.00  0.00    -0.007 C 
HETATM    5  C   UNL     1      19.918 -14.756   2.816  1.00  0.00    -0.025 C 
HETATM    6  C   UNL     1      20.657 -15.734   1.893  1.00  0.00     0.053 C 
HETATM    7  C   UNL     1      21.666 -16.289   2.545  1.00  0.00    -0.025 C 
HETATM    8  C   UNL     1      22.043 -16.214   3.535  1.00  0.00    -0.007 C 
HETATM    9  C   UNL     1      20.666 -16.163   5.472  1.00  0.00     0.040 A 
ENDROOT
BRANCH   9  10
HETATM   10  C   UNL     1      20.020 -17.117   6.189  1.00  0.00     0.254 C 
HETATM   11  O   UNL     1      19.050 -16.811   6.689  1.00  0.00    -0.268 OA
HETATM   12  N   UNL     1      20.674 -18.251   6.153  1.00  0.00    -0.321 N 
ATOM     13  HN  UNL     1      21.527 -18.324   5.599  1.00  0.00     0.169 HD
BRANCH  12  14
HETATM   14  C   UNL     1      20.264 -19.242   6.789  1.00  0.00     0.056 A 
HETATM   15  C   UNL     1      19.531 -20.290   6.581  1.00  0.00     0.117 A 
HETATM   16  N   UNL     1      18.986 -21.325   6.830  1.00  0.00    -0.373 N 
HETATM   17  C   UNL     1      19.374 -21.432   8.196  1.00  0.00     0.088 A 
ATOM     18  HN  UNL     1      18.420 -21.940   6.245  1.00  0.00     0.164 HD
HETATM   19  C   UNL     1      20.111 -20.597   8.757  1.00  0.00     0.026 A 
HETATM   20  C   UNL     1      20.687 -19.495   8.310  1.00  0.00    -0.033 A 
HETATM   21  C   UNL     1      21.590 -18.517   9.093  1.00  0.00     0.050 C 
ENDBRANCH  12  14
ENDBRANCH   9  10
BRANCH   1  22
HETATM   22  N   UNL     1      23.192 -13.381   7.003  1.00  0.00    -0.295 N 
ATOM     23  HN  UNL     1      23.422 -12.430   6.716  1.00  0.00     0.177 HD
BRANCH  22  24
HETATM   24  S   UNL     1      23.486 -13.775   8.558  1.00  0.00     0.226 S 
HETATM   25  C   UNL     1      21.975 -13.483   9.348  1.00  0.00     0.186 C 
HETATM   26  O   UNL     1      23.807 -15.162   8.705  1.00  0.00    -0.206 OA
HETATM   27  O   UNL     1      24.480 -12.948   9.140  1.00  0.00    -0.206 OA
ENDBRANCH  22  24
ENDBRANCH   1  22
TORSDOF 4
ENDMDL
MODEL 8
REMARK VINA RESULT:    -6.348      6.142      8.457
REMARK INTER + INTRA:          -8.703
REMARK INTER:                  -7.899
REMARK INTRA:                  -0.804
REMARK UNBOUND:                -0.870
REMARK  4 active torsions:
REMARK  status: ('A' for Active; 'I' for Inactive)
REMARK    1  A    between atoms: S_2  and  N_5 
REMARK    2  A    between atoms: N_5  and  C_7 
REMARK    3  A    between atoms: C_15  and  C_16 
REMARK       I    between atoms: C_16  and  N_18 
REMARK    4  A    between atoms: N_18  and  C_20 
ROOT
HETATM    1  C   UNL     1       6.686  -5.511  26.362  1.00  0.00     0.109 C 
HETATM    2  C   UNL     1       5.894  -5.677  25.345  1.00  0.00    -0.008 A 
HETATM    3  C   UNL     1       5.624  -5.447  24.200  1.00  0.00     0.057 A 
HETATM    4  C   UNL     1       5.127  -3.874  23.522  1.00  0.00    -0.007 C 
HETATM    5  C   UNL     1       5.345  -3.627  22.573  1.00  0.00    -0.025 C 
HETATM    6  C   UNL     1       6.147  -4.356  21.487  1.00  0.00     0.053 C 
HETATM    7  C   UNL     1       6.665  -5.468  21.983  1.00  0.00    -0.025 C 
HETATM    8  C   UNL     1       6.629  -5.947  22.931  1.00  0.00    -0.007 C 
HETATM    9  C   UNL     1       4.652  -6.147  24.235  1.00  0.00     0.040 A 
ENDROOT
BRANCH   9  10
HETATM   10  C   UNL     1       3.579  -6.977  24.191  1.00  0.00     0.254 C 
HETATM   11  O   UNL     1       3.600  -7.877  24.880  1.00  0.00    -0.268 OA
HETATM   12  N   UNL     1       2.694  -6.549  23.326  1.00  0.00    -0.321 N 
ATOM     13  HN  UNL     1       2.857  -5.674  22.827  1.00  0.00     0.169 HD
BRANCH  12  14
HETATM   14  C   UNL     1       1.653  -7.200  23.107  1.00  0.00     0.056 A 
HETATM   15  C   UNL     1       1.268  -8.186  22.359  1.00  0.00     0.117 A 
HETATM   16  N   UNL     1       0.525  -9.008  21.911  1.00  0.00    -0.373 N 
HETATM   17  C   UNL     1      -0.644  -8.640  22.638  1.00  0.00     0.088 A 
ATOM     18  HN  UNL     1       0.679  -9.745  21.222  1.00  0.00     0.164 HD
HETATM   19  C   UNL     1      -0.653  -7.723  23.483  1.00  0.00     0.026 A 
HETATM   20  C   UNL     1       0.301  -6.914  23.909  1.00  0.00    -0.033 A 
HETATM   21  C   UNL     1       0.187  -5.796  24.969  1.00  0.00     0.050 C 
ENDBRANCH  12  14
ENDBRANCH   9  10
BRANCH   1  22
HETATM   22  N   UNL     1       6.929  -5.422  27.514  1.00  0.00    -0.295 N 
ATOM     23  HN  UNL     1       7.908  -5.299  27.773  1.00  0.00     0.177 HD
BRANCH  22  24
HETATM   24  S   UNL     1       5.844  -5.478  28.730  1.00  0.00     0.226 S 
HETATM   25  C   UNL     1       5.212  -7.085  28.643  1.00  0.00     0.186 C 
HETATM   26  O   UNL     1       6.467  -5.312  30.008  1.00  0.00    -0.206 OA
HETATM   27  O   UNL     1       4.785  -4.553  28.545  1.00  0.00    -0.206 OA
ENDBRANCH  22  24
ENDBRANCH   1  22
TORSDOF 4
ENDMDL
MODEL 9
REMARK VINA RESULT:    -6.310     13.753     16.243
REMARK INTER + INTRA:          -8.656
REMARK INTER:                  -7.977
REMARK INTRA:                  -0.679
REMARK UNBOUND:                -0.870
REMARK  4 active torsions:
REMARK  status: ('A' for Active; 'I' for Inactive)
REMARK    1  A    between atoms: S_2  and  N_5 
REMARK    2  A    between atoms: N_5  and  C_7 
REMARK    3  A    between atoms: C_15  and  C_16 
REMARK       I    between atoms: C_16  and  N_18 
REMARK    4  A    between atoms: N_18  and  C_20 
ROOT
HETATM    1  C   UNL     1      23.422  -4.790  24.817  1.00  0.00     0.109 C 
HETATM    2  C   UNL     1      23.256  -3.621  25.359  1.00  0.00    -0.008 A 
HETATM    3  C   UNL     1      22.766  -2.527  25.323  1.00  0.00     0.057 A 
HETATM    4  C   UNL     1      23.148  -1.231  24.160  1.00  0.00    -0.007 C 
HETATM    5  C   UNL     1      22.453  -0.560  23.885  1.00  0.00    -0.025 C 
HETATM    6  C   UNL     1      20.965  -0.428  24.239  1.00  0.00     0.053 C 
HETATM    7  C   UNL     1      20.591  -1.454  24.987  1.00  0.00    -0.025 C 
HETATM    8  C   UNL     1      21.088  -2.302  25.390  1.00  0.00    -0.007 C 
HETATM    9  C   UNL     1      23.250  -2.220  26.376  1.00  0.00     0.040 A 
ENDROOT
BRANCH   9  10
HETATM   10  C   UNL     1      23.712  -1.836  27.593  1.00  0.00     0.254 C 
HETATM   11  O   UNL     1      24.105  -0.777  27.680  1.00  0.00    -0.268 OA
HETATM   12  N   UNL     1      23.601  -2.810  28.462  1.00  0.00    -0.321 N 
ATOM     13  HN  UNL     1      23.172  -3.692  28.180  1.00  0.00     0.169 HD
BRANCH  12  14
HETATM   14  C   UNL     1      24.013  -2.669  29.631  1.00  0.00     0.056 A 
HETATM   15  C   UNL     1      23.528  -2.399  30.802  1.00  0.00     0.117 A 
HETATM   16  N   UNL     1      23.530  -2.218  31.984  1.00  0.00    -0.373 N 
HETATM   17  C   UNL     1      24.928  -2.372  32.208  1.00  0.00     0.088 A 
ATOM     18  HN  UNL     1      22.767  -2.017  32.631  1.00  0.00     0.164 HD
HETATM   19  C   UNL     1      25.731  -2.658  31.297  1.00  0.00     0.026 A 
HETATM   20  C   UNL     1      25.552  -2.878  30.007  1.00  0.00    -0.033 A 
HETATM   21  C   UNL     1      26.624  -3.227  28.951  1.00  0.00     0.050 C 
ENDBRANCH  12  14
ENDBRANCH   9  10
BRANCH   1  22
HETATM   22  N   UNL     1      24.033  -5.772  24.578  1.00  0.00    -0.295 N 
ATOM     23  HN  UNL     1      23.899  -6.565  25.206  1.00  0.00     0.177 HD
BRANCH  22  24
HETATM   24  S   UNL     1      25.070  -5.978  23.337  1.00  0.00     0.226 S 
HETATM   25  C   UNL     1      26.488  -5.128  23.843  1.00  0.00     0.186 C 
HETATM   26  O   UNL     1      25.416  -7.356  23.155  1.00  0.00    -0.206 OA
HETATM   27  O   UNL     1      24.588  -5.401  22.135  1.00  0.00    -0.206 OA
ENDBRANCH  22  24
ENDBRANCH   1  22
TORSDOF 4
ENDMDL
