stable:False satoms:10 tatoms:24 sratio:0.4166666666666667
  -OEChem-07092417493D

 24 24  0     0  0  0  0  0  0999 V2000
    6.5592   -4.8549   26.4680 C   0  0  0  0  0  0  0  0  0  0  0  0
    8.2047   -4.2869   26.1389 S   0  0  0  0  0  0  0  0  0  0  0  0
    9.0800   -5.4457   26.1026 O   0  0  0  0  0  0  0  0  0  0  0  0
    8.6066   -3.3788   27.1691 O   0  0  0  0  0  0  0  0  0  0  0  0
    8.1000   -3.5738   24.6905 N   0  0  0  0  0  0  0  0  0  0  0  0
    8.9863   -2.9328   24.1474 C   0  0  0  0  0  0  0  0  0  0  0  0
    9.4329   -1.9765   23.4943 C   0  0  0  0  0  0  0  0  0  0  0  0
   10.2747   -1.0405   23.2919 C   0  0  0  0  0  0  0  0  0  0  0  0
   11.0526    0.0125   24.2865 C   0  0  0  0  0  0  0  0  0  0  0  0
   12.0347    0.3235   24.2828 C   0  0  0  0  0  0  0  0  0  0  0  0
   13.1600   -0.1846   23.4492 C   0  0  0  0  0  0  0  0  0  0  0  0
   12.7230   -1.2833   22.6521 C   0  0  0  0  0  0  0  0  0  0  0  0
   11.8566   -1.7649   22.4808 C   0  0  0  0  0  0  0  0  0  0  0  0
    9.7259   -0.5626   22.3128 C   0  0  0  0  0  0  0  0  0  0  0  0
    9.0593    0.0257   21.3547 C   0  0  0  0  0  0  0  0  0  0  0  0
    9.5127    0.9989   20.9456 O   0  0  0  0  0  0  0  0  0  0  0  0
    7.9659   -0.5802   21.0173 N   0  0  0  0  0  0  0  0  0  0  0  0
    7.1952   -0.1360   20.1426 C   0  0  0  0  0  0  0  0  0  0  0  0
    7.2328   -0.0326   18.8410 C   0  0  0  0  0  0  0  0  0  0  0  0
    6.7649    0.2998   17.7754 N   0  0  0  0  0  0  0  0  0  0  0  0
    5.6259    0.8903   18.2168 C   0  0  0  0  0  0  0  0  0  0  0  0
    5.2675    0.9535   19.4081 C   0  0  0  0  0  0  0  0  0  0  0  0
    5.8217    0.5454   20.5570 C   0  0  0  0  0  0  0  0  0  0  0  0
    5.3409    0.6946   22.0711 C   0  0  0  0  0  0  0  0  0  0  0  0
 20 21  2  0  0  0  0
 19 20  1  0  0  0  0
 21 22  1  0  0  0  0
 18 19  2  0  0  0  0
 22 23  2  0  0  0  0
 18 23  1  0  0  0  0
 17 18  1  0  0  0  0
 23 24  1  0  0  0  0
 15 16  2  0  0  0  0
 15 17  1  0  0  0  0
 14 15  1  0  0  0  0
  8 14  2  3  0  0  0
 12 13  2  0  0  0  0
 11 12  1  0  0  0  0
  7  8  1  0  0  0  0
  8  9  1  0  0  0  0
 10 11  1  0  0  0  0
  6  7  2  3  0  0  0
  5  6  1  0  0  0  0
  9 10  2  0  0  0  0
  2  5  1  0  0  0  0
  2  3  2  0  0  0  0
  1  2  1  0  0  0  0
  2  4  2  0  0  0  0
M  END
> <Shapegauss>
-284.784760

$$$$
