stable:False satoms:21 tatoms:24 sratio:0.875
  -OEChem-07092417283D

 24 24  0     1  0  0  0  0  0999 V2000
    6.4725    0.8697   22.9817 C   0  0  0  0  0  0  0  0  0  0  0  0
    7.1448    0.7166   21.8821 C   0  0  2  0  0  0  0  0  0  0  0  0
   11.7442   -2.6386   22.0008 H   0  0  0  0  0  0  0  0  0  0  0  0
    9.6147   -0.9277   22.2767 H   0  0  0  0  0  0  0  0  0  0  0  0
    9.2267    0.0039   24.1208 C   0  0  0  0  0  0  0  0  0  0  0  0
   10.9151   -4.2023   22.0277 H   0  0  0  0  0  0  0  0  0  0  0  0
   10.0474   -2.7364   23.3198 C   0  0  0  0  0  0  0  0  0  0  0  0
   10.7504   -3.1209   22.0483 C   0  0  0  0  0  0  0  0  0  0  0  0
    9.1339   -3.3175   23.4419 H   0  0  0  0  0  0  0  0  0  0  0  0
    9.8522   -1.1180   25.4445 H   0  0  0  0  0  0  0  0  0  0  0  0
    9.1732   -1.1025   24.6493 N   0  0  0  0  0  0  0  0  0  0  0  0
    9.2598    1.2033   24.3216 O   0  0  0  0  0  0  0  0  0  0  0  0
    9.5645   -1.2106   23.3297 C   0  0  1  0  0  0  0  0  0  0  0  0
    7.5245    1.1732   20.9559 H   0  0  0  0  0  0  0  0  0  0  0  0
    5.4369   -0.8721   21.3047 O   0  0  0  0  0  0  0  0  0  0  0  0
    6.6252   -0.6739   21.1089 C   0  0  0  0  0  0  0  0  0  0  0  0
   10.0052   -2.7282   20.8902 N   0  0  0  0  0  0  0  0  0  0  0  0
    7.6581    1.4978   22.9308 O   0  0  0  0  0  0  0  0  0  0  0  0
    5.4502    1.3458   22.8856 H   0  0  0  0  0  0  0  0  0  0  0  0
    9.0229   -2.5533   20.9447 H   0  0  0  0  0  0  0  0  0  0  0  0
    6.3308    0.1168   23.8032 H   0  0  0  0  0  0  0  0  0  0  0  0
   10.7052   -2.9007   24.1748 H   0  0  0  0  0  0  0  0  0  0  0  0
   10.4816   -2.7989   20.0124 H   0  0  0  0  0  0  0  0  0  0  0  0
    7.4443   -1.3158   20.4406 O   0  5  0  0  0  0  0  0  0  0  0  0
 17 23  1  0  0  0  0
 16 24  1  0  0  0  0
 17 20  1  0  0  0  0
  8 17  1  0  0  0  0
  2 14  1  0  0  0  0
 15 16  2  0  0  0  0
  2 16  1  0  0  0  0
  2 18  1  0  0  0  0
  1  2  1  0  0  0  0
  3  8  1  0  0  0  0
  6  8  1  0  0  0  0
  7  8  1  0  0  0  0
  4 13  1  0  0  0  0
  1 19  1  0  0  0  0
  1 18  1  0  0  0  0
  1 21  1  0  0  0  0
  7 13  1  0  0  0  0
  7  9  1  0  0  0  0
  7 22  1  0  0  0  0
  5 13  1  0  0  0  0
 11 13  1  0  0  0  0
  5 12  2  0  0  0  0
  5 11  1  0  0  0  0
 10 11  1  0  0  0  0
M  CHG  1  24  -1
M  END
> <Shapegauss>
-83.496780

$$$$
