MODEL 1
REMARK VINA RESULT:   -12.858      0.000      0.000
REMARK INTER + INTRA:         -20.130
REMARK INTER:                 -19.247
REMARK INTRA:                  -0.882
REMARK UNBOUND:                -0.882
REMARK  10 active torsions:
REMARK  status: ('A' for Active; 'I' for Inactive)
REMARK    1  A    between atoms: P_1  and  O5'_29 
REMARK    2  A    between atoms: C1'_15  and  N10_17 
REMARK    3  A    between atoms: C1'_15  and  C2'_19 
REMARK    4  A    between atoms: C2'_19  and  O2'_20 
REMARK    5  A    between atoms: C2'_19  and  C3'_22 
REMARK    6  A    between atoms: C3'_22  and  O3'_23 
REMARK    7  A    between atoms: C3'_22  and  C4'_25 
REMARK    8  A    between atoms: C4'_25  and  O4'_26 
REMARK    9  A    between atoms: C4'_25  and  C5'_28 
REMARK   10  A    between atoms: C5'_28  and  O5'_29 
ROOT
HETATM    1  N1  FMN B 177      -0.062  61.545  24.756  1.00 15.89    -0.292 N 
ATOM      2  H1  FMN B 177       0.878  61.223  24.524  1.00  0.00     0.172 HD
HETATM    3  C2  FMN B 177      -0.307  62.208  25.936  1.00 16.80     0.328 A 
HETATM    4  O2  FMN B 177       0.564  62.349  26.752  1.00 20.01    -0.247 OA
HETATM    5  N3  FMN B 177      -1.573  62.727  26.237  1.00 16.03    -0.273 N 
HETATM    6  C4  FMN B 177      -2.652  62.550  25.419  1.00 18.69     0.280 A 
HETATM    7  O4  FMN B 177      -3.749  62.965  25.695  1.00 18.14    -0.265 OA
HETATM    8  N5  FMN B 177      -3.426  61.705  23.311  1.00 16.07    -0.347 N 
ATOM      9  H5  FMN B 177      -4.339  62.108  23.521  1.00  0.00     0.166 HD
HETATM   10  C6  FMN B 177      -4.206  61.008  21.121  1.00 17.19     0.039 C 
HETATM   11  C7  FMN B 177      -3.985  60.353  19.891  1.00 18.31    -0.054 C 
HETATM   12  C8  FMN B 177      -2.698  59.717  19.643  1.00 15.51    -0.054 C 
HETATM   13  C9  FMN B 177      -1.780  59.673  20.665  1.00 15.28     0.039 C 
HETATM   14  C10 FMN B 177      -1.068  61.334  23.933  1.00 16.66     0.145 A 
HETATM   15  N10 FMN B 177      -0.907  60.530  22.840  1.00 17.38    -0.327 N 
HETATM   16  C4A FMN B 177      -2.423  61.823  24.154  1.00 16.57     0.146 A 
HETATM   17  C5A FMN B 177      -3.203  61.022  22.143  1.00 17.67     0.060 C 
HETATM   18  C7M FMN B 177      -5.077  60.291  18.847  1.00 17.23     0.049 C 
HETATM   19  C8M FMN B 177      -2.334  59.097  18.304  1.00 15.72     0.049 C 
HETATM   20  C9A FMN B 177      -1.964  60.354  21.893  1.00 17.10     0.063 C 
HETATM   21  H3  FMN B 177      -1.692  63.246  27.084  1.00 20.00     0.173 HD
ENDROOT
BRANCH  15  22
HETATM   22  C1' FMN B 177       0.388  59.880  22.598  1.00 14.49     0.165 C 
BRANCH  22  23
HETATM   23  C2' FMN B 177       0.456  58.463  23.170  1.00 15.21     0.167 C 
BRANCH  23  24
HETATM   24  O2' FMN B 177       0.513  58.408  24.602  1.00 13.85    -0.391 OA
HETATM   25  H2' FMN B 177       0.653  59.281  24.948  1.00 20.00     0.210 HD
ENDBRANCH  23  24
BRANCH  23  26
HETATM   26  C3' FMN B 177       1.671  57.735  22.582  1.00 16.36     0.179 C 
BRANCH  26  27
HETATM   27  O3' FMN B 177       1.525  57.628  21.152  1.00 13.59    -0.390 OA
HETATM   28  H3' FMN B 177       2.189  58.157  20.725  1.00 20.00     0.210 HD
ENDBRANCH  26  27
BRANCH  26  29
HETATM   29  C4' FMN B 177       2.087  56.374  23.204  1.00 16.96     0.173 C 
BRANCH  29  30
HETATM   30  O4' FMN B 177       3.448  56.074  22.863  1.00 17.30    -0.391 OA
HETATM   31  H4' FMN B 177       3.957  55.963  23.658  1.00 20.00     0.210 HD
ENDBRANCH  29  30
BRANCH  29  32
HETATM   32  C5' FMN B 177       1.040  55.284  22.939  1.00 16.03     0.217 C 
BRANCH  32  33
HETATM   33  O5' FMN B 177       0.891  54.408  24.061  1.00 13.26    -0.280 OA
BRANCH  33  34
HETATM   34  P   FMN B 177       0.705  52.953  23.849  1.00 15.16     0.422 P 
HETATM   35  O1P FMN B 177       1.137  52.169  24.968  1.00 15.36    -0.617 OA
HETATM   36  O2P FMN B 177       1.251  52.534  22.568  1.00 16.12    -0.617 OA
HETATM   37  O3P FMN B 177      -0.722  52.847  23.828  1.00 12.97    -0.617 OA
ENDBRANCH  33  34
ENDBRANCH  32  33
ENDBRANCH  29  32
ENDBRANCH  26  29
ENDBRANCH  23  26
ENDBRANCH  22  23
ENDBRANCH  15  22
TORSDOF 10
ENDMDL
