MODEL 1
REMARK VINA RESULT:    -8.280      0.000      0.000
REMARK INTER + INTRA:         -10.900
REMARK INTER:                 -10.216
REMARK INTRA:                  -0.684
REMARK UNBOUND:                -0.684
REMARK  4 active torsions:
REMARK  status: ('A' for Active; 'I' for Inactive)
REMARK    1  A    between atoms: S_2  and  N_5 
REMARK    2  A    between atoms: C_7  and  C_8 
REMARK    3  A    between atoms: C_15  and  C_16 
REMARK       I    between atoms: C_16  and  N_18 
REMARK    4  A    between atoms: N_18  and  C_20 
ROOT
HETATM    1  C   UNL     1       6.788  -1.923  21.841  1.00  0.00    -0.008 A 
HETATM    2  C   UNL     1       6.862  -2.983  22.596  1.00  0.00     0.058 A 
HETATM    3  C   UNL     1       5.700  -3.434  23.750  1.00  0.00    -0.003 C 
HETATM    4  C   UNL     1       5.427  -4.436  24.017  1.00  0.00    -0.002 C 
HETATM    5  C   UNL     1       5.866  -5.649  23.473  1.00  0.00    -0.001 C 
HETATM    6  C   UNL     1       6.678  -5.441  22.428  1.00  0.00    -0.002 C 
HETATM    7  C   UNL     1       7.078  -4.519  21.977  1.00  0.00    -0.003 C 
HETATM    8  C   UNL     1       7.890  -2.610  23.080  1.00  0.00     0.040 A 
ENDROOT
BRANCH   8   9
HETATM    9  C   UNL     1       9.051  -2.318  23.724  1.00  0.00     0.254 C 
HETATM   10  O   UNL     1       9.193  -2.700  24.787  1.00  0.00    -0.268 OA
HETATM   11  N   UNL     1       9.814  -1.583  22.929  1.00  0.00    -0.320 N 
ATOM     12  HN  UNL     1       9.467  -1.275  22.021  1.00  0.00     0.169 HD
BRANCH  11  13
HETATM   13  C   UNL     1      10.968  -1.272  23.308  1.00  0.00     0.072 A 
HETATM   14  C   UNL     1      12.208  -1.670  23.139  1.00  0.00     0.119 A 
HETATM   15  N   UNL     1      13.401  -1.603  23.283  1.00  0.00    -0.373 N 
HETATM   16  C   UNL     1      13.354  -0.559  24.103  1.00  0.00     0.089 A 
ATOM     17  HN  UNL     1      14.174  -2.153  22.908  1.00  0.00     0.164 HD
HETATM   18  C   UNL     1      12.424   0.087  24.473  1.00  0.00     0.043 A 
HETATM   19  C   UNL     1      11.125  -0.016  24.230  1.00  0.00     0.063 A 
HETATM   20 CL   UNL     1       9.949   0.876  24.749  1.00  0.00    -0.082 Cl
ENDBRANCH  11  13
ENDBRANCH   8   9
BRANCH   1  21
HETATM   21  C   UNL     1       6.275  -1.232  20.991  1.00  0.00     0.109 C 
HETATM   22  N   UNL     1       5.627  -0.949  20.050  1.00  0.00    -0.295 N 
ATOM     23  HN  UNL     1       4.724  -1.412  19.956  1.00  0.00     0.177 HD
BRANCH  22  24
HETATM   24  S   UNL     1       6.025   0.082  18.917  1.00  0.00     0.226 S 
HETATM   25  C   UNL     1       5.021   1.536  19.303  1.00  0.00     0.186 C 
HETATM   26  O   UNL     1       7.411   0.474  18.970  1.00  0.00    -0.206 OA
HETATM   27  O   UNL     1       5.632  -0.341  17.614  1.00  0.00    -0.206 OA
ENDBRANCH  22  24
ENDBRANCH   1  21
TORSDOF 4
ENDMDL
MODEL 2
REMARK VINA RESULT:    -8.037      2.641      5.500
REMARK INTER + INTRA:         -10.600
REMARK INTER:                  -9.766
REMARK INTRA:                  -0.834
REMARK UNBOUND:                -0.684
REMARK  4 active torsions:
REMARK  status: ('A' for Active; 'I' for Inactive)
REMARK    1  A    between atoms: S_2  and  N_5 
REMARK    2  A    between atoms: C_7  and  C_8 
REMARK    3  A    between atoms: C_15  and  C_16 
REMARK       I    between atoms: C_16  and  N_18 
REMARK    4  A    between atoms: N_18  and  C_20 
ROOT
HETATM    1  C   UNL     1       9.118  -1.006  22.519  1.00  0.00    -0.008 A 
HETATM    2  C   UNL     1      10.096  -0.976  23.381  1.00  0.00     0.058 A 
HETATM    3  C   UNL     1      11.646  -1.619  23.113  1.00  0.00    -0.003 C 
HETATM    4  C   UNL     1      12.568  -1.229  23.494  1.00  0.00    -0.002 C 
HETATM    5  C   UNL     1      12.797  -0.071  24.246  1.00  0.00    -0.001 C 
HETATM    6  C   UNL     1      11.669   0.634  24.400  1.00  0.00    -0.002 C 
HETATM    7  C   UNL     1      10.630   0.438  24.091  1.00  0.00    -0.003 C 
HETATM    8  C   UNL     1       9.458  -1.596  24.180  1.00  0.00     0.040 A 
ENDROOT
BRANCH   8   9
HETATM    9  C   UNL     1       8.865  -2.296  25.183  1.00  0.00     0.254 C 
HETATM   10  O   UNL     1       8.728  -1.789  26.193  1.00  0.00    -0.268 OA
HETATM   11  N   UNL     1       8.569  -3.511  24.746  1.00  0.00    -0.320 N 
ATOM     12  HN  UNL     1       8.848  -3.806  23.811  1.00  0.00     0.169 HD
BRANCH  11  13
HETATM   13  C   UNL     1       7.942  -4.293  25.498  1.00  0.00     0.072 A 
HETATM   14  C   UNL     1       8.186  -5.149  26.465  1.00  0.00     0.119 A 
HETATM   15  N   UNL     1       7.883  -5.935  27.325  1.00  0.00    -0.373 N 
HETATM   16  C   UNL     1       6.582  -5.886  27.064  1.00  0.00     0.089 A 
ATOM     17  HN  UNL     1       8.432  -6.454  28.011  1.00  0.00     0.164 HD
HETATM   18  C   UNL     1       5.979  -5.219  26.282  1.00  0.00     0.043 A 
HETATM   19  C   UNL     1       6.380  -4.326  25.389  1.00  0.00     0.063 A 
HETATM   20 CL   UNL     1       5.527  -3.477  24.389  1.00  0.00    -0.082 Cl
ENDBRANCH  11  13
ENDBRANCH   8   9
BRANCH   1  21
HETATM   21  C   UNL     1       8.598  -0.736  21.461  1.00  0.00     0.109 C 
HETATM   22  N   UNL     1       8.471  -0.271  20.388  1.00  0.00    -0.295 N 
ATOM     23  HN  UNL     1       9.279  -0.317  19.767  1.00  0.00     0.177 HD
BRANCH  22  24
HETATM   24  S   UNL     1       7.166   0.418  19.814  1.00  0.00     0.226 S 
HETATM   25  C   UNL     1       5.931  -0.901  19.887  1.00  0.00     0.186 C 
HETATM   26  O   UNL     1       6.699   1.509  20.632  1.00  0.00    -0.206 OA
HETATM   27  O   UNL     1       7.284   0.782  18.442  1.00  0.00    -0.206 OA
ENDBRANCH  22  24
ENDBRANCH   1  21
TORSDOF 4
ENDMDL
MODEL 3
REMARK VINA RESULT:    -7.951      3.270      6.823
REMARK INTER + INTRA:         -10.494
REMARK INTER:                  -9.811
REMARK INTRA:                  -0.684
REMARK UNBOUND:                -0.684
REMARK  4 active torsions:
REMARK  status: ('A' for Active; 'I' for Inactive)
REMARK    1  A    between atoms: S_2  and  N_5 
REMARK    2  A    between atoms: C_7  and  C_8 
REMARK    3  A    between atoms: C_15  and  C_16 
REMARK       I    between atoms: C_16  and  N_18 
REMARK    4  A    between atoms: N_18  and  C_20 
ROOT
HETATM    1  C   UNL     1       8.836  -2.377  23.457  1.00  0.00    -0.008 A 
HETATM    2  C   UNL     1       9.680  -1.386  23.389  1.00  0.00     0.058 A 
HETATM    3  C   UNL     1       9.921  -0.231  24.612  1.00  0.00    -0.003 C 
HETATM    4  C   UNL     1      10.846   0.251  24.855  1.00  0.00    -0.002 C 
HETATM    5  C   UNL     1      12.122   0.041  24.319  1.00  0.00    -0.001 C 
HETATM    6  C   UNL     1      12.115  -0.972  23.441  1.00  0.00    -0.002 C 
HETATM    7  C   UNL     1      11.301  -1.604  23.054  1.00  0.00    -0.003 C 
HETATM    8  C   UNL     1       9.139  -0.944  22.420  1.00  0.00     0.040 A 
ENDROOT
BRANCH   8   9
HETATM    9  C   UNL     1       8.629  -0.319  21.325  1.00  0.00     0.254 C 
HETATM   10  O   UNL     1       9.312   0.365  20.722  1.00  0.00    -0.268 OA
HETATM   11  N   UNL     1       7.352  -0.645  21.195  1.00  0.00    -0.320 N 
ATOM     12  HN  UNL     1       6.893  -1.224  21.898  1.00  0.00     0.169 HD
BRANCH  11  13
HETATM   13  C   UNL     1       6.715  -0.233  20.197  1.00  0.00     0.072 A 
HETATM   14  C   UNL     1       6.398  -0.636  18.987  1.00  0.00     0.119 A 
HETATM   15  N   UNL     1       5.850  -0.546  17.920  1.00  0.00    -0.373 N 
HETATM   16  C   UNL     1       5.348   0.661  18.156  1.00  0.00     0.089 A 
ATOM     17  HN  UNL     1       5.791  -1.175  17.118  1.00  0.00     0.164 HD
HETATM   18  C   UNL     1       5.399   1.337  19.136  1.00  0.00     0.043 A 
HETATM   19  C   UNL     1       5.987   1.148  20.308  1.00  0.00     0.063 A 
HETATM   20 CL   UNL     1       6.012   2.084  21.563  1.00  0.00    -0.082 Cl
ENDBRANCH  11  13
ENDBRANCH   8   9
BRANCH   1  21
HETATM   21  C   UNL     1       8.399  -3.397  23.938  1.00  0.00     0.109 C 
HETATM   22  N   UNL     1       7.632  -4.255  24.183  1.00  0.00    -0.295 N 
ATOM     23  HN  UNL     1       7.057  -4.593  23.412  1.00  0.00     0.177 HD
BRANCH  22  24
HETATM   24  S   UNL     1       7.407  -4.935  25.594  1.00  0.00     0.226 S 
HETATM   25  C   UNL     1       7.049  -3.534  26.681  1.00  0.00     0.186 C 
HETATM   26  O   UNL     1       6.268  -5.818  25.620  1.00  0.00    -0.206 OA
HETATM   27  O   UNL     1       8.582  -5.553  26.110  1.00  0.00    -0.206 OA
ENDBRANCH  22  24
ENDBRANCH   1  21
TORSDOF 4
ENDMDL
MODEL 4
REMARK VINA RESULT:    -7.698      3.866      6.057
REMARK INTER + INTRA:         -10.182
REMARK INTER:                  -9.495
REMARK INTRA:                  -0.687
REMARK UNBOUND:                -0.684
REMARK  4 active torsions:
REMARK  status: ('A' for Active; 'I' for Inactive)
REMARK    1  A    between atoms: S_2  and  N_5 
REMARK    2  A    between atoms: C_7  and  C_8 
REMARK    3  A    between atoms: C_15  and  C_16 
REMARK       I    between atoms: C_16  and  N_18 
REMARK    4  A    between atoms: N_18  and  C_20 
ROOT
HETATM    1  C   UNL     1       7.348  -4.636  25.464  1.00  0.00    -0.008 A 
HETATM    2  C   UNL     1       7.062  -4.605  24.192  1.00  0.00     0.058 A 
HETATM    3  C   UNL     1       7.663  -5.695  23.036  1.00  0.00    -0.003 C 
HETATM    4  C   UNL     1       7.145  -6.046  22.166  1.00  0.00    -0.002 C 
HETATM    5  C   UNL     1       5.831  -5.792  21.755  1.00  0.00    -0.001 C 
HETATM    6  C   UNL     1       5.173  -5.064  22.668  1.00  0.00    -0.002 C 
HETATM    7  C   UNL     1       5.494  -4.613  23.620  1.00  0.00    -0.003 C 
HETATM    8  C   UNL     1       7.511  -3.503  24.082  1.00  0.00     0.040 A 
ENDROOT
BRANCH   8   9
HETATM    9  C   UNL     1       7.988  -2.261  23.799  1.00  0.00     0.254 C 
HETATM   10  O   UNL     1       7.487  -1.663  22.969  1.00  0.00    -0.268 OA
HETATM   11  N   UNL     1       9.018  -2.002  24.590  1.00  0.00    -0.320 N 
ATOM     12  HN  UNL     1       9.370  -2.714  25.230  1.00  0.00     0.169 HD
BRANCH  11  13
HETATM   13  C   UNL     1       9.555  -0.870  24.541  1.00  0.00     0.072 A 
HETATM   14  C   UNL     1       9.370   0.337  25.027  1.00  0.00     0.119 A 
HETATM   15  N   UNL     1       9.656   1.491  25.209  1.00  0.00    -0.373 N 
HETATM   16  C   UNL     1      10.734   1.461  24.432  1.00  0.00     0.089 A 
ATOM     17  HN  UNL     1       9.224   2.231  25.763  1.00  0.00     0.164 HD
HETATM   18  C   UNL     1      11.232   0.553  23.843  1.00  0.00     0.043 A 
HETATM   19  C   UNL     1      10.884  -0.721  23.728  1.00  0.00     0.063 A 
HETATM   20 CL   UNL     1      11.592  -1.870  22.935  1.00  0.00    -0.082 Cl
ENDBRANCH  11  13
ENDBRANCH   8   9
BRANCH   1  21
HETATM   21  C   UNL     1       7.363  -5.151  26.558  1.00  0.00     0.109 C 
HETATM   22  N   UNL     1       7.527  -5.976  27.381  1.00  0.00    -0.295 N 
ATOM     23  HN  UNL     1       8.379  -6.532  27.313  1.00  0.00     0.177 HD
BRANCH  22  24
HETATM   24  S   UNL     1       6.552  -6.306  28.584  1.00  0.00     0.226 S 
HETATM   25  C   UNL     1       4.962  -6.583  27.768  1.00  0.00     0.186 C 
HETATM   26  O   UNL     1       6.908  -7.514  29.284  1.00  0.00    -0.206 OA
HETATM   27  O   UNL     1       6.363  -5.204  29.467  1.00  0.00    -0.206 OA
ENDBRANCH  22  24
ENDBRANCH   1  21
TORSDOF 4
ENDMDL
MODEL 5
REMARK VINA RESULT:    -7.231      4.331      6.354
REMARK INTER + INTRA:          -9.606
REMARK INTER:                  -8.798
REMARK INTRA:                  -0.808
REMARK UNBOUND:                -0.684
REMARK  4 active torsions:
REMARK  status: ('A' for Active; 'I' for Inactive)
REMARK    1  A    between atoms: S_2  and  N_5 
REMARK    2  A    between atoms: C_7  and  C_8 
REMARK    3  A    between atoms: C_15  and  C_16 
REMARK       I    between atoms: C_16  and  N_18 
REMARK    4  A    between atoms: N_18  and  C_20 
ROOT
HETATM    1  C   UNL     1       8.195  -3.350  23.866  1.00  0.00    -0.008 A 
HETATM    2  C   UNL     1       7.172  -4.155  23.930  1.00  0.00     0.058 A 
HETATM    3  C   UNL     1       5.561  -3.701  23.640  1.00  0.00    -0.003 C 
HETATM    4  C   UNL     1       4.800  -4.312  23.197  1.00  0.00    -0.002 C 
HETATM    5  C   UNL     1       4.898  -5.605  22.668  1.00  0.00    -0.001 C 
HETATM    6  C   UNL     1       6.166  -6.036  22.683  1.00  0.00    -0.002 C 
HETATM    7  C   UNL     1       7.093  -5.584  23.069  1.00  0.00    -0.003 C 
HETATM    8  C   UNL     1       7.394  -4.404  25.078  1.00  0.00     0.040 A 
ENDROOT
BRANCH   8   9
HETATM    9  C   UNL     1       7.513  -4.778  26.380  1.00  0.00     0.254 C 
HETATM   10  O   UNL     1       8.481  -4.534  26.929  1.00  0.00    -0.268 OA
HETATM   11  N   UNL     1       6.410  -5.408  26.752  1.00  0.00    -0.320 N 
ATOM     12  HN  UNL     1       5.671  -5.598  26.076  1.00  0.00     0.169 HD
BRANCH  11  13
HETATM   13  C   UNL     1       6.286  -5.767  27.947  1.00  0.00     0.072 A 
HETATM   14  C   UNL     1       6.648  -6.761  28.726  1.00  0.00     0.119 A 
HETATM   15  N   UNL     1       6.738  -7.344  29.775  1.00  0.00    -0.373 N 
HETATM   16  C   UNL     1       6.025  -6.454  30.456  1.00  0.00     0.089 A 
ATOM     17  HN  UNL     1       7.200  -8.213  30.045  1.00  0.00     0.164 HD
HETATM   18  C   UNL     1       5.549  -5.419  30.105  1.00  0.00     0.043 A 
HETATM   19  C   UNL     1       5.532  -4.809  28.929  1.00  0.00     0.063 A 
HETATM   20 CL   UNL     1       4.886  -3.439  28.536  1.00  0.00    -0.082 Cl
ENDBRANCH  11  13
ENDBRANCH   8   9
BRANCH   1  21
HETATM   21  C   UNL     1       8.944  -2.593  23.292  1.00  0.00     0.109 C 
HETATM   22  N   UNL     1       9.752  -2.223  22.522  1.00  0.00    -0.295 N 
ATOM     23  HN  UNL     1       9.673  -2.572  21.567  1.00  0.00     0.177 HD
BRANCH  22  24
HETATM   24  S   UNL     1      10.951  -1.235  22.825  1.00  0.00     0.226 S 
HETATM   25  C   UNL     1      10.662  -0.740  24.540  1.00  0.00     0.186 C 
HETATM   26  O   UNL     1      12.241  -1.876  22.760  1.00  0.00    -0.206 OA
HETATM   27  O   UNL     1      10.901  -0.041  22.049  1.00  0.00    -0.206 OA
ENDBRANCH  22  24
ENDBRANCH   1  21
TORSDOF 4
ENDMDL
MODEL 6
REMARK VINA RESULT:    -7.023     14.669     16.612
REMARK INTER + INTRA:          -9.349
REMARK INTER:                  -8.507
REMARK INTRA:                  -0.842
REMARK UNBOUND:                -0.684
REMARK  4 active torsions:
REMARK  status: ('A' for Active; 'I' for Inactive)
REMARK    1  A    between atoms: S_2  and  N_5 
REMARK    2  A    between atoms: C_7  and  C_8 
REMARK    3  A    between atoms: C_15  and  C_16 
REMARK       I    between atoms: C_16  and  N_18 
REMARK    4  A    between atoms: N_18  and  C_20 
ROOT
HETATM    1  C   UNL     1      23.568  -2.810  23.651  1.00  0.00    -0.008 A 
HETATM    2  C   UNL     1      23.154  -1.576  23.587  1.00  0.00     0.058 A 
HETATM    3  C   UNL     1      21.832  -0.951  24.452  1.00  0.00    -0.003 C 
HETATM    4  C   UNL     1      21.740   0.045  24.837  1.00  0.00    -0.002 C 
HETATM    5  C   UNL     1      22.671   1.091  24.819  1.00  0.00    -0.001 C 
HETATM    6  C   UNL     1      23.839   0.687  24.302  1.00  0.00    -0.002 C 
HETATM    7  C   UNL     1      24.158  -0.272  23.865  1.00  0.00    -0.003 C 
HETATM    8  C   UNL     1      22.951  -1.668  22.412  1.00  0.00     0.040 A 
ENDROOT
BRANCH   8   9
HETATM    9  C   UNL     1      22.663  -1.621  21.085  1.00  0.00     0.254 C 
HETATM   10  O   UNL     1      21.581  -1.766  20.758  1.00  0.00    -0.268 OA
HETATM   11  N   UNL     1      23.782  -1.423  20.405  1.00  0.00    -0.320 N 
ATOM     12  HN  UNL     1      24.680  -1.395  20.887  1.00  0.00     0.169 HD
BRANCH  11  13
HETATM   13  C   UNL     1      23.723  -1.270  19.162  1.00  0.00     0.072 A 
HETATM   14  C   UNL     1      23.489  -0.315  18.291  1.00  0.00     0.119 A 
HETATM   15  N   UNL     1      23.400   0.149  17.184  1.00  0.00    -0.373 N 
HETATM   16  C   UNL     1      23.644  -1.000  16.563  1.00  0.00     0.089 A 
ATOM     17  HN  UNL     1      23.206   1.091  16.844  1.00  0.00     0.164 HD
HETATM   18  C   UNL     1      23.919  -2.070  17.007  1.00  0.00     0.043 A 
HETATM   19  C   UNL     1      24.052  -2.502  18.253  1.00  0.00     0.063 A 
HETATM   20 CL   UNL     1      24.422  -3.932  18.769  1.00  0.00    -0.082 Cl
ENDBRANCH  11  13
ENDBRANCH   8   9
BRANCH   1  21
HETATM   21  C   UNL     1      24.016  -3.774  24.229  1.00  0.00     0.109 C 
HETATM   22  N   UNL     1      24.327  -4.892  24.421  1.00  0.00    -0.295 N 
ATOM     23  HN  UNL     1      24.761  -5.390  23.643  1.00  0.00     0.177 HD
BRANCH  22  24
HETATM   24  S   UNL     1      24.138  -5.699  25.770  1.00  0.00     0.226 S 
HETATM   25  C   UNL     1      25.762  -5.585  26.556  1.00  0.00     0.186 C 
HETATM   26  O   UNL     1      23.173  -5.098  26.656  1.00  0.00    -0.206 OA
HETATM   27  O   UNL     1      23.889  -7.086  25.561  1.00  0.00    -0.206 OA
ENDBRANCH  22  24
ENDBRANCH   1  21
TORSDOF 4
ENDMDL
MODEL 7
REMARK VINA RESULT:    -6.890     24.592     26.934
REMARK INTER + INTRA:          -9.185
REMARK INTER:                  -8.400
REMARK INTRA:                  -0.785
REMARK UNBOUND:                -0.684
REMARK  4 active torsions:
REMARK  status: ('A' for Active; 'I' for Inactive)
REMARK    1  A    between atoms: S_2  and  N_5 
REMARK    2  A    between atoms: C_7  and  C_8 
REMARK    3  A    between atoms: C_15  and  C_16 
REMARK       I    between atoms: C_16  and  N_18 
REMARK    4  A    between atoms: N_18  and  C_20 
ROOT
HETATM    1  C   UNL     1       8.494  15.260   1.848  1.00  0.00    -0.008 A 
HETATM    2  C   UNL     1       8.599  16.559   1.864  1.00  0.00     0.058 A 
HETATM    3  C   UNL     1       9.161  17.502   0.566  1.00  0.00    -0.003 C 
HETATM    4  C   UNL     1       8.830  18.488   0.310  1.00  0.00    -0.002 C 
HETATM    5  C   UNL     1       7.816  19.261   0.888  1.00  0.00    -0.001 C 
HETATM    6  C   UNL     1       7.167  18.572   1.836  1.00  0.00    -0.002 C 
HETATM    7  C   UNL     1       7.322  17.563   2.250  1.00  0.00    -0.003 C 
HETATM    8  C   UNL     1       9.358  16.523   2.786  1.00  0.00     0.040 A 
ENDROOT
BRANCH   8   9
HETATM    9  C   UNL     1      10.232  16.642   3.821  1.00  0.00     0.254 C 
HETATM   10  O   UNL     1      11.026  15.836   3.957  1.00  0.00    -0.268 OA
HETATM   11  N   UNL     1       9.941  17.734   4.510  1.00  0.00    -0.320 N 
ATOM     12  HN  UNL     1       9.125  18.296   4.268  1.00  0.00     0.169 HD
BRANCH  11  13
HETATM   13  C   UNL     1      10.681  18.068   5.465  1.00  0.00     0.072 A 
HETATM   14  C   UNL     1      10.842  17.792   6.739  1.00  0.00     0.119 A 
HETATM   15  N   UNL     1      11.388  17.869   7.809  1.00  0.00    -0.373 N 
HETATM   16  C   UNL     1      12.274  18.778   7.413  1.00  0.00     0.089 A 
ATOM     17  HN  UNL     1      11.228  17.403   8.702  1.00  0.00     0.164 HD
HETATM   18  C   UNL     1      12.457  19.256   6.338  1.00  0.00     0.043 A 
HETATM   19  C   UNL     1      11.839  19.083   5.178  1.00  0.00     0.063 A 
HETATM   20 CL   UNL     1      12.136  19.746   3.792  1.00  0.00    -0.082 Cl
ENDBRANCH  11  13
ENDBRANCH   8   9
BRANCH   1  21
HETATM   21  C   UNL     1       8.051  14.214   1.432  1.00  0.00     0.109 C 
HETATM   22  N   UNL     1       7.418  13.476   0.770  1.00  0.00    -0.295 N 
ATOM     23  HN  UNL     1       7.367  13.679  -0.228  1.00  0.00     0.177 HD
BRANCH  22  24
HETATM   24  S   UNL     1       6.636  12.197   1.280  1.00  0.00     0.226 S 
HETATM   25  C   UNL     1       7.368  11.879   2.903  1.00  0.00     0.186 C 
HETATM   26  O   UNL     1       5.227  12.434   1.468  1.00  0.00    -0.206 OA
HETATM   27  O   UNL     1       6.889  11.037   0.492  1.00  0.00    -0.206 OA
ENDBRANCH  22  24
ENDBRANCH   1  21
TORSDOF 4
ENDMDL
MODEL 8
REMARK VINA RESULT:    -6.723      4.372      6.432
REMARK INTER + INTRA:          -8.979
REMARK INTER:                  -8.345
REMARK INTRA:                  -0.634
REMARK UNBOUND:                -0.684
REMARK  4 active torsions:
REMARK  status: ('A' for Active; 'I' for Inactive)
REMARK    1  A    between atoms: S_2  and  N_5 
REMARK    2  A    between atoms: C_7  and  C_8 
REMARK    3  A    between atoms: C_15  and  C_16 
REMARK       I    between atoms: C_16  and  N_18 
REMARK    4  A    between atoms: N_18  and  C_20 
ROOT
HETATM    1  C   UNL     1       4.182  -5.088  23.202  1.00  0.00    -0.008 A 
HETATM    2  C   UNL     1       5.055  -4.241  23.672  1.00  0.00     0.058 A 
HETATM    3  C   UNL     1       4.716  -3.039  24.823  1.00  0.00    -0.003 C 
HETATM    4  C   UNL     1       5.384  -2.680  25.581  1.00  0.00    -0.002 C 
HETATM    5  C   UNL     1       6.674  -3.118  25.904  1.00  0.00    -0.001 C 
HETATM    6  C   UNL     1       7.017  -4.186  25.172  1.00  0.00    -0.002 C 
HETATM    7  C   UNL     1       6.497  -4.722  24.362  1.00  0.00    -0.003 C 
HETATM    8  C   UNL     1       5.272  -3.804  22.581  1.00  0.00     0.040 A 
ENDROOT
BRANCH   8   9
HETATM    9  C   UNL     1       5.618  -3.202  21.412  1.00  0.00     0.254 C 
HETATM   10  O   UNL     1       5.640  -3.832  20.462  1.00  0.00    -0.268 OA
HETATM   11  N   UNL     1       5.894  -1.929  21.645  1.00  0.00    -0.320 N 
ATOM     12  HN  UNL     1       5.890  -1.566  22.599  1.00  0.00     0.169 HD
BRANCH  11  13
HETATM   13  C   UNL     1       6.162  -1.175  20.680  1.00  0.00     0.072 A 
HETATM   14  C   UNL     1       5.613  -0.770  19.557  1.00  0.00     0.119 A 
HETATM   15  N   UNL     1       5.558  -0.118  18.547  1.00  0.00    -0.373 N 
HETATM   16  C   UNL     1       6.755   0.434  18.707  1.00  0.00     0.089 A 
ATOM     17  HN  UNL     1       4.844  -0.024  17.824  1.00  0.00     0.164 HD
HETATM   18  C   UNL     1       7.536   0.332  19.601  1.00  0.00     0.043 A 
HETATM   19  C   UNL     1       7.507  -0.375  20.721  1.00  0.00     0.063 A 
HETATM   20 CL   UNL     1       8.574  -0.461  21.863  1.00  0.00    -0.082 Cl
ENDBRANCH  11  13
ENDBRANCH   8   9
BRANCH   1  21
HETATM   21  C   UNL     1       3.384  -5.991  23.306  1.00  0.00     0.109 C 
HETATM   22  N   UNL     1       2.910  -7.059  23.167  1.00  0.00    -0.295 N 
ATOM     23  HN  UNL     1       3.541  -7.857  23.245  1.00  0.00     0.177 HD
BRANCH  22  24
HETATM   24  S   UNL     1       1.388  -7.377  22.869  1.00  0.00     0.226 S 
HETATM   25  C   UNL     1       0.692  -7.662  24.514  1.00  0.00     0.186 C 
HETATM   26  O   UNL     1       0.685  -6.268  22.276  1.00  0.00    -0.206 OA
HETATM   27  O   UNL     1       1.203  -8.587  22.141  1.00  0.00    -0.206 OA
ENDBRANCH  22  24
ENDBRANCH   1  21
TORSDOF 4
ENDMDL
MODEL 9
REMARK VINA RESULT:    -6.665      6.486     10.040
REMARK INTER + INTRA:          -8.908
REMARK INTER:                  -8.207
REMARK INTRA:                  -0.701
REMARK UNBOUND:                -0.684
REMARK  4 active torsions:
REMARK  status: ('A' for Active; 'I' for Inactive)
REMARK    1  A    between atoms: S_2  and  N_5 
REMARK    2  A    between atoms: C_7  and  C_8 
REMARK    3  A    between atoms: C_15  and  C_16 
REMARK       I    between atoms: C_16  and  N_18 
REMARK    4  A    between atoms: N_18  and  C_20 
ROOT
HETATM    1  C   UNL     1       5.033  -5.941  24.902  1.00  0.00    -0.008 A 
HETATM    2  C   UNL     1       4.989  -5.458  23.692  1.00  0.00     0.058 A 
HETATM    3  C   UNL     1       5.252  -3.829  23.288  1.00  0.00    -0.003 C 
HETATM    4  C   UNL     1       5.709  -3.465  22.389  1.00  0.00    -0.002 C 
HETATM    5  C   UNL     1       6.284  -4.182  21.333  1.00  0.00    -0.001 C 
HETATM    6  C   UNL     1       6.293  -5.496  21.594  1.00  0.00    -0.002 C 
HETATM    7  C   UNL     1       5.899  -6.083  22.438  1.00  0.00    -0.003 C 
HETATM    8  C   UNL     1       3.853  -5.802  23.557  1.00  0.00     0.040 A 
ENDROOT
BRANCH   8   9
HETATM    9  C   UNL     1       2.566  -6.123  23.259  1.00  0.00     0.254 C 
HETATM   10  O   UNL     1       1.834  -5.279  23.033  1.00  0.00    -0.268 OA
HETATM   11  N   UNL     1       2.421  -7.437  23.319  1.00  0.00    -0.320 N 
ATOM     12  HN  UNL     1       3.195  -8.029  23.621  1.00  0.00     0.169 HD
BRANCH  11  13
HETATM   13  C   UNL     1       1.320  -7.945  23.000  1.00  0.00     0.072 A 
HETATM   14  C   UNL     1       0.559  -8.075  21.937  1.00  0.00     0.119 A 
HETATM   15  N   UNL     1      -0.400  -8.473  21.327  1.00  0.00    -0.373 N 
HETATM   16  C   UNL     1      -0.967  -9.051  22.381  1.00  0.00     0.089 A 
ATOM     17  HN  UNL     1      -0.677  -8.394  20.349  1.00  0.00     0.164 HD
HETATM   18  C   UNL     1      -0.575  -9.163  23.500  1.00  0.00     0.043 A 
HETATM   19  C   UNL     1       0.530  -8.737  24.095  1.00  0.00     0.063 A 
HETATM   20 CL   UNL     1       0.986  -8.924  25.581  1.00  0.00    -0.082 Cl
ENDBRANCH  11  13
ENDBRANCH   8   9
BRANCH   1  21
HETATM   21  C   UNL     1       5.587  -6.198  25.946  1.00  0.00     0.109 C 
HETATM   22  N   UNL     1       5.722  -6.566  27.055  1.00  0.00    -0.295 N 
ATOM     23  HN  UNL     1       5.232  -7.421  27.320  1.00  0.00     0.177 HD
BRANCH  22  24
HETATM   24  S   UNL     1       6.591  -5.863  28.177  1.00  0.00     0.226 S 
HETATM   25  C   UNL     1       5.402  -4.786  29.012  1.00  0.00     0.186 C 
HETATM   26  O   UNL     1       7.110  -6.789  29.151  1.00  0.00    -0.206 OA
HETATM   27  O   UNL     1       7.602  -5.011  27.647  1.00  0.00    -0.206 OA
ENDBRANCH  22  24
ENDBRANCH   1  21
TORSDOF 4
ENDMDL
