REMARK  4 active torsions:
REMARK  status: ('A' for Active; 'I' for Inactive)
REMARK    1  A    between atoms: S_2  and  N_5 
REMARK    2  A    between atoms: C_7  and  C_8 
REMARK    3  A    between atoms: C_15  and  C_16 
REMARK       I    between atoms: C_16  and  N_18 
REMARK    4  A    between atoms: N_18  and  C_20 
ROOT
HETATM    1  C   UNL     1       9.401  -1.980  23.520  1.00  0.00    -0.008 A 
HETATM    2  C   UNL     1      10.370  -1.167  23.204  1.00  0.00     0.058 A 
HETATM    3  C   UNL     1      11.107  -0.074  24.276  1.00  0.00    -0.003 C 
HETATM    4  C   UNL     1      12.136   0.225  24.268  1.00  0.00    -0.002 C 
HETATM    5  C   UNL     1      13.183  -0.224  23.454  1.00  0.00    -0.001 C 
HETATM    6  C   UNL     1      12.778  -1.220  22.655  1.00  0.00    -0.002 C 
HETATM    7  C   UNL     1      11.793  -1.689  22.504  1.00  0.00    -0.003 C 
HETATM    8  C   UNL     1       9.699  -0.634  22.371  1.00  0.00     0.040 A 
ENDROOT
BRANCH   8   9
HETATM    9  C   UNL     1       9.061   0.072  21.400  1.00  0.00     0.254 C 
HETATM   10  O   UNL     1       9.556   1.018  21.002  1.00  0.00    -0.268 OA
HETATM   11  N   UNL     1       7.911  -0.520  21.118  1.00  0.00    -0.320 N 
ATOM     12  HN  UNL     1       7.605  -1.334  21.651  1.00  0.00     0.169 HD
BRANCH  11  13
HETATM   13  C   UNL     1       7.203  -0.067  20.188  1.00  0.00     0.072 A 
HETATM   14  C   UNL     1       7.237   0.043  18.879  1.00  0.00     0.119 A 
HETATM   15  N   UNL     1       6.791   0.335  17.800  1.00  0.00    -0.373 N 
HETATM   16  C   UNL     1       5.673   0.865  18.284  1.00  0.00     0.089 A 
ATOM     17  HN  UNL     1       7.146   0.217  16.851  1.00  0.00     0.164 HD
HETATM   18  C   UNL     1       5.276   0.932  19.405  1.00  0.00     0.043 A 
HETATM   19  C   UNL     1       5.806   0.538  20.554  1.00  0.00     0.063 A 
HETATM   20 CL   UNL     1       5.224   0.655  22.002  1.00  0.00    -0.082 Cl
ENDBRANCH  11  13
ENDBRANCH   8   9
BRANCH   1  21
HETATM   21  C   UNL     1       8.916  -2.898  24.141  1.00  0.00     0.109 C 
HETATM   22  N   UNL     1       8.092  -3.558  24.660  1.00  0.00    -0.295 N 
ATOM     23  HN  UNL     1       7.214  -3.680  24.156  1.00  0.00     0.177 HD
BRANCH  22  24
HETATM   24  S   UNL     1       8.215  -4.275  26.066  1.00  0.00     0.226 S 
HETATM   25  C   UNL     1       6.540  -4.885  26.372  1.00  0.00     0.186 C 
HETATM   26  O   UNL     1       9.103  -5.410  26.045  1.00  0.00    -0.206 OA
HETATM   27  O   UNL     1       8.514  -3.374  27.128  1.00  0.00    -0.206 OA
ENDBRANCH  22  24
ENDBRANCH   1  21
TORSDOF 4
