MODEL 1
REMARK VINA RESULT:    -7.226      0.000      0.000
REMARK INTER + INTRA:          -9.541
REMARK INTER:                  -8.915
REMARK INTRA:                  -0.626
REMARK UNBOUND:                -0.626
REMARK  4 active torsions:
REMARK  status: ('A' for Active; 'I' for Inactive)
REMARK    1  A    between atoms: S_2  and  N_5 
REMARK    2  A    between atoms: N_5  and  C_7 
REMARK    3  A    between atoms: C_7  and  C_8 
REMARK    4  A    between atoms: C_15  and  C_16 
REMARK       I    between atoms: C_16  and  N_18 
ROOT
HETATM    1  C   UNL     1       6.791  11.123   3.292  1.00  0.00     0.066 A 
HETATM    2  C   UNL     1       5.271  11.585   2.970  1.00  0.00     0.170 A 
HETATM    3  O   UNL     1       4.464  12.198   3.873  1.00  0.00    -0.319 OA
HETATM    4  C   UNL     1       3.584  12.862   2.811  1.00  0.00     0.228 C 
HETATM    5  N   UNL     1       3.968  12.589   1.619  1.00  0.00    -0.357 N 
ATOM      6  HN  UNL     1       3.473  12.779   0.747  1.00  0.00     0.166 HD
HETATM    7  C   UNL     1       5.078  12.040   1.760  1.00  0.00     0.111 C 
HETATM    8  C   UNL     1       5.714  10.338   3.153  1.00  0.00     0.075 A 
ENDROOT
BRANCH   8   9
HETATM    9  C   UNL     1       5.205   8.843   3.130  1.00  0.00     0.258 C 
HETATM   10  O   UNL     1       4.969   8.323   2.103  1.00  0.00    -0.267 OA
HETATM   11  N   UNL     1       5.147   8.372   4.379  1.00  0.00    -0.306 N 
HETATM   12  C   UNL     1       4.782   7.122   4.718  1.00  0.00     0.146 A 
ATOM     13  HN  UNL     1       5.397   9.010   5.135  1.00  0.00     0.170 HD
HETATM   14  N   UNL     1       5.509   5.966   4.502  1.00  0.00    -0.284 N 
HETATM   15  C   UNL     1       3.646   6.772   5.388  1.00  0.00     0.096 A 
HETATM   16  N   UNL     1       4.964   4.931   4.957  1.00  0.00    -0.309 N 
ATOM     17  HN  UNL     1       6.406   5.955   4.017  1.00  0.00     0.188 HD
HETATM   18  C   UNL     1       3.811   5.304   5.493  1.00  0.00     0.135 A 
ATOM     19  HN  UNL     1       5.338   3.983   4.921  1.00  0.00     0.186 HD
HETATM   20 CL   UNL     1       2.447   7.797   5.879  1.00  0.00    -0.079 Cl
ENDBRANCH   8   9
BRANCH   1  21
HETATM   21  C   UNL     1       7.932  11.520   3.526  1.00  0.00    -0.019 C 
BRANCH  21  22
HETATM   22  N   UNL     1       8.949  12.181   3.534  1.00  0.00    -0.236 N 
ATOM     23  HN  UNL     1       9.824  11.658   3.537  1.00  0.00     0.189 HD
BRANCH  22  24
HETATM   24  S   UNL     1       9.086  13.806   3.540  1.00  0.00     0.327 S 
HETATM   25 CL   UNL     1       8.193  14.389   2.073  1.00  0.00     0.042 Cl
HETATM   26  O   UNL     1       8.425  14.394   4.672  1.00  0.00    -0.188 OA
HETATM   27  O   UNL     1      10.450  14.206   3.360  1.00  0.00    -0.188 OA
ENDBRANCH  22  24
ENDBRANCH  21  22
ENDBRANCH   1  21
TORSDOF 4
ENDMDL
MODEL 2
REMARK VINA RESULT:    -7.124     24.337     26.736
REMARK INTER + INTRA:          -9.416
REMARK INTER:                  -8.831
REMARK INTRA:                  -0.585
REMARK UNBOUND:                -0.626
REMARK  4 active torsions:
REMARK  status: ('A' for Active; 'I' for Inactive)
REMARK    1  A    between atoms: S_2  and  N_5 
REMARK    2  A    between atoms: N_5  and  C_7 
REMARK    3  A    between atoms: C_7  and  C_8 
REMARK    4  A    between atoms: C_15  and  C_16 
REMARK       I    between atoms: C_16  and  N_18 
ROOT
HETATM    1  C   UNL     1       7.206  -4.961  25.487  1.00  0.00     0.066 A 
HETATM    2  C   UNL     1       6.972  -5.051  23.885  1.00  0.00     0.170 A 
HETATM    3  O   UNL     1       7.786  -5.736  23.043  1.00  0.00    -0.319 OA
HETATM    4  C   UNL     1       6.711  -5.929  21.971  1.00  0.00     0.228 C 
HETATM    5  N   UNL     1       5.586  -5.415  22.310  1.00  0.00    -0.357 N 
ATOM      6  HN  UNL     1       4.764  -5.275  21.723  1.00  0.00     0.166 HD
HETATM    7  C   UNL     1       5.720  -5.123  23.515  1.00  0.00     0.111 C 
HETATM    8  C   UNL     1       7.403  -3.994  24.580  1.00  0.00     0.075 A 
ENDROOT
BRANCH   8   9
HETATM    9  C   UNL     1       7.818  -2.484  24.378  1.00  0.00     0.258 C 
HETATM   10  O   UNL     1       7.041  -1.719  23.941  1.00  0.00    -0.267 OA
HETATM   11  N   UNL     1       9.076  -2.308  24.795  1.00  0.00    -0.306 N 
HETATM   12  C   UNL     1       9.733  -1.134  24.792  1.00  0.00     0.146 A 
ATOM     13  HN  UNL     1       9.576  -3.127  25.140  1.00  0.00     0.170 HD
HETATM   14  N   UNL     1       9.492  -0.054  25.622  1.00  0.00    -0.284 N 
HETATM   15  C   UNL     1      10.800  -0.814  24.003  1.00  0.00     0.096 A 
HETATM   16  N   UNL     1      10.280   0.906  25.447  1.00  0.00    -0.309 N 
ATOM     17  HN  UNL     1       8.742  -0.040  26.313  1.00  0.00     0.188 HD
HETATM   18  C   UNL     1      11.100   0.561  24.465  1.00  0.00     0.135 A 
ATOM     19  HN  UNL     1      10.288   1.786  25.963  1.00  0.00     0.186 HD
HETATM   20 CL   UNL     1      11.479  -1.773  22.842  1.00  0.00    -0.079 Cl
ENDBRANCH   8   9
BRANCH   1  21
HETATM   21  C   UNL     1       7.188  -5.597  26.541  1.00  0.00    -0.019 C 
BRANCH  21  22
HETATM   22  N   UNL     1       7.451  -6.003  27.653  1.00  0.00    -0.236 N 
ATOM     23  HN  UNL     1       8.440  -6.141  27.858  1.00  0.00     0.189 HD
BRANCH  22  24
HETATM   24  S   UNL     1       6.413  -6.353  28.860  1.00  0.00     0.327 S 
HETATM   25 CL   UNL     1       4.759  -6.348  28.117  1.00  0.00     0.042 Cl
HETATM   26  O   UNL     1       6.618  -7.679  29.374  1.00  0.00    -0.188 OA
HETATM   27  O   UNL     1       6.408  -5.315  29.848  1.00  0.00    -0.188 OA
ENDBRANCH  22  24
ENDBRANCH  21  22
ENDBRANCH   1  21
TORSDOF 4
ENDMDL
MODEL 3
REMARK VINA RESULT:    -7.072     21.217     23.830
REMARK INTER + INTRA:          -9.352
REMARK INTER:                  -8.837
REMARK INTRA:                  -0.515
REMARK UNBOUND:                -0.626
REMARK  4 active torsions:
REMARK  status: ('A' for Active; 'I' for Inactive)
REMARK    1  A    between atoms: S_2  and  N_5 
REMARK    2  A    between atoms: N_5  and  C_7 
REMARK    3  A    between atoms: C_7  and  C_8 
REMARK    4  A    between atoms: C_15  and  C_16 
REMARK       I    between atoms: C_16  and  N_18 
ROOT
HETATM    1  C   UNL     1       7.540  -1.657  22.229  1.00  0.00     0.066 A 
HETATM    2  C   UNL     1       9.029  -1.626  22.869  1.00  0.00     0.170 A 
HETATM    3  O   UNL     1      10.158  -1.888  22.161  1.00  0.00    -0.319 OA
HETATM    4  C   UNL     1      11.071  -1.097  23.100  1.00  0.00     0.228 C 
HETATM    5  N   UNL     1      10.427  -0.556  24.067  1.00  0.00    -0.357 N 
ATOM      6  HN  UNL     1      10.812  -0.111  24.900  1.00  0.00     0.166 HD
HETATM    7  C   UNL     1       9.225  -0.695  23.765  1.00  0.00     0.111 C 
HETATM    8  C   UNL     1       8.087  -2.554  23.062  1.00  0.00     0.075 A 
ENDROOT
BRANCH   8   9
HETATM    9  C   UNL     1       7.824  -3.879  23.879  1.00  0.00     0.258 C 
HETATM   10  O   UNL     1       7.829  -4.915  23.326  1.00  0.00    -0.267 OA
HETATM   11  N   UNL     1       7.651  -3.580  25.170  1.00  0.00    -0.306 N 
HETATM   12  C   UNL     1       7.437  -4.478  26.149  1.00  0.00     0.146 A 
ATOM     13  HN  UNL     1       7.684  -2.596  25.434  1.00  0.00     0.170 HD
HETATM   14  N   UNL     1       8.357  -5.375  26.660  1.00  0.00    -0.284 N 
HETATM   15  C   UNL     1       6.280  -4.631  26.857  1.00  0.00     0.096 A 
HETATM   16  N   UNL     1       7.916  -6.073  27.604  1.00  0.00    -0.309 N 
ATOM     17  HN  UNL     1       9.308  -5.461  26.301  1.00  0.00     0.188 HD
HETATM   18  C   UNL     1       6.652  -5.721  27.789  1.00  0.00     0.135 A 
ATOM     19  HN  UNL     1       8.432  -6.778  28.131  1.00  0.00     0.186 HD
HETATM   20 CL   UNL     1       4.878  -3.788  26.631  1.00  0.00    -0.079 Cl
ENDBRANCH   8   9
BRANCH   1  21
HETATM   21  C   UNL     1       6.770  -1.093  21.453  1.00  0.00    -0.019 C 
BRANCH  21  22
HETATM   22  N   UNL     1       6.023  -0.864  20.524  1.00  0.00    -0.236 N 
ATOM     23  HN  UNL     1       5.068  -1.206  20.622  1.00  0.00     0.189 HD
BRANCH  22  24
HETATM   24  S   UNL     1       6.364  -0.074  19.140  1.00  0.00     0.327 S 
HETATM   25 CL   UNL     1       5.363   1.439  19.166  1.00  0.00     0.042 Cl
HETATM   26  O   UNL     1       7.735   0.352  19.090  1.00  0.00    -0.188 OA
HETATM   27  O   UNL     1       5.921  -0.823  18.001  1.00  0.00    -0.188 OA
ENDBRANCH  22  24
ENDBRANCH  21  22
ENDBRANCH   1  21
TORSDOF 4
ENDMDL
MODEL 4
REMARK VINA RESULT:    -7.001     19.790     22.679
REMARK INTER + INTRA:          -9.264
REMARK INTER:                  -8.631
REMARK INTRA:                  -0.633
REMARK UNBOUND:                -0.626
REMARK  4 active torsions:
REMARK  status: ('A' for Active; 'I' for Inactive)
REMARK    1  A    between atoms: S_2  and  N_5 
REMARK    2  A    between atoms: N_5  and  C_7 
REMARK    3  A    between atoms: C_7  and  C_8 
REMARK    4  A    between atoms: C_15  and  C_16 
REMARK       I    between atoms: C_16  and  N_18 
ROOT
HETATM    1  C   UNL     1       8.894  -2.224  22.967  1.00  0.00     0.066 A 
HETATM    2  C   UNL     1      10.042  -1.159  23.386  1.00  0.00     0.170 A 
HETATM    3  O   UNL     1       9.953  -0.343  24.467  1.00  0.00    -0.319 OA
HETATM    4  C   UNL     1      11.467  -0.164  24.604  1.00  0.00     0.228 C 
HETATM    5  N   UNL     1      12.118  -0.823  23.719  1.00  0.00    -0.357 N 
ATOM      6  HN  UNL     1      13.112  -0.758  23.500  1.00  0.00     0.166 HD
HETATM    7  C   UNL     1      11.268  -1.563  23.185  1.00  0.00     0.111 C 
HETATM    8  C   UNL     1       9.191  -1.066  22.361  1.00  0.00     0.075 A 
ENDROOT
BRANCH   8   9
HETATM    9  C   UNL     1       8.847  -0.129  21.137  1.00  0.00     0.258 C 
HETATM   10  O   UNL     1       9.675   0.576  20.692  1.00  0.00    -0.267 OA
HETATM   11  N   UNL     1       7.579  -0.328  20.766  1.00  0.00    -0.306 N 
HETATM   12  C   UNL     1       6.970   0.286  19.735  1.00  0.00     0.146 A 
ATOM     13  HN  UNL     1       7.030  -0.997  21.306  1.00  0.00     0.170 HD
HETATM   14  N   UNL     1       7.213   0.075  18.391  1.00  0.00    -0.284 N 
HETATM   15  C   UNL     1       5.957   1.196  19.830  1.00  0.00     0.096 A 
HETATM   16  N   UNL     1       6.473   0.744  17.629  1.00  0.00    -0.309 N 
ATOM     17  HN  UNL     1       7.929  -0.567  18.049  1.00  0.00     0.188 HD
HETATM   18  C   UNL     1       5.689   1.482  18.401  1.00  0.00     0.135 A 
ATOM     19  HN  UNL     1       6.475   0.723  16.610  1.00  0.00     0.186 HD
HETATM   20 CL   UNL     1       5.297   1.782  21.226  1.00  0.00    -0.079 Cl
ENDBRANCH   8   9
BRANCH   1  21
HETATM   21  C   UNL     1       8.337  -3.275  23.284  1.00  0.00    -0.019 C 
BRANCH  21  22
HETATM   22  N   UNL     1       7.997  -4.438  23.325  1.00  0.00    -0.236 N 
ATOM     23  HN  UNL     1       8.551  -5.047  23.928  1.00  0.00     0.189 HD
BRANCH  22  24
HETATM   24  S   UNL     1       6.761  -5.147  22.533  1.00  0.00     0.327 S 
HETATM   25 CL   UNL     1       5.609  -5.720  23.812  1.00  0.00     0.042 Cl
HETATM   26  O   UNL     1       6.032  -4.207  21.728  1.00  0.00    -0.188 OA
HETATM   27  O   UNL     1       7.202  -6.322  21.842  1.00  0.00    -0.188 OA
ENDBRANCH  22  24
ENDBRANCH  21  22
ENDBRANCH   1  21
TORSDOF 4
ENDMDL
MODEL 5
REMARK VINA RESULT:    -6.916     19.414     21.615
REMARK INTER + INTRA:          -9.159
REMARK INTER:                  -8.440
REMARK INTRA:                  -0.719
REMARK UNBOUND:                -0.626
REMARK  4 active torsions:
REMARK  status: ('A' for Active; 'I' for Inactive)
REMARK    1  A    between atoms: S_2  and  N_5 
REMARK    2  A    between atoms: N_5  and  C_7 
REMARK    3  A    between atoms: C_7  and  C_8 
REMARK    4  A    between atoms: C_15  and  C_16 
REMARK       I    between atoms: C_16  and  N_18 
ROOT
HETATM    1  C   UNL     1       7.991   0.863  21.225  1.00  0.00     0.066 A 
HETATM    2  C   UNL     1       6.914   0.565  20.051  1.00  0.00     0.170 A 
HETATM    3  O   UNL     1       5.731   1.221  19.931  1.00  0.00    -0.319 OA
HETATM    4  C   UNL     1       5.598   0.950  18.431  1.00  0.00     0.228 C 
HETATM    5  N   UNL     1       6.591   0.286  17.965  1.00  0.00    -0.357 N 
ATOM      6  HN  UNL     1       6.674  -0.147  17.045  1.00  0.00     0.166 HD
HETATM    7  C   UNL     1       7.433   0.287  18.884  1.00  0.00     0.111 C 
HETATM    8  C   UNL     1       7.189  -0.205  21.107  1.00  0.00     0.075 A 
ENDROOT
BRANCH   8   9
HETATM    9  C   UNL     1       6.800  -1.598  21.740  1.00  0.00     0.258 C 
HETATM   10  O   UNL     1       5.697  -1.992  21.649  1.00  0.00    -0.267 OA
HETATM   11  N   UNL     1       7.881  -2.152  22.298  1.00  0.00    -0.306 N 
HETATM   12  C   UNL     1       7.909  -3.354  22.901  1.00  0.00     0.146 A 
ATOM     13  HN  UNL     1       8.752  -1.622  22.265  1.00  0.00     0.170 HD
HETATM   14  N   UNL     1       7.811  -4.587  22.283  1.00  0.00    -0.284 N 
HETATM   15  C   UNL     1       8.095  -3.579  24.234  1.00  0.00     0.096 A 
HETATM   16  N   UNL     1       7.913  -5.559  23.070  1.00  0.00    -0.309 N 
ATOM     17  HN  UNL     1       7.669  -4.697  21.279  1.00  0.00     0.188 HD
HETATM   18  C   UNL     1       8.061  -5.059  24.287  1.00  0.00     0.135 A 
ATOM     19  HN  UNL     1       7.887  -6.548  22.819  1.00  0.00     0.186 HD
HETATM   20 CL   UNL     1       8.269  -2.425  25.404  1.00  0.00    -0.079 Cl
ENDBRANCH   8   9
BRANCH   1  21
HETATM   21  C   UNL     1       8.796   1.684  21.664  1.00  0.00    -0.019 C 
BRANCH  21  22
HETATM   22  N   UNL     1       9.819   2.214  22.044  1.00  0.00    -0.236 N 
ATOM     23  HN  UNL     1      10.141   3.011  21.496  1.00  0.00     0.189 HD
BRANCH  22  24
HETATM   24  S   UNL     1      10.739   1.806  23.326  1.00  0.00     0.327 S 
HETATM   25 CL   UNL     1       9.598   1.627  24.725  1.00  0.00     0.042 Cl
HETATM   26  O   UNL     1      11.362   0.524  23.151  1.00  0.00    -0.188 OA
HETATM   27  O   UNL     1      11.631   2.871  23.676  1.00  0.00    -0.188 OA
ENDBRANCH  22  24
ENDBRANCH  21  22
ENDBRANCH   1  21
TORSDOF 4
ENDMDL
MODEL 6
REMARK VINA RESULT:    -6.674     24.928     27.263
REMARK INTER + INTRA:          -8.861
REMARK INTER:                  -8.178
REMARK INTRA:                  -0.682
REMARK UNBOUND:                -0.626
REMARK  4 active torsions:
REMARK  status: ('A' for Active; 'I' for Inactive)
REMARK    1  A    between atoms: S_2  and  N_5 
REMARK    2  A    between atoms: N_5  and  C_7 
REMARK    3  A    between atoms: C_7  and  C_8 
REMARK    4  A    between atoms: C_15  and  C_16 
REMARK       I    between atoms: C_16  and  N_18 
ROOT
HETATM    1  C   UNL     1       5.880  -5.713  25.190  1.00  0.00     0.066 A 
HETATM    2  C   UNL     1       6.207  -4.948  23.798  1.00  0.00     0.170 A 
HETATM    3  O   UNL     1       6.304  -3.598  23.687  1.00  0.00    -0.319 OA
HETATM    4  C   UNL     1       7.192  -3.647  22.441  1.00  0.00     0.228 C 
HETATM    5  N   UNL     1       7.455  -4.848  22.076  1.00  0.00    -0.357 N 
ATOM      6  HN  UNL     1       7.892  -5.153  21.206  1.00  0.00     0.166 HD
HETATM    7  C   UNL     1       7.059  -5.561  23.020  1.00  0.00     0.111 C 
HETATM    8  C   UNL     1       5.063  -5.546  24.140  1.00  0.00     0.075 A 
ENDROOT
BRANCH   8   9
HETATM    9  C   UNL     1       3.635  -5.883  23.555  1.00  0.00     0.258 C 
HETATM   10  O   UNL     1       3.043  -5.064  22.956  1.00  0.00    -0.267 OA
HETATM   11  N   UNL     1       3.325  -7.151  23.839  1.00  0.00    -0.306 N 
HETATM   12  C   UNL     1       2.193  -7.773  23.463  1.00  0.00     0.146 A 
ATOM     13  HN  UNL     1       3.998  -7.690  24.385  1.00  0.00     0.170 HD
HETATM   14  N   UNL     1       1.855  -8.161  22.179  1.00  0.00    -0.284 N 
HETATM   15  C   UNL     1       1.190  -8.184  24.292  1.00  0.00     0.096 A 
HETATM   16  N   UNL     1       0.759  -8.767  22.104  1.00  0.00    -0.309 N 
ATOM     17  HN  UNL     1       2.443  -7.973  21.368  1.00  0.00     0.188 HD
HETATM   18  C   UNL     1       0.256  -8.812  23.328  1.00  0.00     0.135 A 
ATOM     19  HN  UNL     1       0.335  -9.153  21.260  1.00  0.00     0.186 HD
HETATM   20 CL   UNL     1       1.120  -7.960  25.927  1.00  0.00    -0.079 Cl
ENDBRANCH   8   9
BRANCH   1  21
HETATM   21  C   UNL     1       6.317  -5.998  26.304  1.00  0.00    -0.019 C 
BRANCH  21  22
HETATM   22  N   UNL     1       6.826  -5.922  27.403  1.00  0.00    -0.236 N 
ATOM     23  HN  UNL     1       7.786  -5.578  27.429  1.00  0.00     0.189 HD
BRANCH  22  24
HETATM   24  S   UNL     1       6.162  -6.304  28.841  1.00  0.00     0.327 S 
HETATM   25 CL   UNL     1       4.377  -6.443  28.548  1.00  0.00     0.042 Cl
HETATM   26  O   UNL     1       6.593  -7.593  29.305  1.00  0.00    -0.188 OA
HETATM   27  O   UNL     1       6.327  -5.236  29.782  1.00  0.00    -0.188 OA
ENDBRANCH  22  24
ENDBRANCH  21  22
ENDBRANCH   1  21
TORSDOF 4
ENDMDL
MODEL 7
REMARK VINA RESULT:    -6.662     20.526     23.110
REMARK INTER + INTRA:          -8.845
REMARK INTER:                  -8.172
REMARK INTRA:                  -0.673
REMARK UNBOUND:                -0.626
REMARK  4 active torsions:
REMARK  status: ('A' for Active; 'I' for Inactive)
REMARK    1  A    between atoms: S_2  and  N_5 
REMARK    2  A    between atoms: N_5  and  C_7 
REMARK    3  A    between atoms: C_7  and  C_8 
REMARK    4  A    between atoms: C_15  and  C_16 
REMARK       I    between atoms: C_16  and  N_18 
ROOT
HETATM    1  C   UNL     1       9.191  -1.009  21.987  1.00  0.00     0.066 A 
HETATM    2  C   UNL     1      10.490  -1.256  22.926  1.00  0.00     0.170 A 
HETATM    3  O   UNL     1      11.620  -1.875  22.498  1.00  0.00    -0.319 OA
HETATM    4  C   UNL     1      12.520  -1.213  23.545  1.00  0.00     0.228 C 
HETATM    5  N   UNL     1      11.874  -0.408  24.305  1.00  0.00    -0.357 N 
ATOM      6  HN  UNL     1      12.201   0.037  25.162  1.00  0.00     0.166 HD
HETATM    7  C   UNL     1      10.755  -0.290  23.765  1.00  0.00     0.111 C 
HETATM    8  C   UNL     1       9.318  -1.893  22.987  1.00  0.00     0.075 A 
ENDROOT
BRANCH   8   9
HETATM    9  C   UNL     1       8.567  -2.995  23.833  1.00  0.00     0.258 C 
HETATM   10  O   UNL     1       9.000  -3.328  24.873  1.00  0.00    -0.267 OA
HETATM   11  N   UNL     1       7.463  -3.379  23.184  1.00  0.00    -0.306 N 
HETATM   12  C   UNL     1       6.575  -4.283  23.638  1.00  0.00     0.146 A 
ATOM     13  HN  UNL     1       7.279  -2.954  22.275  1.00  0.00     0.170 HD
HETATM   14  N   UNL     1       5.690  -4.113  24.686  1.00  0.00    -0.284 N 
HETATM   15  C   UNL     1       6.349  -5.520  23.107  1.00  0.00     0.096 A 
HETATM   16  N   UNL     1       4.934  -5.096  24.877  1.00  0.00    -0.309 N 
ATOM     17  HN  UNL     1       5.654  -3.265  25.252  1.00  0.00     0.188 HD
HETATM   18  C   UNL     1       5.268  -6.020  23.989  1.00  0.00     0.135 A 
ATOM     19  HN  UNL     1       4.201  -5.170  25.583  1.00  0.00     0.186 HD
HETATM   20 CL   UNL     1       7.150  -6.197  21.832  1.00  0.00    -0.079 Cl
ENDBRANCH   8   9
BRANCH   1  21
HETATM   21  C   UNL     1       8.756  -0.383  21.021  1.00  0.00    -0.019 C 
BRANCH  21  22
HETATM   22  N   UNL     1       8.318  -0.102  19.926  1.00  0.00    -0.236 N 
ATOM     23  HN  UNL     1       8.999  -0.059  19.168  1.00  0.00     0.189 HD
BRANCH  22  24
HETATM   24  S   UNL     1       6.771   0.215  19.520  1.00  0.00     0.327 S 
HETATM   25 CL   UNL     1       6.200   1.490  20.677  1.00  0.00     0.042 Cl
HETATM   26  O   UNL     1       6.670   0.790  18.208  1.00  0.00    -0.188 OA
HETATM   27  O   UNL     1       5.938  -0.928  19.746  1.00  0.00    -0.188 OA
ENDBRANCH  22  24
ENDBRANCH  21  22
ENDBRANCH   1  21
TORSDOF 4
ENDMDL
MODEL 8
REMARK VINA RESULT:    -6.632      5.385      7.236
REMARK INTER + INTRA:          -8.809
REMARK INTER:                  -8.234
REMARK INTRA:                  -0.575
REMARK UNBOUND:                -0.626
REMARK  4 active torsions:
REMARK  status: ('A' for Active; 'I' for Inactive)
REMARK    1  A    between atoms: S_2  and  N_5 
REMARK    2  A    between atoms: N_5  and  C_7 
REMARK    3  A    between atoms: C_7  and  C_8 
REMARK    4  A    between atoms: C_15  and  C_16 
REMARK       I    between atoms: C_16  and  N_18 
ROOT
HETATM    1  C   UNL     1       9.414  17.669   3.072  1.00  0.00     0.066 A 
HETATM    2  C   UNL     1       8.716  17.931   1.632  1.00  0.00     0.170 A 
HETATM    3  O   UNL     1       7.471  18.453   1.483  1.00  0.00    -0.319 OA
HETATM    4  C   UNL     1       7.735  18.984   0.072  1.00  0.00     0.228 C 
HETATM    5  N   UNL     1       8.929  18.742  -0.325  1.00  0.00    -0.357 N 
ATOM      6  HN  UNL     1       9.308  18.854  -1.266  1.00  0.00     0.166 HD
HETATM    7  C   UNL     1       9.527  18.339   0.693  1.00  0.00     0.111 C 
HETATM    8  C   UNL     1       8.920  16.753   2.228  1.00  0.00     0.075 A 
ENDROOT
BRANCH   8   9
HETATM    9  C   UNL     1       8.726  15.205   1.978  1.00  0.00     0.258 C 
HETATM   10  O   UNL     1       9.055  14.735   0.953  1.00  0.00    -0.267 OA
HETATM   11  N   UNL     1       8.200  14.641   3.069  1.00  0.00    -0.306 N 
HETATM   12  C   UNL     1       7.933  13.329   3.208  1.00  0.00     0.146 A 
ATOM     13  HN  UNL     1       7.984  15.251   3.858  1.00  0.00     0.170 HD
HETATM   14  N   UNL     1       8.859  12.310   3.339  1.00  0.00    -0.284 N 
HETATM   15  C   UNL     1       6.692  12.769   3.300  1.00  0.00     0.096 A 
HETATM   16  N   UNL     1       8.346  11.176   3.501  1.00  0.00    -0.309 N 
ATOM     17  HN  UNL     1       9.866  12.466   3.306  1.00  0.00     0.188 HD
HETATM   18  C   UNL     1       7.031  11.337   3.466  1.00  0.00     0.135 A 
ATOM     19  HN  UNL     1       8.847  10.298   3.636  1.00  0.00     0.186 HD
HETATM   20 CL   UNL     1       5.250  13.569   3.205  1.00  0.00    -0.079 Cl
ENDBRANCH   8   9
BRANCH   1  21
HETATM   21  C   UNL     1       9.896  18.211   4.066  1.00  0.00    -0.019 C 
BRANCH  21  22
HETATM   22  N   UNL     1      10.640  18.817   4.809  1.00  0.00    -0.236 N 
ATOM     23  HN  UNL     1      10.271  19.032   5.735  1.00  0.00     0.189 HD
BRANCH  22  24
HETATM   24  S   UNL     1      12.157  19.330   4.504  1.00  0.00     0.327 S 
HETATM   25 CL   UNL     1      12.704  20.194   6.002  1.00  0.00     0.042 Cl
HETATM   26  O   UNL     1      13.065  18.232   4.319  1.00  0.00    -0.188 OA
HETATM   27  O   UNL     1      12.167  20.307   3.456  1.00  0.00    -0.188 OA
ENDBRANCH  22  24
ENDBRANCH  21  22
ENDBRANCH   1  21
TORSDOF 4
ENDMDL
MODEL 9
REMARK VINA RESULT:    -6.301     19.430     21.758
REMARK INTER + INTRA:          -8.400
REMARK INTER:                  -7.719
REMARK INTRA:                  -0.681
REMARK UNBOUND:                -0.626
REMARK  4 active torsions:
REMARK  status: ('A' for Active; 'I' for Inactive)
REMARK    1  A    between atoms: S_2  and  N_5 
REMARK    2  A    between atoms: N_5  and  C_7 
REMARK    3  A    between atoms: C_7  and  C_8 
REMARK    4  A    between atoms: C_15  and  C_16 
REMARK       I    between atoms: C_16  and  N_18 
ROOT
HETATM    1  C   UNL     1       7.350   0.046  21.454  1.00  0.00     0.066 A 
HETATM    2  C   UNL     1       6.574   0.236  20.043  1.00  0.00     0.170 A 
HETATM    3  O   UNL     1       5.484   1.031  19.885  1.00  0.00    -0.319 OA
HETATM    4  C   UNL     1       5.704   1.232  18.384  1.00  0.00     0.228 C 
HETATM    5  N   UNL     1       6.749   0.626  17.957  1.00  0.00    -0.357 N 
ATOM      6  HN  UNL     1       7.032   0.477  16.988  1.00  0.00     0.166 HD
HETATM    7  C   UNL     1       7.346   0.257  18.989  1.00  0.00     0.111 C 
HETATM    8  C   UNL     1       6.553  -0.838  20.837  1.00  0.00     0.075 A 
ENDROOT
BRANCH   8   9
HETATM    9  C   UNL     1       5.962  -2.301  20.901  1.00  0.00     0.258 C 
HETATM   10  O   UNL     1       5.305  -2.704  20.014  1.00  0.00    -0.267 OA
HETATM   11  N   UNL     1       6.359  -2.893  22.032  1.00  0.00    -0.306 N 
HETATM   12  C   UNL     1       6.059  -4.155  22.389  1.00  0.00     0.146 A 
ATOM     13  HN  UNL     1       6.933  -2.345  22.673  1.00  0.00     0.170 HD
HETATM   14  N   UNL     1       6.553  -5.312  21.816  1.00  0.00    -0.284 N 
HETATM   15  C   UNL     1       5.251  -4.524  23.425  1.00  0.00     0.096 A 
HETATM   16  N   UNL     1       6.150  -6.365  22.368  1.00  0.00    -0.309 N 
ATOM     17  HN  UNL     1       7.187  -5.311  21.017  1.00  0.00     0.188 HD
HETATM   18  C   UNL     1       5.330  -6.001  23.343  1.00  0.00     0.135 A 
ATOM     19  HN  UNL     1       6.406  -7.319  22.115  1.00  0.00     0.186 HD
HETATM   20 CL   UNL     1       4.421  -3.507  24.427  1.00  0.00    -0.079 Cl
ENDBRANCH   8   9
BRANCH   1  21
HETATM   21  C   UNL     1       8.061   0.602  22.291  1.00  0.00    -0.019 C 
BRANCH  21  22
HETATM   22  N   UNL     1       8.784   0.808  23.243  1.00  0.00    -0.236 N 
ATOM     23  HN  UNL     1       8.503   1.567  23.863  1.00  0.00     0.189 HD
BRANCH  22  24
HETATM   24  S   UNL     1      10.150   0.017  23.650  1.00  0.00     0.327 S 
HETATM   25 CL   UNL     1      10.624  -0.950  22.190  1.00  0.00     0.042 Cl
HETATM   26  O   UNL     1      11.237   0.922  23.901  1.00  0.00    -0.188 OA
HETATM   27  O   UNL     1       9.900  -0.934  24.692  1.00  0.00    -0.188 OA
ENDBRANCH  22  24
ENDBRANCH  21  22
ENDBRANCH   1  21
TORSDOF 4
ENDMDL
