REMARK  4 active torsions:
REMARK  status: ('A' for Active; 'I' for Inactive)
REMARK    1  A    between atoms: S_2  and  N_5 
REMARK    2  A    between atoms: N_5  and  C_7 
REMARK    3  A    between atoms: C_7  and  C_8 
REMARK    4  A    between atoms: C_15  and  C_16 
REMARK       I    between atoms: C_16  and  N_18 
ROOT
HETATM    1  C   UNL     1       9.454  -1.896  23.458  1.00  0.00     0.066 A 
HETATM    2  C   UNL     1      10.815  -1.033  23.279  1.00  0.00     0.170 A 
HETATM    3  O   UNL     1      11.247  -0.114  24.180  1.00  0.00    -0.319 OA
HETATM    4  C   UNL     1      12.714  -0.214  23.755  1.00  0.00     0.228 C 
HETATM    5  N   UNL     1      12.893  -1.068  22.816  1.00  0.00    -0.357 N 
ATOM      6  HN  UNL     1      13.735  -1.214  22.259  1.00  0.00     0.166 HD
HETATM    7  C   UNL     1      11.810  -1.681  22.733  1.00  0.00     0.111 C 
HETATM    8  C   UNL     1       9.669  -0.880  22.610  1.00  0.00     0.075 A 
ENDROOT
BRANCH   8   9
HETATM    9  C   UNL     1       9.036  -0.018  21.448  1.00  0.00     0.258 C 
HETATM   10  O   UNL     1       9.603   0.931  21.051  1.00  0.00    -0.267 OA
HETATM   11  N   UNL     1       7.881  -0.569  21.063  1.00  0.00    -0.306 N 
HETATM   12  C   UNL     1       7.096  -0.106  20.073  1.00  0.00     0.146 A 
ATOM     13  HN  UNL     1       7.570  -1.405  21.558  1.00  0.00     0.170 HD
HETATM   14  N   UNL     1       7.368  -0.150  18.718  1.00  0.00    -0.284 N 
HETATM   15  C   UNL     1       5.857   0.446  20.224  1.00  0.00     0.096 A 
HETATM   16  N   UNL     1       6.447   0.309  18.000  1.00  0.00    -0.309 N 
ATOM     17  HN  UNL     1       8.238  -0.522  18.337  1.00  0.00     0.188 HD
HETATM   18  C   UNL     1       5.490   0.725  18.816  1.00  0.00     0.135 A 
ATOM     19  HN  UNL     1       6.437   0.353  16.981  1.00  0.00     0.186 HD
HETATM   20 CL   UNL     1       5.076   0.717  21.654  1.00  0.00    -0.079 Cl
ENDBRANCH   8   9
BRANCH   1  21
HETATM   21  C   UNL     1       8.909  -2.786  24.110  1.00  0.00    -0.019 C 
BRANCH  21  22
HETATM   22  N   UNL     1       8.075  -3.469  24.666  1.00  0.00    -0.236 N 
ATOM     23  HN  UNL     1       7.172  -3.544  24.198  1.00  0.00     0.189 HD
BRANCH  22  24
HETATM   24  S   UNL     1       8.224  -4.282  26.071  1.00  0.00     0.327 S 
HETATM   25 CL   UNL     1       6.578  -4.948  26.442  1.00  0.00     0.042 Cl
HETATM   26  O   UNL     1       9.096  -5.416  25.943  1.00  0.00    -0.188 OA
HETATM   27  O   UNL     1       8.543  -3.391  27.147  1.00  0.00    -0.188 OA
ENDBRANCH  22  24
ENDBRANCH  21  22
ENDBRANCH   1  21
TORSDOF 4
