REMARK  7 active torsions:
REMARK  status: ('A' for Active; 'I' for Inactive)
REMARK    1  A    between atoms: S_2  and  N_5 
REMARK    2  A    between atoms: N_5  and  C_7 
REMARK    3  A    between atoms: C_7  and  C_8 
REMARK    4  A    between atoms: C_8  and  C_9 
REMARK    5  A    between atoms: C_9  and  C_15 
REMARK    6  A    between atoms: C_15  and  C_16 
REMARK       I    between atoms: C_16  and  N_18 
REMARK    7  A    between atoms: N_18  and  C_20 
ROOT
HETATM    1  C   UNL     1      10.378  -1.098  23.218  1.00  0.00     0.068 C 
HETATM    2  C   UNL     1      11.015   0.009  24.295  1.00  0.00     0.000 C 
HETATM    3  C   UNL     1      12.131   0.266  24.237  1.00  0.00    -0.002 C 
HETATM    4  C   UNL     1      13.059  -0.119  23.630  1.00  0.00    -0.001 C 
HETATM    5  C   UNL     1      12.791  -1.283  22.694  1.00  0.00    -0.002 C 
HETATM    6  C   UNL     1      11.822  -1.685  22.583  1.00  0.00     0.000 C 
ENDROOT
BRANCH   1   7
HETATM    7  C   UNL     1       9.429  -1.937  23.544  1.00  0.00     0.135 C 
BRANCH   7   8
HETATM    8  C   UNL     1       8.937  -2.844  24.136  1.00  0.00    -0.058 C 
BRANCH   8   9
HETATM    9  N   UNL     1       8.148  -3.596  24.631  1.00  0.00    -0.254 N 
ATOM     10  HN  UNL     1       7.333  -3.803  24.053  1.00  0.00     0.188 HD
BRANCH   9  11
HETATM   11  S   UNL     1       8.167  -4.339  26.073  1.00  0.00     0.233 S 
HETATM   12  C   UNL     1       6.676  -4.781  26.416  1.00  0.00     0.186 C 
HETATM   13  O   UNL     1       9.031  -5.509  26.053  1.00  0.00    -0.206 OA
HETATM   14  O   UNL     1       8.641  -3.442  27.085  1.00  0.00    -0.206 OA
ENDBRANCH   9  11
ENDBRANCH   8   9
ENDBRANCH   7   8
ENDBRANCH   1   7
BRANCH   1  15
HETATM   15  C   UNL     1       9.727  -0.554  22.331  1.00  0.00    -0.064 C 
BRANCH  15  16
HETATM   16  C   UNL     1       9.066   0.043  21.357  1.00  0.00     0.290 C 
HETATM   17  O   UNL     1       9.553   0.990  20.938  1.00  0.00    -0.259 OA
HETATM   18  N   UNL     1       7.904  -0.580  21.092  1.00  0.00    -0.314 N 
ATOM     19  HN  UNL     1       7.628  -1.420  21.601  1.00  0.00     0.170 HD
BRANCH  18  20
HETATM   20  C   UNL     1       7.161  -0.087  20.187  1.00  0.00     0.072 A 
HETATM   21  C   UNL     1       7.188  -0.003  18.883  1.00  0.00     0.119 A 
HETATM   22  N   UNL     1       6.779   0.271  17.771  1.00  0.00    -0.373 N 
HETATM   23  C   UNL     1       5.654   0.853  18.238  1.00  0.00     0.089 A 
ATOM     24  HN  UNL     1       7.149   0.118  16.833  1.00  0.00     0.164 HD
HETATM   25  C   UNL     1       5.288   0.958  19.359  1.00  0.00     0.043 A 
HETATM   26  C   UNL     1       5.807   0.533  20.538  1.00  0.00     0.063 A 
HETATM   27 CL   UNL     1       5.232   0.645  22.010  1.00  0.00    -0.082 Cl
ENDBRANCH  18  20
ENDBRANCH  15  16
ENDBRANCH   1  15
TORSDOF 7
