stable:False satoms:21 tatoms:24 sratio:0.875
  -OEChem-08052415383D

 25 25  0     1  0  0  0  0  0999 V2000
   12.4873   -0.5819   24.0438 C   0  0  0  0  0  0  0  0  0  0  0  0
   10.3321   -2.8132   22.3935 H   0  0  0  0  0  0  0  0  0  0  0  0
    7.5222   -0.5062   23.9435 N   0  0  0  0  0  0  0  0  0  0  0  0
    9.6325   -2.2166   22.9164 C   0  0  0  0  0  0  0  0  0  0  0  0
   11.1516   -0.6395   24.1463 N   0  0  0  0  0  0  0  0  0  0  0  0
   10.7106    2.4647   25.6210 H   0  0  0  0  0  0  0  0  0  0  0  0
    9.6105    1.3972   24.1655 C   0  0  0  0  0  0  0  0  0  0  0  0
   14.5387   -0.9939   22.4658 H   0  0  0  0  0  0  0  0  0  0  0  0
    8.2568   -2.5730   22.8921 C   0  0  0  0  0  0  0  0  0  0  0  0
   13.1765    0.2548   24.5045 O   0  0  0  0  0  0  0  0  0  0  0  0
   14.6496   -1.6085   24.1170 H   0  0  0  0  0  0  0  0  0  0  0  0
    7.0860    0.2617   24.3262 H   0  0  0  0  0  0  0  0  0  0  0  0
   10.0742   -1.1855   23.5760 C   0  0  0  0  0  0  0  0  0  0  0  0
   14.1799   -1.7626   23.1508 C   0  0  0  0  0  0  0  0  0  0  0  0
   12.7719   -1.6884   23.2850 O   0  0  0  0  0  0  0  0  0  0  0  0
    7.8671   -3.5482   22.3093 O   0  0  0  0  0  0  0  0  0  0  0  0
    8.5027    1.7691   23.9639 O   0  0  0  0  0  0  0  0  0  0  0  0
    7.3061   -1.6552   23.5718 C   0  0  0  0  0  0  0  0  0  0  0  0
   11.6956    1.8565   24.3147 H   0  0  0  0  0  0  0  0  0  0  0  0
    6.3046   -2.1142   23.6579 H   0  0  0  0  0  0  0  0  0  0  0  0
   10.1632    0.0972   24.0218 C   0  0  3  0  0  0  0  0  0  0  0  0
   10.7318    2.2788   24.5605 C   0  0  0  0  0  0  0  0  0  0  0  0
   14.4246   -2.7488   22.7829 H   0  0  0  0  0  0  0  0  0  0  0  0
   10.5882    3.2232   24.0404 H   0  0  0  0  0  0  0  0  0  0  0  0
    9.7874   -0.1965   25.0130 H   0  0  0  0  0  0  0  0  0  0  0  0
  6 22  1  0  0  0  0
 22 24  1  0  0  0  0
 19 22  1  0  0  0  0
  7 22  1  0  0  0  0
  1 10  2  0  0  0  0
  7 17  2  0  0  0  0
  7 21  1  0  0  0  0
 11 14  1  0  0  0  0
  1  5  1  0  0  0  0
  1 15  1  0  0  0  0
  5 21  1  0  0  0  0
  5 13  1  0  0  0  0
 13 21  1  0  0  0  0
  3 12  1  0  0  0  0
 14 15  1  0  0  0  0
  8 14  1  0  0  0  0
 14 23  1  0  0  0  0
  3 18  2  0  0  0  0
  4 13  2  0  0  0  0
 18 20  1  0  0  0  0
  9 18  1  0  0  0  0
  4  9  1  0  0  0  0
  2  4  1  0  0  0  0
  9 16  2  0  0  0  0
 21 25  1  0  0  0  0
M  END
> <Chemgauss4>
-6.248981

$$$$
