stable:False satoms:21 tatoms:24 sratio:0.875
  -OEChem-08052415383D

 25 25  0     1  0  0  0  0  0999 V2000
  -12.5159   -0.7627  -24.0274 C   0  0  0  0  0  0  0  0  0  0  0  0
  -10.3607   -2.9940  -22.3772 H   0  0  0  0  0  0  0  0  0  0  0  0
   -7.5508   -0.6869  -23.9272 N   0  0  0  0  0  0  0  0  0  0  0  0
   -9.6612   -2.3974  -22.9000 C   0  0  0  0  0  0  0  0  0  0  0  0
  -11.1802   -0.8203  -24.1300 N   0  0  0  0  0  0  0  0  0  0  0  0
  -10.7392    2.2839  -25.6046 H   0  0  0  0  0  0  0  0  0  0  0  0
   -9.6391    1.2164  -24.1491 C   0  0  0  0  0  0  0  0  0  0  0  0
  -14.5674   -1.1747  -22.4495 H   0  0  0  0  0  0  0  0  0  0  0  0
   -8.2854   -2.7537  -22.8757 C   0  0  0  0  0  0  0  0  0  0  0  0
  -13.2052    0.0741  -24.4882 O   0  0  0  0  0  0  0  0  0  0  0  0
  -14.6782   -1.7893  -24.1007 H   0  0  0  0  0  0  0  0  0  0  0  0
   -7.1146    0.0809  -24.3098 H   0  0  0  0  0  0  0  0  0  0  0  0
  -10.1028   -1.3662  -23.5597 C   0  0  0  0  0  0  0  0  0  0  0  0
  -14.2085   -1.9433  -23.1344 C   0  0  0  0  0  0  0  0  0  0  0  0
  -12.8005   -1.8692  -23.2687 O   0  0  0  0  0  0  0  0  0  0  0  0
   -7.8957   -3.7289  -22.2930 O   0  0  0  0  0  0  0  0  0  0  0  0
   -8.5313    1.5884  -23.9476 O   0  0  0  0  0  0  0  0  0  0  0  0
   -7.3347   -1.8359  -23.5554 C   0  0  0  0  0  0  0  0  0  0  0  0
  -11.7242    1.6757  -24.2984 H   0  0  0  0  0  0  0  0  0  0  0  0
   -6.3332   -2.2950  -23.6415 H   0  0  0  0  0  0  0  0  0  0  0  0
  -10.1918   -0.0835  -24.0055 C   0  0  3  0  0  0  0  0  0  0  0  0
  -10.7604    2.0981  -24.5442 C   0  0  0  0  0  0  0  0  0  0  0  0
  -14.4532   -2.9296  -22.7666 H   0  0  0  0  0  0  0  0  0  0  0  0
  -10.6168    3.0424  -24.0241 H   0  0  0  0  0  0  0  0  0  0  0  0
   -9.8160   -0.3772  -24.9967 H   0  0  0  0  0  0  0  0  0  0  0  0
  6 22  1  0  0  0  0
 22 24  1  0  0  0  0
 19 22  1  0  0  0  0
  7 22  1  0  0  0  0
  1 10  2  0  0  0  0
  7 17  2  0  0  0  0
  7 21  1  0  0  0  0
 11 14  1  0  0  0  0
  1  5  1  0  0  0  0
  1 15  1  0  0  0  0
  5 21  1  0  0  0  0
  5 13  1  0  0  0  0
 13 21  1  0  0  0  0
  3 12  1  0  0  0  0
 14 15  1  0  0  0  0
  8 14  1  0  0  0  0
 14 23  1  0  0  0  0
  3 18  2  0  0  0  0
  4 13  2  0  0  0  0
 18 20  1  0  0  0  0
  9 18  1  0  0  0  0
  4  9  1  0  0  0  0
  2  4  1  0  0  0  0
  9 16  2  0  0  0  0
 21 25  1  0  0  0  0
M  END
> <Chemgauss4>
-6.429416

$$$$
