stable:False satoms:11 tatoms:24 sratio:0.4583333333333333
  -OEChem-08062416023D

 45 46  0     1  0  0  0  0  0999 V2000
    6.2509   -5.1423   26.1116 C   0  0  0  0  0  0  0  0  0  0  0  0
    7.9616   -4.5924   25.9361 S   0  0  0  0  0  0  0  0  0  0  0  0
    8.7813   -5.7774   25.9134 O   0  0  0  0  0  0  0  0  0  0  0  0
    8.2547   -3.7905   27.0698 O   0  0  0  0  0  0  0  0  0  0  0  0
    7.9600   -3.7838   24.5697 N   0  0  0  0  0  0  0  0  0  0  0  0
    8.9157   -3.1408   24.1567 C   0  0  0  0  0  0  0  0  0  0  0  0
    9.4197   -2.1433   23.5975 C   0  0  0  0  0  0  0  0  0  0  0  0
   10.3811   -1.3606   23.4437 C   0  0  1  0  0  0  0  0  0  0  0  0
   10.9965   -0.2271   24.7176 C   0  0  0  0  0  0  0  0  0  0  0  0
   11.9481    0.0493   24.7616 C   0  0  0  0  0  0  0  0  0  0  0  0
   13.1927   -0.4424   24.0098 C   0  0  0  0  0  0  0  0  0  0  0  0
   12.8035   -1.4553   23.1624 C   0  0  0  0  0  0  0  0  0  0  0  0
   11.8362   -1.9051   22.9323 C   0  0  0  0  0  0  0  0  0  0  0  0
    9.8318   -0.7421   22.5961 C   0  0  1  0  0  0  0  0  0  0  0  0
    9.2398   -0.0287   21.5980 C   0  0  0  0  0  0  0  0  0  0  0  0
    9.7749    0.9409   21.3139 O   0  0  0  0  0  0  0  0  0  0  0  0
    8.1648   -0.6055   21.1284 N   0  0  0  0  0  0  0  0  0  0  0  0
    7.5607   -0.1051   20.1430 C   0  0  0  0  0  0  0  0  0  0  0  0
    7.7079    0.0598   18.8729 C   0  0  0  0  0  0  0  0  0  0  0  0
    7.3305    0.4655   17.7921 N   0  0  0  0  0  0  0  0  0  0  0  0
    6.2171    1.0445   18.1078 C   0  0  0  0  0  0  0  0  0  0  0  0
    5.6960    1.0789   19.3273 C   0  0  0  0  0  0  0  0  0  0  0  0
    6.0969    0.6033   20.4936 C   0  0  0  0  0  0  0  0  0  0  0  0
    5.5648    0.6235   21.6739 C   0  0  0  0  0  0  0  0  0  0  0  0
    6.1446   -5.7204   27.0414 H   0  0  0  0  0  0  0  0  0  0  0  0
    5.5861   -4.2665   26.1466 H   0  0  0  0  0  0  0  0  0  0  0  0
    5.9793   -5.7748   25.2536 H   0  0  0  0  0  0  0  0  0  0  0  0
    7.2045   -3.1325   24.6403 H   0  0  0  0  0  0  0  0  0  0  0  0
    9.7679   -3.7560   24.4050 H   0  0  0  0  0  0  0  0  0  0  0  0
   10.5725   -0.7685   24.3508 H   0  0  0  0  0  0  0  0  0  0  0  0
   10.6932   -1.0129   24.0417 H   0  0  0  0  0  0  0  0  0  0  0  0
   10.2638    0.2578   25.3456 H   0  0  0  0  0  0  0  0  0  0  0  0
   12.1446    0.8419   25.4684 H   0  0  0  0  0  0  0  0  0  0  0  0
   13.9370   -0.8200   24.7263 H   0  0  0  0  0  0  0  0  0  0  0  0
   13.6289    0.3837   23.4290 H   0  0  0  0  0  0  0  0  0  0  0  0
   13.6230   -1.8946   22.6130 H   0  0  0  0  0  0  0  0  0  0  0  0
   11.8401   -2.7888   22.3115 H   0  0  0  0  0  0  0  0  0  0  0  0
    9.4020   -0.0660   23.3498 H   0  0  0  0  0  0  0  0  0  0  0  0
    7.8220   -1.4442   21.5516 H   0  0  0  0  0  0  0  0  0  0  0  0
    8.6605   -0.4021   18.6593 H   0  0  0  0  0  0  0  0  0  0  0  0
    5.6701    1.5376   17.3178 H   0  0  0  0  0  0  0  0  0  0  0  0
    4.7523    1.6018   19.3773 H   0  0  0  0  0  0  0  0  0  0  0  0
    4.9331   -0.2671   21.8072 H   0  0  0  0  0  0  0  0  0  0  0  0
    6.3597    0.6261   22.4343 H   0  0  0  0  0  0  0  0  0  0  0  0
    4.9498    1.5289   21.7833 H   0  0  0  0  0  0  0  0  0  0  0  0
 20 21  2  0  0  0  0
 19 20  1  0  0  0  0
 21 22  1  0  0  0  0
 18 19  2  0  0  0  0
 22 23  2  0  0  0  0
 18 23  1  0  0  0  0
 17 18  1  0  0  0  0
 23 24  1  0  0  0  0
 15 16  2  0  0  0  0
 15 17  1  0  0  0  0
 14 15  1  0  0  0  0
  8 14  1  0  0  0  0
  7 14  1  0  0  0  0
 12 13  2  0  0  0  0
  8 13  1  0  0  0  0
 11 12  1  0  0  0  0
  7  8  1  0  0  0  0
 10 11  1  0  0  0  0
  6  7  2  3  0  0  0
  5  6  1  0  0  0  0
  9 10  2  0  0  0  0
  2  5  1  0  0  0  0
  2  3  2  0  0  0  0
  1  2  1  0  0  0  0
  2  4  2  0  0  0  0
  1 25  1  0  0  0  0
  1 26  1  0  0  0  0
  1 27  1  0  0  0  0
  5 28  1  0  0  0  0
  6 29  1  0  0  0  0
  8 30  1  0  0  0  0
  9 31  1  0  0  0  0
  9 32  1  0  0  0  0
 10 33  1  0  0  0  0
 11 34  1  0  0  0  0
 11 35  1  0  0  0  0
 12 36  1  0  0  0  0
 13 37  1  0  0  0  0
 14 38  1  0  0  0  0
 17 39  1  0  0  0  0
 19 40  1  0  0  0  0
 21 41  1  0  0  0  0
 22 42  1  0  0  0  0
 24 43  1  0  0  0  0
 24 44  1  0  0  0  0
 24 45  1  0  0  0  0
M  END
> <Chemgauss4>
-13.354664

$$$$
