stable:False satoms:11 tatoms:24 sratio:0.4583333333333333
  -OEChem-08062416023D

 45 46  0     1  0  0  0  0  0999 V2000
   -6.3261   -5.0815  -26.1852 C   0  0  0  0  0  0  0  0  0  0  0  0
   -8.0369   -4.5316  -26.0096 S   0  0  0  0  0  0  0  0  0  0  0  0
   -8.8565   -5.7166  -25.9870 O   0  0  0  0  0  0  0  0  0  0  0  0
   -8.3299   -3.7297  -27.1434 O   0  0  0  0  0  0  0  0  0  0  0  0
   -8.0353   -3.7230  -24.6432 N   0  0  0  0  0  0  0  0  0  0  0  0
   -8.9909   -3.0800  -24.2303 C   0  0  0  0  0  0  0  0  0  0  0  0
   -9.4950   -2.0825  -23.6711 C   0  0  0  0  0  0  0  0  0  0  0  0
  -10.4564   -1.2998  -23.5172 C   0  0  1  0  0  0  0  0  0  0  0  0
  -11.0718   -0.1662  -24.7912 C   0  0  0  0  0  0  0  0  0  0  0  0
  -12.0233    0.1101  -24.8352 C   0  0  0  0  0  0  0  0  0  0  0  0
  -13.2679   -0.3816  -24.0834 C   0  0  0  0  0  0  0  0  0  0  0  0
  -12.8787   -1.3945  -23.2359 C   0  0  0  0  0  0  0  0  0  0  0  0
  -11.9115   -1.8443  -23.0059 C   0  0  0  0  0  0  0  0  0  0  0  0
   -9.9070   -0.6813  -22.6697 C   0  0  1  0  0  0  0  0  0  0  0  0
   -9.3151    0.0321  -21.6716 C   0  0  0  0  0  0  0  0  0  0  0  0
   -9.8502    1.0017  -21.3875 O   0  0  0  0  0  0  0  0  0  0  0  0
   -8.2400   -0.5447  -21.2019 N   0  0  0  0  0  0  0  0  0  0  0  0
   -7.6360   -0.0443  -20.2166 C   0  0  0  0  0  0  0  0  0  0  0  0
   -7.7832    0.1207  -18.9465 C   0  0  0  0  0  0  0  0  0  0  0  0
   -7.4057    0.5263  -17.8657 N   0  0  0  0  0  0  0  0  0  0  0  0
   -6.2924    1.1053  -18.1813 C   0  0  0  0  0  0  0  0  0  0  0  0
   -5.7712    1.1397  -19.4009 C   0  0  0  0  0  0  0  0  0  0  0  0
   -6.1721    0.6641  -20.5671 C   0  0  0  0  0  0  0  0  0  0  0  0
   -5.6401    0.6843  -21.7475 C   0  0  0  0  0  0  0  0  0  0  0  0
   -6.2199   -5.6596  -27.1150 H   0  0  0  0  0  0  0  0  0  0  0  0
   -5.6614   -4.2057  -26.2201 H   0  0  0  0  0  0  0  0  0  0  0  0
   -6.0546   -5.7140  -25.3272 H   0  0  0  0  0  0  0  0  0  0  0  0
   -7.2797   -3.0717  -24.7139 H   0  0  0  0  0  0  0  0  0  0  0  0
   -9.8431   -3.6952  -24.4786 H   0  0  0  0  0  0  0  0  0  0  0  0
  -10.6478   -0.7077  -24.4243 H   0  0  0  0  0  0  0  0  0  0  0  0
  -10.7684   -0.9521  -24.1153 H   0  0  0  0  0  0  0  0  0  0  0  0
  -10.3390    0.3187  -25.4192 H   0  0  0  0  0  0  0  0  0  0  0  0
  -12.2198    0.9027  -25.5420 H   0  0  0  0  0  0  0  0  0  0  0  0
  -14.0123   -0.7592  -24.7998 H   0  0  0  0  0  0  0  0  0  0  0  0
  -13.7042    0.4445  -23.5026 H   0  0  0  0  0  0  0  0  0  0  0  0
  -13.6983   -1.8337  -22.6866 H   0  0  0  0  0  0  0  0  0  0  0  0
  -11.9153   -2.7280  -22.3851 H   0  0  0  0  0  0  0  0  0  0  0  0
   -9.4772   -0.0052  -23.4234 H   0  0  0  0  0  0  0  0  0  0  0  0
   -7.8972   -1.3834  -21.6252 H   0  0  0  0  0  0  0  0  0  0  0  0
   -8.7357   -0.3412  -18.7328 H   0  0  0  0  0  0  0  0  0  0  0  0
   -5.7454    1.5984  -17.3914 H   0  0  0  0  0  0  0  0  0  0  0  0
   -4.8276    1.6626  -19.4509 H   0  0  0  0  0  0  0  0  0  0  0  0
   -5.0083   -0.2063  -21.8808 H   0  0  0  0  0  0  0  0  0  0  0  0
   -6.4350    0.6869  -22.5078 H   0  0  0  0  0  0  0  0  0  0  0  0
   -5.0251    1.5897  -21.8569 H   0  0  0  0  0  0  0  0  0  0  0  0
 20 21  2  0  0  0  0
 19 20  1  0  0  0  0
 21 22  1  0  0  0  0
 18 19  2  0  0  0  0
 22 23  2  0  0  0  0
 18 23  1  0  0  0  0
 17 18  1  0  0  0  0
 23 24  1  0  0  0  0
 15 16  2  0  0  0  0
 15 17  1  0  0  0  0
 14 15  1  0  0  0  0
  8 14  1  0  0  0  0
  7 14  1  0  0  0  0
 12 13  2  0  0  0  0
  8 13  1  0  0  0  0
 11 12  1  0  0  0  0
  7  8  1  0  0  0  0
 10 11  1  0  0  0  0
  6  7  2  3  0  0  0
  5  6  1  0  0  0  0
  9 10  2  0  0  0  0
  2  5  1  0  0  0  0
  2  3  2  0  0  0  0
  1  2  1  0  0  0  0
  2  4  2  0  0  0  0
  1 25  1  0  0  0  0
  1 26  1  0  0  0  0
  1 27  1  0  0  0  0
  5 28  1  0  0  0  0
  6 29  1  0  0  0  0
  8 30  1  0  0  0  0
  9 31  1  0  0  0  0
  9 32  1  0  0  0  0
 10 33  1  0  0  0  0
 11 34  1  0  0  0  0
 11 35  1  0  0  0  0
 12 36  1  0  0  0  0
 13 37  1  0  0  0  0
 14 38  1  0  0  0  0
 17 39  1  0  0  0  0
 19 40  1  0  0  0  0
 21 41  1  0  0  0  0
 22 42  1  0  0  0  0
 24 43  1  0  0  0  0
 24 44  1  0  0  0  0
 24 45  1  0  0  0  0
M  END
> <Chemgauss4>
-13.087352

$$$$
