stable:False satoms:16 tatoms:24 sratio:0.6666666666666666
  -OEChem-07092417283D

 24 25  0     1  0  0  0  0  0999 V2000
    7.1966   -3.6189   21.5118 H   0  0  0  0  0  0  0  0  0  0  0  0
    9.3385   -0.0805   23.4766 C   0  0  3  0  0  0  0  0  0  0  0  0
    8.2784   -0.2940   23.0405 N   0  3  0  0  0  0  0  0  0  0  0  0
    8.8681   -2.6181   19.4791 O   0  0  0  0  0  0  0  0  0  0  0  0
   11.1824   -1.6858   22.4914 S   0  0  0  0  0  0  0  0  0  0  0  0
    8.2653   -3.8332   22.8988 H   0  0  0  0  0  0  0  0  0  0  0  0
   10.7640    0.6589   25.0939 H   0  0  0  0  0  0  0  0  0  0  0  0
    6.7575   -2.2596   23.1345 C   0  0  0  0  0  0  0  0  0  0  0  0
   11.3675   -1.8112   20.1026 H   0  0  0  0  0  0  0  0  0  0  0  0
    4.9647   -2.5151   22.5498 H   0  0  0  0  0  0  0  0  0  0  0  0
    9.3502   -2.4069   20.5628 C   0  0  0  0  0  0  0  0  0  0  0  0
    9.3175   -1.1042   22.6478 C   0  0  1  0  0  0  0  0  0  0  0  0
    8.7434    2.5440   23.1679 C   0  0  0  0  0  0  0  0  0  0  0  0
    7.7494   -3.0818   22.2844 C   0  0  0  0  0  0  0  0  0  0  0  0
    5.5321   -2.9232   23.2056 O   0  0  0  0  0  0  0  0  0  0  0  0
   10.8537   -2.3908   20.8564 C   0  0  0  0  0  0  0  0  0  0  0  0
   11.1964   -3.4188   20.8342 H   0  0  0  0  0  0  0  0  0  0  0  0
    9.8627    2.9620   24.7954 H   0  0  0  0  0  0  0  0  0  0  0  0
    7.9106    3.0574   22.1896 N   0  3  0  0  0  0  0  0  0  0  0  0
    6.6433   -1.2732   22.6633 H   0  0  0  0  0  0  0  0  0  0  0  0
    8.6740   -2.1845   21.6904 N   0  0  0  0  0  0  0  0  0  0  0  0
    7.1613   -2.0865   24.1373 H   0  0  0  0  0  0  0  0  0  0  0  0
   10.0433    0.9093   24.3496 C   0  0  0  0  0  0  0  0  0  0  0  0
    9.5633    2.1646   24.1330 C   0  0  0  0  0  0  0  0  0  0  0  0
  4 11  2  0  0  0  0
  9 16  1  0  0  0  0
 11 16  1  0  0  0  0
 11 21  1  0  0  0  0
 16 17  1  0  0  0  0
  5 16  1  0  0  0  0
  1 14  1  0  0  0  0
 14 21  1  0  0  0  0
 12 21  1  0  0  0  0
 13 19  1  0  0  0  0
  6 14  1  0  0  0  0
  8 14  1  0  0  0  0
  5 12  1  0  0  0  0
 10 15  1  0  0  0  0
  3 12  1  0  0  0  0
  2 12  1  0  0  0  0
  8 20  1  0  0  0  0
  2  3  1  0  0  0  0
  8 15  1  0  0  0  0
  8 22  1  0  0  0  0
 13 24  1  0  0  0  0
  2 23  1  0  0  0  0
 23 24  2  0  0  0  0
 18 24  1  0  0  0  0
  7 23  1  0  0  0  0
M  CHG  2   3   1  19   1
M  END
> <Shapegauss>
-108.582230

$$$$
