MODEL 1
REMARK VINA RESULT:    -4.855      0.000      0.000
REMARK INTER + INTRA:          -6.667
REMARK INTER:                  -6.274
REMARK INTRA:                  -0.394
REMARK UNBOUND:                -0.394
REMARK  6 active torsions:
REMARK  status: ('A' for Active; 'I' for Inactive)
REMARK    1  A    between atoms: C_1  and  C_18 
REMARK    2  A    between atoms: C_6  and  C_11 
REMARK    3  A    between atoms: C_6  and  O_12 
REMARK    4  A    between atoms: C_10  and  N_14 
REMARK    5  A    between atoms: C_10  and  C_19 
REMARK    6  A    between atoms: C_11  and  N_17 
ROOT
HETATM    1  C   UNL     1      10.925  -1.254  22.647  1.00  0.00     0.069 A 
HETATM    2  N   UNL     1      10.459  -0.952  21.622  1.00  0.00    -0.349 N 
ATOM      3  HN  UNL     1      10.589  -0.644  20.658  1.00  0.00     0.163 HD
HETATM    4  O   UNL     1       6.480  -2.564  21.567  1.00  0.00    -0.272 OA
HETATM    5  S   UNL     1       9.109  -1.998  24.407  1.00  0.00    -0.100 SA
HETATM    6  C   UNL     1       7.316  -2.130  22.318  1.00  0.00     0.232 C 
HETATM    7  C   UNL     1       9.609  -1.305  22.644  1.00  0.00     0.204 A 
HETATM    8  C   UNL     1       7.552  -2.642  23.743  1.00  0.00     0.181 C 
HETATM    9  N   UNL     1       8.150  -1.122  22.063  1.00  0.00    -0.308 N 
ENDROOT
BRANCH   1  10
HETATM   10  C   UNL     1      12.263  -1.479  23.279  1.00  0.00     0.040 C 
HETATM   11  C   UNL     1      12.622  -0.404  24.034  1.00  0.00     0.076 C 
BRANCH  11  12
HETATM   12  C   UNL     1      12.017   0.771  24.079  1.00  0.00    -0.049 C 
BRANCH  12  13
HETATM   13  N   UNL     1      11.460   2.036  24.034  1.00  0.00    -0.366 N 
ATOM     14  HN2 UNL     1      11.699   1.915  23.050  1.00  0.00     0.165 HD
ATOM     15  HN1 UNL     1      11.035   2.962  24.092  1.00  0.00     0.165 HD
ENDBRANCH  12  13
ENDBRANCH  11  12
ENDBRANCH   1  10
BRANCH   9  16
HETATM   16  C   UNL     1       7.762   0.204  21.740  1.00  0.00     0.155 C 
BRANCH  16  17
HETATM   17  C   UNL     1       7.424   0.254  20.235  1.00  0.00     0.184 C 
BRANCH  17  18
HETATM   18  O   UNL     1       8.539  -0.126  19.486  1.00  0.00    -0.399 OA
HETATM   19  H   UNL     1       9.308   0.140  19.993  1.00  0.00     0.209 HD
ENDBRANCH  17  18
ENDBRANCH  16  17
ENDBRANCH   9  16
TORSDOF 6
ENDMDL
MODEL 2
REMARK VINA RESULT:    -4.728      2.819      4.743
REMARK INTER + INTRA:          -6.504
REMARK INTER:                  -6.259
REMARK INTRA:                  -0.245
REMARK UNBOUND:                -0.394
REMARK  6 active torsions:
REMARK  status: ('A' for Active; 'I' for Inactive)
REMARK    1  A    between atoms: C_1  and  C_18 
REMARK    2  A    between atoms: C_6  and  C_11 
REMARK    3  A    between atoms: C_6  and  O_12 
REMARK    4  A    between atoms: C_10  and  N_14 
REMARK    5  A    between atoms: C_10  and  C_19 
REMARK    6  A    between atoms: C_11  and  N_17 
ROOT
HETATM    1  C   UNL     1       9.041  -0.924  25.430  1.00  0.00     0.069 A 
HETATM    2  N   UNL     1       9.616  -0.014  25.877  1.00  0.00    -0.349 N 
ATOM      3  HN  UNL     1       9.709   0.688  26.612  1.00  0.00     0.163 HD
HETATM    4  O   UNL     1      13.538  -0.072  24.131  1.00  0.00    -0.272 OA
HETATM    5  S   UNL     1      10.180  -1.873  23.251  1.00  0.00    -0.100 SA
HETATM    6  C   UNL     1      12.393  -0.363  23.897  1.00  0.00     0.232 C 
HETATM    7  C   UNL     1      10.079  -0.564  24.704  1.00  0.00     0.204 A 
HETATM    8  C   UNL     1      11.957  -1.577  23.069  1.00  0.00     0.181 C 
HETATM    9  N   UNL     1      11.317   0.324  24.281  1.00  0.00    -0.308 N 
ENDROOT
BRANCH   1  10
HETATM   10  C   UNL     1       7.900  -1.835  25.758  1.00  0.00     0.040 C 
HETATM   11  C   UNL     1       6.830  -1.568  24.958  1.00  0.00     0.076 C 
BRANCH  11  12
HETATM   12  C   UNL     1       6.690  -0.541  24.138  1.00  0.00    -0.049 C 
BRANCH  12  13
HETATM   13  N   UNL     1       6.436   0.484  23.245  1.00  0.00    -0.366 N 
ATOM     14  HN2 UNL     1       5.490   0.126  23.376  1.00  0.00     0.165 HD
ATOM     15  HN1 UNL     1       6.339   1.258  22.588  1.00  0.00     0.165 HD
ENDBRANCH  12  13
ENDBRANCH  11  12
ENDBRANCH   1  10
BRANCH   9  16
HETATM   16  C   UNL     1      11.038   1.673  23.938  1.00  0.00     0.155 C 
BRANCH  16  17
HETATM   17  C   UNL     1      10.052   1.673  22.750  1.00  0.00     0.184 C 
BRANCH  17  18
HETATM   18  O   UNL     1      10.681   2.182  21.613  1.00  0.00    -0.399 OA
HETATM   19  H   UNL     1       9.983   2.405  20.995  1.00  0.00     0.209 HD
ENDBRANCH  17  18
ENDBRANCH  16  17
ENDBRANCH   9  16
TORSDOF 6
ENDMDL
MODEL 3
REMARK VINA RESULT:    -4.661      2.220      4.421
REMARK INTER + INTRA:          -6.417
REMARK INTER:                  -6.473
REMARK INTRA:                   0.056
REMARK UNBOUND:                -0.394
REMARK  6 active torsions:
REMARK  status: ('A' for Active; 'I' for Inactive)
REMARK    1  A    between atoms: C_1  and  C_18 
REMARK    2  A    between atoms: C_6  and  C_11 
REMARK    3  A    between atoms: C_6  and  O_12 
REMARK    4  A    between atoms: C_10  and  N_14 
REMARK    5  A    between atoms: C_10  and  C_19 
REMARK    6  A    between atoms: C_11  and  N_17 
ROOT
HETATM    1  C   UNL     1       8.545  -2.571  23.660  1.00  0.00     0.069 A 
HETATM    2  N   UNL     1       9.398  -2.647  22.870  1.00  0.00    -0.349 N 
ATOM      3  HN  UNL     1      10.186  -3.164  22.479  1.00  0.00     0.163 HD
HETATM    4  O   UNL     1       8.335   0.008  19.667  1.00  0.00    -0.272 OA
HETATM    5  S   UNL     1       7.049  -0.425  23.335  1.00  0.00    -0.100 SA
HETATM    6  C   UNL     1       8.221  -0.133  20.858  1.00  0.00     0.232 C 
HETATM    7  C   UNL     1       8.582  -1.540  22.842  1.00  0.00     0.204 A 
HETATM    8  C   UNL     1       6.983   0.272  21.665  1.00  0.00     0.181 C 
HETATM    9  N   UNL     1       9.146  -0.629  21.680  1.00  0.00    -0.308 N 
ENDROOT
BRANCH   1  10
HETATM   10  C   UNL     1       7.925  -3.372  24.761  1.00  0.00     0.040 C 
HETATM   11  C   UNL     1       7.562  -4.605  24.310  1.00  0.00     0.076 C 
BRANCH  11  12
HETATM   12  C   UNL     1       7.550  -5.017  23.054  1.00  0.00    -0.049 C 
BRANCH  12  13
HETATM   13  N   UNL     1       7.422  -5.402  21.732  1.00  0.00    -0.366 N 
ATOM     14  HN2 UNL     1       6.827  -4.573  21.732  1.00  0.00     0.165 HD
ATOM     15  HN1 UNL     1       7.383  -5.756  20.776  1.00  0.00     0.165 HD
ENDBRANCH  12  13
ENDBRANCH  11  12
ENDBRANCH   1  10
BRANCH   9  16
HETATM   16  C   UNL     1      10.444  -0.090  21.875  1.00  0.00     0.155 C 
BRANCH  16  17
HETATM   17  C   UNL     1      10.293   1.343  22.427  1.00  0.00     0.184 C 
BRANCH  17  18
HETATM   18  O   UNL     1      10.673   2.269  21.455  1.00  0.00    -0.399 OA
HETATM   19  H   UNL     1      10.515   1.851  20.607  1.00  0.00     0.209 HD
ENDBRANCH  17  18
ENDBRANCH  16  17
ENDBRANCH   9  16
TORSDOF 6
ENDMDL
MODEL 4
REMARK VINA RESULT:    -4.604      3.175      4.401
REMARK INTER + INTRA:          -6.344
REMARK INTER:                  -5.799
REMARK INTRA:                  -0.545
REMARK UNBOUND:                -0.394
REMARK  6 active torsions:
REMARK  status: ('A' for Active; 'I' for Inactive)
REMARK    1  A    between atoms: C_1  and  C_18 
REMARK    2  A    between atoms: C_6  and  C_11 
REMARK    3  A    between atoms: C_6  and  O_12 
REMARK    4  A    between atoms: C_10  and  N_14 
REMARK    5  A    between atoms: C_10  and  C_19 
REMARK    6  A    between atoms: C_11  and  N_17 
ROOT
HETATM    1  C   UNL     1      11.195   0.409  24.818  1.00  0.00     0.069 A 
HETATM    2  N   UNL     1      10.340   0.316  25.605  1.00  0.00    -0.349 N 
ATOM      3  HN  UNL     1       9.950  -0.151  26.424  1.00  0.00     0.163 HD
HETATM    4  O   UNL     1       8.245   4.065  25.577  1.00  0.00    -0.272 OA
HETATM    5  S   UNL     1      10.821   2.410  23.144  1.00  0.00    -0.100 SA
HETATM    6  C   UNL     1       8.870   3.323  24.861  1.00  0.00     0.232 C 
HETATM    7  C   UNL     1      10.231   1.288  24.637  1.00  0.00     0.204 A 
HETATM    8  C   UNL     1       9.802   3.784  23.736  1.00  0.00     0.181 C 
HETATM    9  N   UNL     1       8.840   1.991  24.898  1.00  0.00    -0.308 N 
ENDROOT
BRANCH   1  10
HETATM   10  C   UNL     1      12.536  -0.176  24.506  1.00  0.00     0.040 C 
HETATM   11  C   UNL     1      12.451  -1.029  23.448  1.00  0.00     0.076 C 
BRANCH  11  12
HETATM   12  C   UNL     1      11.346  -1.469  22.871  1.00  0.00    -0.049 C 
BRANCH  12  13
HETATM   13  N   UNL     1      10.222  -1.862  22.169  1.00  0.00    -0.366 N 
ATOM     14  HN2 UNL     1       9.857  -1.030  22.633  1.00  0.00     0.165 HD
ATOM     15  HN1 UNL     1       9.442  -2.223  21.619  1.00  0.00     0.165 HD
ENDBRANCH  12  13
ENDBRANCH  11  12
ENDBRANCH   1  10
BRANCH   9  16
HETATM   16  C   UNL     1       7.683   1.190  24.707  1.00  0.00     0.155 C 
BRANCH  16  17
HETATM   17  C   UNL     1       7.609   0.800  23.216  1.00  0.00     0.184 C 
BRANCH  17  18
HETATM   18  O   UNL     1       7.679  -0.588  23.085  1.00  0.00    -0.399 OA
HETATM   19  H   UNL     1       8.610  -0.814  23.098  1.00  0.00     0.209 HD
ENDBRANCH  17  18
ENDBRANCH  16  17
ENDBRANCH   9  16
TORSDOF 6
ENDMDL
MODEL 5
REMARK VINA RESULT:    -4.588      1.872      2.264
REMARK INTER + INTRA:          -6.323
REMARK INTER:                  -5.798
REMARK INTRA:                  -0.524
REMARK UNBOUND:                -0.394
REMARK  6 active torsions:
REMARK  status: ('A' for Active; 'I' for Inactive)
REMARK    1  A    between atoms: C_1  and  C_18 
REMARK    2  A    between atoms: C_6  and  C_11 
REMARK    3  A    between atoms: C_6  and  O_12 
REMARK    4  A    between atoms: C_10  and  N_14 
REMARK    5  A    between atoms: C_10  and  C_19 
REMARK    6  A    between atoms: C_11  and  N_17 
ROOT
HETATM    1  C   UNL     1      11.140  -0.772  23.896  1.00  0.00     0.069 A 
HETATM    2  N   UNL     1      11.092  -1.580  23.056  1.00  0.00    -0.349 N 
ATOM      3  HN  UNL     1      11.518  -2.021  22.241  1.00  0.00     0.163 HD
HETATM    4  O   UNL     1       8.292  -4.554  24.380  1.00  0.00    -0.272 OA
HETATM    5  S   UNL     1       9.094  -0.910  25.552  1.00  0.00    -0.100 SA
HETATM    6  C   UNL     1       8.530  -3.375  24.458  1.00  0.00     0.232 C 
HETATM    7  C   UNL     1      10.050  -1.510  23.952  1.00  0.00     0.204 A 
HETATM    8  C   UNL     1       8.280  -2.520  25.704  1.00  0.00     0.181 C 
HETATM    9  N   UNL     1       9.015  -2.608  23.481  1.00  0.00    -0.308 N 
ENDROOT
BRANCH   1  10
HETATM   10  C   UNL     1      12.065   0.274  24.432  1.00  0.00     0.040 C 
HETATM   11  C   UNL     1      11.714   1.506  23.970  1.00  0.00     0.076 C 
BRANCH  11  12
HETATM   12  C   UNL     1      10.825   1.775  23.029  1.00  0.00    -0.049 C 
BRANCH  12  13
HETATM   13  N   UNL     1       9.990   2.095  21.974  1.00  0.00    -0.366 N 
ATOM     14  HN2 UNL     1      10.829   2.604  21.694  1.00  0.00     0.165 HD
ATOM     15  HN1 UNL     1       9.309   2.280  21.237  1.00  0.00     0.165 HD
ENDBRANCH  12  13
ENDBRANCH  11  12
ENDBRANCH   1  10
BRANCH   9  16
HETATM   16  C   UNL     1       8.396  -2.393  22.222  1.00  0.00     0.155 C 
BRANCH  16  17
HETATM   17  C   UNL     1       7.636  -1.052  22.282  1.00  0.00     0.184 C 
BRANCH  17  18
HETATM   18  O   UNL     1       8.116  -0.190  21.295  1.00  0.00    -0.399 OA
HETATM   19  H   UNL     1       7.394   0.400  21.076  1.00  0.00     0.209 HD
ENDBRANCH  17  18
ENDBRANCH  16  17
ENDBRANCH   9  16
TORSDOF 6
ENDMDL
MODEL 6
REMARK VINA RESULT:    -4.443     13.969     15.123
REMARK INTER + INTRA:          -6.135
REMARK INTER:                  -6.088
REMARK INTRA:                  -0.047
REMARK UNBOUND:                -0.394
REMARK  6 active torsions:
REMARK  status: ('A' for Active; 'I' for Inactive)
REMARK    1  A    between atoms: C_1  and  C_18 
REMARK    2  A    between atoms: C_6  and  C_11 
REMARK    3  A    between atoms: C_6  and  O_12 
REMARK    4  A    between atoms: C_10  and  N_14 
REMARK    5  A    between atoms: C_10  and  C_19 
REMARK    6  A    between atoms: C_11  and  N_17 
ROOT
HETATM    1  C   UNL     1      22.639  -1.820  24.575  1.00  0.00     0.069 A 
HETATM    2  N   UNL     1      22.005  -2.788  24.716  1.00  0.00    -0.349 N 
ATOM      3  HN  UNL     1      21.090  -3.228  24.815  1.00  0.00     0.163 HD
HETATM    4  O   UNL     1      24.503  -6.069  23.522  1.00  0.00    -0.272 OA
HETATM    5  S   UNL     1      25.219  -2.319  24.370  1.00  0.00    -0.100 SA
HETATM    6  C   UNL     1      24.554  -4.969  24.010  1.00  0.00     0.232 C 
HETATM    7  C   UNL     1      23.373  -2.910  24.654  1.00  0.00     0.204 A 
HETATM    8  C   UNL     1      25.682  -3.962  23.765  1.00  0.00     0.181 C 
HETATM    9  N   UNL     1      23.670  -4.449  24.862  1.00  0.00    -0.308 N 
ENDROOT
BRANCH   1  10
HETATM   10  C   UNL     1      22.460  -0.352  24.347  1.00  0.00     0.040 C 
HETATM   11  C   UNL     1      22.267   0.296  25.530  1.00  0.00     0.076 C 
BRANCH  11  12
HETATM   12  C   UNL     1      22.058  -0.259  26.712  1.00  0.00    -0.049 C 
BRANCH  12  13
HETATM   13  N   UNL     1      21.726  -0.868  27.908  1.00  0.00    -0.366 N 
ATOM     14  HN2 UNL     1      22.119  -1.665  27.408  1.00  0.00     0.165 HD
ATOM     15  HN1 UNL     1      21.450  -1.236  28.819  1.00  0.00     0.165 HD
ENDBRANCH  12  13
ENDBRANCH  11  12
ENDBRANCH   1  10
BRANCH   9  16
HETATM   16  C   UNL     1      23.337  -4.989  26.131  1.00  0.00     0.155 C 
BRANCH  16  17
HETATM   17  C   UNL     1      24.559  -5.770  26.658  1.00  0.00     0.184 C 
BRANCH  17  18
HETATM   18  O   UNL     1      24.305  -7.141  26.605  1.00  0.00    -0.399 OA
HETATM   19  H   UNL     1      23.558  -7.300  27.183  1.00  0.00     0.209 HD
ENDBRANCH  17  18
ENDBRANCH  16  17
ENDBRANCH   9  16
TORSDOF 6
ENDMDL
MODEL 7
REMARK VINA RESULT:    -4.431      1.420      1.454
REMARK INTER + INTRA:          -6.120
REMARK INTER:                  -5.840
REMARK INTRA:                  -0.281
REMARK UNBOUND:                -0.394
REMARK  6 active torsions:
REMARK  status: ('A' for Active; 'I' for Inactive)
REMARK    1  A    between atoms: C_1  and  C_18 
REMARK    2  A    between atoms: C_6  and  C_11 
REMARK    3  A    between atoms: C_6  and  O_12 
REMARK    4  A    between atoms: C_10  and  N_14 
REMARK    5  A    between atoms: C_10  and  C_19 
REMARK    6  A    between atoms: C_11  and  N_17 
ROOT
HETATM    1  C   UNL     1       9.957  -1.529  22.390  1.00  0.00     0.069 A 
HETATM    2  N   UNL     1       9.484  -1.167  21.388  1.00  0.00    -0.349 N 
ATOM      3  HN  UNL     1       9.605  -0.770  20.455  1.00  0.00     0.163 HD
HETATM    4  O   UNL     1       5.607  -2.995  21.136  1.00  0.00    -0.272 OA
HETATM    5  S   UNL     1       8.170  -2.527  24.052  1.00  0.00    -0.100 SA
HETATM    6  C   UNL     1       6.409  -2.580  21.934  1.00  0.00     0.232 C 
HETATM    7  C   UNL     1       8.646  -1.655  22.363  1.00  0.00     0.204 A 
HETATM    8  C   UNL     1       6.661  -3.199  23.313  1.00  0.00     0.181 C 
HETATM    9  N   UNL     1       7.185  -1.508  21.778  1.00  0.00    -0.308 N 
ENDROOT
BRANCH   1  10
HETATM   10  C   UNL     1      11.299  -1.730  23.020  1.00  0.00     0.040 C 
HETATM   11  C   UNL     1      11.524  -0.788  23.977  1.00  0.00     0.076 C 
BRANCH  11  12
HETATM   12  C   UNL     1      10.793   0.286  24.219  1.00  0.00    -0.049 C 
BRANCH  12  13
HETATM   13  N   UNL     1       9.973   1.346  24.560  1.00  0.00    -0.366 N 
ATOM     14  HN2 UNL     1       9.308   0.766  24.047  1.00  0.00     0.165 HD
ATOM     15  HN1 UNL     1       9.440   2.165  24.854  1.00  0.00     0.165 HD
ENDBRANCH  12  13
ENDBRANCH  11  12
ENDBRANCH   1  10
BRANCH   9  16
HETATM   16  C   UNL     1       6.722  -0.183  21.564  1.00  0.00     0.155 C 
BRANCH  16  17
HETATM   17  C   UNL     1       6.362  -0.034  20.072  1.00  0.00     0.184 C 
BRANCH  17  18
HETATM   18  O   UNL     1       4.990  -0.216  19.895  1.00  0.00    -0.399 OA
HETATM   19  H   UNL     1       4.596  -0.172  20.767  1.00  0.00     0.209 HD
ENDBRANCH  17  18
ENDBRANCH  16  17
ENDBRANCH   9  16
TORSDOF 6
ENDMDL
MODEL 8
REMARK VINA RESULT:    -4.425     13.232     15.364
REMARK INTER + INTRA:          -6.113
REMARK INTER:                  -5.872
REMARK INTRA:                  -0.240
REMARK UNBOUND:                -0.394
REMARK  6 active torsions:
REMARK  status: ('A' for Active; 'I' for Inactive)
REMARK    1  A    between atoms: C_1  and  C_18 
REMARK    2  A    between atoms: C_6  and  C_11 
REMARK    3  A    between atoms: C_6  and  O_12 
REMARK    4  A    between atoms: C_10  and  N_14 
REMARK    5  A    between atoms: C_10  and  C_19 
REMARK    6  A    between atoms: C_11  and  N_17 
ROOT
HETATM    1  C   UNL     1      23.830  -1.446  25.139  1.00  0.00     0.069 A 
HETATM    2  N   UNL     1      24.172  -2.477  24.715  1.00  0.00    -0.349 N 
ATOM      3  HN  UNL     1      24.455  -3.044  23.916  1.00  0.00     0.163 HD
HETATM    4  O   UNL     1      25.684  -4.725  28.047  1.00  0.00    -0.272 OA
HETATM    5  S   UNL     1      23.525  -1.477  27.758  1.00  0.00    -0.100 SA
HETATM    6  C   UNL     1      24.872  -3.881  27.764  1.00  0.00     0.232 C 
HETATM    7  C   UNL     1      23.922  -2.379  26.065  1.00  0.00     0.204 A 
HETATM    8  C   UNL     1      24.487  -2.708  28.672  1.00  0.00     0.181 C 
HETATM    9  N   UNL     1      24.152  -3.832  26.644  1.00  0.00    -0.308 N 
ENDROOT
BRANCH   1  10
HETATM   10  C   UNL     1      23.612  -0.035  24.691  1.00  0.00     0.040 C 
HETATM   11  C   UNL     1      22.285   0.207  24.504  1.00  0.00     0.076 C 
BRANCH  11  12
HETATM   12  C   UNL     1      21.308  -0.684  24.505  1.00  0.00    -0.049 C 
BRANCH  12  13
HETATM   13  N   UNL     1      20.236  -1.552  24.414  1.00  0.00    -0.366 N 
ATOM     14  HN2 UNL     1      19.807  -0.703  24.044  1.00  0.00     0.165 HD
ATOM     15  HN1 UNL     1      19.499  -2.257  24.382  1.00  0.00     0.165 HD
ENDBRANCH  12  13
ENDBRANCH  11  12
ENDBRANCH   1  10
BRANCH   9  16
HETATM   16  C   UNL     1      23.251  -4.836  26.202  1.00  0.00     0.155 C 
BRANCH  16  17
HETATM   17  C   UNL     1      24.077  -6.011  25.639  1.00  0.00     0.184 C 
BRANCH  17  18
HETATM   18  O   UNL     1      24.177  -7.021  26.597  1.00  0.00    -0.399 OA
HETATM   19  H   UNL     1      24.509  -6.606  27.394  1.00  0.00     0.209 HD
ENDBRANCH  17  18
ENDBRANCH  16  17
ENDBRANCH   9  16
TORSDOF 6
ENDMDL
MODEL 9
REMARK VINA RESULT:    -4.298      2.839      4.110
REMARK INTER + INTRA:          -5.948
REMARK INTER:                  -5.671
REMARK INTRA:                  -0.278
REMARK UNBOUND:                -0.394
REMARK  6 active torsions:
REMARK  status: ('A' for Active; 'I' for Inactive)
REMARK    1  A    between atoms: C_1  and  C_18 
REMARK    2  A    between atoms: C_6  and  C_11 
REMARK    3  A    between atoms: C_6  and  O_12 
REMARK    4  A    between atoms: C_10  and  N_14 
REMARK    5  A    between atoms: C_10  and  C_19 
REMARK    6  A    between atoms: C_11  and  N_17 
ROOT
HETATM    1  C   UNL     1       7.070  -0.713  22.876  1.00  0.00     0.069 A 
HETATM    2  N   UNL     1       6.508  -1.157  21.956  1.00  0.00    -0.349 N 
ATOM      3  HN  UNL     1       6.096  -1.964  21.488  1.00  0.00     0.163 HD
HETATM    4  O   UNL     1       4.611   2.147  19.976  1.00  0.00    -0.272 OA
HETATM    5  S   UNL     1       7.409   1.895  22.696  1.00  0.00    -0.100 SA
HETATM    6  C   UNL     1       5.579   1.868  20.636  1.00  0.00     0.232 C 
HETATM    7  C   UNL     1       6.797   0.188  21.955  1.00  0.00     0.204 A 
HETATM    8  C   UNL     1       6.223   2.799  21.670  1.00  0.00     0.181 C 
HETATM    9  N   UNL     1       6.273   0.732  20.566  1.00  0.00    -0.308 N 
ENDROOT
BRANCH   1  10
HETATM   10  C   UNL     1       7.577  -1.127  24.222  1.00  0.00     0.040 C 
HETATM   11  C   UNL     1       8.905  -1.423  24.162  1.00  0.00     0.076 C 
BRANCH  11  12
HETATM   12  C   UNL     1       9.643  -1.541  23.072  1.00  0.00    -0.049 C 
BRANCH  12  13
HETATM   13  N   UNL     1      10.338  -1.754  21.896  1.00  0.00    -0.366 N 
ATOM     14  HN2 UNL     1       9.614  -1.119  21.559  1.00  0.00     0.165 HD
ATOM     15  HN1 UNL     1      10.907  -1.966  21.076  1.00  0.00     0.165 HD
ENDBRANCH  12  13
ENDBRANCH  11  12
ENDBRANCH   1  10
BRANCH   9  16
HETATM   16  C   UNL     1       6.931   0.241  19.408  1.00  0.00     0.155 C 
BRANCH  16  17
HETATM   17  C   UNL     1       5.952  -0.684  18.655  1.00  0.00     0.184 C 
BRANCH  17  18
HETATM   18  O   UNL     1       5.213   0.057  17.733  1.00  0.00    -0.399 OA
HETATM   19  H   UNL     1       5.127  -0.491  16.952  1.00  0.00     0.209 HD
ENDBRANCH  17  18
ENDBRANCH  16  17
ENDBRANCH   9  16
TORSDOF 6
ENDMDL
