REMARK  8 active torsions:
REMARK  status: ('A' for Active; 'I' for Inactive)
REMARK    1  A    between atoms: S_2  and  N_5 
REMARK    2  A    between atoms: N_5  and  C_7 
REMARK    3  A    between atoms: C_8  and  C_9 
REMARK    4  A    between atoms: C_9  and  C_16 
REMARK    5  A    between atoms: C_13  and  C_14 
REMARK    6  A    between atoms: C_14  and  C_15 
REMARK    7  A    between atoms: C_16  and  C_17 
REMARK       I    between atoms: C_17  and  N_19 
REMARK    8  A    between atoms: N_19  and  C_21 
ROOT
HETATM    1  C   UNL     1      10.342  -1.366  22.959  1.00  0.00     0.070 C 
HETATM    2  C   UNL     1      11.617  -1.649  22.778  1.00  0.00     0.031 C 
ENDROOT
BRANCH   1   3
HETATM    3  C   UNL     1       9.569  -2.167  23.728  1.00  0.00    -0.034 C 
HETATM    4  C   UNL     1       8.982  -2.936  24.295  1.00  0.00     0.027 C 
BRANCH   4   5
HETATM    5  N   UNL     1       8.111  -3.648  24.749  1.00  0.00    -0.229 N 
ATOM      6  HN  UNL     1       7.240  -3.760  24.230  1.00  0.00     0.190 HD
BRANCH   5   7
HETATM    7  S   UNL     1       8.293  -4.413  26.134  1.00  0.00     0.327 S 
HETATM    8 CL   UNL     1       6.518  -4.856  26.515  1.00  0.00     0.042 Cl
HETATM    9  O   UNL     1       9.007  -5.649  26.029  1.00  0.00    -0.188 OA
HETATM   10  O   UNL     1       8.745  -3.561  27.162  1.00  0.00    -0.188 OA
ENDBRANCH   5   7
ENDBRANCH   4   5
ENDBRANCH   1   3
BRANCH   1  11
HETATM   11  C   UNL     1       9.790  -0.501  22.205  1.00  0.00    -0.035 C 
BRANCH  11  12
HETATM   12  C   UNL     1       9.040   0.112  21.279  1.00  0.00     0.294 C 
HETATM   13  O   UNL     1       9.489   1.074  20.709  1.00  0.00    -0.258 OA
HETATM   14  N   UNL     1       7.846  -0.498  21.129  1.00  0.00    -0.315 N 
ATOM     15  HN  UNL     1       7.562  -1.287  21.710  1.00  0.00     0.170 HD
BRANCH  14  16
HETATM   16  C   UNL     1       7.078  -0.014  20.193  1.00  0.00     0.051 A 
HETATM   17  C   UNL     1       7.169   0.029  18.857  1.00  0.00     0.117 A 
HETATM   18  N   UNL     1       6.701   0.286  17.770  1.00  0.00    -0.373 N 
HETATM   19  C   UNL     1       5.584   0.836  18.140  1.00  0.00     0.088 A 
ATOM     20  HN  UNL     1       7.075   0.119  16.836  1.00  0.00     0.164 HD
HETATM   21  C   UNL     1       5.278   0.889  19.328  1.00  0.00     0.019 A 
HETATM   22  C   UNL     1       5.768   0.561  20.495  1.00  0.00     0.032 A 
ENDBRANCH  14  16
ENDBRANCH  11  12
ENDBRANCH   1  11
BRANCH   2  23
HETATM   23  C   UNL     1      12.641  -1.080  23.018  1.00  0.00     0.019 C 
BRANCH  23  24
HETATM   24  C   UNL     1      13.013  -0.248  23.619  1.00  0.00     0.086 C 
HETATM   25  N   UNL     1      12.259   0.481  24.421  1.00  0.00    -0.385 N 
HETATM   26  C   UNL     1      11.361   0.362  24.318  1.00  0.00     0.117 C 
ATOM     27  HN  UNL     1      12.652   1.129  25.104  1.00  0.00     0.163 HD
ENDBRANCH  23  24
ENDBRANCH   2  23
TORSDOF 8
