MODEL 1
REMARK VINA RESULT:    -6.446      0.000      0.000
REMARK INTER + INTRA:         -10.201
REMARK INTER:                  -9.460
REMARK INTRA:                  -0.741
REMARK UNBOUND:                -0.741
REMARK  8 active torsions:
REMARK  status: ('A' for Active; 'I' for Inactive)
REMARK    1  A    between atoms: S_2  and  N_5 
REMARK    2  A    between atoms: N_5  and  C_7 
REMARK    3  A    between atoms: C_8  and  C_9 
REMARK    4  A    between atoms: C_9  and  C_16 
REMARK    5  A    between atoms: C_13  and  C_14 
REMARK    6  A    between atoms: C_14  and  C_15 
REMARK    7  A    between atoms: C_16  and  C_17 
REMARK       I    between atoms: C_17  and  N_19 
REMARK    8  A    between atoms: N_19  and  C_21 
ROOT
HETATM    1  C   UNL     1       8.007  -0.219  21.001  1.00  0.00     0.070 C 
HETATM    2  C   UNL     1       7.816   0.008  19.717  1.00  0.00     0.031 C 
ENDROOT
BRANCH   1   3
HETATM    3  C   UNL     1       9.051   0.349  21.646  1.00  0.00    -0.034 C 
HETATM    4  C   UNL     1       9.997   0.757  22.089  1.00  0.00     0.027 C 
BRANCH   4   5
HETATM    5  N   UNL     1      10.953   1.002  22.795  1.00  0.00    -0.229 N 
ATOM      6  HN  UNL     1      11.462   1.875  22.657  1.00  0.00     0.190 HD
BRANCH   5   7
HETATM    7  S   UNL     1      11.432  -0.006  23.932  1.00  0.00     0.327 S 
HETATM    8 CL   UNL     1      11.699  -1.556  22.924  1.00  0.00     0.042 Cl
HETATM    9  O   UNL     1      12.699   0.327  24.510  1.00  0.00    -0.188 OA
HETATM   10  O   UNL     1      10.415  -0.281  24.868  1.00  0.00    -0.188 OA
ENDBRANCH   5   7
ENDBRANCH   4   5
ENDBRANCH   1   3
BRANCH   1  11
HETATM   11  C   UNL     1       7.370  -1.170  21.559  1.00  0.00    -0.035 C 
BRANCH  11  12
HETATM   12  C   UNL     1       7.031  -2.327  22.144  1.00  0.00     0.294 C 
HETATM   13  O   UNL     1       7.875  -2.948  22.739  1.00  0.00    -0.258 OA
HETATM   14  N   UNL     1       5.724  -2.607  21.964  1.00  0.00    -0.315 N 
ATOM     15  HN  UNL     1       5.115  -2.017  21.395  1.00  0.00     0.170 HD
BRANCH  14  16
HETATM   16  C   UNL     1       5.287  -3.679  22.564  1.00  0.00     0.051 A 
HETATM   17  C   UNL     1       5.338  -4.985  22.270  1.00  0.00     0.117 A 
HETATM   18  N   UNL     1       5.146  -6.145  22.558  1.00  0.00    -0.373 N 
HETATM   19  C   UNL     1       4.545  -5.988  23.699  1.00  0.00     0.088 A 
ATOM     20  HN  UNL     1       5.386  -6.998  22.053  1.00  0.00     0.164 HD
HETATM   21  C   UNL     1       4.403  -4.867  24.180  1.00  0.00     0.019 A 
HETATM   22  C   UNL     1       4.662  -3.620  23.884  1.00  0.00     0.032 A 
ENDBRANCH  14  16
ENDBRANCH  11  12
ENDBRANCH   1  11
BRANCH   2  23
HETATM   23  C   UNL     1       6.930   0.494  19.077  1.00  0.00     0.019 C 
BRANCH  23  24
HETATM   24  C   UNL     1       6.093   0.190  18.445  1.00  0.00     0.086 C 
HETATM   25  N   UNL     1       4.900   0.754  18.476  1.00  0.00    -0.385 N 
HETATM   26  C   UNL     1       4.755   1.309  19.185  1.00  0.00     0.117 C 
ATOM     27  HN  UNL     1       4.193   0.581  17.761  1.00  0.00     0.163 HD
ENDBRANCH  23  24
ENDBRANCH   2  23
TORSDOF 8
ENDMDL
MODEL 2
REMARK VINA RESULT:    -6.441      3.332      6.407
REMARK INTER + INTRA:         -10.194
REMARK INTER:                  -9.499
REMARK INTRA:                  -0.695
REMARK UNBOUND:                -0.741
REMARK  8 active torsions:
REMARK  status: ('A' for Active; 'I' for Inactive)
REMARK    1  A    between atoms: S_2  and  N_5 
REMARK    2  A    between atoms: N_5  and  C_7 
REMARK    3  A    between atoms: C_8  and  C_9 
REMARK    4  A    between atoms: C_9  and  C_16 
REMARK    5  A    between atoms: C_13  and  C_14 
REMARK    6  A    between atoms: C_14  and  C_15 
REMARK    7  A    between atoms: C_16  and  C_17 
REMARK       I    between atoms: C_17  and  N_19 
REMARK    8  A    between atoms: N_19  and  C_21 
ROOT
HETATM    1  C   UNL     1       9.154  -2.258  23.305  1.00  0.00     0.070 C 
HETATM    2  C   UNL     1      10.451  -2.047  23.415  1.00  0.00     0.031 C 
ENDROOT
BRANCH   1   3
HETATM    3  C   UNL     1       8.600  -3.377  23.826  1.00  0.00    -0.034 C 
HETATM    4  C   UNL     1       8.023  -4.265  24.197  1.00  0.00     0.027 C 
BRANCH   4   5
HETATM    5  N   UNL     1       7.430  -5.081  24.870  1.00  0.00    -0.229 N 
ATOM      6  HN  UNL     1       6.892  -5.813  24.405  1.00  0.00     0.190 HD
BRANCH   5   7
HETATM    7  S   UNL     1       7.470  -5.041  26.462  1.00  0.00     0.327 S 
HETATM    8 CL   UNL     1       6.459  -3.504  26.790  1.00  0.00     0.042 Cl
HETATM    9  O   UNL     1       6.779  -6.124  27.091  1.00  0.00    -0.188 OA
HETATM   10  O   UNL     1       8.768  -4.806  26.960  1.00  0.00    -0.188 OA
ENDBRANCH   5   7
ENDBRANCH   4   5
ENDBRANCH   1   3
BRANCH   1  11
HETATM   11  C   UNL     1       8.481  -1.548  22.491  1.00  0.00    -0.035 C 
BRANCH  11  12
HETATM   12  C   UNL     1       8.091  -0.798  21.451  1.00  0.00     0.294 C 
HETATM   13  O   UNL     1       8.908  -0.118  20.884  1.00  0.00    -0.258 OA
HETATM   14  N   UNL     1       6.775  -0.954  21.197  1.00  0.00    -0.315 N 
ATOM     15  HN  UNL     1       6.173  -1.531  21.784  1.00  0.00     0.170 HD
BRANCH  14  16
HETATM   16  C   UNL     1       6.322  -0.318  20.152  1.00  0.00     0.051 A 
HETATM   17  C   UNL     1       6.097  -0.678  18.881  1.00  0.00     0.117 A 
HETATM   18  N   UNL     1       5.672  -0.442  17.772  1.00  0.00    -0.373 N 
HETATM   19  C   UNL     1       5.326   0.800  17.932  1.00  0.00     0.088 A 
ATOM     20  HN  UNL     1       5.606  -1.043  16.950  1.00  0.00     0.164 HD
HETATM   21  C   UNL     1       5.426   1.339  19.031  1.00  0.00     0.019 A 
HETATM   22  C   UNL     1       5.839   1.059  20.240  1.00  0.00     0.032 A 
ENDBRANCH  14  16
ENDBRANCH  11  12
ENDBRANCH   1  11
BRANCH   2  23
HETATM   23  C   UNL     1      11.118  -1.193  23.921  1.00  0.00     0.019 C 
BRANCH  23  24
HETATM   24  C   UNL     1      11.312  -0.122  23.831  1.00  0.00     0.086 C 
HETATM   25  N   UNL     1      12.497   0.433  24.009  1.00  0.00    -0.385 N 
HETATM   26  C   UNL     1      13.124  -0.112  24.385  1.00  0.00     0.117 C 
ATOM     27  HN  UNL     1      12.695   1.398  23.746  1.00  0.00     0.163 HD
ENDBRANCH  23  24
ENDBRANCH   2  23
TORSDOF 8
ENDMDL
MODEL 3
REMARK VINA RESULT:    -6.372      4.632      7.673
REMARK INTER + INTRA:         -10.093
REMARK INTER:                  -9.377
REMARK INTRA:                  -0.716
REMARK UNBOUND:                -0.741
REMARK  8 active torsions:
REMARK  status: ('A' for Active; 'I' for Inactive)
REMARK    1  A    between atoms: S_2  and  N_5 
REMARK    2  A    between atoms: N_5  and  C_7 
REMARK    3  A    between atoms: C_8  and  C_9 
REMARK    4  A    between atoms: C_9  and  C_16 
REMARK    5  A    between atoms: C_13  and  C_14 
REMARK    6  A    between atoms: C_14  and  C_15 
REMARK    7  A    between atoms: C_16  and  C_17 
REMARK       I    between atoms: C_17  and  N_19 
REMARK    8  A    between atoms: N_19  and  C_21 
ROOT
HETATM    1  C   UNL     1       7.517  -4.135  24.694  1.00  0.00     0.070 C 
HETATM    2  C   UNL     1       6.339  -4.084  24.102  1.00  0.00     0.031 C 
ENDROOT
BRANCH   1   3
HETATM    3  C   UNL     1       7.663  -4.798  25.864  1.00  0.00    -0.034 C 
HETATM    4  C   UNL     1       7.783  -5.463  26.759  1.00  0.00     0.027 C 
BRANCH   4   5
HETATM    5  N   UNL     1       7.622  -6.093  27.783  1.00  0.00    -0.229 N 
ATOM      6  HN  UNL     1       8.427  -6.285  28.380  1.00  0.00     0.190 HD
BRANCH   5   7
HETATM    7  S   UNL     1       6.187  -6.630  28.218  1.00  0.00     0.327 S 
HETATM    8 CL   UNL     1       5.456  -5.080  28.964  1.00  0.00     0.042 Cl
HETATM    9  O   UNL     1       5.341  -6.991  27.122  1.00  0.00    -0.188 OA
HETATM   10  O   UNL     1       6.263  -7.595  29.242  1.00  0.00    -0.188 OA
ENDBRANCH   5   7
ENDBRANCH   4   5
ENDBRANCH   1   3
BRANCH   1  11
HETATM   11  C   UNL     1       8.437  -3.347  24.302  1.00  0.00    -0.035 C 
BRANCH  11  12
HETATM   12  C   UNL     1       9.126  -2.282  23.867  1.00  0.00     0.294 C 
HETATM   13  O   UNL     1       9.192  -2.077  22.681  1.00  0.00    -0.258 OA
HETATM   14  N   UNL     1       9.646  -1.578  24.893  1.00  0.00    -0.315 N 
ATOM     15  HN  UNL     1       9.557  -1.884  25.862  1.00  0.00     0.170 HD
BRANCH  14  16
HETATM   16  C   UNL     1      10.270  -0.481  24.567  1.00  0.00     0.051 A 
HETATM   17  C   UNL     1       9.882   0.794  24.432  1.00  0.00     0.117 A 
HETATM   18  N   UNL     1      10.132   1.964  24.243  1.00  0.00    -0.373 N 
HETATM   19  C   UNL     1      11.406   1.878  24.007  1.00  0.00     0.088 A 
ATOM     20  HN  UNL     1       9.520   2.780  24.262  1.00  0.00     0.164 HD
HETATM   21  C   UNL     1      11.985   0.799  24.095  1.00  0.00     0.019 A 
HETATM   22  C   UNL     1      11.716  -0.455  24.352  1.00  0.00     0.032 A 
ENDBRANCH  14  16
ENDBRANCH  11  12
ENDBRANCH   1  11
BRANCH   2  23
HETATM   23  C   UNL     1       5.922  -4.445  23.041  1.00  0.00     0.019 C 
BRANCH  23  24
HETATM   24  C   UNL     1       5.357  -5.270  22.603  1.00  0.00     0.086 C 
HETATM   25  N   UNL     1       5.860  -6.138  21.745  1.00  0.00    -0.385 N 
HETATM   26  C   UNL     1       6.672  -5.909  21.398  1.00  0.00     0.117 C 
ATOM     27  HN  UNL     1       5.377  -6.999  21.489  1.00  0.00     0.163 HD
ENDBRANCH  23  24
ENDBRANCH   2  23
TORSDOF 8
ENDMDL
MODEL 4
REMARK VINA RESULT:    -6.336      3.319      6.544
REMARK INTER + INTRA:         -10.040
REMARK INTER:                  -9.312
REMARK INTRA:                  -0.728
REMARK UNBOUND:                -0.741
REMARK  8 active torsions:
REMARK  status: ('A' for Active; 'I' for Inactive)
REMARK    1  A    between atoms: S_2  and  N_5 
REMARK    2  A    between atoms: N_5  and  C_7 
REMARK    3  A    between atoms: C_8  and  C_9 
REMARK    4  A    between atoms: C_9  and  C_16 
REMARK    5  A    between atoms: C_13  and  C_14 
REMARK    6  A    between atoms: C_14  and  C_15 
REMARK    7  A    between atoms: C_16  and  C_17 
REMARK       I    between atoms: C_17  and  N_19 
REMARK    8  A    between atoms: N_19  and  C_21 
ROOT
HETATM    1  C   UNL     1       9.551  -1.798  22.917  1.00  0.00     0.070 C 
HETATM    2  C   UNL     1      10.792  -1.800  23.363  1.00  0.00     0.031 C 
ENDROOT
BRANCH   1   3
HETATM    3  C   UNL     1       8.696  -2.781  23.279  1.00  0.00    -0.034 C 
HETATM    4  C   UNL     1       8.092  -3.650  23.649  1.00  0.00     0.027 C 
BRANCH   4   5
HETATM    5  N   UNL     1       7.456  -4.678  23.754  1.00  0.00    -0.229 N 
ATOM      6  HN  UNL     1       7.517  -5.214  24.619  1.00  0.00     0.190 HD
BRANCH   5   7
HETATM    7  S   UNL     1       6.527  -5.211  22.575  1.00  0.00     0.327 S 
HETATM    8 CL   UNL     1       5.662  -3.630  22.081  1.00  0.00     0.042 Cl
HETATM    9  O   UNL     1       7.247  -5.659  21.421  1.00  0.00    -0.188 OA
HETATM   10  O   UNL     1       5.540  -6.106  23.033  1.00  0.00    -0.188 OA
ENDBRANCH   5   7
ENDBRANCH   4   5
ENDBRANCH   1   3
BRANCH   1  11
HETATM   11  C   UNL     1       9.246  -1.028  21.949  1.00  0.00    -0.035 C 
BRANCH  11  12
HETATM   12  C   UNL     1       8.612  -0.185  21.122  1.00  0.00     0.294 C 
HETATM   13  O   UNL     1       9.206   0.776  20.703  1.00  0.00    -0.258 OA
HETATM   14  N   UNL     1       7.349  -0.590  20.879  1.00  0.00    -0.315 N 
ATOM     15  HN  UNL     1       6.943  -1.407  21.335  1.00  0.00     0.170 HD
BRANCH  14  16
HETATM   16  C   UNL     1       6.680   0.130  20.022  1.00  0.00     0.051 A 
HETATM   17  C   UNL     1       6.580   0.116  18.686  1.00  0.00     0.117 A 
HETATM   18  N   UNL     1       6.081   0.512  17.656  1.00  0.00    -0.373 N 
HETATM   19  C   UNL     1       5.310   1.442  18.132  1.00  0.00     0.088 A 
ATOM     20  HN  UNL     1       6.225   0.205  16.694  1.00  0.00     0.164 HD
HETATM   21  C   UNL     1       5.226   1.623  19.344  1.00  0.00     0.019 A 
HETATM   22  C   UNL     1       5.730   1.154  20.455  1.00  0.00     0.032 A 
ENDBRANCH  14  16
ENDBRANCH  11  12
ENDBRANCH   1  11
BRANCH   2  23
HETATM   23  C   UNL     1      11.444  -1.043  24.021  1.00  0.00     0.019 C 
BRANCH  23  24
HETATM   24  C   UNL     1      12.356  -0.447  23.950  1.00  0.00     0.086 C 
HETATM   25  N   UNL     1      12.398   0.862  24.115  1.00  0.00    -0.385 N 
HETATM   26  C   UNL     1      11.585   1.275  24.124  1.00  0.00     0.117 C 
ATOM     27  HN  UNL     1      13.274   1.373  24.224  1.00  0.00     0.163 HD
ENDBRANCH  23  24
ENDBRANCH   2  23
TORSDOF 8
ENDMDL
MODEL 5
REMARK VINA RESULT:    -6.201      3.523      5.283
REMARK INTER + INTRA:          -9.842
REMARK INTER:                  -9.168
REMARK INTRA:                  -0.674
REMARK UNBOUND:                -0.741
REMARK  8 active torsions:
REMARK  status: ('A' for Active; 'I' for Inactive)
REMARK    1  A    between atoms: S_2  and  N_5 
REMARK    2  A    between atoms: N_5  and  C_7 
REMARK    3  A    between atoms: C_8  and  C_9 
REMARK    4  A    between atoms: C_9  and  C_16 
REMARK    5  A    between atoms: C_13  and  C_14 
REMARK    6  A    between atoms: C_14  and  C_15 
REMARK    7  A    between atoms: C_16  and  C_17 
REMARK       I    between atoms: C_17  and  N_19 
REMARK    8  A    between atoms: N_19  and  C_21 
ROOT
HETATM    1  C   UNL     1       8.341  -1.720  23.013  1.00  0.00     0.070 C 
HETATM    2  C   UNL     1       9.162  -0.880  23.611  1.00  0.00     0.031 C 
ENDROOT
BRANCH   1   3
HETATM    3  C   UNL     1       7.567  -1.302  21.985  1.00  0.00    -0.034 C 
HETATM    4  C   UNL     1       6.963  -0.827  21.168  1.00  0.00     0.027 C 
BRANCH   4   5
HETATM    5  N   UNL     1       6.073  -0.403  20.461  1.00  0.00    -0.229 N 
ATOM      6  HN  UNL     1       5.134  -0.307  20.848  1.00  0.00     0.190 HD
BRANCH   5   7
HETATM    7  S   UNL     1       6.333   0.008  18.945  1.00  0.00     0.327 S 
HETATM    8 CL   UNL     1       5.233   1.513  18.806  1.00  0.00     0.042 Cl
HETATM    9  O   UNL     1       7.667   0.455  18.681  1.00  0.00    -0.188 OA
HETATM   10  O   UNL     1       5.848  -0.954  18.037  1.00  0.00    -0.188 OA
ENDBRANCH   5   7
ENDBRANCH   4   5
ENDBRANCH   1   3
BRANCH   1  11
HETATM   11  C   UNL     1       8.089  -2.837  23.570  1.00  0.00    -0.035 C 
BRANCH  11  12
HETATM   12  C   UNL     1       7.535  -4.002  23.932  1.00  0.00     0.294 C 
HETATM   13  O   UNL     1       8.231  -4.983  23.999  1.00  0.00    -0.258 OA
HETATM   14  N   UNL     1       6.217  -3.863  24.186  1.00  0.00    -0.315 N 
ATOM     15  HN  UNL     1       5.727  -2.979  24.048  1.00  0.00     0.170 HD
BRANCH  14  16
HETATM   16  C   UNL     1       5.609  -4.933  24.619  1.00  0.00     0.051 A 
HETATM   17  C   UNL     1       5.000  -5.957  24.008  1.00  0.00     0.117 A 
HETATM   18  N   UNL     1       4.450  -7.036  24.040  1.00  0.00    -0.373 N 
HETATM   19  C   UNL     1       4.411  -7.221  25.325  1.00  0.00     0.088 A 
ATOM     20  HN  UNL     1       4.116  -7.627  23.279  1.00  0.00     0.164 HD
HETATM   21  C   UNL     1       4.932  -6.412  26.088  1.00  0.00     0.019 A 
HETATM   22  C   UNL     1       5.570  -5.272  26.041  1.00  0.00     0.032 A 
ENDBRANCH  14  16
ENDBRANCH  11  12
ENDBRANCH   1  11
BRANCH   2  23
HETATM   23  C   UNL     1      10.347  -0.840  23.769  1.00  0.00     0.019 C 
BRANCH  23  24
HETATM   24  C   UNL     1      11.266  -1.174  23.284  1.00  0.00     0.086 C 
HETATM   25  N   UNL     1      12.479  -0.875  23.711  1.00  0.00    -0.385 N 
HETATM   26  C   UNL     1      12.513  -0.223  24.347  1.00  0.00     0.117 C 
ATOM     27  HN  UNL     1      13.315  -1.340  23.356  1.00  0.00     0.163 HD
ENDBRANCH  23  24
ENDBRANCH   2  23
TORSDOF 8
ENDMDL
MODEL 6
REMARK VINA RESULT:    -5.985     15.098     16.965
REMARK INTER + INTRA:          -9.526
REMARK INTER:                  -8.721
REMARK INTRA:                  -0.805
REMARK UNBOUND:                -0.741
REMARK  8 active torsions:
REMARK  status: ('A' for Active; 'I' for Inactive)
REMARK    1  A    between atoms: S_2  and  N_5 
REMARK    2  A    between atoms: N_5  and  C_7 
REMARK    3  A    between atoms: C_8  and  C_9 
REMARK    4  A    between atoms: C_9  and  C_16 
REMARK    5  A    between atoms: C_13  and  C_14 
REMARK    6  A    between atoms: C_14  and  C_15 
REMARK    7  A    between atoms: C_16  and  C_17 
REMARK       I    between atoms: C_17  and  N_19 
REMARK    8  A    between atoms: N_19  and  C_21 
ROOT
HETATM    1  C   UNL     1      23.986  -2.352  20.090  1.00  0.00     0.070 C 
HETATM    2  C   UNL     1      24.883  -3.274  19.802  1.00  0.00     0.031 C 
ENDROOT
BRANCH   1   3
HETATM    3  C   UNL     1      23.544  -1.509  19.129  1.00  0.00    -0.034 C 
HETATM    4  C   UNL     1      23.145  -0.922  18.261  1.00  0.00     0.027 C 
BRANCH   4   5
HETATM    5  N   UNL     1      23.012  -0.222  17.279  1.00  0.00    -0.229 N 
ATOM      6  HN  UNL     1      22.391   0.586  17.325  1.00  0.00     0.190 HD
BRANCH   5   7
HETATM    7  S   UNL     1      23.783  -0.531  15.920  1.00  0.00     0.327 S 
HETATM    8 CL   UNL     1      25.553  -0.506  16.520  1.00  0.00     0.042 Cl
HETATM    9  O   UNL     1      23.548  -1.844  15.401  1.00  0.00    -0.188 OA
HETATM   10  O   UNL     1      23.643   0.506  14.976  1.00  0.00    -0.188 OA
ENDBRANCH   5   7
ENDBRANCH   4   5
ENDBRANCH   1   3
BRANCH   1  11
HETATM   11  C   UNL     1      23.742  -2.090  21.312  1.00  0.00    -0.035 C 
BRANCH  11  12
HETATM   12  C   UNL     1      23.333  -2.149  22.587  1.00  0.00     0.294 C 
HETATM   13  O   UNL     1      23.744  -3.036  23.291  1.00  0.00    -0.258 OA
HETATM   14  N   UNL     1      22.490  -1.137  22.881  1.00  0.00    -0.315 N 
ATOM     15  HN  UNL     1      22.179  -0.467  22.178  1.00  0.00     0.170 HD
BRANCH  14  16
HETATM   16  C   UNL     1      22.099  -1.071  24.124  1.00  0.00     0.051 A 
HETATM   17  C   UNL     1      22.642  -0.553  25.234  1.00  0.00     0.117 A 
HETATM   18  N   UNL     1      22.580  -0.259  26.407  1.00  0.00    -0.373 N 
HETATM   19  C   UNL     1      21.417  -0.760  26.694  1.00  0.00     0.088 A 
ATOM     20  HN  UNL     1      23.247   0.238  26.997  1.00  0.00     0.164 HD
HETATM   21  C   UNL     1      20.724  -1.272  25.818  1.00  0.00     0.019 A 
HETATM   22  C   UNL     1      20.779  -1.540  24.540  1.00  0.00     0.032 A 
ENDBRANCH  14  16
ENDBRANCH  11  12
ENDBRANCH   1  11
BRANCH   2  23
HETATM   23  C   UNL     1      24.898  -4.469  19.853  1.00  0.00     0.019 C 
BRANCH  23  24
HETATM   24  C   UNL     1      24.225  -5.319  19.724  1.00  0.00     0.086 C 
HETATM   25  N   UNL     1      24.389  -6.489  20.314  1.00  0.00    -0.385 N 
HETATM   26  C   UNL     1      25.202  -6.610  20.708  1.00  0.00     0.117 C 
ATOM     27  HN  UNL     1      23.661  -7.204  20.326  1.00  0.00     0.163 HD
ENDBRANCH  23  24
ENDBRANCH   2  23
TORSDOF 8
ENDMDL
MODEL 7
REMARK VINA RESULT:    -5.972      3.924      7.344
REMARK INTER + INTRA:          -9.506
REMARK INTER:                  -8.815
REMARK INTRA:                  -0.691
REMARK UNBOUND:                -0.741
REMARK  8 active torsions:
REMARK  status: ('A' for Active; 'I' for Inactive)
REMARK    1  A    between atoms: S_2  and  N_5 
REMARK    2  A    between atoms: N_5  and  C_7 
REMARK    3  A    between atoms: C_8  and  C_9 
REMARK    4  A    between atoms: C_9  and  C_16 
REMARK    5  A    between atoms: C_13  and  C_14 
REMARK    6  A    between atoms: C_14  and  C_15 
REMARK    7  A    between atoms: C_16  and  C_17 
REMARK       I    between atoms: C_17  and  N_19 
REMARK    8  A    between atoms: N_19  and  C_21 
ROOT
HETATM    1  C   UNL     1       9.115  -1.611  22.363  1.00  0.00     0.070 C 
HETATM    2  C   UNL     1      10.428  -1.674  22.466  1.00  0.00     0.031 C 
ENDROOT
BRANCH   1   3
HETATM    3  C   UNL     1       8.367  -2.731  22.491  1.00  0.00    -0.034 C 
HETATM    4  C   UNL     1       7.844  -3.705  22.681  1.00  0.00     0.027 C 
BRANCH   4   5
HETATM    5  N   UNL     1       7.363  -4.815  22.596  1.00  0.00    -0.229 N 
ATOM      6  HN  UNL     1       7.915  -5.620  22.891  1.00  0.00     0.190 HD
BRANCH   5   7
HETATM    7  S   UNL     1       5.890  -5.047  22.035  1.00  0.00     0.327 S 
HETATM    8 CL   UNL     1       5.190  -6.158  23.364  1.00  0.00     0.042 Cl
HETATM    9  O   UNL     1       5.078  -3.868  22.020  1.00  0.00    -0.188 OA
HETATM   10  O   UNL     1       5.885  -5.777  20.829  1.00  0.00    -0.188 OA
ENDBRANCH   5   7
ENDBRANCH   4   5
ENDBRANCH   1   3
BRANCH   1  11
HETATM   11  C   UNL     1       8.585  -0.556  21.886  1.00  0.00    -0.035 C 
BRANCH  11  12
HETATM   12  C   UNL     1       8.202   0.710  21.667  1.00  0.00     0.294 C 
HETATM   13  O   UNL     1       8.202   1.131  20.538  1.00  0.00    -0.258 OA
HETATM   14  N   UNL     1       7.852   1.325  22.815  1.00  0.00    -0.315 N 
ATOM     15  HN  UNL     1       7.940   0.870  23.724  1.00  0.00     0.170 HD
BRANCH  14  16
HETATM   16  C   UNL     1       7.393   2.539  22.689  1.00  0.00     0.051 A 
HETATM   17  C   UNL     1       7.972   3.747  22.681  1.00  0.00     0.117 A 
HETATM   18  N   UNL     1       7.918   4.948  22.537  1.00  0.00    -0.373 N 
HETATM   19  C   UNL     1       6.640   5.086  22.352  1.00  0.00     0.088 A 
ATOM     20  HN  UNL     1       8.661   5.647  22.555  1.00  0.00     0.164 HD
HETATM   21  C   UNL     1       5.907   4.102  22.300  1.00  0.00     0.019 A 
HETATM   22  C   UNL     1       5.983   2.801  22.406  1.00  0.00     0.032 A 
ENDBRANCH  14  16
ENDBRANCH  11  12
ENDBRANCH   1  11
BRANCH   2  23
HETATM   23  C   UNL     1      11.232  -1.179  23.199  1.00  0.00     0.019 C 
BRANCH  23  24
HETATM   24  C   UNL     1      11.274  -0.577  24.109  1.00  0.00     0.086 C 
HETATM   25  N   UNL     1      12.384  -0.060  24.604  1.00  0.00    -0.385 N 
HETATM   26  C   UNL     1      13.154  -0.379  24.235  1.00  0.00     0.117 C 
ATOM     27  HN  UNL     1      12.379   0.642  25.344  1.00  0.00     0.163 HD
ENDBRANCH  23  24
ENDBRANCH   2  23
TORSDOF 8
ENDMDL
MODEL 8
REMARK VINA RESULT:    -5.952      3.937      5.559
REMARK INTER + INTRA:          -9.477
REMARK INTER:                  -8.808
REMARK INTRA:                  -0.670
REMARK UNBOUND:                -0.741
REMARK  8 active torsions:
REMARK  status: ('A' for Active; 'I' for Inactive)
REMARK    1  A    between atoms: S_2  and  N_5 
REMARK    2  A    between atoms: N_5  and  C_7 
REMARK    3  A    between atoms: C_8  and  C_9 
REMARK    4  A    between atoms: C_9  and  C_16 
REMARK    5  A    between atoms: C_13  and  C_14 
REMARK    6  A    between atoms: C_14  and  C_15 
REMARK    7  A    between atoms: C_16  and  C_17 
REMARK       I    between atoms: C_17  and  N_19 
REMARK    8  A    between atoms: N_19  and  C_21 
ROOT
HETATM    1  C   UNL     1       7.978  -0.736  23.193  1.00  0.00     0.070 C 
HETATM    2  C   UNL     1       8.368   0.455  23.601  1.00  0.00     0.031 C 
ENDROOT
BRANCH   1   3
HETATM    3  C   UNL     1       7.236  -0.862  22.069  1.00  0.00    -0.034 C 
HETATM    4  C   UNL     1       6.689  -0.857  21.090  1.00  0.00     0.027 C 
BRANCH   4   5
HETATM    5  N   UNL     1       5.863  -0.755  20.207  1.00  0.00    -0.229 N 
ATOM      6  HN  UNL     1       4.978  -1.254  20.295  1.00  0.00     0.190 HD
BRANCH   5   7
HETATM    7  S   UNL     1       6.126   0.138  18.914  1.00  0.00     0.327 S 
HETATM    8 CL   UNL     1       5.080   1.634  19.315  1.00  0.00     0.042 Cl
HETATM    9  O   UNL     1       7.473   0.605  18.791  1.00  0.00    -0.188 OA
HETATM   10  O   UNL     1       5.598  -0.445  17.744  1.00  0.00    -0.188 OA
ENDBRANCH   5   7
ENDBRANCH   4   5
ENDBRANCH   1   3
BRANCH   1  11
HETATM   11  C   UNL     1       8.076  -1.723  23.991  1.00  0.00    -0.035 C 
BRANCH  11  12
HETATM   12  C   UNL     1       8.031  -2.522  25.066  1.00  0.00     0.294 C 
HETATM   13  O   UNL     1       8.843  -2.367  25.942  1.00  0.00    -0.258 OA
HETATM   14  N   UNL     1       7.016  -3.407  24.980  1.00  0.00    -0.315 N 
ATOM     15  HN  UNL     1       6.418  -3.470  24.156  1.00  0.00     0.170 HD
BRANCH  14  16
HETATM   16  C   UNL     1       6.848  -4.178  26.019  1.00  0.00     0.051 A 
HETATM   17  C   UNL     1       7.533  -5.216  26.515  1.00  0.00     0.117 A 
HETATM   18  N   UNL     1       7.727  -6.044  27.378  1.00  0.00    -0.373 N 
HETATM   19  C   UNL     1       6.713  -5.791  28.151  1.00  0.00     0.088 A 
ATOM     20  HN  UNL     1       8.469  -6.737  27.471  1.00  0.00     0.164 HD
HETATM   21  C   UNL     1       5.954  -4.860  27.899  1.00  0.00     0.019 A 
HETATM   22  C   UNL     1       5.783  -3.936  26.990  1.00  0.00     0.032 A 
ENDBRANCH  14  16
ENDBRANCH  11  12
ENDBRANCH   1  11
BRANCH   2  23
HETATM   23  C   UNL     1       9.433   0.968  23.786  1.00  0.00     0.019 C 
BRANCH  23  24
HETATM   24  C   UNL     1       9.856   1.896  24.174  1.00  0.00     0.086 C 
HETATM   25  N   UNL     1      11.141   2.197  24.132  1.00  0.00    -0.385 N 
HETATM   26  C   UNL     1      11.692   1.505  23.913  1.00  0.00     0.117 C 
ATOM     27  HN  UNL     1      11.491   3.135  24.332  1.00  0.00     0.163 HD
ENDBRANCH  23  24
ENDBRANCH   2  23
TORSDOF 8
ENDMDL
MODEL 9
REMARK VINA RESULT:    -5.942      4.760      7.598
REMARK INTER + INTRA:          -9.462
REMARK INTER:                  -8.710
REMARK INTRA:                  -0.752
REMARK UNBOUND:                -0.741
REMARK  8 active torsions:
REMARK  status: ('A' for Active; 'I' for Inactive)
REMARK    1  A    between atoms: S_2  and  N_5 
REMARK    2  A    between atoms: N_5  and  C_7 
REMARK    3  A    between atoms: C_8  and  C_9 
REMARK    4  A    between atoms: C_9  and  C_16 
REMARK    5  A    between atoms: C_13  and  C_14 
REMARK    6  A    between atoms: C_14  and  C_15 
REMARK    7  A    between atoms: C_16  and  C_17 
REMARK       I    between atoms: C_17  and  N_19 
REMARK    8  A    between atoms: N_19  and  C_21 
ROOT
HETATM    1  C   UNL     1       7.122  -4.720  25.383  1.00  0.00     0.070 C 
HETATM    2  C   UNL     1       6.236  -5.097  24.482  1.00  0.00     0.031 C 
ENDROOT
BRANCH   1   3
HETATM    3  C   UNL     1       7.142  -5.303  26.604  1.00  0.00    -0.034 C 
HETATM    4  C   UNL     1       7.282  -5.836  27.580  1.00  0.00     0.027 C 
BRANCH   4   5
HETATM    5  N   UNL     1       7.210  -6.596  28.523  1.00  0.00    -0.229 N 
ATOM      6  HN  UNL     1       7.844  -7.395  28.567  1.00  0.00     0.190 HD
BRANCH   5   7
HETATM    7  S   UNL     1       6.154  -6.378  29.695  1.00  0.00     0.327 S 
HETATM    8 CL   UNL     1       4.581  -6.916  28.841  1.00  0.00     0.042 Cl
HETATM    9  O   UNL     1       6.331  -7.256  30.811  1.00  0.00    -0.188 OA
HETATM   10  O   UNL     1       6.005  -5.019  30.037  1.00  0.00    -0.188 OA
ENDBRANCH   5   7
ENDBRANCH   4   5
ENDBRANCH   1   3
BRANCH   1  11
HETATM   11  C   UNL     1       7.771  -3.640  25.194  1.00  0.00    -0.035 C 
BRANCH  11  12
HETATM   12  C   UNL     1       8.299  -2.529  24.664  1.00  0.00     0.294 C 
HETATM   13  O   UNL     1       8.373  -1.537  25.345  1.00  0.00    -0.258 OA
HETATM   14  N   UNL     1       8.690  -2.729  23.389  1.00  0.00    -0.315 N 
ATOM     15  HN  UNL     1       8.530  -3.612  22.903  1.00  0.00     0.170 HD
BRANCH  14  16
HETATM   16  C   UNL     1       9.286  -1.721  22.816  1.00  0.00     0.051 A 
HETATM   17  C   UNL     1       8.843  -0.629  22.178  1.00  0.00     0.117 A 
HETATM   18  N   UNL     1       9.039   0.438  21.639  1.00  0.00    -0.373 N 
HETATM   19  C   UNL     1      10.337   0.464  21.679  1.00  0.00     0.088 A 
ATOM     20  HN  UNL     1       8.378   1.117  21.264  1.00  0.00     0.164 HD
HETATM   21  C   UNL     1      10.963  -0.432  22.239  1.00  0.00     0.019 A 
HETATM   22  C   UNL     1      10.738  -1.557  22.866  1.00  0.00     0.032 A 
ENDBRANCH  14  16
ENDBRANCH  11  12
ENDBRANCH   1  11
BRANCH   2  23
HETATM   23  C   UNL     1       6.309  -5.568  23.385  1.00  0.00     0.019 C 
BRANCH  23  24
HETATM   24  C   UNL     1       7.061  -5.902  22.668  1.00  0.00     0.086 C 
HETATM   25  N   UNL     1       6.902  -5.869  21.358  1.00  0.00    -0.385 N 
HETATM   26  C   UNL     1       6.050  -5.708  21.078  1.00  0.00     0.117 C 
ATOM     27  HN  UNL     1       7.675  -6.013  20.708  1.00  0.00     0.163 HD
ENDBRANCH  23  24
ENDBRANCH   2  23
TORSDOF 8
ENDMDL
