stable:False satoms:7 tatoms:24 sratio:0.2916666666666667
  -OEChem-07092417483D

 24 24  0     1  0  0  0  0  0999 V2000
    6.6146   -4.8659   26.4834 C   0  0  0  0  0  0  0  0  0  0  0  0
    8.2093   -4.3255   26.1233 S   0  0  0  0  0  0  0  0  0  0  0  0
    9.0850   -5.4802   26.0498 O   0  0  0  0  0  0  0  0  0  0  0  0
    8.6132   -3.4369   27.1673 O   0  0  0  0  0  0  0  0  0  0  0  0
    8.1089   -3.5846   24.6739 N   0  0  0  0  0  0  0  0  0  0  0  0
    9.0003   -2.9263   24.1514 C   0  0  0  0  0  0  0  0  0  0  0  0
    9.4493   -1.9936   23.5302 C   0  0  0  0  0  0  0  0  0  0  0  0
   10.2775   -1.0856   23.2887 C   0  0  2  0  0  0  0  0  0  0  0  0
   11.0282   -0.0018   24.2965 C   0  0  0  0  0  0  0  0  0  0  0  0
   12.1134    0.3053   24.2629 C   0  0  0  0  0  0  0  0  0  0  0  0
   13.1045   -0.1801   23.4814 C   0  0  0  0  0  0  0  0  0  0  0  0
   12.7100   -1.2837   22.6404 C   0  0  0  0  0  0  0  0  0  0  0  0
   11.8400   -1.7595   22.4736 C   0  0  0  0  0  0  0  0  0  0  0  0
    9.7642   -0.5272   22.3442 C   0  0  0  0  0  0  0  0  0  0  0  0
    9.0668    0.0596   21.3911 C   0  0  0  0  0  0  0  0  0  0  0  0
    9.5272    1.0254   21.0011 O   0  0  0  0  0  0  0  0  0  0  0  0
    7.9467   -0.5683   21.0554 N   0  0  0  0  0  0  0  0  0  0  0  0
    7.1778   -0.0960   20.1625 C   0  0  0  0  0  0  0  0  0  0  0  0
    7.1991   -0.0203   18.8369 C   0  0  0  0  0  0  0  0  0  0  0  0
    6.7494    0.2760   17.7556 N   0  0  0  0  0  0  0  0  0  0  0  0
    5.5900    0.9009   18.2289 C   0  0  0  0  0  0  0  0  0  0  0  0
    5.2385    1.0195   19.3674 C   0  0  0  0  0  0  0  0  0  0  0  0
    5.8715    0.5486   20.5680 C   0  0  0  0  0  0  0  0  0  0  0  0
    5.2987    0.7099   21.9626 C   0  0  0  0  0  0  0  0  0  0  0  0
 20 21  2  0  0  0  0
 19 20  1  0  0  0  0
 21 22  1  0  0  0  0
 18 19  2  0  0  0  0
 22 23  2  0  0  0  0
 18 23  1  0  0  0  0
 17 18  1  0  0  0  0
 23 24  1  0  0  0  0
 15 16  2  0  0  0  0
 15 17  1  0  0  0  0
 14 15  1  0  0  0  0
  8 14  1  0  0  0  0
 12 13  2  0  0  0  0
 11 12  1  0  0  0  0
  7  8  1  0  0  0  0
  8  9  1  0  0  0  0
 10 11  1  0  0  0  0
  6  7  2  3  0  0  0
  5  6  1  0  0  0  0
  9 10  2  0  0  0  0
  2  5  1  0  0  0  0
  2  3  2  0  0  0  0
  1  2  1  0  0  0  0
  2  4  2  0  0  0  0
M  END
> <Shapegauss>
-286.009979

$$$$
