MODEL 1
REMARK VINA RESULT:    -6.721      0.000      0.000
REMARK INTER + INTRA:         -11.916
REMARK INTER:                 -10.651
REMARK INTRA:                  -1.266
REMARK UNBOUND:                -1.266
REMARK  10 active torsions:
REMARK  status: ('A' for Active; 'I' for Inactive)
REMARK    1  A    between atoms: S_2  and  N_5 
REMARK    2  A    between atoms: C_7  and  C_8 
REMARK    3  A    between atoms: C_8  and  C_9 
REMARK    4  A    between atoms: C_9  and  C_15 
REMARK    5  A    between atoms: C_9  and  C_10 
REMARK    6  A    between atoms: C_10  and  C_11 
REMARK    7  A    between atoms: C_11  and  C_12 
REMARK    8  A    between atoms: C_12  and  C_13 
REMARK    9  A    between atoms: C_15  and  C_16 
REMARK       I    between atoms: C_16  and  N_18 
REMARK   10  A    between atoms: N_18  and  C_20 
ROOT
HETATM    1  C   UNL     1       9.639  -1.866  23.089  1.00  0.00     0.109 C 
ENDROOT
BRANCH   1   2
HETATM    2  C   UNL     1       8.685  -2.657  23.268  1.00  0.00     0.011 C 
BRANCH   2   3
HETATM    3  C   UNL     1       7.889  -3.501  22.936  1.00  0.00     0.097 C 
HETATM    4  N   UNL     1       7.500  -4.467  22.290  1.00  0.00    -0.296 N 
ATOM      5  HN  UNL     1       8.166  -5.225  22.136  1.00  0.00     0.177 HD
BRANCH   4   6
HETATM    6  S   UNL     1       6.008  -4.642  21.659  1.00  0.00     0.226 S 
HETATM    7  C   UNL     1       5.021  -5.225  22.943  1.00  0.00     0.186 C 
HETATM    8  O   UNL     1       5.485  -3.362  21.217  1.00  0.00    -0.206 OA
HETATM    9  O   UNL     1       5.965  -5.606  20.606  1.00  0.00    -0.206 OA
ENDBRANCH   4   6
ENDBRANCH   2   3
ENDBRANCH   1   2
BRANCH   1  10
HETATM   10  C   UNL     1       9.231  -1.190  22.169  1.00  0.00    -0.071 C 
BRANCH  10  11
HETATM   11  C   UNL     1       8.641  -0.502  21.211  1.00  0.00     0.289 C 
HETATM   12  O   UNL     1       9.307   0.276  20.715  1.00  0.00    -0.259 OA
HETATM   13  N   UNL     1       7.373  -0.828  20.994  1.00  0.00    -0.315 N 
ATOM     14  HN  UNL     1       6.942  -1.572  21.544  1.00  0.00     0.170 HD
BRANCH  13  15
HETATM   15  C   UNL     1       6.688  -0.228  20.110  1.00  0.00     0.057 A 
HETATM   16  C   UNL     1       6.316  -0.486  18.862  1.00  0.00     0.117 A 
HETATM   17  N   UNL     1       5.746  -0.248  17.824  1.00  0.00    -0.373 N 
HETATM   18  C   UNL     1       5.256   1.009  18.193  1.00  0.00     0.088 A 
ATOM     19  HN  UNL     1       5.652  -0.787  16.962  1.00  0.00     0.164 HD
HETATM   20  C   UNL     1       5.393   1.564  19.245  1.00  0.00     0.026 A 
HETATM   21  C   UNL     1       6.066   1.113  20.431  1.00  0.00    -0.033 A 
HETATM   22  C   UNL     1       6.125   1.886  21.734  1.00  0.00     0.050 C 
ENDBRANCH  13  15
ENDBRANCH  10  11
ENDBRANCH   1  10
BRANCH   1  23
HETATM   23  C   UNL     1      10.514  -0.955  24.165  1.00  0.00    -0.006 C 
BRANCH  23  24
HETATM   24  C   UNL     1      11.584  -0.618  24.044  1.00  0.00    -0.002 C 
BRANCH  24  25
HETATM   25  C   UNL     1      12.088   0.635  24.114  1.00  0.00    -0.001 C 
BRANCH  25  26
HETATM   26  C   UNL     1      11.159   1.670  23.735  1.00  0.00    -0.010 C 
HETATM   27  C   UNL     1      11.197   2.675  23.727  1.00  0.00     0.011 C 
ENDBRANCH  25  26
ENDBRANCH  24  25
ENDBRANCH  23  24
ENDBRANCH   1  23
TORSDOF 10
ENDMDL
MODEL 2
REMARK VINA RESULT:    -6.223     14.229     16.231
REMARK INTER + INTRA:         -11.126
REMARK INTER:                  -9.545
REMARK INTRA:                  -1.581
REMARK UNBOUND:                -1.266
REMARK  10 active torsions:
REMARK  status: ('A' for Active; 'I' for Inactive)
REMARK    1  A    between atoms: S_2  and  N_5 
REMARK    2  A    between atoms: C_7  and  C_8 
REMARK    3  A    between atoms: C_8  and  C_9 
REMARK    4  A    between atoms: C_9  and  C_15 
REMARK    5  A    between atoms: C_9  and  C_10 
REMARK    6  A    between atoms: C_10  and  C_11 
REMARK    7  A    between atoms: C_11  and  C_12 
REMARK    8  A    between atoms: C_12  and  C_13 
REMARK    9  A    between atoms: C_15  and  C_16 
REMARK       I    between atoms: C_16  and  N_18 
REMARK   10  A    between atoms: N_18  and  C_20 
ROOT
HETATM    1  C   UNL     1      24.296  -1.941  23.412  1.00  0.00     0.109 C 
ENDROOT
BRANCH   1   2
HETATM    2  C   UNL     1      24.067  -3.116  23.781  1.00  0.00     0.011 C 
BRANCH   2   3
HETATM    3  C   UNL     1      24.369  -4.244  24.082  1.00  0.00     0.097 C 
HETATM    4  N   UNL     1      24.377  -5.463  23.954  1.00  0.00    -0.296 N 
ATOM      5  HN  UNL     1      24.471  -5.833  23.008  1.00  0.00     0.177 HD
BRANCH   4   6
HETATM    6  S   UNL     1      24.251  -6.541  25.171  1.00  0.00     0.226 S 
HETATM    7  C   UNL     1      25.858  -6.813  25.724  1.00  0.00     0.186 C 
HETATM    8  O   UNL     1      23.471  -5.990  26.265  1.00  0.00    -0.206 OA
HETATM    9  O   UNL     1      23.720  -7.796  24.740  1.00  0.00    -0.206 OA
ENDBRANCH   4   6
ENDBRANCH   2   3
ENDBRANCH   1   2
BRANCH   1  10
HETATM   10  C   UNL     1      23.849  -1.943  22.286  1.00  0.00    -0.071 C 
BRANCH  10  11
HETATM   11  C   UNL     1      23.367  -1.786  21.068  1.00  0.00     0.289 C 
HETATM   12  O   UNL     1      22.237  -1.895  20.994  1.00  0.00    -0.259 OA
HETATM   13  N   UNL     1      24.280  -1.536  20.138  1.00  0.00    -0.315 N 
ATOM     14  HN  UNL     1      25.263  -1.466  20.403  1.00  0.00     0.170 HD
BRANCH  13  15
HETATM   15  C   UNL     1      23.947  -1.383  18.923  1.00  0.00     0.057 A 
HETATM   16  C   UNL     1      23.512  -0.371  18.180  1.00  0.00     0.117 A 
HETATM   17  N   UNL     1      23.148   0.147  17.152  1.00  0.00    -0.373 N 
HETATM   18  C   UNL     1      23.216  -1.004  16.359  1.00  0.00     0.088 A 
ATOM     19  HN  UNL     1      22.879   1.107  16.934  1.00  0.00     0.164 HD
HETATM   20  C   UNL     1      23.568  -2.098  16.691  1.00  0.00     0.026 A 
HETATM   21  C   UNL     1      24.041  -2.552  17.970  1.00  0.00    -0.033 A 
HETATM   22  C   UNL     1      24.519  -3.962  18.260  1.00  0.00     0.050 C 
ENDBRANCH  13  15
ENDBRANCH  10  11
ENDBRANCH   1  10
BRANCH   1  23
HETATM   23  C   UNL     1      24.019  -0.490  24.169  1.00  0.00    -0.006 C 
BRANCH  23  24
HETATM   24  C   UNL     1      23.070   0.118  24.128  1.00  0.00    -0.002 C 
BRANCH  24  25
HETATM   25  C   UNL     1      22.001   0.071  24.956  1.00  0.00    -0.001 C 
BRANCH  25  26
HETATM   26  C   UNL     1      20.911  -0.740  24.472  1.00  0.00    -0.010 C 
HETATM   27  C   UNL     1      20.551  -1.646  24.719  1.00  0.00     0.011 C 
ENDBRANCH  25  26
ENDBRANCH  24  25
ENDBRANCH  23  24
ENDBRANCH   1  23
TORSDOF 10
ENDMDL
MODEL 3
REMARK VINA RESULT:    -6.202      2.704      6.266
REMARK INTER + INTRA:         -11.093
REMARK INTER:                  -9.607
REMARK INTRA:                  -1.486
REMARK UNBOUND:                -1.266
REMARK  10 active torsions:
REMARK  status: ('A' for Active; 'I' for Inactive)
REMARK    1  A    between atoms: S_2  and  N_5 
REMARK    2  A    between atoms: C_7  and  C_8 
REMARK    3  A    between atoms: C_8  and  C_9 
REMARK    4  A    between atoms: C_9  and  C_15 
REMARK    5  A    between atoms: C_9  and  C_10 
REMARK    6  A    between atoms: C_10  and  C_11 
REMARK    7  A    between atoms: C_11  and  C_12 
REMARK    8  A    between atoms: C_12  and  C_13 
REMARK    9  A    between atoms: C_15  and  C_16 
REMARK       I    between atoms: C_16  and  N_18 
REMARK   10  A    between atoms: N_18  and  C_20 
ROOT
HETATM    1  C   UNL     1       7.092  -3.658  22.192  1.00  0.00     0.109 C 
ENDROOT
BRANCH   1   2
HETATM    2  C   UNL     1       6.421  -2.644  21.896  1.00  0.00     0.011 C 
BRANCH   2   3
HETATM    3  C   UNL     1       6.169  -1.647  21.264  1.00  0.00     0.097 C 
HETATM    4  N   UNL     1       5.731  -1.023  20.304  1.00  0.00    -0.296 N 
ATOM      5  HN  UNL     1       4.849  -1.339  19.903  1.00  0.00     0.177 HD
BRANCH   4   6
HETATM    6  S   UNL     1       6.444   0.272  19.617  1.00  0.00     0.226 S 
HETATM    7  C   UNL     1       5.691   0.460  18.081  1.00  0.00     0.186 C 
HETATM    8  O   UNL     1       6.200   1.469  20.402  1.00  0.00    -0.206 OA
HETATM    9  O   UNL     1       7.842   0.077  19.396  1.00  0.00    -0.206 OA
ENDBRANCH   4   6
ENDBRANCH   2   3
ENDBRANCH   1   2
BRANCH   1  10
HETATM   10  C   UNL     1       7.984  -3.180  22.859  1.00  0.00    -0.071 C 
BRANCH  10  11
HETATM   11  C   UNL     1       9.046  -2.678  23.458  1.00  0.00     0.289 C 
HETATM   12  O   UNL     1       9.101  -2.896  24.574  1.00  0.00    -0.259 OA
HETATM   13  N   UNL     1       9.864  -2.001  22.662  1.00  0.00    -0.315 N 
ATOM     14  HN  UNL     1       9.646  -1.919  21.668  1.00  0.00     0.170 HD
BRANCH  13  15
HETATM   15  C   UNL     1      10.913  -1.453  23.119  1.00  0.00     0.057 A 
HETATM   16  C   UNL     1      12.209  -1.742  23.120  1.00  0.00     0.117 A 
HETATM   17  N   UNL     1      13.371  -1.535  23.377  1.00  0.00    -0.373 N 
HETATM   18  C   UNL     1      13.171  -0.343  24.081  1.00  0.00     0.088 A 
ATOM     19  HN  UNL     1      14.219  -2.057  23.153  1.00  0.00     0.164 HD
HETATM   20  C   UNL     1      12.133   0.221  24.280  1.00  0.00     0.026 A 
HETATM   21  C   UNL     1      10.809  -0.132  23.847  1.00  0.00    -0.033 A 
HETATM   22  C   UNL     1       9.567   0.697  24.112  1.00  0.00     0.050 C 
ENDBRANCH  13  15
ENDBRANCH  10  11
ENDBRANCH   1  10
BRANCH   1  23
HETATM   23  C   UNL     1       6.626  -5.139  22.779  1.00  0.00    -0.006 C 
BRANCH  23  24
HETATM   24  C   UNL     1       5.962  -5.328  23.671  1.00  0.00    -0.002 C 
BRANCH  24  25
HETATM   25  C   UNL     1       6.288  -5.322  24.984  1.00  0.00    -0.001 C 
BRANCH  25  26
HETATM   26  C   UNL     1       5.631  -4.294  25.754  1.00  0.00    -0.010 C 
HETATM   27  C   UNL     1       5.684  -3.290  25.769  1.00  0.00     0.011 C 
ENDBRANCH  25  26
ENDBRANCH  24  25
ENDBRANCH  23  24
ENDBRANCH   1  23
TORSDOF 10
ENDMDL
MODEL 4
REMARK VINA RESULT:    -5.980      2.027      2.160
REMARK INTER + INTRA:         -10.741
REMARK INTER:                  -9.313
REMARK INTRA:                  -1.428
REMARK UNBOUND:                -1.266
REMARK  10 active torsions:
REMARK  status: ('A' for Active; 'I' for Inactive)
REMARK    1  A    between atoms: S_2  and  N_5 
REMARK    2  A    between atoms: C_7  and  C_8 
REMARK    3  A    between atoms: C_8  and  C_9 
REMARK    4  A    between atoms: C_9  and  C_15 
REMARK    5  A    between atoms: C_9  and  C_10 
REMARK    6  A    between atoms: C_10  and  C_11 
REMARK    7  A    between atoms: C_11  and  C_12 
REMARK    8  A    between atoms: C_12  and  C_13 
REMARK    9  A    between atoms: C_15  and  C_16 
REMARK       I    between atoms: C_16  and  N_18 
REMARK   10  A    between atoms: N_18  and  C_20 
ROOT
HETATM    1  C   UNL     1      10.558  -1.545  22.820  1.00  0.00     0.109 C 
ENDROOT
BRANCH   1   2
HETATM    2  C   UNL     1       9.650  -2.289  23.254  1.00  0.00     0.011 C 
BRANCH   2   3
HETATM    3  C   UNL     1       9.074  -2.932  24.097  1.00  0.00     0.097 C 
HETATM    4  N   UNL     1       8.522  -3.929  24.549  1.00  0.00    -0.296 N 
ATOM      5  HN  UNL     1       8.945  -4.833  24.339  1.00  0.00     0.177 HD
BRANCH   4   6
HETATM    6  S   UNL     1       7.169  -3.928  25.457  1.00  0.00     0.226 S 
HETATM    7  C   UNL     1       7.308  -5.286  26.505  1.00  0.00     0.186 C 
HETATM    8  O   UNL     1       7.093  -2.724  26.264  1.00  0.00    -0.206 OA
HETATM    9  O   UNL     1       5.984  -4.101  24.677  1.00  0.00    -0.206 OA
ENDBRANCH   4   6
ENDBRANCH   2   3
ENDBRANCH   1   2
BRANCH   1  10
HETATM   10  C   UNL     1       9.960  -0.871  22.009  1.00  0.00    -0.071 C 
BRANCH  10  11
HETATM   11  C   UNL     1       9.232  -0.076  21.251  1.00  0.00     0.289 C 
HETATM   12  O   UNL     1       9.697   0.945  21.060  1.00  0.00    -0.259 OA
HETATM   13  N   UNL     1       8.079  -0.596  20.847  1.00  0.00    -0.315 N 
ATOM     14  HN  UNL     1       7.834  -1.548  21.119  1.00  0.00     0.170 HD
BRANCH  13  15
HETATM   15  C   UNL     1       7.279   0.075  20.126  1.00  0.00     0.057 A 
HETATM   16  C   UNL     1       6.965   0.108  18.836  1.00  0.00     0.117 A 
HETATM   17  N   UNL     1       6.353   0.506  17.874  1.00  0.00    -0.373 N 
HETATM   18  C   UNL     1       5.607   1.479  18.548  1.00  0.00     0.088 A 
ATOM     19  HN  UNL     1       6.372   0.224  16.893  1.00  0.00     0.164 HD
HETATM   20  C   UNL     1       5.627   1.732  19.718  1.00  0.00     0.026 A 
HETATM   21  C   UNL     1       6.387   1.113  20.769  1.00  0.00    -0.033 A 
HETATM   22  C   UNL     1       6.285   1.483  22.236  1.00  0.00     0.050 C 
ENDBRANCH  13  15
ENDBRANCH  10  11
ENDBRANCH   1  10
BRANCH   1  23
HETATM   23  C   UNL     1      11.708  -0.651  23.617  1.00  0.00    -0.006 C 
BRANCH  23  24
HETATM   24  C   UNL     1      11.521   0.236  24.287  1.00  0.00    -0.002 C 
BRANCH  24  25
HETATM   25  C   UNL     1      10.526   0.423  25.184  1.00  0.00    -0.001 C 
BRANCH  25  26
HETATM   26  C   UNL     1       9.586   1.455  24.821  1.00  0.00    -0.010 C 
HETATM   27  C   UNL     1       9.664   2.332  24.335  1.00  0.00     0.011 C 
ENDBRANCH  25  26
ENDBRANCH  24  25
ENDBRANCH  23  24
ENDBRANCH   1  23
TORSDOF 10
ENDMDL
MODEL 5
REMARK VINA RESULT:    -5.960      2.542      2.771
REMARK INTER + INTRA:         -10.709
REMARK INTER:                  -9.608
REMARK INTRA:                  -1.102
REMARK UNBOUND:                -1.266
REMARK  10 active torsions:
REMARK  status: ('A' for Active; 'I' for Inactive)
REMARK    1  A    between atoms: S_2  and  N_5 
REMARK    2  A    between atoms: C_7  and  C_8 
REMARK    3  A    between atoms: C_8  and  C_9 
REMARK    4  A    between atoms: C_9  and  C_15 
REMARK    5  A    between atoms: C_9  and  C_10 
REMARK    6  A    between atoms: C_10  and  C_11 
REMARK    7  A    between atoms: C_11  and  C_12 
REMARK    8  A    between atoms: C_12  and  C_13 
REMARK    9  A    between atoms: C_15  and  C_16 
REMARK       I    between atoms: C_16  and  N_18 
REMARK   10  A    between atoms: N_18  and  C_20 
ROOT
HETATM    1  C   UNL     1       9.196  -1.226  23.982  1.00  0.00     0.109 C 
ENDROOT
BRANCH   1   2
HETATM    2  C   UNL     1       8.270  -1.994  24.329  1.00  0.00     0.011 C 
BRANCH   2   3
HETATM    3  C   UNL     1       7.760  -2.857  25.000  1.00  0.00     0.097 C 
HETATM    4  N   UNL     1       7.384  -3.372  26.047  1.00  0.00    -0.296 N 
ATOM      5  HN  UNL     1       6.944  -2.763  26.736  1.00  0.00     0.177 HD
BRANCH   4   6
HETATM    6  S   UNL     1       7.528  -4.951  26.427  1.00  0.00     0.226 S 
HETATM    7  C   UNL     1       6.115  -5.713  25.806  1.00  0.00     0.186 C 
HETATM    8  O   UNL     1       8.690  -5.531  25.778  1.00  0.00    -0.206 OA
HETATM    9  O   UNL     1       7.560  -5.176  27.837  1.00  0.00    -0.206 OA
ENDBRANCH   4   6
ENDBRANCH   2   3
ENDBRANCH   1   2
BRANCH   1  10
HETATM   10  C   UNL     1       8.856  -0.917  22.861  1.00  0.00    -0.071 C 
BRANCH  10  11
HETATM   11  C   UNL     1       8.383  -0.482  21.710  1.00  0.00     0.289 C 
HETATM   12  O   UNL     1       9.170  -0.040  21.017  1.00  0.00    -0.259 OA
HETATM   13  N   UNL     1       7.072  -0.625  21.559  1.00  0.00    -0.315 N 
ATOM     14  HN  UNL     1       6.524  -1.060  22.302  1.00  0.00     0.170 HD
BRANCH  13  15
HETATM   15  C   UNL     1       6.491  -0.229  20.503  1.00  0.00     0.057 A 
HETATM   16  C   UNL     1       6.147  -0.784  19.345  1.00  0.00     0.117 A 
HETATM   17  N   UNL     1       5.649  -0.787  18.245  1.00  0.00    -0.373 N 
HETATM   18  C   UNL     1       5.276   0.561  18.232  1.00  0.00     0.088 A 
ATOM     19  HN  UNL     1       5.536  -1.530  17.554  1.00  0.00     0.164 HD
HETATM   20  C   UNL     1       5.426   1.367  19.104  1.00  0.00     0.026 A 
HETATM   21  C   UNL     1       5.998   1.197  20.411  1.00  0.00    -0.033 A 
HETATM   22  C   UNL     1       6.082   2.287  21.463  1.00  0.00     0.050 C 
ENDBRANCH  13  15
ENDBRANCH  10  11
ENDBRANCH   1  10
BRANCH   1  23
HETATM   23  C   UNL     1       9.905   0.051  24.772  1.00  0.00    -0.006 C 
BRANCH  23  24
HETATM   24  C   UNL     1      10.809   0.633  24.429  1.00  0.00    -0.002 C 
BRANCH  24  25
HETATM   25  C   UNL     1      12.117   0.365  24.643  1.00  0.00    -0.001 C 
BRANCH  25  26
HETATM   26  C   UNL     1      12.671  -0.632  23.760  1.00  0.00    -0.010 C 
HETATM   27  C   UNL     1      13.490  -1.214  23.789  1.00  0.00     0.011 C 
ENDBRANCH  25  26
ENDBRANCH  24  25
ENDBRANCH  23  24
ENDBRANCH   1  23
TORSDOF 10
ENDMDL
MODEL 6
REMARK VINA RESULT:    -5.855      4.156      6.791
REMARK INTER + INTRA:         -10.543
REMARK INTER:                  -9.328
REMARK INTRA:                  -1.216
REMARK UNBOUND:                -1.266
REMARK  10 active torsions:
REMARK  status: ('A' for Active; 'I' for Inactive)
REMARK    1  A    between atoms: S_2  and  N_5 
REMARK    2  A    between atoms: C_7  and  C_8 
REMARK    3  A    between atoms: C_8  and  C_9 
REMARK    4  A    between atoms: C_9  and  C_15 
REMARK    5  A    between atoms: C_9  and  C_10 
REMARK    6  A    between atoms: C_10  and  C_11 
REMARK    7  A    between atoms: C_11  and  C_12 
REMARK    8  A    between atoms: C_12  and  C_13 
REMARK    9  A    between atoms: C_15  and  C_16 
REMARK       I    between atoms: C_16  and  N_18 
REMARK   10  A    between atoms: N_18  and  C_20 
ROOT
HETATM    1  C   UNL     1       7.443  -4.577  24.692  1.00  0.00     0.109 C 
ENDROOT
BRANCH   1   2
HETATM    2  C   UNL     1       7.735  -5.082  25.800  1.00  0.00     0.011 C 
BRANCH   2   3
HETATM    3  C   UNL     1       7.528  -5.392  26.947  1.00  0.00     0.097 C 
HETATM    4  N   UNL     1       7.542  -6.147  27.912  1.00  0.00    -0.296 N 
ATOM      5  HN  UNL     1       8.379  -6.714  28.050  1.00  0.00     0.177 HD
BRANCH   4   6
HETATM    6  S   UNL     1       6.335  -6.319  28.994  1.00  0.00     0.226 S 
HETATM    7  C   UNL     1       4.888  -5.932  28.146  1.00  0.00     0.186 C 
HETATM    8  O   UNL     1       6.249  -7.693  29.453  1.00  0.00    -0.206 OA
HETATM    9  O   UNL     1       6.449  -5.415  30.094  1.00  0.00    -0.206 OA
ENDBRANCH   4   6
ENDBRANCH   2   3
ENDBRANCH   1   2
BRANCH   1  10
HETATM   10  C   UNL     1       7.932  -3.472  24.786  1.00  0.00    -0.071 C 
BRANCH  10  11
HETATM   11  C   UNL     1       8.477  -2.273  24.730  1.00  0.00     0.289 C 
HETATM   12  O   UNL     1       7.935  -1.483  25.345  1.00  0.00    -0.259 OA
HETATM   13  N   UNL     1       9.556  -2.189  23.962  1.00  0.00    -0.315 N 
ATOM     14  HN  UNL     1       9.903  -3.023  23.487  1.00  0.00     0.170 HD
BRANCH  13  15
HETATM   15  C   UNL     1      10.163  -1.085  23.810  1.00  0.00     0.057 A 
HETATM   16  C   UNL     1      11.095  -0.416  24.480  1.00  0.00     0.117 A 
HETATM   17  N   UNL     1      11.853   0.506  24.664  1.00  0.00    -0.373 N 
HETATM   18  C   UNL     1      11.472   1.254  23.545  1.00  0.00     0.088 A 
ATOM     19  HN  UNL     1      12.544   0.681  25.395  1.00  0.00     0.164 HD
HETATM   20  C   UNL     1      10.661   0.962  22.715  1.00  0.00     0.026 A 
HETATM   21  C   UNL     1       9.864  -0.228  22.601  1.00  0.00    -0.033 A 
HETATM   22  C   UNL     1       8.903  -0.515  21.463  1.00  0.00     0.050 C 
ENDBRANCH  13  15
ENDBRANCH  10  11
ENDBRANCH   1  10
BRANCH   1  23
HETATM   23  C   UNL     1       7.592  -5.174  23.150  1.00  0.00    -0.006 C 
BRANCH  23  24
HETATM   24  C   UNL     1       6.792  -5.700  22.554  1.00  0.00    -0.002 C 
BRANCH  24  25
HETATM   25  C   UNL     1       5.596  -5.223  22.139  1.00  0.00    -0.001 C 
BRANCH  25  26
HETATM   26  C   UNL     1       4.480  -5.627  22.959  1.00  0.00    -0.010 C 
HETATM   27  C   UNL     1       4.365  -6.293  23.704  1.00  0.00     0.011 C 
ENDBRANCH  25  26
ENDBRANCH  24  25
ENDBRANCH  23  24
ENDBRANCH   1  23
TORSDOF 10
ENDMDL
MODEL 7
REMARK VINA RESULT:    -5.640      4.908      7.485
REMARK INTER + INTRA:         -10.203
REMARK INTER:                  -9.070
REMARK INTRA:                  -1.133
REMARK UNBOUND:                -1.266
REMARK  10 active torsions:
REMARK  status: ('A' for Active; 'I' for Inactive)
REMARK    1  A    between atoms: S_2  and  N_5 
REMARK    2  A    between atoms: C_7  and  C_8 
REMARK    3  A    between atoms: C_8  and  C_9 
REMARK    4  A    between atoms: C_9  and  C_15 
REMARK    5  A    between atoms: C_9  and  C_10 
REMARK    6  A    between atoms: C_10  and  C_11 
REMARK    7  A    between atoms: C_11  and  C_12 
REMARK    8  A    between atoms: C_12  and  C_13 
REMARK    9  A    between atoms: C_15  and  C_16 
REMARK       I    between atoms: C_16  and  N_18 
REMARK   10  A    between atoms: N_18  and  C_20 
ROOT
HETATM    1  C   UNL     1       5.851  -5.279  25.958  1.00  0.00     0.109 C 
ENDROOT
BRANCH   1   2
HETATM    2  C   UNL     1       6.233  -5.927  26.959  1.00  0.00     0.011 C 
BRANCH   2   3
HETATM    3  C   UNL     1       6.443  -6.098  28.135  1.00  0.00     0.097 C 
HETATM    4  N   UNL     1       6.644  -6.768  29.140  1.00  0.00    -0.296 N 
ATOM      5  HN  UNL     1       7.266  -7.572  29.050  1.00  0.00     0.177 HD
BRANCH   4   6
HETATM    6  S   UNL     1       6.000  -6.482  30.610  1.00  0.00     0.226 S 
HETATM    7  C   UNL     1       4.306  -6.732  30.436  1.00  0.00     0.186 C 
HETATM    8  O   UNL     1       6.510  -7.428  31.587  1.00  0.00    -0.206 OA
HETATM    9  O   UNL     1       6.199  -5.136  31.045  1.00  0.00    -0.206 OA
ENDBRANCH   4   6
ENDBRANCH   2   3
ENDBRANCH   1   2
BRANCH   1  10
HETATM   10  C   UNL     1       6.829  -4.609  25.708  1.00  0.00    -0.071 C 
BRANCH  10  11
HETATM   11  C   UNL     1       7.969  -4.017  25.410  1.00  0.00     0.289 C 
HETATM   12  O   UNL     1       8.885  -4.501  25.880  1.00  0.00    -0.259 OA
HETATM   13  N   UNL     1       7.854  -2.957  24.619  1.00  0.00    -0.315 N 
ATOM     14  HN  UNL     1       6.932  -2.675  24.286  1.00  0.00     0.170 HD
BRANCH  13  15
HETATM   15  C   UNL     1       8.875  -2.289  24.273  1.00  0.00     0.057 A 
HETATM   16  C   UNL     1       9.700  -2.291  23.232  1.00  0.00     0.117 A 
HETATM   17  N   UNL     1      10.638  -1.890  22.584  1.00  0.00    -0.373 N 
HETATM   18  C   UNL     1      11.056  -0.912  23.494  1.00  0.00     0.088 A 
ATOM     19  HN  UNL     1      11.003  -2.170  21.674  1.00  0.00     0.164 HD
HETATM   20  C   UNL     1      10.551  -0.628  24.541  1.00  0.00     0.026 A 
HETATM   21  C   UNL     1       9.374  -1.172  25.161  1.00  0.00    -0.033 A 
HETATM   22  C   UNL     1       8.790  -0.687  26.474  1.00  0.00     0.050 C 
ENDBRANCH  13  15
ENDBRANCH  10  11
ENDBRANCH   1  10
BRANCH   1  23
HETATM   23  C   UNL     1       5.085  -5.771  24.570  1.00  0.00    -0.006 C 
BRANCH  23  24
HETATM   24  C   UNL     1       5.063  -5.221  23.585  1.00  0.00    -0.002 C 
BRANCH  24  25
HETATM   25  C   UNL     1       5.195  -5.721  22.336  1.00  0.00    -0.001 C 
BRANCH  25  26
HETATM   26  C   UNL     1       6.544  -5.690  21.824  1.00  0.00    -0.010 C 
HETATM   27  C   UNL     1       7.442  -5.930  22.207  1.00  0.00     0.011 C 
ENDBRANCH  25  26
ENDBRANCH  24  25
ENDBRANCH  23  24
ENDBRANCH   1  23
TORSDOF 10
ENDMDL
MODEL 8
REMARK VINA RESULT:    -5.608     23.517     26.654
REMARK INTER + INTRA:         -10.152
REMARK INTER:                  -8.734
REMARK INTRA:                  -1.418
REMARK UNBOUND:                -1.266
REMARK  10 active torsions:
REMARK  status: ('A' for Active; 'I' for Inactive)
REMARK    1  A    between atoms: S_2  and  N_5 
REMARK    2  A    between atoms: C_7  and  C_8 
REMARK    3  A    between atoms: C_8  and  C_9 
REMARK    4  A    between atoms: C_9  and  C_15 
REMARK    5  A    between atoms: C_9  and  C_10 
REMARK    6  A    between atoms: C_10  and  C_11 
REMARK    7  A    between atoms: C_11  and  C_12 
REMARK    8  A    between atoms: C_12  and  C_13 
REMARK    9  A    between atoms: C_15  and  C_16 
REMARK       I    between atoms: C_16  and  N_18 
REMARK   10  A    between atoms: N_18  and  C_20 
ROOT
HETATM    1  C   UNL     1       8.070  16.660   1.747  1.00  0.00     0.109 C 
ENDROOT
BRANCH   1   2
HETATM    2  C   UNL     1       8.411  15.458   1.837  1.00  0.00     0.011 C 
BRANCH   2   3
HETATM    3  C   UNL     1       8.336  14.330   2.258  1.00  0.00     0.097 C 
HETATM    4  N   UNL     1       7.848  13.210   2.350  1.00  0.00    -0.296 N 
ATOM      5  HN  UNL     1       7.529  12.767   1.489  1.00  0.00     0.177 HD
BRANCH   4   6
HETATM    6  S   UNL     1       7.666  12.370   3.735  1.00  0.00     0.226 S 
HETATM    7  C   UNL     1       6.603  11.070   3.359  1.00  0.00     0.186 C 
HETATM    8  O   UNL     1       8.936  11.819   4.172  1.00  0.00    -0.206 OA
HETATM    9  O   UNL     1       7.058  13.144   4.771  1.00  0.00    -0.206 OA
ENDBRANCH   4   6
ENDBRANCH   2   3
ENDBRANCH   1   2
BRANCH   1  10
HETATM   10  C   UNL     1       8.590  17.139   2.731  1.00  0.00    -0.071 C 
BRANCH  10  11
HETATM   11  C   UNL     1       9.251  17.739   3.702  1.00  0.00     0.289 C 
HETATM   12  O   UNL     1       8.712  17.741   4.704  1.00  0.00    -0.259 OA
HETATM   13  N   UNL     1      10.426  18.243   3.344  1.00  0.00    -0.315 N 
ATOM     14  HN  UNL     1      10.749  18.133   2.383  1.00  0.00     0.170 HD
BRANCH  13  15
HETATM   15  C   UNL     1      11.151  18.861   4.182  1.00  0.00     0.057 A 
HETATM   16  C   UNL     1      12.129  18.527   5.017  1.00  0.00     0.117 A 
HETATM   17  N   UNL     1      12.975  18.752   5.848  1.00  0.00    -0.373 N 
HETATM   18  C   UNL     1      12.710  20.119   5.983  1.00  0.00     0.088 A 
ATOM     19  HN  UNL     1      13.659  18.145   6.302  1.00  0.00     0.164 HD
HETATM   20  C   UNL     1      11.897  20.765   5.388  1.00  0.00     0.026 A 
HETATM   21  C   UNL     1      10.982  20.353   4.360  1.00  0.00    -0.033 A 
HETATM   22  C   UNL     1      10.030  21.282   3.631  1.00  0.00     0.050 C 
ENDBRANCH  13  15
ENDBRANCH  10  11
ENDBRANCH   1  10
BRANCH   1  23
HETATM   23  C   UNL     1       8.120  17.712   0.465  1.00  0.00    -0.006 C 
BRANCH  23  24
HETATM   24  C   UNL     1       7.690  18.755   0.436  1.00  0.00    -0.002 C 
BRANCH  24  25
HETATM   25  C   UNL     1       8.071  19.805  -0.327  1.00  0.00    -0.001 C 
BRANCH  25  26
HETATM   26  C   UNL     1       9.208  20.529   0.186  1.00  0.00    -0.010 C 
HETATM   27  C   UNL     1       9.768  21.289  -0.161  1.00  0.00     0.011 C 
ENDBRANCH  25  26
ENDBRANCH  24  25
ENDBRANCH  23  24
ENDBRANCH   1  23
TORSDOF 10
ENDMDL
MODEL 9
REMARK VINA RESULT:    -5.587     14.939     16.711
REMARK INTER + INTRA:         -10.118
REMARK INTER:                  -8.811
REMARK INTRA:                  -1.307
REMARK UNBOUND:                -1.266
REMARK  10 active torsions:
REMARK  status: ('A' for Active; 'I' for Inactive)
REMARK    1  A    between atoms: S_2  and  N_5 
REMARK    2  A    between atoms: C_7  and  C_8 
REMARK    3  A    between atoms: C_8  and  C_9 
REMARK    4  A    between atoms: C_9  and  C_15 
REMARK    5  A    between atoms: C_9  and  C_10 
REMARK    6  A    between atoms: C_10  and  C_11 
REMARK    7  A    between atoms: C_11  and  C_12 
REMARK    8  A    between atoms: C_12  and  C_13 
REMARK    9  A    between atoms: C_15  and  C_16 
REMARK       I    between atoms: C_16  and  N_18 
REMARK   10  A    between atoms: N_18  and  C_20 
ROOT
HETATM    1  C   UNL     1      23.856  -2.416  19.939  1.00  0.00     0.109 C 
ENDROOT
BRANCH   1   2
HETATM    2  C   UNL     1      24.499  -3.488  19.870  1.00  0.00     0.011 C 
BRANCH   2   3
HETATM    3  C   UNL     1      24.633  -4.687  19.917  1.00  0.00     0.097 C 
HETATM    4  N   UNL     1      24.296  -5.831  20.198  1.00  0.00    -0.296 N 
ATOM      5  HN  UNL     1      23.318  -6.080  20.049  1.00  0.00     0.177 HD
BRANCH   4   6
HETATM    6  S   UNL     1      25.282  -6.987  20.789  1.00  0.00     0.226 S 
HETATM    7  C   UNL     1      26.368  -7.374  19.511  1.00  0.00     0.186 C 
HETATM    8  O   UNL     1      26.050  -6.481  21.912  1.00  0.00    -0.206 OA
HETATM    9  O   UNL     1      24.580  -8.180  21.140  1.00  0.00    -0.206 OA
ENDBRANCH   4   6
ENDBRANCH   2   3
ENDBRANCH   1   2
BRANCH   1  10
HETATM   10  C   UNL     1      23.622  -2.344  21.126  1.00  0.00    -0.071 C 
BRANCH  10  11
HETATM   11  C   UNL     1      23.473  -2.145  22.421  1.00  0.00     0.289 C 
HETATM   12  O   UNL     1      24.284  -2.620  23.064  1.00  0.00    -0.259 OA
HETATM   13  N   UNL     1      22.403  -1.435  22.755  1.00  0.00    -0.315 N 
ATOM     14  HN  UNL     1      21.786  -1.081  22.024  1.00  0.00     0.170 HD
BRANCH  13  15
HETATM   15  C   UNL     1      22.137  -1.190  23.971  1.00  0.00     0.057 A 
HETATM   16  C   UNL     1      21.414  -1.773  24.920  1.00  0.00     0.117 A 
HETATM   17  N   UNL     1      20.966  -1.882  26.036  1.00  0.00    -0.373 N 
HETATM   18  C   UNL     1      21.529  -0.709  26.551  1.00  0.00     0.088 A 
ATOM     19  HN  UNL     1      20.373  -2.595  26.463  1.00  0.00     0.164 HD
HETATM   20  C   UNL     1      22.241   0.067  25.983  1.00  0.00     0.026 A 
HETATM   21  C   UNL     1      22.744   0.024  24.638  1.00  0.00    -0.033 A 
HETATM   22  C   UNL     1      23.695   1.044  24.041  1.00  0.00     0.050 C 
ENDBRANCH  13  15
ENDBRANCH  10  11
ENDBRANCH   1  10
BRANCH   1  23
HETATM   23  C   UNL     1      24.163  -0.919  19.292  1.00  0.00    -0.006 C 
BRANCH  23  24
HETATM   24  C   UNL     1      23.864  -0.558  18.266  1.00  0.00    -0.002 C 
BRANCH  24  25
HETATM   25  C   UNL     1      22.873  -1.013  17.466  1.00  0.00    -0.001 C 
BRANCH  25  26
HETATM   26  C   UNL     1      23.320  -1.876  16.400  1.00  0.00    -0.010 C 
HETATM   27  C   UNL     1      23.422  -2.872  16.304  1.00  0.00     0.011 C 
ENDBRANCH  25  26
ENDBRANCH  24  25
ENDBRANCH  23  24
ENDBRANCH   1  23
TORSDOF 10
ENDMDL
