REMARK  10 active torsions:
REMARK  status: ('A' for Active; 'I' for Inactive)
REMARK    1  A    between atoms: S_2  and  N_5 
REMARK    2  A    between atoms: C_7  and  C_8 
REMARK    3  A    between atoms: C_8  and  C_9 
REMARK    4  A    between atoms: C_9  and  C_15 
REMARK    5  A    between atoms: C_9  and  C_10 
REMARK    6  A    between atoms: C_10  and  C_11 
REMARK    7  A    between atoms: C_11  and  C_12 
REMARK    8  A    between atoms: C_12  and  C_13 
REMARK    9  A    between atoms: C_15  and  C_16 
REMARK       I    between atoms: C_16  and  N_18 
REMARK   10  A    between atoms: N_18  and  C_20 
ROOT
HETATM    1  C   UNL     1      10.277  -1.086  23.289  1.00  0.00     0.109 C 
ENDROOT
BRANCH   1   2
HETATM    2  C   UNL     1       9.449  -1.994  23.530  1.00  0.00     0.011 C 
BRANCH   2   3
HETATM    3  C   UNL     1       9.000  -2.926  24.151  1.00  0.00     0.097 C 
HETATM    4  N   UNL     1       8.109  -3.585  24.674  1.00  0.00    -0.296 N 
ATOM      5  HN  UNL     1       7.233  -3.678  24.160  1.00  0.00     0.177 HD
BRANCH   4   6
HETATM    6  S   UNL     1       8.209  -4.325  26.123  1.00  0.00     0.226 S 
HETATM    7  C   UNL     1       6.615  -4.866  26.483  1.00  0.00     0.186 C 
HETATM    8  O   UNL     1       9.085  -5.480  26.050  1.00  0.00    -0.206 OA
HETATM    9  O   UNL     1       8.613  -3.437  27.167  1.00  0.00    -0.206 OA
ENDBRANCH   4   6
ENDBRANCH   2   3
ENDBRANCH   1   2
BRANCH   1  10
HETATM   10  C   UNL     1       9.764  -0.527  22.344  1.00  0.00    -0.071 C 
BRANCH  10  11
HETATM   11  C   UNL     1       9.067   0.060  21.391  1.00  0.00     0.289 C 
HETATM   12  O   UNL     1       9.527   1.025  21.001  1.00  0.00    -0.259 OA
HETATM   13  N   UNL     1       7.947  -0.568  21.055  1.00  0.00    -0.315 N 
ATOM     14  HN  UNL     1       7.701  -1.442  21.520  1.00  0.00     0.170 HD
BRANCH  13  15
HETATM   15  C   UNL     1       7.178  -0.096  20.163  1.00  0.00     0.057 A 
HETATM   16  C   UNL     1       7.199  -0.020  18.837  1.00  0.00     0.117 A 
HETATM   17  N   UNL     1       6.749   0.276  17.756  1.00  0.00    -0.373 N 
HETATM   18  C   UNL     1       5.590   0.901  18.229  1.00  0.00     0.088 A 
ATOM     19  HN  UNL     1       7.099   0.121  16.810  1.00  0.00     0.164 HD
HETATM   20  C   UNL     1       5.239   1.020  19.367  1.00  0.00     0.026 A 
HETATM   21  C   UNL     1       5.872   0.549  20.568  1.00  0.00    -0.033 A 
HETATM   22  C   UNL     1       5.299   0.710  21.963  1.00  0.00     0.050 C 
ENDBRANCH  13  15
ENDBRANCH  10  11
ENDBRANCH   1  10
BRANCH   1  23
HETATM   23  C   UNL     1      11.028  -0.002  24.297  1.00  0.00    -0.006 C 
BRANCH  23  24
HETATM   24  C   UNL     1      12.113   0.305  24.263  1.00  0.00    -0.002 C 
BRANCH  24  25
HETATM   25  C   UNL     1      13.104  -0.180  23.481  1.00  0.00    -0.001 C 
BRANCH  25  26
HETATM   26  C   UNL     1      12.710  -1.284  22.640  1.00  0.00    -0.010 C 
HETATM   27  C   UNL     1      11.840  -1.760  22.474  1.00  0.00     0.011 C 
ENDBRANCH  25  26
ENDBRANCH  24  25
ENDBRANCH  23  24
ENDBRANCH   1  23
TORSDOF 10
