stable:False satoms:9 tatoms:24 sratio:0.375
  -OEChem-07092417413D

 24 24  0     1  0  0  0  0  0999 V2000
    6.4060   -4.9737   26.5057 Br  0  0  0  0  0  0  0  0  0  0  0  0
    8.3117   -4.4160   26.1735 S   0  0  0  0  0  0  0  0  0  0  0  0
    9.0639   -5.6245   26.1103 O   0  0  0  0  0  0  0  0  0  0  0  0
    8.6671   -3.4711   27.1640 O   0  0  0  0  0  0  0  0  0  0  0  0
    8.1040   -3.7545   24.7118 N   0  0  0  0  0  0  0  0  0  0  0  0
    8.8942   -2.9966   24.2055 C   0  0  0  0  0  0  0  0  0  0  0  0
    9.4662   -2.2005   23.6617 C   0  0  0  0  0  0  0  0  0  0  0  0
   10.2440   -1.3439   22.9967 C   0  0  3  0  0  0  0  0  0  0  0  0
   11.6154    0.2447   24.5074 H   0  0  0  0  0  0  0  0  0  0  0  0
   12.4155   -0.0458   23.9845 C   0  0  0  0  0  2  0  0  0  0  0  0
   13.3857    0.1680   24.0012 H   0  0  0  0  0  0  0  0  0  0  0  0
   12.6222   -1.2796   22.5659 C   0  0  0  0  0  0  0  0  0  0  0  0
   11.6409   -1.2730   22.8516 C   0  0  0  0  0  0  0  0  0  0  0  0
    9.7627   -0.5427   22.2429 C   0  0  0  0  0  0  0  0  0  0  0  0
    9.0217    0.0569   21.2740 C   0  0  0  0  0  0  0  0  0  0  0  0
    9.4914    0.9662   20.6947 O   0  0  0  0  0  0  0  0  0  0  0  0
    7.7832   -0.5246   21.0875 N   0  0  0  0  0  0  0  0  0  0  0  0
    6.9688    0.0036   20.2640 C   0  0  0  0  0  0  0  0  0  0  0  0
    6.9421    0.2332   18.8099 C   0  0  0  0  0  0  0  0  0  0  0  0
    6.7994    0.4489   17.4855 N   0  0  0  0  0  0  0  0  0  0  0  0
    5.9736    0.7367   18.2606 C   0  0  0  0  0  0  0  0  0  0  0  0
    4.8117    1.1868   19.4607 S   0  0  0  0  0  0  0  0  0  0  0  0
    5.7506    0.5465   20.6210 C   0  0  0  0  0  0  0  0  0  0  0  0
    5.4420    0.5650   21.6562 H   0  0  0  0  0  0  0  0  0  0  0  0
 20 21  1  0  0  0  0
 19 20  1  0  0  0  0
 19 21  2  0  0  0  0
 21 22  1  0  0  0  0
 18 19  1  0  0  0  0
 22 23  1  0  0  0  0
 18 23  2  0  0  0  0
 17 18  1  0  0  0  0
 23 24  1  0  0  0  0
 15 16  2  0  0  0  0
 15 17  1  0  0  0  0
 14 15  1  0  0  0  0
  8 14  1  0  0  0  0
 12 13  3  0  0  0  0
  8 13  1  0  0  0  0
  7  8  1  0  0  0  0
  6  7  3  0  0  0  0
 10 11  1  0  0  0  0
  9 10  1  0  0  0  0
  5  6  1  0  0  0  0
  2  5  1  0  0  0  0
  2  3  2  0  0  0  0
  1  2  1  0  0  0  0
  2  4  2  0  0  0  0
M  END
> <Shapegauss>
-263.929260

$$$$
