REMARK  5 active torsions:
REMARK  status: ('A' for Active; 'I' for Inactive)
REMARK    1  A    between atoms: S_2  and  N_5 
REMARK    2  A    between atoms: N_5  and  C_7 
REMARK    3  A    between atoms: C_8  and  C_9 
REMARK    4  A    between atoms: C_9  and  C_12 
REMARK    5  A    between atoms: C_12  and  C_13 
REMARK       I    between atoms: C_13  and  N_15 
ROOT
HETATM    1  C   UNL     1      10.244  -1.344  22.997  1.00  0.00     0.220 C 
HETATM    2  C   UNL     1      12.622  -1.280  22.566  1.00  0.00     0.014 C 
HETATM    3  C   UNL     1      11.641  -1.273  22.852  1.00  0.00    -0.088 C 
ENDROOT
BRANCH   1   4
HETATM    4  C   UNL     1       9.466  -2.200  23.662  1.00  0.00    -0.053 C 
HETATM    5  C   UNL     1       8.894  -2.997  24.206  1.00  0.00     0.023 C 
BRANCH   5   6
HETATM    6  N   UNL     1       8.104  -3.755  24.712  1.00  0.00    -0.234 N 
ATOM      7  HN  UNL     1       7.260  -3.992  24.191  1.00  0.00     0.190 HD
BRANCH   6   8
HETATM    8  S   UNL     1       8.312  -4.416  26.174  1.00  0.00     0.301 S 
HETATM    9 BR   UNL     1       6.406  -4.974  26.506  1.00  0.00     0.082 Br
HETATM   10  O   UNL     1       9.064  -5.625  26.110  1.00  0.00    -0.193 OA
HETATM   11  O   UNL     1       8.667  -3.471  27.164  1.00  0.00    -0.193 OA
ENDBRANCH   6   8
ENDBRANCH   5   6
ENDBRANCH   1   4
BRANCH   1  12
HETATM   12  C   UNL     1       9.763  -0.543  22.243  1.00  0.00    -0.053 C 
BRANCH  12  13
HETATM   13  C   UNL     1       9.022   0.057  21.274  1.00  0.00     0.291 C 
HETATM   14  O   UNL     1       9.491   0.966  20.695  1.00  0.00    -0.259 OA
HETATM   15  N   UNL     1       7.783  -0.525  21.087  1.00  0.00    -0.314 N 
HETATM   16  C   UNL     1       6.969   0.004  20.264  1.00  0.00     0.071 A 
ATOM     17  HN  UNL     1       7.524  -1.367  21.601  1.00  0.00     0.170 HD
HETATM   18  C   UNL     1       6.942   0.233  18.810  1.00  0.00     0.095 A 
HETATM   19  C   UNL     1       5.751   0.546  20.621  1.00  0.00     0.084 A 
HETATM   20  N   UNL     1       6.799   0.449  17.485  1.00  0.00    -0.345 N 
HETATM   21  C   UNL     1       5.974   0.737  18.261  1.00  0.00     0.104 A 
ATOM     22  HN  UNL     1       7.148   0.399  16.528  1.00  0.00     0.167 HD
HETATM   23  S   UNL     1       4.812   1.187  19.461  1.00  0.00    -0.080 SA
ENDBRANCH  12  13
ENDBRANCH   1  12
TORSDOF 5
