stable:False satoms:5 tatoms:24 sratio:0.20833333333333334
  -OEChem-08062412413D

 43 45  0     1  0  0  0  0  0999 V2000
    6.1111   -5.0074   26.0755 C   0  0  0  0  0  0  0  0  0  0  0  0
    7.5655   -4.5697   25.9664 S   0  0  0  0  0  0  0  0  0  0  0  0
    8.4168   -5.7123   25.8696 O   0  0  0  0  0  0  0  0  0  0  0  0
    7.9384   -3.7263   27.0547 O   0  0  0  0  0  0  0  0  0  0  0  0
    7.7061   -3.7135   24.5488 N   0  0  0  0  0  0  0  0  0  0  0  0
    8.6077   -3.0893   24.1823 C   0  0  0  0  0  0  0  0  0  0  0  0
    9.1743   -2.1020   23.6265 C   0  0  0  0  0  0  0  0  0  0  0  0
   10.1308   -1.2182   23.6216 C   0  0  1  0  0  0  0  0  0  0  0  0
   10.6998   -0.2752   24.6957 C   0  0  0  0  0  0  0  0  0  0  0  0
   11.7594    0.0240   24.8097 C   0  0  0  0  0  0  0  0  0  0  0  0
   12.8426   -0.3825   24.1668 C   0  0  0  0  0  0  0  0  0  0  0  0
   12.5702   -1.3810   23.2639 C   0  0  0  0  0  0  0  0  0  0  0  0
   11.6644   -1.8643   22.9779 C   0  0  0  0  0  0  0  0  0  0  0  0
    9.4958   -0.8612   22.6600 C   0  0  2  0  0  0  0  0  0  0  0  0
    9.0172    0.0180   21.6462 C   0  0  0  0  0  0  0  0  0  0  0  0
    9.6125    0.9571   21.3752 O   0  0  0  0  0  0  0  0  0  0  0  0
    7.8968   -0.5150   21.2700 N   0  0  0  0  0  0  0  0  0  0  0  0
    7.2939    0.0131   20.2983 C   0  0  0  0  0  0  0  0  0  0  0  0
    7.5153    0.2118   19.0177 C   0  0  0  0  0  0  0  0  0  0  0  0
    7.2198    0.5349   17.8563 N   0  0  0  0  0  0  0  0  0  0  0  0
    6.0835    1.0851   18.1829 C   0  0  0  0  0  0  0  0  0  0  0  0
    5.5636    1.1318   19.3227 C   0  0  0  0  0  0  0  0  0  0  0  0
    5.9129    0.6531   20.5165 C   0  0  0  0  0  0  0  0  0  0  0  0
    5.3723    0.6833   21.5487 C   0  0  0  0  0  0  0  0  0  0  0  0
    5.9688   -5.5808   27.0034 H   0  0  0  0  0  0  0  0  0  0  0  0
    5.4613   -4.1200   26.0897 H   0  0  0  0  0  0  0  0  0  0  0  0
    5.8522   -5.6376   25.2118 H   0  0  0  0  0  0  0  0  0  0  0  0
    6.9416   -3.0691   24.5650 H   0  0  0  0  0  0  0  0  0  0  0  0
    9.4477   -3.6946   24.4896 H   0  0  0  0  0  0  0  0  0  0  0  0
    9.9979    0.1344   25.4069 H   0  0  0  0  0  0  0  0  0  0  0  0
   11.9388    0.7696   25.5702 H   0  0  0  0  0  0  0  0  0  0  0  0
   13.8289    0.0249   24.3333 H   0  0  0  0  0  0  0  0  0  0  0  0
   13.4427   -1.7473   22.7432 H   0  0  0  0  0  0  0  0  0  0  0  0
   11.6028   -1.8206   21.8804 H   0  0  0  0  0  0  0  0  0  0  0  0
   11.7379   -2.9137   23.2994 H   0  0  0  0  0  0  0  0  0  0  0  0
   10.0648   -1.4809   21.9514 H   0  0  0  0  0  0  0  0  0  0  0  0
    7.5241   -1.3179   21.7353 H   0  0  0  0  0  0  0  0  0  0  0  0
    8.5540   -0.0673   18.9196 H   0  0  0  0  0  0  0  0  0  0  0  0
    5.5287    1.5523   17.3826 H   0  0  0  0  0  0  0  0  0  0  0  0
    4.6319    1.6776   19.3413 H   0  0  0  0  0  0  0  0  0  0  0  0
    4.7400   -0.2101   21.6584 H   0  0  0  0  0  0  0  0  0  0  0  0
    6.1211    0.7035   22.3542 H   0  0  0  0  0  0  0  0  0  0  0  0
    4.7456    1.5854   21.6080 H   0  0  0  0  0  0  0  0  0  0  0  0
 20 21  2  0  0  0  0
 19 20  1  0  0  0  0
 21 22  1  0  0  0  0
 18 19  2  0  0  0  0
 22 23  2  0  0  0  0
 18 23  1  0  0  0  0
 17 18  1  0  0  0  0
 23 24  1  0  0  0  0
 15 16  2  0  0  0  0
 15 17  1  0  0  0  0
 14 15  1  0  0  0  0
  8 14  1  0  0  0  0
  7 14  1  0  0  0  0
 12 13  1  0  0  0  0
  8 13  1  0  0  0  0
 11 12  2  0  0  0  0
  7  8  1  0  0  0  0
  8  9  1  0  0  0  0
  6  7  2  3  0  0  0
 10 11  1  0  0  0  0
  5  6  1  0  0  0  0
  9 10  2  0  0  0  0
  2  5  1  0  0  0  0
  2  3  2  0  0  0  0
  1  2  1  0  0  0  0
  2  4  2  0  0  0  0
  1 25  1  0  0  0  0
  1 26  1  0  0  0  0
  1 27  1  0  0  0  0
  5 28  1  0  0  0  0
  6 29  1  0  0  0  0
  9 30  1  0  0  0  0
 10 31  1  0  0  0  0
 11 32  1  0  0  0  0
 12 33  1  0  0  0  0
 13 34  1  0  0  0  0
 13 35  1  0  0  0  0
 14 36  1  0  0  0  0
 17 37  1  0  0  0  0
 19 38  1  0  0  0  0
 21 39  1  0  0  0  0
 22 40  1  0  0  0  0
 24 41  1  0  0  0  0
 24 42  1  0  0  0  0
 24 43  1  0  0  0  0
M  END
> <Chemgauss4>
-13.010174

$$$$
