stable:False satoms:5 tatoms:24 sratio:0.20833333333333334
  -OEChem-08062412413D

 43 45  0     1  0  0  0  0  0999 V2000
   -6.3346   -4.9515  -26.1510 C   0  0  0  0  0  0  0  0  0  0  0  0
   -7.7890   -4.5138  -26.0419 S   0  0  0  0  0  0  0  0  0  0  0  0
   -8.6403   -5.6564  -25.9451 O   0  0  0  0  0  0  0  0  0  0  0  0
   -8.1619   -3.6703  -27.1302 O   0  0  0  0  0  0  0  0  0  0  0  0
   -7.9296   -3.6575  -24.6243 N   0  0  0  0  0  0  0  0  0  0  0  0
   -8.8312   -3.0334  -24.2578 C   0  0  0  0  0  0  0  0  0  0  0  0
   -9.3978   -2.0460  -23.7020 C   0  0  0  0  0  0  0  0  0  0  0  0
  -10.3543   -1.1622  -23.6971 C   0  0  1  0  0  0  0  0  0  0  0  0
  -10.9233   -0.2192  -24.7712 C   0  0  0  0  0  0  0  0  0  0  0  0
  -11.9829    0.0799  -24.8852 C   0  0  0  0  0  0  0  0  0  0  0  0
  -13.0661   -0.3265  -24.2423 C   0  0  0  0  0  0  0  0  0  0  0  0
  -12.7937   -1.3251  -23.3394 C   0  0  0  0  0  0  0  0  0  0  0  0
  -11.8879   -1.8084  -23.0534 C   0  0  0  0  0  0  0  0  0  0  0  0
   -9.7193   -0.8052  -22.7355 C   0  0  2  0  0  0  0  0  0  0  0  0
   -9.2407    0.0739  -21.7217 C   0  0  0  0  0  0  0  0  0  0  0  0
   -9.8360    1.0131  -21.4507 O   0  0  0  0  0  0  0  0  0  0  0  0
   -8.1204   -0.4591  -21.3455 N   0  0  0  0  0  0  0  0  0  0  0  0
   -7.5175    0.0691  -20.3738 C   0  0  0  0  0  0  0  0  0  0  0  0
   -7.7388    0.2678  -19.0932 C   0  0  0  0  0  0  0  0  0  0  0  0
   -7.4434    0.5909  -17.9318 N   0  0  0  0  0  0  0  0  0  0  0  0
   -6.3070    1.1411  -18.2584 C   0  0  0  0  0  0  0  0  0  0  0  0
   -5.7871    1.1877  -19.3982 C   0  0  0  0  0  0  0  0  0  0  0  0
   -6.1364    0.7090  -20.5920 C   0  0  0  0  0  0  0  0  0  0  0  0
   -5.5958    0.7393  -21.6242 C   0  0  0  0  0  0  0  0  0  0  0  0
   -6.1923   -5.5249  -27.0789 H   0  0  0  0  0  0  0  0  0  0  0  0
   -5.6848   -4.0640  -26.1652 H   0  0  0  0  0  0  0  0  0  0  0  0
   -6.0757   -5.5817  -25.2873 H   0  0  0  0  0  0  0  0  0  0  0  0
   -7.1651   -3.0132  -24.6405 H   0  0  0  0  0  0  0  0  0  0  0  0
   -9.6713   -3.6386  -24.5651 H   0  0  0  0  0  0  0  0  0  0  0  0
  -10.2214    0.1904  -25.4824 H   0  0  0  0  0  0  0  0  0  0  0  0
  -12.1623    0.8256  -25.6457 H   0  0  0  0  0  0  0  0  0  0  0  0
  -14.0524    0.0808  -24.4088 H   0  0  0  0  0  0  0  0  0  0  0  0
  -13.6662   -1.6913  -22.8187 H   0  0  0  0  0  0  0  0  0  0  0  0
  -11.8263   -1.7646  -21.9559 H   0  0  0  0  0  0  0  0  0  0  0  0
  -11.9614   -2.8578  -23.3749 H   0  0  0  0  0  0  0  0  0  0  0  0
  -10.2883   -1.4250  -22.0269 H   0  0  0  0  0  0  0  0  0  0  0  0
   -7.7477   -1.2620  -21.8108 H   0  0  0  0  0  0  0  0  0  0  0  0
   -8.7775   -0.0114  -18.9951 H   0  0  0  0  0  0  0  0  0  0  0  0
   -5.7522    1.6083  -17.4581 H   0  0  0  0  0  0  0  0  0  0  0  0
   -4.8554    1.7336  -19.4168 H   0  0  0  0  0  0  0  0  0  0  0  0
   -4.9635   -0.1542  -21.7339 H   0  0  0  0  0  0  0  0  0  0  0  0
   -6.3446    0.7595  -22.4297 H   0  0  0  0  0  0  0  0  0  0  0  0
   -4.9691    1.6413  -21.6835 H   0  0  0  0  0  0  0  0  0  0  0  0
 20 21  2  0  0  0  0
 19 20  1  0  0  0  0
 21 22  1  0  0  0  0
 18 19  2  0  0  0  0
 22 23  2  0  0  0  0
 18 23  1  0  0  0  0
 17 18  1  0  0  0  0
 23 24  1  0  0  0  0
 15 16  2  0  0  0  0
 15 17  1  0  0  0  0
 14 15  1  0  0  0  0
  8 14  1  0  0  0  0
  7 14  1  0  0  0  0
 12 13  1  0  0  0  0
  8 13  1  0  0  0  0
 11 12  2  0  0  0  0
  7  8  1  0  0  0  0
  8  9  1  0  0  0  0
  6  7  2  3  0  0  0
 10 11  1  0  0  0  0
  5  6  1  0  0  0  0
  9 10  2  0  0  0  0
  2  5  1  0  0  0  0
  2  3  2  0  0  0  0
  1  2  1  0  0  0  0
  2  4  2  0  0  0  0
  1 25  1  0  0  0  0
  1 26  1  0  0  0  0
  1 27  1  0  0  0  0
  5 28  1  0  0  0  0
  6 29  1  0  0  0  0
  9 30  1  0  0  0  0
 10 31  1  0  0  0  0
 11 32  1  0  0  0  0
 12 33  1  0  0  0  0
 13 34  1  0  0  0  0
 13 35  1  0  0  0  0
 14 36  1  0  0  0  0
 17 37  1  0  0  0  0
 19 38  1  0  0  0  0
 21 39  1  0  0  0  0
 22 40  1  0  0  0  0
 24 41  1  0  0  0  0
 24 42  1  0  0  0  0
 24 43  1  0  0  0  0
M  END
> <Chemgauss4>
-12.616396

$$$$
