stable:False satoms:17 tatoms:24 sratio:0.7083333333333334
  -OEChem-07092417383D

 24 25  0     1  0  0  0  0  0999 V2000
    7.1172   -4.6704   26.2847 H   0  0  0  0  0  0  0  0  0  0  0  0
    8.1373   -4.3247   26.0864 C   0  0  0  0  0  0  0  0  0  0  0  0
    8.7910   -5.2010   25.9510 H   0  0  0  0  0  0  0  0  0  0  0  0
    8.5012   -3.7621   26.9624 H   0  0  0  0  0  0  0  0  0  0  0  0
    8.1011   -3.5017   24.9334 N   0  0  0  0  0  0  0  0  0  0  0  0
    8.8780   -2.8509   24.3440 C   0  0  0  0  0  0  0  0  0  0  0  0
    9.4801   -1.9530   23.6418 C   0  0  0  0  0  0  0  0  0  0  0  0
   10.5752   -1.1419   23.4936 C   0  0  1  0  0  0  0  0  0  0  0  0
   10.7070   -0.4878   24.3649 H   0  0  0  0  0  0  0  0  0  0  0  0
   12.6256    0.1373   24.0400 H   0  0  0  0  0  0  0  0  0  0  0  0
   13.6502   -0.4044   22.6648 H   0  0  0  0  0  0  0  0  0  0  0  0
   12.7321   -0.5352   23.1767 C   0  0  0  0  0  0  0  0  0  0  0  0
   11.8078   -1.2794   22.9314 C   0  0  0  0  0  0  0  0  0  0  0  0
    9.2838   -1.0759   22.4222 C   0  0  3  0  0  0  0  0  0  0  0  0
    9.3786    0.2786   20.4746 H   0  0  0  0  0  0  0  0  0  0  0  0
    8.4744    0.0183   20.8006 N   0  3  0  0  0  0  0  0  0  0  0  0
    8.3958   -0.9756   21.6444 N   0  0  0  0  0  0  0  0  0  0  0  0
    7.3018    0.2428   20.0785 C   0  0  0  0  0  0  0  0  0  0  0  0
    6.9077    0.1877   18.9485 C   0  0  0  0  0  0  0  0  0  0  0  0
    7.1113   -0.1427   17.9585 H   0  0  0  0  0  0  0  0  0  0  0  0
    4.8133    1.2733   18.6147 H   0  0  0  0  0  0  0  0  0  0  0  0
    5.4832    0.9655   19.3940 C   0  0  0  0  0  0  0  0  0  0  0  0
    5.8348    0.8571   20.5370 C   0  0  0  0  0  0  0  0  0  0  0  0
    5.4957    1.0560   21.5486 H   0  0  0  0  0  0  0  0  0  0  0  0
 19 20  1  0  0  0  0
 21 22  1  0  0  0  0
 19 22  2  0  0  0  0
 18 19  1  0  0  0  0
 22 23  1  0  0  0  0
 18 23  2  0  0  0  0
 16 18  1  0  0  0  0
 15 16  1  0  0  0  0
 23 24  1  0  0  0  0
 16 17  2  0  0  0  0
 14 17  1  0  0  0  0
  8 14  1  0  0  0  0
  7 14  1  0  0  0  0
 11 12  1  0  0  0  0
 12 13  2  0  0  0  0
  8 13  1  0  0  0  0
 10 12  1  0  0  0  0
  7  8  1  0  0  0  0
  8  9  1  0  0  0  0
  6  7  2  3  0  0  0
  5  6  1  0  0  0  0
  2  5  1  0  0  0  0
  2  3  1  0  0  0  0
  1  2  1  0  0  0  0
  2  4  1  0  0  0  0
M  CHG  1  16   1
M  END
> <Shapegauss>
-170.298843

$$$$
