MODEL 1
REMARK VINA RESULT:    -7.391      0.000      0.000
REMARK INTER + INTRA:          -9.640
REMARK INTER:                  -9.119
REMARK INTRA:                  -0.521
REMARK UNBOUND:                -0.521
REMARK  4 active torsions:
REMARK  status: ('A' for Active; 'I' for Inactive)
REMARK    1  A    between atoms: S_2  and  N_5 
REMARK    2  A    between atoms: N_5  and  C_7 
REMARK    3  A    between atoms: C_8  and  C_9 
REMARK    4  A    between atoms: C_9  and  C_12 
REMARK       I    between atoms: N_13  and  C_15 
REMARK       I    between atoms: C_15  and  N_17 
ROOT
HETATM    1  C   UNL     1       7.870  -4.187  23.340  1.00  0.00     0.101 C 
HETATM    2  N   UNL     1       8.577  -3.376  22.766  1.00  0.00    -0.301 N 
ATOM      3  HN  UNL     1       8.832  -3.797  21.873  1.00  0.00     0.171 HD
HETATM    4  C   UNL     1       9.173  -2.155  22.797  1.00  0.00     0.326 C 
HETATM    5  O   UNL     1       9.274  -1.541  21.766  1.00  0.00    -0.247 OA
HETATM    6  N   UNL     1       9.644  -1.757  24.012  1.00  0.00    -0.293 N 
ATOM      7  HN  UNL     1       9.524  -2.314  24.859  1.00  0.00     0.172 HD
HETATM    8  C   UNL     1      10.272  -0.588  24.007  1.00  0.00     0.123 A 
HETATM    9  N   UNL     1       9.744   0.592  23.752  1.00  0.00    -0.286 N 
ATOM     10  HN  UNL     1       8.752   0.596  23.514  1.00  0.00     0.188 HD
HETATM   11  N   UNL     1      10.301   1.692  23.764  1.00  0.00    -0.310 N 
ATOM     12  HN  UNL     1       9.856   2.594  23.594  1.00  0.00     0.186 HD
HETATM   13  C   UNL     1      11.418   1.517  24.002  1.00  0.00     0.107 A 
HETATM   14  C   UNL     1      12.037   0.514  24.282  1.00  0.00     0.022 A 
HETATM   15  C   UNL     1      11.694  -0.665  24.373  1.00  0.00     0.051 A 
ENDROOT
BRANCH   1  16
HETATM   16  C   UNL     1       8.082  -4.691  24.565  1.00  0.00    -0.024 C 
HETATM   17  C   UNL     1       8.360  -5.168  25.561  1.00  0.00     0.028 C 
BRANCH  17  18
HETATM   18  N   UNL     1       8.341  -5.719  26.682  1.00  0.00    -0.229 N 
ATOM     19  HN  UNL     1       9.162  -6.233  27.002  1.00  0.00     0.190 HD
BRANCH  18  20
HETATM   20  S   UNL     1       7.050  -5.634  27.621  1.00  0.00     0.327 S 
HETATM   21 CL   UNL     1       5.676  -6.375  26.591  1.00  0.00     0.042 Cl
HETATM   22  O   UNL     1       7.181  -6.494  28.774  1.00  0.00    -0.188 OA
HETATM   23  O   UNL     1       6.649  -4.317  27.957  1.00  0.00    -0.188 OA
ENDBRANCH  18  20
ENDBRANCH  17  18
ENDBRANCH   1  16
BRANCH   1  24
HETATM   24  C   UNL     1       6.666  -4.419  22.506  1.00  0.00    -0.019 C 
HETATM   25  C   UNL     1       6.928  -5.858  21.801  1.00  0.00     0.025 C 
HETATM   26  C   UNL     1       5.832  -4.238  21.935  1.00  0.00     0.025 C 
ENDBRANCH   1  24
TORSDOF 4
ENDMDL
MODEL 2
REMARK VINA RESULT:    -7.316      4.117      5.497
REMARK INTER + INTRA:          -9.548
REMARK INTER:                  -9.017
REMARK INTRA:                  -0.531
REMARK UNBOUND:                -0.521
REMARK  4 active torsions:
REMARK  status: ('A' for Active; 'I' for Inactive)
REMARK    1  A    between atoms: S_2  and  N_5 
REMARK    2  A    between atoms: N_5  and  C_7 
REMARK    3  A    between atoms: C_8  and  C_9 
REMARK    4  A    between atoms: C_9  and  C_12 
REMARK       I    between atoms: N_13  and  C_15 
REMARK       I    between atoms: C_15  and  N_17 
ROOT
HETATM    1  C   UNL     1       9.353  -1.571  22.883  1.00  0.00     0.101 C 
HETATM    2  N   UNL     1       9.028  -0.518  22.360  1.00  0.00    -0.301 N 
ATOM      3  HN  UNL     1       9.315   0.222  23.001  1.00  0.00     0.171 HD
HETATM    4  C   UNL     1       8.450   0.100  21.297  1.00  0.00     0.326 C 
HETATM    5  O   UNL     1       8.890   1.163  20.944  1.00  0.00    -0.247 OA
HETATM    6  N   UNL     1       7.379  -0.542  20.750  1.00  0.00    -0.293 N 
ATOM      7  HN  UNL     1       7.051  -1.449  21.082  1.00  0.00     0.172 HD
HETATM    8  C   UNL     1       6.797   0.107  19.750  1.00  0.00     0.123 A 
HETATM    9  N   UNL     1       7.321   0.378  18.571  1.00  0.00    -0.286 N 
ATOM     10  HN  UNL     1       8.283   0.070  18.428  1.00  0.00     0.188 HD
HETATM   11  N   UNL     1       6.791   0.957  17.620  1.00  0.00    -0.310 N 
ATOM     12  HN  UNL     1       7.213   1.122  16.706  1.00  0.00     0.186 HD
HETATM   13  C   UNL     1       5.732   1.279  17.951  1.00  0.00     0.107 A 
HETATM   14  C   UNL     1       5.110   1.084  18.971  1.00  0.00     0.022 A 
HETATM   15  C   UNL     1       5.408   0.507  20.017  1.00  0.00     0.051 A 
ENDROOT
BRANCH   1  16
HETATM   16  C   UNL     1       8.539  -2.604  23.149  1.00  0.00    -0.024 C 
HETATM   17  C   UNL     1       7.762  -3.416  23.329  1.00  0.00     0.028 C 
BRANCH  17  18
HETATM   18  N   UNL     1       7.091  -4.363  23.792  1.00  0.00    -0.229 N 
ATOM     19  HN  UNL     1       7.212  -4.634  24.768  1.00  0.00     0.190 HD
BRANCH  18  20
HETATM   20  S   UNL     1       6.045  -5.156  22.878  1.00  0.00     0.327 S 
HETATM   21 CL   UNL     1       7.094  -5.925  21.534  1.00  0.00     0.042 Cl
HETATM   22  O   UNL     1       5.455  -6.263  23.594  1.00  0.00    -0.188 OA
HETATM   23  O   UNL     1       5.083  -4.339  22.235  1.00  0.00    -0.188 OA
ENDBRANCH  18  20
ENDBRANCH  17  18
ENDBRANCH   1  16
BRANCH   1  24
HETATM   24  C   UNL     1      10.826  -1.565  23.051  1.00  0.00    -0.019 C 
HETATM   25  C   UNL     1      11.088  -0.596  24.327  1.00  0.00     0.025 C 
HETATM   26  C   UNL     1      11.827  -1.628  22.832  1.00  0.00     0.025 C 
ENDBRANCH   1  24
TORSDOF 4
ENDMDL
MODEL 3
REMARK VINA RESULT:    -7.097      3.208      5.074
REMARK INTER + INTRA:          -9.278
REMARK INTER:                  -8.794
REMARK INTRA:                  -0.484
REMARK UNBOUND:                -0.521
REMARK  4 active torsions:
REMARK  status: ('A' for Active; 'I' for Inactive)
REMARK    1  A    between atoms: S_2  and  N_5 
REMARK    2  A    between atoms: N_5  and  C_7 
REMARK    3  A    between atoms: C_8  and  C_9 
REMARK    4  A    between atoms: C_9  and  C_12 
REMARK       I    between atoms: N_13  and  C_15 
REMARK       I    between atoms: C_15  and  N_17 
ROOT
HETATM    1  C   UNL     1      10.490  -0.380  24.022  1.00  0.00     0.101 C 
HETATM    2  N   UNL     1      10.158   0.408  23.153  1.00  0.00    -0.301 N 
ATOM      3  HN  UNL     1      10.525   1.318  23.434  1.00  0.00     0.171 HD
HETATM    4  C   UNL     1       9.511   0.605  21.974  1.00  0.00     0.326 C 
HETATM    5  O   UNL     1       9.956   1.418  21.206  1.00  0.00    -0.247 OA
HETATM    6  N   UNL     1       8.374  -0.125  21.794  1.00  0.00    -0.293 N 
ATOM      7  HN  UNL     1       8.045  -0.809  22.475  1.00  0.00     0.172 HD
HETATM    8  C   UNL     1       7.730   0.125  20.661  1.00  0.00     0.123 A 
HETATM    9  N   UNL     1       8.158  -0.116  19.438  1.00  0.00    -0.286 N 
ATOM     10  HN  UNL     1       9.093  -0.518  19.363  1.00  0.00     0.188 HD
HETATM   11  N   UNL     1       7.569   0.086  18.374  1.00  0.00    -0.310 N 
ATOM     12  HN  UNL     1       7.914  -0.143  17.442  1.00  0.00     0.186 HD
HETATM   13  C   UNL     1       6.555   0.580  18.623  1.00  0.00     0.107 A 
HETATM   14  C   UNL     1       6.017   0.836  19.678  1.00  0.00     0.022 A 
HETATM   15  C   UNL     1       6.385   0.689  20.844  1.00  0.00     0.051 A 
ENDROOT
BRANCH   1  16
HETATM   16  C   UNL     1       9.666  -1.174  24.724  1.00  0.00    -0.024 C 
HETATM   17  C   UNL     1       9.041  -1.936  25.293  1.00  0.00     0.028 C 
BRANCH  17  18
HETATM   18  N   UNL     1       8.109  -2.588  25.810  1.00  0.00    -0.229 N 
ATOM     19  HN  UNL     1       7.279  -2.097  26.144  1.00  0.00     0.190 HD
BRANCH  18  20
HETATM   20  S   UNL     1       8.196  -4.177  25.958  1.00  0.00     0.327 S 
HETATM   21 CL   UNL     1       6.440  -4.708  26.319  1.00  0.00     0.042 Cl
HETATM   22  O   UNL     1       8.543  -4.804  24.703  1.00  0.00    -0.188 OA
HETATM   23  O   UNL     1       8.994  -4.628  27.039  1.00  0.00    -0.188 OA
ENDBRANCH  18  20
ENDBRANCH  17  18
ENDBRANCH   1  16
BRANCH   1  24
HETATM   24  C   UNL     1      11.971  -0.408  24.076  1.00  0.00    -0.019 C 
HETATM   25  C   UNL     1      12.395  -1.593  23.050  1.00  0.00     0.025 C 
HETATM   26  C   UNL     1      12.931  -0.301  24.425  1.00  0.00     0.025 C 
ENDBRANCH   1  24
TORSDOF 4
ENDMDL
MODEL 4
REMARK VINA RESULT:    -7.063     14.191     15.869
REMARK INTER + INTRA:          -9.236
REMARK INTER:                  -8.739
REMARK INTRA:                  -0.497
REMARK UNBOUND:                -0.521
REMARK  4 active torsions:
REMARK  status: ('A' for Active; 'I' for Inactive)
REMARK    1  A    between atoms: S_2  and  N_5 
REMARK    2  A    between atoms: N_5  and  C_7 
REMARK    3  A    between atoms: C_8  and  C_9 
REMARK    4  A    between atoms: C_9  and  C_12 
REMARK       I    between atoms: N_13  and  C_15 
REMARK       I    between atoms: C_15  and  N_17 
ROOT
HETATM    1  C   UNL     1      22.743  -2.203  25.241  1.00  0.00     0.101 C 
HETATM    2  N   UNL     1      23.101  -1.550  26.207  1.00  0.00    -0.301 N 
ATOM      3  HN  UNL     1      23.439  -0.659  25.843  1.00  0.00     0.171 HD
HETATM    4  C   UNL     1      23.245  -1.490  27.557  1.00  0.00     0.326 C 
HETATM    5  O   UNL     1      23.078  -0.432  28.104  1.00  0.00    -0.247 OA
HETATM    6  N   UNL     1      23.614  -2.654  28.165  1.00  0.00    -0.293 N 
ATOM      7  HN  UNL     1      23.734  -3.528  27.653  1.00  0.00     0.172 HD
HETATM    8  C   UNL     1      23.804  -2.558  29.474  1.00  0.00     0.123 A 
HETATM    9  N   UNL     1      22.893  -2.292  30.388  1.00  0.00    -0.286 N 
ATOM     10  HN  UNL     1      21.948  -2.123  30.042  1.00  0.00     0.188 HD
HETATM   11  N   UNL     1      23.041  -2.222  31.610  1.00  0.00    -0.310 N 
ATOM     12  HN  UNL     1      22.307  -2.047  32.296  1.00  0.00     0.186 HD
HETATM   13  C   UNL     1      24.161  -2.389  31.838  1.00  0.00     0.107 A 
HETATM   14  C   UNL     1      25.098  -2.667  31.123  1.00  0.00     0.022 A 
HETATM   15  C   UNL     1      25.183  -2.828  29.905  1.00  0.00     0.051 A 
ENDROOT
BRANCH   1  16
HETATM   16  C   UNL     1      23.176  -3.431  24.915  1.00  0.00    -0.024 C 
HETATM   17  C   UNL     1      23.612  -4.466  24.734  1.00  0.00     0.028 C 
BRANCH  17  18
HETATM   18  N   UNL     1      24.059  -5.515  24.222  1.00  0.00    -0.229 N 
ATOM     19  HN  UNL     1      24.249  -5.543  23.220  1.00  0.00     0.190 HD
BRANCH  18  20
HETATM   20  S   UNL     1      24.338  -6.813  25.113  1.00  0.00     0.327 S 
HETATM   21 CL   UNL     1      26.202  -6.949  25.165  1.00  0.00     0.042 Cl
HETATM   22  O   UNL     1      23.923  -6.610  26.482  1.00  0.00    -0.188 OA
HETATM   23  O   UNL     1      23.851  -8.024  24.563  1.00  0.00    -0.188 OA
ENDBRANCH  18  20
ENDBRANCH  17  18
ENDBRANCH   1  16
BRANCH   1  24
HETATM   24  C   UNL     1      21.650  -1.464  24.565  1.00  0.00    -0.019 C 
HETATM   25  C   UNL     1      22.181   0.068  24.487  1.00  0.00     0.025 C 
HETATM   26  C   UNL     1      20.712  -1.207  24.237  1.00  0.00     0.025 C 
ENDBRANCH   1  24
TORSDOF 4
ENDMDL
MODEL 5
REMARK VINA RESULT:    -6.735      4.175      7.528
REMARK INTER + INTRA:          -8.831
REMARK INTER:                  -8.385
REMARK INTRA:                  -0.446
REMARK UNBOUND:                -0.521
REMARK  4 active torsions:
REMARK  status: ('A' for Active; 'I' for Inactive)
REMARK    1  A    between atoms: S_2  and  N_5 
REMARK    2  A    between atoms: N_5  and  C_7 
REMARK    3  A    between atoms: C_8  and  C_9 
REMARK    4  A    between atoms: C_9  and  C_12 
REMARK       I    between atoms: N_13  and  C_15 
REMARK       I    between atoms: C_15  and  N_17 
ROOT
HETATM    1  C   UNL     1       8.739  -2.462  22.660  1.00  0.00     0.101 C 
HETATM    2  N   UNL     1       8.653  -3.595  23.105  1.00  0.00    -0.301 N 
ATOM      3  HN  UNL     1       9.426  -4.122  22.699  1.00  0.00     0.171 HD
HETATM    4  C   UNL     1       7.976  -4.461  23.904  1.00  0.00     0.326 C 
HETATM    5  O   UNL     1       8.602  -5.300  24.497  1.00  0.00    -0.247 OA
HETATM    6  N   UNL     1       6.621  -4.314  23.922  1.00  0.00    -0.293 N 
ATOM      7  HN  UNL     1       6.140  -3.577  23.406  1.00  0.00     0.172 HD
HETATM    8  C   UNL     1       5.978  -5.206  24.664  1.00  0.00     0.123 A 
HETATM    9  N   UNL     1       6.047  -5.343  25.973  1.00  0.00    -0.286 N 
ATOM     10  HN  UNL     1       6.679  -4.705  26.457  1.00  0.00     0.188 HD
HETATM   11  N   UNL     1       5.442  -6.147  26.685  1.00  0.00    -0.310 N 
ATOM     12  HN  UNL     1       5.491  -6.205  27.702  1.00  0.00     0.186 HD
HETATM   13  C   UNL     1       4.808  -6.821  25.993  1.00  0.00     0.107 A 
HETATM   14  C   UNL     1       4.622  -6.803  24.797  1.00  0.00     0.022 A 
HETATM   15  C   UNL     1       5.072  -6.081  23.906  1.00  0.00     0.051 A 
ENDROOT
BRANCH   1  16
HETATM   16  C   UNL     1       7.777  -1.798  22.001  1.00  0.00    -0.024 C 
HETATM   17  C   UNL     1       6.893  -1.250  21.538  1.00  0.00     0.028 C 
BRANCH  17  18
HETATM   18  N   UNL     1       6.037  -0.785  20.755  1.00  0.00    -0.229 N 
ATOM     19  HN  UNL     1       5.096  -1.178  20.750  1.00  0.00     0.190 HD
BRANCH  18  20
HETATM   20  S   UNL     1       6.395   0.416  19.763  1.00  0.00     0.327 S 
HETATM   21 CL   UNL     1       5.656  -0.100  18.124  1.00  0.00     0.042 Cl
HETATM   22  O   UNL     1       5.706   1.630  20.136  1.00  0.00    -0.188 OA
HETATM   23  O   UNL     1       7.781   0.613  19.547  1.00  0.00    -0.188 OA
ENDBRANCH  18  20
ENDBRANCH  17  18
ENDBRANCH   1  16
BRANCH   1  24
HETATM   24  C   UNL     1      10.041  -1.897  23.090  1.00  0.00    -0.019 C 
HETATM   25  C   UNL     1       9.719  -1.152  24.495  1.00  0.00     0.025 C 
HETATM   26  C   UNL     1      10.992  -1.513  23.049  1.00  0.00     0.025 C 
ENDBRANCH   1  24
TORSDOF 4
ENDMDL
MODEL 6
REMARK VINA RESULT:    -6.649      4.492      7.723
REMARK INTER + INTRA:          -8.725
REMARK INTER:                  -8.257
REMARK INTRA:                  -0.469
REMARK UNBOUND:                -0.521
REMARK  4 active torsions:
REMARK  status: ('A' for Active; 'I' for Inactive)
REMARK    1  A    between atoms: S_2  and  N_5 
REMARK    2  A    between atoms: N_5  and  C_7 
REMARK    3  A    between atoms: C_8  and  C_9 
REMARK    4  A    between atoms: C_9  and  C_12 
REMARK       I    between atoms: N_13  and  C_15 
REMARK       I    between atoms: C_15  and  N_17 
ROOT
HETATM    1  C   UNL     1       9.214  -0.498  22.105  1.00  0.00     0.101 C 
HETATM    2  N   UNL     1       9.248  -1.589  22.649  1.00  0.00    -0.301 N 
ATOM      3  HN  UNL     1      10.226  -1.768  22.873  1.00  0.00     0.171 HD
HETATM    4  C   UNL     1       8.550  -2.670  23.086  1.00  0.00     0.326 C 
HETATM    5  O   UNL     1       8.921  -3.223  24.088  1.00  0.00    -0.247 OA
HETATM    6  N   UNL     1       7.502  -3.054  22.303  1.00  0.00    -0.293 N 
ATOM      7  HN  UNL     1       7.225  -2.544  21.465  1.00  0.00     0.172 HD
HETATM    8  C   UNL     1       6.872  -4.145  22.718  1.00  0.00     0.123 A 
HETATM    9  N   UNL     1       6.178  -4.282  23.830  1.00  0.00    -0.286 N 
ATOM     10  HN  UNL     1       6.144  -3.465  24.440  1.00  0.00     0.188 HD
HETATM   11  N   UNL     1       5.565  -5.277  24.225  1.00  0.00    -0.310 N 
ATOM     12  HN  UNL     1       5.008  -5.341  25.077  1.00  0.00     0.186 HD
HETATM   13  C   UNL     1       5.736  -6.123  23.456  1.00  0.00     0.107 A 
HETATM   14  C   UNL     1       6.315  -6.143  22.393  1.00  0.00     0.022 A 
HETATM   15  C   UNL     1       6.949  -5.279  21.786  1.00  0.00     0.051 A 
ENDROOT
BRANCH   1  16
HETATM   16  C   UNL     1       8.695  -0.233  20.897  1.00  0.00    -0.024 C 
HETATM   17  C   UNL     1       8.161   0.037  19.928  1.00  0.00     0.028 C 
BRANCH  17  18
HETATM   18  N   UNL     1       7.716   0.058  18.761  1.00  0.00    -0.229 N 
ATOM     19  HN  UNL     1       8.363  -0.004  17.975  1.00  0.00     0.190 HD
BRANCH  18  20
HETATM   20  S   UNL     1       6.147   0.181  18.480  1.00  0.00     0.327 S 
HETATM   21 CL   UNL     1       5.983   1.713  17.420  1.00  0.00     0.042 Cl
HETATM   22  O   UNL     1       5.671  -0.912  17.663  1.00  0.00    -0.188 OA
HETATM   23  O   UNL     1       5.353   0.391  19.635  1.00  0.00    -0.188 OA
ENDBRANCH  18  20
ENDBRANCH  17  18
ENDBRANCH   1  16
BRANCH   1  24
HETATM   24  C   UNL     1       9.725   0.510  23.066  1.00  0.00    -0.019 C 
HETATM   25  C   UNL     1      10.515   1.588  22.144  1.00  0.00     0.025 C 
HETATM   26  C   UNL     1      10.062   0.936  23.937  1.00  0.00     0.025 C 
ENDBRANCH   1  24
TORSDOF 4
ENDMDL
MODEL 7
REMARK VINA RESULT:    -6.307     15.724     17.846
REMARK INTER + INTRA:          -8.303
REMARK INTER:                  -7.695
REMARK INTRA:                  -0.609
REMARK UNBOUND:                -0.521
REMARK  4 active torsions:
REMARK  status: ('A' for Active; 'I' for Inactive)
REMARK    1  A    between atoms: S_2  and  N_5 
REMARK    2  A    between atoms: N_5  and  C_7 
REMARK    3  A    between atoms: C_8  and  C_9 
REMARK    4  A    between atoms: C_9  and  C_12 
REMARK       I    between atoms: N_13  and  C_15 
REMARK       I    between atoms: C_15  and  N_17 
ROOT
HETATM    1  C   UNL     1      24.070  -2.276  21.043  1.00  0.00     0.101 C 
HETATM    2  N   UNL     1      24.600  -3.247  21.554  1.00  0.00    -0.301 N 
ATOM      3  HN  UNL     1      25.142  -2.897  22.344  1.00  0.00     0.171 HD
HETATM    4  C   UNL     1      24.785  -4.594  21.532  1.00  0.00     0.326 C 
HETATM    5  O   UNL     1      24.900  -5.173  22.580  1.00  0.00    -0.247 OA
HETATM    6  N   UNL     1      24.866  -5.159  20.294  1.00  0.00    -0.293 N 
ATOM      7  HN  UNL     1      24.753  -4.622  19.434  1.00  0.00     0.172 HD
HETATM    8  C   UNL     1      25.103  -6.464  20.296  1.00  0.00     0.123 A 
HETATM    9  N   UNL     1      24.307  -7.412  20.750  1.00  0.00    -0.286 N 
ATOM     10  HN  UNL     1      23.427  -7.099  21.160  1.00  0.00     0.188 HD
HETATM   11  N   UNL     1      24.496  -8.630  20.741  1.00  0.00    -0.310 N 
ATOM     12  HN  UNL     1      23.844  -9.342  21.071  1.00  0.00     0.186 HD
HETATM   13  C   UNL     1      25.543  -8.820  20.293  1.00  0.00     0.107 A 
HETATM   14  C   UNL     1      26.366  -8.071  19.815  1.00  0.00     0.022 A 
HETATM   15  C   UNL     1      26.380  -6.847  19.678  1.00  0.00     0.051 A 
ENDROOT
BRANCH   1  16
HETATM   16  C   UNL     1      24.176  -1.904  19.757  1.00  0.00    -0.024 C 
HETATM   17  C   UNL     1      24.153  -1.625  18.654  1.00  0.00     0.028 C 
BRANCH  17  18
HETATM   18  N   UNL     1      24.441  -1.414  17.457  1.00  0.00    -0.229 N 
ATOM     19  HN  UNL     1      24.994  -0.593  17.211  1.00  0.00     0.190 HD
BRANCH  18  20
HETATM   20  S   UNL     1      23.954  -2.409  16.304  1.00  0.00     0.327 S 
HETATM   21 CL   UNL     1      24.385  -4.111  16.949  1.00  0.00     0.042 Cl
HETATM   22  O   UNL     1      22.516  -2.396  16.170  1.00  0.00    -0.188 OA
HETATM   23  O   UNL     1      24.626  -2.254  15.066  1.00  0.00    -0.188 OA
ENDBRANCH  18  20
ENDBRANCH  17  18
ENDBRANCH   1  16
BRANCH   1  24
HETATM   24  C   UNL     1      23.181  -1.652  22.052  1.00  0.00    -0.019 C 
HETATM   25  C   UNL     1      24.169  -0.734  22.955  1.00  0.00     0.025 C 
HETATM   26  C   UNL     1      22.386  -1.505  22.685  1.00  0.00     0.025 C 
ENDBRANCH   1  24
TORSDOF 4
ENDMDL
MODEL 8
REMARK VINA RESULT:    -6.272      3.593      4.745
REMARK INTER + INTRA:          -8.260
REMARK INTER:                  -7.739
REMARK INTRA:                  -0.521
REMARK UNBOUND:                -0.521
REMARK  4 active torsions:
REMARK  status: ('A' for Active; 'I' for Inactive)
REMARK    1  A    between atoms: S_2  and  N_5 
REMARK    2  A    between atoms: N_5  and  C_7 
REMARK    3  A    between atoms: C_8  and  C_9 
REMARK    4  A    between atoms: C_9  and  C_12 
REMARK       I    between atoms: N_13  and  C_15 
REMARK       I    between atoms: C_15  and  N_17 
ROOT
HETATM    1  C   UNL     1       3.961  -7.074  24.515  1.00  0.00     0.101 C 
HETATM    2  N   UNL     1       4.530  -6.607  23.542  1.00  0.00    -0.301 N 
ATOM      3  HN  UNL     1       4.625  -7.370  22.871  1.00  0.00     0.171 HD
HETATM    4  C   UNL     1       5.093  -5.515  22.961  1.00  0.00     0.326 C 
HETATM    5  O   UNL     1       4.986  -5.382  21.770  1.00  0.00    -0.247 OA
HETATM    6  N   UNL     1       5.773  -4.683  23.800  1.00  0.00    -0.293 N 
ATOM      7  HN  UNL     1       5.825  -4.839  24.807  1.00  0.00     0.172 HD
HETATM    8  C   UNL     1       6.361  -3.655  23.202  1.00  0.00     0.123 A 
HETATM    9  N   UNL     1       5.767  -2.655  22.584  1.00  0.00    -0.286 N 
ATOM     10  HN  UNL     1       4.748  -2.692  22.548  1.00  0.00     0.188 HD
HETATM   11  N   UNL     1       6.291  -1.678  22.043  1.00  0.00    -0.310 N 
ATOM     12  HN  UNL     1       5.801  -0.900  21.601  1.00  0.00     0.186 HD
HETATM   13  C   UNL     1       7.437  -1.802  22.128  1.00  0.00     0.107 A 
HETATM   14  C   UNL     1       8.120  -2.636  22.680  1.00  0.00     0.022 A 
HETATM   15  C   UNL     1       7.827  -3.655  23.307  1.00  0.00     0.051 A 
ENDROOT
BRANCH   1  16
HETATM   16  C   UNL     1       4.409  -7.045  25.780  1.00  0.00    -0.024 C 
HETATM   17  C   UNL     1       4.872  -6.946  26.815  1.00  0.00     0.028 C 
BRANCH  17  18
HETATM   18  N   UNL     1       5.292  -7.151  27.973  1.00  0.00    -0.229 N 
ATOM     19  HN  UNL     1       5.055  -8.023  28.447  1.00  0.00     0.190 HD
BRANCH  18  20
HETATM   20  S   UNL     1       6.196  -6.067  28.725  1.00  0.00     0.327 S 
HETATM   21 CL   UNL     1       6.432  -6.770  30.442  1.00  0.00     0.042 Cl
HETATM   22  O   UNL     1       7.519  -5.995  28.149  1.00  0.00    -0.188 OA
HETATM   23  O   UNL     1       5.591  -4.796  28.879  1.00  0.00    -0.188 OA
ENDBRANCH  18  20
ENDBRANCH  17  18
ENDBRANCH   1  16
BRANCH   1  24
HETATM   24  C   UNL     1       2.629  -7.558  24.080  1.00  0.00    -0.019 C 
HETATM   25  C   UNL     1       1.656  -6.267  24.231  1.00  0.00     0.025 C 
HETATM   26  C   UNL     1       1.842  -8.189  23.887  1.00  0.00     0.025 C 
ENDBRANCH   1  24
TORSDOF 4
ENDMDL
MODEL 9
REMARK VINA RESULT:    -6.108     14.575     16.429
REMARK INTER + INTRA:          -8.058
REMARK INTER:                  -7.606
REMARK INTRA:                  -0.452
REMARK UNBOUND:                -0.521
REMARK  4 active torsions:
REMARK  status: ('A' for Active; 'I' for Inactive)
REMARK    1  A    between atoms: S_2  and  N_5 
REMARK    2  A    between atoms: N_5  and  C_7 
REMARK    3  A    between atoms: C_8  and  C_9 
REMARK    4  A    between atoms: C_9  and  C_12 
REMARK       I    between atoms: N_13  and  C_15 
REMARK       I    between atoms: C_15  and  N_17 
ROOT
HETATM    1  C   UNL     1      25.119  -5.855  23.916  1.00  0.00     0.101 C 
HETATM    2  N   UNL     1      24.132  -5.623  24.594  1.00  0.00    -0.301 N 
ATOM      3  HN  UNL     1      23.666  -6.519  24.740  1.00  0.00     0.171 HD
HETATM    4  C   UNL     1      23.382  -4.693  25.241  1.00  0.00     0.326 C 
HETATM    5  O   UNL     1      22.836  -5.009  26.266  1.00  0.00    -0.247 OA
HETATM    6  N   UNL     1      23.287  -3.479  24.628  1.00  0.00    -0.293 N 
ATOM      7  HN  UNL     1      23.779  -3.260  23.761  1.00  0.00     0.172 HD
HETATM    8  C   UNL     1      22.504  -2.605  25.248  1.00  0.00     0.123 A 
HETATM    9  N   UNL     1      22.706  -2.065  26.433  1.00  0.00    -0.286 N 
ATOM     10  HN  UNL     1      23.543  -2.372  26.928  1.00  0.00     0.188 HD
HETATM   11  N   UNL     1      22.006  -1.235  27.017  1.00  0.00    -0.310 N 
ATOM     12  HN  UNL     1      22.207  -0.810  27.922  1.00  0.00     0.186 HD
HETATM   13  C   UNL     1      21.082  -1.026  26.356  1.00  0.00     0.107 A 
HETATM   14  C   UNL     1      20.775  -1.416  25.251  1.00  0.00     0.022 A 
HETATM   15  C   UNL     1      21.325  -2.195  24.472  1.00  0.00     0.051 A 
ENDROOT
BRANCH   1  16
HETATM   16  C   UNL     1      25.422  -5.280  22.742  1.00  0.00    -0.024 C 
HETATM   17  C   UNL     1      25.663  -4.688  21.800  1.00  0.00     0.028 C 
BRANCH  17  18
HETATM   18  N   UNL     1      25.781  -4.292  20.621  1.00  0.00    -0.229 N 
ATOM     19  HN  UNL     1      26.691  -3.977  20.286  1.00  0.00     0.190 HD
BRANCH  18  20
HETATM   20  S   UNL     1      24.526  -4.270  19.630  1.00  0.00     0.327 S 
HETATM   21 CL   UNL     1      25.261  -4.608  17.943  1.00  0.00     0.042 Cl
HETATM   22  O   UNL     1      23.629  -5.371  19.892  1.00  0.00    -0.188 OA
HETATM   23  O   UNL     1      23.860  -3.022  19.547  1.00  0.00    -0.188 OA
ENDBRANCH  18  20
ENDBRANCH  17  18
ENDBRANCH   1  16
BRANCH   1  24
HETATM   24  C   UNL     1      25.991  -6.782  24.675  1.00  0.00    -0.019 C 
HETATM   25  C   UNL     1      26.165  -8.070  23.702  1.00  0.00     0.025 C 
HETATM   26  C   UNL     1      26.453  -7.254  25.462  1.00  0.00     0.025 C 
ENDBRANCH   1  24
TORSDOF 4
ENDMDL
