stable:False satoms:11 tatoms:24 sratio:0.4583333333333333
  -OEChem-07092417413D

 24 24  0     1  0  0  0  0  0999 V2000
    6.4808   -5.0301   26.4556 Cl  0  0  0  0  0  0  0  0  0  0  0  0
    8.1895   -4.3720   26.0763 S   0  0  0  0  0  0  0  0  0  0  0  0
    9.0578   -5.5273   26.0586 O   0  0  0  0  0  0  0  0  0  0  0  0
    8.5163   -3.4522   27.1030 O   0  0  0  0  0  0  0  0  0  0  0  0
    8.0520   -3.7263   24.6200 N   0  0  0  0  0  0  0  0  0  0  0  0
    8.9184   -2.9409   24.1786 C   0  0  0  0  0  0  0  0  0  0  0  0
    9.4695   -2.0953   23.6536 C   0  0  0  0  0  0  0  0  0  0  0  0
   10.2254   -1.1878   23.0152 C   0  0  3  0  0  0  0  0  0  0  0  0
   11.4244    0.1962   24.4324 H   0  0  0  0  0  0  0  0  0  0  0  0
   12.2338   -0.0589   23.8717 C   0  5  0  0  0  0  0  0  0  0  0  0
   13.1884    0.2481   23.8562 H   0  0  0  0  0  0  0  0  0  0  0  0
   12.6346   -1.3872   22.4858 C   0  0  0  0  0  0  0  0  0  0  0  0
   11.7014   -1.2308   22.8826 C   0  0  0  0  0  0  0  0  0  0  0  0
    9.8132   -0.2508   22.3521 N   0  0  0  0  0  0  0  0  0  0  0  0
    9.0367    0.1629   21.3163 C   0  0  0  0  0  0  0  0  0  0  0  0
    9.4088    1.1018   20.6622 O   0  0  0  0  0  0  0  0  0  0  0  0
    7.8677   -0.5171   21.1440 N   0  0  0  0  0  0  0  0  0  0  0  0
    7.1005   -0.0590   20.1630 C   0  0  0  0  0  0  0  0  0  0  0  0
    7.3754   -0.0712   18.8743 N   0  0  0  0  0  0  0  0  0  0  0  0
    6.6694    0.3263   17.9437 N   0  0  0  0  0  0  0  0  0  0  0  0
    5.7048    0.7701   18.4001 C   0  0  0  0  0  0  0  0  0  0  0  0
    5.3032    0.8283   19.5415 C   0  0  0  0  0  0  0  0  0  0  0  0
    5.8021    0.4657   20.6070 C   0  0  0  0  0  0  0  0  0  0  0  0
    5.4100    0.5174   21.6028 H   0  0  0  0  0  0  0  0  0  0  0  0
 20 21  2  0  0  0  0
 19 20  1  0  0  0  0
 21 22  1  0  0  0  0
 18 19  2  0  0  0  0
 22 23  2  0  0  0  0
 18 23  1  0  0  0  0
 17 18  1  0  0  0  0
 23 24  1  0  0  0  0
 15 16  2  0  0  0  0
 15 17  1  0  0  0  0
 14 15  1  0  0  0  0
  8 14  1  0  0  0  0
 12 13  2  0  0  0  0
  8 13  1  0  0  0  0
 10 13  1  0  0  0  0
  7  8  1  0  0  0  0
  6  7  3  0  0  0  0
 10 11  1  0  0  0  0
  9 10  1  0  0  0  0
  5  6  1  0  0  0  0
  2  5  1  0  0  0  0
  2  3  2  0  0  0  0
  1  2  1  0  0  0  0
  2  4  2  0  0  0  0
M  CHG  1  10  -1
M  END
> <Shapegauss>
-259.220337

$$$$
