REMARK  4 active torsions:
REMARK  status: ('A' for Active; 'I' for Inactive)
REMARK    1  A    between atoms: S_2  and  N_5 
REMARK    2  A    between atoms: N_5  and  C_7 
REMARK    3  A    between atoms: C_8  and  C_9 
REMARK    4  A    between atoms: C_9  and  C_12 
REMARK       I    between atoms: N_13  and  C_15 
REMARK       I    between atoms: C_15  and  N_17 
ROOT
HETATM    1  C   UNL     1      10.225  -1.188  23.015  1.00  0.00     0.101 C 
HETATM    2  N   UNL     1       9.813  -0.251  22.352  1.00  0.00    -0.301 N 
ATOM      3  HN  UNL     1      10.235   0.589  22.748  1.00  0.00     0.171 HD
HETATM    4  C   UNL     1       9.037   0.163  21.316  1.00  0.00     0.326 C 
HETATM    5  O   UNL     1       9.409   1.102  20.662  1.00  0.00    -0.247 OA
HETATM    6  N   UNL     1       7.868  -0.517  21.144  1.00  0.00    -0.293 N 
ATOM      7  HN  UNL     1       7.604  -1.314  21.723  1.00  0.00     0.172 HD
HETATM    8  C   UNL     1       7.101  -0.059  20.163  1.00  0.00     0.123 A 
HETATM    9  N   UNL     1       7.375  -0.071  18.874  1.00  0.00    -0.286 N 
ATOM     10  HN  UNL     1       8.283  -0.456  18.613  1.00  0.00     0.188 HD
HETATM   11  N   UNL     1       6.669   0.326  17.944  1.00  0.00    -0.310 N 
ATOM     12  HN  UNL     1       6.896   0.272  16.951  1.00  0.00     0.186 HD
HETATM   13  C   UNL     1       5.705   0.770  18.400  1.00  0.00     0.107 A 
HETATM   14  C   UNL     1       5.303   0.828  19.541  1.00  0.00     0.022 A 
HETATM   15  C   UNL     1       5.802   0.466  20.607  1.00  0.00     0.051 A 
ENDROOT
BRANCH   1  16
HETATM   16  C   UNL     1       9.470  -2.095  23.654  1.00  0.00    -0.024 C 
HETATM   17  C   UNL     1       8.918  -2.941  24.179  1.00  0.00     0.028 C 
BRANCH  17  18
HETATM   18  N   UNL     1       8.052  -3.726  24.620  1.00  0.00    -0.229 N 
ATOM     19  HN  UNL     1       7.244  -3.958  24.042  1.00  0.00     0.190 HD
BRANCH  18  20
HETATM   20  S   UNL     1       8.190  -4.372  26.076  1.00  0.00     0.327 S 
HETATM   21 CL   UNL     1       6.481  -5.030  26.456  1.00  0.00     0.042 Cl
HETATM   22  O   UNL     1       9.058  -5.527  26.059  1.00  0.00    -0.188 OA
HETATM   23  O   UNL     1       8.516  -3.452  27.103  1.00  0.00    -0.188 OA
ENDBRANCH  18  20
ENDBRANCH  17  18
ENDBRANCH   1  16
BRANCH   1  24
HETATM   24  C   UNL     1      11.701  -1.231  22.883  1.00  0.00    -0.019 C 
HETATM   25  C   UNL     1      12.234  -0.059  23.872  1.00  0.00     0.025 C 
HETATM   26  C   UNL     1      12.635  -1.387  22.486  1.00  0.00     0.025 C 
ENDBRANCH   1  24
TORSDOF 4
