stable:False satoms:15 tatoms:24 sratio:0.625
  -OEChem-08062405353D

 32 31  0     1  0  0  0  0  0999 V2000
   -7.1183   -4.3669  -26.7094 H   0  0  0  0  0  0  0  0  0  0  0  0
   -8.2024   -4.1945  -26.4709 C   0  0  0  0  0  0  0  0  0  0  0  0
   -8.7424   -5.1458  -26.6462 H   0  0  0  0  0  0  0  0  0  0  0  0
   -8.6291   -3.4466  -27.1640 H   0  0  0  0  0  0  0  0  0  0  0  0
   -8.2711   -3.7484  -25.1206 N   0  3  0  0  0  0  0  0  0  0  0  0
   -9.0867   -3.1222  -24.5479 C   0  0  0  0  0  0  0  0  0  0  0  0
   -8.7310   -1.0793  -22.5900 N   0  3  0  0  0  0  0  0  0  0  0  0
  -11.1504   -1.1819  -22.5697 C   0  0  0  0  0  0  0  0  0  0  0  0
  -10.0213   -1.4659  -23.0013 C   0  0  0  0  0  0  0  0  0  0  0  0
  -12.8056   -0.7769  -23.6238 H   0  0  0  0  0  0  0  0  0  0  0  0
  -12.4528   -1.5336  -22.9161 C   0  0  0  0  0  0  0  0  0  0  0  0
  -13.1110   -1.6007  -22.0896 H   0  0  0  0  0  0  0  0  0  0  0  0
  -12.3380   -2.5440  -23.3326 H   0  0  0  0  0  0  0  0  0  0  0  0
   -9.7568   -2.3778  -23.8659 C   0  0  0  0  0  0  0  0  0  0  0  0
   -9.9984   -0.3456  -21.1714 H   0  0  0  0  0  0  0  0  0  0  0  0
   -9.2776    0.0822  -20.6825 O   0  0  0  0  0  0  0  0  0  0  0  0
   -8.3652   -0.4139  -21.4985 C   0  0  3  0  0  0  0  0  0  0  0  0
   -6.8800   -0.0238  -20.0581 C   0  0  0  0  0  0  0  0  0  0  0  0
   -6.5063    0.0144  -18.9002 C   0  0  0  0  0  0  0  0  0  0  0  0
   -5.6886    0.1002  -17.1685 H   0  0  0  0  0  0  0  0  0  0  0  0
   -5.7373    0.3686  -18.1736 C   0  0  0  0  0  0  0  0  0  0  0  0
   -4.7156    1.3024  -19.0305 Cl  0  0  0  0  0  0  0  0  0  0  0  0
   -7.0093    0.0855  -21.1870 C   0  0  0  0  0  0  0  0  0  0  0  0
   -6.2830    0.5523  -21.7820 H   0  0  0  0  0  0  0  0  0  0  0  0
   -7.4352   -3.2118  -25.0049 H   0  0  0  0  0  0  0  0  0  0  0  0
   -8.3844   -0.5251  -23.3468 H   0  0  0  0  0  0  0  0  0  0  0  0
  -11.1141   -0.5040  -21.7297 H   0  0  0  0  0  0  0  0  0  0  0  0
   -8.2314   -1.3290  -20.9030 H   0  0  0  0  0  0  0  0  0  0  0  0
   -7.7714   -0.6083  -19.8844 H   0  0  0  0  0  0  0  0  0  0  0  0
   -7.2384   -0.5337  -18.3257 H   0  0  0  0  0  0  0  0  0  0  0  0
   -8.2021   -4.5919  -24.5880 H   0  0  0  0  0  0  0  0  0  0  0  0
   -8.2180   -1.9364  -22.5422 H   0  0  0  0  0  0  0  0  0  0  0  0
 20 21  1  0  0  0  0
 19 21  2  0  0  0  0
 21 22  1  0  0  0  0
 18 19  1  0  0  0  0
 18 23  2  0  0  0  0
 15 16  1  0  0  0  0
 16 17  1  0  0  0  0
 17 23  1  0  0  0  0
 23 24  1  0  0  0  0
  7 17  1  0  0  0  0
  7  9  1  0  0  0  0
 11 12  1  0  0  0  0
  8  9  2  0  0  0  0
  8 11  1  0  0  0  0
  9 14  1  0  0  0  0
 11 13  1  0  0  0  0
 10 11  1  0  0  0  0
  6 14  3  0  0  0  0
  5  6  1  0  0  0  0
  2  5  1  0  0  0  0
  1  2  1  0  0  0  0
  2  3  1  0  0  0  0
  2  4  1  0  0  0  0
  5 25  1  0  0  0  0
  7 26  1  0  0  0  0
  8 27  1  0  0  0  0
 17 28  1  0  0  0  0
 18 29  1  0  0  0  0
 19 30  1  0  0  0  0
  5 31  1  0  0  0  0
  7 32  1  0  0  0  0
M  CHG  2   5   1   7   1
M  END
> <Chemgauss4>
-6.516942

$$$$
