stable:False satoms:15 tatoms:24 sratio:0.625
  -OEChem-08062405353D

 32 31  0     1  0  0  0  0  0999 V2000
   10.8910    6.5201   23.0598 H   0  0  0  0  0  0  0  0  0  0  0  0
   11.4976    5.7329   23.5832 C   0  0  0  0  0  0  0  0  0  0  0  0
   11.6637    6.0713   24.6249 H   0  0  0  0  0  0  0  0  0  0  0  0
   12.4920    5.6424   23.1090 H   0  0  0  0  0  0  0  0  0  0  0  0
   10.7692    4.5126   23.4968 N   0  3  0  0  0  0  0  0  0  0  0  0
   11.1190    3.3907   23.5601 C   0  0  0  0  0  0  0  0  0  0  0  0
   10.2157    1.1430   22.0550 N   0  3  0  0  0  0  0  0  0  0  0  0
   11.7599   -0.0042   23.5261 C   0  0  0  0  0  0  0  0  0  0  0  0
   11.2187    0.9988   23.0331 C   0  0  0  0  0  0  0  0  0  0  0  0
   13.6966   -0.2665   23.9682 H   0  0  0  0  0  0  0  0  0  0  0  0
   12.7380   -0.2181   24.4943 C   0  0  0  0  0  0  0  0  0  0  0  0
   12.5871   -1.0957   25.0669 H   0  0  0  0  0  0  0  0  0  0  0  0
   12.6183    0.6425   25.1670 H   0  0  0  0  0  0  0  0  0  0  0  0
   11.3372    2.2026   23.4643 C   0  0  0  0  0  0  0  0  0  0  0  0
   10.3224   -0.8571   22.4361 H   0  0  0  0  0  0  0  0  0  0  0  0
    9.6545   -1.0676   21.7645 O   0  0  0  0  0  0  0  0  0  0  0  0
    9.4486    0.2098   21.4996 C   0  0  3  0  0  0  0  0  0  0  0  0
    7.6187   -0.2859   20.5838 C   0  0  0  0  0  0  0  0  0  0  0  0
    6.5979   -0.9474   20.5381 C   0  0  0  0  0  0  0  0  0  0  0  0
    4.9103   -1.8247   20.2984 H   0  0  0  0  0  0  0  0  0  0  0  0
    5.7128   -1.2668   19.9386 C   0  0  0  0  0  0  0  0  0  0  0  0
    5.9263   -0.6250   18.4578 Cl  0  0  0  0  0  0  0  0  0  0  0  0
    8.5068    0.4006   20.3764 C   0  0  0  0  0  0  0  0  0  0  0  0
    8.5850    0.9458   19.4841 H   0  0  0  0  0  0  0  0  0  0  0  0
   10.3146    4.5698   22.6079 H   0  0  0  0  0  0  0  0  0  0  0  0
   10.6820    1.5737   21.2823 H   0  0  0  0  0  0  0  0  0  0  0  0
   11.3845   -0.9257   23.1061 H   0  0  0  0  0  0  0  0  0  0  0  0
    8.6590    0.3105   22.2588 H   0  0  0  0  0  0  0  0  0  0  0  0
    7.8974   -0.5524   21.5926 H   0  0  0  0  0  0  0  0  0  0  0  0
    6.5111   -1.4400   21.4953 H   0  0  0  0  0  0  0  0  0  0  0  0
   10.0882    4.5905   24.2250 H   0  0  0  0  0  0  0  0  0  0  0  0
    9.5681    1.7905   22.4566 H   0  0  0  0  0  0  0  0  0  0  0  0
 20 21  1  0  0  0  0
 19 21  2  0  0  0  0
 21 22  1  0  0  0  0
 18 19  1  0  0  0  0
 18 23  2  0  0  0  0
 15 16  1  0  0  0  0
 16 17  1  0  0  0  0
 17 23  1  0  0  0  0
 23 24  1  0  0  0  0
  7 17  1  0  0  0  0
  7  9  1  0  0  0  0
 11 12  1  0  0  0  0
  8  9  2  0  0  0  0
  8 11  1  0  0  0  0
  9 14  1  0  0  0  0
 11 13  1  0  0  0  0
 10 11  1  0  0  0  0
  6 14  3  0  0  0  0
  5  6  1  0  0  0  0
  2  5  1  0  0  0  0
  1  2  1  0  0  0  0
  2  3  1  0  0  0  0
  2  4  1  0  0  0  0
  5 25  1  0  0  0  0
  7 26  1  0  0  0  0
  8 27  1  0  0  0  0
 17 28  1  0  0  0  0
 18 29  1  0  0  0  0
 19 30  1  0  0  0  0
  5 31  1  0  0  0  0
  7 32  1  0  0  0  0
M  CHG  2   5   1   7   1
M  END
> <Chemgauss4>
-6.949920

$$$$
