stable:False satoms:14 tatoms:24 sratio:0.5833333333333334
  -OEChem-08062408323D

 32 32  0     0  0  0  0  0  0999 V2000
   -5.8968   -5.3820  -24.6155 H   0  0  0  0  0  0  0  0  0  0  0  0
   -5.4456   -4.7317  -23.8479 C   0  0  0  0  0  0  0  0  0  0  0  0
   -4.3821   -4.5919  -24.0740 H   0  0  0  0  0  0  0  0  0  0  0  0
   -5.5146   -5.2073  -22.8594 H   0  0  0  0  0  0  0  0  0  0  0  0
   -6.1213   -3.5181  -23.9201 N   0  3  0  0  0  0  0  0  0  0  0  0
   -6.1590   -2.7699  -22.9719 C   0  0  0  0  0  0  0  0  0  0  0  0
   -6.1609   -2.0007  -22.1575 C   0  0  0  0  0  0  0  0  0  0  0  0
   -6.6833   -0.6992  -20.6271 C   0  0  0  0  0  0  0  0  0  0  0  0
   -6.1038   -0.4355  -19.2829 C   0  0  0  0  0  0  0  0  0  0  0  0
   -5.8215   -1.3420  -18.8118 H   0  0  0  0  0  0  0  0  0  0  0  0
   -6.7103    0.0965  -18.5941 H   0  0  0  0  0  0  0  0  0  0  0  0
   -5.2716    0.2352  -19.5063 H   0  0  0  0  0  0  0  0  0  0  0  0
   -5.7808   -1.1119  -21.4289 N   0  3  0  0  0  0  0  0  0  0  0  0
   -7.8793   -0.4804  -21.0548 N   0  0  0  0  0  0  0  0  0  0  0  0
   -8.9160    0.1976  -21.4219 C   0  0  0  0  0  0  0  0  0  0  0  0
   -9.5359    0.9479  -20.7108 O   0  0  0  0  0  0  0  0  0  0  0  0
   -9.3510    0.0456  -22.7443 N   0  0  0  0  0  0  0  0  0  0  0  0
  -10.4500    0.3233  -23.1580 C   0  0  0  0  0  0  0  0  0  0  0  0
  -10.8367    1.5719  -23.5171 N   0  0  0  0  0  0  0  0  0  0  0  0
  -11.9298    1.7766  -24.1220 N   0  3  0  0  0  0  0  0  0  0  0  0
  -12.5019    2.4196  -23.6128 H   0  0  0  0  0  0  0  0  0  0  0  0
  -12.4550    0.6761  -24.1724 C   0  0  0  0  0  0  0  0  0  0  0  0
  -12.2222   -0.4278  -23.9046 C   0  0  0  0  0  0  0  0  0  0  0  0
  -11.3835   -1.3122  -23.2044 S   0  0  0  0  0  0  0  0  0  0  0  0
   -7.0702   -3.7340  -24.1498 H   0  0  0  0  0  0  0  0  0  0  0  0
   -8.2100   -1.4158  -21.1806 H   0  0  0  0  0  0  0  0  0  0  0  0
   -8.6949   -0.3247  -23.4019 H   0  0  0  0  0  0  0  0  0  0  0  0
  -13.4440    0.7549  -24.5991 H   0  0  0  0  0  0  0  0  0  0  0  0
  -12.9640   -1.0327  -24.4049 H   0  0  0  0  0  0  0  0  0  0  0  0
   -5.7050   -3.0050  -24.6708 H   0  0  0  0  0  0  0  0  0  0  0  0
   -4.8533   -0.7389  -21.4530 H   0  0  0  0  0  0  0  0  0  0  0  0
  -11.7648    2.1332  -25.0416 H   0  0  0  0  0  0  0  0  0  0  0  0
 20 21  1  0  0  0  0
 19 20  1  0  0  0  0
 20 22  1  0  0  0  0
 18 19  2  0  0  0  0
 22 23  2  0  0  0  0
 23 24  1  0  0  0  0
 17 18  1  0  0  0  0
 18 24  1  0  0  0  0
 15 16  2  0  0  0  0
 15 17  1  0  0  0  0
 14 15  1  0  0  0  0
  8 14  1  0  0  0  0
  9 12  1  0  0  0  0
  8 13  2  3  0  0  0
  8  9  1  0  0  0  0
  9 11  1  0  0  0  0
  7 13  1  0  0  0  0
  9 10  1  0  0  0  0
  6  7  3  0  0  0  0
  5  6  1  0  0  0  0
  2  5  1  0  0  0  0
  2  3  1  0  0  0  0
  1  2  1  0  0  0  0
  2  4  1  0  0  0  0
  5 25  1  0  0  0  0
 14 26  1  0  0  0  0
 17 27  1  0  0  0  0
 22 28  1  0  0  0  0
 23 29  1  0  0  0  0
  5 30  1  0  0  0  0
 13 31  1  0  0  0  0
 20 32  1  0  0  0  0
M  CHG  3   5   1  13   1  20   1
M  END
> <Chemgauss4>
-7.021481

$$$$
