stable:False satoms:14 tatoms:24 sratio:0.5833333333333334
  -OEChem-08062408323D

 32 32  0     0  0  0  0  0  0999 V2000
    5.2705    0.7187   19.8632 H   0  0  0  0  0  0  0  0  0  0  0  0
    6.1225    0.0236   19.9437 C   0  0  0  0  0  0  0  0  0  0  0  0
    6.2772   -0.4699   18.9771 H   0  0  0  0  0  0  0  0  0  0  0  0
    5.9052   -0.7587   20.6844 H   0  0  0  0  0  0  0  0  0  0  0  0
    7.2280    0.7999   20.2753 N   0  3  0  0  0  0  0  0  0  0  0  0
    8.1845    0.3144   20.8314 C   0  0  0  0  0  0  0  0  0  0  0  0
    9.1306   -0.0926   21.2722 C   0  0  0  0  0  0  0  0  0  0  0  0
   10.7323   -0.5547   22.5092 C   0  0  0  0  0  0  0  0  0  0  0  0
   11.3642   -1.8413   22.9061 C   0  0  0  0  0  0  0  0  0  0  0  0
   10.6268   -2.5787   23.0952 H   0  0  0  0  0  0  0  0  0  0  0  0
   12.0066   -1.8209   23.7501 H   0  0  0  0  0  0  0  0  0  0  0  0
   12.0157   -2.0618   22.0580 H   0  0  0  0  0  0  0  0  0  0  0  0
   10.1982   -0.6573   21.3551 N   0  3  0  0  0  0  0  0  0  0  0  0
   10.7509    0.5824   23.1159 N   0  0  0  0  0  0  0  0  0  0  0  0
   11.2396    1.6802   23.5903 C   0  0  0  0  0  0  0  0  0  0  0  0
   12.0974    1.7445   24.4347 O   0  0  0  0  0  0  0  0  0  0  0  0
   10.7313    2.8836   23.0856 N   0  0  0  0  0  0  0  0  0  0  0  0
   10.8173    3.9614   23.6213 C   0  0  0  0  0  0  0  0  0  0  0  0
   11.9057    4.7659   23.5455 N   0  0  0  0  0  0  0  0  0  0  0  0
   11.8738    5.9612   23.9618 N   0  3  0  0  0  0  0  0  0  0  0  0
   12.5809    6.1153   24.6519 H   0  0  0  0  0  0  0  0  0  0  0  0
   10.7608    6.0794   24.4485 C   0  0  0  0  0  0  0  0  0  0  0  0
    9.7785    5.4747   24.5662 C   0  0  0  0  0  0  0  0  0  0  0  0
    9.1596    4.2157   24.4788 S   0  0  0  0  0  0  0  0  0  0  0  0
    6.8940    1.5311   20.8701 H   0  0  0  0  0  0  0  0  0  0  0  0
    9.7926    0.6678   23.3885 H   0  0  0  0  0  0  0  0  0  0  0  0
   10.2565    2.8465   22.2062 H   0  0  0  0  0  0  0  0  0  0  0  0
   10.6594    7.0484   24.9144 H   0  0  0  0  0  0  0  0  0  0  0  0
    9.0163    6.1757   24.8728 H   0  0  0  0  0  0  0  0  0  0  0  0
    7.5657    1.1937   19.4204 H   0  0  0  0  0  0  0  0  0  0  0  0
   10.6188   -1.1539   20.5958 H   0  0  0  0  0  0  0  0  0  0  0  0
   12.0003    6.6034   23.2058 H   0  0  0  0  0  0  0  0  0  0  0  0
 20 21  1  0  0  0  0
 19 20  1  0  0  0  0
 20 22  1  0  0  0  0
 18 19  2  0  0  0  0
 22 23  2  0  0  0  0
 23 24  1  0  0  0  0
 17 18  1  0  0  0  0
 18 24  1  0  0  0  0
 15 16  2  0  0  0  0
 15 17  1  0  0  0  0
 14 15  1  0  0  0  0
  8 14  1  0  0  0  0
  9 12  1  0  0  0  0
  8 13  2  3  0  0  0
  8  9  1  0  0  0  0
  9 11  1  0  0  0  0
  7 13  1  0  0  0  0
  9 10  1  0  0  0  0
  6  7  3  0  0  0  0
  5  6  1  0  0  0  0
  2  5  1  0  0  0  0
  2  3  1  0  0  0  0
  1  2  1  0  0  0  0
  2  4  1  0  0  0  0
  5 25  1  0  0  0  0
 14 26  1  0  0  0  0
 17 27  1  0  0  0  0
 22 28  1  0  0  0  0
 23 29  1  0  0  0  0
  5 30  1  0  0  0  0
 13 31  1  0  0  0  0
 20 32  1  0  0  0  0
M  CHG  3   5   1  13   1  20   1
M  END
> <Chemgauss4>
-7.261385

$$$$
