stable:False satoms:9 tatoms:24 sratio:0.375
  -OEChem-07092417483D

 24 25  0     1  0  0  0  0  0999 V2000
    6.6016   -4.8706   26.4445 C   0  0  0  0  0  0  0  0  0  0  0  0
    8.1992   -4.3117   26.0989 S   0  0  0  0  0  0  0  0  0  0  0  0
    9.0770   -5.4458   26.0671 O   0  0  0  0  0  0  0  0  0  0  0  0
    8.5716   -3.3958   27.1430 O   0  0  0  0  0  0  0  0  0  0  0  0
    8.1107   -3.5913   24.6696 N   0  0  0  0  0  0  0  0  0  0  0  0
    8.9907   -2.9595   24.1385 C   0  0  0  0  0  0  0  0  0  0  0  0
    9.4210   -1.9944   23.4961 C   0  0  0  0  0  0  0  0  0  0  0  0
   10.3022   -1.1284   23.2396 C   0  0  1  0  0  0  0  0  0  0  0  0
   11.0542    0.0473   24.3234 C   0  0  0  0  0  0  0  0  0  0  0  0
   12.0370    0.3017   24.3018 C   0  0  0  0  0  0  0  0  0  0  0  0
   13.1985   -0.2389   23.4324 C   0  0  0  0  0  0  0  0  0  0  0  0
   12.7412   -1.2452   22.6651 C   0  0  0  0  0  0  0  0  0  0  0  0
   11.7928   -1.7359   22.5062 C   0  0  0  0  0  0  0  0  0  0  0  0
    9.7393   -0.5991   22.3439 C   0  0  0  0  0  0  0  0  0  0  0  0
    9.0600    0.0366   21.3749 C   0  0  0  0  0  0  0  0  0  0  0  0
    9.5437    0.9566   20.9696 O   0  0  0  0  0  0  0  0  0  0  0  0
    7.9409   -0.5552   21.0735 N   0  0  0  0  0  0  0  0  0  0  0  0
    7.2243   -0.0990   20.1706 C   0  0  0  0  0  0  0  0  0  0  0  0
    7.2100    0.0159   18.8867 C   0  0  0  0  0  0  0  0  0  0  0  0
    6.7775    0.3138   17.7720 N   0  0  0  0  0  0  0  0  0  0  0  0
    5.6479    0.8756   18.2447 C   0  0  0  0  0  0  0  0  0  0  0  0
    5.2201    1.0177   19.4010 C   0  0  0  0  0  0  0  0  0  0  0  0
    5.7960    0.5939   20.5596 C   0  0  0  0  0  0  0  0  0  0  0  0
    5.3269    0.7216   21.9741 C   0  0  0  0  0  0  0  0  0  0  0  0
 20 21  2  0  0  0  0
 19 20  1  0  0  0  0
 21 22  1  0  0  0  0
 18 19  2  0  0  0  0
 22 23  2  0  0  0  0
 18 23  1  0  0  0  0
 17 18  1  0  0  0  0
 23 24  1  0  0  0  0
 15 16  2  0  0  0  0
 15 17  1  0  0  0  0
 14 15  1  0  0  0  0
  8 14  1  0  0  0  0
 12 13  1  0  0  0  0
  8 13  1  0  0  0  0
 11 12  2  0  0  0  0
  7  8  1  0  0  0  0
  8  9  1  0  0  0  0
 10 11  1  0  0  0  0
  6  7  2  3  0  0  0
  5  6  1  0  0  0  0
  9 10  2  0  0  0  0
  2  5  1  0  0  0  0
  2  3  2  0  0  0  0
  1  2  1  0  0  0  0
  2  4  2  0  0  0  0
M  END
> <Shapegauss>
-286.699585

$$$$
