MODEL 1
REMARK VINA RESULT:    -7.299      0.000      0.000
REMARK INTER + INTRA:         -11.022
REMARK INTER:                  -9.860
REMARK INTRA:                  -1.163
REMARK UNBOUND:                -1.163
REMARK  6 active torsions:
REMARK  status: ('A' for Active; 'I' for Inactive)
REMARK    1  A    between atoms: S_2  and  N_5 
REMARK    2  A    between atoms: N_5  and  C_7 
REMARK    3  A    between atoms: C_8  and  C_9 
REMARK    4  A    between atoms: C_9  and  C_15 
REMARK    5  A    between atoms: C_15  and  C_16 
REMARK       I    between atoms: C_16  and  N_18 
REMARK    6  A    between atoms: N_18  and  C_20 
ROOT
HETATM    1  C   UNL     1       9.370  -1.522  23.275  1.00  0.00     0.075 C 
HETATM    2  C   UNL     1       9.239  -0.496  24.707  1.00  0.00    -0.000 C 
HETATM    3  C   UNL     1      10.003   0.045  25.099  1.00  0.00    -0.025 C 
HETATM    4  C   UNL     1      11.492   0.133  24.681  1.00  0.00     0.054 C 
HETATM    5  C   UNL     1      11.717  -0.729  23.673  1.00  0.00    -0.025 C 
HETATM    6  C   UNL     1      11.129  -1.429  23.099  1.00  0.00    -0.000 C 
ENDROOT
BRANCH   1   7
HETATM    7  C   UNL     1       8.854  -2.652  23.058  1.00  0.00     0.021 C 
HETATM    8  C   UNL     1       7.983  -3.511  23.245  1.00  0.00     0.098 C 
BRANCH   8   9
HETATM    9  N   UNL     1       7.249  -4.395  22.879  1.00  0.00    -0.296 N 
ATOM     10  HN  UNL     1       7.594  -5.350  22.966  1.00  0.00     0.177 HD
BRANCH   9  11
HETATM   11  S   UNL     1       5.779  -4.206  22.267  1.00  0.00     0.226 S 
HETATM   12  C   UNL     1       4.781  -3.699  23.583  1.00  0.00     0.186 C 
HETATM   13  O   UNL     1       5.751  -3.184  21.260  1.00  0.00    -0.206 OA
HETATM   14  O   UNL     1       5.240  -5.442  21.767  1.00  0.00    -0.206 OA
ENDBRANCH   9  11
ENDBRANCH   8   9
ENDBRANCH   1   7
BRANCH   1  15
HETATM   15  C   UNL     1       8.959  -0.978  22.308  1.00  0.00    -0.061 C 
BRANCH  15  16
HETATM   16  C   UNL     1       8.431  -0.345  21.247  1.00  0.00     0.290 C 
HETATM   17  O   UNL     1       9.131   0.314  20.681  1.00  0.00    -0.259 OA
HETATM   18  N   UNL     1       7.175  -0.632  21.064  1.00  0.00    -0.315 N 
ATOM     19  HN  UNL     1       6.693  -1.254  21.712  1.00  0.00     0.170 HD
BRANCH  18  20
HETATM   20  C   UNL     1       6.564  -0.146  20.101  1.00  0.00     0.057 A 
HETATM   21  C   UNL     1       6.256  -0.436  18.883  1.00  0.00     0.117 A 
HETATM   22  N   UNL     1       5.741  -0.297  17.772  1.00  0.00    -0.373 N 
HETATM   23  C   UNL     1       5.224   0.916  18.047  1.00  0.00     0.088 A 
ATOM     24  HN  UNL     1       5.715  -0.888  16.942  1.00  0.00     0.164 HD
HETATM   25  C   UNL     1       5.262   1.615  19.072  1.00  0.00     0.026 A 
HETATM   26  C   UNL     1       5.844   1.311  20.266  1.00  0.00    -0.033 A 
HETATM   27  C   UNL     1       5.912   2.100  21.534  1.00  0.00     0.050 C 
ENDBRANCH  18  20
ENDBRANCH  15  16
ENDBRANCH   1  15
TORSDOF 6
ENDMDL
MODEL 2
REMARK VINA RESULT:    -7.021      2.661      5.976
REMARK INTER + INTRA:         -10.646
REMARK INTER:                  -9.725
REMARK INTRA:                  -0.921
REMARK UNBOUND:                -1.163
REMARK  6 active torsions:
REMARK  status: ('A' for Active; 'I' for Inactive)
REMARK    1  A    between atoms: S_2  and  N_5 
REMARK    2  A    between atoms: N_5  and  C_7 
REMARK    3  A    between atoms: C_8  and  C_9 
REMARK    4  A    between atoms: C_9  and  C_15 
REMARK    5  A    between atoms: C_15  and  C_16 
REMARK       I    between atoms: C_16  and  N_18 
REMARK    6  A    between atoms: N_18  and  C_20 
ROOT
HETATM    1  C   UNL     1       9.910  -0.759  23.622  1.00  0.00     0.075 C 
HETATM    2  C   UNL     1      11.306  -1.536  22.869  1.00  0.00    -0.000 C 
HETATM    3  C   UNL     1      12.271  -1.380  23.147  1.00  0.00    -0.025 C 
HETATM    4  C   UNL     1      12.870  -0.427  24.210  1.00  0.00     0.054 C 
HETATM    5  C   UNL     1      11.881   0.313  24.744  1.00  0.00    -0.025 C 
HETATM    6  C   UNL     1      10.811   0.387  24.625  1.00  0.00    -0.000 C 
ENDROOT
BRANCH   1   7
HETATM    7  C   UNL     1       8.862  -0.312  23.081  1.00  0.00     0.021 C 
HETATM    8  C   UNL     1       8.059  -0.246  22.143  1.00  0.00     0.098 C 
BRANCH   8   9
HETATM    9  N   UNL     1       6.948  -0.145  21.684  1.00  0.00    -0.296 N 
ATOM     10  HN  UNL     1       6.168  -0.236  22.334  1.00  0.00     0.177 HD
BRANCH   9  11
HETATM   11  S   UNL     1       6.584   0.119  20.145  1.00  0.00     0.226 S 
HETATM   12  C   UNL     1       5.590   1.531  20.130  1.00  0.00     0.186 C 
HETATM   13  O   UNL     1       7.757   0.384  19.362  1.00  0.00    -0.206 OA
HETATM   14  O   UNL     1       5.815  -0.957  19.580  1.00  0.00    -0.206 OA
ENDBRANCH   9  11
ENDBRANCH   8   9
ENDBRANCH   1   7
BRANCH   1  15
HETATM   15  C   UNL     1       9.384  -1.471  24.407  1.00  0.00    -0.061 C 
BRANCH  15  16
HETATM   16  C   UNL     1       8.730  -2.236  25.297  1.00  0.00     0.290 C 
HETATM   17  O   UNL     1       8.435  -1.728  26.245  1.00  0.00    -0.259 OA
HETATM   18  N   UNL     1       8.549  -3.454  24.877  1.00  0.00    -0.315 N 
ATOM     19  HN  UNL     1       8.917  -3.742  23.970  1.00  0.00     0.170 HD
BRANCH  18  20
HETATM   20  C   UNL     1       7.930  -4.265  25.580  1.00  0.00     0.057 A 
HETATM   21  C   UNL     1       8.141  -5.101  26.538  1.00  0.00     0.117 A 
HETATM   22  N   UNL     1       7.875  -5.939  27.402  1.00  0.00    -0.373 N 
HETATM   23  C   UNL     1       6.564  -5.993  27.094  1.00  0.00     0.088 A 
ATOM     24  HN  UNL     1       8.443  -6.420  28.099  1.00  0.00     0.164 HD
HETATM   25  C   UNL     1       5.892  -5.390  26.243  1.00  0.00     0.026 A 
HETATM   26  C   UNL     1       6.319  -4.440  25.365  1.00  0.00    -0.033 A 
HETATM   27  C   UNL     1       5.561  -3.672  24.331  1.00  0.00     0.050 C 
ENDBRANCH  18  20
ENDBRANCH  15  16
ENDBRANCH   1  15
TORSDOF 6
ENDMDL
MODEL 3
REMARK VINA RESULT:    -6.721      2.613      5.912
REMARK INTER + INTRA:         -10.242
REMARK INTER:                  -9.251
REMARK INTRA:                  -0.991
REMARK UNBOUND:                -1.163
REMARK  6 active torsions:
REMARK  status: ('A' for Active; 'I' for Inactive)
REMARK    1  A    between atoms: S_2  and  N_5 
REMARK    2  A    between atoms: N_5  and  C_7 
REMARK    3  A    between atoms: C_8  and  C_9 
REMARK    4  A    between atoms: C_9  and  C_15 
REMARK    5  A    between atoms: C_15  and  C_16 
REMARK       I    between atoms: C_16  and  N_18 
REMARK    6  A    between atoms: N_18  and  C_20 
ROOT
HETATM    1  C   UNL     1       7.771   0.258  20.905  1.00  0.00     0.075 C 
HETATM    2  C   UNL     1       6.446   1.396  21.167  1.00  0.00    -0.000 C 
HETATM    3  C   UNL     1       5.748   1.637  20.469  1.00  0.00    -0.025 C 
HETATM    4  C   UNL     1       5.610   1.196  18.991  1.00  0.00     0.054 C 
HETATM    5  C   UNL     1       6.664   0.428  18.661  1.00  0.00    -0.025 C 
HETATM    6  C   UNL     1       7.540   0.049  19.163  1.00  0.00    -0.000 C 
ENDROOT
BRANCH   1   7
HETATM    7  C   UNL     1       8.968   0.329  21.298  1.00  0.00     0.021 C 
HETATM    8  C   UNL     1       9.838   0.714  22.088  1.00  0.00     0.098 C 
BRANCH   8   9
HETATM    9  N   UNL     1      10.859   0.573  22.714  1.00  0.00    -0.296 N 
ATOM     10  HN  UNL     1      11.489   1.374  22.759  1.00  0.00     0.177 HD
BRANCH   9  11
HETATM   11  S   UNL     1      11.317  -0.757  23.483  1.00  0.00     0.226 S 
HETATM   12  C   UNL     1      12.808  -0.363  24.261  1.00  0.00     0.186 C 
HETATM   13  O   UNL     1      10.370  -1.140  24.490  1.00  0.00    -0.206 OA
HETATM   14  O   UNL     1      11.577  -1.842  22.575  1.00  0.00    -0.206 OA
ENDBRANCH   9  11
ENDBRANCH   8   9
ENDBRANCH   1   7
BRANCH   1  15
HETATM   15  C   UNL     1       7.526  -0.808  21.355  1.00  0.00    -0.061 C 
BRANCH  15  16
HETATM   16  C   UNL     1       7.312  -2.018  21.898  1.00  0.00     0.290 C 
HETATM   17  O   UNL     1       8.217  -2.537  22.295  1.00  0.00    -0.259 OA
HETATM   18  N   UNL     1       6.059  -2.369  21.869  1.00  0.00    -0.315 N 
ATOM     19  HN  UNL     1       5.367  -1.756  21.438  1.00  0.00     0.170 HD
BRANCH  18  20
HETATM   20  C   UNL     1       5.707  -3.448  22.366  1.00  0.00     0.057 A 
HETATM   21  C   UNL     1       5.585  -4.689  22.040  1.00  0.00     0.117 A 
HETATM   22  N   UNL     1       5.345  -5.889  22.185  1.00  0.00    -0.373 N 
HETATM   23  C   UNL     1       4.961  -5.765  23.470  1.00  0.00     0.088 A 
ATOM     24  HN  UNL     1       5.413  -6.690  21.557  1.00  0.00     0.164 HD
HETATM   25  C   UNL     1       4.894  -4.777  24.218  1.00  0.00     0.026 A 
HETATM   26  C   UNL     1       5.238  -3.491  23.931  1.00  0.00    -0.033 A 
HETATM   27  C   UNL     1       5.193  -2.266  24.787  1.00  0.00     0.050 C 
ENDBRANCH  18  20
ENDBRANCH  15  16
ENDBRANCH   1  15
TORSDOF 6
ENDMDL
MODEL 4
REMARK VINA RESULT:    -6.687      2.463      4.639
REMARK INTER + INTRA:         -10.195
REMARK INTER:                  -9.423
REMARK INTRA:                  -0.773
REMARK UNBOUND:                -1.163
REMARK  6 active torsions:
REMARK  status: ('A' for Active; 'I' for Inactive)
REMARK    1  A    between atoms: S_2  and  N_5 
REMARK    2  A    between atoms: N_5  and  C_7 
REMARK    3  A    between atoms: C_8  and  C_9 
REMARK    4  A    between atoms: C_9  and  C_15 
REMARK    5  A    between atoms: C_15  and  C_16 
REMARK       I    between atoms: C_16  and  N_18 
REMARK    6  A    between atoms: N_18  and  C_20 
ROOT
HETATM    1  C   UNL     1       7.486  -2.673  23.850  1.00  0.00     0.075 C 
HETATM    2  C   UNL     1       7.249  -4.388  23.502  1.00  0.00    -0.000 C 
HETATM    3  C   UNL     1       6.359  -4.872  23.575  1.00  0.00    -0.025 C 
HETATM    4  C   UNL     1       4.975  -4.365  24.050  1.00  0.00     0.054 C 
HETATM    5  C   UNL     1       5.092  -3.093  24.470  1.00  0.00    -0.025 C 
HETATM    6  C   UNL     1       5.886  -2.364  24.538  1.00  0.00    -0.000 C 
ENDROOT
BRANCH   1   7
HETATM    7  C   UNL     1       8.454  -2.106  24.429  1.00  0.00     0.021 C 
HETATM    8  C   UNL     1       9.564  -1.561  24.423  1.00  0.00     0.098 C 
BRANCH   8   9
HETATM    9  N   UNL     1      10.361  -0.741  24.809  1.00  0.00    -0.296 N 
ATOM     10  HN  UNL     1      10.218  -0.361  25.745  1.00  0.00     0.177 HD
BRANCH   9  11
HETATM   11  S   UNL     1      11.623  -0.195  23.986  1.00  0.00     0.226 S 
HETATM   12  C   UNL     1      12.108  -1.489  22.950  1.00  0.00     0.186 C 
HETATM   13  O   UNL     1      11.276   0.931  23.169  1.00  0.00    -0.206 OA
HETATM   14  O   UNL     1      12.736   0.110  24.845  1.00  0.00    -0.206 OA
ENDBRANCH   9  11
ENDBRANCH   8   9
ENDBRANCH   1   7
BRANCH   1  15
HETATM   15  C   UNL     1       7.500  -2.023  22.861  1.00  0.00    -0.061 C 
BRANCH  15  16
HETATM   16  C   UNL     1       7.467  -1.331  21.710  1.00  0.00     0.290 C 
HETATM   17  O   UNL     1       8.459  -1.015  21.308  1.00  0.00    -0.259 OA
HETATM   18  N   UNL     1       6.258  -1.159  21.261  1.00  0.00    -0.315 N 
ATOM     19  HN  UNL     1       5.461  -1.512  21.791  1.00  0.00     0.170 HD
BRANCH  18  20
HETATM   20  C   UNL     1       6.075  -0.566  20.189  1.00  0.00     0.057 A 
HETATM   21  C   UNL     1       5.936  -0.821  18.933  1.00  0.00     0.117 A 
HETATM   22  N   UNL     1       5.744  -0.596  17.736  1.00  0.00    -0.373 N 
HETATM   23  C   UNL     1       5.661   0.739  17.893  1.00  0.00     0.088 A 
ATOM     24  HN  UNL     1       5.674  -1.204  16.920  1.00  0.00     0.164 HD
HETATM   25  C   UNL     1       5.742   1.457  18.902  1.00  0.00     0.026 A 
HETATM   26  C   UNL     1       5.918   1.061  20.193  1.00  0.00    -0.033 A 
HETATM   27  C   UNL     1       6.011   1.871  21.447  1.00  0.00     0.050 C 
ENDBRANCH  18  20
ENDBRANCH  15  16
ENDBRANCH   1  15
TORSDOF 6
ENDMDL
MODEL 5
REMARK VINA RESULT:    -6.548      2.178      5.151
REMARK INTER + INTRA:         -10.007
REMARK INTER:                  -8.960
REMARK INTRA:                  -1.047
REMARK UNBOUND:                -1.163
REMARK  6 active torsions:
REMARK  status: ('A' for Active; 'I' for Inactive)
REMARK    1  A    between atoms: S_2  and  N_5 
REMARK    2  A    between atoms: N_5  and  C_7 
REMARK    3  A    between atoms: C_8  and  C_9 
REMARK    4  A    between atoms: C_9  and  C_15 
REMARK    5  A    between atoms: C_15  and  C_16 
REMARK       I    between atoms: C_16  and  N_18 
REMARK    6  A    between atoms: N_18  and  C_20 
ROOT
HETATM    1  C   UNL     1       9.151  -0.577  22.261  1.00  0.00     0.075 C 
HETATM    2  C   UNL     1      10.732  -1.357  22.371  1.00  0.00    -0.000 C 
HETATM    3  C   UNL     1      11.379  -1.238  23.145  1.00  0.00    -0.025 C 
HETATM    4  C   UNL     1      11.286  -0.345  24.406  1.00  0.00     0.054 C 
HETATM    5  C   UNL     1      10.167   0.397  24.338  1.00  0.00    -0.025 C 
HETATM    6  C   UNL     1       9.342   0.504  23.649  1.00  0.00    -0.000 C 
ENDROOT
BRANCH   1   7
HETATM    7  C   UNL     1       8.579  -0.081  21.251  1.00  0.00     0.021 C 
HETATM    8  C   UNL     1       8.334  -0.049  20.040  1.00  0.00     0.098 C 
BRANCH   8   9
HETATM    9  N   UNL     1       7.605   0.127  19.094  1.00  0.00    -0.296 N 
ATOM     10  HN  UNL     1       8.034   0.481  18.239  1.00  0.00     0.177 HD
BRANCH   9  11
HETATM   11  S   UNL     1       6.026  -0.143  19.059  1.00  0.00     0.226 S 
HETATM   12  C   UNL     1       5.289   1.270  19.724  1.00  0.00     0.186 C 
HETATM   13  O   UNL     1       5.547  -0.312  17.717  1.00  0.00    -0.206 OA
HETATM   14  O   UNL     1       5.651  -1.257  19.887  1.00  0.00    -0.206 OA
ENDBRANCH   9  11
ENDBRANCH   8   9
ENDBRANCH   1   7
BRANCH   1  15
HETATM   15  C   UNL     1       8.279  -1.307  22.587  1.00  0.00    -0.061 C 
BRANCH  15  16
HETATM   16  C   UNL     1       7.284  -2.157  22.888  1.00  0.00     0.290 C 
HETATM   17  O   UNL     1       6.307  -1.685  23.147  1.00  0.00    -0.259 OA
HETATM   18  N   UNL     1       7.648  -3.405  22.812  1.00  0.00    -0.315 N 
ATOM     19  HN  UNL     1       8.611  -3.642  22.574  1.00  0.00     0.170 HD
BRANCH  18  20
HETATM   20  C   UNL     1       6.824  -4.304  23.031  1.00  0.00     0.057 A 
HETATM   21  C   UNL     1       6.004  -5.065  22.392  1.00  0.00     0.117 A 
HETATM   22  N   UNL     1       5.165  -5.952  22.222  1.00  0.00    -0.373 N 
HETATM   23  C   UNL     1       5.067  -6.255  23.531  1.00  0.00     0.088 A 
ATOM     24  HN  UNL     1       4.708  -6.324  21.389  1.00  0.00     0.164 HD
HETATM   25  C   UNL     1       5.641  -5.791  24.529  1.00  0.00     0.026 A 
HETATM   26  C   UNL     1       6.596  -4.822  24.565  1.00  0.00    -0.033 A 
HETATM   27  C   UNL     1       7.332  -4.233  25.726  1.00  0.00     0.050 C 
ENDBRANCH  18  20
ENDBRANCH  15  16
ENDBRANCH   1  15
TORSDOF 6
ENDMDL
MODEL 6
REMARK VINA RESULT:    -6.480      3.690      6.153
REMARK INTER + INTRA:          -9.916
REMARK INTER:                  -9.226
REMARK INTRA:                  -0.690
REMARK UNBOUND:                -1.163
REMARK  6 active torsions:
REMARK  status: ('A' for Active; 'I' for Inactive)
REMARK    1  A    between atoms: S_2  and  N_5 
REMARK    2  A    between atoms: N_5  and  C_7 
REMARK    3  A    between atoms: C_8  and  C_9 
REMARK    4  A    between atoms: C_9  and  C_15 
REMARK    5  A    between atoms: C_15  and  C_16 
REMARK       I    between atoms: C_16  and  N_18 
REMARK    6  A    between atoms: N_18  and  C_20 
ROOT
HETATM    1  C   UNL     1       7.386  -5.009  24.109  1.00  0.00     0.075 C 
HETATM    2  C   UNL     1       7.640  -5.822  22.562  1.00  0.00    -0.000 C 
HETATM    3  C   UNL     1       6.961  -5.847  21.807  1.00  0.00    -0.025 C 
HETATM    4  C   UNL     1       5.519  -5.289  21.732  1.00  0.00     0.054 C 
HETATM    5  C   UNL     1       5.187  -4.767  22.927  1.00  0.00    -0.025 C 
HETATM    6  C   UNL     1       5.671  -4.636  23.882  1.00  0.00    -0.000 C 
ENDROOT
BRANCH   1   7
HETATM    7  C   UNL     1       7.721  -5.382  25.267  1.00  0.00     0.021 C 
HETATM    8  C   UNL     1       7.634  -5.331  26.499  1.00  0.00     0.098 C 
BRANCH   8   9
HETATM    9  N   UNL     1       7.635  -5.828  27.599  1.00  0.00    -0.296 N 
ATOM     10  HN  UNL     1       8.538  -6.113  27.977  1.00  0.00     0.177 HD
BRANCH   9  11
HETATM   11  S   UNL     1       6.347  -6.082  28.519  1.00  0.00     0.226 S 
HETATM   12  C   UNL     1       5.290  -4.748  28.230  1.00  0.00     0.186 C 
HETATM   13  O   UNL     1       5.663  -7.288  28.151  1.00  0.00    -0.206 OA
HETATM   14  O   UNL     1       6.676  -6.078  29.919  1.00  0.00    -0.206 OA
ENDBRANCH   9  11
ENDBRANCH   8   9
ENDBRANCH   1   7
BRANCH   1  15
HETATM   15  C   UNL     1       7.907  -3.947  24.135  1.00  0.00    -0.061 C 
BRANCH  15  16
HETATM   16  C   UNL     1       8.461  -2.727  24.224  1.00  0.00     0.290 C 
HETATM   17  O   UNL     1       7.959  -2.018  24.925  1.00  0.00    -0.259 OA
HETATM   18  N   UNL     1       9.512  -2.594  23.467  1.00  0.00    -0.315 N 
ATOM     19  HN  UNL     1       9.812  -3.365  22.871  1.00  0.00     0.170 HD
BRANCH  18  20
HETATM   20  C   UNL     1      10.147  -1.530  23.472  1.00  0.00     0.057 A 
HETATM   21  C   UNL     1      11.099  -0.954  24.124  1.00  0.00     0.117 A 
HETATM   22  N   UNL     1      11.919  -0.081  24.413  1.00  0.00    -0.373 N 
HETATM   23  C   UNL     1      11.515   0.766  23.446  1.00  0.00     0.088 A 
ATOM     24  HN  UNL     1      12.645  -0.022  25.127  1.00  0.00     0.164 HD
HETATM   25  C   UNL     1      10.631   0.667  22.581  1.00  0.00     0.026 A 
HETATM   26  C   UNL     1       9.811  -0.394  22.347  1.00  0.00    -0.033 A 
HETATM   27  C   UNL     1       8.742  -0.579  21.317  1.00  0.00     0.050 C 
ENDBRANCH  18  20
ENDBRANCH  15  16
ENDBRANCH   1  15
TORSDOF 6
ENDMDL
MODEL 7
REMARK VINA RESULT:    -6.319      2.265      2.608
REMARK INTER + INTRA:          -9.699
REMARK INTER:                  -8.642
REMARK INTRA:                  -1.057
REMARK UNBOUND:                -1.163
REMARK  6 active torsions:
REMARK  status: ('A' for Active; 'I' for Inactive)
REMARK    1  A    between atoms: S_2  and  N_5 
REMARK    2  A    between atoms: N_5  and  C_7 
REMARK    3  A    between atoms: C_8  and  C_9 
REMARK    4  A    between atoms: C_9  and  C_15 
REMARK    5  A    between atoms: C_15  and  C_16 
REMARK       I    between atoms: C_16  and  N_18 
REMARK    6  A    between atoms: N_18  and  C_20 
ROOT
HETATM    1  C   UNL     1       9.204   0.616  24.194  1.00  0.00     0.075 C 
HETATM    2  C   UNL     1       8.701   2.169  24.867  1.00  0.00    -0.000 C 
HETATM    3  C   UNL     1       9.145   3.058  24.657  1.00  0.00    -0.025 C 
HETATM    4  C   UNL     1      10.384   3.383  23.788  1.00  0.00     0.054 C 
HETATM    5  C   UNL     1      10.921   2.233  23.341  1.00  0.00    -0.025 C 
HETATM    6  C   UNL     1      10.695   1.181  23.427  1.00  0.00    -0.000 C 
ENDROOT
BRANCH   1   7
HETATM    7  C   UNL     1       9.267  -0.511  24.757  1.00  0.00     0.021 C 
HETATM    8  C   UNL     1       8.818  -1.383  25.511  1.00  0.00     0.098 C 
BRANCH   8   9
HETATM    9  N   UNL     1       8.617  -2.530  25.829  1.00  0.00    -0.296 N 
ATOM     10  HN  UNL     1       8.956  -2.822  26.745  1.00  0.00     0.177 HD
BRANCH   9  11
HETATM   11  S   UNL     1       7.866  -3.635  24.944  1.00  0.00     0.226 S 
HETATM   12  C   UNL     1       8.057  -5.128  25.792  1.00  0.00     0.186 C 
HETATM   13  O   UNL     1       6.463  -3.358  24.829  1.00  0.00    -0.206 OA
HETATM   14  O   UNL     1       8.473  -3.793  23.650  1.00  0.00    -0.206 OA
ENDBRANCH   9  11
ENDBRANCH   8   9
ENDBRANCH   1   7
BRANCH   1  15
HETATM   15  C   UNL     1       8.521   0.292  23.283  1.00  0.00    -0.061 C 
BRANCH  15  16
HETATM   16  C   UNL     1       7.738  -0.006  22.233  1.00  0.00     0.290 C 
HETATM   17  O   UNL     1       7.171  -0.963  22.309  1.00  0.00    -0.259 OA
HETATM   18  N   UNL     1       7.779   0.903  21.302  1.00  0.00    -0.315 N 
ATOM     19  HN  UNL     1       8.385   1.716  21.407  1.00  0.00     0.170 HD
BRANCH  18  20
HETATM   20  C   UNL     1       7.080   0.778  20.286  1.00  0.00     0.057 A 
HETATM   21  C   UNL     1       7.078   0.144  19.163  1.00  0.00     0.117 A 
HETATM   22  N   UNL     1       6.660  -0.236  18.068  1.00  0.00    -0.373 N 
HETATM   23  C   UNL     1       5.543   0.515  18.115  1.00  0.00     0.088 A 
ATOM     24  HN  UNL     1       7.029  -0.886  17.373  1.00  0.00     0.164 HD
HETATM   25  C   UNL     1       5.110   1.295  18.978  1.00  0.00     0.026 A 
HETATM   26  C   UNL     1       5.667   1.594  20.184  1.00  0.00    -0.033 A 
HETATM   27  C   UNL     1       5.192   2.510  21.266  1.00  0.00     0.050 C 
ENDBRANCH  18  20
ENDBRANCH  15  16
ENDBRANCH   1  15
TORSDOF 6
ENDMDL
MODEL 8
REMARK VINA RESULT:    -6.286      2.927      6.181
REMARK INTER + INTRA:          -9.654
REMARK INTER:                  -8.702
REMARK INTRA:                  -0.952
REMARK UNBOUND:                -1.163
REMARK  6 active torsions:
REMARK  status: ('A' for Active; 'I' for Inactive)
REMARK    1  A    between atoms: S_2  and  N_5 
REMARK    2  A    between atoms: N_5  and  C_7 
REMARK    3  A    between atoms: C_8  and  C_9 
REMARK    4  A    between atoms: C_9  and  C_15 
REMARK    5  A    between atoms: C_15  and  C_16 
REMARK       I    between atoms: C_16  and  N_18 
REMARK    6  A    between atoms: N_18  and  C_20 
ROOT
HETATM    1  C   UNL     1       7.049   3.020  22.517  1.00  0.00     0.075 C 
HETATM    2  C   UNL     1       7.216   4.761  22.270  1.00  0.00    -0.000 C 
HETATM    3  C   UNL     1       7.241   5.448  23.018  1.00  0.00    -0.025 C 
HETATM    4  C   UNL     1       7.087   5.275  24.549  1.00  0.00     0.054 C 
HETATM    5  C   UNL     1       6.815   3.986  24.820  1.00  0.00    -0.025 C 
HETATM    6  C   UNL     1       6.699   3.076  24.250  1.00  0.00    -0.000 C 
ENDROOT
BRANCH   1   7
HETATM    7  C   UNL     1       6.383   2.184  21.847  1.00  0.00     0.021 C 
HETATM    8  C   UNL     1       6.119   1.586  20.797  1.00  0.00     0.098 C 
BRANCH   8   9
HETATM    9  N   UNL     1       5.784   0.612  20.169  1.00  0.00    -0.296 N 
ATOM     10  HN  UNL     1       5.040   0.038  20.567  1.00  0.00     0.177 HD
BRANCH   9  11
HETATM   11  S   UNL     1       6.401   0.135  18.769  1.00  0.00     0.226 S 
HETATM   12  C   UNL     1       6.018   1.381  17.636  1.00  0.00     0.186 C 
HETATM   13  O   UNL     1       7.828   0.008  18.834  1.00  0.00    -0.206 OA
HETATM   14  O   UNL     1       5.793  -1.080  18.297  1.00  0.00    -0.206 OA
ENDBRANCH   9  11
ENDBRANCH   8   9
ENDBRANCH   1   7
BRANCH   1  15
HETATM   15  C   UNL     1       8.093   2.468  22.455  1.00  0.00    -0.061 C 
BRANCH  15  16
HETATM   16  C   UNL     1       9.244   1.780  22.367  1.00  0.00     0.290 C 
HETATM   17  O   UNL     1       9.865   1.992  21.465  1.00  0.00    -0.259 OA
HETATM   18  N   UNL     1       9.432   0.981  23.377  1.00  0.00    -0.315 N 
ATOM     19  HN  UNL     1       8.726   0.909  24.109  1.00  0.00     0.170 HD
BRANCH  18  20
HETATM   20  C   UNL     1      10.469   0.307  23.447  1.00  0.00     0.057 A 
HETATM   21  C   UNL     1      11.659   0.379  23.937  1.00  0.00     0.117 A 
HETATM   22  N   UNL     1      12.801   0.012  24.221  1.00  0.00    -0.373 N 
HETATM   23  C   UNL     1      12.686  -1.178  23.600  1.00  0.00     0.088 A 
ATOM     24  HN  UNL     1      13.561   0.452  24.741  1.00  0.00     0.164 HD
HETATM   25  C   UNL     1      11.745  -1.696  22.979  1.00  0.00     0.026 A 
HETATM   26  C   UNL     1      10.500  -1.182  22.774  1.00  0.00    -0.033 A 
HETATM   27  C   UNL     1       9.326  -1.758  22.050  1.00  0.00     0.050 C 
ENDBRANCH  18  20
ENDBRANCH  15  16
ENDBRANCH   1  15
TORSDOF 6
ENDMDL
MODEL 9
REMARK VINA RESULT:    -6.204     14.885     16.389
REMARK INTER + INTRA:          -9.543
REMARK INTER:                  -8.742
REMARK INTRA:                  -0.801
REMARK UNBOUND:                -1.163
REMARK  6 active torsions:
REMARK  status: ('A' for Active; 'I' for Inactive)
REMARK    1  A    between atoms: S_2  and  N_5 
REMARK    2  A    between atoms: N_5  and  C_7 
REMARK    3  A    between atoms: C_8  and  C_9 
REMARK    4  A    between atoms: C_9  and  C_15 
REMARK    5  A    between atoms: C_15  and  C_16 
REMARK       I    between atoms: C_16  and  N_18 
REMARK    6  A    between atoms: N_18  and  C_20 
ROOT
HETATM    1  C   UNL     1      23.001  -1.860  23.857  1.00  0.00     0.075 C 
HETATM    2  C   UNL     1      21.319  -1.407  24.149  1.00  0.00    -0.000 C 
HETATM    3  C   UNL     1      21.023  -0.528  24.562  1.00  0.00    -0.025 C 
HETATM    4  C   UNL     1      21.857   0.650  25.124  1.00  0.00     0.054 C 
HETATM    5  C   UNL     1      23.162   0.331  25.069  1.00  0.00    -0.025 C 
HETATM    6  C   UNL     1      23.746  -0.510  24.726  1.00  0.00    -0.000 C 
ENDROOT
BRANCH   1   7
HETATM    7  C   UNL     1      23.558  -2.983  24.002  1.00  0.00     0.021 C 
HETATM    8  C   UNL     1      23.641  -4.103  24.519  1.00  0.00     0.098 C 
BRANCH   8   9
HETATM    9  N   UNL     1      23.886  -5.284  24.491  1.00  0.00    -0.296 N 
ATOM     10  HN  UNL     1      23.570  -5.804  23.672  1.00  0.00     0.177 HD
BRANCH   9  11
HETATM   11  S   UNL     1      24.663  -6.112  25.623  1.00  0.00     0.226 S 
HETATM   12  C   UNL     1      24.598  -5.139  27.048  1.00  0.00     0.186 C 
HETATM   13  O   UNL     1      24.017  -7.363  25.901  1.00  0.00    -0.206 OA
HETATM   14  O   UNL     1      26.049  -6.306  25.294  1.00  0.00    -0.206 OA
ENDBRANCH   9  11
ENDBRANCH   8   9
ENDBRANCH   1   7
BRANCH   1  15
HETATM   15  C   UNL     1      23.313  -1.680  22.731  1.00  0.00    -0.061 C 
BRANCH  15  16
HETATM   16  C   UNL     1      23.714  -1.425  21.474  1.00  0.00     0.290 C 
HETATM   17  O   UNL     1      24.708  -0.927  21.376  1.00  0.00    -0.259 OA
HETATM   18  N   UNL     1      22.856  -1.825  20.581  1.00  0.00    -0.315 N 
ATOM     19  HN  UNL     1      21.977  -2.251  20.873  1.00  0.00     0.170 HD
BRANCH  18  20
HETATM   20  C   UNL     1      23.107  -1.686  19.376  1.00  0.00     0.057 A 
HETATM   21  C   UNL     1      22.902  -0.850  18.417  1.00  0.00     0.117 A 
HETATM   22  N   UNL     1      22.973  -0.374  17.281  1.00  0.00    -0.373 N 
HETATM   23  C   UNL     1      23.682  -1.404  16.781  1.00  0.00     0.088 A 
ATOM     24  HN  UNL     1      22.621   0.490  16.869  1.00  0.00     0.164 HD
HETATM   25  C   UNL     1      24.107  -2.445  17.307  1.00  0.00     0.026 A 
HETATM   26  C   UNL     1      23.988  -2.829  18.608  1.00  0.00    -0.033 A 
HETATM   27  C   UNL     1      24.486  -4.056  19.301  1.00  0.00     0.050 C 
ENDBRANCH  18  20
ENDBRANCH  15  16
ENDBRANCH   1  15
TORSDOF 6
ENDMDL
