stable:False satoms:10 tatoms:24 sratio:0.4166666666666667
  -OEChem-08062417423D

 45 46  0     1  0  0  0  0  0999 V2000
    6.3778   -5.1944   26.2671 C   0  0  0  0  0  0  0  0  0  0  0  0
    8.0333   -4.5519   26.0619 S   0  0  0  0  0  0  0  0  0  0  0  0
    8.9257   -5.6818   25.9935 O   0  0  0  0  0  0  0  0  0  0  0  0
    8.3011   -3.7091   27.1800 O   0  0  0  0  0  0  0  0  0  0  0  0
    7.9722   -3.7627   24.6710 N   0  0  0  0  0  0  0  0  0  0  0  0
    8.8680   -3.0655   24.2101 C   0  0  0  0  0  0  0  0  0  0  0  0
    9.3411   -2.0611   23.6528 C   0  0  0  0  0  0  0  0  0  0  0  0
   10.2466   -1.1402   23.5468 C   0  0  2  0  0  0  0  0  0  0  0  0
   10.8725   -0.1355   24.6291 C   0  0  0  0  0  0  0  0  0  0  0  0
   11.8675    0.2450   24.7016 C   0  0  0  0  0  0  0  0  0  0  0  0
   13.0456   -0.2430   23.8634 C   0  0  0  0  0  0  0  0  0  0  0  0
   12.6701   -1.2131   23.1015 C   0  0  0  0  0  0  0  0  0  0  0  0
   11.8028   -1.7467   22.8425 C   0  0  0  0  0  0  0  0  0  0  0  0
    9.6900   -0.6621   22.6186 C   0  0  2  0  0  0  0  0  0  0  0  0
    9.0730    0.0035   21.5841 C   0  0  0  0  0  0  0  0  0  0  0  0
    9.5581    0.9725   21.2150 O   0  0  0  0  0  0  0  0  0  0  0  0
    7.9805   -0.6003   21.1931 N   0  0  0  0  0  0  0  0  0  0  0  0
    7.2542   -0.1106   20.2514 C   0  0  0  0  0  0  0  0  0  0  0  0
    7.4135   -0.0048   18.9512 C   0  0  0  0  0  0  0  0  0  0  0  0
    7.0111    0.3834   17.8855 N   0  0  0  0  0  0  0  0  0  0  0  0
    5.8128    0.9468   18.2970 C   0  0  0  0  0  0  0  0  0  0  0  0
    5.3878    0.9760   19.4065 C   0  0  0  0  0  0  0  0  0  0  0  0
    5.8851    0.4993   20.5846 C   0  0  0  0  0  0  0  0  0  0  0  0
    5.2873    0.5620   22.0304 C   0  0  0  0  0  0  0  0  0  0  0  0
    6.3176   -5.7605   27.2083 H   0  0  0  0  0  0  0  0  0  0  0  0
    5.6616   -4.3599   26.2949 H   0  0  0  0  0  0  0  0  0  0  0  0
    6.1350   -5.8580   25.4241 H   0  0  0  0  0  0  0  0  0  0  0  0
    7.1780   -3.1594   24.7437 H   0  0  0  0  0  0  0  0  0  0  0  0
    9.7469   -3.6662   24.3919 H   0  0  0  0  0  0  0  0  0  0  0  0
   11.1387   -1.6515   23.1560 H   0  0  0  0  0  0  0  0  0  0  0  0
   10.1900    0.2048   25.3938 H   0  0  0  0  0  0  0  0  0  0  0  0
   12.0532    1.0307   25.4190 H   0  0  0  0  0  0  0  0  0  0  0  0
   13.8477   -0.5923   24.5301 H   0  0  0  0  0  0  0  0  0  0  0  0
   13.4192    0.5847   23.2426 H   0  0  0  0  0  0  0  0  0  0  0  0
   13.5172   -1.6008   22.5553 H   0  0  0  0  0  0  0  0  0  0  0  0
   11.8578   -2.5501   22.1228 H   0  0  0  0  0  0  0  0  0  0  0  0
   10.8563   -1.4918   23.2960 H   0  0  0  0  0  0  0  0  0  0  0  0
   10.2508   -1.2945   21.9147 H   0  0  0  0  0  0  0  0  0  0  0  0
    7.7060   -1.4555   21.6328 H   0  0  0  0  0  0  0  0  0  0  0  0
    8.3486   -0.5014   18.7381 H   0  0  0  0  0  0  0  0  0  0  0  0
    5.2040    1.4055   17.5319 H   0  0  0  0  0  0  0  0  0  0  0  0
    4.4323    1.4708   19.4996 H   0  0  0  0  0  0  0  0  0  0  0  0
    4.6836   -0.3382   22.2175 H   0  0  0  0  0  0  0  0  0  0  0  0
    6.1057    0.6134   22.7635 H   0  0  0  0  0  0  0  0  0  0  0  0
    4.6526    1.4554   22.1261 H   0  0  0  0  0  0  0  0  0  0  0  0
 20 21  2  0  0  0  0
 19 20  1  0  0  0  0
 21 22  1  0  0  0  0
 18 19  2  0  0  0  0
 22 23  2  0  0  0  0
 18 23  1  0  0  0  0
 17 18  1  0  0  0  0
 23 24  1  0  0  0  0
 15 16  2  0  0  0  0
 15 17  1  0  0  0  0
 14 15  1  0  0  0  0
  8 14  1  0  0  0  0
  7 14  1  0  0  0  0
 12 13  2  0  0  0  0
 11 12  1  0  0  0  0
  7  8  1  0  0  0  0
  8  9  1  0  0  0  0
 10 11  1  0  0  0  0
  6  7  2  3  0  0  0
  5  6  1  0  0  0  0
  9 10  2  0  0  0  0
  2  5  1  0  0  0  0
  2  3  2  0  0  0  0
  1  2  1  0  0  0  0
  2  4  2  0  0  0  0
  1 25  1  0  0  0  0
  1 26  1  0  0  0  0
  1 27  1  0  0  0  0
  5 28  1  0  0  0  0
  6 29  1  0  0  0  0
  8 30  1  0  0  0  0
  9 31  1  0  0  0  0
 10 32  1  0  0  0  0
 11 33  1  0  0  0  0
 11 34  1  0  0  0  0
 12 35  1  0  0  0  0
 13 36  1  0  0  0  0
 13 37  1  0  0  0  0
 14 38  1  0  0  0  0
 17 39  1  0  0  0  0
 19 40  1  0  0  0  0
 21 41  1  0  0  0  0
 22 42  1  0  0  0  0
 24 43  1  0  0  0  0
 24 44  1  0  0  0  0
 24 45  1  0  0  0  0
M  END
> <Chemgauss4>
-13.244372

$$$$
