REMARK  6 active torsions:
REMARK  status: ('A' for Active; 'I' for Inactive)
REMARK    1  A    between atoms: S_2  and  N_5 
REMARK    2  A    between atoms: N_5  and  C_7 
REMARK    3  A    between atoms: C_8  and  C_9 
REMARK    4  A    between atoms: C_9  and  C_15 
REMARK    5  A    between atoms: C_15  and  C_16 
REMARK       I    between atoms: C_16  and  N_18 
REMARK    6  A    between atoms: N_18  and  C_20 
ROOT
HETATM    1  C   UNL     1      10.312  -1.117  23.263  1.00  0.00     0.076 C 
HETATM    2  C   UNL     1      11.056   0.007  24.310  1.00  0.00     0.003 C 
HETATM    3  C   UNL     1      12.072   0.278  24.255  1.00  0.00    -0.002 C 
HETATM    4  C   UNL     1      13.160  -0.164  23.493  1.00  0.00    -0.001 C 
HETATM    5  C   UNL     1      12.760  -1.312  22.638  1.00  0.00    -0.002 C 
HETATM    6  C   UNL     1      11.817  -1.753  22.535  1.00  0.00     0.003 C 
ENDROOT
BRANCH   1   7
HETATM    7  C   UNL     1       9.437  -1.954  23.480  1.00  0.00     0.021 C 
HETATM    8  C   UNL     1       8.976  -2.936  24.125  1.00  0.00     0.098 C 
BRANCH   8   9
HETATM    9  N   UNL     1       8.083  -3.564  24.680  1.00  0.00    -0.296 N 
ATOM     10  HN  UNL     1       7.186  -3.640  24.200  1.00  0.00     0.177 HD
BRANCH   9  11
HETATM   11  S   UNL     1       8.229  -4.281  26.123  1.00  0.00     0.226 S 
HETATM   12  C   UNL     1       6.579  -4.877  26.500  1.00  0.00     0.186 C 
HETATM   13  O   UNL     1       9.091  -5.451  26.070  1.00  0.00    -0.206 OA
HETATM   14  O   UNL     1       8.616  -3.405  27.186  1.00  0.00    -0.206 OA
ENDBRANCH   9  11
ENDBRANCH   8   9
ENDBRANCH   1   7
BRANCH   1  15
HETATM   15  C   UNL     1       9.758  -0.585  22.324  1.00  0.00    -0.061 C 
BRANCH  15  16
HETATM   16  C   UNL     1       9.068   0.033  21.370  1.00  0.00     0.290 C 
HETATM   17  O   UNL     1       9.519   0.997  20.957  1.00  0.00    -0.259 OA
HETATM   18  N   UNL     1       7.928  -0.564  21.069  1.00  0.00    -0.315 N 
ATOM     19  HN  UNL     1       7.645  -1.410  21.563  1.00  0.00     0.170 HD
BRANCH  18  20
HETATM   20  C   UNL     1       7.186  -0.076  20.159  1.00  0.00     0.057 C 
HETATM   21  C   UNL     1       7.222   0.025  18.858  1.00  0.00     0.117 C 
HETATM   22  N   UNL     1       6.702   0.307  17.743  1.00  0.00    -0.373 N 
HETATM   23  C   UNL     1       5.631   0.841  18.238  1.00  0.00     0.088 C 
ATOM     24  HN  UNL     1       7.017   0.164  16.783  1.00  0.00     0.164 HD
HETATM   25  C   UNL     1       5.224   0.988  19.406  1.00  0.00     0.026 C 
HETATM   26  C   UNL     1       5.822   0.575  20.548  1.00  0.00    -0.033 C 
HETATM   27  C   UNL     1       5.334   0.697  21.966  1.00  0.00     0.050 C 
ENDBRANCH  18  20
ENDBRANCH  15  16
ENDBRANCH   1  15
TORSDOF 6
