MODEL 1
REMARK VINA RESULT:    -6.831      0.000      0.000
REMARK INTER + INTRA:         -11.063
REMARK INTER:                 -10.225
REMARK INTRA:                  -0.838
REMARK UNBOUND:                -0.838
REMARK  10 active torsions:
REMARK  status: ('A' for Active; 'I' for Inactive)
REMARK    1  A    between atoms: S_2  and  N_5 
REMARK    2  A    between atoms: C_7  and  C_8 
REMARK    3  A    between atoms: C_8  and  C_9 
REMARK    4  A    between atoms: C_9  and  C_15 
REMARK    5  A    between atoms: C_9  and  C_10 
REMARK    6  A    between atoms: C_10  and  C_11 
REMARK    7  A    between atoms: C_11  and  C_12 
REMARK    8  A    between atoms: C_12  and  C_13 
REMARK    9  A    between atoms: C_15  and  C_16 
REMARK       I    between atoms: C_16  and  N_18 
REMARK   10  A    between atoms: N_18  and  C_20 
ROOT
HETATM    1  C   UNL     1       9.425  -1.287  23.573  1.00  0.00     0.108 C 
ENDROOT
BRANCH   1   2
HETATM    2  C   UNL     1       8.629  -2.221  23.816  1.00  0.00     0.011 C 
BRANCH   2   3
HETATM    3  C   UNL     1       8.091  -3.272  23.564  1.00  0.00     0.097 C 
HETATM    4  N   UNL     1       7.930  -4.330  22.960  1.00  0.00    -0.296 N 
ATOM      5  HN  UNL     1       8.783  -4.852  22.760  1.00  0.00     0.177 HD
BRANCH   4   6
HETATM    6  S   UNL     1       6.569  -5.011  22.442  1.00  0.00     0.226 S 
HETATM    7  C   UNL     1       5.497  -3.782  22.137  1.00  0.00     0.186 C 
HETATM    8  O   UNL     1       6.798  -5.701  21.178  1.00  0.00    -0.206 OA
HETATM    9  O   UNL     1       6.007  -5.931  23.391  1.00  0.00    -0.206 OA
ENDBRANCH   4   6
ENDBRANCH   2   3
ENDBRANCH   1   2
BRANCH   1  10
HETATM   10  C   UNL     1       8.997  -0.887  22.485  1.00  0.00    -0.071 C 
BRANCH  10  11
HETATM   11  C   UNL     1       8.465  -0.412  21.414  1.00  0.00     0.289 C 
HETATM   12  O   UNL     1       9.191   0.110  20.712  1.00  0.00    -0.259 OA
HETATM   13  N   UNL     1       7.159  -0.628  21.344  1.00  0.00    -0.315 N 
ATOM     14  HN  UNL     1       6.668  -1.132  22.083  1.00  0.00     0.170 HD
BRANCH  13  15
HETATM   15  C   UNL     1       6.534  -0.183  20.318  1.00  0.00     0.057 A 
HETATM   16  C   UNL     1       6.158  -0.669  19.159  1.00  0.00     0.117 A 
HETATM   17  N   UNL     1       5.600  -0.578  18.032  1.00  0.00    -0.373 N 
HETATM   18  C   UNL     1       5.216   0.705  18.185  1.00  0.00     0.088 A 
ATOM     19  HN  UNL     1       5.480  -1.245  17.269  1.00  0.00     0.164 HD
HETATM   20  C   UNL     1       5.348   1.475  19.127  1.00  0.00     0.026 A 
HETATM   21  C   UNL     1       5.931   1.249  20.325  1.00  0.00    -0.033 A 
HETATM   22  C   UNL     1       6.096   2.220  21.539  1.00  0.00     0.050 C 
ENDBRANCH  13  15
ENDBRANCH  10  11
ENDBRANCH   1  10
BRANCH   1  23
HETATM   23  C   UNL     1       9.871   0.038  24.574  1.00  0.00    -0.010 C 
BRANCH  23  24
HETATM   24  C   UNL     1      10.971   0.195  24.827  1.00  0.00    -0.025 C 
BRANCH  24  25
HETATM   25  C   UNL     1      11.988   0.656  24.308  1.00  0.00     0.053 C 
BRANCH  25  26
HETATM   26  C   UNL     1      13.129  -0.397  24.287  1.00  0.00    -0.033 C 
HETATM   27  C   UNL     1      13.325  -1.108  23.646  1.00  0.00     0.007 C 
ENDBRANCH  25  26
ENDBRANCH  24  25
ENDBRANCH  23  24
ENDBRANCH   1  23
TORSDOF 10
ENDMDL
MODEL 2
REMARK VINA RESULT:    -6.332      2.879      6.551
REMARK INTER + INTRA:         -10.316
REMARK INTER:                  -9.500
REMARK INTRA:                  -0.816
REMARK UNBOUND:                -0.838
REMARK  10 active torsions:
REMARK  status: ('A' for Active; 'I' for Inactive)
REMARK    1  A    between atoms: S_2  and  N_5 
REMARK    2  A    between atoms: C_7  and  C_8 
REMARK    3  A    between atoms: C_8  and  C_9 
REMARK    4  A    between atoms: C_9  and  C_15 
REMARK    5  A    between atoms: C_9  and  C_10 
REMARK    6  A    between atoms: C_10  and  C_11 
REMARK    7  A    between atoms: C_11  and  C_12 
REMARK    8  A    between atoms: C_12  and  C_13 
REMARK    9  A    between atoms: C_15  and  C_16 
REMARK       I    between atoms: C_16  and  N_18 
REMARK   10  A    between atoms: N_18  and  C_20 
ROOT
HETATM    1  C   UNL     1       6.591  -2.763  22.271  1.00  0.00     0.108 C 
ENDROOT
BRANCH   1   2
HETATM    2  C   UNL     1       6.425  -1.746  21.561  1.00  0.00     0.011 C 
BRANCH   2   3
HETATM    3  C   UNL     1       6.560  -1.107  20.546  1.00  0.00     0.097 C 
HETATM    4  N   UNL     1       6.836  -0.113  19.877  1.00  0.00    -0.296 N 
ATOM      5  HN  UNL     1       7.676   0.389  20.168  1.00  0.00     0.177 HD
BRANCH   4   6
HETATM    6  S   UNL     1       6.065   0.508  18.611  1.00  0.00     0.226 S 
HETATM    7  C   UNL     1       4.860   1.482  19.206  1.00  0.00     0.186 C 
HETATM    8  O   UNL     1       6.962   1.362  17.842  1.00  0.00    -0.206 OA
HETATM    9  O   UNL     1       5.508  -0.495  17.748  1.00  0.00    -0.206 OA
ENDBRANCH   4   6
ENDBRANCH   2   3
ENDBRANCH   1   2
BRANCH   1  10
HETATM   10  C   UNL     1       7.733  -2.568  22.701  1.00  0.00    -0.071 C 
BRANCH  10  11
HETATM   11  C   UNL     1       8.877  -2.387  23.261  1.00  0.00     0.289 C 
HETATM   12  O   UNL     1       9.074  -3.042  24.169  1.00  0.00    -0.259 OA
HETATM   13  N   UNL     1       9.607  -1.458  22.658  1.00  0.00    -0.315 N 
ATOM     14  HN  UNL     1       9.260  -0.969  21.833  1.00  0.00     0.170 HD
BRANCH  13  15
HETATM   15  C   UNL     1      10.762  -1.196  23.147  1.00  0.00     0.057 A 
HETATM   16  C   UNL     1      11.983  -1.637  22.967  1.00  0.00     0.117 A 
HETATM   17  N   UNL     1      13.222  -1.642  23.207  1.00  0.00    -0.373 N 
HETATM   18  C   UNL     1      13.176  -0.654  24.123  1.00  0.00     0.088 A 
ATOM     19  HN  UNL     1      13.991  -2.200  22.837  1.00  0.00     0.164 HD
HETATM   20  C   UNL     1      12.240   0.022  24.528  1.00  0.00     0.026 A 
HETATM   21  C   UNL     1      10.940  -0.028  24.156  1.00  0.00    -0.033 A 
HETATM   22  C   UNL     1       9.738   0.836  24.658  1.00  0.00     0.050 C 
ENDBRANCH  13  15
ENDBRANCH  10  11
ENDBRANCH   1  10
BRANCH   1  23
HETATM   23  C   UNL     1       5.575  -3.392  23.508  1.00  0.00    -0.010 C 
BRANCH  23  24
HETATM   24  C   UNL     1       5.335  -4.506  23.513  1.00  0.00    -0.025 C 
BRANCH  24  25
HETATM   25  C   UNL     1       5.791  -5.554  23.974  1.00  0.00     0.053 C 
BRANCH  25  26
HETATM   26  C   UNL     1       6.529  -5.297  25.316  1.00  0.00    -0.033 C 
HETATM   27  C   UNL     1       6.260  -5.489  26.235  1.00  0.00     0.007 C 
ENDBRANCH  25  26
ENDBRANCH  24  25
ENDBRANCH  23  24
ENDBRANCH   1  23
TORSDOF 10
ENDMDL
MODEL 3
REMARK VINA RESULT:    -6.275      2.205      2.589
REMARK INTER + INTRA:         -10.231
REMARK INTER:                  -9.650
REMARK INTRA:                  -0.581
REMARK UNBOUND:                -0.838
REMARK  10 active torsions:
REMARK  status: ('A' for Active; 'I' for Inactive)
REMARK    1  A    between atoms: S_2  and  N_5 
REMARK    2  A    between atoms: C_7  and  C_8 
REMARK    3  A    between atoms: C_8  and  C_9 
REMARK    4  A    between atoms: C_9  and  C_15 
REMARK    5  A    between atoms: C_9  and  C_10 
REMARK    6  A    between atoms: C_10  and  C_11 
REMARK    7  A    between atoms: C_11  and  C_12 
REMARK    8  A    between atoms: C_12  and  C_13 
REMARK    9  A    between atoms: C_15  and  C_16 
REMARK       I    between atoms: C_16  and  N_18 
REMARK   10  A    between atoms: N_18  and  C_20 
ROOT
HETATM    1  C   UNL     1      10.594  -1.655  22.725  1.00  0.00     0.108 C 
ENDROOT
BRANCH   1   2
HETATM    2  C   UNL     1       9.649  -2.290  23.242  1.00  0.00     0.011 C 
BRANCH   2   3
HETATM    3  C   UNL     1       8.946  -2.610  24.171  1.00  0.00     0.097 C 
HETATM    4  N   UNL     1       8.631  -2.707  25.355  1.00  0.00    -0.296 N 
ATOM      5  HN  UNL     1       8.800  -1.875  25.921  1.00  0.00     0.177 HD
BRANCH   4   6
HETATM    6  S   UNL     1       7.990  -3.955  26.139  1.00  0.00     0.226 S 
HETATM    7  C   UNL     1       7.597  -5.096  25.000  1.00  0.00     0.186 C 
HETATM    8  O   UNL     1       8.980  -4.559  27.024  1.00  0.00    -0.206 OA
HETATM    9  O   UNL     1       6.827  -3.598  26.901  1.00  0.00    -0.206 OA
ENDBRANCH   4   6
ENDBRANCH   2   3
ENDBRANCH   1   2
BRANCH   1  10
HETATM   10  C   UNL     1       9.981  -0.868  21.996  1.00  0.00    -0.071 C 
BRANCH  10  11
HETATM   11  C   UNL     1       9.241  -0.099  21.277  1.00  0.00     0.289 C 
HETATM   12  O   UNL     1       9.670   0.936  21.087  1.00  0.00    -0.259 OA
HETATM   13  N   UNL     1       8.111  -0.677  20.896  1.00  0.00    -0.315 N 
ATOM     14  HN  UNL     1       7.894  -1.638  21.163  1.00  0.00     0.170 HD
BRANCH  13  15
HETATM   15  C   UNL     1       7.298   0.011  20.183  1.00  0.00     0.057 A 
HETATM   16  C   UNL     1       6.960   0.054  18.917  1.00  0.00     0.117 A 
HETATM   17  N   UNL     1       6.296   0.513  17.947  1.00  0.00    -0.373 N 
HETATM   18  C   UNL     1       5.603   1.406  18.681  1.00  0.00     0.088 A 
ATOM     19  HN  UNL     1       6.287   0.287  16.953  1.00  0.00     0.164 HD
HETATM   20  C   UNL     1       5.612   1.636  19.883  1.00  0.00     0.026 A 
HETATM   21  C   UNL     1       6.342   1.037  20.851  1.00  0.00    -0.033 A 
HETATM   22  C   UNL     1       6.355   1.315  22.390  1.00  0.00     0.050 C 
ENDBRANCH  13  15
ENDBRANCH  10  11
ENDBRANCH   1  10
BRANCH   1  23
HETATM   23  C   UNL     1      11.913  -0.866  23.497  1.00  0.00    -0.010 C 
BRANCH  23  24
HETATM   24  C   UNL     1      11.748   0.162  23.961  1.00  0.00    -0.025 C 
BRANCH  24  25
HETATM   25  C   UNL     1      11.383   0.653  25.030  1.00  0.00     0.053 C 
BRANCH  25  26
HETATM   26  C   UNL     1      10.053   1.435  24.859  1.00  0.00    -0.033 C 
HETATM   27  C   UNL     1       9.126   1.130  24.910  1.00  0.00     0.007 C 
ENDBRANCH  25  26
ENDBRANCH  24  25
ENDBRANCH  23  24
ENDBRANCH   1  23
TORSDOF 10
ENDMDL
MODEL 4
REMARK VINA RESULT:    -6.194      3.389      7.299
REMARK INTER + INTRA:         -10.110
REMARK INTER:                  -9.252
REMARK INTRA:                  -0.857
REMARK UNBOUND:                -0.838
REMARK  10 active torsions:
REMARK  status: ('A' for Active; 'I' for Inactive)
REMARK    1  A    between atoms: S_2  and  N_5 
REMARK    2  A    between atoms: C_7  and  C_8 
REMARK    3  A    between atoms: C_8  and  C_9 
REMARK    4  A    between atoms: C_9  and  C_15 
REMARK    5  A    between atoms: C_9  and  C_10 
REMARK    6  A    between atoms: C_10  and  C_11 
REMARK    7  A    between atoms: C_11  and  C_12 
REMARK    8  A    between atoms: C_12  and  C_13 
REMARK    9  A    between atoms: C_15  and  C_16 
REMARK       I    between atoms: C_16  and  N_18 
REMARK   10  A    between atoms: N_18  and  C_20 
ROOT
HETATM    1  C   UNL     1       8.151  -2.064  21.919  1.00  0.00     0.108 C 
ENDROOT
BRANCH   1   2
HETATM    2  C   UNL     1       9.363  -1.890  22.176  1.00  0.00     0.011 C 
BRANCH   2   3
HETATM    3  C   UNL     1      10.272  -1.400  22.803  1.00  0.00     0.097 C 
HETATM    4  N   UNL     1      11.001  -1.243  23.779  1.00  0.00    -0.296 N 
ATOM      5  HN  UNL     1      11.294  -2.101  24.248  1.00  0.00     0.177 HD
BRANCH   4   6
HETATM    6  S   UNL     1      11.560   0.119  24.425  1.00  0.00     0.226 S 
HETATM    7  C   UNL     1      11.222   1.339  23.353  1.00  0.00     0.186 C 
HETATM    8  O   UNL     1      10.845   0.425  25.658  1.00  0.00    -0.206 OA
HETATM    9  O   UNL     1      12.970   0.073  24.692  1.00  0.00    -0.206 OA
ENDBRANCH   4   6
ENDBRANCH   2   3
ENDBRANCH   1   2
BRANCH   1  10
HETATM   10  C   UNL     1       7.808  -2.781  22.865  1.00  0.00    -0.071 C 
BRANCH  10  11
HETATM   11  C   UNL     1       7.421  -3.612  23.768  1.00  0.00     0.289 C 
HETATM   12  O   UNL     1       6.773  -4.464  23.387  1.00  0.00    -0.259 OA
HETATM   13  N   UNL     1       7.862  -3.302  24.980  1.00  0.00    -0.315 N 
ATOM     14  HN  UNL     1       8.452  -2.484  25.133  1.00  0.00     0.170 HD
BRANCH  13  15
HETATM   15  C   UNL     1       7.523  -4.065  25.952  1.00  0.00     0.057 A 
HETATM   16  C   UNL     1       8.014  -5.137  26.525  1.00  0.00     0.117 A 
HETATM   17  N   UNL     1       7.995  -6.058  27.386  1.00  0.00    -0.373 N 
HETATM   18  C   UNL     1       6.857  -5.649  27.982  1.00  0.00     0.088 A 
ATOM     19  HN  UNL     1       8.622  -6.842  27.568  1.00  0.00     0.164 HD
HETATM   20  C   UNL     1       6.138  -4.684  27.761  1.00  0.00     0.026 A 
HETATM   21  C   UNL     1       6.286  -3.718  26.827  1.00  0.00    -0.033 A 
HETATM   22  C   UNL     1       5.381  -2.475  26.542  1.00  0.00     0.050 C 
ENDBRANCH  13  15
ENDBRANCH  10  11
ENDBRANCH   1  10
BRANCH   1  23
HETATM   23  C   UNL     1       6.942  -0.890  21.577  1.00  0.00    -0.010 C 
BRANCH  23  24
HETATM   24  C   UNL     1       7.140  -0.111  20.769  1.00  0.00    -0.025 C 
BRANCH  24  25
HETATM   25  C   UNL     1       6.516   0.712  20.098  1.00  0.00     0.053 C 
BRANCH  25  26
HETATM   26  C   UNL     1       5.730   0.016  18.953  1.00  0.00    -0.033 C 
HETATM   27  C   UNL     1       5.628   0.263  18.013  1.00  0.00     0.007 C 
ENDBRANCH  25  26
ENDBRANCH  24  25
ENDBRANCH  23  24
ENDBRANCH   1  23
TORSDOF 10
ENDMDL
MODEL 5
REMARK VINA RESULT:    -6.145      3.640      6.277
REMARK INTER + INTRA:         -10.037
REMARK INTER:                  -9.112
REMARK INTRA:                  -0.924
REMARK UNBOUND:                -0.838
REMARK  10 active torsions:
REMARK  status: ('A' for Active; 'I' for Inactive)
REMARK    1  A    between atoms: S_2  and  N_5 
REMARK    2  A    between atoms: C_7  and  C_8 
REMARK    3  A    between atoms: C_8  and  C_9 
REMARK    4  A    between atoms: C_9  and  C_15 
REMARK    5  A    between atoms: C_9  and  C_10 
REMARK    6  A    between atoms: C_10  and  C_11 
REMARK    7  A    between atoms: C_11  and  C_12 
REMARK    8  A    between atoms: C_12  and  C_13 
REMARK    9  A    between atoms: C_15  and  C_16 
REMARK       I    between atoms: C_16  and  N_18 
REMARK   10  A    between atoms: N_18  and  C_20 
ROOT
HETATM    1  C   UNL     1       7.478  -4.048  24.738  1.00  0.00     0.108 C 
ENDROOT
BRANCH   1   2
HETATM    2  C   UNL     1       7.756  -4.359  25.918  1.00  0.00     0.011 C 
BRANCH   2   3
HETATM    3  C   UNL     1       7.611  -5.013  26.922  1.00  0.00     0.097 C 
HETATM    4  N   UNL     1       7.492  -6.046  27.578  1.00  0.00    -0.296 N 
ATOM      5  HN  UNL     1       8.117  -6.807  27.311  1.00  0.00     0.177 HD
BRANCH   4   6
HETATM    6  S   UNL     1       6.493  -6.369  28.795  1.00  0.00     0.226 S 
HETATM    7  C   UNL     1       4.999  -6.662  28.133  1.00  0.00     0.186 C 
HETATM    8  O   UNL     1       6.904  -7.591  29.477  1.00  0.00    -0.206 OA
HETATM    9  O   UNL     1       6.408  -5.299  29.748  1.00  0.00    -0.206 OA
ENDBRANCH   4   6
ENDBRANCH   2   3
ENDBRANCH   1   2
BRANCH   1  10
HETATM   10  C   UNL     1       7.959  -2.912  24.672  1.00  0.00    -0.071 C 
BRANCH  10  11
HETATM   11  C   UNL     1       8.393  -1.713  24.504  1.00  0.00     0.289 C 
HETATM   12  O   UNL     1       7.839  -0.916  25.097  1.00  0.00    -0.259 OA
HETATM   13  N   UNL     1       9.412  -1.644  23.659  1.00  0.00    -0.315 N 
ATOM     14  HN  UNL     1       9.787  -2.484  23.216  1.00  0.00     0.170 HD
BRANCH  13  15
HETATM   15  C   UNL     1       9.910  -0.489  23.415  1.00  0.00     0.057 A 
HETATM   16  C   UNL     1      10.769   0.310  24.002  1.00  0.00     0.117 A 
HETATM   17  N   UNL     1      11.440   1.375  24.078  1.00  0.00    -0.373 N 
HETATM   18  C   UNL     1      10.981   1.896  22.923  1.00  0.00     0.088 A 
ATOM     19  HN  UNL     1      12.100   1.722  24.774  1.00  0.00     0.164 HD
HETATM   20  C   UNL     1      10.208   1.442  22.089  1.00  0.00     0.026 A 
HETATM   21  C   UNL     1       9.576   0.246  22.088  1.00  0.00    -0.033 A 
HETATM   22  C   UNL     1       8.596  -0.349  21.025  1.00  0.00     0.050 C 
ENDBRANCH  13  15
ENDBRANCH  10  11
ENDBRANCH   1  10
BRANCH   1  23
HETATM   23  C   UNL     1       7.789  -4.924  23.291  1.00  0.00    -0.010 C 
BRANCH  23  24
HETATM   24  C   UNL     1       7.036  -5.705  22.944  1.00  0.00    -0.025 C 
BRANCH  24  25
HETATM   25  C   UNL     1       6.173  -5.844  22.075  1.00  0.00     0.053 C 
BRANCH  25  26
HETATM   26  C   UNL     1       4.769  -5.461  22.618  1.00  0.00    -0.033 C 
HETATM   27  C   UNL     1       4.269  -5.806  23.383  1.00  0.00     0.007 C 
ENDBRANCH  25  26
ENDBRANCH  24  25
ENDBRANCH  23  24
ENDBRANCH   1  23
TORSDOF 10
ENDMDL
MODEL 6
REMARK VINA RESULT:    -6.100      2.643      6.292
REMARK INTER + INTRA:          -9.968
REMARK INTER:                  -8.948
REMARK INTRA:                  -1.021
REMARK UNBOUND:                -0.838
REMARK  10 active torsions:
REMARK  status: ('A' for Active; 'I' for Inactive)
REMARK    1  A    between atoms: S_2  and  N_5 
REMARK    2  A    between atoms: C_7  and  C_8 
REMARK    3  A    between atoms: C_8  and  C_9 
REMARK    4  A    between atoms: C_9  and  C_15 
REMARK    5  A    between atoms: C_9  and  C_10 
REMARK    6  A    between atoms: C_10  and  C_11 
REMARK    7  A    between atoms: C_11  and  C_12 
REMARK    8  A    between atoms: C_12  and  C_13 
REMARK    9  A    between atoms: C_15  and  C_16 
REMARK       I    between atoms: C_16  and  N_18 
REMARK   10  A    between atoms: N_18  and  C_20 
ROOT
HETATM    1  C   UNL     1       7.358   0.914  21.501  1.00  0.00     0.108 C 
ENDROOT
BRANCH   1   2
HETATM    2  C   UNL     1       8.260   0.993  22.364  1.00  0.00     0.011 C 
BRANCH   2   3
HETATM    3  C   UNL     1       9.330   0.692  22.834  1.00  0.00     0.097 C 
HETATM    4  N   UNL     1      10.531   0.428  22.808  1.00  0.00    -0.296 N 
ATOM      5  HN  UNL     1      11.095   1.025  22.203  1.00  0.00     0.177 HD
BRANCH   4   6
HETATM    6  S   UNL     1      11.338  -0.721  23.589  1.00  0.00     0.226 S 
HETATM    7  C   UNL     1      12.746  -0.038  24.140  1.00  0.00     0.186 C 
HETATM    8  O   UNL     1      10.589  -1.159  24.761  1.00  0.00    -0.206 OA
HETATM    9  O   UNL     1      11.632  -1.858  22.762  1.00  0.00    -0.206 OA
ENDBRANCH   4   6
ENDBRANCH   2   3
ENDBRANCH   1   2
BRANCH   1  10
HETATM   10  C   UNL     1       7.087  -0.291  21.551  1.00  0.00    -0.071 C 
BRANCH  10  11
HETATM   11  C   UNL     1       6.711  -1.521  21.528  1.00  0.00     0.289 C 
HETATM   12  O   UNL     1       5.977  -1.782  20.700  1.00  0.00    -0.259 OA
HETATM   13  N   UNL     1       7.261  -2.248  22.491  1.00  0.00    -0.315 N 
ATOM     14  HN  UNL     1       7.917  -1.835  23.154  1.00  0.00     0.170 HD
BRANCH  13  15
HETATM   15  C   UNL     1       6.942  -3.488  22.560  1.00  0.00     0.057 A 
HETATM   16  C   UNL     1       7.378  -4.604  22.028  1.00  0.00     0.117 A 
HETATM   17  N   UNL     1       7.350  -5.854  21.862  1.00  0.00    -0.373 N 
HETATM   18  C   UNL     1       6.320  -6.070  22.704  1.00  0.00     0.088 A 
ATOM     19  HN  UNL     1       7.913  -6.484  21.289  1.00  0.00     0.164 HD
HETATM   20  C   UNL     1       5.681  -5.296  23.405  1.00  0.00     0.026 A 
HETATM   21  C   UNL     1       5.835  -3.959  23.541  1.00  0.00    -0.033 A 
HETATM   22  C   UNL     1       5.032  -2.963  24.440  1.00  0.00     0.050 C 
ENDBRANCH  13  15
ENDBRANCH  10  11
ENDBRANCH   1  10
BRANCH   1  23
HETATM   23  C   UNL     1       5.925   1.853  21.351  1.00  0.00    -0.010 C 
BRANCH  23  24
HETATM   24  C   UNL     1       5.494   2.043  20.313  1.00  0.00    -0.025 C 
BRANCH  24  25
HETATM   25  C   UNL     1       4.600   1.612  19.583  1.00  0.00     0.053 C 
BRANCH  25  26
HETATM   26  C   UNL     1       5.189   0.762  18.424  1.00  0.00    -0.033 C 
HETATM   27  C   UNL     1       6.068   0.791  17.999  1.00  0.00     0.007 C 
ENDBRANCH  25  26
ENDBRANCH  24  25
ENDBRANCH  23  24
ENDBRANCH   1  23
TORSDOF 10
ENDMDL
MODEL 7
REMARK VINA RESULT:    -6.070      3.518      7.385
REMARK INTER + INTRA:          -9.924
REMARK INTER:                  -9.065
REMARK INTRA:                  -0.859
REMARK UNBOUND:                -0.838
REMARK  10 active torsions:
REMARK  status: ('A' for Active; 'I' for Inactive)
REMARK    1  A    between atoms: S_2  and  N_5 
REMARK    2  A    between atoms: C_7  and  C_8 
REMARK    3  A    between atoms: C_8  and  C_9 
REMARK    4  A    between atoms: C_9  and  C_15 
REMARK    5  A    between atoms: C_9  and  C_10 
REMARK    6  A    between atoms: C_10  and  C_11 
REMARK    7  A    between atoms: C_11  and  C_12 
REMARK    8  A    between atoms: C_12  and  C_13 
REMARK    9  A    between atoms: C_15  and  C_16 
REMARK       I    between atoms: C_16  and  N_18 
REMARK   10  A    between atoms: N_18  and  C_20 
ROOT
HETATM    1  C   UNL     1       8.079   0.171  20.618  1.00  0.00     0.108 C 
ENDROOT
BRANCH   1   2
HETATM    2  C   UNL     1       8.031   1.162  21.380  1.00  0.00     0.011 C 
BRANCH   2   3
HETATM    3  C   UNL     1       8.534   2.021  22.063  1.00  0.00     0.097 C 
HETATM    4  N   UNL     1       9.388   2.849  22.371  1.00  0.00    -0.296 N 
ATOM      5  HN  UNL     1       9.744   3.416  21.601  1.00  0.00     0.177 HD
BRANCH   4   6
HETATM    6  S   UNL     1      10.026   3.168  23.812  1.00  0.00     0.226 S 
HETATM    7  C   UNL     1       9.071   4.326  24.521  1.00  0.00     0.186 C 
HETATM    8  O   UNL     1       9.966   1.986  24.664  1.00  0.00    -0.206 OA
HETATM    9  O   UNL     1      11.384   3.629  23.733  1.00  0.00    -0.206 OA
ENDBRANCH   4   6
ENDBRANCH   2   3
ENDBRANCH   1   2
BRANCH   1  10
HETATM   10  C   UNL     1       8.322  -0.736  21.421  1.00  0.00    -0.071 C 
BRANCH  10  11
HETATM   11  C   UNL     1       8.680  -1.623  22.281  1.00  0.00     0.289 C 
HETATM   12  O   UNL     1       9.786  -1.889  22.262  1.00  0.00    -0.259 OA
HETATM   13  N   UNL     1       7.674  -2.057  23.028  1.00  0.00    -0.315 N 
ATOM     14  HN  UNL     1       6.730  -1.690  22.904  1.00  0.00     0.170 HD
BRANCH  13  15
HETATM   15  C   UNL     1       7.927  -2.952  23.910  1.00  0.00     0.057 A 
HETATM   16  C   UNL     1       8.293  -2.958  25.168  1.00  0.00     0.117 A 
HETATM   17  N   UNL     1       8.599  -3.538  26.246  1.00  0.00    -0.373 N 
HETATM   18  C   UNL     1       8.431  -4.787  25.768  1.00  0.00     0.088 A 
ATOM     19  HN  UNL     1       8.878  -3.184  27.161  1.00  0.00     0.164 HD
HETATM   20  C   UNL     1       8.066  -5.183  24.669  1.00  0.00     0.026 A 
HETATM   21  C   UNL     1       7.710  -4.456  23.586  1.00  0.00    -0.033 A 
HETATM   22  C   UNL     1       7.232  -4.950  22.182  1.00  0.00     0.050 C 
ENDBRANCH  13  15
ENDBRANCH  10  11
ENDBRANCH   1  10
BRANCH   1  23
HETATM   23  C   UNL     1       6.928  -0.346  19.449  1.00  0.00    -0.010 C 
BRANCH  23  24
HETATM   24  C   UNL     1       6.607   0.379  18.631  1.00  0.00    -0.025 C 
BRANCH  24  25
HETATM   25  C   UNL     1       5.577   0.738  18.058  1.00  0.00     0.053 C 
BRANCH  25  26
HETATM   26  C   UNL     1       4.794   1.770  18.914  1.00  0.00    -0.033 C 
HETATM   27  C   UNL     1       4.390   1.683  19.799  1.00  0.00     0.007 C 
ENDBRANCH  25  26
ENDBRANCH  24  25
ENDBRANCH  23  24
ENDBRANCH   1  23
TORSDOF 10
ENDMDL
MODEL 8
REMARK VINA RESULT:    -6.046      2.914      7.199
REMARK INTER + INTRA:          -9.888
REMARK INTER:                  -9.116
REMARK INTRA:                  -0.772
REMARK UNBOUND:                -0.838
REMARK  10 active torsions:
REMARK  status: ('A' for Active; 'I' for Inactive)
REMARK    1  A    between atoms: S_2  and  N_5 
REMARK    2  A    between atoms: C_7  and  C_8 
REMARK    3  A    between atoms: C_8  and  C_9 
REMARK    4  A    between atoms: C_9  and  C_15 
REMARK    5  A    between atoms: C_9  and  C_10 
REMARK    6  A    between atoms: C_10  and  C_11 
REMARK    7  A    between atoms: C_11  and  C_12 
REMARK    8  A    between atoms: C_12  and  C_13 
REMARK    9  A    between atoms: C_15  and  C_16 
REMARK       I    between atoms: C_16  and  N_18 
REMARK   10  A    between atoms: N_18  and  C_20 
ROOT
HETATM    1  C   UNL     1       7.952  -0.317  20.899  1.00  0.00     0.108 C 
ENDROOT
BRANCH   1   2
HETATM    2  C   UNL     1       9.147  -0.025  21.126  1.00  0.00     0.011 C 
BRANCH   2   3
HETATM    3  C   UNL     1      10.075   0.225  21.857  1.00  0.00     0.097 C 
HETATM    4  N   UNL     1      11.127  -0.006  22.448  1.00  0.00    -0.296 N 
ATOM      5  HN  UNL     1      11.840  -0.487  21.899  1.00  0.00     0.177 HD
BRANCH   4   6
HETATM    6  S   UNL     1      11.542   0.342  23.961  1.00  0.00     0.226 S 
HETATM    7  C   UNL     1      13.029  -0.344  24.228  1.00  0.00     0.186 C 
HETATM    8  O   UNL     1      11.702   1.783  24.124  1.00  0.00    -0.206 OA
HETATM    9  O   UNL     1      10.595  -0.142  24.926  1.00  0.00    -0.206 OA
ENDBRANCH   4   6
ENDBRANCH   2   3
ENDBRANCH   1   2
BRANCH   1  10
HETATM   10  C   UNL     1       7.666  -0.958  21.916  1.00  0.00    -0.071 C 
BRANCH  10  11
HETATM   11  C   UNL     1       7.439  -1.714  22.931  1.00  0.00     0.289 C 
HETATM   12  O   UNL     1       6.436  -1.544  23.439  1.00  0.00    -0.259 OA
HETATM   13  N   UNL     1       8.435  -2.552  23.187  1.00  0.00    -0.315 N 
ATOM     14  HN  UNL     1       9.273  -2.567  22.606  1.00  0.00     0.170 HD
BRANCH  13  15
HETATM   15  C   UNL     1       8.309  -3.342  24.188  1.00  0.00     0.057 A 
HETATM   16  C   UNL     1       8.528  -3.271  25.478  1.00  0.00     0.117 A 
HETATM   17  N   UNL     1       8.531  -3.752  26.645  1.00  0.00    -0.373 N 
HETATM   18  C   UNL     1       8.033  -4.952  26.287  1.00  0.00     0.088 A 
ATOM     19  HN  UNL     1       8.812  -3.365  27.546  1.00  0.00     0.164 HD
HETATM   20  C   UNL     1       7.673  -5.379  25.198  1.00  0.00     0.026 A 
HETATM   21  C   UNL     1       7.670  -4.747  24.003  1.00  0.00    -0.033 A 
HETATM   22  C   UNL     1       7.204  -5.278  22.608  1.00  0.00     0.050 C 
ENDBRANCH  13  15
ENDBRANCH  10  11
ENDBRANCH   1  10
BRANCH   1  23
HETATM   23  C   UNL     1       6.655   0.719  20.450  1.00  0.00    -0.010 C 
BRANCH  23  24
HETATM   24  C   UNL     1       6.051   0.476  19.514  1.00  0.00    -0.025 C 
BRANCH  24  25
HETATM   25  C   UNL     1       5.203   1.003  18.792  1.00  0.00     0.053 C 
BRANCH  25  26
HETATM   26  C   UNL     1       4.360   2.037  19.585  1.00  0.00    -0.033 C 
HETATM   27  C   UNL     1       3.396   2.087  19.738  1.00  0.00     0.007 C 
ENDBRANCH  25  26
ENDBRANCH  24  25
ENDBRANCH  23  24
ENDBRANCH   1  23
TORSDOF 10
ENDMDL
MODEL 9
REMARK VINA RESULT:    -5.945      3.278      5.899
REMARK INTER + INTRA:          -9.738
REMARK INTER:                  -8.937
REMARK INTRA:                  -0.800
REMARK UNBOUND:                -0.838
REMARK  10 active torsions:
REMARK  status: ('A' for Active; 'I' for Inactive)
REMARK    1  A    between atoms: S_2  and  N_5 
REMARK    2  A    between atoms: C_7  and  C_8 
REMARK    3  A    between atoms: C_8  and  C_9 
REMARK    4  A    between atoms: C_9  and  C_15 
REMARK    5  A    between atoms: C_9  and  C_10 
REMARK    6  A    between atoms: C_10  and  C_11 
REMARK    7  A    between atoms: C_11  and  C_12 
REMARK    8  A    between atoms: C_12  and  C_13 
REMARK    9  A    between atoms: C_15  and  C_16 
REMARK       I    between atoms: C_16  and  N_18 
REMARK   10  A    between atoms: N_18  and  C_20 
ROOT
HETATM    1  C   UNL     1       8.229  -1.472  22.846  1.00  0.00     0.108 C 
ENDROOT
BRANCH   1   2
HETATM    2  C   UNL     1       7.207  -1.084  22.239  1.00  0.00     0.011 C 
BRANCH   2   3
HETATM    3  C   UNL     1       6.624  -0.668  21.267  1.00  0.00     0.097 C 
HETATM    4  N   UNL     1       5.961  -0.758  20.236  1.00  0.00    -0.296 N 
ATOM      5  HN  UNL     1       5.190  -1.425  20.269  1.00  0.00     0.177 HD
BRANCH   4   6
HETATM    6  S   UNL     1       6.135   0.024  18.843  1.00  0.00     0.226 S 
HETATM    7  C   UNL     1       5.178   1.378  18.922  1.00  0.00     0.186 C 
HETATM    8  O   UNL     1       7.510   0.483  18.687  1.00  0.00    -0.206 OA
HETATM    9  O   UNL     1       5.768  -0.773  17.705  1.00  0.00    -0.206 OA
ENDBRANCH   4   6
ENDBRANCH   2   3
ENDBRANCH   1   2
BRANCH   1  10
HETATM   10  C   UNL     1       8.697  -0.397  23.236  1.00  0.00    -0.071 C 
BRANCH  10  11
HETATM   11  C   UNL     1       9.240   0.660  23.730  1.00  0.00     0.289 C 
HETATM   12  O   UNL     1       9.486   0.598  24.838  1.00  0.00    -0.259 OA
HETATM   13  N   UNL     1       9.404   1.624  22.835  1.00  0.00    -0.315 N 
ATOM     14  HN  UNL     1       9.122   1.495  21.863  1.00  0.00     0.170 HD
BRANCH  13  15
HETATM   15  C   UNL     1       9.929   2.724  23.231  1.00  0.00     0.057 A 
HETATM   16  C   UNL     1      11.146   3.197  23.354  1.00  0.00     0.117 A 
HETATM   17  N   UNL     1      11.975   4.099  23.655  1.00  0.00    -0.373 N 
HETATM   18  C   UNL     1      11.046   5.005  24.022  1.00  0.00     0.088 A 
ATOM     19  HN  UNL     1      12.994   4.132  23.630  1.00  0.00     0.164 HD
HETATM   20  C   UNL     1       9.824   4.949  24.013  1.00  0.00     0.026 A 
HETATM   21  C   UNL     1       9.029   3.930  23.616  1.00  0.00    -0.033 A 
HETATM   22  C   UNL     1       7.467   3.851  23.590  1.00  0.00     0.050 C 
ENDBRANCH  13  15
ENDBRANCH  10  11
ENDBRANCH   1  10
BRANCH   1  23
HETATM   23  C   UNL     1       8.365  -2.673  24.071  1.00  0.00    -0.010 C 
BRANCH  23  24
HETATM   24  C   UNL     1       7.763  -3.635  23.971  1.00  0.00    -0.025 C 
BRANCH  24  25
HETATM   25  C   UNL     1       7.952  -4.833  23.755  1.00  0.00     0.053 C 
BRANCH  25  26
HETATM   26  C   UNL     1       7.304  -5.265  22.411  1.00  0.00    -0.033 C 
HETATM   27  C   UNL     1       6.742  -6.035  22.197  1.00  0.00     0.007 C 
ENDBRANCH  25  26
ENDBRANCH  24  25
ENDBRANCH  23  24
ENDBRANCH   1  23
TORSDOF 10
ENDMDL
