REMARK  10 active torsions:
REMARK  status: ('A' for Active; 'I' for Inactive)
REMARK    1  A    between atoms: S_2  and  N_5 
REMARK    2  A    between atoms: C_7  and  C_8 
REMARK    3  A    between atoms: C_8  and  C_9 
REMARK    4  A    between atoms: C_9  and  C_15 
REMARK    5  A    between atoms: C_9  and  C_10 
REMARK    6  A    between atoms: C_10  and  C_11 
REMARK    7  A    between atoms: C_11  and  C_12 
REMARK    8  A    between atoms: C_12  and  C_13 
REMARK    9  A    between atoms: C_15  and  C_16 
REMARK       I    between atoms: C_16  and  N_18 
REMARK   10  A    between atoms: N_18  and  C_20 
ROOT
HETATM    1  C   UNL     1      10.277  -1.101  23.255  1.00  0.00     0.108 C 
ENDROOT
BRANCH   1   2
HETATM    2  C   UNL     1       9.429  -1.987  23.500  1.00  0.00     0.011 C 
BRANCH   2   3
HETATM    3  C   UNL     1       8.993  -2.914  24.139  1.00  0.00     0.097 C 
HETATM    4  N   UNL     1       8.123  -3.574  24.703  1.00  0.00    -0.296 N 
ATOM      5  HN  UNL     1       7.243  -3.662  24.194  1.00  0.00     0.177 HD
BRANCH   4   6
HETATM    6  S   UNL     1       8.172  -4.318  26.127  1.00  0.00     0.226 S 
HETATM    7  C   UNL     1       6.638  -4.867  26.442  1.00  0.00     0.186 C 
HETATM    8  O   UNL     1       9.038  -5.489  26.057  1.00  0.00    -0.206 OA
HETATM    9  O   UNL     1       8.617  -3.461  27.190  1.00  0.00    -0.206 OA
ENDBRANCH   4   6
ENDBRANCH   2   3
ENDBRANCH   1   2
BRANCH   1  10
HETATM   10  C   UNL     1       9.729  -0.497  22.327  1.00  0.00    -0.071 C 
BRANCH  10  11
HETATM   11  C   UNL     1       9.057   0.072  21.389  1.00  0.00     0.289 C 
HETATM   12  O   UNL     1       9.520   1.027  20.981  1.00  0.00    -0.259 OA
HETATM   13  N   UNL     1       7.943  -0.578  21.082  1.00  0.00    -0.315 N 
ATOM     14  HN  UNL     1       7.688  -1.442  21.561  1.00  0.00     0.170 HD
BRANCH  13  15
HETATM   15  C   UNL     1       7.197  -0.085  20.164  1.00  0.00     0.057 A 
HETATM   16  C   UNL     1       7.231  -0.021  18.855  1.00  0.00     0.117 A 
HETATM   17  N   UNL     1       6.761   0.319  17.735  1.00  0.00    -0.373 N 
HETATM   18  C   UNL     1       5.655   0.905  18.236  1.00  0.00     0.088 A 
ATOM     19  HN  UNL     1       7.100   0.194  16.781  1.00  0.00     0.164 HD
HETATM   20  C   UNL     1       5.257   1.014  19.388  1.00  0.00     0.026 A 
HETATM   21  C   UNL     1       5.830   0.559  20.525  1.00  0.00    -0.033 A 
HETATM   22  C   UNL     1       5.326   0.683  22.000  1.00  0.00     0.050 C 
ENDBRANCH  13  15
ENDBRANCH  10  11
ENDBRANCH   1  10
BRANCH   1  23
HETATM   23  C   UNL     1      11.026   0.004  24.340  1.00  0.00    -0.010 C 
BRANCH  23  24
HETATM   24  C   UNL     1      12.132   0.245  24.208  1.00  0.00    -0.025 C 
BRANCH  24  25
HETATM   25  C   UNL     1      13.090  -0.126  23.528  1.00  0.00     0.053 C 
BRANCH  25  26
HETATM   26  C   UNL     1      12.699  -1.325  22.622  1.00  0.00    -0.033 C 
HETATM   27  C   UNL     1      11.841  -1.777  22.503  1.00  0.00     0.007 C 
ENDBRANCH  25  26
ENDBRANCH  24  25
ENDBRANCH  23  24
ENDBRANCH   1  23
TORSDOF 10
