stable:False satoms:14 tatoms:24 sratio:0.5833333333333334
  -OEChem-07092417423D

 24 24  0     0  0  0  0  0  0999 V2000
    6.3228   -4.7617   26.6643 Cl  0  0  0  0  0  0  0  0  0  0  0  0
    8.1091   -4.3265   26.2034 S   0  0  0  0  0  0  0  0  0  0  0  0
    8.8353   -5.5598   26.0838 O   0  0  0  0  0  0  0  0  0  0  0  0
    8.5676   -3.4393   27.2207 O   0  0  0  0  0  0  0  0  0  0  0  0
    7.9194   -3.5922   24.7801 N   0  0  0  0  0  0  0  0  0  0  0  0
    8.8389   -2.8420   24.3588 C   0  0  0  0  0  0  0  0  0  0  0  0
    9.4154   -2.0594   23.9150 C   0  0  0  0  0  0  0  0  0  0  0  0
   10.2804   -1.1543   23.4130 C   0  0  0  0  0  0  0  0  0  0  0  0
   11.3336   -0.5629   23.9898 C   0  0  0  0  0  0  0  0  0  0  0  0
   13.0036    0.4503   24.3785 H   0  0  0  0  0  0  0  0  0  0  0  0
   12.5764   -0.3036   23.7945 C   0  0  0  0  0  0  0  0  0  0  0  0
   12.9917   -0.8940   23.0136 H   0  0  0  0  0  0  0  0  0  0  0  0
   11.0020   -1.3369   21.7578 H   0  0  0  0  0  0  0  0  0  0  0  0
   10.1842   -0.7901   22.1497 C   0  0  0  0  0  0  0  0  0  0  0  0
    9.2202    0.0799   21.3059 C   0  0  0  0  0  0  0  0  0  0  0  0
    9.6285    1.0893   20.8229 O   0  0  0  0  0  0  0  0  0  0  0  0
    7.9679   -0.4215   21.0729 N   0  0  0  0  0  0  0  0  0  0  0  0
    7.1575   -0.0145   20.1144 C   0  0  0  0  0  0  0  0  0  0  0  0
    7.3309   -0.1505   18.8137 N   0  0  0  0  0  0  0  0  0  0  0  0
    6.6273    0.2643   17.9783 N   0  0  0  0  0  0  0  0  0  0  0  0
    5.5593    0.8401   18.2277 C   0  0  0  0  0  0  0  0  0  0  0  0
    5.3653    0.9007   19.3258 C   0  0  0  0  0  0  0  0  0  0  0  0
    5.8857    0.5769   20.4750 C   0  0  0  0  0  0  0  0  0  0  0  0
    5.4611    0.7175   21.4372 H   0  0  0  0  0  0  0  0  0  0  0  0
 20 21  2  0  0  0  0
 19 20  1  0  0  0  0
 21 22  1  0  0  0  0
 18 19  2  0  0  0  0
 22 23  2  0  0  0  0
 18 23  1  0  0  0  0
 17 18  1  0  0  0  0
 23 24  1  0  0  0  0
 15 16  2  0  0  0  0
 15 17  1  0  0  0  0
 14 15  1  0  0  0  0
 13 14  1  0  0  0  0
  8 14  2  3  0  0  0
 11 12  1  0  0  0  0
  7  8  1  0  0  0  0
  8  9  1  0  0  0  0
  9 11  2  0  0  0  0
 10 11  1  0  0  0  0
  6  7  3  0  0  0  0
  5  6  1  0  0  0  0
  2  5  1  0  0  0  0
  2  3  2  0  0  0  0
  1  2  1  0  0  0  0
  2  4  2  0  0  0  0
M  END
> <Shapegauss>
-245.721130

$$$$
