stable:False satoms:14 tatoms:24 sratio:0.5833333333333334
  -OEChem-08062412023D

 29 29  0     0  0  0  0  0  0999 V2000
    6.1183   -5.2903   26.1652 Cl  0  0  0  0  0  0  0  0  0  0  0  0
    7.9386   -4.8178   25.9287 S   0  0  0  0  0  0  0  0  0  0  0  0
    8.6845   -6.0368   25.7858 O   0  0  0  0  0  0  0  0  0  0  0  0
    8.2814   -4.0159   27.0563 O   0  0  0  0  0  0  0  0  0  0  0  0
    7.8903   -3.9704   24.5573 N   0  0  0  0  0  0  0  0  0  0  0  0
    8.8415   -3.1878   24.2956 C   0  0  0  0  0  0  0  0  0  0  0  0
    9.4536   -2.3713   23.9787 C   0  0  0  0  0  0  0  0  0  0  0  0
   10.3575   -1.4278   23.6438 C   0  0  0  0  0  0  0  0  0  0  0  0
   11.3401   -0.8845   24.3726 C   0  0  0  0  0  0  0  0  0  0  0  0
   12.9516    0.0950   25.0129 H   0  0  0  0  0  0  0  0  0  0  0  0
   12.5940   -0.6093   24.3288 C   0  0  0  0  0  0  0  0  0  0  0  0
   13.0931   -1.1340   23.5501 H   0  0  0  0  0  0  0  0  0  0  0  0
   11.2479   -1.4748   22.0631 H   0  0  0  0  0  0  0  0  0  0  0  0
   10.3890   -0.9622   22.4109 C   0  0  0  0  0  0  0  0  0  0  0  0
    9.5095   -0.0272   21.5447 C   0  0  0  0  0  0  0  0  0  0  0  0
    9.9562    1.0184   21.1897 O   0  0  0  0  0  0  0  0  0  0  0  0
    8.2926   -0.5089   21.1434 N   0  0  0  0  0  0  0  0  0  0  0  0
    7.5818   -0.0259   20.1420 C   0  0  0  0  0  0  0  0  0  0  0  0
    7.8899   -0.0557   18.8596 N   0  0  0  0  0  0  0  0  0  0  0  0
    7.2726    0.4252   17.9919 N   0  0  0  0  0  0  0  0  0  0  0  0
    6.1794    0.9780   18.1749 C   0  0  0  0  0  0  0  0  0  0  0  0
    5.8724    0.9491   19.2483 C   0  0  0  0  0  0  0  0  0  0  0  0
    6.2742    0.5333   20.4153 C   0  0  0  0  0  0  0  0  0  0  0  0
    5.7512    0.5950   21.3365 H   0  0  0  0  0  0  0  0  0  0  0  0
    7.0550   -3.4210   24.5803 H   0  0  0  0  0  0  0  0  0  0  0  0
   10.9413   -0.5688   25.3253 H   0  0  0  0  0  0  0  0  0  0  0  0
    7.9137   -1.2853   21.6470 H   0  0  0  0  0  0  0  0  0  0  0  0
    5.5933    1.4335   17.3904 H   0  0  0  0  0  0  0  0  0  0  0  0
    4.9122    1.4317   19.3554 H   0  0  0  0  0  0  0  0  0  0  0  0
 20 21  2  0  0  0  0
 19 20  1  0  0  0  0
 21 22  1  0  0  0  0
 18 19  2  0  0  0  0
 22 23  2  0  0  0  0
 18 23  1  0  0  0  0
 17 18  1  0  0  0  0
 23 24  1  0  0  0  0
 15 16  2  0  0  0  0
 15 17  1  0  0  0  0
 14 15  1  0  0  0  0
 13 14  1  0  0  0  0
  8 14  2  3  0  0  0
 11 12  1  0  0  0  0
  7  8  1  0  0  0  0
  8  9  1  0  0  0  0
  9 11  2  0  0  0  0
 10 11  1  0  0  0  0
  6  7  3  0  0  0  0
  5  6  1  0  0  0  0
  2  5  1  0  0  0  0
  2  3  2  0  0  0  0
  1  2  1  0  0  0  0
  2  4  2  0  0  0  0
  5 25  1  0  0  0  0
  9 26  1  0  0  0  0
 17 27  1  0  0  0  0
 21 28  1  0  0  0  0
 22 29  1  0  0  0  0
M  END
> <Chemgauss4>
-10.650434

$$$$
