stable:False satoms:19 tatoms:24 sratio:0.7916666666666666
  -OEChem-07092417303D

 24 25  0     1  0  0  0  0  0999 V2000
    7.8134   -3.3617   24.1473 C   0  0  1  0  0  0  0  0  0  0  0  0
   10.3608   -0.9637   25.3938 N   0  0  0  0  0  0  0  0  0  0  0  0
    8.9446   -3.1546   25.6198 S   0  0  0  0  0  0  0  0  0  0  0  0
    9.4799   -1.7056   25.2255 C   0  0  0  0  0  0  0  0  0  0  0  0
    6.3167   -3.8110   24.8380 Cl  0  0  0  0  0  0  0  0  0  0  0  0
    8.3153   -4.1887   23.6678 H   0  0  0  0  0  0  0  0  0  0  0  0
   10.1148   -0.6579   22.9967 C   0  0  0  0  0  0  0  0  0  0  0  0
    9.6688   -1.8185   22.5797 N   0  0  0  0  0  0  0  0  0  0  0  0
   10.1891    0.4946   22.1668 C   0  0  0  0  0  0  0  0  0  0  0  0
   10.7202   -0.3352   24.2701 C   0  0  0  0  0  0  0  0  0  0  0  0
   11.8982    0.9727   24.0486 S   0  0  0  0  0  0  0  0  0  0  0  0
   11.1416    1.3482   22.5235 C   0  0  0  0  0  0  0  0  0  0  0  0
    8.4072   -2.2047   20.1531 H   0  0  0  0  0  0  0  0  0  0  0  0
    7.5599   -2.3644   22.9343 C   0  3  0  0  0  0  0  0  0  0  0  0
   11.3739    2.2307   21.9646 H   0  0  0  0  0  0  0  0  0  0  0  0
    9.5285    0.6861   21.3450 H   0  0  0  0  0  0  0  0  0  0  0  0
    6.7325   -0.7439   20.4912 C   0  0  0  0  0  0  0  0  0  0  0  0
    6.0123   -1.2428   21.1046 H   0  0  0  0  0  0  0  0  0  0  0  0
    8.8156   -0.5809   20.2601 H   0  0  0  0  0  0  0  0  0  0  0  0
    8.3764   -1.7037   22.0765 N   0  0  0  0  0  0  0  0  0  0  0  0
    6.4784   -0.8957   19.4405 H   0  0  0  0  0  0  0  0  0  0  0  0
    8.1349   -1.3038   20.6988 C   0  0  0  0  0  0  0  0  0  0  0  0
    6.5389   -2.2903   22.6587 H   0  0  0  0  0  0  0  0  0  0  0  0
    6.6621    0.3049   20.6918 H   0  0  0  0  0  0  0  0  0  0  0  0
 17 21  1  0  0  0  0
 13 22  1  0  0  0  0
 19 22  1  0  0  0  0
 17 24  1  0  0  0  0
 17 22  1  0  0  0  0
 17 18  1  0  0  0  0
 20 22  1  0  0  0  0
  9 16  1  0  0  0  0
 12 15  1  0  0  0  0
  8 20  1  0  0  0  0
 14 20  1  0  0  0  0
  9 12  2  0  0  0  0
  7  9  1  0  0  0  0
 11 12  1  0  0  0  0
  7  8  1  0  0  0  0
 14 23  1  0  0  0  0
  1 14  1  0  0  0  0
  7 10  2  0  0  0  0
  1  6  1  0  0  0  0
 10 11  1  0  0  0  0
  1  5  1  0  0  0  0
  1  3  1  0  0  0  0
  2 10  1  0  0  0  0
  2  4  1  0  0  0  0
  3  4  1  0  0  0  0
M  CHG  1  14   1
M  END
> <Shapegauss>
-154.627426

$$$$
