stable:False satoms:19 tatoms:24 sratio:0.7916666666666666
  -OEChem-08052421063D

 27 28  0     1  0  0  0  0  0999 V2000
   -8.9334   -1.7016  -24.6298 C   0  0  1  0  0  0  0  0  0  0  0  0
   -7.9804    1.7837  -23.7708 N   0  0  0  0  0  0  0  0  0  0  0  0
   -7.3837   -0.6729  -24.4534 S   0  0  0  0  0  0  0  0  0  0  0  0
   -8.1048    0.6326  -23.8899 C   0  0  0  0  0  0  0  0  0  0  0  0
   -8.5532   -3.1600  -23.8251 Cl  0  0  0  0  0  0  0  0  0  0  0  0
   -8.9398   -1.8087  -25.7042 H   0  0  0  0  0  0  0  0  0  0  0  0
  -10.3051    1.7661  -24.4747 C   0  0  0  0  0  0  0  0  0  0  0  0
  -10.3900    0.7042  -25.2395 N   0  0  0  0  0  0  0  0  0  0  0  0
  -11.4354    2.5238  -24.0615 C   0  0  0  0  0  0  0  0  0  0  0  0
   -9.1145    2.4474  -24.0158 C   0  0  0  0  0  0  0  0  0  0  0  0
   -9.4600    4.1774  -23.8286 S   0  0  0  0  0  0  0  0  0  0  0  0
  -11.1621    3.8004  -23.8191 C   0  0  0  0  0  0  0  0  0  0  0  0
  -12.7678   -0.5404  -25.8921 H   0  0  0  0  0  0  0  0  0  0  0  0
  -10.4402   -1.2998  -24.3161 C   0  0  0  0  0  2  0  0  0  0  0  0
  -11.9123    4.5200  -23.5650 H   0  0  0  0  0  0  0  0  0  0  0  0
  -12.4160    2.1135  -23.9255 H   0  0  0  0  0  0  0  0  0  0  0  0
  -13.4228   -0.9782  -23.7869 C   0  0  0  0  0  0  0  0  0  0  0  0
  -12.8882   -1.8511  -23.4768 H   0  0  0  0  0  0  0  0  0  0  0  0
  -13.1340    0.7726  -24.9140 H   0  0  0  0  0  0  0  0  0  0  0  0
  -11.2255   -0.2529  -24.6715 N   0  0  0  0  0  0  0  0  0  0  0  0
  -14.3801   -1.2760  -24.2186 H   0  0  0  0  0  0  0  0  0  0  0  0
  -12.6670   -0.2059  -24.8619 C   0  0  0  0  0  0  0  0  0  0  0  0
  -13.6300   -0.3948  -22.9140 H   0  0  0  0  0  0  0  0  0  0  0  0
   -7.2793    2.0988  -24.4105 H   0  0  0  0  0  0  0  0  0  0  0  0
   -8.2673    0.3375  -22.8428 H   0  0  0  0  0  0  0  0  0  0  0  0
   -9.0587    0.5879  -24.4358 H   0  0  0  0  0  0  0  0  0  0  0  0
   -9.4775    0.3128  -25.3583 H   0  0  0  0  0  0  0  0  0  0  0  0
 17 21  1  0  0  0  0
 13 22  1  0  0  0  0
 19 22  1  0  0  0  0
 17 23  1  0  0  0  0
 17 22  1  0  0  0  0
 17 18  1  0  0  0  0
 20 22  1  0  0  0  0
  9 16  1  0  0  0  0
 12 15  1  0  0  0  0
  8 20  1  0  0  0  0
 14 20  1  0  0  0  0
  9 12  2  0  0  0  0
  7  9  1  0  0  0  0
 11 12  1  0  0  0  0
  7  8  1  0  0  0  0
  1 14  1  0  0  0  0
  7 10  2  0  0  0  0
  1  6  1  0  0  0  0
 10 11  1  0  0  0  0
  1  5  1  0  0  0  0
  1  3  1  0  0  0  0
  2 10  1  0  0  0  0
  2  4  1  0  0  0  0
  3  4  1  0  0  0  0
  2 24  1  0  0  0  0
  4 25  1  0  0  0  0
  4 26  1  0  0  0  0
  8 27  1  0  0  0  0
M  END
> <Chemgauss4>
-7.116056

$$$$
