stable:False satoms:14 tatoms:24 sratio:0.5833333333333334
  -OEChem-07092417413D

 24 25  0     1  0  0  0  0  0999 V2000
    6.5323   -4.9359   26.5444 Cl  0  0  0  0  0  0  0  0  0  0  0  0
    8.2738   -4.3348   26.1526 S   0  0  0  0  0  0  0  0  0  0  0  0
    9.1257   -5.4858   26.0532 O   0  0  0  0  0  0  0  0  0  0  0  0
    8.5915   -3.3930   27.1611 O   0  0  0  0  0  0  0  0  0  0  0  0
    8.0851   -3.6316   24.7338 N   0  0  0  0  0  0  0  0  0  0  0  0
    8.9420   -2.8595   24.2999 C   0  0  0  0  0  0  0  0  0  0  0  0
    9.5046   -1.9967   23.8256 C   0  0  0  0  0  0  0  0  0  0  0  0
   10.2987   -1.0005   23.2901 C   0  0  0  0  0  0  0  0  0  0  0  0
   11.4768   -0.3834   23.8198 C   0  0  0  0  0  0  0  0  0  0  0  0
   11.6437    0.3686   24.5284 H   0  0  0  0  0  0  0  0  0  0  0  0
   13.5276   -0.4974   23.3780 H   0  0  0  0  0  0  0  0  0  0  0  0
   12.6104   -0.8712   23.0959 C   0  0  0  0  0  0  0  0  0  0  0  0
   12.3835   -1.5630   22.3240 H   0  0  0  0  0  0  0  0  0  0  0  0
    9.8253   -0.5567   22.2157 C   0  0  0  0  0  0  0  0  0  0  0  0
    9.0229    0.0989   21.3356 C   0  0  0  0  0  0  0  0  0  0  0  0
    9.3618    1.1991   20.9395 O   0  0  0  0  0  0  0  0  0  0  0  0
    7.9013   -0.6063   21.0919 N   0  0  0  0  0  0  0  0  0  0  0  0
    7.0947   -0.1033   20.2673 C   0  0  0  0  0  0  0  0  0  0  0  0
    6.9015    0.0103   18.9575 C   0  0  2  0  0  0  0  0  0  0  0  0
    6.0568    0.5935   17.2811 N   0  3  0  0  0  0  0  0  0  0  0  0
    5.9403    0.6073   18.2450 C   0  0  3  0  0  0  0  0  0  0  0  0
    5.3884    0.8434   19.4621 C   0  0  1  0  0  0  0  0  0  0  0  0
    5.7361    0.5582   20.6562 C   0  0  0  0  0  0  0  0  0  0  0  0
    5.3591    0.6497   21.6379 H   0  0  0  0  0  0  0  0  0  0  0  0
 20 21  1  0  0  0  0
 19 21  1  0  0  0  0
 21 22  1  0  0  0  0
 19 22  1  0  0  0  0
 18 19  1  0  0  0  0
 22 23  1  0  0  0  0
 18 23  2  0  0  0  0
 17 18  1  0  0  0  0
 23 24  1  0  0  0  0
 15 16  2  0  0  0  0
 15 17  1  0  0  0  0
 14 15  1  0  0  0  0
  8 14  2  3  0  0  0
 12 13  1  0  0  0  0
 11 12  1  0  0  0  0
  9 12  2  0  0  0  0
  8  9  1  0  0  0  0
  7  8  1  0  0  0  0
  9 10  1  0  0  0  0
  6  7  3  0  0  0  0
  5  6  1  0  0  0  0
  2  5  1  0  0  0  0
  2  3  2  0  0  0  0
  1  2  1  0  0  0  0
  2  4  2  0  0  0  0
M  CHG  1  20   1
M  END
> <Shapegauss>
-246.906525

$$$$
