stable:False satoms:14 tatoms:24 sratio:0.5833333333333334
  -OEChem-08062412133D

 33 34  0     1  0  0  0  0  0999 V2000
   -6.6153   -5.1118  -26.3488 Cl  0  0  0  0  0  0  0  0  0  0  0  0
   -8.3676   -4.6762  -25.8129 S   0  0  0  0  0  0  0  0  0  0  0  0
   -9.0683   -5.9025  -25.5569 O   0  0  0  0  0  0  0  0  0  0  0  0
   -8.8880   -3.8475  -26.8364 O   0  0  0  0  0  0  0  0  0  0  0  0
   -8.1233   -3.8585  -24.4657 N   0  0  0  0  0  0  0  0  0  0  0  0
   -9.0166   -3.1549  -23.9908 C   0  0  0  0  0  0  0  0  0  0  0  0
   -9.6253   -2.3266  -23.5120 C   0  0  0  0  0  0  0  0  0  0  0  0
  -10.4723   -1.3867  -22.9560 C   0  0  0  0  0  0  0  0  0  0  0  0
  -11.7594   -0.9393  -23.3949 C   0  0  0  0  0  0  0  0  0  0  0  0
  -12.0796   -0.2615  -24.1253 H   0  0  0  0  0  0  0  0  0  0  0  0
  -13.7307   -1.2427  -22.7347 H   0  0  0  0  0  0  0  0  0  0  0  0
  -12.7536   -1.4944  -22.5286 C   0  0  0  0  0  0  0  0  0  0  0  0
  -12.3747   -2.1016  -21.7452 H   0  0  0  0  0  0  0  0  0  0  0  0
   -9.9504   -0.8199  -21.9652 C   0  0  0  0  0  0  0  0  0  0  0  0
   -9.1464   -0.0211  -21.2144 C   0  0  0  0  0  0  0  0  0  0  0  0
   -9.5688    1.0612  -20.8506 O   0  0  0  0  0  0  0  0  0  0  0  0
   -7.9330   -0.5822  -21.0483 N   0  0  0  0  0  0  0  0  0  0  0  0
   -7.1128    0.0618  -20.3439 C   0  0  0  0  0  0  0  0  0  0  0  0
   -6.8070    0.2875  -19.0706 C   0  0  2  0  0  0  0  0  0  0  0  0
   -5.8753    1.0751  -17.5293 N   0  3  0  0  0  0  0  0  0  0  0  0
   -5.8557    1.0335  -18.4992 C   0  0  3  0  0  0  0  0  0  0  0  0
   -5.4558    1.2415  -19.7793 C   0  0  1  0  0  0  0  0  0  0  0  0
   -5.8833    0.8371  -20.9114 C   0  0  0  0  0  0  0  0  0  0  0  0
   -5.6169    0.8994  -21.9309 H   0  0  0  0  0  0  0  0  0  0  0  0
   -7.3428   -3.2563  -24.6335 H   0  0  0  0  0  0  0  0  0  0  0  0
  -10.5341   -1.2718  -21.1770 H   0  0  0  0  0  0  0  0  0  0  0  0
   -7.6971   -1.4616  -21.4618 H   0  0  0  0  0  0  0  0  0  0  0  0
   -6.1808   -0.6155  -19.0217 H   0  0  0  0  0  0  0  0  0  0  0  0
   -5.7702    0.1542  -17.1539 H   0  0  0  0  0  0  0  0  0  0  0  0
   -5.1273    1.6544  -17.2054 H   0  0  0  0  0  0  0  0  0  0  0  0
   -6.5089    1.9168  -18.5557 H   0  0  0  0  0  0  0  0  0  0  0  0
   -6.1092    2.1241  -19.8437 H   0  0  0  0  0  0  0  0  0  0  0  0
   -6.7484    1.4596  -17.2297 H   0  0  0  0  0  0  0  0  0  0  0  0
 20 21  1  0  0  0  0
 19 21  1  0  0  0  0
 21 22  1  0  0  0  0
 19 22  1  0  0  0  0
 18 19  1  0  0  0  0
 22 23  1  0  0  0  0
 18 23  2  0  0  0  0
 17 18  1  0  0  0  0
 23 24  1  0  0  0  0
 15 16  2  0  0  0  0
 15 17  1  0  0  0  0
 14 15  1  0  0  0  0
  8 14  2  3  0  0  0
 12 13  1  0  0  0  0
 11 12  1  0  0  0  0
  9 12  2  0  0  0  0
  8  9  1  0  0  0  0
  7  8  1  0  0  0  0
  9 10  1  0  0  0  0
  6  7  3  0  0  0  0
  5  6  1  0  0  0  0
  2  5  1  0  0  0  0
  2  3  2  0  0  0  0
  1  2  1  0  0  0  0
  2  4  2  0  0  0  0
  5 25  1  0  0  0  0
 14 26  1  0  0  0  0
 17 27  1  0  0  0  0
 19 28  1  0  0  0  0
 20 29  1  0  0  0  0
 20 30  1  0  0  0  0
 21 31  1  0  0  0  0
 22 32  1  0  0  0  0
 20 33  1  0  0  0  0
M  CHG  1  20   1
M  END
> <Chemgauss4>
-8.528358

$$$$
