stable:False satoms:14 tatoms:24 sratio:0.5833333333333334
  -OEChem-08062412133D

 33 34  0     1  0  0  0  0  0999 V2000
    6.7770   -5.2673   26.4853 Cl  0  0  0  0  0  0  0  0  0  0  0  0
    8.5293   -4.8317   25.9494 S   0  0  0  0  0  0  0  0  0  0  0  0
    9.2299   -6.0581   25.6934 O   0  0  0  0  0  0  0  0  0  0  0  0
    9.0496   -4.0031   26.9729 O   0  0  0  0  0  0  0  0  0  0  0  0
    8.2849   -4.0141   24.6022 N   0  0  0  0  0  0  0  0  0  0  0  0
    9.1782   -3.3104   24.1273 C   0  0  0  0  0  0  0  0  0  0  0  0
    9.7870   -2.4821   23.6485 C   0  0  0  0  0  0  0  0  0  0  0  0
   10.6340   -1.5423   23.0925 C   0  0  0  0  0  0  0  0  0  0  0  0
   11.9210   -1.0948   23.5314 C   0  0  0  0  0  0  0  0  0  0  0  0
   12.2413   -0.4170   24.2618 H   0  0  0  0  0  0  0  0  0  0  0  0
   13.8923   -1.3982   22.8712 H   0  0  0  0  0  0  0  0  0  0  0  0
   12.9152   -1.6500   22.6651 C   0  0  0  0  0  0  0  0  0  0  0  0
   12.5364   -2.2572   21.8817 H   0  0  0  0  0  0  0  0  0  0  0  0
   10.1120   -0.9754   22.1018 C   0  0  0  0  0  0  0  0  0  0  0  0
    9.3080   -0.1767   21.3509 C   0  0  0  0  0  0  0  0  0  0  0  0
    9.7305    0.9057   20.9871 O   0  0  0  0  0  0  0  0  0  0  0  0
    8.0946   -0.7377   21.1848 N   0  0  0  0  0  0  0  0  0  0  0  0
    7.2744   -0.0938   20.4804 C   0  0  0  0  0  0  0  0  0  0  0  0
    6.9687    0.1320   19.2071 C   0  0  2  0  0  0  0  0  0  0  0  0
    6.0369    0.9196   17.6658 N   0  3  0  0  0  0  0  0  0  0  0  0
    6.0173    0.8780   18.6358 C   0  0  3  0  0  0  0  0  0  0  0  0
    5.6175    1.0860   19.9158 C   0  0  1  0  0  0  0  0  0  0  0  0
    6.0450    0.6815   21.0479 C   0  0  0  0  0  0  0  0  0  0  0  0
    5.7785    0.7438   22.0674 H   0  0  0  0  0  0  0  0  0  0  0  0
    7.5044   -3.4119   24.7701 H   0  0  0  0  0  0  0  0  0  0  0  0
   10.6958   -1.4273   21.3135 H   0  0  0  0  0  0  0  0  0  0  0  0
    7.8588   -1.6171   21.5983 H   0  0  0  0  0  0  0  0  0  0  0  0
    6.3424   -0.7710   19.1582 H   0  0  0  0  0  0  0  0  0  0  0  0
    5.9319   -0.0013   17.2905 H   0  0  0  0  0  0  0  0  0  0  0  0
    5.2889    1.4989   17.3419 H   0  0  0  0  0  0  0  0  0  0  0  0
    6.6705    1.7612   18.6922 H   0  0  0  0  0  0  0  0  0  0  0  0
    6.2708    1.9686   19.9802 H   0  0  0  0  0  0  0  0  0  0  0  0
    6.9101    1.3041   17.3663 H   0  0  0  0  0  0  0  0  0  0  0  0
 20 21  1  0  0  0  0
 19 21  1  0  0  0  0
 21 22  1  0  0  0  0
 19 22  1  0  0  0  0
 18 19  1  0  0  0  0
 22 23  1  0  0  0  0
 18 23  2  0  0  0  0
 17 18  1  0  0  0  0
 23 24  1  0  0  0  0
 15 16  2  0  0  0  0
 15 17  1  0  0  0  0
 14 15  1  0  0  0  0
  8 14  2  3  0  0  0
 12 13  1  0  0  0  0
 11 12  1  0  0  0  0
  9 12  2  0  0  0  0
  8  9  1  0  0  0  0
  7  8  1  0  0  0  0
  9 10  1  0  0  0  0
  6  7  3  0  0  0  0
  5  6  1  0  0  0  0
  2  5  1  0  0  0  0
  2  3  2  0  0  0  0
  1  2  1  0  0  0  0
  2  4  2  0  0  0  0
  5 25  1  0  0  0  0
 14 26  1  0  0  0  0
 17 27  1  0  0  0  0
 19 28  1  0  0  0  0
 20 29  1  0  0  0  0
 20 30  1  0  0  0  0
 21 31  1  0  0  0  0
 22 32  1  0  0  0  0
 20 33  1  0  0  0  0
M  CHG  1  20   1
M  END
> <Chemgauss4>
-8.041588

$$$$
