stable:False satoms:17 tatoms:24 sratio:0.7083333333333334
  -OEChem-07092417303D

 24 26  0     1  0  0  0  0  0999 V2000
    6.7498   -4.4270   23.8344 H   0  0  0  0  0  0  0  0  0  0  0  0
    7.2031   -3.5674   23.3879 C   0  0  0  0  0  0  0  0  0  0  0  0
    7.4587   -2.1868   25.0102 H   0  0  0  0  0  0  0  0  0  0  0  0
    7.9655   -2.1614   21.7631 C   0  0  0  0  0  0  0  0  0  0  0  0
   11.1495   -1.0637   23.0962 N   0  0  0  0  0  0  0  0  0  0  0  0
   10.1953   -0.8716   22.3313 N   0  0  2  0  0  0  0  0  0  0  0  0
    7.6195   -3.4423   22.0190 C   0  5  3  0  0  0  0  0  0  0  0  0
    7.7469   -1.4115   22.9241 C   0  0  0  0  0  0  0  0  0  0  0  0
   10.0216    0.4359   24.4746 C   0  0  0  0  0  0  0  0  0  0  0  0
   11.0811   -0.1861   24.1500 N   0  0  0  0  0  0  0  0  0  0  0  0
   11.8799   -0.1387   24.7478 H   0  0  0  0  0  0  0  0  0  0  0  0
    7.7038   -4.2246   21.3013 H   0  0  0  0  0  0  0  0  0  0  0  0
   10.3632   -0.3806   20.2760 H   0  0  0  0  0  0  0  0  0  0  0  0
    7.4685   -2.3612   23.9462 C   0  0  0  0  0  0  0  0  0  0  0  0
    9.4922    1.2727   22.0835 H   0  0  0  0  0  0  0  0  0  0  0  0
    9.6895   -0.6115   21.0898 C   0  0  2  0  0  0  0  0  0  0  0  0
    9.2587    0.2108   22.0896 C   0  0  1  0  0  0  0  0  0  0  0  0
    7.1015    0.3909   21.8122 H   0  0  0  0  0  0  0  0  0  0  0  0
    8.7933   -2.1547   19.7719 H   0  0  0  0  0  0  0  0  0  0  0  0
    8.4655   -1.4579   20.5180 C   0  0  0  0  0  0  0  0  0  0  0  0
    7.7821    0.0634   22.5797 C   0  0  0  0  0  0  0  0  0  0  0  0
    7.5567    0.6569   23.4527 H   0  0  0  0  0  0  0  0  0  0  0  0
    7.7309   -0.7820   20.1004 H   0  0  0  0  0  0  0  0  0  0  0  0
    9.1071    1.1081   24.5366 O   0  0  0  0  0  0  0  0  0  0  0  0
 19 20  1  0  0  0  0
 20 23  1  0  0  0  0
 13 16  1  0  0  0  0
 16 20  1  0  0  0  0
  4 20  1  0  0  0  0
 16 17  1  0  0  0  0
  6 16  1  0  0  0  0
  7 12  1  0  0  0  0
  4  7  1  0  0  0  0
  4  8  2  0  0  0  0
 18 21  1  0  0  0  0
  2  7  1  0  0  0  0
 15 17  1  0  0  0  0
  6 17  1  0  0  0  0
 17 21  1  0  0  0  0
  5  6  1  0  0  0  0
  8 21  1  0  0  0  0
 21 22  1  0  0  0  0
  8 14  1  0  0  0  0
  5 10  1  0  0  0  0
  1  2  1  0  0  0  0
  2 14  2  0  0  0  0
  3 14  1  0  0  0  0
  9 10  1  0  0  0  0
 10 11  1  0  0  0  0
  9 24  2  0  0  0  0
M  CHG  1   7  -1
M  END
> <Shapegauss>
-125.356148

$$$$
