MODEL 1
REMARK VINA RESULT:    -5.545      0.000      0.000
REMARK INTER + INTRA:          -6.354
REMARK INTER:                  -6.194
REMARK INTRA:                  -0.160
REMARK UNBOUND:                -0.160
REMARK  2 active torsions:
REMARK  status: ('A' for Active; 'I' for Inactive)
REMARK    1  A    between atoms: N_3  and  N_9 
REMARK    2  A    between atoms: C_8  and  N_9 
ROOT
HETATM    1  C   UNL     1      13.468  -0.971  23.930  1.00  0.00     0.001 C 
HETATM    2  C   UNL     1      11.315  -1.185  23.211  1.00  0.00    -0.050 C 
HETATM    3  N   UNL     1      10.594   2.106  21.882  1.00  0.00    -0.242 N 
ATOM      4  HN  UNL     1      10.995   2.234  20.952  1.00  0.00     0.208 HD
HETATM    5  N   UNL     1      10.183   1.033  22.340  1.00  0.00    -0.299 N 
HETATM    6  C   UNL     1      12.573  -1.641  23.027  1.00  0.00     0.007 C 
HETATM    7  C   UNL     1      11.338  -0.250  24.252  1.00  0.00    -0.050 C 
HETATM    8  C   UNL     1      12.715  -0.013  24.522  1.00  0.00     0.007 C 
HETATM    9  C   UNL     1       9.391  -0.076  22.262  1.00  0.00     0.133 A 
HETATM   10  C   UNL     1       9.303   0.635  23.424  1.00  0.00     0.133 A 
HETATM   11  C   UNL     1       9.990  -1.524  22.558  1.00  0.00     0.068 C 
HETATM   12  C   UNL     1       9.922   0.013  24.717  1.00  0.00     0.068 C 
ENDROOT
BRANCH   3  13
HETATM   13  N   UNL     1      10.430   3.101  22.815  1.00  0.00    -0.263 N 
HETATM   14  H   UNL     1       9.496   3.417  22.975  1.00  0.00     0.191 HD
BRANCH  13  15
HETATM   15  C   UNL     1      11.399   3.721  23.354  1.00  0.00     0.369 C 
HETATM   16  O   UNL     1      12.079   4.429  23.927  1.00  0.00    -0.282 OA
ENDBRANCH  13  15
ENDBRANCH   3  13
TORSDOF 2
ENDMDL
MODEL 2
REMARK VINA RESULT:    -5.398     11.382     12.788
REMARK INTER + INTRA:          -6.190
REMARK INTER:                  -5.986
REMARK INTRA:                  -0.204
REMARK UNBOUND:                -0.160
REMARK  2 active torsions:
REMARK  status: ('A' for Active; 'I' for Inactive)
REMARK    1  A    between atoms: N_3  and  N_9 
REMARK    2  A    between atoms: C_8  and  N_9 
ROOT
HETATM    1  C   UNL     1      24.554  -0.256  22.727  1.00  0.00     0.001 C 
HETATM    2  C   UNL     1      23.011   0.220  24.336  1.00  0.00    -0.050 C 
HETATM    3  N   UNL     1      23.242  -2.654  26.528  1.00  0.00    -0.242 N 
ATOM      4  HN  UNL     1      24.050  -2.592  27.148  1.00  0.00     0.208 HD
HETATM    5  N   UNL     1      22.590  -1.689  26.107  1.00  0.00    -0.299 N 
HETATM    6  C   UNL     1      24.168   0.641  23.780  1.00  0.00     0.007 C 
HETATM    7  C   UNL     1      22.588  -0.922  23.648  1.00  0.00    -0.050 C 
HETATM    8  C   UNL     1      23.673  -1.283  22.802  1.00  0.00     0.007 C 
HETATM    9  C   UNL     1      21.865  -0.552  26.316  1.00  0.00     0.133 A 
HETATM   10  C   UNL     1      21.271  -1.499  25.532  1.00  0.00     0.133 A 
HETATM   11  C   UNL     1      22.150   0.762  25.459  1.00  0.00     0.068 C 
HETATM   12  C   UNL     1      21.144  -1.211  24.000  1.00  0.00     0.068 C 
ENDROOT
BRANCH   3  13
HETATM   13  N   UNL     1      22.711  -3.821  26.036  1.00  0.00    -0.263 N 
HETATM   14  H   UNL     1      21.946  -4.216  26.542  1.00  0.00     0.191 HD
BRANCH  13  15
HETATM   15  C   UNL     1      23.234  -4.479  25.083  1.00  0.00     0.369 C 
HETATM   16  O   UNL     1      23.574  -4.899  24.082  1.00  0.00    -0.282 OA
ENDBRANCH  13  15
ENDBRANCH   3  13
TORSDOF 2
ENDMDL
MODEL 3
REMARK VINA RESULT:    -5.079      7.269      8.612
REMARK INTER + INTRA:          -5.833
REMARK INTER:                  -5.728
REMARK INTRA:                  -0.105
REMARK UNBOUND:                -0.160
REMARK  2 active torsions:
REMARK  status: ('A' for Active; 'I' for Inactive)
REMARK    1  A    between atoms: N_3  and  N_9 
REMARK    2  A    between atoms: C_8  and  N_9 
ROOT
HETATM    1  C   UNL     1       6.128  -6.045  22.849  1.00  0.00     0.001 C 
HETATM    2  C   UNL     1       7.375  -4.482  23.945  1.00  0.00    -0.050 C 
HETATM    3  N   UNL     1       7.878  -6.007  27.192  1.00  0.00    -0.242 N 
ATOM      4  HN  UNL     1       8.612  -6.716  27.166  1.00  0.00     0.208 HD
HETATM    5  N   UNL     1       7.847  -4.987  26.491  1.00  0.00    -0.299 N 
HETATM    6  C   UNL     1       7.369  -5.321  22.886  1.00  0.00     0.007 C 
HETATM    7  C   UNL     1       6.143  -4.596  24.599  1.00  0.00    -0.050 C 
HETATM    8  C   UNL     1       5.495  -5.712  24.000  1.00  0.00     0.007 C 
HETATM    9  C   UNL     1       8.416  -3.837  26.026  1.00  0.00     0.133 A 
HETATM   10  C   UNL     1       7.161  -3.709  26.546  1.00  0.00     0.133 A 
HETATM   11  C   UNL     1       8.396  -3.493  24.469  1.00  0.00     0.068 C 
HETATM   12  C   UNL     1       5.979  -3.437  25.559  1.00  0.00     0.068 C 
ENDROOT
BRANCH   3  13
HETATM   13  N   UNL     1       6.775  -6.039  28.010  1.00  0.00    -0.263 N 
HETATM   14  H   UNL     1       6.114  -5.298  27.903  1.00  0.00     0.191 HD
BRANCH  13  15
HETATM   15  C   UNL     1       6.641  -6.860  28.970  1.00  0.00     0.369 C 
HETATM   16  O   UNL     1       6.773  -7.635  29.791  1.00  0.00    -0.282 OA
ENDBRANCH  13  15
ENDBRANCH   3  13
TORSDOF 2
ENDMDL
MODEL 4
REMARK VINA RESULT:    -4.805      3.508      4.598
REMARK INTER + INTRA:          -5.527
REMARK INTER:                  -5.426
REMARK INTRA:                  -0.101
REMARK UNBOUND:                -0.160
REMARK  2 active torsions:
REMARK  status: ('A' for Active; 'I' for Inactive)
REMARK    1  A    between atoms: N_3  and  N_9 
REMARK    2  A    between atoms: C_8  and  N_9 
ROOT
HETATM    1  C   UNL     1      13.286  -1.173  23.668  1.00  0.00     0.001 C 
HETATM    2  C   UNL     1      11.536   0.252  23.995  1.00  0.00    -0.050 C 
HETATM    3  N   UNL     1       8.871  -1.987  24.998  1.00  0.00    -0.242 N 
ATOM      4  HN  UNL     1       8.958  -2.262  25.977  1.00  0.00     0.208 HD
HETATM    5  N   UNL     1       9.222  -0.897  24.530  1.00  0.00    -0.299 N 
HETATM    6  C   UNL     1      12.776  -0.065  24.428  1.00  0.00     0.007 C 
HETATM    7  C   UNL     1      11.217  -0.595  22.928  1.00  0.00    -0.050 C 
HETATM    8  C   UNL     1      12.246  -1.578  22.900  1.00  0.00     0.007 C 
HETATM    9  C   UNL     1       9.190   0.468  24.521  1.00  0.00     0.133 A 
HETATM   10  C   UNL     1       8.927  -0.140  23.327  1.00  0.00     0.133 A 
HETATM   11  C   UNL     1      10.538   1.312  24.415  1.00  0.00     0.068 C 
HETATM   12  C   UNL     1      10.007  -0.048  22.201  1.00  0.00     0.068 C 
ENDROOT
BRANCH   3  13
HETATM   13  N   UNL     1       8.348  -2.773  24.000  1.00  0.00    -0.263 N 
HETATM   14  H   UNL     1       7.882  -2.300  23.254  1.00  0.00     0.191 HD
BRANCH  13  15
HETATM   15  C   UNL     1       8.300  -4.041  24.061  1.00  0.00     0.369 C 
HETATM   16  O   UNL     1       8.083  -5.149  23.926  1.00  0.00    -0.282 OA
ENDBRANCH  13  15
ENDBRANCH   3  13
TORSDOF 2
ENDMDL
MODEL 5
REMARK VINA RESULT:    -4.701     24.318     25.358
REMARK INTER + INTRA:          -5.411
REMARK INTER:                  -5.248
REMARK INTRA:                  -0.163
REMARK UNBOUND:                -0.160
REMARK  2 active torsions:
REMARK  status: ('A' for Active; 'I' for Inactive)
REMARK    1  A    between atoms: N_3  and  N_9 
REMARK    2  A    between atoms: C_8  and  N_9 
ROOT
HETATM    1  C   UNL     1      24.328 -20.301  14.160  1.00  0.00     0.001 C 
HETATM    2  C   UNL     1      22.255 -20.018  13.254  1.00  0.00    -0.050 C 
HETATM    3  N   UNL     1      20.149 -19.694  16.183  1.00  0.00    -0.242 N 
ATOM      4  HN  UNL     1      20.207 -18.759  16.588  1.00  0.00     0.208 HD
HETATM    5  N   UNL     1      20.261 -19.958  14.979  1.00  0.00    -0.299 N 
HETATM    6  C   UNL     1      23.488 -19.472  13.342  1.00  0.00     0.007 C 
HETATM    7  C   UNL     1      22.262 -21.224  13.964  1.00  0.00    -0.050 C 
HETATM    8  C   UNL     1      23.501 -21.249  14.664  1.00  0.00     0.007 C 
HETATM    9  C   UNL     1      19.890 -19.785  13.677  1.00  0.00     0.133 A 
HETATM   10  C   UNL     1      19.903 -21.075  14.123  1.00  0.00     0.133 A 
HETATM   11  C   UNL     1      20.989 -19.594  12.538  1.00  0.00     0.068 C 
HETATM   12  C   UNL     1      21.029 -22.024  13.600  1.00  0.00     0.068 C 
ENDROOT
BRANCH   3  13
HETATM   13  N   UNL     1      19.937 -20.851  16.893  1.00  0.00    -0.263 N 
HETATM   14  H   UNL     1      18.994 -21.179  16.946  1.00  0.00     0.191 HD
BRANCH  13  15
HETATM   15  C   UNL     1      20.835 -21.420  17.588  1.00  0.00     0.369 C 
HETATM   16  O   UNL     1      21.495 -21.847  18.410  1.00  0.00    -0.282 OA
ENDBRANCH  13  15
ENDBRANCH   3  13
TORSDOF 2
ENDMDL
MODEL 6
REMARK VINA RESULT:    -4.471      2.801      4.110
REMARK INTER + INTRA:          -5.154
REMARK INTER:                  -5.019
REMARK INTRA:                  -0.135
REMARK UNBOUND:                -0.160
REMARK  2 active torsions:
REMARK  status: ('A' for Active; 'I' for Inactive)
REMARK    1  A    between atoms: N_3  and  N_9 
REMARK    2  A    between atoms: C_8  and  N_9 
ROOT
HETATM    1  C   UNL     1       8.449   1.468  25.176  1.00  0.00     0.001 C 
HETATM    2  C   UNL     1      10.042  -0.018  24.502  1.00  0.00    -0.050 C 
HETATM    3  N   UNL     1       9.821   0.170  20.891  1.00  0.00    -0.242 N 
ATOM      4  HN  UNL     1      10.297   0.995  20.527  1.00  0.00     0.208 HD
HETATM    5  N   UNL     1      10.157  -0.458  21.904  1.00  0.00    -0.299 N 
HETATM    6  C   UNL     1       9.848   1.139  25.173  1.00  0.00     0.007 C 
HETATM    7  C   UNL     1       8.794  -0.497  24.089  1.00  0.00    -0.050 C 
HETATM    8  C   UNL     1       7.873   0.554  24.357  1.00  0.00     0.007 C 
HETATM    9  C   UNL     1      11.086  -1.139  22.636  1.00  0.00     0.133 A 
HETATM   10  C   UNL     1       9.900  -1.784  22.436  1.00  0.00     0.133 A 
HETATM   11  C   UNL     1      11.281  -0.831  24.188  1.00  0.00     0.068 C 
HETATM   12  C   UNL     1       8.933  -1.940  23.654  1.00  0.00     0.068 C 
ENDROOT
BRANCH   3  13
HETATM   13  N   UNL     1       8.709  -0.412  20.333  1.00  0.00    -0.263 N 
HETATM   14  H   UNL     1       8.804  -1.358  20.025  1.00  0.00     0.191 HD
BRANCH  13  15
HETATM   15  C   UNL     1       7.646   0.228  20.062  1.00  0.00     0.369 C 
HETATM   16  O   UNL     1       6.766   0.758  19.575  1.00  0.00    -0.282 OA
ENDBRANCH  13  15
ENDBRANCH   3  13
TORSDOF 2
ENDMDL
MODEL 7
REMARK VINA RESULT:    -4.359      5.802      7.460
REMARK INTER + INTRA:          -5.029
REMARK INTER:                  -4.923
REMARK INTRA:                  -0.106
REMARK UNBOUND:                -0.160
REMARK  2 active torsions:
REMARK  status: ('A' for Active; 'I' for Inactive)
REMARK    1  A    between atoms: N_3  and  N_9 
REMARK    2  A    between atoms: C_8  and  N_9 
ROOT
HETATM    1  C   UNL     1       3.795   2.650  20.895  1.00  0.00     0.001 C 
HETATM    2  C   UNL     1       5.153   1.622  19.379  1.00  0.00    -0.050 C 
HETATM    3  N   UNL     1       5.499  -1.709  20.759  1.00  0.00    -0.242 N 
ATOM      4  HN  UNL     1       4.680  -2.285  20.562  1.00  0.00     0.208 HD
HETATM    5  N   UNL     1       5.934  -0.813  20.023  1.00  0.00    -0.299 N 
HETATM    6  C   UNL     1       3.948   2.211  19.536  1.00  0.00     0.007 C 
HETATM    7  C   UNL     1       5.835   1.695  20.599  1.00  0.00    -0.050 C 
HETATM    8  C   UNL     1       4.878   2.158  21.545  1.00  0.00     0.007 C 
HETATM    9  C   UNL     1       6.387  -0.374  18.813  1.00  0.00     0.133 A 
HETATM   10  C   UNL     1       7.194  -0.107  19.880  1.00  0.00     0.133 A 
HETATM   11  C   UNL     1       5.844   0.989  18.189  1.00  0.00     0.068 C 
HETATM   12  C   UNL     1       7.297   1.372  20.374  1.00  0.00     0.068 C 
ENDROOT
BRANCH   3  13
HETATM   13  N   UNL     1       6.285  -1.808  21.881  1.00  0.00    -0.263 N 
HETATM   14  H   UNL     1       6.494  -0.957  22.360  1.00  0.00     0.191 HD
BRANCH  13  15
HETATM   15  C   UNL     1       6.864  -2.882  22.235  1.00  0.00     0.369 C 
HETATM   16  O   UNL     1       7.384  -3.891  22.299  1.00  0.00    -0.282 OA
ENDBRANCH  13  15
ENDBRANCH   3  13
TORSDOF 2
ENDMDL
MODEL 8
REMARK VINA RESULT:    -4.353      4.460      6.249
REMARK INTER + INTRA:          -5.022
REMARK INTER:                  -4.918
REMARK INTRA:                  -0.104
REMARK UNBOUND:                -0.160
REMARK  2 active torsions:
REMARK  status: ('A' for Active; 'I' for Inactive)
REMARK    1  A    between atoms: N_3  and  N_9 
REMARK    2  A    between atoms: C_8  and  N_9 
ROOT
HETATM    1  C   UNL     1       5.146   1.147  19.160  1.00  0.00     0.001 C 
HETATM    2  C   UNL     1       7.167   0.520  20.009  1.00  0.00    -0.050 C 
HETATM    3  N   UNL     1       6.275  -0.862  23.236  1.00  0.00    -0.242 N 
ATOM      4  HN  UNL     1       5.907  -1.810  23.151  1.00  0.00     0.208 HD
HETATM    5  N   UNL     1       7.131  -0.361  22.495  1.00  0.00    -0.299 N 
HETATM    6  C   UNL     1       6.294   0.298  19.002  1.00  0.00     0.007 C 
HETATM    7  C   UNL     1       6.648   1.535  20.820  1.00  0.00    -0.050 C 
HETATM    8  C   UNL     1       5.315   1.744  20.365  1.00  0.00     0.007 C 
HETATM    9  C   UNL     1       8.361  -0.379  21.904  1.00  0.00     0.133 A 
HETATM   10  C   UNL     1       8.041   0.767  22.574  1.00  0.00     0.133 A 
HETATM   11  C   UNL     1       8.520  -0.071  20.348  1.00  0.00     0.068 C 
HETATM   12  C   UNL     1       7.738   2.050  21.735  1.00  0.00     0.068 C 
ENDROOT
BRANCH   3  13
HETATM   13  N   UNL     1       5.896   0.051  24.189  1.00  0.00    -0.263 N 
HETATM   14  H   UNL     1       6.317   0.955  24.137  1.00  0.00     0.191 HD
BRANCH  13  15
HETATM   15  C   UNL     1       5.172  -0.243  25.191  1.00  0.00     0.369 C 
HETATM   16  O   UNL     1       4.332  -0.431  25.933  1.00  0.00    -0.282 OA
ENDBRANCH  13  15
ENDBRANCH   3  13
TORSDOF 2
ENDMDL
MODEL 9
REMARK VINA RESULT:    -4.287     24.649     25.750
REMARK INTER + INTRA:          -4.949
REMARK INTER:                  -4.834
REMARK INTRA:                  -0.115
REMARK UNBOUND:                -0.160
REMARK  2 active torsions:
REMARK  status: ('A' for Active; 'I' for Inactive)
REMARK    1  A    between atoms: N_3  and  N_9 
REMARK    2  A    between atoms: C_8  and  N_9 
ROOT
HETATM    1  C   UNL     1      21.649 -19.505  11.816  1.00  0.00     0.001 C 
HETATM    2  C   UNL     1      20.321 -20.124  13.563  1.00  0.00    -0.050 C 
HETATM    3  N   UNL     1      22.667 -20.296  16.317  1.00  0.00    -0.242 N 
ATOM      4  HN  UNL     1      22.886 -19.370  16.685  1.00  0.00     0.208 HD
HETATM    5  N   UNL     1      21.582 -20.630  15.824  1.00  0.00    -0.299 N 
HETATM    6  C   UNL     1      20.538 -19.148  12.654  1.00  0.00     0.007 C 
HETATM    7  C   UNL     1      21.239 -21.152  13.325  1.00  0.00    -0.050 C 
HETATM    8  C   UNL     1      22.157 -20.632  12.370  1.00  0.00     0.007 C 
HETATM    9  C   UNL     1      20.224 -20.753  15.892  1.00  0.00     0.133 A 
HETATM   10  C   UNL     1      20.907 -21.886  15.553  1.00  0.00     0.133 A 
HETATM   11  C   UNL     1      19.305 -20.289  14.675  1.00  0.00     0.068 C 
HETATM   12  C   UNL     1      20.806 -22.392  14.078  1.00  0.00     0.068 C 
ENDROOT
BRANCH   3  13
HETATM   13  N   UNL     1      23.533 -21.362  16.294  1.00  0.00    -0.263 N 
HETATM   14  H   UNL     1      23.555 -21.905  15.456  1.00  0.00     0.191 HD
BRANCH  13  15
HETATM   15  C   UNL     1      24.173 -21.765  17.315  1.00  0.00     0.369 C 
HETATM   16  O   UNL     1      24.510 -22.161  18.326  1.00  0.00    -0.282 OA
ENDBRANCH  13  15
ENDBRANCH   3  13
TORSDOF 2
ENDMDL
