MODEL 1
REMARK VINA RESULT:    -6.514      0.000      0.000
REMARK INTER + INTRA:          -9.910
REMARK INTER:                  -9.179
REMARK INTRA:                  -0.730
REMARK UNBOUND:                -0.730
REMARK  7 active torsions:
REMARK  status: ('A' for Active; 'I' for Inactive)
REMARK    1  A    between atoms: S_2  and  N_5 
REMARK    2  A    between atoms: N_5  and  C_7 
REMARK    3  A    between atoms: C_7  and  C_8 
REMARK    4  A    between atoms: C_9  and  S_10 
REMARK    5  A    between atoms: S_10  and  C_11 
REMARK    6  A    between atoms: C_13  and  C_14 
REMARK       I    between atoms: C_14  and  N_16 
REMARK    7  A    between atoms: N_16  and  C_18 
ROOT
HETATM    1  C   UNL     1       9.121  -2.289  23.345  1.00  0.00     0.062 A 
HETATM    2  C   UNL     1       9.735  -1.129  23.359  1.00  0.00     0.039 A 
HETATM    3  C   UNL     1       9.309  -0.815  22.338  1.00  0.00     0.071 A 
ENDROOT
BRANCH   3   4
HETATM    4  C   UNL     1       8.718  -0.131  21.287  1.00  0.00     0.259 C 
HETATM    5  O   UNL     1       9.308   0.731  20.802  1.00  0.00    -0.267 OA
HETATM    6  N   UNL     1       7.499  -0.588  21.026  1.00  0.00    -0.320 N 
ATOM      7  HN  UNL     1       7.197  -1.458  21.465  1.00  0.00     0.169 HD
BRANCH   6   8
HETATM    8  C   UNL     1       6.679   0.028  20.237  1.00  0.00     0.071 A 
HETATM    9  C   UNL     1       6.278  -0.256  18.970  1.00  0.00     0.095 A 
HETATM   10  N   UNL     1       5.704  -0.456  17.619  1.00  0.00    -0.345 N 
HETATM   11  C   UNL     1       5.427   0.400  18.298  1.00  0.00     0.104 A 
ATOM     12  HN  UNL     1       5.622  -0.973  16.744  1.00  0.00     0.167 HD
HETATM   13  S   UNL     1       4.937   1.750  19.299  1.00  0.00    -0.080 SA
HETATM   14  C   UNL     1       5.947   1.155  20.492  1.00  0.00     0.083 A 
ENDBRANCH   6   8
ENDBRANCH   3   4
BRANCH   1  15
HETATM   15  C   UNL     1       8.755  -3.294  23.729  1.00  0.00    -0.017 C 
BRANCH  15  16
HETATM   16  N   UNL     1       8.294  -4.320  23.838  1.00  0.00    -0.239 N 
ATOM     17  HN  UNL     1       8.816  -4.896  24.499  1.00  0.00     0.189 HD
BRANCH  16  18
HETATM   18  S   UNL     1       7.044  -5.107  23.235  1.00  0.00     0.301 S 
HETATM   19 BR   UNL     1       5.999  -3.705  22.322  1.00  0.00     0.082 Br
HETATM   20  O   UNL     1       7.459  -6.022  22.200  1.00  0.00    -0.193 OA
HETATM   21  O   UNL     1       6.195  -5.636  24.242  1.00  0.00    -0.193 OA
ENDBRANCH  16  18
ENDBRANCH  15  16
ENDBRANCH   1  15
BRANCH   2  22
HETATM   22  S   UNL     1      10.457  -0.234  24.692  1.00  0.00    -0.117 SA
BRANCH  22  23
HETATM   23  C   UNL     1      11.722   0.389  23.844  1.00  0.00     0.148 C 
HETATM   24  C   UNL     1      12.818  -0.147  24.241  1.00  0.00    -0.068 C 
ENDBRANCH  22  23
ENDBRANCH   2  22
TORSDOF 7
ENDMDL
MODEL 2
REMARK VINA RESULT:    -6.169      4.405      6.248
REMARK INTER + INTRA:          -9.423
REMARK INTER:                  -8.762
REMARK INTRA:                  -0.662
REMARK UNBOUND:                -0.730
REMARK  7 active torsions:
REMARK  status: ('A' for Active; 'I' for Inactive)
REMARK    1  A    between atoms: S_2  and  N_5 
REMARK    2  A    between atoms: N_5  and  C_7 
REMARK    3  A    between atoms: C_7  and  C_8 
REMARK    4  A    between atoms: C_9  and  S_10 
REMARK    5  A    between atoms: S_10  and  C_11 
REMARK    6  A    between atoms: C_13  and  C_14 
REMARK       I    between atoms: C_14  and  N_16 
REMARK    7  A    between atoms: N_16  and  C_18 
ROOT
HETATM    1  C   UNL     1       7.314  -4.795  25.774  1.00  0.00     0.062 A 
HETATM    2  C   UNL     1       6.787  -4.570  24.593  1.00  0.00     0.039 A 
HETATM    3  C   UNL     1       7.479  -3.677  24.380  1.00  0.00     0.071 A 
ENDROOT
BRANCH   3   4
HETATM    4  C   UNL     1       8.361  -2.773  23.807  1.00  0.00     0.259 C 
HETATM    5  O   UNL     1       8.492  -2.796  22.663  1.00  0.00    -0.267 OA
HETATM    6  N   UNL     1       8.957  -2.019  24.722  1.00  0.00    -0.320 N 
ATOM      7  HN  UNL     1       8.606  -2.040  25.680  1.00  0.00     0.169 HD
BRANCH   6   8
HETATM    8  C   UNL     1       9.967  -1.258  24.447  1.00  0.00     0.071 A 
HETATM    9  C   UNL     1      11.110  -1.508  23.756  1.00  0.00     0.095 A 
HETATM   10  N   UNL     1      12.374  -1.604  22.991  1.00  0.00    -0.345 N 
HETATM   11  C   UNL     1      12.024  -0.666  23.507  1.00  0.00     0.104 A 
ATOM     12  HN  UNL     1      13.047  -2.123  22.427  1.00  0.00     0.167 HD
HETATM   13  S   UNL     1      11.541   0.833  24.272  1.00  0.00    -0.080 SA
HETATM   14  C   UNL     1      10.140   0.062  24.763  1.00  0.00     0.083 A 
ENDBRANCH   6   8
ENDBRANCH   3   4
BRANCH   1  15
HETATM   15  C   UNL     1       7.508  -5.327  26.759  1.00  0.00    -0.017 C 
BRANCH  15  16
HETATM   16  N   UNL     1       7.492  -6.034  27.642  1.00  0.00    -0.239 N 
ATOM     17  HN  UNL     1       8.339  -6.601  27.682  1.00  0.00     0.189 HD
BRANCH  16  18
HETATM   18  S   UNL     1       6.497  -6.380  28.840  1.00  0.00     0.301 S 
HETATM   19 BR   UNL     1       4.741  -6.562  27.958  1.00  0.00     0.082 Br
HETATM   20  O   UNL     1       6.791  -7.677  29.399  1.00  0.00    -0.193 OA
HETATM   21  O   UNL     1       6.363  -5.310  29.764  1.00  0.00    -0.193 OA
ENDBRANCH  16  18
ENDBRANCH  15  16
ENDBRANCH   1  15
BRANCH   2  22
HETATM   22  S   UNL     1       5.802  -5.605  23.566  1.00  0.00    -0.117 SA
BRANCH  22  23
HETATM   23  C   UNL     1       6.981  -5.978  22.480  1.00  0.00     0.148 C 
HETATM   24  C   UNL     1       6.590  -5.680  21.294  1.00  0.00    -0.068 C 
ENDBRANCH  22  23
ENDBRANCH   2  22
TORSDOF 7
ENDMDL
MODEL 3
REMARK VINA RESULT:    -5.892     14.671     15.987
REMARK INTER + INTRA:          -9.034
REMARK INTER:                  -8.125
REMARK INTRA:                  -0.909
REMARK UNBOUND:                -0.730
REMARK  7 active torsions:
REMARK  status: ('A' for Active; 'I' for Inactive)
REMARK    1  A    between atoms: S_2  and  N_5 
REMARK    2  A    between atoms: N_5  and  C_7 
REMARK    3  A    between atoms: C_7  and  C_8 
REMARK    4  A    between atoms: C_9  and  S_10 
REMARK    5  A    between atoms: S_10  and  C_11 
REMARK    6  A    between atoms: C_13  and  C_14 
REMARK       I    between atoms: C_14  and  N_16 
REMARK    7  A    between atoms: N_16  and  C_18 
ROOT
HETATM    1  C   UNL     1      24.096  -3.260  23.390  1.00  0.00     0.062 A 
HETATM    2  C   UNL     1      23.681  -2.014  23.419  1.00  0.00     0.039 A 
HETATM    3  C   UNL     1      23.557  -1.958  22.277  1.00  0.00     0.071 A 
ENDROOT
BRANCH   3   4
HETATM    4  C   UNL     1      23.085  -1.752  20.990  1.00  0.00     0.259 C 
HETATM    5  O   UNL     1      21.945  -1.770  20.823  1.00  0.00    -0.267 OA
HETATM    6  N   UNL     1      24.075  -1.593  20.121  1.00  0.00    -0.320 N 
ATOM      7  HN  UNL     1      25.022  -1.461  20.476  1.00  0.00     0.169 HD
BRANCH   6   8
HETATM    8  C   UNL     1      23.886  -1.598  18.841  1.00  0.00     0.071 A 
HETATM    9  C   UNL     1      23.549  -0.598  17.984  1.00  0.00     0.095 A 
HETATM   10  N   UNL     1      23.242   0.386  16.922  1.00  0.00    -0.345 N 
HETATM   11  C   UNL     1      23.430  -0.708  16.728  1.00  0.00     0.104 A 
ATOM     12  HN  UNL     1      23.024   1.332  16.606  1.00  0.00     0.167 HD
HETATM   13  S   UNL     1      23.725  -2.391  16.346  1.00  0.00    -0.080 SA
HETATM   14  C   UNL     1      24.011  -2.649  17.973  1.00  0.00     0.083 A 
ENDBRANCH   6   8
ENDBRANCH   3   4
BRANCH   1  15
HETATM   15  C   UNL     1      24.421  -4.273  23.787  1.00  0.00    -0.017 C 
BRANCH  15  16
HETATM   16  N   UNL     1      24.479  -5.278  24.302  1.00  0.00    -0.239 N 
ATOM     17  HN  UNL     1      24.865  -5.992  23.685  1.00  0.00     0.189 HD
BRANCH  16  18
HETATM   18  S   UNL     1      24.118  -5.876  25.737  1.00  0.00     0.301 S 
HETATM   19 BR   UNL     1      25.694  -5.438  26.841  1.00  0.00     0.082 Br
HETATM   20  O   UNL     1      23.013  -5.163  26.332  1.00  0.00    -0.193 OA
HETATM   21  O   UNL     1      24.025  -7.292  25.730  1.00  0.00    -0.193 OA
ENDBRANCH  16  18
ENDBRANCH  15  16
ENDBRANCH   1  15
BRANCH   2  22
HETATM   22  S   UNL     1      23.049  -1.052  24.749  1.00  0.00    -0.117 SA
BRANCH  22  23
HETATM   23  C   UNL     1      21.643  -1.885  24.940  1.00  0.00     0.148 C 
HETATM   24  C   UNL     1      20.658  -1.178  24.520  1.00  0.00    -0.068 C 
ENDBRANCH  22  23
ENDBRANCH   2  22
TORSDOF 7
ENDMDL
MODEL 4
REMARK VINA RESULT:    -5.763      4.179      6.476
REMARK INTER + INTRA:          -8.852
REMARK INTER:                  -8.201
REMARK INTRA:                  -0.651
REMARK UNBOUND:                -0.730
REMARK  7 active torsions:
REMARK  status: ('A' for Active; 'I' for Inactive)
REMARK    1  A    between atoms: S_2  and  N_5 
REMARK    2  A    between atoms: N_5  and  C_7 
REMARK    3  A    between atoms: C_7  and  C_8 
REMARK    4  A    between atoms: C_9  and  S_10 
REMARK    5  A    between atoms: S_10  and  C_11 
REMARK    6  A    between atoms: C_13  and  C_14 
REMARK       I    between atoms: C_14  and  N_16 
REMARK    7  A    between atoms: N_16  and  C_18 
ROOT
HETATM    1  C   UNL     1       9.063   0.631  21.455  1.00  0.00     0.062 A 
HETATM    2  C   UNL     1      10.107   0.092  22.043  1.00  0.00     0.039 A 
HETATM    3  C   UNL     1      10.478   1.099  22.457  1.00  0.00     0.071 A 
ENDROOT
BRANCH   3   4
HETATM    4  C   UNL     1      10.949   2.122  23.264  1.00  0.00     0.259 C 
HETATM    5  O   UNL     1      11.693   1.852  24.102  1.00  0.00    -0.267 OA
HETATM    6  N   UNL     1      10.414   3.293  22.940  1.00  0.00    -0.320 N 
ATOM      7  HN  UNL     1       9.883   3.365  22.072  1.00  0.00     0.169 HD
BRANCH   6   8
HETATM    8  C   UNL     1      10.540   4.345  23.682  1.00  0.00     0.071 A 
HETATM    9  C   UNL     1      11.608   5.153  23.911  1.00  0.00     0.095 A 
HETATM   10  N   UNL     1      12.656   6.152  24.220  1.00  0.00    -0.345 N 
HETATM   11  C   UNL     1      11.608   6.195  24.632  1.00  0.00     0.104 A 
ATOM     12  HN  UNL     1      13.603   6.521  24.130  1.00  0.00     0.167 HD
HETATM   13  S   UNL     1       9.997   6.335  25.301  1.00  0.00    -0.080 SA
HETATM   14  C   UNL     1       9.581   4.965  24.437  1.00  0.00     0.083 A 
ENDBRANCH   6   8
ENDBRANCH   3   4
BRANCH   1  15
HETATM   15  C   UNL     1       8.083   0.680  20.884  1.00  0.00    -0.017 C 
BRANCH  15  16
HETATM   16  N   UNL     1       7.007   0.828  20.569  1.00  0.00    -0.239 N 
ATOM     17  HN  UNL     1       6.485   1.364  21.263  1.00  0.00     0.189 HD
BRANCH  16  18
HETATM   18  S   UNL     1       6.088   0.423  19.329  1.00  0.00     0.301 S 
HETATM   19 BR   UNL     1       4.521   1.610  19.496  1.00  0.00     0.082 Br
HETATM   20  O   UNL     1       6.717   0.779  18.080  1.00  0.00    -0.193 OA
HETATM   21  O   UNL     1       5.590  -0.902  19.430  1.00  0.00    -0.193 OA
ENDBRANCH  16  18
ENDBRANCH  15  16
ENDBRANCH   1  15
BRANCH   2  22
HETATM   22  S   UNL     1      10.441  -1.583  22.466  1.00  0.00    -0.117 SA
BRANCH  22  23
HETATM   23  C   UNL     1       9.354  -1.692  23.696  1.00  0.00     0.148 C 
HETATM   24  C   UNL     1       8.465  -2.574  23.415  1.00  0.00    -0.068 C 
ENDBRANCH  22  23
ENDBRANCH   2  22
TORSDOF 7
ENDMDL
MODEL 5
REMARK VINA RESULT:    -5.548      4.118      6.156
REMARK INTER + INTRA:          -8.548
REMARK INTER:                  -7.928
REMARK INTRA:                  -0.621
REMARK UNBOUND:                -0.730
REMARK  7 active torsions:
REMARK  status: ('A' for Active; 'I' for Inactive)
REMARK    1  A    between atoms: S_2  and  N_5 
REMARK    2  A    between atoms: N_5  and  C_7 
REMARK    3  A    between atoms: C_7  and  C_8 
REMARK    4  A    between atoms: C_9  and  S_10 
REMARK    5  A    between atoms: S_10  and  C_11 
REMARK    6  A    between atoms: C_13  and  C_14 
REMARK       I    between atoms: C_14  and  N_16 
REMARK    7  A    between atoms: N_16  and  C_18 
ROOT
HETATM    1  C   UNL     1       6.515  -5.390  25.780  1.00  0.00     0.062 A 
HETATM    2  C   UNL     1       5.662  -5.497  24.788  1.00  0.00     0.039 A 
HETATM    3  C   UNL     1       6.230  -4.744  24.130  1.00  0.00     0.071 A 
ENDROOT
BRANCH   3   4
HETATM    4  C   UNL     1       6.875  -4.098  23.087  1.00  0.00     0.259 C 
HETATM    5  O   UNL     1       7.530  -4.729  22.381  1.00  0.00    -0.267 OA
HETATM    6  N   UNL     1       6.640  -2.791  23.098  1.00  0.00    -0.320 N 
ATOM      7  HN  UNL     1       5.913  -2.428  23.714  1.00  0.00     0.169 HD
BRANCH   6   8
HETATM    8  C   UNL     1       7.299  -1.960  22.356  1.00  0.00     0.071 A 
HETATM    9  C   UNL     1       8.635  -1.757  22.213  1.00  0.00     0.095 A 
HETATM   10  N   UNL     1      10.051  -1.453  21.906  1.00  0.00    -0.345 N 
HETATM   11  C   UNL     1       9.179  -0.935  21.416  1.00  0.00     0.104 A 
ATOM     12  HN  UNL     1      11.052  -1.599  22.038  1.00  0.00     0.167 HD
HETATM   13  S   UNL     1       7.875  -0.096  20.602  1.00  0.00    -0.080 SA
HETATM   14  C   UNL     1       6.803  -1.052  21.460  1.00  0.00     0.083 A 
ENDBRANCH   6   8
ENDBRANCH   3   4
BRANCH   1  15
HETATM   15  C   UNL     1       7.004  -5.616  26.780  1.00  0.00    -0.017 C 
BRANCH  15  16
HETATM   16  N   UNL     1       7.253  -6.004  27.813  1.00  0.00    -0.239 N 
ATOM     17  HN  UNL     1       8.261  -6.055  27.960  1.00  0.00     0.189 HD
BRANCH  16  18
HETATM   18  S   UNL     1       6.448  -6.493  29.101  1.00  0.00     0.301 S 
HETATM   19 BR   UNL     1       4.563  -6.462  28.518  1.00  0.00     0.082 Br
HETATM   20  O   UNL     1       6.742  -7.872  29.402  1.00  0.00    -0.193 OA
HETATM   21  O   UNL     1       6.539  -5.577  30.181  1.00  0.00    -0.193 OA
ENDBRANCH  16  18
ENDBRANCH  15  16
ENDBRANCH   1  15
BRANCH   2  22
HETATM   22  S   UNL     1       4.462  -6.738  24.443  1.00  0.00    -0.117 SA
BRANCH  22  23
HETATM   23  C   UNL     1       3.677  -5.920  23.250  1.00  0.00     0.148 C 
HETATM   24  C   UNL     1       2.609  -5.385  23.719  1.00  0.00    -0.068 C 
ENDBRANCH  22  23
ENDBRANCH   2  22
TORSDOF 7
ENDMDL
MODEL 6
REMARK VINA RESULT:    -5.428      3.221      6.974
REMARK INTER + INTRA:          -8.379
REMARK INTER:                  -7.668
REMARK INTRA:                  -0.711
REMARK UNBOUND:                -0.730
REMARK  7 active torsions:
REMARK  status: ('A' for Active; 'I' for Inactive)
REMARK    1  A    between atoms: S_2  and  N_5 
REMARK    2  A    between atoms: N_5  and  C_7 
REMARK    3  A    between atoms: C_7  and  C_8 
REMARK    4  A    between atoms: C_9  and  S_10 
REMARK    5  A    between atoms: S_10  and  C_11 
REMARK    6  A    between atoms: C_13  and  C_14 
REMARK       I    between atoms: C_14  and  N_16 
REMARK    7  A    between atoms: N_16  and  C_18 
ROOT
HETATM    1  C   UNL     1       8.965  -0.425  21.825  1.00  0.00     0.062 A 
HETATM    2  C   UNL     1       7.761  -0.755  21.420  1.00  0.00     0.039 A 
HETATM    3  C   UNL     1       7.807  -1.793  21.911  1.00  0.00     0.071 A 
ENDROOT
BRANCH   3   4
HETATM    4  C   UNL     1       7.537  -2.947  22.631  1.00  0.00     0.259 C 
HETATM    5  O   UNL     1       7.058  -3.834  22.072  1.00  0.00    -0.267 OA
HETATM    6  N   UNL     1       7.863  -2.818  23.911  1.00  0.00    -0.320 N 
ATOM      7  HN  UNL     1       8.414  -2.008  24.197  1.00  0.00     0.169 HD
BRANCH   6   8
HETATM    8  C   UNL     1       7.510  -3.679  24.810  1.00  0.00     0.071 A 
HETATM    9  C   UNL     1       8.216  -4.659  25.433  1.00  0.00     0.095 A 
HETATM   10  N   UNL     1       8.858  -5.727  26.233  1.00  0.00    -0.345 N 
HETATM   11  C   UNL     1       7.776  -5.427  26.339  1.00  0.00     0.104 A 
ATOM     12  HN  UNL     1       9.662  -6.298  26.491  1.00  0.00     0.167 HD
HETATM   13  S   UNL     1       6.092  -5.008  26.571  1.00  0.00    -0.080 SA
HETATM   14  C   UNL     1       6.291  -3.814  25.416  1.00  0.00     0.083 A 
ENDBRANCH   6   8
ENDBRANCH   3   4
BRANCH   1  15
HETATM   15  C   UNL     1       9.875   0.232  22.004  1.00  0.00    -0.017 C 
BRANCH  15  16
HETATM   16  N   UNL     1      10.643   0.943  22.432  1.00  0.00    -0.239 N 
ATOM     17  HN  UNL     1      11.144   1.439  21.695  1.00  0.00     0.189 HD
BRANCH  16  18
HETATM   18  S   UNL     1      11.150   1.378  23.881  1.00  0.00     0.301 S 
HETATM   19 BR   UNL     1      12.554   0.059  24.304  1.00  0.00     0.082 Br
HETATM   20  O   UNL     1      11.816   2.657  23.833  1.00  0.00    -0.193 OA
HETATM   21  O   UNL     1      10.152   1.223  24.878  1.00  0.00    -0.193 OA
ENDBRANCH  16  18
ENDBRANCH  15  16
ENDBRANCH   1  15
BRANCH   2  22
HETATM   22  S   UNL     1       6.435   0.248  20.841  1.00  0.00    -0.117 SA
BRANCH  22  23
HETATM   23  C   UNL     1       6.409  -0.335  19.303  1.00  0.00     0.148 C 
HETATM   24  C   UNL     1       6.490   0.636  18.468  1.00  0.00    -0.068 C 
ENDBRANCH  22  23
ENDBRANCH   2  22
TORSDOF 7
ENDMDL
MODEL 7
REMARK VINA RESULT:    -5.359      3.452      4.883
REMARK INTER + INTRA:          -8.283
REMARK INTER:                  -7.616
REMARK INTRA:                  -0.667
REMARK UNBOUND:                -0.730
REMARK  7 active torsions:
REMARK  status: ('A' for Active; 'I' for Inactive)
REMARK    1  A    between atoms: S_2  and  N_5 
REMARK    2  A    between atoms: N_5  and  C_7 
REMARK    3  A    between atoms: C_7  and  C_8 
REMARK    4  A    between atoms: C_9  and  S_10 
REMARK    5  A    between atoms: S_10  and  C_11 
REMARK    6  A    between atoms: C_13  and  C_14 
REMARK       I    between atoms: C_14  and  N_16 
REMARK    7  A    between atoms: N_16  and  C_18 
ROOT
HETATM    1  C   UNL     1       8.660  -0.901  23.223  1.00  0.00     0.062 A 
HETATM    2  C   UNL     1       9.839  -0.586  22.739  1.00  0.00     0.039 A 
HETATM    3  C   UNL     1       9.560   0.520  22.597  1.00  0.00     0.071 A 
ENDROOT
BRANCH   3   4
HETATM    4  C   UNL     1       9.540   1.907  22.594  1.00  0.00     0.259 C 
HETATM    5  O   UNL     1       9.045   2.439  21.700  1.00  0.00    -0.267 OA
HETATM    6  N   UNL     1      10.153   2.410  23.659  1.00  0.00    -0.320 N 
ATOM      7  HN  UNL     1      10.404   1.783  24.423  1.00  0.00     0.169 HD
BRANCH   6   8
HETATM    8  C   UNL     1      10.443   3.667  23.765  1.00  0.00     0.071 A 
HETATM    9  C   UNL     1      11.638   4.313  23.722  1.00  0.00     0.095 A 
HETATM   10  N   UNL     1      12.847   5.164  23.645  1.00  0.00    -0.345 N 
HETATM   11  C   UNL     1      11.805   5.567  23.795  1.00  0.00     0.104 A 
ATOM     12  HN  UNL     1      13.854   5.291  23.539  1.00  0.00     0.167 HD
HETATM   13  S   UNL     1      10.216   6.267  24.017  1.00  0.00    -0.080 SA
HETATM   14  C   UNL     1       9.586   4.721  23.922  1.00  0.00     0.083 A 
ENDBRANCH   6   8
ENDBRANCH   3   4
BRANCH   1  15
HETATM   15  C   UNL     1       7.852  -1.542  23.701  1.00  0.00    -0.017 C 
BRANCH  15  16
HETATM   16  N   UNL     1       7.278  -2.317  24.289  1.00  0.00    -0.239 N 
ATOM     17  HN  UNL     1       6.978  -1.953  25.194  1.00  0.00     0.189 HD
BRANCH  16  18
HETATM   18  S   UNL     1       6.811  -3.829  24.082  1.00  0.00     0.301 S 
HETATM   19 BR   UNL     1       5.294  -3.686  22.828  1.00  0.00     0.082 Br
HETATM   20  O   UNL     1       7.820  -4.592  23.389  1.00  0.00    -0.193 OA
HETATM   21  O   UNL     1       6.286  -4.405  25.268  1.00  0.00    -0.193 OA
ENDBRANCH  16  18
ENDBRANCH  15  16
ENDBRANCH   1  15
BRANCH   2  22
HETATM   22  S   UNL     1      11.375  -1.441  22.825  1.00  0.00    -0.117 SA
BRANCH  22  23
HETATM   23  C   UNL     1      12.069  -0.478  23.964  1.00  0.00     0.148 C 
HETATM   24  C   UNL     1      13.325  -0.730  24.040  1.00  0.00    -0.068 C 
ENDBRANCH  22  23
ENDBRANCH   2  22
TORSDOF 7
ENDMDL
MODEL 8
REMARK VINA RESULT:    -5.256      3.936      5.576
REMARK INTER + INTRA:          -8.137
REMARK INTER:                  -7.309
REMARK INTRA:                  -0.828
REMARK UNBOUND:                -0.730
REMARK  7 active torsions:
REMARK  status: ('A' for Active; 'I' for Inactive)
REMARK    1  A    between atoms: S_2  and  N_5 
REMARK    2  A    between atoms: N_5  and  C_7 
REMARK    3  A    between atoms: C_7  and  C_8 
REMARK    4  A    between atoms: C_9  and  S_10 
REMARK    5  A    between atoms: S_10  and  C_11 
REMARK    6  A    between atoms: C_13  and  C_14 
REMARK       I    between atoms: C_14  and  N_16 
REMARK    7  A    between atoms: N_16  and  C_18 
ROOT
HETATM    1  C   UNL     1       5.172  -6.155  24.174  1.00  0.00     0.062 A 
HETATM    2  C   UNL     1       6.179  -5.547  24.756  1.00  0.00     0.039 A 
HETATM    3  C   UNL     1       6.556  -5.085  23.772  1.00  0.00     0.071 A 
ENDROOT
BRANCH   3   4
HETATM    4  C   UNL     1       7.018  -4.227  22.787  1.00  0.00     0.259 C 
HETATM    5  O   UNL     1       7.189  -4.656  21.731  1.00  0.00    -0.267 OA
HETATM    6  N   UNL     1       7.226  -3.003  23.257  1.00  0.00    -0.320 N 
ATOM      7  HN  UNL     1       6.878  -2.770  24.188  1.00  0.00     0.169 HD
BRANCH   6   8
HETATM    8  C   UNL     1       7.851  -2.094  22.581  1.00  0.00     0.071 A 
HETATM    9  C   UNL     1       9.180  -1.849  22.432  1.00  0.00     0.095 A 
HETATM   10  N   UNL     1      10.583  -1.487  22.128  1.00  0.00    -0.345 N 
HETATM   11  C   UNL     1       9.689  -0.947  21.703  1.00  0.00     0.104 A 
ATOM     12  HN  UNL     1      11.589  -1.623  22.226  1.00  0.00     0.167 HD
HETATM   13  S   UNL     1       8.352  -0.068  20.993  1.00  0.00    -0.080 SA
HETATM   14  C   UNL     1       7.318  -1.121  21.781  1.00  0.00     0.083 A 
ENDBRANCH   6   8
ENDBRANCH   3   4
BRANCH   1  15
HETATM   15  C   UNL     1       4.215  -6.762  24.083  1.00  0.00    -0.017 C 
BRANCH  15  16
HETATM   16  N   UNL     1       3.270  -7.265  23.721  1.00  0.00    -0.239 N 
ATOM     17  HN  UNL     1       3.222  -7.280  22.702  1.00  0.00     0.189 HD
BRANCH  16  18
HETATM   18  S   UNL     1       1.992  -7.958  24.378  1.00  0.00     0.301 S 
HETATM   19 BR   UNL     1       0.843  -8.390  22.832  1.00  0.00     0.082 Br
HETATM   20  O   UNL     1       2.339  -9.225  24.974  1.00  0.00    -0.193 OA
HETATM   21  O   UNL     1       1.242  -7.064  25.186  1.00  0.00    -0.193 OA
ENDBRANCH  16  18
ENDBRANCH  15  16
ENDBRANCH   1  15
BRANCH   2  22
HETATM   22  S   UNL     1       6.460  -5.168  26.451  1.00  0.00    -0.117 SA
BRANCH  22  23
HETATM   23  C   UNL     1       8.104  -5.209  26.389  1.00  0.00     0.148 C 
HETATM   24  C   UNL     1       8.575  -4.030  26.572  1.00  0.00    -0.068 C 
ENDBRANCH  22  23
ENDBRANCH   2  22
TORSDOF 7
ENDMDL
MODEL 9
REMARK VINA RESULT:    -5.150     14.371     17.022
REMARK INTER + INTRA:          -7.987
REMARK INTER:                  -7.100
REMARK INTRA:                  -0.888
REMARK UNBOUND:                -0.730
REMARK  7 active torsions:
REMARK  status: ('A' for Active; 'I' for Inactive)
REMARK    1  A    between atoms: S_2  and  N_5 
REMARK    2  A    between atoms: N_5  and  C_7 
REMARK    3  A    between atoms: C_7  and  C_8 
REMARK    4  A    between atoms: C_9  and  S_10 
REMARK    5  A    between atoms: S_10  and  C_11 
REMARK    6  A    between atoms: C_13  and  C_14 
REMARK       I    between atoms: C_14  and  N_16 
REMARK    7  A    between atoms: N_16  and  C_18 
ROOT
HETATM    1  C   UNL     1      24.964  -4.175  20.697  1.00  0.00     0.062 A 
HETATM    2  C   UNL     1      25.567  -4.689  21.744  1.00  0.00     0.039 A 
HETATM    3  C   UNL     1      24.884  -4.141  22.490  1.00  0.00     0.071 A 
ENDROOT
BRANCH   3   4
HETATM    4  C   UNL     1      24.036  -3.812  23.536  1.00  0.00     0.259 C 
HETATM    5  O   UNL     1      23.541  -4.671  24.123  1.00  0.00    -0.267 OA
HETATM    6  N   UNL     1      23.907  -2.498  23.671  1.00  0.00    -0.320 N 
ATOM      7  HN  UNL     1      24.538  -1.887  23.152  1.00  0.00     0.169 HD
BRANCH   6   8
HETATM    8  C   UNL     1      23.011  -1.961  24.435  1.00  0.00     0.071 A 
HETATM    9  C   UNL     1      21.686  -1.734  24.233  1.00  0.00     0.095 A 
HETATM   10  N   UNL     1      20.230  -1.469  24.189  1.00  0.00    -0.345 N 
HETATM   11  C   UNL     1      20.884  -1.234  25.076  1.00  0.00     0.104 A 
ATOM     12  HN  UNL     1      19.326  -1.486  23.716  1.00  0.00     0.167 HD
HETATM   13  S   UNL     1      21.831  -0.853  26.499  1.00  0.00    -0.080 SA
HETATM   14  C   UNL     1      23.161  -1.491  25.711  1.00  0.00     0.083 A 
ENDBRANCH   6   8
ENDBRANCH   3   4
BRANCH   1  15
HETATM   15  C   UNL     1      24.709  -4.009  19.603  1.00  0.00    -0.017 C 
BRANCH  15  16
HETATM   16  N   UNL     1      24.295  -4.083  18.553  1.00  0.00    -0.239 N 
ATOM     17  HN  UNL     1      23.731  -4.925  18.432  1.00  0.00     0.189 HD
BRANCH  16  18
HETATM   18  S   UNL     1      24.358  -3.222  17.211  1.00  0.00     0.301 S 
HETATM   19 BR   UNL     1      23.320  -1.600  17.643  1.00  0.00     0.082 Br
HETATM   20  O   UNL     1      25.702  -2.769  16.949  1.00  0.00    -0.193 OA
HETATM   21  O   UNL     1      23.680  -3.846  16.131  1.00  0.00    -0.193 OA
ENDBRANCH  16  18
ENDBRANCH  15  16
ENDBRANCH   1  15
BRANCH   2  22
HETATM   22  S   UNL     1      26.624  -6.089  21.881  1.00  0.00    -0.117 SA
BRANCH  22  23
HETATM   23  C   UNL     1      25.448  -7.233  21.755  1.00  0.00     0.148 C 
HETATM   24  C   UNL     1      25.500  -7.784  20.597  1.00  0.00    -0.068 C 
ENDBRANCH  22  23
ENDBRANCH   2  22
TORSDOF 7
ENDMDL
