stable:False satoms:6 tatoms:24 sratio:0.25
  -OEChem-07092417433D

 24 26  0     0  0  0  0  0  0999 V2000
    6.4134   -4.8294   26.4362 Br  0  0  0  0  0  0  0  0  0  0  0  0
    8.3057   -4.3941   26.0891 S   0  0  0  0  0  0  0  0  0  0  0  0
    8.9851   -5.6621   25.9781 O   0  0  0  0  0  0  0  0  0  0  0  0
    8.7161   -3.5485   27.1532 O   0  0  0  0  0  0  0  0  0  0  0  0
    8.2721   -3.6378   24.6840 N   0  0  0  0  0  0  0  0  0  0  0  0
    8.9304   -2.9123   24.1197 C   0  0  0  0  0  0  0  0  0  0  0  0
    9.3687   -1.9997   23.6037 C   0  0  0  0  0  0  0  0  0  0  0  0
   10.1194   -0.9351   23.4397 C   0  0  0  0  0  0  0  0  0  0  0  0
   11.0962   -0.0372   24.5959 S   0  0  0  0  0  0  0  0  0  0  0  0
   12.5258   -0.1834   23.7950 C   0  3  0  0  0  0  0  0  0  0  0  0
   13.3698    0.2997   23.8307 H   0  0  0  0  0  0  0  0  0  0  0  0
   12.4403   -1.1164   22.9177 C   0  0  0  0  0  2  0  0  0  0  0  0
   12.0433   -1.8252   22.3192 H   0  0  0  0  0  0  0  0  0  0  0  0
    9.6181   -0.6532   22.4442 C   0  0  0  0  0  0  0  0  0  0  0  0
    8.9965    0.0136   21.3998 C   0  0  0  0  0  0  0  0  0  0  0  0
    9.5084    0.9558   20.9776 O   0  0  0  0  0  0  0  0  0  0  0  0
    7.8443   -0.5560   21.0682 N   0  0  0  0  0  0  0  0  0  0  0  0
    6.9931    0.0074   20.2720 C   0  0  0  0  0  0  0  0  0  0  0  0
    7.0144    0.1848   18.9247 C   0  0  0  0  0  0  0  0  0  0  0  0
    6.8629    0.4083   17.4690 N   0  0  0  0  0  0  0  0  0  0  0  0
    6.0958    0.7192   18.2340 C   0  0  0  0  0  0  0  0  0  0  0  0
    4.8526    1.2189   19.3614 S   0  0  0  0  0  0  0  0  0  0  0  0
    5.7841    0.5647   20.5869 C   0  0  0  0  0  0  0  0  0  0  0  0
    5.4279    0.6281   21.5964 H   0  0  0  0  0  0  0  0  0  0  0  0
 20 21  1  0  0  0  0
 19 20  1  0  0  0  0
 19 21  2  0  0  0  0
 21 22  1  0  0  0  0
 18 19  1  0  0  0  0
 22 23  1  0  0  0  0
 18 23  2  0  0  0  0
 17 18  1  0  0  0  0
 23 24  1  0  0  0  0
 15 16  2  0  0  0  0
 15 17  1  0  0  0  0
 14 15  1  0  0  0  0
 12 13  1  0  0  0  0
  8 14  2  0  0  0  0
  7 14  1  0  0  0  0
 10 12  1  0  0  0  0
  7  8  1  0  0  0  0
  8  9  1  0  0  0  0
  6  7  2  3  0  0  0
 10 11  1  0  0  0  0
  9 10  1  0  0  0  0
  5  6  1  0  0  0  0
  2  5  1  0  0  0  0
  2  3  2  0  0  0  0
  1  2  1  0  0  0  0
  2  4  2  0  0  0  0
M  CHG  1  10   1
M  END
> <Shapegauss>
-269.733459

$$$$
