REMARK  7 active torsions:
REMARK  status: ('A' for Active; 'I' for Inactive)
REMARK    1  A    between atoms: S_2  and  N_5 
REMARK    2  A    between atoms: N_5  and  C_7 
REMARK    3  A    between atoms: C_7  and  C_8 
REMARK    4  A    between atoms: C_9  and  S_10 
REMARK    5  A    between atoms: S_10  and  C_11 
REMARK    6  A    between atoms: C_13  and  C_14 
REMARK       I    between atoms: C_14  and  N_16 
REMARK    7  A    between atoms: N_16  and  C_18 
ROOT
HETATM    1  C   UNL     1       9.369  -2.000  23.604  1.00  0.00     0.062 A 
HETATM    2  C   UNL     1      10.119  -0.935  23.440  1.00  0.00     0.039 A 
HETATM    3  C   UNL     1       9.618  -0.653  22.444  1.00  0.00     0.071 A 
ENDROOT
BRANCH   3   4
HETATM    4  C   UNL     1       8.996   0.014  21.400  1.00  0.00     0.259 C 
HETATM    5  O   UNL     1       9.508   0.956  20.978  1.00  0.00    -0.267 OA
HETATM    6  N   UNL     1       7.844  -0.556  21.068  1.00  0.00    -0.320 N 
ATOM      7  HN  UNL     1       7.621  -1.473  21.455  1.00  0.00     0.169 HD
BRANCH   6   8
HETATM    8  C   UNL     1       6.993   0.007  20.272  1.00  0.00     0.071 A 
HETATM    9  C   UNL     1       7.014   0.185  18.925  1.00  0.00     0.095 A 
HETATM   10  N   UNL     1       6.863   0.408  17.469  1.00  0.00    -0.345 N 
HETATM   11  C   UNL     1       6.096   0.719  18.234  1.00  0.00     0.104 A 
ATOM     12  HN  UNL     1       7.197   0.336  16.508  1.00  0.00     0.167 HD
HETATM   13  S   UNL     1       4.853   1.219  19.361  1.00  0.00    -0.080 SA
HETATM   14  C   UNL     1       5.784   0.565  20.587  1.00  0.00     0.083 A 
ENDBRANCH   6   8
ENDBRANCH   3   4
BRANCH   1  15
HETATM   15  C   UNL     1       8.930  -2.912  24.120  1.00  0.00    -0.017 C 
BRANCH  15  16
HETATM   16  N   UNL     1       8.272  -3.638  24.684  1.00  0.00    -0.239 N 
ATOM     17  HN  UNL     1       7.433  -3.872  24.153  1.00  0.00     0.189 HD
BRANCH  16  18
HETATM   18  S   UNL     1       8.306  -4.394  26.089  1.00  0.00     0.301 S 
HETATM   19 BR   UNL     1       6.413  -4.829  26.436  1.00  0.00     0.082 Br
HETATM   20  O   UNL     1       8.985  -5.662  25.978  1.00  0.00    -0.193 OA
HETATM   21  O   UNL     1       8.716  -3.549  27.153  1.00  0.00    -0.193 OA
ENDBRANCH  16  18
ENDBRANCH  15  16
ENDBRANCH   1  15
BRANCH   2  22
HETATM   22  S   UNL     1      11.096  -0.037  24.596  1.00  0.00    -0.117 SA
BRANCH  22  23
HETATM   23  C   UNL     1      12.526  -0.183  23.795  1.00  0.00     0.148 C 
HETATM   24  C   UNL     1      12.440  -1.116  22.918  1.00  0.00    -0.068 C 
ENDBRANCH  22  23
ENDBRANCH   2  22
TORSDOF 7
