stable:False satoms:16 tatoms:24 sratio:0.6666666666666666
  -OEChem-07092417353D

 24 24  0     1  0  0  0  0  0999 V2000
    7.1416   -4.5767   26.2123 H   0  0  0  0  0  0  0  0  0  0  0  0
    8.2477   -3.5009   26.8645 H   0  0  0  0  0  0  0  0  0  0  0  0
    8.3929   -3.7049   24.8890 C   0  0  0  0  0  0  0  0  0  0  0  0
    8.0873   -4.1910   26.1978 N   0  0  0  0  0  0  0  0  0  0  0  0
    7.5676   -3.6803   24.0834 N   0  3  0  0  0  0  0  0  0  0  0  0
    9.6397   -3.1418   24.5305 N   0  0  0  0  0  0  0  0  0  0  0  0
    9.5297    0.5464   21.7501 C   0  0  0  0  0  0  0  0  0  0  0  0
    9.8130   -2.2867   23.7476 C   0  0  0  0  0  0  0  0  0  0  0  0
   11.7589   -1.1475   24.3960 H   0  0  0  0  0  0  0  0  0  0  0  0
   11.7481    0.1567   23.2253 H   0  0  0  0  0  0  0  0  0  0  0  0
   11.5809   -0.9033   23.3600 C   0  0  0  0  0  0  0  0  0  0  0  0
   10.6164    0.0711   21.4053 O   0  0  0  0  0  0  0  0  0  0  0  0
   12.2080   -1.4756   22.6963 H   0  0  0  0  0  0  0  0  0  0  0  0
    9.3183   -0.6653   22.2097 C   0  0  2  0  0  0  0  0  0  0  0  0
    8.0963   -1.2475   22.1206 N   0  0  0  0  0  0  0  0  0  0  0  0
    9.0422    1.6959   21.6188 O   0  0  0  0  0  0  0  0  0  0  0  0
   10.1556   -1.3069   23.0971 N   0  0  0  0  0  0  0  0  0  0  0  0
    7.0713   -0.9322   21.4729 N   0  0  0  0  0  0  0  0  0  0  0  0
    6.9273   -1.0238   19.3389 O   0  0  0  0  0  0  0  0  0  0  0  0
    6.4999    1.1505   18.6540 O   0  0  0  0  0  0  0  0  0  0  0  0
    5.9267    0.4234   18.5116 H   0  0  0  0  0  0  0  0  0  0  0  0
    6.6877    0.9954   20.0245 N   0  0  0  0  0  0  0  0  0  0  0  0
    6.6259    1.7948   20.5643 H   0  0  0  0  0  0  0  0  0  0  0  0
    6.9011   -0.3399   20.3261 C   0  0  0  0  0  0  0  0  0  0  0  0
 20 21  1  0  0  0  0
 20 22  1  0  0  0  0
 19 24  2  0  0  0  0
 22 24  1  0  0  0  0
 22 23  1  0  0  0  0
 18 24  1  0  0  0  0
  7 12  1  0  0  0  0
 12 14  1  0  0  0  0
 15 18  2  3  0  0  0
  7 16  2  0  0  0  0
  7 14  1  0  0  0  0
 14 15  1  0  0  0  0
 14 17  1  0  0  0  0
 11 13  1  0  0  0  0
 11 17  1  0  0  0  0
  8 17  1  0  0  0  0
 10 11  1  0  0  0  0
  9 11  1  0  0  0  0
  6  8  2  3  0  0  0
  3  5  2  0  0  0  0
  3  6  1  0  0  0  0
  3  4  1  0  0  0  0
  1  4  1  0  0  0  0
  2  4  1  0  0  0  0
M  CHG  1   5   1
M  END
> <Shapegauss>
-178.749756

$$$$
