stable:False satoms:16 tatoms:24 sratio:0.6666666666666666
  -OEChem-08062402243D

 28 28  0     1  0  0  0  0  0999 V2000
   -9.1845   -6.3936  -28.0108 H   0  0  0  0  0  0  0  0  0  0  0  0
   -8.8706   -7.0997  -26.5245 H   0  0  0  0  0  0  0  0  0  0  0  0
   -8.3498   -5.1806  -26.6292 C   0  0  0  0  0  0  0  0  0  0  0  0
   -8.5653   -6.4721  -27.2022 N   0  0  0  0  0  0  0  0  0  0  0  0
   -8.9471   -4.2758  -27.0230 N   0  3  0  0  0  0  0  0  0  0  0  0
   -7.5098   -4.9444  -25.5161 N   0  3  0  0  0  0  0  0  0  0  0  0
   -9.0198   -1.9020  -22.3842 C   0  0  0  0  0  0  0  0  0  0  0  0
   -7.6693   -4.1279  -24.6902 C   0  0  0  0  0  0  0  0  0  0  0  0
   -6.6683   -4.9338  -22.7272 H   0  0  0  0  0  0  0  0  0  0  0  0
   -7.1502   -3.6762  -21.6057 H   0  0  0  0  0  0  0  0  0  0  0  0
   -6.7868   -3.8680  -22.6062 C   0  0  0  0  0  0  0  0  0  0  0  0
   -7.8031   -1.7372  -22.2494 O   0  0  0  0  0  0  0  0  0  0  0  0
   -5.8672   -3.3360  -22.7864 H   0  0  0  0  0  0  0  0  0  0  0  0
   -8.6675   -2.4208  -23.5378 C   0  0  2  0  0  0  0  0  0  0  0  0
   -9.4098   -2.2191  -24.6551 N   0  0  0  0  0  0  0  0  0  0  0  0
   -9.9879   -1.6223  -21.6352 O   0  0  0  0  0  0  0  0  0  0  0  0
   -7.7657   -3.4548  -23.6713 N   0  0  0  0  0  0  0  0  0  0  0  0
  -10.3459   -1.4227  -24.8978 N   0  0  0  0  0  0  0  0  0  0  0  0
  -10.1044    0.6990  -25.0507 O   0  0  0  0  0  0  0  0  0  0  0  0
  -11.4472    1.5958  -23.3859 O   0  0  0  0  0  0  0  0  0  0  0  0
  -11.5549    1.7556  -24.3026 H   0  0  0  0  0  0  0  0  0  0  0  0
  -11.4146    0.2048  -23.4248 N   0  0  0  0  0  0  0  0  0  0  0  0
  -11.9452   -0.2605  -22.7643 H   0  0  0  0  0  0  0  0  0  0  0  0
  -10.6141   -0.2220  -24.4719 C   0  0  0  0  0  0  0  0  0  0  0  0
   -9.6109   -4.3977  -27.7609 H   0  0  0  0  0  0  0  0  0  0  0  0
   -7.9746   -3.3446  -25.3681 H   0  0  0  0  0  0  0  0  0  0  0  0
   -8.8011   -3.3694  -26.6265 H   0  0  0  0  0  0  0  0  0  0  0  0
   -6.7037   -5.5291  -25.4251 H   0  0  0  0  0  0  0  0  0  0  0  0
 20 21  1  0  0  0  0
 20 22  1  0  0  0  0
 19 24  2  0  0  0  0
 22 24  1  0  0  0  0
 22 23  1  0  0  0  0
 18 24  1  0  0  0  0
  7 12  1  0  0  0  0
 12 14  1  0  0  0  0
 15 18  2  3  0  0  0
  7 16  2  0  0  0  0
  7 14  1  0  0  0  0
 14 15  1  0  0  0  0
 14 17  1  0  0  0  0
 11 13  1  0  0  0  0
 11 17  1  0  0  0  0
  8 17  1  0  0  0  0
 10 11  1  0  0  0  0
  9 11  1  0  0  0  0
  6  8  2  3  0  0  0
  3  5  2  0  0  0  0
  3  6  1  0  0  0  0
  3  4  1  0  0  0  0
  1  4  1  0  0  0  0
  2  4  1  0  0  0  0
  5 25  1  0  0  0  0
  8 26  1  0  0  0  0
  5 27  1  0  0  0  0
  6 28  1  0  0  0  0
M  CHG  2   5   1   6   1
M  END
> <Chemgauss4>
-5.306447

$$$$
