stable:False satoms:16 tatoms:24 sratio:0.6666666666666666
  -OEChem-08062402243D

 28 28  0     1  0  0  0  0  0999 V2000
    8.8516   -6.1775   28.1478 H   0  0  0  0  0  0  0  0  0  0  0  0
    8.9331   -6.9239   26.6504 H   0  0  0  0  0  0  0  0  0  0  0  0
    8.2298   -5.0621   26.5838 C   0  0  0  0  0  0  0  0  0  0  0  0
    8.4323   -6.3219   27.2277 N   0  0  0  0  0  0  0  0  0  0  0  0
    8.6427   -4.1010   27.0700 N   0  3  0  0  0  0  0  0  0  0  0  0
    7.6334   -4.9170   25.3097 N   0  3  0  0  0  0  0  0  0  0  0  0
    9.5041   -1.7737   22.4874 C   0  0  0  0  0  0  0  0  0  0  0  0
    7.8934   -4.0967   24.5136 C   0  0  0  0  0  0  0  0  0  0  0  0
    7.4196   -5.0121   22.4060 H   0  0  0  0  0  0  0  0  0  0  0  0
    8.0170   -3.7247   21.3777 H   0  0  0  0  0  0  0  0  0  0  0  0
    7.4642   -3.9410   22.2818 C   0  0  0  0  0  0  0  0  0  0  0  0
    8.3358   -1.7266   22.0892 O   0  0  0  0  0  0  0  0  0  0  0  0
    6.4830   -3.4972   22.2442 H   0  0  0  0  0  0  0  0  0  0  0  0
    8.9586   -2.3131   23.5530 C   0  0  2  0  0  0  0  0  0  0  0  0
    9.4193   -2.0315   24.7974 N   0  0  0  0  0  0  0  0  0  0  0  0
   10.5821   -1.4101   21.9563 O   0  0  0  0  0  0  0  0  0  0  0  0
    8.1470   -3.4268   23.5199 N   0  0  0  0  0  0  0  0  0  0  0  0
   10.2042   -1.1475   25.2122 N   0  0  0  0  0  0  0  0  0  0  0  0
    9.7436    0.9429   25.2468 O   0  0  0  0  0  0  0  0  0  0  0  0
   11.3285    1.9481   23.8840 O   0  0  0  0  0  0  0  0  0  0  0  0
   11.2197    2.1257   24.7973 H   0  0  0  0  0  0  0  0  0  0  0  0
   11.4146    0.5606   23.9561 N   0  0  0  0  0  0  0  0  0  0  0  0
   12.1159    0.1419   23.4392 H   0  0  0  0  0  0  0  0  0  0  0  0
   10.4482    0.0693   24.8187 C   0  0  0  0  0  0  0  0  0  0  0  0
    9.1389   -4.1525   27.9367 H   0  0  0  0  0  0  0  0  0  0  0  0
    7.9720   -3.2818   25.2180 H   0  0  0  0  0  0  0  0  0  0  0  0
    8.5046   -3.2163   26.6248 H   0  0  0  0  0  0  0  0  0  0  0  0
    6.9228   -5.5765   25.0647 H   0  0  0  0  0  0  0  0  0  0  0  0
 20 21  1  0  0  0  0
 20 22  1  0  0  0  0
 19 24  2  0  0  0  0
 22 24  1  0  0  0  0
 22 23  1  0  0  0  0
 18 24  1  0  0  0  0
  7 12  1  0  0  0  0
 12 14  1  0  0  0  0
 15 18  2  3  0  0  0
  7 16  2  0  0  0  0
  7 14  1  0  0  0  0
 14 15  1  0  0  0  0
 14 17  1  0  0  0  0
 11 13  1  0  0  0  0
 11 17  1  0  0  0  0
  8 17  1  0  0  0  0
 10 11  1  0  0  0  0
  9 11  1  0  0  0  0
  6  8  2  3  0  0  0
  3  5  2  0  0  0  0
  3  6  1  0  0  0  0
  3  4  1  0  0  0  0
  1  4  1  0  0  0  0
  2  4  1  0  0  0  0
  5 25  1  0  0  0  0
  8 26  1  0  0  0  0
  5 27  1  0  0  0  0
  6 28  1  0  0  0  0
M  CHG  2   5   1   6   1
M  END
> <Chemgauss4>
-5.394414

$$$$
