stable:False satoms:8 tatoms:24 sratio:0.3333333333333333
  -OEChem-07092417513D

 24 25  0     1  0  0  0  0  0999 V2000
    6.5756   -4.8792   26.5102 C   0  0  0  0  0  0  0  0  0  0  0  0
    8.2025   -4.2772   26.1327 S   0  0  0  0  0  0  0  0  0  0  0  0
    9.0325   -5.4704   26.1092 O   0  0  0  0  0  0  0  0  0  0  0  0
    8.5887   -3.3883   27.1662 O   0  0  0  0  0  0  0  0  0  0  0  0
    8.1040   -3.5273   24.6914 N   0  0  0  0  0  0  0  0  0  0  0  0
    8.9920   -2.9294   24.1675 C   0  0  0  0  0  0  0  0  0  0  0  0
    9.4353   -1.9635   23.5092 C   0  0  0  0  0  0  0  0  0  0  0  0
   10.3359   -1.1788   23.2202 C   0  0  1  0  0  0  0  0  0  0  0  0
   11.0239    0.0061   24.3283 C   0  0  0  0  0  0  0  0  0  0  0  0
   12.0415    0.2706   24.2469 C   0  0  0  0  0  0  0  0  0  0  0  0
   13.1361   -0.1901   23.4782 C   0  0  0  0  0  0  0  0  0  0  0  0
   12.7834   -1.2399   22.6489 C   0  0  0  0  0  0  0  0  0  0  0  0
   11.7868   -1.7140   22.4712 C   0  0  0  0  0  0  0  0  0  0  0  0
    9.7392   -0.5735   22.3410 C   0  0  0  0  0  0  0  0  0  0  0  0
    9.0926    0.0549   21.3762 C   0  0  0  0  0  0  0  0  0  0  0  0
    9.5838    0.9909   20.9555 O   0  0  0  0  0  0  0  0  0  0  0  0
    7.9318   -0.5411   21.0906 N   0  0  0  0  0  0  0  0  0  0  0  0
    7.2453   -0.1311   20.1466 C   0  0  0  0  0  0  0  0  0  0  0  0
    7.2259   -0.0252   18.8633 C   0  0  0  0  0  0  0  0  0  0  0  0
    6.7375    0.2833   17.7558 N   0  0  0  0  0  0  0  0  0  0  0  0
    5.6485    0.8751   18.1908 C   0  0  0  0  0  0  0  0  0  0  0  0
    5.2336    0.9919   19.4672 C   0  0  0  0  0  0  0  0  0  0  0  0
    5.7829    0.5853   20.5370 C   0  0  0  0  0  0  0  0  0  0  0  0
    5.3249    0.6807   21.8926 C   0  0  0  0  0  0  0  0  0  0  0  0
 20 21  2  0  0  0  0
 19 20  1  0  0  0  0
 21 22  1  0  0  0  0
 18 19  2  0  0  0  0
 22 23  2  0  0  0  0
 18 23  1  0  0  0  0
 17 18  1  0  0  0  0
 23 24  1  0  0  0  0
 15 16  2  0  0  0  0
 15 17  1  0  0  0  0
 14 15  1  0  0  0  0
  8 14  1  0  0  0  0
 12 13  1  0  0  0  0
  8 13  1  0  0  0  0
 11 12  2  0  0  0  0
  7  8  1  0  0  0  0
  8  9  1  0  0  0  0
 10 11  1  0  0  0  0
  6  7  2  3  0  0  0
  5  6  1  0  0  0  0
  9 10  2  0  0  0  0
  2  5  1  0  0  0  0
  2  3  2  0  0  0  0
  1  2  1  0  0  0  0
  2  4  2  0  0  0  0
M  END
> <Shapegauss>
-286.354126

$$$$
