stable:False satoms:8 tatoms:24 sratio:0.3333333333333333
  -OEChem-08062416053D

 45 46  0     1  0  0  0  0  0999 V2000
   -6.6262   -5.4005  -26.3012 C   0  0  0  0  0  0  0  0  0  0  0  0
   -8.2615   -4.7534  -26.0586 S   0  0  0  0  0  0  0  0  0  0  0  0
   -9.1159   -5.9294  -26.0391 O   0  0  0  0  0  0  0  0  0  0  0  0
   -8.5607   -3.9042  -27.1525 O   0  0  0  0  0  0  0  0  0  0  0  0
   -8.2421   -3.9426  -24.6473 N   0  0  0  0  0  0  0  0  0  0  0  0
   -9.1499   -3.3065  -24.2095 C   0  0  0  0  0  0  0  0  0  0  0  0
   -9.6152   -2.3047  -23.6240 C   0  0  0  0  0  0  0  0  0  0  0  0
  -10.5163   -1.4921  -23.4292 C   0  0  1  0  0  0  0  0  0  0  0  0
  -11.1056   -0.3450  -24.6302 C   0  0  0  0  0  0  0  0  0  0  0  0
  -12.1206   -0.0591  -24.6278 C   0  0  0  0  0  0  0  0  0  0  0  0
  -13.2725   -0.4658  -23.9144 C   0  0  0  0  0  0  0  0  0  0  0  0
  -12.9967   -1.4842  -23.0194 C   0  0  0  0  0  0  0  0  0  0  0  0
  -12.0239   -1.9677  -22.7558 C   0  0  0  0  0  0  0  0  0  0  0  0
   -9.9660   -0.8594  -22.5391 C   0  0  0  0  0  0  0  0  0  0  0  0
   -9.3711   -0.2007  -21.5613 C   0  0  0  0  0  0  0  0  0  0  0  0
   -9.8693    0.7615  -21.2145 O   0  0  0  0  0  0  0  0  0  0  0  0
   -8.2441   -0.8042  -21.1741 N   0  0  0  0  0  0  0  0  0  0  0  0
   -7.6125   -0.3654  -20.2051 C   0  0  0  0  0  0  0  0  0  0  0  0
   -7.6750   -0.2034  -18.9290 C   0  0  0  0  0  0  0  0  0  0  0  0
   -7.2539    0.1448  -17.8058 N   0  0  0  0  0  0  0  0  0  0  0  0
   -6.1267    0.6973  -18.1925 C   0  0  0  0  0  0  0  0  0  0  0  0
   -5.6268    0.7503  -19.4424 C   0  0  0  0  0  0  0  0  0  0  0  0
   -6.1132    0.3069  -20.5279 C   0  0  0  0  0  0  0  0  0  0  0  0
   -5.5655    0.3342  -21.8530 C   0  0  0  0  0  0  0  0  0  0  0  0
   -6.5894   -5.9597  -27.2477 H   0  0  0  0  0  0  0  0  0  0  0  0
   -5.9053   -4.5705  -26.3376 H   0  0  0  0  0  0  0  0  0  0  0  0
   -6.3705   -6.0721  -25.4684 H   0  0  0  0  0  0  0  0  0  0  0  0
   -7.4781   -3.3014  -24.7194 H   0  0  0  0  0  0  0  0  0  0  0  0
  -10.0204   -3.9044  -24.4354 H   0  0  0  0  0  0  0  0  0  0  0  0
   -8.8290   -1.9997  -22.9492 H   0  0  0  0  0  0  0  0  0  0  0  0
  -10.4293    0.0638  -25.3663 H   0  0  0  0  0  0  0  0  0  0  0  0
  -12.3297    0.7290  -25.3360 H   0  0  0  0  0  0  0  0  0  0  0  0
  -14.2520   -0.0323  -24.0522 H   0  0  0  0  0  0  0  0  0  0  0  0
  -13.8559   -1.8728  -22.4928 H   0  0  0  0  0  0  0  0  0  0  0  0
  -11.9165   -1.8535  -21.6671 H   0  0  0  0  0  0  0  0  0  0  0  0
  -12.1410   -3.0332  -23.0030 H   0  0  0  0  0  0  0  0  0  0  0  0
  -10.7829   -0.1227  -22.5479 H   0  0  0  0  0  0  0  0  0  0  0  0
   -9.1796   -0.5432  -23.2402 H   0  0  0  0  0  0  0  0  0  0  0  0
   -7.9117   -1.6088  -21.6663 H   0  0  0  0  0  0  0  0  0  0  0  0
   -8.6553   -0.5923  -18.6961 H   0  0  0  0  0  0  0  0  0  0  0  0
   -5.5325    1.1624  -17.4199 H   0  0  0  0  0  0  0  0  0  0  0  0
   -4.6702    1.2432  -19.5346 H   0  0  0  0  0  0  0  0  0  0  0  0
   -4.9736   -0.5769  -22.0245 H   0  0  0  0  0  0  0  0  0  0  0  0
   -6.3835    0.3835  -22.5867 H   0  0  0  0  0  0  0  0  0  0  0  0
   -4.9194    1.2175  -21.9644 H   0  0  0  0  0  0  0  0  0  0  0  0
 20 21  2  0  0  0  0
 19 20  1  0  0  0  0
 21 22  1  0  0  0  0
 18 19  2  0  0  0  0
 22 23  2  0  0  0  0
 18 23  1  0  0  0  0
 17 18  1  0  0  0  0
 23 24  1  0  0  0  0
 15 16  2  0  0  0  0
 15 17  1  0  0  0  0
 14 15  1  0  0  0  0
  8 14  1  0  0  0  0
 12 13  1  0  0  0  0
  8 13  1  0  0  0  0
 11 12  2  0  0  0  0
  7  8  1  0  0  0  0
  8  9  1  0  0  0  0
 10 11  1  0  0  0  0
  6  7  2  3  0  0  0
  5  6  1  0  0  0  0
  9 10  2  0  0  0  0
  2  5  1  0  0  0  0
  2  3  2  0  0  0  0
  1  2  1  0  0  0  0
  2  4  2  0  0  0  0
  1 25  1  0  0  0  0
  1 26  1  0  0  0  0
  1 27  1  0  0  0  0
  5 28  1  0  0  0  0
  6 29  1  0  0  0  0
  7 30  1  0  0  0  0
  9 31  1  0  0  0  0
 10 32  1  0  0  0  0
 11 33  1  0  0  0  0
 12 34  1  0  0  0  0
 13 35  1  0  0  0  0
 13 36  1  0  0  0  0
 14 37  1  0  0  0  0
 14 38  1  0  0  0  0
 17 39  1  0  0  0  0
 19 40  1  0  0  0  0
 21 41  1  0  0  0  0
 22 42  1  0  0  0  0
 24 43  1  0  0  0  0
 24 44  1  0  0  0  0
 24 45  1  0  0  0  0
M  END
> <Chemgauss4>
-12.907068

$$$$
