stable:False satoms:8 tatoms:24 sratio:0.3333333333333333
  -OEChem-08062416053D

 45 46  0     1  0  0  0  0  0999 V2000
    6.2850   -5.2266   26.3132 C   0  0  0  0  0  0  0  0  0  0  0  0
    7.9203   -4.5796   26.0705 S   0  0  0  0  0  0  0  0  0  0  0  0
    8.7746   -5.7555   26.0511 O   0  0  0  0  0  0  0  0  0  0  0  0
    8.2194   -3.7303   27.1644 O   0  0  0  0  0  0  0  0  0  0  0  0
    7.9008   -3.7688   24.6592 N   0  0  0  0  0  0  0  0  0  0  0  0
    8.8086   -3.1326   24.2214 C   0  0  0  0  0  0  0  0  0  0  0  0
    9.2739   -2.1308   23.6359 C   0  0  0  0  0  0  0  0  0  0  0  0
   10.1750   -1.3182   23.4411 C   0  0  1  0  0  0  0  0  0  0  0  0
   10.7643   -0.1711   24.6421 C   0  0  0  0  0  0  0  0  0  0  0  0
   11.7793    0.1148   24.6398 C   0  0  0  0  0  0  0  0  0  0  0  0
   12.9312   -0.2919   23.9263 C   0  0  0  0  0  0  0  0  0  0  0  0
   12.6554   -1.3103   23.0313 C   0  0  0  0  0  0  0  0  0  0  0  0
   11.6827   -1.7938   22.7678 C   0  0  0  0  0  0  0  0  0  0  0  0
    9.6248   -0.6855   22.5510 C   0  0  0  0  0  0  0  0  0  0  0  0
    9.0298   -0.0269   21.5732 C   0  0  0  0  0  0  0  0  0  0  0  0
    9.5280    0.9354   21.2265 O   0  0  0  0  0  0  0  0  0  0  0  0
    7.9028   -0.6304   21.1860 N   0  0  0  0  0  0  0  0  0  0  0  0
    7.2712   -0.1915   20.2170 C   0  0  0  0  0  0  0  0  0  0  0  0
    7.3337   -0.0295   18.9409 C   0  0  0  0  0  0  0  0  0  0  0  0
    6.9126    0.3187   17.8177 N   0  0  0  0  0  0  0  0  0  0  0  0
    5.7854    0.8712   18.2044 C   0  0  0  0  0  0  0  0  0  0  0  0
    5.2855    0.9242   19.4543 C   0  0  0  0  0  0  0  0  0  0  0  0
    5.7719    0.4807   20.5398 C   0  0  0  0  0  0  0  0  0  0  0  0
    5.2242    0.5081   21.8649 C   0  0  0  0  0  0  0  0  0  0  0  0
    6.2481   -5.7859   27.2597 H   0  0  0  0  0  0  0  0  0  0  0  0
    5.5640   -4.3966   26.3495 H   0  0  0  0  0  0  0  0  0  0  0  0
    6.0292   -5.8982   25.4804 H   0  0  0  0  0  0  0  0  0  0  0  0
    7.1369   -3.1275   24.7313 H   0  0  0  0  0  0  0  0  0  0  0  0
    9.6791   -3.7305   24.4473 H   0  0  0  0  0  0  0  0  0  0  0  0
    8.4878   -1.8258   22.9612 H   0  0  0  0  0  0  0  0  0  0  0  0
   10.0880    0.2377   25.3782 H   0  0  0  0  0  0  0  0  0  0  0  0
   11.9885    0.9029   25.3480 H   0  0  0  0  0  0  0  0  0  0  0  0
   13.9108    0.1416   24.0641 H   0  0  0  0  0  0  0  0  0  0  0  0
   13.5146   -1.6989   22.5048 H   0  0  0  0  0  0  0  0  0  0  0  0
   11.5752   -1.6796   21.6790 H   0  0  0  0  0  0  0  0  0  0  0  0
   11.7997   -2.8593   23.0149 H   0  0  0  0  0  0  0  0  0  0  0  0
   10.4416    0.0511   22.5598 H   0  0  0  0  0  0  0  0  0  0  0  0
    8.8383   -0.3693   23.2521 H   0  0  0  0  0  0  0  0  0  0  0  0
    7.5705   -1.4349   21.6782 H   0  0  0  0  0  0  0  0  0  0  0  0
    8.3140   -0.4184   18.7080 H   0  0  0  0  0  0  0  0  0  0  0  0
    5.1912    1.3363   17.4318 H   0  0  0  0  0  0  0  0  0  0  0  0
    4.3290    1.4171   19.5465 H   0  0  0  0  0  0  0  0  0  0  0  0
    4.6323   -0.4030   22.0365 H   0  0  0  0  0  0  0  0  0  0  0  0
    6.0423    0.5573   22.5987 H   0  0  0  0  0  0  0  0  0  0  0  0
    4.5781    1.3914   21.9763 H   0  0  0  0  0  0  0  0  0  0  0  0
 20 21  2  0  0  0  0
 19 20  1  0  0  0  0
 21 22  1  0  0  0  0
 18 19  2  0  0  0  0
 22 23  2  0  0  0  0
 18 23  1  0  0  0  0
 17 18  1  0  0  0  0
 23 24  1  0  0  0  0
 15 16  2  0  0  0  0
 15 17  1  0  0  0  0
 14 15  1  0  0  0  0
  8 14  1  0  0  0  0
 12 13  1  0  0  0  0
  8 13  1  0  0  0  0
 11 12  2  0  0  0  0
  7  8  1  0  0  0  0
  8  9  1  0  0  0  0
 10 11  1  0  0  0  0
  6  7  2  3  0  0  0
  5  6  1  0  0  0  0
  9 10  2  0  0  0  0
  2  5  1  0  0  0  0
  2  3  2  0  0  0  0
  1  2  1  0  0  0  0
  2  4  2  0  0  0  0
  1 25  1  0  0  0  0
  1 26  1  0  0  0  0
  1 27  1  0  0  0  0
  5 28  1  0  0  0  0
  6 29  1  0  0  0  0
  7 30  1  0  0  0  0
  9 31  1  0  0  0  0
 10 32  1  0  0  0  0
 11 33  1  0  0  0  0
 12 34  1  0  0  0  0
 13 35  1  0  0  0  0
 13 36  1  0  0  0  0
 14 37  1  0  0  0  0
 14 38  1  0  0  0  0
 17 39  1  0  0  0  0
 19 40  1  0  0  0  0
 21 41  1  0  0  0  0
 22 42  1  0  0  0  0
 24 43  1  0  0  0  0
 24 44  1  0  0  0  0
 24 45  1  0  0  0  0
M  END
> <Chemgauss4>
-13.305799

$$$$
