stable:False satoms:9 tatoms:24 sratio:0.375
  -OEChem-07092417503D

 24 26  0     1  0  0  0  0  0999 V2000
    6.6929   -4.8270   26.4685 C   0  0  0  0  0  0  0  0  0  0  0  0
    8.1681   -4.3263   26.1168 S   0  0  0  0  0  0  0  0  0  0  0  0
    9.0484   -5.4821   26.0665 O   0  0  0  0  0  0  0  0  0  0  0  0
    8.6265   -3.4136   27.1300 O   0  0  0  0  0  0  0  0  0  0  0  0
    8.1259   -3.5982   24.6922 N   0  0  0  0  0  0  0  0  0  0  0  0
    8.9635   -2.9315   24.1420 C   0  0  0  0  0  0  0  0  0  0  0  0
    9.4243   -1.9209   23.5036 C   0  0  0  0  0  0  0  0  0  0  0  0
   10.3313   -1.0993   23.2894 C   0  0  1  0  0  0  0  0  0  0  0  0
   11.0409   -0.0218   24.2794 C   0  0  0  0  0  0  0  0  0  0  0  0
   12.0511    0.2750   24.2621 C   0  0  0  0  0  0  0  0  0  0  0  0
   13.1774   -0.2036   23.4131 C   0  0  0  0  0  0  0  0  0  0  0  0
   12.7408   -1.2515   22.6826 C   0  0  0  0  0  0  0  0  0  0  0  0
   11.8048   -1.7481   22.5100 C   0  0  0  0  0  0  0  0  0  0  0  0
    9.7267   -0.5850   22.3615 C   0  0  2  0  0  0  0  0  0  0  0  0
    9.0374    0.0524   21.3928 C   0  0  0  0  0  0  0  0  0  0  0  0
    9.4973    1.0113   20.9971 O   0  0  0  0  0  0  0  0  0  0  0  0
    7.9036   -0.5681   21.0994 N   0  0  0  0  0  0  0  0  0  0  0  0
    7.1981   -0.0964   20.1630 C   0  0  0  0  0  0  0  0  0  0  0  0
    7.2660   -0.0219   18.8554 C   0  0  0  0  0  0  0  0  0  0  0  0
    6.7594    0.3206   17.7966 N   0  0  0  0  0  0  0  0  0  0  0  0
    5.5976    0.8943   18.1995 C   0  0  0  0  0  0  0  0  0  0  0  0
    5.2509    0.9944   19.4506 C   0  0  0  0  0  0  0  0  0  0  0  0
    5.8191    0.5753   20.5343 C   0  0  0  0  0  0  0  0  0  0  0  0
    5.3321    0.6820   21.8903 C   0  0  0  0  0  0  0  0  0  0  0  0
 20 21  2  0  0  0  0
 19 20  1  0  0  0  0
 21 22  1  0  0  0  0
 18 19  2  0  0  0  0
 22 23  2  0  0  0  0
 18 23  1  0  0  0  0
 17 18  1  0  0  0  0
 23 24  1  0  0  0  0
 15 16  2  0  0  0  0
 15 17  1  0  0  0  0
 14 15  1  0  0  0  0
  8 14  1  0  0  0  0
  7 14  1  0  0  0  0
 12 13  1  0  0  0  0
  8 13  1  0  0  0  0
 11 12  2  0  0  0  0
  7  8  1  0  0  0  0
  8  9  1  0  0  0  0
 10 11  1  0  0  0  0
  6  7  2  3  0  0  0
  5  6  1  0  0  0  0
  9 10  2  0  0  0  0
  2  5  1  0  0  0  0
  2  3  2  0  0  0  0
  1  2  1  0  0  0  0
  2  4  2  0  0  0  0
M  END
> <Shapegauss>
-286.254547

$$$$
