stable:False satoms:9 tatoms:24 sratio:0.375
  -OEChem-08062417273D

 43 45  0     1  0  0  0  0  0999 V2000
   -6.2856   -5.1705  -25.8675 C   0  0  0  0  0  0  0  0  0  0  0  0
   -7.7952   -4.6682  -25.7285 S   0  0  0  0  0  0  0  0  0  0  0  0
   -8.6662   -5.8310  -25.6798 O   0  0  0  0  0  0  0  0  0  0  0  0
   -8.1424   -3.8515  -26.8608 O   0  0  0  0  0  0  0  0  0  0  0  0
   -7.9214   -3.8230  -24.3753 N   0  0  0  0  0  0  0  0  0  0  0  0
   -8.8216   -3.1275  -23.9818 C   0  0  0  0  0  0  0  0  0  0  0  0
   -9.3602   -2.0753  -23.4877 C   0  0  0  0  0  0  0  0  0  0  0  0
  -10.2923   -1.2548  -23.4479 C   0  0  1  0  0  0  0  0  0  0  0  0
  -10.8930   -0.2765  -24.5997 C   0  0  0  0  0  0  0  0  0  0  0  0
  -11.9009    0.0029  -24.7218 C   0  0  0  0  0  0  0  0  0  0  0  0
  -13.1128   -0.4228  -23.9678 C   0  0  0  0  0  0  0  0  0  0  0  0
  -12.7539   -1.3982  -23.1063 C   0  0  0  0  0  0  0  0  0  0  0  0
  -11.8397   -1.8621  -22.7875 C   0  0  0  0  0  0  0  0  0  0  0  0
   -9.8015   -0.6542  -22.5048 C   0  0  2  0  0  0  0  0  0  0  0  0
   -9.2322    0.0739  -21.5222 C   0  0  0  0  0  0  0  0  0  0  0  0
   -9.7418    1.0543  -21.2639 O   0  0  0  0  0  0  0  0  0  0  0  0
   -8.1343   -0.4998  -21.0510 N   0  0  0  0  0  0  0  0  0  0  0  0
   -7.5439    0.0608  -20.0845 C   0  0  0  0  0  0  0  0  0  0  0  0
   -7.7610    0.2431  -18.8040 C   0  0  0  0  0  0  0  0  0  0  0  0
   -7.3811    0.6817  -17.7277 N   0  0  0  0  0  0  0  0  0  0  0  0
   -6.1856    1.2401  -18.0442 C   0  0  0  0  0  0  0  0  0  0  0  0
   -5.6993    1.2414  -19.2521 C   0  0  0  0  0  0  0  0  0  0  0  0
   -6.1370    0.7233  -20.3535 C   0  0  0  0  0  0  0  0  0  0  0  0
   -5.4995    0.7249  -21.6500 C   0  0  0  0  0  0  0  0  0  0  0  0
   -6.1768   -5.7548  -26.7931 H   0  0  0  0  0  0  0  0  0  0  0  0
   -5.6118   -4.3016  -25.9013 H   0  0  0  0  0  0  0  0  0  0  0  0
   -6.0280   -5.8008  -25.0037 H   0  0  0  0  0  0  0  0  0  0  0  0
   -7.1301   -3.2119  -24.3936 H   0  0  0  0  0  0  0  0  0  0  0  0
   -9.6794   -3.7653  -24.1358 H   0  0  0  0  0  0  0  0  0  0  0  0
  -10.1874    0.1273  -25.3107 H   0  0  0  0  0  0  0  0  0  0  0  0
  -12.0847    0.7086  -25.5185 H   0  0  0  0  0  0  0  0  0  0  0  0
  -14.1076   -0.0204  -24.0894 H   0  0  0  0  0  0  0  0  0  0  0  0
  -13.6117   -1.8235  -22.6064 H   0  0  0  0  0  0  0  0  0  0  0  0
  -11.7880   -1.7578  -21.6937 H   0  0  0  0  0  0  0  0  0  0  0  0
  -11.9084   -2.9277  -23.0514 H   0  0  0  0  0  0  0  0  0  0  0  0
  -10.3287   -1.2885  -21.7770 H   0  0  0  0  0  0  0  0  0  0  0  0
   -7.7845   -1.3487  -21.4474 H   0  0  0  0  0  0  0  0  0  0  0  0
   -8.7255   -0.2020  -18.6092 H   0  0  0  0  0  0  0  0  0  0  0  0
   -5.6103    1.7052  -17.2574 H   0  0  0  0  0  0  0  0  0  0  0  0
   -4.7628    1.7698  -19.3524 H   0  0  0  0  0  0  0  0  0  0  0  0
   -4.8678   -0.1701  -21.7497 H   0  0  0  0  0  0  0  0  0  0  0  0
   -6.2684    0.7202  -22.4365 H   0  0  0  0  0  0  0  0  0  0  0  0
   -4.8769    1.6261  -21.7512 H   0  0  0  0  0  0  0  0  0  0  0  0
 20 21  2  0  0  0  0
 19 20  1  0  0  0  0
 21 22  1  0  0  0  0
 18 19  2  0  0  0  0
 22 23  2  0  0  0  0
 18 23  1  0  0  0  0
 17 18  1  0  0  0  0
 23 24  1  0  0  0  0
 15 16  2  0  0  0  0
 15 17  1  0  0  0  0
 14 15  1  0  0  0  0
  8 14  1  0  0  0  0
  7 14  1  0  0  0  0
 12 13  1  0  0  0  0
  8 13  1  0  0  0  0
 11 12  2  0  0  0  0
  7  8  1  0  0  0  0
  8  9  1  0  0  0  0
 10 11  1  0  0  0  0
  6  7  2  3  0  0  0
  5  6  1  0  0  0  0
  9 10  2  0  0  0  0
  2  5  1  0  0  0  0
  2  3  2  0  0  0  0
  1  2  1  0  0  0  0
  2  4  2  0  0  0  0
  1 25  1  0  0  0  0
  1 26  1  0  0  0  0
  1 27  1  0  0  0  0
  5 28  1  0  0  0  0
  6 29  1  0  0  0  0
  9 30  1  0  0  0  0
 10 31  1  0  0  0  0
 11 32  1  0  0  0  0
 12 33  1  0  0  0  0
 13 34  1  0  0  0  0
 13 35  1  0  0  0  0
 14 36  1  0  0  0  0
 17 37  1  0  0  0  0
 19 38  1  0  0  0  0
 21 39  1  0  0  0  0
 22 40  1  0  0  0  0
 24 41  1  0  0  0  0
 24 42  1  0  0  0  0
 24 43  1  0  0  0  0
M  END
> <Chemgauss4>
-12.671326

$$$$
