stable:False satoms:9 tatoms:24 sratio:0.375
  -OEChem-08062417273D

 43 45  0     1  0  0  0  0  0999 V2000
    6.6899   -5.2895   26.1660 C   0  0  0  0  0  0  0  0  0  0  0  0
    8.1673   -4.7426   25.9041 S   0  0  0  0  0  0  0  0  0  0  0  0
    9.0642   -5.8792   25.7738 O   0  0  0  0  0  0  0  0  0  0  0  0
    8.5852   -3.9217   27.0091 O   0  0  0  0  0  0  0  0  0  0  0  0
    8.1547   -3.8875   24.5513 N   0  0  0  0  0  0  0  0  0  0  0  0
    8.9981   -3.1641   24.0886 C   0  0  0  0  0  0  0  0  0  0  0  0
    9.4626   -2.0942   23.5586 C   0  0  0  0  0  0  0  0  0  0  0  0
   10.3640   -1.2466   23.4465 C   0  0  1  0  0  0  0  0  0  0  0  0
   11.0314   -0.2567   24.5508 C   0  0  0  0  0  0  0  0  0  0  0  0
   12.0376    0.0515   24.5897 C   0  0  0  0  0  0  0  0  0  0  0  0
   13.1933   -0.3350   23.7333 C   0  0  0  0  0  0  0  0  0  0  0  0
   12.7912   -1.3162   22.8979 C   0  0  0  0  0  0  0  0  0  0  0  0
   11.8671   -1.8051   22.6538 C   0  0  0  0  0  0  0  0  0  0  0  0
    9.7784   -0.6560   22.5525 C   0  0  2  0  0  0  0  0  0  0  0  0
    9.1076    0.0599   21.6266 C   0  0  0  0  0  0  0  0  0  0  0  0
    9.5652    1.0560   21.3335 O   0  0  0  0  0  0  0  0  0  0  0  0
    7.9908   -0.5434   21.2453 N   0  0  0  0  0  0  0  0  0  0  0  0
    7.3051    0.0044   20.3360 C   0  0  0  0  0  0  0  0  0  0  0  0
    7.4081    0.1992   19.0432 C   0  0  0  0  0  0  0  0  0  0  0  0
    6.9264    0.6317   18.0059 N   0  0  0  0  0  0  0  0  0  0  0  0
    5.7462    1.1534   18.4260 C   0  0  0  0  0  0  0  0  0  0  0  0
    5.3638    1.1346   19.6705 C   0  0  0  0  0  0  0  0  0  0  0  0
    5.9074    0.6241   20.7273 C   0  0  0  0  0  0  0  0  0  0  0  0
    5.3818    0.6007   22.0728 C   0  0  0  0  0  0  0  0  0  0  0  0
    6.6764   -5.8813   27.0932 H   0  0  0  0  0  0  0  0  0  0  0  0
    5.9967   -4.4409   26.2627 H   0  0  0  0  0  0  0  0  0  0  0  0
    6.3786   -5.9230   25.3223 H   0  0  0  0  0  0  0  0  0  0  0  0
    7.3504   -3.3000   24.6406 H   0  0  0  0  0  0  0  0  0  0  0  0
    9.8838   -3.7773   24.1652 H   0  0  0  0  0  0  0  0  0  0  0  0
   10.3769    0.1228   25.3216 H   0  0  0  0  0  0  0  0  0  0  0  0
   12.2675    0.7583   25.3732 H   0  0  0  0  0  0  0  0  0  0  0  0
   14.1828    0.0958   23.7737 H   0  0  0  0  0  0  0  0  0  0  0  0
   13.6156   -1.7138   22.3246 H   0  0  0  0  0  0  0  0  0  0  0  0
   11.7204   -1.6970   21.5690 H   0  0  0  0  0  0  0  0  0  0  0  0
   11.9883   -2.8696   22.9032 H   0  0  0  0  0  0  0  0  0  0  0  0
   10.2604   -1.2710   21.7782 H   0  0  0  0  0  0  0  0  0  0  0  0
    7.7002   -1.4041   21.6635 H   0  0  0  0  0  0  0  0  0  0  0  0
    8.3652   -0.2166   18.7647 H   0  0  0  0  0  0  0  0  0  0  0  0
    5.0936    1.6053   17.6937 H   0  0  0  0  0  0  0  0  0  0  0  0
    4.4242    1.6349   19.8530 H   0  0  0  0  0  0  0  0  0  0  0  0
    4.7867   -0.3128   22.2187 H   0  0  0  0  0  0  0  0  0  0  0  0
    6.2141    0.6148   22.7918 H   0  0  0  0  0  0  0  0  0  0  0  0
    4.7443    1.4828   22.2326 H   0  0  0  0  0  0  0  0  0  0  0  0
 20 21  2  0  0  0  0
 19 20  1  0  0  0  0
 21 22  1  0  0  0  0
 18 19  2  0  0  0  0
 22 23  2  0  0  0  0
 18 23  1  0  0  0  0
 17 18  1  0  0  0  0
 23 24  1  0  0  0  0
 15 16  2  0  0  0  0
 15 17  1  0  0  0  0
 14 15  1  0  0  0  0
  8 14  1  0  0  0  0
  7 14  1  0  0  0  0
 12 13  1  0  0  0  0
  8 13  1  0  0  0  0
 11 12  2  0  0  0  0
  7  8  1  0  0  0  0
  8  9  1  0  0  0  0
 10 11  1  0  0  0  0
  6  7  2  3  0  0  0
  5  6  1  0  0  0  0
  9 10  2  0  0  0  0
  2  5  1  0  0  0  0
  2  3  2  0  0  0  0
  1  2  1  0  0  0  0
  2  4  2  0  0  0  0
  1 25  1  0  0  0  0
  1 26  1  0  0  0  0
  1 27  1  0  0  0  0
  5 28  1  0  0  0  0
  6 29  1  0  0  0  0
  9 30  1  0  0  0  0
 10 31  1  0  0  0  0
 11 32  1  0  0  0  0
 12 33  1  0  0  0  0
 13 34  1  0  0  0  0
 13 35  1  0  0  0  0
 14 36  1  0  0  0  0
 17 37  1  0  0  0  0
 19 38  1  0  0  0  0
 21 39  1  0  0  0  0
 22 40  1  0  0  0  0
 24 41  1  0  0  0  0
 24 42  1  0  0  0  0
 24 43  1  0  0  0  0
M  END
> <Chemgauss4>
-12.675315

$$$$
