REMARK  6 active torsions:
REMARK  status: ('A' for Active; 'I' for Inactive)
REMARK    1  A    between atoms: C_2  and  C_7 
REMARK    2  A    between atoms: N_4  and  C_18 
REMARK    3  A    between atoms: O_5  and  C_18 
REMARK    4  A    between atoms: C_6  and  C_11 
REMARK       I    between atoms: C_6  and  N_9 
REMARK    5  A    between atoms: N_13  and  C_16 
REMARK    6  A    between atoms: C_16  and  C_18 
ROOT
HETATM    1  H   UNL     1       7.548  -1.533  23.522  1.00  0.00     0.167 HD
HETATM    2  C   UNL     1       8.968  -0.403  22.447  1.00  0.00     0.090 C 
HETATM    3  N   UNL     1       7.772  -0.829  22.819  1.00  0.00    -0.349 N 
ENDROOT
BRANCH   2   4
HETATM    4  C   UNL     1      10.206  -0.795  22.892  1.00  0.00     0.029 C 
HETATM    5  C   UNL     1      10.451  -2.002  23.481  1.00  0.00     0.007 C 
HETATM    6  C   UNL     1      11.655  -2.038  24.369  1.00  0.00     0.054 C 
BRANCH   5   7
HETATM    7  C   UNL     1       9.533  -3.123  23.139  1.00  0.00     0.245 C 
HETATM    8  O   UNL     1       8.794  -2.997  22.080  1.00  0.00    -0.268 OA
HETATM    9  N   UNL     1       9.559  -4.195  23.806  1.00  0.00    -0.366 N 
HETATM   10  H   UNL     1       9.394  -4.460  24.747  1.00  0.00     0.159 HD
ATOM     11  HN  UNL     1       9.816  -4.995  23.227  1.00  0.00     0.159 HD
ENDBRANCH   5   7
ENDBRANCH   2   4
BRANCH   3  12
HETATM   12  C   UNL     1       6.862  -0.784  21.701  1.00  0.00     0.132 C 
BRANCH  12  13
HETATM   13  O   UNL     1       6.347  -1.921  21.554  1.00  0.00    -0.348 OA
HETATM   14  H   UNL     1       6.808  -2.677  21.849  1.00  0.00     0.219 HD
ENDBRANCH  12  13
BRANCH  12  15
HETATM   15  C   UNL     1       6.593   0.301  20.688  1.00  0.00     0.195 C 
BRANCH  15  16
HETATM   16  N   UNL     1       6.659   1.581  21.292  1.00  0.00    -0.423 N 
HETATM   17  H   UNL     1       7.570   1.847  21.587  1.00  0.00     0.150 HD
HETATM   18  H   UNL     1       6.008   2.285  21.013  1.00  0.00     0.150 HD
ENDBRANCH  15  16
ENDBRANCH  12  15
ENDBRANCH   3  12
TORSDOF 6
