MODEL 1
REMARK VINA RESULT:    -4.798      0.000      0.000
REMARK INTER + INTRA:          -7.176
REMARK INTER:                  -6.480
REMARK INTRA:                  -0.696
REMARK UNBOUND:                -0.696
REMARK  6 active torsions:
REMARK  status: ('A' for Active; 'I' for Inactive)
REMARK    1  A    between atoms: C_1  and  C_5 
REMARK    2  A    between atoms: C_1  and  C_11 
REMARK    3  A    between atoms: N_2  and  C_10 
REMARK    4  A    between atoms: C_5  and  C_14 
REMARK       I    between atoms: N_8  and  C_11 
REMARK    5  A    between atoms: N_9  and  C_10 
REMARK    6  A    between atoms: C_14  and  C_15 
ROOT
HETATM    1  N   UNL     1      10.960  -1.233  23.081  1.00  0.00    -0.350 N 
ATOM      2  HN  UNL     1      10.428  -1.099  22.221  1.00  0.00     0.166 HD
HETATM    3  C   UNL     1      10.241  -1.066  24.166  1.00  0.00     0.018 C 
ENDROOT
BRANCH   3   4
HETATM    4  C   UNL     1       9.341  -2.266  24.183  1.00  0.00     0.159 C 
BRANCH   4   5
HETATM    5  C   UNL     1       8.462  -2.277  22.941  1.00  0.00     0.222 C 
HETATM    6  O   UNL     1       8.029  -1.235  22.515  1.00  0.00    -0.273 OA
HETATM    7  N   UNL     1       8.192  -3.515  22.469  1.00  0.00    -0.365 N 
HETATM    8  H   UNL     1       8.402  -3.767  21.528  1.00  0.00     0.161 HD
HETATM    9  C   UNL     1       7.502  -4.379  23.398  1.00  0.00     0.149 C 
ENDBRANCH   4   5
ENDBRANCH   3   4
BRANCH   3  10
HETATM   10  C   UNL     1      10.276   0.099  24.959  1.00  0.00     0.024 C 
BRANCH  10  11
HETATM   11  C   UNL     1      10.122   1.450  24.595  1.00  0.00    -0.008 C 
HETATM   12  C   UNL     1      11.178   2.003  23.989  1.00  0.00     0.011 C 
ENDBRANCH  10  11
ENDBRANCH   3  10
BRANCH   1  13
HETATM   13  C   UNL     1      12.059  -1.496  22.896  1.00  0.00     0.258 C 
BRANCH  13  14
HETATM   14  N   UNL     1      13.264  -1.437  23.382  1.00  0.00    -0.111 N 
HETATM   15  O   UNL     1      13.637  -0.534  24.065  1.00  0.00    -0.531 OA
HETATM   16  O   UNL     1      13.880  -2.360  22.850  1.00  0.00    -0.531 OA
ENDBRANCH  13  14
ENDBRANCH   1  13
TORSDOF 6
ENDMDL
MODEL 2
REMARK VINA RESULT:    -4.628     24.506     25.412
REMARK INTER + INTRA:          -6.947
REMARK INTER:                  -6.408
REMARK INTRA:                  -0.538
REMARK UNBOUND:                -0.696
REMARK  6 active torsions:
REMARK  status: ('A' for Active; 'I' for Inactive)
REMARK    1  A    between atoms: C_1  and  C_5 
REMARK    2  A    between atoms: C_1  and  C_11 
REMARK    3  A    between atoms: N_2  and  C_10 
REMARK    4  A    between atoms: C_5  and  C_14 
REMARK       I    between atoms: N_8  and  C_11 
REMARK    5  A    between atoms: N_9  and  C_10 
REMARK    6  A    between atoms: C_14  and  C_15 
ROOT
HETATM    1  N   UNL     1       8.438  13.564   3.762  1.00  0.00    -0.350 N 
ATOM      2  HN  UNL     1       8.094  14.196   4.485  1.00  0.00     0.166 HD
HETATM    3  C   UNL     1       7.583  12.617   3.454  1.00  0.00     0.018 C 
ENDROOT
BRANCH   3   4
HETATM    4  C   UNL     1       6.496  13.344   2.721  1.00  0.00     0.159 C 
BRANCH   4   5
HETATM    5  C   UNL     1       6.130  12.593   1.450  1.00  0.00     0.222 C 
HETATM    6  O   UNL     1       6.771  12.783   0.446  1.00  0.00    -0.273 OA
HETATM    7  N   UNL     1       5.032  11.812   1.569  1.00  0.00    -0.365 N 
HETATM    8  H   UNL     1       5.065  10.838   1.358  1.00  0.00     0.161 HD
HETATM    9  C   UNL     1       3.824  12.518   1.923  1.00  0.00     0.149 C 
ENDBRANCH   4   5
ENDBRANCH   3   4
BRANCH   3  10
HETATM   10  C   UNL     1       7.688  11.287   3.912  1.00  0.00     0.024 C 
BRANCH  10  11
HETATM   11  C   UNL     1       6.877  10.569   4.810  1.00  0.00    -0.008 C 
HETATM   12  C   UNL     1       5.971   9.765   4.244  1.00  0.00     0.011 C 
ENDBRANCH  10  11
ENDBRANCH   3  10
BRANCH   1  13
HETATM   13  C   UNL     1       9.488  13.830   3.391  1.00  0.00     0.258 C 
BRANCH  13  14
HETATM   14  N   UNL     1      10.212  14.737   2.803  1.00  0.00    -0.111 N 
HETATM   15  O   UNL     1       9.905  15.223   1.758  1.00  0.00    -0.531 OA
HETATM   16  O   UNL     1      11.254  14.800   3.453  1.00  0.00    -0.531 OA
ENDBRANCH  13  14
ENDBRANCH   1  13
TORSDOF 6
ENDMDL
MODEL 3
REMARK VINA RESULT:    -4.570     26.692     27.965
REMARK INTER + INTRA:          -6.869
REMARK INTER:                  -6.033
REMARK INTRA:                  -0.836
REMARK UNBOUND:                -0.696
REMARK  6 active torsions:
REMARK  status: ('A' for Active; 'I' for Inactive)
REMARK    1  A    between atoms: C_1  and  C_5 
REMARK    2  A    between atoms: C_1  and  C_11 
REMARK    3  A    between atoms: N_2  and  C_10 
REMARK    4  A    between atoms: C_5  and  C_14 
REMARK       I    between atoms: N_8  and  C_11 
REMARK    5  A    between atoms: N_9  and  C_10 
REMARK    6  A    between atoms: C_14  and  C_15 
ROOT
HETATM    1  N   UNL     1       9.754  15.781   2.456  1.00  0.00    -0.350 N 
ATOM      2  HN  UNL     1      10.452  15.891   1.721  1.00  0.00     0.166 HD
HETATM    3  C   UNL     1       9.084  16.882   2.702  1.00  0.00     0.018 C 
ENDROOT
BRANCH   3   4
HETATM    4  C   UNL     1       8.218  17.049   1.490  1.00  0.00     0.159 C 
BRANCH   4   5
HETATM    5  C   UNL     1       8.875  18.005   0.506  1.00  0.00     0.222 C 
HETATM    6  O   UNL     1      10.071  17.966   0.355  1.00  0.00    -0.273 OA
HETATM    7  N   UNL     1       8.018  18.881  -0.066  1.00  0.00    -0.365 N 
HETATM    8  H   UNL     1       7.935  18.951  -1.057  1.00  0.00     0.161 HD
HETATM    9  C   UNL     1       7.330  19.747   0.862  1.00  0.00     0.149 C 
ENDBRANCH   4   5
ENDBRANCH   3   4
BRANCH   3  10
HETATM   10  C   UNL     1       9.333  17.721   3.808  1.00  0.00     0.024 C 
BRANCH  10  11
HETATM   11  C   UNL     1      10.545  18.250   4.291  1.00  0.00    -0.008 C 
HETATM   12  C   UNL     1      10.882  19.448   3.799  1.00  0.00     0.011 C 
ENDBRANCH  10  11
ENDBRANCH   3  10
BRANCH   1  13
HETATM   13  C   UNL     1       9.720  14.722   2.893  1.00  0.00     0.258 C 
BRANCH  13  14
HETATM   14  N   UNL     1       9.935  14.001   3.953  1.00  0.00    -0.111 N 
HETATM   15  O   UNL     1      10.702  14.327   4.806  1.00  0.00    -0.531 OA
HETATM   16  O   UNL     1       9.343  12.940   3.756  1.00  0.00    -0.531 OA
ENDBRANCH  13  14
ENDBRANCH   1  13
TORSDOF 6
ENDMDL
MODEL 4
REMARK VINA RESULT:    -4.445      3.331      6.273
REMARK INTER + INTRA:          -6.700
REMARK INTER:                  -5.968
REMARK INTRA:                  -0.733
REMARK UNBOUND:                -0.696
REMARK  6 active torsions:
REMARK  status: ('A' for Active; 'I' for Inactive)
REMARK    1  A    between atoms: C_1  and  C_5 
REMARK    2  A    between atoms: C_1  and  C_11 
REMARK    3  A    between atoms: N_2  and  C_10 
REMARK    4  A    between atoms: C_5  and  C_14 
REMARK       I    between atoms: N_8  and  C_11 
REMARK    5  A    between atoms: N_9  and  C_10 
REMARK    6  A    between atoms: C_14  and  C_15 
ROOT
HETATM    1  N   UNL     1       6.407  -4.391  24.846  1.00  0.00    -0.350 N 
ATOM      2  HN  UNL     1       5.466  -4.068  24.620  1.00  0.00     0.166 HD
HETATM    3  C   UNL     1       7.211  -4.410  23.808  1.00  0.00     0.018 C 
ENDROOT
BRANCH   3   4
HETATM    4  C   UNL     1       7.455  -2.959  23.522  1.00  0.00     0.159 C 
BRANCH   4   5
HETATM    5  C   UNL     1       8.853  -2.565  23.975  1.00  0.00     0.222 C 
HETATM    6  O   UNL     1       9.049  -2.323  25.140  1.00  0.00    -0.273 OA
HETATM    7  N   UNL     1       9.747  -2.455  22.967  1.00  0.00    -0.365 N 
HETATM    8  H   UNL     1      10.598  -2.975  22.972  1.00  0.00     0.161 HD
HETATM    9  C   UNL     1       9.411  -1.472  21.964  1.00  0.00     0.149 C 
ENDBRANCH   4   5
ENDBRANCH   3   4
BRANCH   3  10
HETATM   10  C   UNL     1       7.556  -5.583  23.106  1.00  0.00     0.024 C 
BRANCH  10  11
HETATM   11  C   UNL     1       6.816  -6.335  22.175  1.00  0.00    -0.008 C 
HETATM   12  C   UNL     1       6.242  -5.628  21.195  1.00  0.00     0.011 C 
ENDBRANCH  10  11
ENDBRANCH   3  10
BRANCH   1  13
HETATM   13  C   UNL     1       6.539  -4.661  25.951  1.00  0.00     0.258 C 
BRANCH  13  14
HETATM   14  N   UNL     1       7.290  -5.280  26.813  1.00  0.00    -0.111 N 
HETATM   15  O   UNL     1       8.375  -4.889  27.116  1.00  0.00    -0.531 OA
HETATM   16  O   UNL     1       6.715  -6.341  27.051  1.00  0.00    -0.531 OA
ENDBRANCH  13  14
ENDBRANCH   1  13
TORSDOF 6
ENDMDL
MODEL 5
REMARK VINA RESULT:    -4.442      2.725      3.079
REMARK INTER + INTRA:          -6.696
REMARK INTER:                  -6.033
REMARK INTRA:                  -0.663
REMARK UNBOUND:                -0.696
REMARK  6 active torsions:
REMARK  status: ('A' for Active; 'I' for Inactive)
REMARK    1  A    between atoms: C_1  and  C_5 
REMARK    2  A    between atoms: C_1  and  C_11 
REMARK    3  A    between atoms: N_2  and  C_10 
REMARK    4  A    between atoms: C_5  and  C_14 
REMARK       I    between atoms: N_8  and  C_11 
REMARK    5  A    between atoms: N_9  and  C_10 
REMARK    6  A    between atoms: C_14  and  C_15 
ROOT
HETATM    1  N   UNL     1      10.189  -0.355  21.438  1.00  0.00    -0.350 N 
ATOM      2  HN  UNL     1      10.758  -0.361  20.591  1.00  0.00     0.166 HD
HETATM    3  C   UNL     1       9.211   0.519  21.398  1.00  0.00     0.018 C 
ENDROOT
BRANCH   3   4
HETATM    4  C   UNL     1       8.255  -0.063  20.400  1.00  0.00     0.159 C 
BRANCH   4   5
HETATM    5  C   UNL     1       6.995  -0.545  21.103  1.00  0.00     0.222 C 
HETATM    6  O   UNL     1       7.093  -1.303  22.036  1.00  0.00    -0.273 OA
HETATM    7  N   UNL     1       5.848  -0.107  20.537  1.00  0.00    -0.365 N 
HETATM    8  H   UNL     1       5.168   0.394  21.067  1.00  0.00     0.161 HD
HETATM    9  C   UNL     1       5.660  -0.508  19.163  1.00  0.00     0.149 C 
ENDBRANCH   4   5
ENDBRANCH   3   4
BRANCH   3  10
HETATM   10  C   UNL     1       9.246   1.765  22.057  1.00  0.00     0.024 C 
BRANCH  10  11
HETATM   11  C   UNL     1       9.666   2.091  23.360  1.00  0.00    -0.008 C 
HETATM   12  C   UNL     1      10.905   2.587  23.454  1.00  0.00     0.011 C 
ENDBRANCH  10  11
ENDBRANCH   3  10
BRANCH   1  13
HETATM   13  C   UNL     1      10.538  -1.113  22.223  1.00  0.00     0.258 C 
BRANCH  13  14
HETATM   14  N   UNL     1      11.381  -1.334  23.188  1.00  0.00    -0.111 N 
HETATM   15  O   UNL     1      11.213  -0.919  24.293  1.00  0.00    -0.531 OA
HETATM   16  O   UNL     1      12.359  -1.860  22.658  1.00  0.00    -0.531 OA
ENDBRANCH  13  14
ENDBRANCH   1  13
TORSDOF 6
ENDMDL
MODEL 6
REMARK VINA RESULT:    -4.383      2.883      4.205
REMARK INTER + INTRA:          -6.616
REMARK INTER:                  -6.198
REMARK INTRA:                  -0.418
REMARK UNBOUND:                -0.696
REMARK  6 active torsions:
REMARK  status: ('A' for Active; 'I' for Inactive)
REMARK    1  A    between atoms: C_1  and  C_5 
REMARK    2  A    between atoms: C_1  and  C_11 
REMARK    3  A    between atoms: N_2  and  C_10 
REMARK    4  A    between atoms: C_5  and  C_14 
REMARK       I    between atoms: N_8  and  C_11 
REMARK    5  A    between atoms: N_9  and  C_10 
REMARK    6  A    between atoms: C_14  and  C_15 
ROOT
HETATM    1  N   UNL     1       9.129  -2.519  23.014  1.00  0.00    -0.350 N 
ATOM      2  HN  UNL     1       8.918  -2.797  22.056  1.00  0.00     0.166 HD
HETATM    3  C   UNL     1       9.831  -1.414  23.090  1.00  0.00     0.018 C 
ENDROOT
BRANCH   3   4
HETATM    4  C   UNL     1       8.861  -0.348  22.677  1.00  0.00     0.159 C 
BRANCH   4   5
HETATM    5  C   UNL     1       9.319   0.302  21.380  1.00  0.00     0.222 C 
HETATM    6  O   UNL     1      10.054   1.258  21.426  1.00  0.00    -0.273 OA
HETATM    7  N   UNL     1       8.774  -0.243  20.269  1.00  0.00    -0.365 N 
HETATM    8  H   UNL     1       9.345  -0.596  19.532  1.00  0.00     0.161 HD
HETATM    9  C   UNL     1       7.333  -0.175  20.208  1.00  0.00     0.149 C 
ENDBRANCH   4   5
ENDBRANCH   3   4
BRANCH   3  10
HETATM   10  C   UNL     1      11.218  -1.382  23.345  1.00  0.00     0.024 C 
BRANCH  10  11
HETATM   11  C   UNL     1      12.017  -0.361  23.892  1.00  0.00    -0.008 C 
HETATM   12  C   UNL     1      13.303  -0.680  24.078  1.00  0.00     0.011 C 
ENDBRANCH  10  11
ENDBRANCH   3  10
BRANCH   1  13
HETATM   13  C   UNL     1       8.703  -3.239  23.797  1.00  0.00     0.258 C 
BRANCH  13  14
HETATM   14  N   UNL     1       8.315  -4.459  24.023  1.00  0.00    -0.111 N 
HETATM   15  O   UNL     1       7.693  -5.092  23.226  1.00  0.00    -0.531 OA
HETATM   16  O   UNL     1       8.576  -4.676  25.205  1.00  0.00    -0.531 OA
ENDBRANCH  13  14
ENDBRANCH   1  13
TORSDOF 6
ENDMDL
MODEL 7
REMARK VINA RESULT:    -4.365     25.876     27.121
REMARK INTER + INTRA:          -6.591
REMARK INTER:                  -5.894
REMARK INTRA:                  -0.697
REMARK UNBOUND:                -0.696
REMARK  6 active torsions:
REMARK  status: ('A' for Active; 'I' for Inactive)
REMARK    1  A    between atoms: C_1  and  C_5 
REMARK    2  A    between atoms: C_1  and  C_11 
REMARK    3  A    between atoms: N_2  and  C_10 
REMARK    4  A    between atoms: C_5  and  C_14 
REMARK       I    between atoms: N_8  and  C_11 
REMARK    5  A    between atoms: N_9  and  C_10 
REMARK    6  A    between atoms: C_14  and  C_15 
ROOT
HETATM    1  N   UNL     1       8.264  15.780   3.796  1.00  0.00    -0.350 N 
ATOM      2  HN  UNL     1       7.765  16.480   4.345  1.00  0.00     0.166 HD
HETATM    3  C   UNL     1       7.677  15.500   2.656  1.00  0.00     0.018 C 
ENDROOT
BRANCH   3   4
HETATM    4  C   UNL     1       7.895  16.734   1.833  1.00  0.00     0.159 C 
BRANCH   4   5
HETATM    5  C   UNL     1       9.070  16.531   0.887  1.00  0.00     0.222 C 
HETATM    6  O   UNL     1       9.721  15.518   0.965  1.00  0.00    -0.273 OA
HETATM    7  N   UNL     1       9.310  17.584   0.075  1.00  0.00    -0.365 N 
HETATM    8  H   UNL     1       9.335  17.477  -0.917  1.00  0.00     0.161 HD
HETATM    9  C   UNL     1       9.618  18.818   0.758  1.00  0.00     0.149 C 
ENDBRANCH   4   5
ENDBRANCH   3   4
BRANCH   3  10
HETATM   10  C   UNL     1       6.903  14.342   2.436  1.00  0.00     0.024 C 
BRANCH  10  11
HETATM   11  C   UNL     1       5.866  13.784   3.206  1.00  0.00    -0.008 C 
HETATM   12  C   UNL     1       6.246  12.851   4.086  1.00  0.00     0.011 C 
ENDBRANCH  10  11
ENDBRANCH   3  10
BRANCH   1  13
HETATM   13  C   UNL     1       9.219  15.403   4.306  1.00  0.00     0.258 C 
BRANCH  13  14
HETATM   14  N   UNL     1      10.265  14.642   4.176  1.00  0.00    -0.111 N 
HETATM   15  O   UNL     1      11.304  15.047   3.755  1.00  0.00    -0.531 OA
HETATM   16  O   UNL     1       9.872  13.498   4.404  1.00  0.00    -0.531 OA
ENDBRANCH  13  14
ENDBRANCH   1  13
TORSDOF 6
ENDMDL
MODEL 8
REMARK VINA RESULT:    -4.361     12.187     13.485
REMARK INTER + INTRA:          -6.586
REMARK INTER:                  -6.047
REMARK INTRA:                  -0.539
REMARK UNBOUND:                -0.696
REMARK  6 active torsions:
REMARK  status: ('A' for Active; 'I' for Inactive)
REMARK    1  A    between atoms: C_1  and  C_5 
REMARK    2  A    between atoms: C_1  and  C_11 
REMARK    3  A    between atoms: N_2  and  C_10 
REMARK    4  A    between atoms: C_5  and  C_14 
REMARK       I    between atoms: N_8  and  C_11 
REMARK    5  A    between atoms: N_9  and  C_10 
REMARK    6  A    between atoms: C_14  and  C_15 
ROOT
HETATM    1  N   UNL     1      23.219  -3.796  26.355  1.00  0.00    -0.350 N 
ATOM      2  HN  UNL     1      22.931  -3.939  27.323  1.00  0.00     0.166 HD
HETATM    3  C   UNL     1      22.862  -2.627  25.876  1.00  0.00     0.018 C 
ENDROOT
BRANCH   3   4
HETATM    4  C   UNL     1      23.752  -1.661  26.598  1.00  0.00     0.159 C 
BRANCH   4   5
HETATM    5  C   UNL     1      22.938  -0.837  27.584  1.00  0.00     0.222 C 
HETATM    6  O   UNL     1      22.588   0.276  27.275  1.00  0.00    -0.273 OA
HETATM    7  N   UNL     1      22.746  -1.440  28.779  1.00  0.00    -0.365 N 
HETATM    8  H   UNL     1      21.829  -1.584  29.144  1.00  0.00     0.161 HD
HETATM    9  C   UNL     1      23.957  -1.755  29.499  1.00  0.00     0.149 C 
ENDBRANCH   4   5
ENDBRANCH   3   4
BRANCH   3  10
HETATM   10  C   UNL     1      21.762  -2.436  25.014  1.00  0.00     0.024 C 
BRANCH  10  11
HETATM   11  C   UNL     1      21.493  -1.398  24.103  1.00  0.00    -0.008 C 
HETATM   12  C   UNL     1      22.298  -1.351  23.036  1.00  0.00     0.011 C 
ENDBRANCH  10  11
ENDBRANCH   3  10
BRANCH   1  13
HETATM   13  C   UNL     1      23.785  -4.689  25.915  1.00  0.00     0.258 C 
BRANCH  13  14
HETATM   14  N   UNL     1      23.683  -5.922  25.515  1.00  0.00    -0.111 N 
HETATM   15  O   UNL     1      23.905  -6.849  26.232  1.00  0.00    -0.531 OA
HETATM   16  O   UNL     1      23.501  -5.861  24.300  1.00  0.00    -0.531 OA
ENDBRANCH  13  14
ENDBRANCH   1  13
TORSDOF 6
ENDMDL
MODEL 9
REMARK VINA RESULT:    -4.351      2.883      5.956
REMARK INTER + INTRA:          -6.572
REMARK INTER:                  -6.090
REMARK INTRA:                  -0.482
REMARK UNBOUND:                -0.696
REMARK  6 active torsions:
REMARK  status: ('A' for Active; 'I' for Inactive)
REMARK    1  A    between atoms: C_1  and  C_5 
REMARK    2  A    between atoms: C_1  and  C_11 
REMARK    3  A    between atoms: N_2  and  C_10 
REMARK    4  A    between atoms: C_5  and  C_14 
REMARK       I    between atoms: N_8  and  C_11 
REMARK    5  A    between atoms: N_9  and  C_10 
REMARK    6  A    between atoms: C_14  and  C_15 
ROOT
HETATM    1  N   UNL     1       7.837  -4.235  22.737  1.00  0.00    -0.350 N 
ATOM      2  HN  UNL     1       8.715  -4.333  22.228  1.00  0.00     0.166 HD
HETATM    3  C   UNL     1       7.916  -3.404  23.750  1.00  0.00     0.018 C 
ENDROOT
BRANCH   3   4
HETATM    4  C   UNL     1       8.034  -2.060  23.097  1.00  0.00     0.159 C 
BRANCH   4   5
HETATM    5  C   UNL     1       9.415  -1.898  22.479  1.00  0.00     0.222 C 
HETATM    6  O   UNL     1      10.383  -2.276  23.091  1.00  0.00    -0.273 OA
HETATM    7  N   UNL     1       9.413  -1.256  21.289  1.00  0.00    -0.365 N 
HETATM    8  H   UNL     1       9.813  -1.673  20.476  1.00  0.00     0.161 HD
HETATM    9  C   UNL     1       8.884   0.086  21.327  1.00  0.00     0.149 C 
ENDBRANCH   4   5
ENDBRANCH   3   4
BRANCH   3  10
HETATM   10  C   UNL     1       8.029  -3.816  25.094  1.00  0.00     0.024 C 
BRANCH  10  11
HETATM   11  C   UNL     1       8.325  -5.081  25.635  1.00  0.00    -0.008 C 
HETATM   12  C   UNL     1       7.907  -5.278  26.890  1.00  0.00     0.011 C 
ENDBRANCH  10  11
ENDBRANCH   3  10
BRANCH   1  13
HETATM   13  C   UNL     1       6.990  -4.874  22.305  1.00  0.00     0.258 C 
BRANCH  13  14
HETATM   14  N   UNL     1       5.957  -4.879  21.515  1.00  0.00    -0.111 N 
HETATM   15  O   UNL     1       5.888  -5.582  20.555  1.00  0.00    -0.531 OA
HETATM   16  O   UNL     1       5.252  -3.942  21.888  1.00  0.00    -0.531 OA
ENDBRANCH  13  14
ENDBRANCH   1  13
TORSDOF 6
ENDMDL
