REMARK  8 active torsions:
REMARK  status: ('A' for Active; 'I' for Inactive)
REMARK    1  A    between atoms: C_2  and  N_3 
REMARK    2  A    between atoms: N_3  and  C_7 
REMARK    3  A    between atoms: N_5  and  C_9 
REMARK    4  A    between atoms: N_5  and  C_7 
REMARK    5  A    between atoms: N_8  and  C_9 
REMARK    6  A    between atoms: C_13  and  C_16 
REMARK    7  A    between atoms: C_16  and  C_17 
REMARK    8  A    between atoms: C_17  and  N_18 
ROOT
HETATM    1  N   UNL     1      10.376  -0.692  22.754  1.00  0.00    -0.232 N 
HETATM    2  C   UNL     1      11.513  -0.330  22.117  1.00  0.00     0.308 C 
HETATM    3  O   UNL     1      12.617  -0.599  22.392  1.00  0.00    -0.258 OA
HETATM    4  H   UNL     1       8.440  -0.801  22.529  1.00  0.00     0.188 HD
HETATM    5  C   UNL     1       9.246   0.175  20.888  1.00  0.00     0.095 C 
HETATM    6  S   UNL     1      10.839   0.756  20.717  1.00  0.00    -0.008 SA
HETATM    7  N   UNL     1       9.174  -0.470  21.992  1.00  0.00    -0.287 N 
ENDROOT
BRANCH   1   8
HETATM    8  C   UNL     1      10.505  -1.142  24.100  1.00  0.00     0.284 C 
BRANCH   8   9
HETATM    9  N   UNL     1       9.622  -2.258  24.236  1.00  0.00    -0.324 N 
ATOM     10  HN  UNL     1      10.229  -2.921  24.717  1.00  0.00     0.172 HD
BRANCH   9  11
HETATM   11  C   UNL     1       8.711  -2.846  24.150  1.00  0.00     0.045 C 
BRANCH  11  12
HETATM   12  N   UNL     1       7.769  -3.681  24.317  1.00  0.00    -0.329 N 
ATOM     13  HN  UNL     1       7.070  -3.924  23.615  1.00  0.00     0.171 HD
BRANCH  12  14
HETATM   14  C   UNL     1       7.835  -4.226  25.626  1.00  0.00     0.244 C 
HETATM   15 CL   UNL     1       9.468  -4.720  26.006  1.00  0.00    -0.108 Cl
ENDBRANCH  12  14
ENDBRANCH  11  12
ENDBRANCH   9  11
ENDBRANCH   8   9
ENDBRANCH   1   8
BRANCH   5  16
HETATM   16  C   UNL     1       8.198   0.353  19.913  1.00  0.00     0.055 C 
BRANCH  16  17
HETATM   17  C   UNL     1       6.897   0.304  20.228  1.00  0.00     0.083 C 
BRANCH  17  18
HETATM   18  N   UNL     1       5.973   0.902  19.433  1.00  0.00    -0.408 N 
HETATM   19  H   UNL     1       5.413   0.375  18.816  1.00  0.00     0.155 HD
HETATM   20  H   UNL     1       5.488   1.634  19.911  1.00  0.00     0.155 HD
ENDBRANCH  17  18
ENDBRANCH  16  17
ENDBRANCH   5  16
TORSDOF 8
