stable:False satoms:20 tatoms:24 sratio:0.8333333333333334
  -OEChem-07092417353D

 24 24  0     1  0  0  0  0  0999 V2000
    7.1994   -5.1218   25.6993 H   0  0  0  0  0  0  0  0  0  0  0  0
    7.4717   -3.5453   26.3854 H   0  0  0  0  0  0  0  0  0  0  0  0
    9.4681   -4.7200   26.0063 Cl  0  0  0  0  0  0  0  0  0  0  0  0
    7.8347   -4.2264   25.6263 C   0  0  0  0  0  0  0  0  0  0  0  0
    7.7687   -3.6807   24.3175 N   0  0  0  0  0  0  0  0  0  0  0  0
    9.6219   -2.2576   24.2361 N   0  0  0  0  0  0  0  0  0  0  0  0
    8.7112   -2.8457   24.1504 C   0  0  0  0  0  0  0  0  0  0  0  0
   10.3762   -0.6923   22.7541 N   0  0  0  0  0  0  0  0  0  0  0  0
   10.5046   -1.1416   24.1000 C   0  0  0  0  0  0  0  0  0  0  0  0
   10.2917   -0.3611   24.8308 H   0  0  0  0  0  0  0  0  0  0  0  0
   11.5617   -1.4013   24.2393 H   0  0  0  0  0  0  0  0  0  0  0  0
   11.5133   -0.3297   22.1170 C   0  0  0  0  0  0  0  0  0  0  0  0
   12.6168   -0.5987   22.3923 O   0  0  0  0  0  0  0  0  0  0  0  0
    8.4395   -0.8006   22.5290 H   0  0  0  0  0  0  0  0  0  0  0  0
    9.2462    0.1751   20.8884 C   0  0  3  0  0  0  0  0  0  0  0  0
   10.8387    0.7556   20.7173 S   0  0  0  0  0  0  0  0  0  0  0  0
    9.1743   -0.4701   21.9920 N   0  0  0  0  0  0  0  0  0  0  0  0
    8.1977    0.3530   19.9135 C   0  0  0  0  0  0  0  0  0  0  0  0
    6.8973    0.3043   20.2276 C   0  0  0  0  0  0  0  0  0  0  0  0
    8.4419    0.5514   18.8757 H   0  0  0  0  0  0  0  0  0  0  0  0
    5.9733    0.9020   19.4325 N   0  0  0  0  0  0  0  0  0  0  0  0
    5.4128    0.3748   18.8156 H   0  0  0  0  0  0  0  0  0  0  0  0
    5.4880    1.6342   19.9108 H   0  0  0  0  0  0  0  0  0  0  0  0
    6.5344   -0.1477   21.1397 H   0  0  0  0  0  0  0  0  0  0  0  0
 21 22  1  0  0  0  0
 18 20  1  0  0  0  0
 21 23  1  0  0  0  0
 19 21  1  0  0  0  0
 18 19  2  0  0  0  0
 15 18  1  0  0  0  0
 19 24  1  0  0  0  0
 15 16  1  0  0  0  0
 12 16  1  0  0  0  0
 15 17  1  0  0  0  0
 14 17  1  0  0  0  0
  8 17  1  0  0  0  0
 12 13  2  0  0  0  0
  8 12  1  0  0  0  0
  8  9  1  0  0  0  0
  6  9  1  0  0  0  0
  9 11  1  0  0  0  0
  9 10  1  0  0  0  0
  6  7  2  0  0  0  0
  5  7  1  0  0  0  0
  4  5  1  0  0  0  0
  1  4  1  0  0  0  0
  3  4  1  0  0  0  0
  2  4  1  0  0  0  0
M  END
> <Shapegauss>
-154.800766

$$$$
