MODEL 1
REMARK VINA RESULT:    -4.548      0.000      0.000
REMARK INTER + INTRA:          -7.101
REMARK INTER:                  -6.542
REMARK INTRA:                  -0.559
REMARK UNBOUND:                -0.559
REMARK  8 active torsions:
REMARK  status: ('A' for Active; 'I' for Inactive)
REMARK    1  A    between atoms: C_2  and  N_3 
REMARK    2  A    between atoms: N_3  and  C_7 
REMARK    3  A    between atoms: N_5  and  C_9 
REMARK    4  A    between atoms: N_5  and  C_7 
REMARK    5  A    between atoms: N_8  and  C_9 
REMARK    6  A    between atoms: C_13  and  C_16 
REMARK    7  A    between atoms: C_16  and  C_17 
REMARK    8  A    between atoms: C_17  and  N_18 
ROOT
HETATM    1  N   UNL     1       9.133  -0.715  21.880  1.00  0.00    -0.232 N 
HETATM    2  C   UNL     1       8.603   0.234  22.685  1.00  0.00     0.308 C 
HETATM    3  O   UNL     1       8.964   0.572  23.744  1.00  0.00    -0.258 OA
HETATM    4  H   UNL     1       9.133  -1.364  20.039  1.00  0.00     0.188 HD
HETATM    5  C   UNL     1       7.693   0.115  20.223  1.00  0.00     0.095 C 
HETATM    6  S   UNL     1       7.113   0.812  21.666  1.00  0.00    -0.008 SA
HETATM    7  N   UNL     1       8.658  -0.672  20.521  1.00  0.00    -0.287 N 
ENDROOT
BRANCH   1   8
HETATM    8  C   UNL     1       9.995  -1.672  22.491  1.00  0.00     0.284 C 
BRANCH   8   9
HETATM    9  N   UNL     1       9.153  -2.553  23.237  1.00  0.00    -0.324 N 
ATOM     10  HN  UNL     1       8.954  -1.976  24.054  1.00  0.00     0.172 HD
BRANCH   9  11
HETATM   11  C   UNL     1       8.589  -3.450  23.484  1.00  0.00     0.045 C 
BRANCH  11  12
HETATM   12  N   UNL     1       7.955  -4.549  23.447  1.00  0.00    -0.329 N 
ATOM     13  HN  UNL     1       7.967  -5.258  24.180  1.00  0.00     0.171 HD
BRANCH  12  14
HETATM   14  C   UNL     1       7.224  -4.643  22.233  1.00  0.00     0.244 C 
HETATM   15 CL   UNL     1       6.772  -6.301  21.913  1.00  0.00    -0.108 Cl
ENDBRANCH  12  14
ENDBRANCH  11  12
ENDBRANCH   9  11
ENDBRANCH   8   9
ENDBRANCH   1   8
BRANCH   5  16
HETATM   16  C   UNL     1       7.193   0.420  18.905  1.00  0.00     0.055 C 
BRANCH  16  17
HETATM   17  C   UNL     1       5.937   0.154  18.525  1.00  0.00     0.083 C 
BRANCH  17  18
HETATM   18  N   UNL     1       5.619  -1.055  17.996  1.00  0.00    -0.408 N 
HETATM   19  H   UNL     1       4.682  -1.300  17.809  1.00  0.00     0.155 HD
HETATM   20  H   UNL     1       6.270  -1.336  17.291  1.00  0.00     0.155 HD
ENDBRANCH  17  18
ENDBRANCH  16  17
ENDBRANCH   5  16
TORSDOF 8
ENDMDL
MODEL 2
REMARK VINA RESULT:    -4.468      3.255      3.864
REMARK INTER + INTRA:          -6.986
REMARK INTER:                  -6.431
REMARK INTRA:                  -0.555
REMARK UNBOUND:                -0.559
REMARK  8 active torsions:
REMARK  status: ('A' for Active; 'I' for Inactive)
REMARK    1  A    between atoms: C_2  and  N_3 
REMARK    2  A    between atoms: N_3  and  C_7 
REMARK    3  A    between atoms: N_5  and  C_9 
REMARK    4  A    between atoms: N_5  and  C_7 
REMARK    5  A    between atoms: N_8  and  C_9 
REMARK    6  A    between atoms: C_13  and  C_16 
REMARK    7  A    between atoms: C_16  and  C_17 
REMARK    8  A    between atoms: C_17  and  N_18 
ROOT
HETATM    1  N   UNL     1       7.491  -1.271  22.515  1.00  0.00    -0.232 N 
HETATM    2  C   UNL     1       8.664  -1.271  21.841  1.00  0.00     0.308 C 
HETATM    3  O   UNL     1       9.645  -1.856  22.091  1.00  0.00    -0.258 OA
HETATM    4  H   UNL     1       5.605  -0.797  22.344  1.00  0.00     0.188 HD
HETATM    5  C   UNL     1       6.615  -0.118  20.666  1.00  0.00     0.095 C 
HETATM    6  S   UNL     1       8.303  -0.042  20.443  1.00  0.00    -0.008 SA
HETATM    7  N   UNL     1       6.387  -0.704  21.782  1.00  0.00    -0.287 N 
ENDROOT
BRANCH   1   8
HETATM    8  C   UNL     1       7.520  -1.730  23.864  1.00  0.00     0.284 C 
BRANCH   8   9
HETATM    9  N   UNL     1       8.109  -0.678  24.632  1.00  0.00    -0.324 N 
ATOM     10  HN  UNL     1       7.339  -0.010  24.658  1.00  0.00     0.172 HD
BRANCH   9  11
HETATM   11  C   UNL     1       8.860  -0.140  25.206  1.00  0.00     0.045 C 
BRANCH  11  12
HETATM   12  N   UNL     1       9.937   0.374  25.641  1.00  0.00    -0.329 N 
ATOM     13  HN  UNL     1      10.018   0.935  26.489  1.00  0.00     0.171 HD
BRANCH  12  14
HETATM   14  C   UNL     1      11.011   0.050  24.771  1.00  0.00     0.244 C 
HETATM   15 CL   UNL     1      11.650   1.493  24.018  1.00  0.00    -0.108 Cl
ENDBRANCH  12  14
ENDBRANCH  11  12
ENDBRANCH   9  11
ENDBRANCH   8   9
ENDBRANCH   1   8
BRANCH   5  16
HETATM   16  C   UNL     1       5.639   0.359  19.717  1.00  0.00     0.055 C 
BRANCH  16  17
HETATM   17  C   UNL     1       5.858   0.373  18.396  1.00  0.00     0.083 C 
BRANCH  17  18
HETATM   18  N   UNL     1       5.688  -0.754  17.658  1.00  0.00    -0.408 N 
HETATM   19  H   UNL     1       4.816  -0.970  17.251  1.00  0.00     0.155 HD
HETATM   20  H   UNL     1       6.476  -0.938  17.072  1.00  0.00     0.155 HD
ENDBRANCH  17  18
ENDBRANCH  16  17
ENDBRANCH   5  16
TORSDOF 8
ENDMDL
MODEL 3
REMARK VINA RESULT:    -4.441      3.981      6.153
REMARK INTER + INTRA:          -6.948
REMARK INTER:                  -6.486
REMARK INTRA:                  -0.462
REMARK UNBOUND:                -0.559
REMARK  8 active torsions:
REMARK  status: ('A' for Active; 'I' for Inactive)
REMARK    1  A    between atoms: C_2  and  N_3 
REMARK    2  A    between atoms: N_3  and  C_7 
REMARK    3  A    between atoms: N_5  and  C_9 
REMARK    4  A    between atoms: N_5  and  C_7 
REMARK    5  A    between atoms: N_8  and  C_9 
REMARK    6  A    between atoms: C_13  and  C_16 
REMARK    7  A    between atoms: C_16  and  C_17 
REMARK    8  A    between atoms: C_17  and  N_18 
ROOT
HETATM    1  N   UNL     1       8.792  -1.969  23.519  1.00  0.00    -0.232 N 
HETATM    2  C   UNL     1       8.486  -0.777  24.079  1.00  0.00     0.308 C 
HETATM    3  O   UNL     1       8.288   0.246  23.548  1.00  0.00    -0.258 OA
HETATM    4  H   UNL     1       8.863  -3.884  23.891  1.00  0.00     0.188 HD
HETATM    5  C   UNL     1       8.434  -2.880  25.653  1.00  0.00     0.095 C 
HETATM    6  S   UNL     1       8.520  -1.200  25.926  1.00  0.00    -0.008 SA
HETATM    7  N   UNL     1       8.659  -3.093  24.410  1.00  0.00    -0.287 N 
ENDROOT
BRANCH   1   8
HETATM    8  C   UNL     1       9.287  -1.947  22.183  1.00  0.00     0.284 C 
BRANCH   8   9
HETATM    9  N   UNL     1      10.692  -1.703  22.281  1.00  0.00    -0.324 N 
ATOM     10  HN  UNL     1      10.940  -1.628  21.295  1.00  0.00     0.172 HD
BRANCH   9  11
HETATM   11  C   UNL     1      11.664  -1.547  22.744  1.00  0.00     0.045 C 
BRANCH  11  12
HETATM   12  N   UNL     1      12.848  -1.674  23.185  1.00  0.00    -0.329 N 
ATOM     13  HN  UNL     1      13.442  -2.492  23.043  1.00  0.00     0.171 HD
BRANCH  12  14
HETATM   14  C   UNL     1      13.222  -0.509  23.904  1.00  0.00     0.244 C 
HETATM   15 CL   UNL     1      11.863   0.124  24.801  1.00  0.00    -0.108 Cl
ENDBRANCH  12  14
ENDBRANCH  11  12
ENDBRANCH   9  11
ENDBRANCH   8   9
ENDBRANCH   1   8
BRANCH   5  16
HETATM   16  C   UNL     1       8.109  -3.861  26.660  1.00  0.00     0.055 C 
BRANCH  16  17
HETATM   17  C   UNL     1       8.103  -5.178  26.416  1.00  0.00     0.083 C 
BRANCH  17  18
HETATM   18  N   UNL     1       7.886  -6.063  27.422  1.00  0.00    -0.408 N 
HETATM   19  H   UNL     1       8.164  -5.864  28.346  1.00  0.00     0.155 HD
HETATM   20  H   UNL     1       6.992  -6.504  27.343  1.00  0.00     0.155 HD
ENDBRANCH  17  18
ENDBRANCH  16  17
ENDBRANCH   5  16
TORSDOF 8
ENDMDL
MODEL 4
REMARK VINA RESULT:    -4.426      3.332      4.446
REMARK INTER + INTRA:          -6.926
REMARK INTER:                  -6.402
REMARK INTRA:                  -0.524
REMARK UNBOUND:                -0.559
REMARK  8 active torsions:
REMARK  status: ('A' for Active; 'I' for Inactive)
REMARK    1  A    between atoms: C_2  and  N_3 
REMARK    2  A    between atoms: N_3  and  C_7 
REMARK    3  A    between atoms: N_5  and  C_9 
REMARK    4  A    between atoms: N_5  and  C_7 
REMARK    5  A    between atoms: N_8  and  C_9 
REMARK    6  A    between atoms: C_13  and  C_16 
REMARK    7  A    between atoms: C_16  and  C_17 
REMARK    8  A    between atoms: C_17  and  N_18 
ROOT
HETATM    1  N   UNL     1      10.228  -0.729  22.644  1.00  0.00    -0.232 N 
HETATM    2  C   UNL     1      11.493  -1.050  22.998  1.00  0.00     0.308 C 
HETATM    3  O   UNL     1      12.126  -1.977  22.672  1.00  0.00    -0.258 OA
HETATM    4  H   UNL     1       8.950   0.747  22.623  1.00  0.00     0.188 HD
HETATM    5  C   UNL     1      10.641   1.347  23.660  1.00  0.00     0.095 C 
HETATM    6  S   UNL     1      11.927   0.361  24.188  1.00  0.00    -0.008 SA
HETATM    7  N   UNL     1       9.851   0.626  22.956  1.00  0.00    -0.287 N 
ENDROOT
BRANCH   1   8
HETATM    8  C   UNL     1       9.421  -1.776  22.113  1.00  0.00     0.284 C 
BRANCH   8   9
HETATM    9  N   UNL     1       9.188  -2.689  23.189  1.00  0.00    -0.324 N 
ATOM     10  HN  UNL     1      10.006  -2.507  23.770  1.00  0.00     0.172 HD
BRANCH   9  11
HETATM   11  C   UNL     1       8.689  -3.454  23.778  1.00  0.00     0.045 C 
BRANCH  11  12
HETATM   12  N   UNL     1       8.248  -4.549  24.247  1.00  0.00    -0.329 N 
ATOM     13  HN  UNL     1       8.713  -5.111  24.960  1.00  0.00     0.171 HD
BRANCH  12  14
HETATM   14  C   UNL     1       7.010  -4.871  23.633  1.00  0.00     0.244 C 
HETATM   15 CL   UNL     1       7.272  -5.691  22.112  1.00  0.00    -0.108 Cl
ENDBRANCH  12  14
ENDBRANCH  11  12
ENDBRANCH   9  11
ENDBRANCH   8   9
ENDBRANCH   1   8
BRANCH   5  16
HETATM   16  C   UNL     1      10.522   2.758  23.934  1.00  0.00     0.055 C 
BRANCH  16  17
HETATM   17  C   UNL     1      11.373   3.668  23.441  1.00  0.00     0.083 C 
BRANCH  17  18
HETATM   18  N   UNL     1      11.012   4.974  23.358  1.00  0.00    -0.408 N 
HETATM   19  H   UNL     1      11.680   5.678  23.185  1.00  0.00     0.155 HD
HETATM   20  H   UNL     1      10.149   5.091  22.866  1.00  0.00     0.155 HD
ENDBRANCH  17  18
ENDBRANCH  16  17
ENDBRANCH   5  16
TORSDOF 8
ENDMDL
MODEL 5
REMARK VINA RESULT:    -4.414      2.857      3.534
REMARK INTER + INTRA:          -6.908
REMARK INTER:                  -6.296
REMARK INTRA:                  -0.611
REMARK UNBOUND:                -0.559
REMARK  8 active torsions:
REMARK  status: ('A' for Active; 'I' for Inactive)
REMARK    1  A    between atoms: C_2  and  N_3 
REMARK    2  A    between atoms: N_3  and  C_7 
REMARK    3  A    between atoms: N_5  and  C_9 
REMARK    4  A    between atoms: N_5  and  C_7 
REMARK    5  A    between atoms: N_8  and  C_9 
REMARK    6  A    between atoms: C_13  and  C_16 
REMARK    7  A    between atoms: C_16  and  C_17 
REMARK    8  A    between atoms: C_17  and  N_18 
ROOT
HETATM    1  N   UNL     1       8.252  -1.039  22.464  1.00  0.00    -0.232 N 
HETATM    2  C   UNL     1       8.082  -0.026  23.344  1.00  0.00     0.308 C 
HETATM    3  O   UNL     1       8.592   0.125  24.386  1.00  0.00    -0.258 OA
HETATM    4  H   UNL     1       7.944  -1.544  20.604  1.00  0.00     0.188 HD
HETATM    5  C   UNL     1       7.030   0.282  20.956  1.00  0.00     0.095 C 
HETATM    6  S   UNL     1       6.776   1.031  22.466  1.00  0.00    -0.008 SA
HETATM    7  N   UNL     1       7.730  -0.773  21.148  1.00  0.00    -0.287 N 
ENDROOT
BRANCH   1   8
HETATM    8  C   UNL     1       8.821  -2.244  22.968  1.00  0.00     0.284 C 
BRANCH   8   9
HETATM    9  N   UNL     1      10.238  -2.101  22.842  1.00  0.00    -0.324 N 
ATOM     10  HN  UNL     1      10.484  -3.007  22.444  1.00  0.00     0.172 HD
BRANCH   9  11
HETATM   11  C   UNL     1      11.219  -1.635  22.903  1.00  0.00     0.045 C 
BRANCH  11  12
HETATM   12  N   UNL     1      12.314  -1.126  23.298  1.00  0.00    -0.329 N 
ATOM     13  HN  UNL     1      13.221  -1.273  22.856  1.00  0.00     0.171 HD
BRANCH  12  14
HETATM   14  C   UNL     1      12.085  -0.322  24.445  1.00  0.00     0.244 C 
HETATM   15 CL   UNL     1      11.784   1.337  23.984  1.00  0.00    -0.108 Cl
ENDBRANCH  12  14
ENDBRANCH  11  12
ENDBRANCH   9  11
ENDBRANCH   8   9
ENDBRANCH   1   8
BRANCH   5  16
HETATM   16  C   UNL     1       6.566   0.803  19.693  1.00  0.00     0.055 C 
BRANCH  16  17
HETATM   17  C   UNL     1       6.651   0.113  18.548  1.00  0.00     0.083 C 
BRANCH  17  18
HETATM   18  N   UNL     1       5.589  -0.600  18.093  1.00  0.00    -0.408 N 
HETATM   19  H   UNL     1       4.927  -0.983  18.715  1.00  0.00     0.155 HD
HETATM   20  H   UNL     1       5.198  -0.198  17.266  1.00  0.00     0.155 HD
ENDBRANCH  17  18
ENDBRANCH  16  17
ENDBRANCH   5  16
TORSDOF 8
ENDMDL
MODEL 6
REMARK VINA RESULT:    -4.410      4.260      5.608
REMARK INTER + INTRA:          -6.903
REMARK INTER:                  -6.386
REMARK INTRA:                  -0.517
REMARK UNBOUND:                -0.559
REMARK  8 active torsions:
REMARK  status: ('A' for Active; 'I' for Inactive)
REMARK    1  A    between atoms: C_2  and  N_3 
REMARK    2  A    between atoms: N_3  and  C_7 
REMARK    3  A    between atoms: N_5  and  C_9 
REMARK    4  A    between atoms: N_5  and  C_7 
REMARK    5  A    between atoms: N_8  and  C_9 
REMARK    6  A    between atoms: C_13  and  C_16 
REMARK    7  A    between atoms: C_16  and  C_17 
REMARK    8  A    between atoms: C_17  and  N_18 
ROOT
HETATM    1  N   UNL     1       9.808  -1.906  22.980  1.00  0.00    -0.232 N 
HETATM    2  C   UNL     1       9.598  -1.640  24.289  1.00  0.00     0.308 C 
HETATM    3  O   UNL     1      10.115  -0.832  24.958  1.00  0.00    -0.258 OA
HETATM    4  H   UNL     1       9.032  -2.821  21.440  1.00  0.00     0.188 HD
HETATM    5  C   UNL     1       7.905  -3.273  23.119  1.00  0.00     0.095 C 
HETATM    6  S   UNL     1       8.304  -2.948  24.744  1.00  0.00    -0.008 SA
HETATM    7  N   UNL     1       8.797  -2.735  22.375  1.00  0.00    -0.287 N 
ENDROOT
BRANCH   1   8
HETATM    8  C   UNL     1      11.022  -1.425  22.409  1.00  0.00     0.284 C 
BRANCH   8   9
HETATM    9  N   UNL     1      10.727  -0.136  21.866  1.00  0.00    -0.324 N 
ATOM     10  HN  UNL     1      10.872  -0.313  20.873  1.00  0.00     0.172 HD
BRANCH   9  11
HETATM   11  C   UNL     1      10.446   0.914  21.844  1.00  0.00     0.045 C 
BRANCH  11  12
HETATM   12  N   UNL     1      10.440   2.184  21.867  1.00  0.00    -0.329 N 
ATOM     13  HN  UNL     1      10.543   2.785  21.049  1.00  0.00     0.171 HD
BRANCH  12  14
HETATM   14  C   UNL     1      10.267   2.641  23.200  1.00  0.00     0.244 C 
HETATM   15 CL   UNL     1      11.591   3.681  23.670  1.00  0.00    -0.108 Cl
ENDBRANCH  12  14
ENDBRANCH  11  12
ENDBRANCH   9  11
ENDBRANCH   8   9
ENDBRANCH   1   8
BRANCH   5  16
HETATM   16  C   UNL     1       6.729  -3.989  22.690  1.00  0.00     0.055 C 
BRANCH  16  17
HETATM   17  C   UNL     1       6.685  -5.325  22.599  1.00  0.00     0.083 C 
BRANCH  17  18
HETATM   18  N   UNL     1       7.608  -5.996  21.864  1.00  0.00    -0.408 N 
HETATM   19  H   UNL     1       8.559  -5.734  21.877  1.00  0.00     0.155 HD
HETATM   20  H   UNL     1       7.449  -6.983  21.877  1.00  0.00     0.155 HD
ENDBRANCH  17  18
ENDBRANCH  16  17
ENDBRANCH   5  16
TORSDOF 8
ENDMDL
MODEL 7
REMARK VINA RESULT:    -4.386      2.392      2.810
REMARK INTER + INTRA:          -6.868
REMARK INTER:                  -6.315
REMARK INTRA:                  -0.553
REMARK UNBOUND:                -0.559
REMARK  8 active torsions:
REMARK  status: ('A' for Active; 'I' for Inactive)
REMARK    1  A    between atoms: C_2  and  N_3 
REMARK    2  A    between atoms: N_3  and  C_7 
REMARK    3  A    between atoms: N_5  and  C_9 
REMARK    4  A    between atoms: N_5  and  C_7 
REMARK    5  A    between atoms: N_8  and  C_9 
REMARK    6  A    between atoms: C_13  and  C_16 
REMARK    7  A    between atoms: C_16  and  C_17 
REMARK    8  A    between atoms: C_17  and  N_18 
ROOT
HETATM    1  N   UNL     1       6.684  -2.050  22.187  1.00  0.00    -0.232 N 
HETATM    2  C   UNL     1       8.027  -2.056  22.345  1.00  0.00     0.308 C 
HETATM    3  O   UNL     1       8.684  -2.807  22.955  1.00  0.00    -0.258 OA
HETATM    4  H   UNL     1       5.255  -1.304  21.086  1.00  0.00     0.188 HD
HETATM    5  C   UNL     1       7.046  -0.411  20.546  1.00  0.00     0.095 C 
HETATM    6  S   UNL     1       8.535  -0.512  21.369  1.00  0.00    -0.008 SA
HETATM    7  N   UNL     1       6.216  -1.194  21.127  1.00  0.00    -0.287 N 
ENDROOT
BRANCH   1   8
HETATM    8  C   UNL     1       5.919  -2.796  23.131  1.00  0.00     0.284 C 
BRANCH   8   9
HETATM    9  N   UNL     1       5.872  -4.137  22.638  1.00  0.00    -0.324 N 
ATOM     10  HN  UNL     1       6.140  -3.990  21.666  1.00  0.00     0.172 HD
BRANCH   9  11
HETATM   11  C   UNL     1       5.731  -5.215  22.647  1.00  0.00     0.045 C 
BRANCH  11  12
HETATM   12  N   UNL     1       5.587  -6.431  22.983  1.00  0.00    -0.329 N 
ATOM     13  HN  UNL     1       5.970  -7.229  22.475  1.00  0.00     0.171 HD
BRANCH  12  14
HETATM   14  C   UNL     1       4.815  -6.515  24.171  1.00  0.00     0.244 C 
HETATM   15 CL   UNL     1       5.744  -5.974  25.549  1.00  0.00    -0.108 Cl
ENDBRANCH  12  14
ENDBRANCH  11  12
ENDBRANCH   9  11
ENDBRANCH   8   9
ENDBRANCH   1   8
BRANCH   5  16
HETATM   16  C   UNL     1       6.811   0.389  19.369  1.00  0.00     0.055 C 
BRANCH  16  17
HETATM   17  C   UNL     1       5.695   0.291  18.635  1.00  0.00     0.083 C 
BRANCH  17  18
HETATM   18  N   UNL     1       5.625  -0.587  17.602  1.00  0.00    -0.408 N 
HETATM   19  H   UNL     1       5.881  -1.532  17.718  1.00  0.00     0.155 HD
HETATM   20  H   UNL     1       4.806  -0.444  17.047  1.00  0.00     0.155 HD
ENDBRANCH  17  18
ENDBRANCH  16  17
ENDBRANCH   5  16
TORSDOF 8
ENDMDL
MODEL 8
REMARK VINA RESULT:    -4.346      2.800      5.049
REMARK INTER + INTRA:          -6.810
REMARK INTER:                  -6.253
REMARK INTRA:                  -0.557
REMARK UNBOUND:                -0.559
REMARK  8 active torsions:
REMARK  status: ('A' for Active; 'I' for Inactive)
REMARK    1  A    between atoms: C_2  and  N_3 
REMARK    2  A    between atoms: N_3  and  C_7 
REMARK    3  A    between atoms: N_5  and  C_9 
REMARK    4  A    between atoms: N_5  and  C_7 
REMARK    5  A    between atoms: N_8  and  C_9 
REMARK    6  A    between atoms: C_13  and  C_16 
REMARK    7  A    between atoms: C_16  and  C_17 
REMARK    8  A    between atoms: C_17  and  N_18 
ROOT
HETATM    1  N   UNL     1       8.831  -2.133  22.765  1.00  0.00    -0.232 N 
HETATM    2  C   UNL     1       8.631  -1.782  24.055  1.00  0.00     0.308 C 
HETATM    3  O   UNL     1       8.764  -0.731  24.551  1.00  0.00    -0.258 OA
HETATM    4  H   UNL     1       8.447  -3.536  21.462  1.00  0.00     0.188 HD
HETATM    5  C   UNL     1       7.805  -4.168  23.329  1.00  0.00     0.095 C 
HETATM    6  S   UNL     1       8.140  -3.439  24.833  1.00  0.00    -0.008 SA
HETATM    7  N   UNL     1       8.278  -3.415  22.408  1.00  0.00    -0.287 N 
ENDROOT
BRANCH   1   8
HETATM    8  C   UNL     1       9.628  -1.257  21.972  1.00  0.00     0.284 C 
BRANCH   8   9
HETATM    9  N   UNL     1       8.750  -0.234  21.498  1.00  0.00    -0.324 N 
ATOM     10  HN  UNL     1       8.765   0.409  22.289  1.00  0.00     0.172 HD
BRANCH   9  11
HETATM   11  C   UNL     1       8.075   0.291  20.825  1.00  0.00     0.045 C 
BRANCH  11  12
HETATM   12  N   UNL     1       7.084   0.659  20.123  1.00  0.00    -0.329 N 
ATOM     13  HN  UNL     1       6.312   1.238  20.455  1.00  0.00     0.171 HD
BRANCH  12  14
HETATM   14  C   UNL     1       7.210   0.146  18.805  1.00  0.00     0.244 C 
HETATM   15 CL   UNL     1       5.658   0.127  18.001  1.00  0.00    -0.108 Cl
ENDBRANCH  12  14
ENDBRANCH  11  12
ENDBRANCH   9  11
ENDBRANCH   8   9
ENDBRANCH   1   8
BRANCH   5  16
HETATM   16  C   UNL     1       7.068  -5.396  23.158  1.00  0.00     0.055 C 
BRANCH  16  17
HETATM   17  C   UNL     1       7.027  -6.062  21.996  1.00  0.00     0.083 C 
BRANCH  17  18
HETATM   18  N   UNL     1       5.867  -6.158  21.298  1.00  0.00    -0.408 N 
HETATM   19  H   UNL     1       5.071  -6.588  21.687  1.00  0.00     0.155 HD
HETATM   20  H   UNL     1       5.676  -5.326  20.777  1.00  0.00     0.155 HD
ENDBRANCH  17  18
ENDBRANCH  16  17
ENDBRANCH   5  16
TORSDOF 8
ENDMDL
MODEL 9
REMARK VINA RESULT:    -4.322      3.480      6.253
REMARK INTER + INTRA:          -6.776
REMARK INTER:                  -6.300
REMARK INTRA:                  -0.476
REMARK UNBOUND:                -0.559
REMARK  8 active torsions:
REMARK  status: ('A' for Active; 'I' for Inactive)
REMARK    1  A    between atoms: C_2  and  N_3 
REMARK    2  A    between atoms: N_3  and  C_7 
REMARK    3  A    between atoms: N_5  and  C_9 
REMARK    4  A    between atoms: N_5  and  C_7 
REMARK    5  A    between atoms: N_8  and  C_9 
REMARK    6  A    between atoms: C_13  and  C_16 
REMARK    7  A    between atoms: C_16  and  C_17 
REMARK    8  A    between atoms: C_17  and  N_18 
ROOT
HETATM    1  N   UNL     1       6.925  -1.944  22.275  1.00  0.00    -0.232 N 
HETATM    2  C   UNL     1       6.040  -2.775  21.679  1.00  0.00     0.308 C 
HETATM    3  O   UNL     1       5.409  -2.592  20.712  1.00  0.00    -0.258 OA
HETATM    4  H   UNL     1       8.376  -1.902  23.581  1.00  0.00     0.188 HD
HETATM    5  C   UNL     1       7.517  -3.788  23.601  1.00  0.00     0.095 C 
HETATM    6  S   UNL     1       6.063  -4.265  22.851  1.00  0.00    -0.008 SA
HETATM    7  N   UNL     1       7.765  -2.580  23.257  1.00  0.00    -0.287 N 
ENDROOT
BRANCH   1   8
HETATM    8  C   UNL     1       6.846  -0.563  21.934  1.00  0.00     0.284 C 
BRANCH   8   9
HETATM    9  N   UNL     1       7.367  -0.447  20.607  1.00  0.00    -0.324 N 
ATOM     10  HN  UNL     1       8.194  -1.039  20.678  1.00  0.00     0.172 HD
BRANCH   9  11
HETATM   11  C   UNL     1       7.437  -0.126  19.571  1.00  0.00     0.045 C 
BRANCH  11  12
HETATM   12  N   UNL     1       7.224   0.379  18.425  1.00  0.00    -0.329 N 
ATOM     13  HN  UNL     1       7.947   0.723  17.793  1.00  0.00     0.171 HD
BRANCH  12  14
HETATM   14  C   UNL     1       5.831   0.391  18.156  1.00  0.00     0.244 C 
HETATM   15 CL   UNL     1       5.044   1.679  19.037  1.00  0.00    -0.108 Cl
ENDBRANCH  12  14
ENDBRANCH  11  12
ENDBRANCH   9  11
ENDBRANCH   8   9
ENDBRANCH   1   8
BRANCH   5  16
HETATM   16  C   UNL     1       8.331  -4.642  24.432  1.00  0.00     0.055 C 
BRANCH  16  17
HETATM   17  C   UNL     1       8.157  -4.746  25.756  1.00  0.00     0.083 C 
BRANCH  17  18
HETATM   18  N   UNL     1       8.720  -5.770  26.446  1.00  0.00    -0.408 N 
HETATM   19  H   UNL     1       8.754  -5.764  27.432  1.00  0.00     0.155 HD
HETATM   20  H   UNL     1       8.497  -6.658  26.044  1.00  0.00     0.155 HD
ENDBRANCH  17  18
ENDBRANCH  16  17
ENDBRANCH   5  16
TORSDOF 8
ENDMDL
