stable:False satoms:9 tatoms:24 sratio:0.375
  -OEChem-08062411213D

 38 39  0     1  0  0  0  0  0999 V2000
   -6.2196   -4.8460  -26.7253 Cl  0  0  0  0  0  0  0  0  0  0  0  0
   -8.0321   -4.4591  -26.1403 S   0  0  0  0  0  0  0  0  0  0  0  0
   -8.7336   -5.6774  -25.9476 O   0  0  0  0  0  0  0  0  0  0  0  0
   -8.5502   -3.6578  -27.1805 O   0  0  0  0  0  0  0  0  0  0  0  0
   -7.7188   -3.7431  -24.7243 N   0  0  0  0  0  0  0  0  0  0  0  0
   -8.5244   -3.0551  -24.1790 C   0  0  0  0  0  0  0  0  0  0  0  0
   -9.1355   -2.2991  -23.6005 C   0  0  0  0  0  0  0  0  0  0  0  0
  -10.1419   -1.6021  -22.9284 C   0  0  1  0  0  0  0  0  0  0  0  0
  -11.7679   -0.4389  -23.6792 C   0  0  0  0  0  0  0  0  0  0  0  0
  -12.7477   -0.3793  -23.9070 N   0  3  0  0  0  0  0  0  0  0  0  0
  -12.4730   -1.1496  -22.9998 C   0  0  1  0  0  0  0  0  0  0  0  0
  -13.0731   -1.5184  -22.2321 H   0  0  0  0  0  0  0  0  0  0  0  0
  -11.2408   -2.1287  -22.7360 C   0  0  0  0  0  0  0  0  0  0  0  0
   -9.6851   -0.5984  -22.2190 C   0  0  0  0  0  0  0  0  0  0  0  0
   -8.9003    0.0687  -21.3646 C   0  0  0  0  0  0  0  0  0  0  0  0
   -9.3603    0.9765  -20.8095 O   0  0  0  0  0  0  0  0  0  0  0  0
   -7.6166   -0.4151  -21.2469 N   0  0  0  0  0  0  0  0  0  0  0  0
   -6.7204    0.2992  -20.5967 C   0  0  0  0  0  0  0  0  0  0  0  0
   -6.5113    0.4778  -19.1442 C   0  0  0  0  0  0  0  0  0  0  0  0
   -6.3878    0.5225  -17.8866 N   0  3  0  0  0  0  0  0  0  0  0  0
   -5.5817    1.0605  -18.6600 C   0  0  0  0  0  0  0  0  0  0  0  0
   -4.7397    1.5859  -19.0411 H   0  0  0  0  0  0  0  0  0  0  0  0
   -5.8607    0.8999  -21.2724 C   0  0  0  0  0  0  0  0  0  0  0  0
   -5.8699    0.8229  -22.3496 H   0  0  0  0  0  0  0  0  0  0  0  0
   -6.9127   -3.1699  -24.8712 H   0  0  0  0  0  0  0  0  0  0  0  0
  -10.4487   -0.9976  -23.7947 H   0  0  0  0  0  0  0  0  0  0  0  0
  -11.2766    0.4270  -23.2113 H   0  0  0  0  0  0  0  0  0  0  0  0
  -11.0809   -0.9044  -24.4011 H   0  0  0  0  0  0  0  0  0  0  0  0
  -13.0683   -0.7485  -24.7793 H   0  0  0  0  0  0  0  0  0  0  0  0
  -11.3342   -2.9943  -23.4084 H   0  0  0  0  0  0  0  0  0  0  0  0
  -11.2850   -2.4697  -21.6911 H   0  0  0  0  0  0  0  0  0  0  0  0
  -10.6329   -0.3748  -21.7074 H   0  0  0  0  0  0  0  0  0  0  0  0
   -9.5529    0.0928  -23.0645 H   0  0  0  0  0  0  0  0  0  0  0  0
   -7.3680   -1.2962  -21.6491 H   0  0  0  0  0  0  0  0  0  0  0  0
   -6.1289   -0.2957  -17.3733 H   0  0  0  0  0  0  0  0  0  0  0  0
   -5.1073    1.4968  -20.7801 H   0  0  0  0  0  0  0  0  0  0  0  0
  -13.2462    0.4619  -23.6977 H   0  0  0  0  0  0  0  0  0  0  0  0
   -7.0101    1.0786  -17.3357 H   0  0  0  0  0  0  0  0  0  0  0  0
 20 21  1  0  0  0  0
 19 20  1  0  0  0  0
 21 22  1  0  0  0  0
 19 21  2  0  0  0  0
 18 19  1  0  0  0  0
 18 23  2  0  0  0  0
 17 18  1  0  0  0  0
 15 16  2  0  0  0  0
 23 24  1  0  0  0  0
 15 17  1  0  0  0  0
 14 15  1  0  0  0  0
  8 14  1  0  0  0  0
 11 12  1  0  0  0  0
  8 13  1  0  0  0  0
 11 13  1  0  0  0  0
  7  8  1  0  0  0  0
  9 11  1  0  0  0  0
 10 11  1  0  0  0  0
  6  7  3  0  0  0  0
  9 10  1  0  0  0  0
  5  6  1  0  0  0  0
  2  5  1  0  0  0  0
  2  3  2  0  0  0  0
  1  2  1  0  0  0  0
  2  4  2  0  0  0  0
  5 25  1  0  0  0  0
  8 26  1  0  0  0  0
  9 27  1  0  0  0  0
  9 28  1  0  0  0  0
 10 29  1  0  0  0  0
 13 30  1  0  0  0  0
 13 31  1  0  0  0  0
 14 32  1  0  0  0  0
 14 33  1  0  0  0  0
 17 34  1  0  0  0  0
 20 35  1  0  0  0  0
 23 36  1  0  0  0  0
 10 37  1  0  0  0  0
 20 38  1  0  0  0  0
M  CHG  2  10   1  20   1
M  END
> <Chemgauss4>
-6.932012

$$$$
