stable:False satoms:9 tatoms:24 sratio:0.375
  -OEChem-08062411213D

 38 39  0     1  0  0  0  0  0999 V2000
    6.2853   -4.9270   26.6876 Cl  0  0  0  0  0  0  0  0  0  0  0  0
    8.0979   -4.5401   26.1026 S   0  0  0  0  0  0  0  0  0  0  0  0
    8.7994   -5.7584   25.9099 O   0  0  0  0  0  0  0  0  0  0  0  0
    8.6159   -3.7388   27.1428 O   0  0  0  0  0  0  0  0  0  0  0  0
    7.7845   -3.8241   24.6865 N   0  0  0  0  0  0  0  0  0  0  0  0
    8.5902   -3.1361   24.1413 C   0  0  0  0  0  0  0  0  0  0  0  0
    9.2012   -2.3801   23.5628 C   0  0  0  0  0  0  0  0  0  0  0  0
   10.2077   -1.6831   22.8907 C   0  0  1  0  0  0  0  0  0  0  0  0
   11.8337   -0.5199   23.6414 C   0  0  0  0  0  0  0  0  0  0  0  0
   12.8134   -0.4603   23.8693 N   0  3  0  0  0  0  0  0  0  0  0  0
   12.5388   -1.2306   22.9621 C   0  0  1  0  0  0  0  0  0  0  0  0
   13.1388   -1.5994   22.1943 H   0  0  0  0  0  0  0  0  0  0  0  0
   11.3066   -2.2098   22.6983 C   0  0  0  0  0  0  0  0  0  0  0  0
    9.7509   -0.6794   22.1813 C   0  0  0  0  0  0  0  0  0  0  0  0
    8.9660   -0.0123   21.3269 C   0  0  0  0  0  0  0  0  0  0  0  0
    9.4261    0.8955   20.7718 O   0  0  0  0  0  0  0  0  0  0  0  0
    7.6824   -0.4961   21.2091 N   0  0  0  0  0  0  0  0  0  0  0  0
    6.7862    0.2182   20.5590 C   0  0  0  0  0  0  0  0  0  0  0  0
    6.5770    0.3967   19.1065 C   0  0  0  0  0  0  0  0  0  0  0  0
    6.4536    0.4415   17.8489 N   0  3  0  0  0  0  0  0  0  0  0  0
    5.6474    0.9795   18.6223 C   0  0  0  0  0  0  0  0  0  0  0  0
    4.8055    1.5049   19.0033 H   0  0  0  0  0  0  0  0  0  0  0  0
    5.9264    0.8189   21.2347 C   0  0  0  0  0  0  0  0  0  0  0  0
    5.9356    0.7419   22.3119 H   0  0  0  0  0  0  0  0  0  0  0  0
    6.9784   -3.2509   24.8335 H   0  0  0  0  0  0  0  0  0  0  0  0
   10.5145   -1.0786   23.7569 H   0  0  0  0  0  0  0  0  0  0  0  0
   11.3424    0.3460   23.1736 H   0  0  0  0  0  0  0  0  0  0  0  0
   11.1466   -0.9855   24.3634 H   0  0  0  0  0  0  0  0  0  0  0  0
   13.1340   -0.8295   24.7416 H   0  0  0  0  0  0  0  0  0  0  0  0
   11.4000   -3.0753   23.3706 H   0  0  0  0  0  0  0  0  0  0  0  0
   11.3507   -2.5507   21.6534 H   0  0  0  0  0  0  0  0  0  0  0  0
   10.6986   -0.4559   21.6697 H   0  0  0  0  0  0  0  0  0  0  0  0
    9.6187    0.0118   23.0268 H   0  0  0  0  0  0  0  0  0  0  0  0
    7.4337   -1.3772   21.6114 H   0  0  0  0  0  0  0  0  0  0  0  0
    6.1946   -0.3767   17.3356 H   0  0  0  0  0  0  0  0  0  0  0  0
    5.1730    1.4158   20.7423 H   0  0  0  0  0  0  0  0  0  0  0  0
   13.3120    0.3809   23.6599 H   0  0  0  0  0  0  0  0  0  0  0  0
    7.0758    0.9976   17.2979 H   0  0  0  0  0  0  0  0  0  0  0  0
 20 21  1  0  0  0  0
 19 20  1  0  0  0  0
 21 22  1  0  0  0  0
 19 21  2  0  0  0  0
 18 19  1  0  0  0  0
 18 23  2  0  0  0  0
 17 18  1  0  0  0  0
 15 16  2  0  0  0  0
 23 24  1  0  0  0  0
 15 17  1  0  0  0  0
 14 15  1  0  0  0  0
  8 14  1  0  0  0  0
 11 12  1  0  0  0  0
  8 13  1  0  0  0  0
 11 13  1  0  0  0  0
  7  8  1  0  0  0  0
  9 11  1  0  0  0  0
 10 11  1  0  0  0  0
  6  7  3  0  0  0  0
  9 10  1  0  0  0  0
  5  6  1  0  0  0  0
  2  5  1  0  0  0  0
  2  3  2  0  0  0  0
  1  2  1  0  0  0  0
  2  4  2  0  0  0  0
  5 25  1  0  0  0  0
  8 26  1  0  0  0  0
  9 27  1  0  0  0  0
  9 28  1  0  0  0  0
 10 29  1  0  0  0  0
 13 30  1  0  0  0  0
 13 31  1  0  0  0  0
 14 32  1  0  0  0  0
 14 33  1  0  0  0  0
 17 34  1  0  0  0  0
 20 35  1  0  0  0  0
 23 36  1  0  0  0  0
 10 37  1  0  0  0  0
 20 38  1  0  0  0  0
M  CHG  2  10   1  20   1
M  END
> <Chemgauss4>
-7.060457

$$$$
