MODEL 1
REMARK VINA RESULT:    -5.060      0.000      0.000
REMARK INTER + INTRA:          -6.694
REMARK INTER:                  -6.095
REMARK INTRA:                  -0.599
REMARK UNBOUND:                -0.599
REMARK  4 active torsions:
REMARK  status: ('A' for Active; 'I' for Inactive)
REMARK    1  A    between atoms: C_3  and  C_15 
REMARK    2  A    between atoms: C_3  and  N_6 
REMARK    3  A    between atoms: N_6  and  O_9 
REMARK    4  A    between atoms: C_8  and  C_11 
ROOT
HETATM    1  C   UNL     1       8.909  14.246   2.602  1.00  0.00     0.077 C 
HETATM    2  C   UNL     1       7.995  13.199   2.753  1.00  0.00     0.047 C 
ENDROOT
BRANCH   1   3
HETATM    3  C   UNL     1       8.710  15.553   2.072  1.00  0.00     0.034 C 
HETATM    4  N   UNL     1       9.351  16.151   1.042  1.00  0.00    -0.391 N 
HETATM    5  C   UNL     1       8.893  17.490   0.808  1.00  0.00     0.120 C 
HETATM    6  H   UNL     1      10.201  15.802   0.667  1.00  0.00     0.159 HD
HETATM    7  C   UNL     1       7.512  17.512   1.478  1.00  0.00     0.026 C 
HETATM    8  C   UNL     1       7.709  16.497   2.625  1.00  0.00     0.061 C 
ENDBRANCH   1   3
BRANCH   1   9
HETATM    9  N   UNL     1      10.120  13.994   3.121  1.00  0.00    -0.267 N 
ATOM     10  HN  UNL     1      10.156  13.145   3.684  1.00  0.00     0.194 HD
BRANCH   9  11
HETATM   11  O   UNL     1      11.163  14.567   3.055  1.00  0.00    -0.289 OA
ATOM     12  HO  UNL     1      11.884  14.524   2.438  1.00  0.00     0.244 HD
ENDBRANCH   9  11
ENDBRANCH   1   9
BRANCH   2  13
HETATM   13  C   UNL     1       6.657  13.164   2.192  1.00  0.00    -0.029 C 
HETATM   14  C   UNL     1       6.443  12.764   1.051  1.00  0.00    -0.040 C 
HETATM   15  C   UNL     1       5.410  13.561   2.973  1.00  0.00     0.056 C 
ENDBRANCH   2  13
TORSDOF 4
ENDMDL
MODEL 2
REMARK VINA RESULT:    -4.974      1.180      3.585
REMARK INTER + INTRA:          -6.590
REMARK INTER:                  -6.206
REMARK INTRA:                  -0.385
REMARK UNBOUND:                -0.599
REMARK  4 active torsions:
REMARK  status: ('A' for Active; 'I' for Inactive)
REMARK    1  A    between atoms: C_3  and  C_15 
REMARK    2  A    between atoms: C_3  and  N_6 
REMARK    3  A    between atoms: N_6  and  O_9 
REMARK    4  A    between atoms: C_8  and  C_11 
ROOT
HETATM    1  C   UNL     1       9.237  15.040   2.235  1.00  0.00     0.077 C 
HETATM    2  C   UNL     1       9.188  16.438   2.252  1.00  0.00     0.047 C 
ENDROOT
BRANCH   1   3
HETATM    3  C   UNL     1       8.207  14.101   1.946  1.00  0.00     0.034 C 
HETATM    4  N   UNL     1       7.763  13.681   0.740  1.00  0.00    -0.391 N 
HETATM    5  C   UNL     1       6.688  12.738   0.843  1.00  0.00     0.120 C 
HETATM    6  H   UNL     1       7.979  14.157  -0.104  1.00  0.00     0.159 HD
HETATM    7  C   UNL     1       6.828  12.199   2.273  1.00  0.00     0.026 C 
HETATM    8  C   UNL     1       7.424  13.420   3.007  1.00  0.00     0.061 C 
ENDBRANCH   1   3
BRANCH   1   9
HETATM    9  N   UNL     1      10.463  14.534   2.433  1.00  0.00    -0.267 N 
ATOM     10  HN  UNL     1      10.787  13.938   1.671  1.00  0.00     0.194 HD
BRANCH   9  11
HETATM   11  O   UNL     1      11.249  14.643   3.321  1.00  0.00    -0.289 OA
ATOM     12  HO  UNL     1      11.924  15.285   3.510  1.00  0.00     0.244 HD
ENDBRANCH   9  11
ENDBRANCH   1   9
BRANCH   2  13
HETATM   13  C   UNL     1       7.978  17.238   2.173  1.00  0.00    -0.029 C 
HETATM   14  C   UNL     1       7.575  17.698   1.108  1.00  0.00    -0.040 C 
HETATM   15  C   UNL     1       7.085  17.527   3.373  1.00  0.00     0.056 C 
ENDBRANCH   2  13
TORSDOF 4
ENDMDL
MODEL 3
REMARK VINA RESULT:    -4.768      2.559      3.186
REMARK INTER + INTRA:          -6.343
REMARK INTER:                  -5.982
REMARK INTRA:                  -0.361
REMARK UNBOUND:                -0.599
REMARK  4 active torsions:
REMARK  status: ('A' for Active; 'I' for Inactive)
REMARK    1  A    between atoms: C_3  and  C_15 
REMARK    2  A    between atoms: C_3  and  N_6 
REMARK    3  A    between atoms: N_6  and  O_9 
REMARK    4  A    between atoms: C_8  and  C_11 
ROOT
HETATM    1  C   UNL     1       9.062  15.187   1.642  1.00  0.00     0.077 C 
HETATM    2  C   UNL     1       9.634  14.545   2.745  1.00  0.00     0.047 C 
ENDROOT
BRANCH   1   3
HETATM    3  C   UNL     1       8.883  16.577   1.395  1.00  0.00     0.034 C 
HETATM    4  N   UNL     1       9.791  17.479   0.957  1.00  0.00    -0.391 N 
HETATM    5  C   UNL     1       9.248  18.802   0.848  1.00  0.00     0.120 C 
HETATM    6  H   UNL     1      10.767  17.299   0.958  1.00  0.00     0.159 HD
HETATM    7  C   UNL     1       7.735  18.558   0.773  1.00  0.00     0.026 C 
HETATM    8  C   UNL     1       7.588  17.269   1.610  1.00  0.00     0.061 C 
ENDBRANCH   1   3
BRANCH   1   9
HETATM    9  N   UNL     1       8.721  14.358   0.643  1.00  0.00    -0.267 N 
ATOM     10  HN  UNL     1       9.390  14.348  -0.126  1.00  0.00     0.194 HD
BRANCH   9  11
HETATM   11  O   UNL     1       7.792  13.631   0.477  1.00  0.00    -0.289 OA
ATOM     12  HO  UNL     1       7.624  12.931  -0.142  1.00  0.00     0.244 HD
ENDBRANCH   9  11
ENDBRANCH   1   9
BRANCH   2  13
HETATM   13  C   UNL     1       9.991  15.186   3.998  1.00  0.00    -0.029 C 
HETATM   14  C   UNL     1      11.160  15.286   4.363  1.00  0.00    -0.040 C 
HETATM   15  C   UNL     1       8.973  15.830   4.930  1.00  0.00     0.056 C 
ENDBRANCH   2  13
TORSDOF 4
ENDMDL
MODEL 4
REMARK VINA RESULT:    -4.725     34.249     35.886
REMARK INTER + INTRA:          -6.291
REMARK INTER:                  -5.831
REMARK INTRA:                  -0.461
REMARK UNBOUND:                -0.599
REMARK  4 active torsions:
REMARK  status: ('A' for Active; 'I' for Inactive)
REMARK    1  A    between atoms: C_3  and  C_15 
REMARK    2  A    between atoms: C_3  and  N_6 
REMARK    3  A    between atoms: N_6  and  O_9 
REMARK    4  A    between atoms: C_8  and  C_11 
ROOT
HETATM    1  C   UNL     1       3.236 -19.074   8.747  1.00  0.00     0.077 C 
HETATM    2  C   UNL     1       2.272 -18.076   8.569  1.00  0.00     0.047 C 
ENDROOT
BRANCH   1   3
HETATM    3  C   UNL     1       3.178 -20.458   8.418  1.00  0.00     0.034 C 
HETATM    4  N   UNL     1       3.877 -21.130   7.475  1.00  0.00    -0.391 N 
HETATM    5  C   UNL     1       3.534 -22.521   7.418  1.00  0.00     0.120 C 
HETATM    6  H   UNL     1       4.372 -20.669   6.748  1.00  0.00     0.159 HD
HETATM    7  C   UNL     1       2.899 -22.784   8.790  1.00  0.00     0.026 C 
HETATM    8  C   UNL     1       2.274 -21.409   9.111  1.00  0.00     0.061 C 
ENDBRANCH   1   3
BRANCH   1   9
HETATM    9  N   UNL     1       4.410 -18.622   9.212  1.00  0.00    -0.267 N 
ATOM     10  HN  UNL     1       4.317 -17.937   9.961  1.00  0.00     0.194 HD
BRANCH   9  11
HETATM   11  O   UNL     1       5.541 -18.864   8.924  1.00  0.00    -0.289 OA
ATOM     12  HO  UNL     1       6.156 -19.522   9.225  1.00  0.00     0.244 HD
ENDBRANCH   9  11
ENDBRANCH   1   9
BRANCH   2  13
HETATM   13  C   UNL     1       0.890 -18.302   8.183  1.00  0.00    -0.029 C 
HETATM   14  C   UNL     1       0.494 -18.089   7.040  1.00  0.00    -0.040 C 
HETATM   15  C   UNL     1      -0.163 -18.865   9.129  1.00  0.00     0.056 C 
ENDBRANCH   2  13
TORSDOF 4
ENDMDL
MODEL 5
REMARK VINA RESULT:    -4.414      3.034      4.949
REMARK INTER + INTRA:          -5.916
REMARK INTER:                  -5.363
REMARK INTRA:                  -0.553
REMARK UNBOUND:                -0.599
REMARK  4 active torsions:
REMARK  status: ('A' for Active; 'I' for Inactive)
REMARK    1  A    between atoms: C_3  and  C_15 
REMARK    2  A    between atoms: C_3  and  N_6 
REMARK    3  A    between atoms: N_6  and  O_9 
REMARK    4  A    between atoms: C_8  and  C_11 
ROOT
HETATM    1  C   UNL     1       7.019  12.562   1.577  1.00  0.00     0.077 C 
HETATM    2  C   UNL     1       7.519  13.843   1.319  1.00  0.00     0.047 C 
ENDROOT
BRANCH   1   3
HETATM    3  C   UNL     1       6.722  11.940   2.823  1.00  0.00     0.034 C 
HETATM    4  N   UNL     1       7.295  10.847   3.377  1.00  0.00    -0.391 N 
HETATM    5  C   UNL     1       6.714  10.499   4.641  1.00  0.00     0.120 C 
HETATM    6  H   UNL     1       7.863  10.221   2.857  1.00  0.00     0.159 HD
HETATM    7  C   UNL     1       6.042  11.803   5.091  1.00  0.00     0.026 C 
HETATM    8  C   UNL     1       5.665  12.441   3.736  1.00  0.00     0.061 C 
ENDBRANCH   1   3
BRANCH   1   9
HETATM    9  N   UNL     1       6.694  11.870   0.475  1.00  0.00    -0.267 N 
ATOM     10  HN  UNL     1       6.013  12.343  -0.119  1.00  0.00     0.194 HD
BRANCH   9  11
HETATM   11  O   UNL     1       7.044  10.812   0.053  1.00  0.00    -0.289 OA
ATOM     12  HO  UNL     1       6.772   9.922   0.240  1.00  0.00     0.244 HD
ENDBRANCH   9  11
ENDBRANCH   1   9
BRANCH   2  13
HETATM   13  C   UNL     1       8.045  14.757   2.317  1.00  0.00    -0.029 C 
HETATM   14  C   UNL     1       9.227  14.743   2.649  1.00  0.00    -0.040 C 
HETATM   15  C   UNL     1       7.205  15.835   2.992  1.00  0.00     0.056 C 
ENDBRANCH   2  13
TORSDOF 4
ENDMDL
MODEL 6
REMARK VINA RESULT:    -4.407     28.831     30.235
REMARK INTER + INTRA:          -5.908
REMARK INTER:                  -5.530
REMARK INTRA:                  -0.378
REMARK UNBOUND:                -0.599
REMARK  4 active torsions:
REMARK  status: ('A' for Active; 'I' for Inactive)
REMARK    1  A    between atoms: C_3  and  C_15 
REMARK    2  A    between atoms: C_3  and  N_6 
REMARK    3  A    between atoms: N_6  and  O_9 
REMARK    4  A    between atoms: C_8  and  C_11 
ROOT
HETATM    1  C   UNL     1       8.024  -4.767  25.924  1.00  0.00     0.077 C 
HETATM    2  C   UNL     1       8.532  -3.567  26.433  1.00  0.00     0.047 C 
ENDROOT
BRANCH   1   3
HETATM    3  C   UNL     1       7.440  -5.037  24.655  1.00  0.00     0.034 C 
HETATM    4  N   UNL     1       8.053  -5.171  23.456  1.00  0.00    -0.391 N 
HETATM    5  C   UNL     1       7.129  -5.420  22.388  1.00  0.00     0.120 C 
HETATM    6  H   UNL     1       8.988  -4.879  23.299  1.00  0.00     0.159 HD
HETATM    7  C   UNL     1       5.885  -5.950  23.113  1.00  0.00     0.026 C 
HETATM    8  C   UNL     1       5.978  -5.212  24.467  1.00  0.00     0.061 C 
ENDBRANCH   1   3
BRANCH   1   9
HETATM    9  N   UNL     1       8.206  -5.823  26.732  1.00  0.00    -0.267 N 
ATOM     10  HN  UNL     1       8.795  -6.550  26.328  1.00  0.00     0.194 HD
BRANCH   9  11
HETATM   11  O   UNL     1       7.815  -6.079  27.828  1.00  0.00    -0.289 OA
ATOM     12  HO  UNL     1       7.623  -5.540  28.586  1.00  0.00     0.244 HD
ENDBRANCH   9  11
ENDBRANCH   1   9
BRANCH   2  13
HETATM   13  C   UNL     1       8.376  -2.261  25.818  1.00  0.00    -0.029 C 
HETATM   14  C   UNL     1       7.509  -1.472  26.184  1.00  0.00    -0.040 C 
HETATM   15  C   UNL     1       9.293  -1.736  24.719  1.00  0.00     0.056 C 
ENDBRANCH   2  13
TORSDOF 4
ENDMDL
MODEL 7
REMARK VINA RESULT:    -4.373     32.255     33.928
REMARK INTER + INTRA:          -5.867
REMARK INTER:                  -5.346
REMARK INTRA:                  -0.521
REMARK UNBOUND:                -0.599
REMARK  4 active torsions:
REMARK  status: ('A' for Active; 'I' for Inactive)
REMARK    1  A    between atoms: C_3  and  C_15 
REMARK    2  A    between atoms: C_3  and  N_6 
REMARK    3  A    between atoms: N_6  and  O_9 
REMARK    4  A    between atoms: C_8  and  C_11 
ROOT
HETATM    1  C   UNL     1      -0.079 -16.635  10.060  1.00  0.00     0.077 C 
HETATM    2  C   UNL     1      -0.998 -15.696   9.582  1.00  0.00     0.047 C 
ENDROOT
BRANCH   1   3
HETATM    3  C   UNL     1       0.659 -17.623   9.349  1.00  0.00     0.034 C 
HETATM    4  N   UNL     1       1.895 -17.525   8.807  1.00  0.00    -0.391 N 
HETATM    5  C   UNL     1       2.305 -18.728   8.143  1.00  0.00     0.120 C 
HETATM    6  H   UNL     1       2.348 -16.653   8.665  1.00  0.00     0.159 HD
HETATM    7  C   UNL     1       1.399 -19.800   8.763  1.00  0.00     0.026 C 
HETATM    8  C   UNL     1       0.128 -18.984   9.084  1.00  0.00     0.061 C 
ENDBRANCH   1   3
BRANCH   1   9
HETATM    9  N   UNL     1       0.201 -16.511  11.366  1.00  0.00    -0.267 N 
ATOM     10  HN  UNL     1      -0.509 -15.999  11.889  1.00  0.00     0.194 HD
BRANCH   9  11
HETATM   11  O   UNL     1       1.114 -16.881  12.036  1.00  0.00    -0.289 OA
ATOM     12  HO  UNL     1       1.360 -17.732  12.377  1.00  0.00     0.244 HD
ENDBRANCH   9  11
ENDBRANCH   1   9
BRANCH   2  13
HETATM   13  C   UNL     1      -1.555 -15.672   8.241  1.00  0.00    -0.029 C 
HETATM   14  C   UNL     1      -2.669 -16.128   7.995  1.00  0.00    -0.040 C 
HETATM   15  C   UNL     1      -0.846 -15.041   7.049  1.00  0.00     0.056 C 
ENDBRANCH   2  13
TORSDOF 4
ENDMDL
MODEL 8
REMARK VINA RESULT:    -4.279     29.336     30.901
REMARK INTER + INTRA:          -5.754
REMARK INTER:                  -5.150
REMARK INTRA:                  -0.603
REMARK UNBOUND:                -0.599
REMARK  4 active torsions:
REMARK  status: ('A' for Active; 'I' for Inactive)
REMARK    1  A    between atoms: C_3  and  C_15 
REMARK    2  A    between atoms: C_3  and  N_6 
REMARK    3  A    between atoms: N_6  and  O_9 
REMARK    4  A    between atoms: C_8  and  C_11 
ROOT
HETATM    1  C   UNL     1       7.417  -5.344  25.764  1.00  0.00     0.077 C 
HETATM    2  C   UNL     1       8.168  -5.148  24.601  1.00  0.00     0.047 C 
ENDROOT
BRANCH   1   3
HETATM    3  C   UNL     1       6.005  -5.311  25.947  1.00  0.00     0.034 C 
HETATM    4  N   UNL     1       5.271  -4.450  26.688  1.00  0.00    -0.391 N 
HETATM    5  C   UNL     1       3.868  -4.744  26.649  1.00  0.00     0.120 C 
HETATM    6  H   UNL     1       5.675  -3.854  27.371  1.00  0.00     0.159 HD
HETATM    7  C   UNL     1       3.719  -5.588  25.376  1.00  0.00     0.026 C 
HETATM    8  C   UNL     1       5.092  -6.293  25.311  1.00  0.00     0.061 C 
ENDBRANCH   1   3
BRANCH   1   9
HETATM    9  N   UNL     1       8.146  -5.702  26.832  1.00  0.00    -0.267 N 
ATOM     10  HN  UNL     1       9.152  -5.678  26.667  1.00  0.00     0.194 HD
BRANCH   9  11
HETATM   11  O   UNL     1       7.851  -6.044  27.935  1.00  0.00    -0.289 OA
ATOM     12  HO  UNL     1       7.731  -5.566  28.747  1.00  0.00     0.244 HD
ENDBRANCH   9  11
ENDBRANCH   1   9
BRANCH   2  13
HETATM   13  C   UNL     1       7.649  -4.654  23.338  1.00  0.00    -0.029 C 
HETATM   14  C   UNL     1       7.626  -3.456  23.072  1.00  0.00    -0.040 C 
HETATM   15  C   UNL     1       7.144  -5.565  22.226  1.00  0.00     0.056 C 
ENDBRANCH   2  13
TORSDOF 4
ENDMDL
MODEL 9
REMARK VINA RESULT:    -4.140     24.873     26.350
REMARK INTER + INTRA:          -5.586
REMARK INTER:                  -5.171
REMARK INTRA:                  -0.415
REMARK UNBOUND:                -0.599
REMARK  4 active torsions:
REMARK  status: ('A' for Active; 'I' for Inactive)
REMARK    1  A    between atoms: C_3  and  C_15 
REMARK    2  A    between atoms: C_3  and  N_6 
REMARK    3  A    between atoms: N_6  and  O_9 
REMARK    4  A    between atoms: C_8  and  C_11 
ROOT
HETATM    1  C   UNL     1       8.542  -2.280  22.522  1.00  0.00     0.077 C 
HETATM    2  C   UNL     1       7.519  -1.570  21.885  1.00  0.00     0.047 C 
ENDROOT
BRANCH   1   3
HETATM    3  C   UNL     1       9.806  -1.824  22.990  1.00  0.00     0.034 C 
HETATM    4  N   UNL     1      10.993  -1.816  22.340  1.00  0.00    -0.391 N 
HETATM    5  C   UNL     1      12.061  -1.297  23.144  1.00  0.00     0.120 C 
HETATM    6  H   UNL     1      11.151  -2.339  21.512  1.00  0.00     0.159 HD
HETATM    7  C   UNL     1      11.329  -0.483  24.220  1.00  0.00     0.026 C 
HETATM    8  C   UNL     1      10.003  -1.263  24.350  1.00  0.00     0.061 C 
ENDBRANCH   1   3
BRANCH   1   9
HETATM    9  N   UNL     1       8.229  -3.554  22.805  1.00  0.00    -0.267 N 
ATOM     10  HN  UNL     1       8.438  -3.823  23.767  1.00  0.00     0.194 HD
BRANCH   9  11
HETATM   11  O   UNL     1       7.754  -4.433  22.156  1.00  0.00    -0.289 OA
ATOM     12  HO  UNL     1       7.961  -4.784  21.298  1.00  0.00     0.244 HD
ENDBRANCH   9  11
ENDBRANCH   1   9
BRANCH   2  13
HETATM   13  C   UNL     1       7.629  -0.216  21.373  1.00  0.00    -0.029 C 
HETATM   14  C   UNL     1       7.841   0.011  20.184  1.00  0.00    -0.040 C 
HETATM   15  C   UNL     1       7.440   1.025  22.236  1.00  0.00     0.056 C 
ENDBRANCH   2  13
TORSDOF 4
ENDMDL
