stable:False satoms:20 tatoms:24 sratio:0.8333333333333334
  -OEChem-07092417293D

 24 24  0     1  0  0  0  0  0999 V2000
    8.8922    2.0898   22.6747 H   0  0  0  0  0  0  0  0  0  0  0  0
    8.4610    1.3851   23.3807 C   0  0  0  0  0  0  0  0  0  0  0  0
   10.1024    0.0127   23.3157 H   0  0  0  0  0  0  0  0  0  0  0  0
    8.5838    1.8069   24.3831 H   0  0  0  0  0  0  0  0  0  0  0  0
    9.7042   -3.7476   19.5014 H   0  0  0  0  0  0  0  0  0  0  0  0
    6.2887    1.6869   23.6183 H   0  0  0  0  0  0  0  0  0  0  0  0
    8.5557   -2.3200   23.3405 C   0  0  0  0  0  0  0  0  0  0  0  0
   10.2008   -1.2964   21.1590 C   0  5  0  0  0  0  0  0  0  0  0  0
   10.5076   -3.3364   20.0896 C   0  0  0  0  0  0  0  0  0  0  0  0
    8.0486   -3.0655   24.3334 N   0  0  0  0  0  0  0  0  0  0  0  0
    9.2193   -3.0579   22.3542 C   0  5  3  0  0  0  0  0  0  0  0  0
    8.2068   -3.0548   25.5139 O   0  0  0  0  0  0  0  0  0  0  0  0
    9.9486   -2.4956   21.2316 C   0  0  0  0  0  0  0  0  0  0  0  0
    9.1711   -4.1256   22.4444 H   0  0  0  0  0  0  0  0  0  0  0  0
    6.7946    1.0816   22.0317 H   0  0  0  0  0  0  0  0  0  0  0  0
   10.6045   -0.4443   20.8536 H   0  0  0  0  0  0  0  0  0  0  0  0
    9.1167    0.1160   23.2533 N   0  0  0  0  0  0  0  0  0  0  0  0
    6.1403   -0.9645   23.0875 H   0  0  0  0  0  0  0  0  0  0  0  0
    6.9904    1.0516   23.0979 C   0  0  0  0  0  0  0  0  0  0  0  0
   11.1209   -2.7181   19.4576 H   0  0  0  0  0  0  0  0  0  0  0  0
    6.8969   -0.4010   23.6133 C   0  0  0  0  0  0  0  0  0  0  0  0
   11.0890   -4.1478   20.4932 H   0  0  0  0  0  0  0  0  0  0  0  0
    6.6745   -0.4177   24.6809 H   0  0  0  0  0  0  0  0  0  0  0  0
    8.2656   -0.9274   23.3872 C   0  0  3  0  0  0  0  0  0  0  0  0
  9 20  1  0  0  0  0
  5  9  1  0  0  0  0
  9 22  1  0  0  0  0
  9 13  1  0  0  0  0
  8 16  1  0  0  0  0
  8 13  2  0  0  0  0
 11 13  1  0  0  0  0
 15 19  1  0  0  0  0
 11 14  1  0  0  0  0
  7 11  1  0  0  0  0
  1  2  1  0  0  0  0
 18 21  1  0  0  0  0
  2 19  1  0  0  0  0
 19 21  1  0  0  0  0
  6 19  1  0  0  0  0
  3 17  1  0  0  0  0
  2 17  1  0  0  0  0
 17 24  1  0  0  0  0
  7 24  1  0  0  0  0
  7 10  2  3  0  0  0
  2  4  1  0  0  0  0
 21 24  1  0  0  0  0
 21 23  1  0  0  0  0
 10 12  1  0  0  0  0
M  CHG  2   8  -1  11  -1
M  END
> <Shapegauss>
-71.746025

$$$$
