REMARK  4 active torsions:
REMARK  status: ('A' for Active; 'I' for Inactive)
REMARK    1  A    between atoms: C_3  and  C_15 
REMARK    2  A    between atoms: C_3  and  N_6 
REMARK    3  A    between atoms: N_6  and  O_9 
REMARK    4  A    between atoms: C_8  and  C_11 
ROOT
HETATM    1  C   UNL     1       8.556  -2.320  23.340  1.00  0.00     0.077 C 
HETATM    2  C   UNL     1       9.219  -3.058  22.354  1.00  0.00     0.047 C 
ENDROOT
BRANCH   1   3
HETATM    3  C   UNL     1       8.266  -0.927  23.387  1.00  0.00     0.034 C 
HETATM    4  N   UNL     1       9.117   0.116  23.253  1.00  0.00    -0.391 N 
HETATM    5  C   UNL     1       8.461   1.385  23.381  1.00  0.00     0.120 C 
HETATM    6  H   UNL     1      10.102   0.013  23.316  1.00  0.00     0.159 HD
HETATM    7  C   UNL     1       6.990   1.052  23.098  1.00  0.00     0.026 C 
HETATM    8  C   UNL     1       6.897  -0.401  23.613  1.00  0.00     0.061 C 
ENDBRANCH   1   3
BRANCH   1   9
HETATM    9  N   UNL     1       8.049  -3.066  24.333  1.00  0.00    -0.267 N 
ATOM     10  HN  UNL     1       7.400  -3.785  24.014  1.00  0.00     0.194 HD
BRANCH   9  11
HETATM   11  O   UNL     1       8.207  -3.055  25.514  1.00  0.00    -0.289 OA
ATOM     12  HO  UNL     1       7.848  -3.583  26.217  1.00  0.00     0.244 HD
ENDBRANCH   9  11
ENDBRANCH   1   9
BRANCH   2  13
HETATM   13  C   UNL     1       9.949  -2.496  21.232  1.00  0.00    -0.029 C 
HETATM   14  C   UNL     1      10.201  -1.296  21.159  1.00  0.00    -0.040 C 
HETATM   15  C   UNL     1      10.508  -3.336  20.090  1.00  0.00     0.056 C 
ENDBRANCH   2  13
TORSDOF 4
