stable:False satoms:21 tatoms:24 sratio:0.875
  -OEChem-07092417353D

 24 22  0     1  0  0  0  0  0999 V2000
    7.0764   -3.8898   24.9311 H   0  0  0  0  0  0  0  0  0  0  0  0
    8.9563   -2.9237   24.3199 C   0  0  0  0  0  0  0  0  0  0  0  0
    8.4987   -4.7635   25.4796 H   0  0  0  0  0  0  0  0  0  0  0  0
    8.0558   -3.2708   26.2639 H   0  0  0  0  0  0  0  0  0  0  0  0
    8.0969   -3.7608   25.2939 C   0  0  0  0  0  0  0  0  0  0  0  0
    9.9916   -3.1231   24.5559 H   0  0  0  0  0  0  0  0  0  0  0  0
    8.8836   -3.0833   23.2100 H   0  0  0  0  0  0  0  0  0  0  0  0
    8.7550   -1.8451   24.3972 H   0  0  0  0  0  0  0  0  0  0  0  0
   10.1416   -0.3559   24.2048 H   0  0  0  0  0  0  0  0  0  0  0  0
   11.6019   -1.3399   24.0211 H   0  0  0  0  0  0  0  0  0  0  0  0
   11.6869    0.3351   23.5852 H   0  0  0  0  0  0  0  0  0  0  0  0
   11.4783   -1.5505   21.5542 O   0  0  0  0  0  0  0  0  0  0  0  0
   10.6906   -0.8822   22.1587 C   0  0  0  0  0  0  0  0  0  0  0  0
   11.0128   -0.5306   23.5837 C   0  0  0  0  0  0  0  0  0  0  0  0
    9.2051    0.6319   21.3228 H   0  0  0  0  0  0  0  0  0  0  0  0
    9.5347   -0.3126   21.4620 N   0  0  0  0  0  0  0  0  0  0  0  0
    8.7590   -0.8290   20.9762 H   0  0  0  0  0  0  0  0  0  0  0  0
    6.9949    0.8503   20.1193 C   0  0  1  0  0  0  0  0  0  0  0  0
    7.6120   -0.4186   19.1839 S   0  0  0  0  0  0  0  0  0  0  0  0
    7.4169    1.8914   20.1534 H   0  0  0  0  0  0  0  0  0  0  0  0
    6.5043    0.5936   19.0215 C   0  3  0  0  0  0  0  0  0  0  0  0
    5.6896    0.9679   18.4357 H   0  0  0  0  0  0  0  0  0  0  0  0
    6.5745   -0.2891   21.6586 H   0  0  0  0  0  0  0  0  0  0  0  0
    6.3664    0.6080   21.4041 O   0  0  0  0  0  0  0  0  0  0  0  0
 21 22  1  0  0  0  0
 19 21  1  0  0  0  0
 18 21  1  0  0  0  0
 18 19  1  0  0  0  0
 18 20  1  0  0  0  0
 18 24  1  0  0  0  0
 16 17  1  0  0  0  0
 15 16  1  0  0  0  0
 23 24  1  0  0  0  0
 13 16  1  0  0  0  0
 12 13  2  0  0  0  0
 13 14  1  0  0  0  0
  2  7  1  0  0  0  0
 11 14  1  0  0  0  0
 10 14  1  0  0  0  0
  9 14  1  0  0  0  0
  2  8  1  0  0  0  0
  2  6  1  0  0  0  0
  2  5  1  0  0  0  0
  1  5  1  0  0  0  0
  3  5  1  0  0  0  0
  4  5  1  0  0  0  0
M  CHG  1  21   1
M  END
> <Shapegauss>
-120.467155

$$$$
