stable:False satoms:9 tatoms:24 sratio:0.375
  -OEChem-08062413193D

 40 41  0     1  0  0  0  0  0999 V2000
   -6.2439   -5.4001  -26.2531 C   0  0  0  0  0  0  0  0  0  0  0  0
   -7.9587   -4.7568  -26.0367 S   0  0  0  0  0  0  0  0  0  0  0  0
   -8.8100   -5.9194  -25.9939 O   0  0  0  0  0  0  0  0  0  0  0  0
   -8.2452   -3.9173  -27.1525 O   0  0  0  0  0  0  0  0  0  0  0  0
   -7.9226   -3.9324  -24.6648 N   0  0  0  0  0  0  0  0  0  0  0  0
   -8.7186   -3.2311  -24.2149 C   0  0  0  0  0  0  0  0  0  0  0  0
   -9.1991   -2.3012  -23.6562 C   0  0  0  0  0  0  0  0  0  0  0  0
  -10.0610   -1.3700  -23.4396 C   0  0  1  0  0  0  0  0  0  0  0  0
  -10.6353   -0.3259  -24.6141 C   0  0  0  0  0  0  0  0  0  0  0  0
  -11.7467   -0.0022  -24.5488 C   0  0  0  0  0  0  0  0  0  0  0  0
  -12.7507   -0.2029  -23.9237 C   0  0  0  0  0  0  0  0  0  0  0  0
  -12.5035   -1.3657  -22.9398 C   0  0  0  0  0  0  0  0  0  0  0  0
  -11.6487   -1.8307  -22.7829 C   0  0  0  0  0  0  0  0  0  0  0  0
   -9.4329   -0.8538  -22.5687 C   0  0  0  0  0  0  0  0  0  0  0  0
   -8.8272   -0.1736  -21.5602 C   0  0  0  0  0  0  0  0  0  0  0  0
   -9.2894    0.8273  -21.1960 O   0  0  0  0  0  0  0  0  0  0  0  0
   -7.7571   -0.8335  -21.1860 N   0  0  0  0  0  0  0  0  0  0  0  0
   -7.0077   -0.3415  -20.2958 C   0  0  0  0  0  0  0  0  0  0  0  0
   -7.0674   -0.1838  -18.9877 C   0  0  0  0  0  0  0  0  0  0  0  0
   -6.7109    0.1673  -17.9010 N   0  0  0  0  0  0  0  0  0  0  0  0
   -5.5377    0.6588  -18.3230 C   0  0  0  0  0  0  0  0  0  0  0  0
   -5.0813    0.6486  -19.4739 C   0  0  0  0  0  0  0  0  0  0  0  0
   -5.6196    0.2324  -20.6341 C   0  0  0  0  0  0  0  0  0  0  0  0
   -5.0393    0.2550  -22.0293 Cl  0  0  0  0  0  0  0  0  0  0  0  0
   -6.1854   -5.9840  -27.1835 H   0  0  0  0  0  0  0  0  0  0  0  0
   -5.5398   -4.5566  -26.3048 H   0  0  0  0  0  0  0  0  0  0  0  0
   -5.9834   -6.0434  -25.3997 H   0  0  0  0  0  0  0  0  0  0  0  0
   -7.1045   -3.3623  -24.7401 H   0  0  0  0  0  0  0  0  0  0  0  0
   -9.9936    0.0337  -25.4049 H   0  0  0  0  0  0  0  0  0  0  0  0
  -11.9471    0.7329  -25.3142 H   0  0  0  0  0  0  0  0  0  0  0  0
  -13.6771    0.3417  -24.0319 H   0  0  0  0  0  0  0  0  0  0  0  0
  -13.3529   -1.7043  -22.3651 H   0  0  0  0  0  0  0  0  0  0  0  0
  -11.5183   -1.8294  -21.6906 H   0  0  0  0  0  0  0  0  0  0  0  0
  -11.8148   -2.8608  -23.1311 H   0  0  0  0  0  0  0  0  0  0  0  0
   -8.5705   -0.7020  -23.2344 H   0  0  0  0  0  0  0  0  0  0  0  0
   -9.3213   -1.8099  -22.0363 H   0  0  0  0  0  0  0  0  0  0  0  0
   -7.5369   -1.7164  -21.6008 H   0  0  0  0  0  0  0  0  0  0  0  0
   -8.0090   -0.6608  -18.7588 H   0  0  0  0  0  0  0  0  0  0  0  0
   -4.9162    1.1188  -17.5691 H   0  0  0  0  0  0  0  0  0  0  0  0
   -4.0790    1.0413  -19.5611 H   0  0  0  0  0  0  0  0  0  0  0  0
 20 21  2  0  0  0  0
 19 20  1  0  0  0  0
 21 22  1  0  0  0  0
 18 19  2  0  0  0  0
 22 23  2  0  0  0  0
 18 23  1  0  0  0  0
 17 18  1  0  0  0  0
 23 24  1  0  0  0  0
 15 16  2  0  0  0  0
 15 17  1  0  0  0  0
 14 15  1  0  0  0  0
  8 14  1  0  0  0  0
 12 13  1  0  0  0  0
  8 13  1  0  0  0  0
 11 12  2  0  0  0  0
  7  8  1  0  0  0  0
  8  9  1  0  0  0  0
 10 11  1  0  0  0  0
  6  7  3  0  0  0  0
  5  6  1  0  0  0  0
  9 10  2  0  0  0  0
  2  5  1  0  0  0  0
  2  3  2  0  0  0  0
  1  2  1  0  0  0  0
  2  4  2  0  0  0  0
  1 25  1  0  0  0  0
  1 26  1  0  0  0  0
  1 27  1  0  0  0  0
  5 28  1  0  0  0  0
  9 29  1  0  0  0  0
 10 30  1  0  0  0  0
 11 31  1  0  0  0  0
 12 32  1  0  0  0  0
 13 33  1  0  0  0  0
 13 34  1  0  0  0  0
 14 35  1  0  0  0  0
 14 36  1  0  0  0  0
 17 37  1  0  0  0  0
 19 38  1  0  0  0  0
 21 39  1  0  0  0  0
 22 40  1  0  0  0  0
M  END
> <Chemgauss4>
-12.768522

$$$$
