stable:False satoms:9 tatoms:24 sratio:0.375
  -OEChem-08062413193D

 40 41  0     1  0  0  0  0  0999 V2000
    6.2909   -5.2542   26.3028 C   0  0  0  0  0  0  0  0  0  0  0  0
    8.0056   -4.6109   26.0864 S   0  0  0  0  0  0  0  0  0  0  0  0
    8.8570   -5.7735   26.0436 O   0  0  0  0  0  0  0  0  0  0  0  0
    8.2921   -3.7714   27.2022 O   0  0  0  0  0  0  0  0  0  0  0  0
    7.9695   -3.7865   24.7145 N   0  0  0  0  0  0  0  0  0  0  0  0
    8.7655   -3.0852   24.2646 C   0  0  0  0  0  0  0  0  0  0  0  0
    9.2460   -2.1553   23.7059 C   0  0  0  0  0  0  0  0  0  0  0  0
   10.1080   -1.2241   23.4893 C   0  0  1  0  0  0  0  0  0  0  0  0
   10.6823   -0.1800   24.6638 C   0  0  0  0  0  0  0  0  0  0  0  0
   11.7937    0.1437   24.5985 C   0  0  0  0  0  0  0  0  0  0  0  0
   12.7977   -0.0570   23.9734 C   0  0  0  0  0  0  0  0  0  0  0  0
   12.5505   -1.2198   22.9895 C   0  0  0  0  0  0  0  0  0  0  0  0
   11.6957   -1.6847   22.8325 C   0  0  0  0  0  0  0  0  0  0  0  0
    9.4798   -0.7079   22.6184 C   0  0  0  0  0  0  0  0  0  0  0  0
    8.8742   -0.0277   21.6099 C   0  0  0  0  0  0  0  0  0  0  0  0
    9.3364    0.9732   21.2457 O   0  0  0  0  0  0  0  0  0  0  0  0
    7.8041   -0.6876   21.2357 N   0  0  0  0  0  0  0  0  0  0  0  0
    7.0546   -0.1956   20.3455 C   0  0  0  0  0  0  0  0  0  0  0  0
    7.1144   -0.0379   19.0374 C   0  0  0  0  0  0  0  0  0  0  0  0
    6.7579    0.3132   17.9506 N   0  0  0  0  0  0  0  0  0  0  0  0
    5.5847    0.8047   18.3727 C   0  0  0  0  0  0  0  0  0  0  0  0
    5.1282    0.7945   19.5236 C   0  0  0  0  0  0  0  0  0  0  0  0
    5.6666    0.3783   20.6838 C   0  0  0  0  0  0  0  0  0  0  0  0
    5.0862    0.4009   22.0790 Cl  0  0  0  0  0  0  0  0  0  0  0  0
    6.2324   -5.8381   27.2332 H   0  0  0  0  0  0  0  0  0  0  0  0
    5.5868   -4.4107   26.3545 H   0  0  0  0  0  0  0  0  0  0  0  0
    6.0303   -5.8975   25.4494 H   0  0  0  0  0  0  0  0  0  0  0  0
    7.1515   -3.2164   24.7898 H   0  0  0  0  0  0  0  0  0  0  0  0
   10.0406    0.1796   25.4545 H   0  0  0  0  0  0  0  0  0  0  0  0
   11.9941    0.8788   25.3639 H   0  0  0  0  0  0  0  0  0  0  0  0
   13.7240    0.4876   24.0816 H   0  0  0  0  0  0  0  0  0  0  0  0
   13.3999   -1.5584   22.4148 H   0  0  0  0  0  0  0  0  0  0  0  0
   11.5652   -1.6835   21.7403 H   0  0  0  0  0  0  0  0  0  0  0  0
   11.8618   -2.7149   23.1808 H   0  0  0  0  0  0  0  0  0  0  0  0
    8.6174   -0.5561   23.2841 H   0  0  0  0  0  0  0  0  0  0  0  0
    9.3683   -1.6640   22.0860 H   0  0  0  0  0  0  0  0  0  0  0  0
    7.5838   -1.5705   21.6505 H   0  0  0  0  0  0  0  0  0  0  0  0
    8.0560   -0.5148   18.8085 H   0  0  0  0  0  0  0  0  0  0  0  0
    4.9631    1.2647   17.6188 H   0  0  0  0  0  0  0  0  0  0  0  0
    4.1259    1.1872   19.6108 H   0  0  0  0  0  0  0  0  0  0  0  0
 20 21  2  0  0  0  0
 19 20  1  0  0  0  0
 21 22  1  0  0  0  0
 18 19  2  0  0  0  0
 22 23  2  0  0  0  0
 18 23  1  0  0  0  0
 17 18  1  0  0  0  0
 23 24  1  0  0  0  0
 15 16  2  0  0  0  0
 15 17  1  0  0  0  0
 14 15  1  0  0  0  0
  8 14  1  0  0  0  0
 12 13  1  0  0  0  0
  8 13  1  0  0  0  0
 11 12  2  0  0  0  0
  7  8  1  0  0  0  0
  8  9  1  0  0  0  0
 10 11  1  0  0  0  0
  6  7  3  0  0  0  0
  5  6  1  0  0  0  0
  9 10  2  0  0  0  0
  2  5  1  0  0  0  0
  2  3  2  0  0  0  0
  1  2  1  0  0  0  0
  2  4  2  0  0  0  0
  1 25  1  0  0  0  0
  1 26  1  0  0  0  0
  1 27  1  0  0  0  0
  5 28  1  0  0  0  0
  9 29  1  0  0  0  0
 10 30  1  0  0  0  0
 11 31  1  0  0  0  0
 12 32  1  0  0  0  0
 13 33  1  0  0  0  0
 13 34  1  0  0  0  0
 14 35  1  0  0  0  0
 14 36  1  0  0  0  0
 17 37  1  0  0  0  0
 19 38  1  0  0  0  0
 21 39  1  0  0  0  0
 22 40  1  0  0  0  0
M  END
> <Chemgauss4>
-12.797128

$$$$
