REMARK  7 active torsions:
REMARK  status: ('A' for Active; 'I' for Inactive)
REMARK    1  A    between atoms: S_2  and  N_5 
REMARK    2  A    between atoms: N_5  and  C_7 
REMARK    3  A    between atoms: C_8  and  C_9 
REMARK    4  A    between atoms: C_9  and  C_12 
REMARK    5  A    between atoms: C_9  and  C_11 
REMARK    6  A    between atoms: C_12  and  C_13 
REMARK       I    between atoms: C_13  and  N_15 
REMARK    7  A    between atoms: C_17  and  C_21 
ROOT
HETATM    1  C   UNL     1       8.962   0.091  21.363  1.00  0.00     0.295 C 
HETATM    2  O   UNL     1       9.437   1.088  20.930  1.00  0.00    -0.258 OA
HETATM    3  N   UNL     1       7.843  -0.535  21.027  1.00  0.00    -0.308 N 
ATOM      4  HN  UNL     1       7.612  -1.428  21.462  1.00  0.00     0.170 HD
HETATM    5  C   UNL     1       7.032  -0.014  20.139  1.00  0.00     0.116 C 
HETATM    6  C   UNL     1       7.177   0.033  18.732  1.00  0.00     0.117 C 
HETATM    7  N   UNL     1       7.145   0.133  17.609  1.00  0.00    -0.190 NA
ENDROOT
BRANCH   5   8
HETATM    8  C   UNL     1       5.796   0.534  20.527  1.00  0.00     0.031 C 
HETATM    9  C   UNL     1       5.189   0.932  19.452  1.00  0.00     0.014 C 
ENDBRANCH   5   8
BRANCH   1  10
HETATM   10  C   UNL     1       9.667  -0.619  22.363  1.00  0.00    -0.035 C 
BRANCH  10  11
HETATM   11  C   UNL     1      10.348  -1.218  23.018  1.00  0.00     0.069 C 
BRANCH  11  12
HETATM   12  C   UNL     1       9.393  -2.094  23.585  1.00  0.00    -0.035 C 
HETATM   13  C   UNL     1       8.916  -2.918  24.140  1.00  0.00     0.027 C 
BRANCH  13  14
HETATM   14  N   UNL     1       8.199  -3.660  24.728  1.00  0.00    -0.233 N 
ATOM     15  HN  UNL     1       7.321  -3.849  24.245  1.00  0.00     0.190 HD
BRANCH  14  16
HETATM   16  S   UNL     1       8.336  -4.404  26.097  1.00  0.00     0.301 S 
HETATM   17 BR   UNL     1       6.488  -4.970  26.508  1.00  0.00     0.082 Br
HETATM   18  O   UNL     1       9.067  -5.642  25.960  1.00  0.00    -0.193 OA
HETATM   19  O   UNL     1       8.796  -3.570  27.164  1.00  0.00    -0.193 OA
ENDBRANCH  14  16
ENDBRANCH  13  14
ENDBRANCH  11  12
BRANCH  11  20
HETATM   20  C   UNL     1      11.860  -1.103  23.086  1.00  0.00     0.019 C 
HETATM   21  C   UNL     1      12.216  -0.057  23.888  1.00  0.00     0.013 C 
ENDBRANCH  11  20
ENDBRANCH  10  11
ENDBRANCH   1  10
TORSDOF 7
