MODEL 1
REMARK VINA RESULT:    -7.502      0.000      0.000
REMARK INTER + INTRA:         -11.279
REMARK INTER:                 -10.133
REMARK INTRA:                  -1.145
REMARK UNBOUND:                -1.145
REMARK  6 active torsions:
REMARK  status: ('A' for Active; 'I' for Inactive)
REMARK    1  A    between atoms: S_2  and  N_5 
REMARK    2  A    between atoms: C_7  and  C_8 
REMARK    3  A    between atoms: C_8  and  C_9 
REMARK    4  A    between atoms: C_9  and  C_15 
REMARK    5  A    between atoms: C_15  and  C_16 
REMARK       I    between atoms: C_16  and  N_18 
REMARK    6  A    between atoms: N_18  and  C_20 
ROOT
HETATM    1  C   UNL     1       9.336  -1.571  23.394  1.00  0.00     0.076 C 
HETATM    2  C   UNL     1       9.096  -0.538  24.800  1.00  0.00     0.003 C 
HETATM    3  C   UNL     1       9.846   0.062  25.163  1.00  0.00    -0.002 C 
HETATM    4  C   UNL     1      11.239   0.189  24.751  1.00  0.00    -0.001 C 
HETATM    5  C   UNL     1      11.614  -0.631  23.807  1.00  0.00    -0.002 C 
HETATM    6  C   UNL     1      11.090  -1.397  23.205  1.00  0.00     0.003 C 
ENDROOT
BRANCH   1   7
HETATM    7  C   UNL     1       8.887  -2.698  23.193  1.00  0.00     0.021 C 
BRANCH   7   8
HETATM    8  C   UNL     1       7.990  -3.479  22.958  1.00  0.00     0.098 C 
HETATM    9  N   UNL     1       7.513  -4.463  22.428  1.00  0.00    -0.296 N 
ATOM     10  HN  UNL     1       8.108  -5.289  22.365  1.00  0.00     0.177 HD
BRANCH   9  11
HETATM   11  S   UNL     1       6.029  -4.585  21.814  1.00  0.00     0.226 S 
HETATM   12  C   UNL     1       5.022  -5.091  23.074  1.00  0.00     0.186 C 
HETATM   13  O   UNL     1       5.576  -3.287  21.379  1.00  0.00    -0.206 OA
HETATM   14  O   UNL     1       5.928  -5.552  20.735  1.00  0.00    -0.206 OA
ENDBRANCH   9  11
ENDBRANCH   7   8
ENDBRANCH   1   7
BRANCH   1  15
HETATM   15  C   UNL     1       8.875  -1.000  22.408  1.00  0.00    -0.061 C 
BRANCH  15  16
HETATM   16  C   UNL     1       8.408  -0.439  21.320  1.00  0.00     0.290 C 
HETATM   17  O   UNL     1       9.169   0.172  20.728  1.00  0.00    -0.259 OA
HETATM   18  N   UNL     1       7.100  -0.656  21.142  1.00  0.00    -0.315 N 
ATOM     19  HN  UNL     1       6.586  -1.236  21.805  1.00  0.00     0.170 HD
BRANCH  18  20
HETATM   20  C   UNL     1       6.505  -0.150  20.165  1.00  0.00     0.057 A 
HETATM   21  C   UNL     1       6.223  -0.588  18.896  1.00  0.00     0.117 A 
HETATM   22  N   UNL     1       5.776  -0.356  17.838  1.00  0.00    -0.373 N 
HETATM   23  C   UNL     1       5.306   0.880  17.983  1.00  0.00     0.088 A 
ATOM     24  HN  UNL     1       5.753  -0.952  17.011  1.00  0.00     0.164 HD
HETATM   25  C   UNL     1       5.356   1.573  19.030  1.00  0.00     0.026 A 
HETATM   26  C   UNL     1       5.900   1.250  20.237  1.00  0.00    -0.033 A 
HETATM   27  C   UNL     1       5.913   2.112  21.553  1.00  0.00     0.050 C 
ENDBRANCH  18  20
ENDBRANCH  15  16
ENDBRANCH   1  15
TORSDOF 6
ENDMDL
MODEL 2
REMARK VINA RESULT:    -7.072      2.741      5.851
REMARK INTER + INTRA:         -10.699
REMARK INTER:                  -9.783
REMARK INTRA:                  -0.915
REMARK UNBOUND:                -1.145
REMARK  6 active torsions:
REMARK  status: ('A' for Active; 'I' for Inactive)
REMARK    1  A    between atoms: S_2  and  N_5 
REMARK    2  A    between atoms: C_7  and  C_8 
REMARK    3  A    between atoms: C_8  and  C_9 
REMARK    4  A    between atoms: C_9  and  C_15 
REMARK    5  A    between atoms: C_15  and  C_16 
REMARK       I    between atoms: C_16  and  N_18 
REMARK    6  A    between atoms: N_18  and  C_20 
ROOT
HETATM    1  C   UNL     1      10.260  -0.507  23.385  1.00  0.00     0.076 C 
HETATM    2  C   UNL     1      11.499  -1.532  22.667  1.00  0.00     0.003 C 
HETATM    3  C   UNL     1      12.465  -1.537  23.016  1.00  0.00    -0.002 C 
HETATM    4  C   UNL     1      13.101  -0.725  24.047  1.00  0.00    -0.001 C 
HETATM    5  C   UNL     1      12.341   0.196  24.574  1.00  0.00    -0.002 C 
HETATM    6  C   UNL     1      11.282   0.486  24.438  1.00  0.00     0.003 C 
ENDROOT
BRANCH   1   7
HETATM    7  C   UNL     1       9.342   0.085  22.819  1.00  0.00     0.021 C 
BRANCH   7   8
HETATM    8  C   UNL     1       8.330   0.128  22.154  1.00  0.00     0.098 C 
HETATM    9  N   UNL     1       7.409  -0.371  21.538  1.00  0.00    -0.296 N 
ATOM     10  HN  UNL     1       6.986  -1.209  21.937  1.00  0.00     0.177 HD
BRANCH   9  11
HETATM   11  S   UNL     1       6.792   0.167  20.150  1.00  0.00     0.226 S 
HETATM   12  C   UNL     1       5.679  -0.995  19.630  1.00  0.00     0.186 C 
HETATM   13  O   UNL     1       6.073   1.395  20.384  1.00  0.00    -0.206 OA
HETATM   14  O   UNL     1       7.786   0.345  19.106  1.00  0.00    -0.206 OA
ENDBRANCH   9  11
ENDBRANCH   7   8
ENDBRANCH   1   7
BRANCH   1  15
HETATM   15  C   UNL     1       9.598  -1.185  24.168  1.00  0.00    -0.061 C 
BRANCH  15  16
HETATM   16  C   UNL     1       8.939  -1.896  25.048  1.00  0.00     0.290 C 
HETATM   17  O   UNL     1       8.774  -1.385  26.055  1.00  0.00    -0.259 OA
HETATM   18  N   UNL     1       8.627  -3.119  24.602  1.00  0.00    -0.315 N 
ATOM     19  HN  UNL     1       8.878  -3.393  23.652  1.00  0.00     0.170 HD
BRANCH  18  20
HETATM   20  C   UNL     1       8.029  -3.926  25.347  1.00  0.00     0.057 A 
HETATM   21  C   UNL     1       8.438  -4.805  26.317  1.00  0.00     0.117 A 
HETATM   22  N   UNL     1       8.158  -5.651  27.078  1.00  0.00    -0.373 N 
HETATM   23  C   UNL     1       6.838  -5.744  26.940  1.00  0.00     0.088 A 
ATOM     24  HN  UNL     1       8.772  -6.184  27.693  1.00  0.00     0.164 HD
HETATM   25  C   UNL     1       6.124  -5.057  26.166  1.00  0.00     0.026 A 
HETATM   26  C   UNL     1       6.510  -4.087  25.292  1.00  0.00    -0.033 A 
HETATM   27  C   UNL     1       5.598  -3.204  24.363  1.00  0.00     0.050 C 
ENDBRANCH  18  20
ENDBRANCH  15  16
ENDBRANCH   1  15
TORSDOF 6
ENDMDL
MODEL 3
REMARK VINA RESULT:    -6.887      2.594      5.857
REMARK INTER + INTRA:         -10.448
REMARK INTER:                  -9.535
REMARK INTRA:                  -0.914
REMARK UNBOUND:                -1.145
REMARK  6 active torsions:
REMARK  status: ('A' for Active; 'I' for Inactive)
REMARK    1  A    between atoms: S_2  and  N_5 
REMARK    2  A    between atoms: C_7  and  C_8 
REMARK    3  A    between atoms: C_8  and  C_9 
REMARK    4  A    between atoms: C_9  and  C_15 
REMARK    5  A    between atoms: C_15  and  C_16 
REMARK       I    between atoms: C_16  and  N_18 
REMARK    6  A    between atoms: N_18  and  C_20 
ROOT
HETATM    1  C   UNL     1       6.663  -3.012  22.412  1.00  0.00     0.076 C 
HETATM    2  C   UNL     1       6.137  -3.076  24.091  1.00  0.00     0.003 C 
HETATM    3  C   UNL     1       6.288  -3.909  24.673  1.00  0.00    -0.002 C 
HETATM    4  C   UNL     1       6.842  -5.214  24.330  1.00  0.00    -0.001 C 
HETATM    5  C   UNL     1       7.143  -5.374  23.070  1.00  0.00    -0.002 C 
HETATM    6  C   UNL     1       7.107  -4.712  22.184  1.00  0.00     0.003 C 
ENDROOT
BRANCH   1   7
HETATM    7  C   UNL     1       6.100  -2.474  21.460  1.00  0.00     0.021 C 
BRANCH   7   8
HETATM    8  C   UNL     1       5.873  -1.537  20.726  1.00  0.00     0.098 C 
HETATM    9  N   UNL     1       5.801  -0.994  19.641  1.00  0.00    -0.296 N 
ATOM     10  HN  UNL     1       5.438  -1.551  18.868  1.00  0.00     0.177 HD
BRANCH   9  11
HETATM   11  S   UNL     1       6.226   0.524  19.309  1.00  0.00     0.226 S 
HETATM   12  C   UNL     1       6.413   1.313  20.792  1.00  0.00     0.186 C 
HETATM   13  O   UNL     1       7.502   0.533  18.637  1.00  0.00    -0.206 OA
HETATM   14  O   UNL     1       5.232   1.245  18.532  1.00  0.00    -0.206 OA
ENDBRANCH   9  11
ENDBRANCH   7   8
ENDBRANCH   1   7
BRANCH   1  15
HETATM   15  C   UNL     1       7.737  -2.416  22.363  1.00  0.00    -0.061 C 
BRANCH  15  16
HETATM   16  C   UNL     1       8.879  -1.775  22.377  1.00  0.00     0.290 C 
HETATM   17  O   UNL     1       9.102  -1.166  21.438  1.00  0.00    -0.259 OA
HETATM   18  N   UNL     1       9.592  -2.004  23.486  1.00  0.00    -0.315 N 
ATOM     19  HN  UNL     1       9.211  -2.600  24.221  1.00  0.00     0.170 HD
BRANCH  18  20
HETATM   20  C   UNL     1      10.723  -1.488  23.624  1.00  0.00     0.057 A 
HETATM   21  C   UNL     1      11.973  -1.804  23.156  1.00  0.00     0.117 A 
HETATM   22  N   UNL     1      13.123  -1.575  23.151  1.00  0.00    -0.373 N 
HETATM   23  C   UNL     1      13.209  -0.494  23.921  1.00  0.00     0.088 A 
ATOM     24  HN  UNL     1      13.870  -2.078  22.674  1.00  0.00     0.164 HD
HETATM   25  C   UNL     1      12.252   0.093  24.485  1.00  0.00     0.026 A 
HETATM   26  C   UNL     1      10.928  -0.227  24.462  1.00  0.00    -0.033 A 
HETATM   27  C   UNL     1       9.734   0.546  25.135  1.00  0.00     0.050 C 
ENDBRANCH  18  20
ENDBRANCH  15  16
ENDBRANCH   1  15
TORSDOF 6
ENDMDL
MODEL 4
REMARK VINA RESULT:    -6.810      4.199      6.356
REMARK INTER + INTRA:         -10.344
REMARK INTER:                  -9.777
REMARK INTRA:                  -0.567
REMARK UNBOUND:                -1.145
REMARK  6 active torsions:
REMARK  status: ('A' for Active; 'I' for Inactive)
REMARK    1  A    between atoms: S_2  and  N_5 
REMARK    2  A    between atoms: C_7  and  C_8 
REMARK    3  A    between atoms: C_8  and  C_9 
REMARK    4  A    between atoms: C_9  and  C_15 
REMARK    5  A    between atoms: C_15  and  C_16 
REMARK       I    between atoms: C_16  and  N_18 
REMARK    6  A    between atoms: N_18  and  C_20 
ROOT
HETATM    1  C   UNL     1       7.424  -4.931  24.010  1.00  0.00     0.076 C 
HETATM    2  C   UNL     1       7.679  -5.958  22.602  1.00  0.00     0.003 C 
HETATM    3  C   UNL     1       6.972  -6.044  21.862  1.00  0.00    -0.002 C 
HETATM    4  C   UNL     1       5.629  -5.486  21.768  1.00  0.00    -0.001 C 
HETATM    5  C   UNL     1       5.233  -4.816  22.815  1.00  0.00    -0.002 C 
HETATM    6  C   UNL     1       5.713  -4.535  23.772  1.00  0.00     0.003 C 
ENDROOT
BRANCH   1   7
HETATM    7  C   UNL     1       7.768  -5.136  25.173  1.00  0.00     0.021 C 
BRANCH   7   8
HETATM    8  C   UNL     1       7.548  -5.300  26.353  1.00  0.00     0.098 C 
HETATM    9  N   UNL     1       7.696  -5.859  27.422  1.00  0.00    -0.296 N 
ATOM     10  HN  UNL     1       8.644  -6.147  27.666  1.00  0.00     0.177 HD
BRANCH   9  11
HETATM   11  S   UNL     1       6.537  -6.188  28.491  1.00  0.00     0.226 S 
HETATM   12  C   UNL     1       5.097  -6.332  27.618  1.00  0.00     0.186 C 
HETATM   13  O   UNL     1       6.804  -7.459  29.118  1.00  0.00    -0.206 OA
HETATM   14  O   UNL     1       6.362  -5.149  29.491  1.00  0.00    -0.206 OA
ENDBRANCH   9  11
ENDBRANCH   7   8
ENDBRANCH   1   7
BRANCH   1  15
HETATM   15  C   UNL     1       8.003  -3.863  23.822  1.00  0.00    -0.061 C 
BRANCH  15  16
HETATM   16  C   UNL     1       8.641  -2.749  23.565  1.00  0.00     0.290 C 
HETATM   17  O   UNL     1       8.544  -2.374  22.491  1.00  0.00    -0.259 OA
HETATM   18  N   UNL     1       9.331  -2.288  24.615  1.00  0.00    -0.315 N 
ATOM     19  HN  UNL     1       9.293  -2.785  25.505  1.00  0.00     0.170 HD
BRANCH  18  20
HETATM   20  C   UNL     1      10.021  -1.250  24.509  1.00  0.00     0.057 A 
HETATM   21  C   UNL     1      11.260  -0.984  23.985  1.00  0.00     0.117 A 
HETATM   22  N   UNL     1      12.119  -0.208  23.800  1.00  0.00    -0.373 N 
HETATM   23  C   UNL     1      11.610   0.915  24.298  1.00  0.00     0.088 A 
ATOM     24  HN  UNL     1      13.029  -0.357  23.366  1.00  0.00     0.164 HD
HETATM   25  C   UNL     1      10.475   1.046  24.822  1.00  0.00     0.026 A 
HETATM   26  C   UNL     1       9.516   0.099  25.019  1.00  0.00    -0.033 A 
HETATM   27  C   UNL     1       8.081   0.289  25.634  1.00  0.00     0.050 C 
ENDBRANCH  18  20
ENDBRANCH  15  16
ENDBRANCH   1  15
TORSDOF 6
ENDMDL
MODEL 5
REMARK VINA RESULT:    -6.634      4.168      6.410
REMARK INTER + INTRA:         -10.107
REMARK INTER:                  -9.513
REMARK INTRA:                  -0.594
REMARK UNBOUND:                -1.145
REMARK  6 active torsions:
REMARK  status: ('A' for Active; 'I' for Inactive)
REMARK    1  A    between atoms: S_2  and  N_5 
REMARK    2  A    between atoms: C_7  and  C_8 
REMARK    3  A    between atoms: C_8  and  C_9 
REMARK    4  A    between atoms: C_9  and  C_15 
REMARK    5  A    between atoms: C_15  and  C_16 
REMARK       I    between atoms: C_16  and  N_18 
REMARK    6  A    between atoms: N_18  and  C_20 
ROOT
HETATM    1  C   UNL     1       7.189  -4.720  24.316  1.00  0.00     0.076 C 
HETATM    2  C   UNL     1       7.704  -5.657  22.916  1.00  0.00     0.003 C 
HETATM    3  C   UNL     1       7.051  -5.907  22.165  1.00  0.00    -0.002 C 
HETATM    4  C   UNL     1       5.615  -5.684  22.046  1.00  0.00    -0.001 C 
HETATM    5  C   UNL     1       5.054  -5.127  23.085  1.00  0.00    -0.002 C 
HETATM    6  C   UNL     1       5.438  -4.742  24.049  1.00  0.00     0.003 C 
ENDROOT
BRANCH   1   7
HETATM    7  C   UNL     1       7.553  -4.838  25.485  1.00  0.00     0.021 C 
BRANCH   7   8
HETATM    8  C   UNL     1       7.416  -5.219  26.627  1.00  0.00     0.098 C 
HETATM    9  N   UNL     1       7.510  -6.036  27.522  1.00  0.00    -0.296 N 
ATOM     10  HN  UNL     1       8.360  -6.600  27.547  1.00  0.00     0.177 HD
BRANCH   9  11
HETATM   11  S   UNL     1       6.419  -6.312  28.675  1.00  0.00     0.226 S 
HETATM   12  C   UNL     1       4.915  -6.400  27.909  1.00  0.00     0.186 C 
HETATM   13  O   UNL     1       6.678  -7.591  29.290  1.00  0.00    -0.206 OA
HETATM   14  O   UNL     1       6.359  -5.263  29.677  1.00  0.00    -0.206 OA
ENDBRANCH   9  11
ENDBRANCH   7   8
ENDBRANCH   1   7
BRANCH   1  15
HETATM   15  C   UNL     1       7.502  -3.545  24.134  1.00  0.00    -0.061 C 
BRANCH  15  16
HETATM   16  C   UNL     1       7.897  -2.311  23.946  1.00  0.00     0.290 C 
HETATM   17  O   UNL     1       7.322  -1.736  23.145  1.00  0.00    -0.259 OA
HETATM   18  N   UNL     1       8.946  -1.978  24.707  1.00  0.00    -0.315 N 
ATOM     19  HN  UNL     1       9.329  -2.653  25.369  1.00  0.00     0.170 HD
BRANCH  18  20
HETATM   20  C   UNL     1       9.459  -0.841  24.609  1.00  0.00     0.057 A 
HETATM   21  C   UNL     1       9.168   0.381  25.160  1.00  0.00     0.117 A 
HETATM   22  N   UNL     1       9.402   1.528  25.219  1.00  0.00    -0.373 N 
HETATM   23  C   UNL     1      10.448   1.657  24.409  1.00  0.00     0.088 A 
ATOM     24  HN  UNL     1       8.922   2.248  25.758  1.00  0.00     0.164 HD
HETATM   25  C   UNL     1      11.008   0.731  23.768  1.00  0.00     0.026 A 
HETATM   26  C   UNL     1      10.684  -0.591  23.731  1.00  0.00    -0.033 A 
HETATM   27  C   UNL     1      11.423  -1.746  22.960  1.00  0.00     0.050 C 
ENDBRANCH  18  20
ENDBRANCH  15  16
ENDBRANCH   1  15
TORSDOF 6
ENDMDL
MODEL 6
REMARK VINA RESULT:    -6.482     14.841     16.300
REMARK INTER + INTRA:          -9.900
REMARK INTER:                  -9.007
REMARK INTRA:                  -0.894
REMARK UNBOUND:                -1.145
REMARK  6 active torsions:
REMARK  status: ('A' for Active; 'I' for Inactive)
REMARK    1  A    between atoms: S_2  and  N_5 
REMARK    2  A    between atoms: C_7  and  C_8 
REMARK    3  A    between atoms: C_8  and  C_9 
REMARK    4  A    between atoms: C_9  and  C_15 
REMARK    5  A    between atoms: C_15  and  C_16 
REMARK       I    between atoms: C_16  and  N_18 
REMARK    6  A    between atoms: N_18  and  C_20 
ROOT
HETATM    1  C   UNL     1      23.087  -1.944  23.999  1.00  0.00     0.076 C 
HETATM    2  C   UNL     1      21.363  -1.605  24.128  1.00  0.00     0.003 C 
HETATM    3  C   UNL     1      21.015  -0.705  24.479  1.00  0.00    -0.002 C 
HETATM    4  C   UNL     1      21.736   0.442  25.019  1.00  0.00    -0.001 C 
HETATM    5  C   UNL     1      23.026   0.283  25.130  1.00  0.00    -0.002 C 
HETATM    6  C   UNL     1      23.723  -0.535  24.865  1.00  0.00     0.003 C 
ENDROOT
BRANCH   1   7
HETATM    7  C   UNL     1      23.669  -3.007  24.207  1.00  0.00     0.021 C 
BRANCH   7   8
HETATM    8  C   UNL     1      23.718  -4.214  24.297  1.00  0.00     0.098 C 
HETATM    9  N   UNL     1      23.413  -5.284  24.787  1.00  0.00    -0.296 N 
ATOM     10  HN  UNL     1      22.437  -5.409  25.056  1.00  0.00     0.177 HD
BRANCH   9  11
HETATM   11  S   UNL     1      24.406  -6.525  25.051  1.00  0.00     0.226 S 
HETATM   12  C   UNL     1      25.964  -5.883  25.178  1.00  0.00     0.186 C 
HETATM   13  O   UNL     1      24.079  -7.146  26.311  1.00  0.00    -0.206 OA
HETATM   14  O   UNL     1      24.403  -7.506  23.980  1.00  0.00    -0.206 OA
ENDBRANCH   9  11
ENDBRANCH   7   8
ENDBRANCH   1   7
BRANCH   1  15
HETATM   15  C   UNL     1      23.434  -1.757  22.835  1.00  0.00    -0.061 C 
BRANCH  15  16
HETATM   16  C   UNL     1      23.804  -1.495  21.606  1.00  0.00     0.290 C 
HETATM   17  O   UNL     1      24.735  -0.840  21.512  1.00  0.00    -0.259 OA
HETATM   18  N   UNL     1      22.977  -2.013  20.691  1.00  0.00    -0.315 N 
ATOM     19  HN  UNL     1      22.178  -2.573  20.987  1.00  0.00     0.170 HD
BRANCH  18  20
HETATM   20  C   UNL     1      23.181  -1.813  19.473  1.00  0.00     0.057 A 
HETATM   21  C   UNL     1      22.840  -0.806  18.607  1.00  0.00     0.117 A 
HETATM   22  N   UNL     1      22.836  -0.394  17.510  1.00  0.00    -0.373 N 
HETATM   23  C   UNL     1      23.507  -1.328  16.843  1.00  0.00     0.088 A 
ATOM     24  HN  UNL     1      22.421   0.467  17.154  1.00  0.00     0.164 HD
HETATM   25  C   UNL     1      24.005  -2.374  17.332  1.00  0.00     0.026 A 
HETATM   26  C   UNL     1      23.970  -2.807  18.623  1.00  0.00    -0.033 A 
HETATM   27  C   UNL     1      24.637  -4.097  19.228  1.00  0.00     0.050 C 
ENDBRANCH  18  20
ENDBRANCH  15  16
ENDBRANCH   1  15
TORSDOF 6
ENDMDL
MODEL 7
REMARK VINA RESULT:    -6.446      2.690      6.022
REMARK INTER + INTRA:          -9.852
REMARK INTER:                  -8.996
REMARK INTRA:                  -0.857
REMARK UNBOUND:                -1.145
REMARK  6 active torsions:
REMARK  status: ('A' for Active; 'I' for Inactive)
REMARK    1  A    between atoms: S_2  and  N_5 
REMARK    2  A    between atoms: C_7  and  C_8 
REMARK    3  A    between atoms: C_8  and  C_9 
REMARK    4  A    between atoms: C_9  and  C_15 
REMARK    5  A    between atoms: C_15  and  C_16 
REMARK       I    between atoms: C_16  and  N_18 
REMARK    6  A    between atoms: N_18  and  C_20 
ROOT
HETATM    1  C   UNL     1       7.767   0.375  20.850  1.00  0.00     0.076 C 
HETATM    2  C   UNL     1       6.264   1.271  21.054  1.00  0.00     0.003 C 
HETATM    3  C   UNL     1       5.570   1.339  20.300  1.00  0.00    -0.002 C 
HETATM    4  C   UNL     1       5.617   0.856  18.926  1.00  0.00    -0.001 C 
HETATM    5  C   UNL     1       6.741   0.295  18.573  1.00  0.00    -0.002 C 
HETATM    6  C   UNL     1       7.683   0.064  19.107  1.00  0.00     0.003 C 
ENDROOT
BRANCH   1   7
HETATM    7  C   UNL     1       8.881   0.651  21.290  1.00  0.00     0.021 C 
BRANCH   7   8
HETATM    8  C   UNL     1       9.729   0.667  22.155  1.00  0.00     0.098 C 
HETATM    9  N   UNL     1      10.873   0.742  22.560  1.00  0.00    -0.296 N 
ATOM     10  HN  UNL     1      11.485   1.414  22.095  1.00  0.00     0.177 HD
BRANCH   9  11
HETATM   11  S   UNL     1      11.515  -0.118  23.761  1.00  0.00     0.226 S 
HETATM   12  C   UNL     1      12.025  -1.583  23.090  1.00  0.00     0.186 C 
HETATM   13  O   UNL     1      12.678   0.562  24.276  1.00  0.00    -0.206 OA
HETATM   14  O   UNL     1      10.576  -0.409  24.830  1.00  0.00    -0.206 OA
ENDBRANCH   9  11
ENDBRANCH   7   8
ENDBRANCH   1   7
BRANCH   1  15
HETATM   15  C   UNL     1       7.629  -0.737  21.356  1.00  0.00    -0.061 C 
BRANCH  15  16
HETATM   16  C   UNL     1       7.420  -1.905  21.909  1.00  0.00     0.290 C 
HETATM   17  O   UNL     1       8.360  -2.444  22.269  1.00  0.00    -0.259 OA
HETATM   18  N   UNL     1       6.131  -2.264  21.899  1.00  0.00    -0.315 N 
ATOM     19  HN  UNL     1       5.430  -1.630  21.515  1.00  0.00     0.170 HD
BRANCH  18  20
HETATM   20  C   UNL     1       5.782  -3.373  22.360  1.00  0.00     0.057 A 
HETATM   21  C   UNL     1       5.744  -4.644  21.846  1.00  0.00     0.117 A 
HETATM   22  N   UNL     1       5.450  -5.769  21.991  1.00  0.00    -0.373 N 
HETATM   23  C   UNL     1       4.988  -5.793  23.238  1.00  0.00     0.088 A 
ATOM     24  HN  UNL     1       5.529  -6.539  21.327  1.00  0.00     0.164 HD
HETATM   25  C   UNL     1       4.916  -4.812  24.020  1.00  0.00     0.026 A 
HETATM   26  C   UNL     1       5.268  -3.516  23.791  1.00  0.00    -0.033 A 
HETATM   27  C   UNL     1       5.215  -2.308  24.797  1.00  0.00     0.050 C 
ENDBRANCH  18  20
ENDBRANCH  15  16
ENDBRANCH   1  15
TORSDOF 6
ENDMDL
MODEL 8
REMARK VINA RESULT:    -6.242      3.294      6.199
REMARK INTER + INTRA:          -9.577
REMARK INTER:                  -8.627
REMARK INTRA:                  -0.950
REMARK UNBOUND:                -1.145
REMARK  6 active torsions:
REMARK  status: ('A' for Active; 'I' for Inactive)
REMARK    1  A    between atoms: S_2  and  N_5 
REMARK    2  A    between atoms: C_7  and  C_8 
REMARK    3  A    between atoms: C_8  and  C_9 
REMARK    4  A    between atoms: C_9  and  C_15 
REMARK    5  A    between atoms: C_15  and  C_16 
REMARK       I    between atoms: C_16  and  N_18 
REMARK    6  A    between atoms: N_18  and  C_20 
ROOT
HETATM    1  C   UNL     1       7.836   3.201  23.179  1.00  0.00     0.076 C 
HETATM    2  C   UNL     1       8.179   4.908  22.912  1.00  0.00     0.003 C 
HETATM    3  C   UNL     1       8.408   5.540  23.688  1.00  0.00    -0.002 C 
HETATM    4  C   UNL     1       8.439   5.300  25.126  1.00  0.00    -0.001 C 
HETATM    5  C   UNL     1       8.058   4.108  25.496  1.00  0.00    -0.002 C 
HETATM    6  C   UNL     1       7.743   3.199  24.949  1.00  0.00     0.003 C 
ENDROOT
BRANCH   1   7
HETATM    7  C   UNL     1       7.015   2.492  22.601  1.00  0.00     0.021 C 
BRANCH   7   8
HETATM    8  C   UNL     1       6.544   1.964  21.616  1.00  0.00     0.098 C 
HETATM    9  N   UNL     1       5.873   1.129  21.043  1.00  0.00    -0.296 N 
ATOM     10  HN  UNL     1       4.986   0.870  21.477  1.00  0.00     0.177 HD
BRANCH   9  11
HETATM   11  S   UNL     1       6.250   0.391  19.661  1.00  0.00     0.226 S 
HETATM   12  C   UNL     1       5.558   1.304  18.418  1.00  0.00     0.186 C 
HETATM   13  O   UNL     1       7.681   0.408  19.479  1.00  0.00    -0.206 OA
HETATM   14  O   UNL     1       5.738  -0.965  19.571  1.00  0.00    -0.206 OA
ENDBRANCH   9  11
ENDBRANCH   7   8
ENDBRANCH   1   7
BRANCH   1  15
HETATM   15  C   UNL     1       8.854   2.557  22.936  1.00  0.00    -0.061 C 
BRANCH  15  16
HETATM   16  C   UNL     1       9.935   1.844  22.736  1.00  0.00     0.290 C 
HETATM   17  O   UNL     1      10.502   2.087  21.776  1.00  0.00    -0.259 OA
HETATM   18  N   UNL     1      10.136   0.925  23.687  1.00  0.00    -0.315 N 
ATOM     19  HN  UNL     1       9.494   0.862  24.477  1.00  0.00     0.170 HD
BRANCH  18  20
HETATM   20  C   UNL     1      11.110   0.144  23.611  1.00  0.00     0.057 A 
HETATM   21  C   UNL     1      12.388   0.169  24.109  1.00  0.00     0.117 A 
HETATM   22  N   UNL     1      13.445  -0.333  24.165  1.00  0.00    -0.373 N 
HETATM   23  C   UNL     1      13.284  -1.439  23.446  1.00  0.00     0.088 A 
ATOM     24  HN  UNL     1      14.282  -0.003  24.645  1.00  0.00     0.164 HD
HETATM   25  C   UNL     1      12.225  -1.804  22.874  1.00  0.00     0.026 A 
HETATM   26  C   UNL     1      11.019  -1.171  22.837  1.00  0.00    -0.033 A 
HETATM   27  C   UNL     1       9.689  -1.663  22.156  1.00  0.00     0.050 C 
ENDBRANCH  18  20
ENDBRANCH  15  16
ENDBRANCH   1  15
TORSDOF 6
ENDMDL
MODEL 9
REMARK VINA RESULT:    -5.808     24.220     27.667
REMARK INTER + INTRA:          -8.991
REMARK INTER:                  -8.087
REMARK INTRA:                  -0.904
REMARK UNBOUND:                -1.145
REMARK  6 active torsions:
REMARK  status: ('A' for Active; 'I' for Inactive)
REMARK    1  A    between atoms: S_2  and  N_5 
REMARK    2  A    between atoms: C_7  and  C_8 
REMARK    3  A    between atoms: C_8  and  C_9 
REMARK    4  A    between atoms: C_9  and  C_15 
REMARK    5  A    between atoms: C_15  and  C_16 
REMARK       I    between atoms: C_16  and  N_18 
REMARK    6  A    between atoms: N_18  and  C_20 
ROOT
HETATM    1  C   UNL     1       8.642  18.467   1.168  1.00  0.00     0.076 C 
HETATM    2  C   UNL     1       8.641  19.537  -0.231  1.00  0.00     0.003 C 
HETATM    3  C   UNL     1       7.960  20.299  -0.327  1.00  0.00    -0.002 C 
HETATM    4  C   UNL     1       6.828  20.666   0.515  1.00  0.00    -0.001 C 
HETATM    5  C   UNL     1       6.604  19.867   1.522  1.00  0.00    -0.002 C 
HETATM    6  C   UNL     1       7.116  18.968   1.916  1.00  0.00     0.003 C 
ENDROOT
BRANCH   1   7
HETATM    7  C   UNL     1       8.883  17.262   1.202  1.00  0.00     0.021 C 
BRANCH   7   8
HETATM    8  C   UNL     1       9.103  16.218   1.778  1.00  0.00     0.098 C 
HETATM    9  N   UNL     1       8.836  15.328   2.561  1.00  0.00    -0.296 N 
ATOM     10  HN  UNL     1       7.863  15.022   2.600  1.00  0.00     0.177 HD
BRANCH   9  11
HETATM   11  S   UNL     1       9.873  14.583   3.544  1.00  0.00     0.226 S 
HETATM   12  C   UNL     1       9.788  15.378   5.033  1.00  0.00     0.186 C 
HETATM   13  O   UNL     1       9.454  13.218   3.745  1.00  0.00    -0.206 OA
HETATM   14  O   UNL     1      11.248  14.634   3.078  1.00  0.00    -0.206 OA
ENDBRANCH   9  11
ENDBRANCH   7   8
ENDBRANCH   1   7
BRANCH   1  15
HETATM   15  C   UNL     1       9.500  18.858   1.957  1.00  0.00    -0.061 C 
BRANCH  15  16
HETATM   16  C   UNL     1      10.460  19.249   2.758  1.00  0.00     0.290 C 
HETATM   17  O   UNL     1      11.442  19.515   2.241  1.00  0.00    -0.259 OA
HETATM   18  N   UNL     1      10.108  19.213   4.049  1.00  0.00    -0.315 N 
ATOM     19  HN  UNL     1       9.163  18.932   4.311  1.00  0.00     0.170 HD
BRANCH  18  20
HETATM   20  C   UNL     1      10.934  19.524   4.935  1.00  0.00     0.057 A 
HETATM   21  C   UNL     1      11.868  18.819   5.651  1.00  0.00     0.117 A 
HETATM   22  N   UNL     1      12.674  18.811   6.501  1.00  0.00    -0.373 N 
HETATM   23  C   UNL     1      12.694  20.080   6.897  1.00  0.00     0.088 A 
ATOM     24  HN  UNL     1      13.223  18.026   6.851  1.00  0.00     0.164 HD
HETATM   25  C   UNL     1      11.996  21.014   6.428  1.00  0.00     0.026 A 
HETATM   26  C   UNL     1      11.062  20.961   5.438  1.00  0.00    -0.033 A 
HETATM   27  C   UNL     1      10.229  22.149   4.830  1.00  0.00     0.050 C 
ENDBRANCH  18  20
ENDBRANCH  15  16
ENDBRANCH   1  15
TORSDOF 6
ENDMDL
