MODEL 1
REMARK VINA RESULT:    -6.090      0.000      0.000
REMARK INTER + INTRA:          -9.144
REMARK INTER:                  -8.227
REMARK INTRA:                  -0.917
REMARK UNBOUND:                -0.917
REMARK  6 active torsions:
REMARK  status: ('A' for Active; 'I' for Inactive)
REMARK    1  A    between atoms: C_2  and  N_3 
REMARK    2  A    between atoms: N_3  and  N_5 
REMARK    3  A    between atoms: N_7  and  C_11 
REMARK    4  A    between atoms: C_9  and  C_12 
REMARK    5  A    between atoms: C_13  and  N_15 
REMARK    6  A    between atoms: N_15  and  C_18 
ROOT
HETATM    1  C   UNL     1       7.609  15.323   2.433  1.00  0.00     0.140 A 
HETATM    2  C   UNL     1       6.623  14.570   2.885  1.00  0.00     0.183 A 
HETATM    3  O   UNL     1       6.608  15.478   3.590  1.00  0.00    -0.286 OA
ENDROOT
BRANCH   1   4
HETATM    4  C   UNL     1       8.585  15.848   1.777  1.00  0.00     0.010 C 
HETATM    5  C   UNL     1       9.543  15.010   1.561  1.00  0.00     0.122 C 
HETATM    6  C   UNL     1       8.696  17.091   1.231  1.00  0.00     0.028 C 
BRANCH   5   7
HETATM    7  N   UNL     1      10.080  14.407   2.636  1.00  0.00    -0.297 N 
HETATM    8  N   UNL     1      11.077  14.693   3.313  1.00  0.00    -0.245 N 
ATOM      9  HN  UNL     1      11.888  15.013   2.783  1.00  0.00     0.208 HD
ATOM     10  HN  UNL     1       9.583  13.573   2.947  1.00  0.00     0.187 HD
BRANCH   8  11
HETATM   11  N   UNL     1      11.240  14.645   4.599  1.00  0.00    -0.294 N 
ATOM     12  HN  UNL     1      11.831  13.923   5.010  1.00  0.00     0.184 HD
BRANCH  11  13
HETATM   13  C   UNL     1      10.606  15.581   5.422  1.00  0.00     0.363 C 
HETATM   14  F   UNL     1       9.308  15.298   5.460  1.00  0.00    -0.233 F 
ENDBRANCH  11  13
ENDBRANCH   8  11
ENDBRANCH   5   7
ENDBRANCH   1   4
BRANCH   2  15
HETATM   15  N   UNL     1       5.962  13.392   2.557  1.00  0.00    -0.343 N 
ATOM     16  HN  UNL     1       5.245  12.982   3.154  1.00  0.00     0.167 HD
BRANCH  15  17
HETATM   17  C   UNL     1       6.275  12.926   1.587  1.00  0.00     0.116 C 
HETATM   18  C   UNL     1       6.681  11.784   1.065  1.00  0.00     0.057 A 
HETATM   19  N   UNL     1       6.968  10.947   0.206  1.00  0.00    -0.249 NA
HETATM   20  C   UNL     1       6.812  11.018   1.928  1.00  0.00     0.068 A 
HETATM   21  H   UNL     1       7.453  10.300  -0.178  1.00  0.00     0.134 HD
HETATM   22  C   UNL     1       6.685  10.876   3.039  1.00  0.00    -0.020 C 
ENDBRANCH  15  17
ENDBRANCH   2  15
TORSDOF 6
ENDMDL
MODEL 2
REMARK VINA RESULT:    -5.868      2.182      2.786
REMARK INTER + INTRA:          -8.843
REMARK INTER:                  -8.096
REMARK INTRA:                  -0.747
REMARK UNBOUND:                -0.917
REMARK  6 active torsions:
REMARK  status: ('A' for Active; 'I' for Inactive)
REMARK    1  A    between atoms: C_2  and  N_3 
REMARK    2  A    between atoms: N_3  and  N_5 
REMARK    3  A    between atoms: N_7  and  C_11 
REMARK    4  A    between atoms: C_9  and  C_12 
REMARK    5  A    between atoms: C_13  and  N_15 
REMARK    6  A    between atoms: N_15  and  C_18 
ROOT
HETATM    1  C   UNL     1       7.716  12.447   3.584  1.00  0.00     0.140 A 
HETATM    2  C   UNL     1       7.531  11.183   3.917  1.00  0.00     0.183 A 
HETATM    3  O   UNL     1       8.506  11.459   4.459  1.00  0.00    -0.286 OA
ENDROOT
BRANCH   1   4
HETATM    4  C   UNL     1       7.630  13.647   3.125  1.00  0.00     0.010 C 
HETATM    5  C   UNL     1       8.669  13.991   2.440  1.00  0.00     0.122 C 
HETATM    6  C   UNL     1       6.596  14.530   3.192  1.00  0.00     0.028 C 
BRANCH   5   7
HETATM    7  N   UNL     1       9.862  13.897   3.052  1.00  0.00    -0.297 N 
HETATM    8  N   UNL     1      10.852  14.640   3.019  1.00  0.00    -0.245 N 
ATOM      9  HN  UNL     1      11.079  15.024   2.102  1.00  0.00     0.208 HD
ATOM     10  HN  UNL     1       9.971  13.074   3.645  1.00  0.00     0.187 HD
BRANCH   8  11
HETATM   11  N   UNL     1      11.642  15.001   3.982  1.00  0.00    -0.294 N 
ATOM     12  HN  UNL     1      12.595  14.641   4.021  1.00  0.00     0.184 HD
BRANCH  11  13
HETATM   13  C   UNL     1      11.189  15.885   4.967  1.00  0.00     0.363 C 
HETATM   14  F   UNL     1      10.698  15.175   5.977  1.00  0.00    -0.233 F 
ENDBRANCH  11  13
ENDBRANCH   8  11
ENDBRANCH   5   7
ENDBRANCH   1   4
BRANCH   2  15
HETATM   15  N   UNL     1       6.585  10.177   3.750  1.00  0.00    -0.343 N 
ATOM     16  HN  UNL     1       6.372   9.499   4.481  1.00  0.00     0.167 HD
BRANCH  15  17
HETATM   17  C   UNL     1       6.074  10.167   2.753  1.00  0.00     0.116 C 
HETATM   18  C   UNL     1       4.886  10.034   2.193  1.00  0.00     0.057 A 
HETATM   19  N   UNL     1       4.012  10.063   1.324  1.00  0.00    -0.249 NA
HETATM   20  C   UNL     1       4.120   9.779   3.028  1.00  0.00     0.068 A 
HETATM   21  H   UNL     1       3.308   9.763   0.860  1.00  0.00     0.134 HD
HETATM   22  C   UNL     1       4.007   9.643   4.142  1.00  0.00    -0.020 C 
ENDBRANCH  15  17
ENDBRANCH   2  15
TORSDOF 6
ENDMDL
MODEL 3
REMARK VINA RESULT:    -5.588     23.450     25.251
REMARK INTER + INTRA:          -8.465
REMARK INTER:                  -7.857
REMARK INTRA:                  -0.608
REMARK UNBOUND:                -0.917
REMARK  6 active torsions:
REMARK  status: ('A' for Active; 'I' for Inactive)
REMARK    1  A    between atoms: C_2  and  N_3 
REMARK    2  A    between atoms: N_3  and  N_5 
REMARK    3  A    between atoms: N_7  and  C_11 
REMARK    4  A    between atoms: C_9  and  C_12 
REMARK    5  A    between atoms: C_13  and  N_15 
REMARK    6  A    between atoms: N_15  and  C_18 
ROOT
HETATM    1  C   UNL     1      11.081   0.744  22.975  1.00  0.00     0.140 A 
HETATM    2  C   UNL     1      10.499   1.882  22.648  1.00  0.00     0.183 A 
HETATM    3  O   UNL     1      10.048   1.132  21.903  1.00  0.00    -0.286 OA
ENDROOT
BRANCH   1   4
HETATM    4  C   UNL     1      11.767  -0.203  23.516  1.00  0.00     0.010 C 
HETATM    5  C   UNL     1      11.460  -1.366  23.047  1.00  0.00     0.122 C 
HETATM    6  C   UNL     1      12.787  -0.131  24.415  1.00  0.00     0.028 C 
BRANCH   5   7
HETATM    7  N   UNL     1      10.169  -1.733  23.122  1.00  0.00    -0.297 N 
HETATM    8  N   UNL     1       9.390  -2.144  22.251  1.00  0.00    -0.245 N 
ATOM      9  HN  UNL     1       9.457  -1.672  21.349  1.00  0.00     0.208 HD
ATOM     10  HN  UNL     1       9.762  -1.662  24.054  1.00  0.00     0.187 HD
BRANCH   8  11
HETATM   11  N   UNL     1       8.502  -3.086  22.319  1.00  0.00    -0.294 N 
ATOM     12  HN  UNL     1       8.177  -3.542  21.467  1.00  0.00     0.184 HD
BRANCH  11  13
HETATM   13  C   UNL     1       7.989  -3.478  23.560  1.00  0.00     0.363 C 
HETATM   14  F   UNL     1       8.429  -4.703  23.829  1.00  0.00    -0.233 F 
ENDBRANCH  11  13
ENDBRANCH   8  11
ENDBRANCH   5   7
ENDBRANCH   1   4
BRANCH   2  15
HETATM   15  N   UNL     1      10.440   3.200  23.089  1.00  0.00    -0.343 N 
ATOM     16  HN  UNL     1       9.560   3.707  23.181  1.00  0.00     0.167 HD
BRANCH  15  17
HETATM   17  C   UNL     1      11.429   3.663  23.337  1.00  0.00     0.116 C 
HETATM   18  C   UNL     1      11.977   4.792  23.742  1.00  0.00     0.057 A 
HETATM   19  N   UNL     1      12.833   5.568  24.175  1.00  0.00    -0.249 NA
HETATM   20  C   UNL     1      11.142   5.597  23.804  1.00  0.00     0.068 A 
HETATM   21  H   UNL     1      13.299   6.331  24.221  1.00  0.00     0.134 HD
HETATM   22  C   UNL     1      10.034   5.762  23.684  1.00  0.00    -0.020 C 
ENDBRANCH  15  17
ENDBRANCH   2  15
TORSDOF 6
ENDMDL
MODEL 4
REMARK VINA RESULT:    -5.583     22.821     24.445
REMARK INTER + INTRA:          -8.458
REMARK INTER:                  -7.792
REMARK INTRA:                  -0.666
REMARK UNBOUND:                -0.917
REMARK  6 active torsions:
REMARK  status: ('A' for Active; 'I' for Inactive)
REMARK    1  A    between atoms: C_2  and  N_3 
REMARK    2  A    between atoms: N_3  and  N_5 
REMARK    3  A    between atoms: N_7  and  C_11 
REMARK    4  A    between atoms: C_9  and  C_12 
REMARK    5  A    between atoms: C_13  and  N_15 
REMARK    6  A    between atoms: N_15  and  C_18 
ROOT
HETATM    1  C   UNL     1       8.464  -0.134  22.246  1.00  0.00     0.140 A 
HETATM    2  C   UNL     1       7.451   0.455  21.638  1.00  0.00     0.183 A 
HETATM    3  O   UNL     1       7.072   0.322  22.715  1.00  0.00    -0.286 OA
ENDROOT
BRANCH   1   4
HETATM    4  C   UNL     1       9.589  -0.667  22.575  1.00  0.00     0.010 C 
HETATM    5  C   UNL     1       9.639  -1.928  22.300  1.00  0.00     0.122 C 
HETATM    6  C   UNL     1      10.714  -0.083  23.072  1.00  0.00     0.028 C 
BRANCH   5   7
HETATM    7  N   UNL     1       8.676  -2.705  22.825  1.00  0.00    -0.297 N 
HETATM    8  N   UNL     1       8.170  -3.759  22.415  1.00  0.00    -0.245 N 
ATOM      9  HN  UNL     1       7.992  -3.796  21.411  1.00  0.00     0.208 HD
ATOM     10  HN  UNL     1       8.298  -2.371  23.711  1.00  0.00     0.187 HD
BRANCH   8  11
HETATM   11  N   UNL     1       7.833  -4.822  23.078  1.00  0.00    -0.294 N 
ATOM     12  HN  UNL     1       8.103  -4.918  24.056  1.00  0.00     0.184 HD
BRANCH  11  13
HETATM   13  C   UNL     1       7.100  -5.835  22.452  1.00  0.00     0.363 C 
HETATM   14  F   UNL     1       7.136  -5.634  21.140  1.00  0.00    -0.233 F 
ENDBRANCH  11  13
ENDBRANCH   8  11
ENDBRANCH   5   7
ENDBRANCH   1   4
BRANCH   2  15
HETATM   15  N   UNL     1       7.141   1.002  20.398  1.00  0.00    -0.343 N 
ATOM     16  HN  UNL     1       7.090   2.009  20.242  1.00  0.00     0.167 HD
BRANCH  15  17
HETATM   17  C   UNL     1       6.952   0.257  19.584  1.00  0.00     0.116 C 
HETATM   18  C   UNL     1       6.107  -0.030  18.612  1.00  0.00     0.057 A 
HETATM   19  N   UNL     1       5.656  -0.570  17.599  1.00  0.00    -0.249 NA
HETATM   20  C   UNL     1       5.225   0.724  18.665  1.00  0.00     0.068 A 
HETATM   21  H   UNL     1       5.034  -0.959  17.085  1.00  0.00     0.134 HD
HETATM   22  C   UNL     1       4.843   1.632  19.213  1.00  0.00    -0.020 C 
ENDBRANCH  15  17
ENDBRANCH   2  15
TORSDOF 6
ENDMDL
MODEL 5
REMARK VINA RESULT:    -5.569     22.537     24.302
REMARK INTER + INTRA:          -8.439
REMARK INTER:                  -7.886
REMARK INTRA:                  -0.553
REMARK UNBOUND:                -0.917
REMARK  6 active torsions:
REMARK  status: ('A' for Active; 'I' for Inactive)
REMARK    1  A    between atoms: C_2  and  N_3 
REMARK    2  A    between atoms: N_3  and  N_5 
REMARK    3  A    between atoms: N_7  and  C_11 
REMARK    4  A    between atoms: C_9  and  C_12 
REMARK    5  A    between atoms: C_13  and  N_15 
REMARK    6  A    between atoms: N_15  and  C_18 
ROOT
HETATM    1  C   UNL     1       8.857   0.730  21.874  1.00  0.00     0.140 A 
HETATM    2  C   UNL     1       9.904  -0.046  22.080  1.00  0.00     0.183 A 
HETATM    3  O   UNL     1      10.144   0.461  21.077  1.00  0.00    -0.286 OA
ENDROOT
BRANCH   1   4
HETATM    4  C   UNL     1       7.754   1.391  21.946  1.00  0.00     0.010 C 
HETATM    5  C   UNL     1       6.720   0.622  22.026  1.00  0.00     0.122 C 
HETATM    6  C   UNL     1       7.551   2.735  22.033  1.00  0.00     0.028 C 
BRANCH   5   7
HETATM    7  N   UNL     1       6.560  -0.289  21.050  1.00  0.00    -0.297 N 
HETATM    8  N   UNL     1       5.603  -0.511  20.296  1.00  0.00    -0.245 N 
ATOM      9  HN  UNL     1       4.682  -0.459  20.733  1.00  0.00     0.208 HD
ATOM     10  HN  UNL     1       7.364  -0.900  20.905  1.00  0.00     0.187 HD
BRANCH   8  11
HETATM   11  N   UNL     1       5.601  -0.802  19.032  1.00  0.00    -0.294 N 
ATOM     12  HN  UNL     1       5.529  -1.774  18.733  1.00  0.00     0.184 HD
BRANCH  11  13
HETATM   13  C   UNL     1       5.698   0.216  18.078  1.00  0.00     0.363 C 
HETATM   14  F   UNL     1       6.911   0.751  18.154  1.00  0.00    -0.233 F 
ENDBRANCH  11  13
ENDBRANCH   8  11
ENDBRANCH   5   7
ENDBRANCH   1   4
BRANCH   2  15
HETATM   15  N   UNL     1      10.410  -0.895  23.058  1.00  0.00    -0.343 N 
ATOM     16  HN  UNL     1       9.987  -0.979  23.982  1.00  0.00     0.167 HD
BRANCH  15  17
HETATM   17  C   UNL     1      11.317  -1.480  22.757  1.00  0.00     0.116 C 
HETATM   18  C   UNL     1      12.600  -1.623  23.028  1.00  0.00     0.057 A 
HETATM   19  N   UNL     1      13.729  -2.120  23.032  1.00  0.00    -0.249 NA
HETATM   20  C   UNL     1      12.896  -0.817  23.810  1.00  0.00     0.068 A 
HETATM   21  H   UNL     1      14.623  -2.123  22.988  1.00  0.00     0.134 HD
HETATM   22  C   UNL     1      12.487   0.015  24.452  1.00  0.00    -0.020 C 
ENDBRANCH  15  17
ENDBRANCH   2  15
TORSDOF 6
ENDMDL
MODEL 6
REMARK VINA RESULT:    -5.536      3.515      4.617
REMARK INTER + INTRA:          -8.395
REMARK INTER:                  -7.900
REMARK INTRA:                  -0.495
REMARK UNBOUND:                -0.917
REMARK  6 active torsions:
REMARK  status: ('A' for Active; 'I' for Inactive)
REMARK    1  A    between atoms: C_2  and  N_3 
REMARK    2  A    between atoms: N_3  and  N_5 
REMARK    3  A    between atoms: N_7  and  C_11 
REMARK    4  A    between atoms: C_9  and  C_12 
REMARK    5  A    between atoms: C_13  and  N_15 
REMARK    6  A    between atoms: N_15  and  C_18 
ROOT
HETATM    1  C   UNL     1       9.567  18.815   1.317  1.00  0.00     0.140 A 
HETATM    2  C   UNL     1       9.275  17.601   0.888  1.00  0.00     0.183 A 
HETATM    3  O   UNL     1       9.904  18.040   0.032  1.00  0.00    -0.286 OA
ENDROOT
BRANCH   1   4
HETATM    4  C   UNL     1       9.712  19.906   1.986  1.00  0.00     0.010 C 
HETATM    5  C   UNL     1      10.933  20.323   1.992  1.00  0.00     0.122 C 
HETATM    6  C   UNL     1       8.772  20.687   2.586  1.00  0.00     0.028 C 
BRANCH   5   7
HETATM    7  N   UNL     1      11.868  19.468   2.442  1.00  0.00    -0.297 N 
HETATM    8  N   UNL     1      12.752  19.609   3.298  1.00  0.00    -0.245 N 
ATOM      9  HN  UNL     1      13.231  20.509   3.287  1.00  0.00     0.208 HD
ATOM     10  HN  UNL     1      11.846  18.547   2.004  1.00  0.00     0.187 HD
BRANCH   8  11
HETATM   11  N   UNL     1      13.156  18.777   4.207  1.00  0.00    -0.294 N 
ATOM     12  HN  UNL     1      13.756  17.993   3.949  1.00  0.00     0.184 HD
BRANCH  11  13
HETATM   13  C   UNL     1      12.772  18.953   5.540  1.00  0.00     0.363 C 
HETATM   14  F   UNL     1      13.861  18.926   6.300  1.00  0.00    -0.233 F 
ENDBRANCH  11  13
ENDBRANCH   8  11
ENDBRANCH   5   7
ENDBRANCH   1   4
BRANCH   2  15
HETATM   15  N   UNL     1       8.642  16.448   1.339  1.00  0.00    -0.343 N 
ATOM     16  HN  UNL     1       7.635  16.309   1.257  1.00  0.00     0.167 HD
BRANCH  15  17
HETATM   17  C   UNL     1       9.319  15.683   1.798  1.00  0.00     0.116 C 
HETATM   18  C   UNL     1       9.305  14.596   2.546  1.00  0.00     0.057 A 
HETATM   19  N   UNL     1       9.711  13.568   3.093  1.00  0.00    -0.249 NA
HETATM   20  C   UNL     1       8.212  14.409   2.891  1.00  0.00     0.068 A 
HETATM   21  H   UNL     1       9.814  12.981   3.762  1.00  0.00     0.134 HD
HETATM   22  C   UNL     1       7.155  14.788   2.794  1.00  0.00    -0.020 C 
ENDBRANCH  15  17
ENDBRANCH   2  15
TORSDOF 6
ENDMDL
MODEL 7
REMARK VINA RESULT:    -5.452     32.331     33.799
REMARK INTER + INTRA:          -8.281
REMARK INTER:                  -7.756
REMARK INTRA:                  -0.525
REMARK UNBOUND:                -0.917
REMARK  6 active torsions:
REMARK  status: ('A' for Active; 'I' for Inactive)
REMARK    1  A    between atoms: C_2  and  N_3 
REMARK    2  A    between atoms: N_3  and  N_5 
REMARK    3  A    between atoms: N_7  and  C_11 
REMARK    4  A    between atoms: C_9  and  C_12 
REMARK    5  A    between atoms: C_13  and  N_15 
REMARK    6  A    between atoms: N_15  and  C_18 
ROOT
HETATM    1  C   UNL     1      -0.806 -17.536   9.245  1.00  0.00     0.140 A 
HETATM    2  C   UNL     1      -0.369 -18.775   9.370  1.00  0.00     0.183 A 
HETATM    3  O   UNL     1      -1.510 -18.887   9.450  1.00  0.00    -0.286 OA
ENDROOT
BRANCH   1   4
HETATM    4  C   UNL     1      -0.941 -16.267   9.074  1.00  0.00     0.010 C 
HETATM    5  C   UNL     1      -0.508 -15.583  10.079  1.00  0.00     0.122 C 
HETATM    6  C   UNL     1      -1.383 -15.579   7.984  1.00  0.00     0.028 C 
BRANCH   5   7
HETATM    7  N   UNL     1      -1.033 -15.868  11.283  1.00  0.00    -0.297 N 
HETATM    8  N   UNL     1      -0.496 -16.240  12.336  1.00  0.00    -0.245 N 
ATOM      9  HN  UNL     1       0.249 -16.928  12.226  1.00  0.00     0.208 HD
ATOM     10  HN  UNL     1      -2.045 -15.760  11.340  1.00  0.00     0.187 HD
BRANCH   8  11
HETATM   11  N   UNL     1      -0.744 -15.881  13.557  1.00  0.00    -0.294 N 
ATOM     12  HN  UNL     1      -0.366 -15.004  13.916  1.00  0.00     0.184 HD
BRANCH  11  13
HETATM   13  C   UNL     1      -1.527 -16.693  14.382  1.00  0.00     0.363 C 
HETATM   14  F   UNL     1      -1.166 -16.487  15.643  1.00  0.00    -0.233 F 
ENDBRANCH  11  13
ENDBRANCH   8  11
ENDBRANCH   5   7
ENDBRANCH   1   4
BRANCH   2  15
HETATM   15  N   UNL     1       0.828 -19.481   9.311  1.00  0.00    -0.343 N 
ATOM     16  HN  UNL     1       0.860 -20.496   9.213  1.00  0.00     0.167 HD
BRANCH  15  17
HETATM   17  C   UNL     1       1.753 -18.854   9.380  1.00  0.00     0.116 C 
HETATM   18  C   UNL     1       3.059 -18.901   9.195  1.00  0.00     0.057 A 
HETATM   19  N   UNL     1       4.219 -18.505   9.060  1.00  0.00    -0.249 NA
HETATM   20  C   UNL     1       3.346 -19.993   8.924  1.00  0.00     0.068 A 
HETATM   21  H   UNL     1       5.106 -18.511   9.181  1.00  0.00     0.134 HD
HETATM   22  C   UNL     1       2.920 -21.018   8.723  1.00  0.00    -0.020 C 
ENDBRANCH  15  17
ENDBRANCH   2  15
TORSDOF 6
ENDMDL
MODEL 8
REMARK VINA RESULT:    -5.451      5.281      7.803
REMARK INTER + INTRA:          -8.280
REMARK INTER:                  -7.546
REMARK INTRA:                  -0.734
REMARK UNBOUND:                -0.917
REMARK  6 active torsions:
REMARK  status: ('A' for Active; 'I' for Inactive)
REMARK    1  A    between atoms: C_2  and  N_3 
REMARK    2  A    between atoms: N_3  and  N_5 
REMARK    3  A    between atoms: N_7  and  C_11 
REMARK    4  A    between atoms: C_9  and  C_12 
REMARK    5  A    between atoms: C_13  and  N_15 
REMARK    6  A    between atoms: N_15  and  C_18 
ROOT
HETATM    1  C   UNL     1       5.349   9.304   3.482  1.00  0.00     0.140 A 
HETATM    2  C   UNL     1       5.312   9.649   2.209  1.00  0.00     0.183 A 
HETATM    3  O   UNL     1       4.884   8.583   2.206  1.00  0.00    -0.286 OA
ENDROOT
BRANCH   1   4
HETATM    4  C   UNL     1       5.478   9.250   4.762  1.00  0.00     0.010 C 
HETATM    5  C   UNL     1       5.933   8.112   5.167  1.00  0.00     0.122 C 
HETATM    6  C   UNL     1       5.288  10.223   5.696  1.00  0.00     0.028 C 
BRANCH   5   7
HETATM    7  N   UNL     1       5.246   7.015   4.802  1.00  0.00    -0.297 N 
HETATM    8  N   UNL     1       5.542   5.814   4.862  1.00  0.00    -0.245 N 
ATOM      9  HN  UNL     1       6.506   5.590   4.615  1.00  0.00     0.208 HD
ATOM     10  HN  UNL     1       4.323   7.205   4.410  1.00  0.00     0.187 HD
BRANCH   8  11
HETATM   11  N   UNL     1       4.804   4.800   5.192  1.00  0.00    -0.294 N 
ATOM     12  HN  UNL     1       5.239   3.947   5.544  1.00  0.00     0.184 HD
BRANCH  11  13
HETATM   13  C   UNL     1       3.413   4.875   5.069  1.00  0.00     0.363 C 
HETATM   14  F   UNL     1       2.864   4.270   6.116  1.00  0.00    -0.233 F 
ENDBRANCH  11  13
ENDBRANCH   8  11
ENDBRANCH   5   7
ENDBRANCH   1   4
BRANCH   2  15
HETATM   15  N   UNL     1       5.568  10.759   1.410  1.00  0.00    -0.343 N 
ATOM     16  HN  UNL     1       4.900  11.102   0.720  1.00  0.00     0.167 HD
BRANCH  15  17
HETATM   17  C   UNL     1       6.561  11.248   1.581  1.00  0.00     0.116 C 
HETATM   18  C   UNL     1       7.117  12.313   2.128  1.00  0.00     0.057 A 
HETATM   19  N   UNL     1       7.996  13.056   2.569  1.00  0.00    -0.249 NA
HETATM   20  C   UNL     1       6.267  13.007   2.509  1.00  0.00     0.068 A 
HETATM   21  H   UNL     1       8.423  13.832   2.703  1.00  0.00     0.134 HD
HETATM   22  C   UNL     1       5.149  13.091   2.621  1.00  0.00    -0.020 C 
ENDBRANCH  15  17
ENDBRANCH   2  15
TORSDOF 6
ENDMDL
MODEL 9
REMARK VINA RESULT:    -5.282     33.850     36.485
REMARK INTER + INTRA:          -8.051
REMARK INTER:                  -7.173
REMARK INTRA:                  -0.878
REMARK UNBOUND:                -0.917
REMARK  6 active torsions:
REMARK  status: ('A' for Active; 'I' for Inactive)
REMARK    1  A    between atoms: C_2  and  N_3 
REMARK    2  A    between atoms: N_3  and  N_5 
REMARK    3  A    between atoms: N_7  and  C_11 
REMARK    4  A    between atoms: C_9  and  C_12 
REMARK    5  A    between atoms: C_13  and  N_15 
REMARK    6  A    between atoms: N_15  and  C_18 
ROOT
HETATM    1  C   UNL     1       2.204 -21.091   9.148  1.00  0.00     0.140 A 
HETATM    2  C   UNL     1       1.324 -21.877   9.742  1.00  0.00     0.183 A 
HETATM    3  O   UNL     1       0.789 -20.860   9.707  1.00  0.00    -0.286 OA
ENDROOT
BRANCH   1   4
HETATM    4  C   UNL     1       3.218 -20.580   8.541  1.00  0.00     0.010 C 
HETATM    5  C   UNL     1       3.654 -19.512   9.119  1.00  0.00     0.122 C 
HETATM    6  C   UNL     1       3.912 -21.047   7.466  1.00  0.00     0.028 C 
BRANCH   5   7
HETATM    7  N   UNL     1       2.772 -18.514   9.303  1.00  0.00    -0.297 N 
HETATM    8  N   UNL     1       2.392 -17.615   8.541  1.00  0.00    -0.245 N 
ATOM      9  HN  UNL     1       3.123 -17.191   7.968  1.00  0.00     0.208 HD
ATOM     10  HN  UNL     1       2.342 -18.494  10.228  1.00  0.00     0.187 HD
BRANCH   8  11
HETATM   11  N   UNL     1       1.201 -17.134   8.364  1.00  0.00    -0.294 N 
ATOM     12  HN  UNL     1       0.845 -16.990   7.419  1.00  0.00     0.184 HD
BRANCH  11  13
HETATM   13  C   UNL     1       0.403 -16.814   9.467  1.00  0.00     0.363 C 
HETATM   14  F   UNL     1      -0.329 -17.877   9.781  1.00  0.00    -0.233 F 
ENDBRANCH  11  13
ENDBRANCH   8  11
ENDBRANCH   5   7
ENDBRANCH   1   4
BRANCH   2  15
HETATM   15  N   UNL     1       1.170 -23.216  10.083  1.00  0.00    -0.343 N 
ATOM     16  HN  UNL     1       0.255 -23.639  10.240  1.00  0.00     0.167 HD
BRANCH  15  17
HETATM   17  C   UNL     1       2.123 -23.797  10.173  1.00  0.00     0.116 C 
HETATM   18  C   UNL     1       2.846 -24.713   9.557  1.00  0.00     0.057 A 
HETATM   19  N   UNL     1       3.816 -25.423   9.282  1.00  0.00    -0.249 NA
HETATM   20  C   UNL     1       2.248 -25.083   8.633  1.00  0.00     0.068 A 
HETATM   21  H   UNL     1       4.242 -26.179   9.062  1.00  0.00     0.134 HD
HETATM   22  C   UNL     1       1.299 -24.923   8.045  1.00  0.00    -0.020 C 
ENDBRANCH  15  17
ENDBRANCH   2  15
TORSDOF 6
ENDMDL
