REMARK  6 active torsions:
REMARK  status: ('A' for Active; 'I' for Inactive)
REMARK    1  A    between atoms: C_2  and  N_3 
REMARK    2  A    between atoms: N_3  and  N_5 
REMARK    3  A    between atoms: N_7  and  C_11 
REMARK    4  A    between atoms: C_9  and  C_12 
REMARK    5  A    between atoms: C_13  and  N_15 
REMARK    6  A    between atoms: N_15  and  C_18 
ROOT
HETATM    1  C   UNL     1       9.999  -0.062  22.257  1.00  0.00     0.140 A 
HETATM    2  C   UNL     1       8.979   0.161  21.449  1.00  0.00     0.183 A 
HETATM    3  O   UNL     1       9.644   1.086  21.297  1.00  0.00    -0.286 OA
ENDROOT
BRANCH   1   4
HETATM    4  C   UNL     1      10.856  -0.543  23.089  1.00  0.00     0.010 C 
HETATM    5  C   UNL     1      10.871  -1.834  23.093  1.00  0.00     0.122 C 
HETATM    6  C   UNL     1      11.768   0.103  23.867  1.00  0.00     0.028 C 
BRANCH   5   7
HETATM    7  N   UNL     1       9.705  -2.457  23.337  1.00  0.00    -0.297 N 
HETATM    8  N   UNL     1       9.419  -3.361  24.134  1.00  0.00    -0.245 N 
ATOM      9  HN  UNL     1      10.114  -4.103  24.220  1.00  0.00     0.208 HD
ATOM     10  HN  UNL     1       8.923  -2.130  22.770  1.00  0.00     0.187 HD
BRANCH   8  11
HETATM   11  N   UNL     1       8.364  -3.501  24.875  1.00  0.00    -0.294 N 
ATOM     12  HN  UNL     1       7.520  -2.968  24.665  1.00  0.00     0.184 HD
BRANCH  11  13
HETATM   13  C   UNL     1       8.381  -4.382  25.961  1.00  0.00     0.363 C 
HETATM   14  F   UNL     1       7.137  -4.783  26.198  1.00  0.00    -0.233 F 
ENDBRANCH  11  13
ENDBRANCH   8  11
ENDBRANCH   5   7
ENDBRANCH   1   4
BRANCH   2  15
HETATM   15  N   UNL     1       7.828  -0.480  21.004  1.00  0.00    -0.343 N 
ATOM     16  HN  UNL     1       7.240  -1.040  21.621  1.00  0.00     0.167 HD
BRANCH  15  17
HETATM   17  C   UNL     1       7.594  -0.336  19.918  1.00  0.00     0.116 C 
HETATM   18  C   UNL     1       6.709   0.213  19.108  1.00  0.00     0.057 A 
HETATM   19  N   UNL     1       6.210   0.637  18.063  1.00  0.00    -0.249 NA
HETATM   20  C   UNL     1       5.845   0.642  19.755  1.00  0.00     0.068 A 
HETATM   21  H   UNL     1       5.562   0.772  17.460  1.00  0.00     0.134 HD
HETATM   22  C   UNL     1       5.501   0.798  20.817  1.00  0.00    -0.020 C 
ENDBRANCH  15  17
ENDBRANCH   2  15
TORSDOF 6
