stable:False satoms:11 tatoms:24 sratio:0.4583333333333333
  -OEChem-07092417423D

 24 24  0     1  0  0  0  0  0999 V2000
    6.3318   -5.0004   26.4139 Cl  0  0  0  0  0  0  0  0  0  0  0  0
    8.1136   -4.3204   26.0768 S   0  0  0  0  0  0  0  0  0  0  0  0
    8.9891   -5.4445   26.0219 O   0  0  0  0  0  0  0  0  0  0  0  0
    8.4011   -3.3723   27.0964 O   0  0  0  0  0  0  0  0  0  0  0  0
    7.9531   -3.6469   24.6098 N   0  0  0  0  0  0  0  0  0  0  0  0
    8.8508   -2.9177   24.2465 C   0  0  0  0  0  0  0  0  0  0  0  0
    9.4495   -2.0825   23.7581 C   0  0  0  0  0  0  0  0  0  0  0  0
   10.1025   -1.0346   23.3750 C   0  0  2  0  0  0  0  0  0  0  0  0
   10.9269   -0.0701   24.5827 S   0  0  0  0  0  0  0  0  0  0  0  0
   12.4415   -0.2167   23.7968 C   0  3  0  0  0  0  0  0  0  0  0  0
   13.3133    0.2768   23.9083 H   0  0  0  0  0  0  0  0  0  0  0  0
   12.4933   -1.1248   22.9415 C   0  0  0  0  0  2  0  0  0  0  0  0
   12.2553   -1.8454   22.3831 H   0  0  0  0  0  0  0  0  0  0  0  0
    9.8663   -0.5507   22.2443 C   0  0  0  0  0  0  0  0  0  0  0  0
    9.1577    0.1295   21.2847 C   0  0  0  0  0  0  0  0  0  0  0  0
    9.5613    1.1199   20.7851 O   0  0  0  0  0  0  0  0  0  0  0  0
    7.9528   -0.4204   21.0664 N   0  0  0  0  0  0  0  0  0  0  0  0
    7.1531    0.0063   20.0999 C   0  0  0  0  0  0  0  0  0  0  0  0
    7.3300   -0.0406   18.8041 C   0  0  0  0  0  0  0  0  0  0  0  0
    6.7942    0.3252   17.8185 N   0  0  0  0  0  0  0  0  0  0  0  0
    5.7823    0.7811   18.1992 C   0  0  0  0  0  0  0  0  0  0  0  0
    5.3230    0.9034   19.3035 C   0  0  0  0  0  0  0  0  0  0  0  0
    5.8357    0.5522   20.4389 C   0  0  0  0  0  0  0  0  0  0  0  0
    5.2059    0.7033   22.0414 Br  0  0  0  0  0  0  0  0  0  0  0  0
 20 21  2  0  0  0  0
 19 20  1  0  0  0  0
 21 22  1  0  0  0  0
 18 19  2  0  0  0  0
 22 23  2  0  0  0  0
 18 23  1  0  0  0  0
 17 18  1  0  0  0  0
 23 24  1  0  0  0  0
 15 16  2  0  0  0  0
 15 17  1  0  0  0  0
 14 15  1  0  0  0  0
  8 14  1  0  0  0  0
 12 13  1  0  0  0  0
 10 12  1  0  0  0  0
  7  8  1  0  0  0  0
  8  9  1  0  0  0  0
  6  7  3  0  0  0  0
 10 11  1  0  0  0  0
  9 10  1  0  0  0  0
  5  6  1  0  0  0  0
  2  5  1  0  0  0  0
  2  3  2  0  0  0  0
  1  2  1  0  0  0  0
  2  4  2  0  0  0  0
M  CHG  1  10   1
M  END
> <Shapegauss>
-270.615570

$$$$
