stable:False satoms:11 tatoms:24 sratio:0.4583333333333333
  -OEChem-08062410383D

 31 31  0     1  0  0  0  0  0999 V2000
    6.3316   -5.7126   25.8258 Cl  0  0  0  0  0  0  0  0  0  0  0  0
    8.0759   -4.8863   25.6664 S   0  0  0  0  0  0  0  0  0  0  0  0
    9.0357   -5.9391   25.6054 O   0  0  0  0  0  0  0  0  0  0  0  0
    8.2191   -3.9928   26.7629 O   0  0  0  0  0  0  0  0  0  0  0  0
    7.9674   -4.1263   24.2374 N   0  0  0  0  0  0  0  0  0  0  0  0
    8.8305   -3.3120   23.9892 C   0  0  0  0  0  0  0  0  0  0  0  0
    9.3968   -2.4048   23.6009 C   0  0  0  0  0  0  0  0  0  0  0  0
    9.9937   -1.2893   23.3350 C   0  0  2  0  0  0  0  0  0  0  0  0
   10.6566   -0.3544   24.6598 S   0  0  0  0  0  0  0  0  0  0  0  0
   12.2290   -0.3387   23.9812 C   0  0  0  0  0  2  0  0  0  0  0  0
   12.4088   -1.1796   23.0760 C   0  0  0  0  0  2  0  0  0  0  0  0
   12.2655   -1.8751   22.4567 H   0  0  0  0  0  0  0  0  0  0  0  0
    9.8008   -0.7465   22.2230 C   0  0  0  0  0  0  0  0  0  0  0  0
    9.1113   -0.0537   21.2585 C   0  0  0  0  0  0  0  0  0  0  0  0
    9.4726    0.9949   20.8545 O   0  0  0  0  0  0  0  0  0  0  0  0
    7.9696   -0.6713   20.9165 N   0  0  0  0  0  0  0  0  0  0  0  0
    7.2092   -0.2367   19.9222 C   0  0  0  0  0  0  0  0  0  0  0  0
    7.4789   -0.1814   18.6429 C   0  0  0  0  0  0  0  0  0  0  0  0
    6.9869    0.2126   17.6454 N   0  0  0  0  0  0  0  0  0  0  0  0
    5.9193    0.5682   17.9779 C   0  0  0  0  0  0  0  0  0  0  0  0
    5.3763    0.5812   19.0504 C   0  0  0  0  0  0  0  0  0  0  0  0
    5.8338    0.1898   20.1962 C   0  0  0  0  0  0  0  0  0  0  0  0
    5.0844    0.1849   21.7537 Br  0  0  0  0  0  0  0  0  0  0  0  0
    7.0870   -3.6528   24.2116 H   0  0  0  0  0  0  0  0  0  0  0  0
   10.9589   -1.7452   23.0694 H   0  0  0  0  0  0  0  0  0  0  0  0
   10.0240   -1.6315   21.6090 H   0  0  0  0  0  0  0  0  0  0  0  0
   10.6808   -0.0869   22.2490 H   0  0  0  0  0  0  0  0  0  0  0  0
    7.6848   -1.4827   21.4268 H   0  0  0  0  0  0  0  0  0  0  0  0
    8.4395   -0.6311   18.4390 H   0  0  0  0  0  0  0  0  0  0  0  0
    5.3130    0.9551   17.1722 H   0  0  0  0  0  0  0  0  0  0  0  0
    4.3698    0.9727   19.0591 H   0  0  0  0  0  0  0  0  0  0  0  0
 19 20  2  0  0  0  0
 18 19  1  0  0  0  0
 20 21  1  0  0  0  0
 17 18  2  0  0  0  0
 21 22  2  0  0  0  0
 17 22  1  0  0  0  0
 16 17  1  0  0  0  0
 22 23  1  0  0  0  0
 14 15  2  0  0  0  0
 14 16  1  0  0  0  0
 13 14  1  0  0  0  0
  8 13  1  0  0  0  0
 11 12  1  0  0  0  0
 10 11  1  0  0  0  0
  7  8  1  0  0  0  0
  8  9  1  0  0  0  0
  6  7  3  0  0  0  0
  9 10  1  0  0  0  0
  5  6  1  0  0  0  0
  2  5  1  0  0  0  0
  2  3  2  0  0  0  0
  1  2  1  0  0  0  0
  2  4  2  0  0  0  0
  5 24  1  0  0  0  0
  8 25  1  0  0  0  0
 13 26  1  0  0  0  0
 13 27  1  0  0  0  0
 16 28  1  0  0  0  0
 18 29  1  0  0  0  0
 20 30  1  0  0  0  0
 21 31  1  0  0  0  0
M  END
> <Chemgauss4>
-11.392869

$$$$
