stable:False satoms:11 tatoms:24 sratio:0.4583333333333333
  -OEChem-08062410373D

 31 31  0     1  0  0  0  0  0999 V2000
   -6.3706   -5.3928  -26.0975 Cl  0  0  0  0  0  0  0  0  0  0  0  0
   -8.1150   -4.5665  -25.9381 S   0  0  0  0  0  0  0  0  0  0  0  0
   -9.0747   -5.6193  -25.8771 O   0  0  0  0  0  0  0  0  0  0  0  0
   -8.2582   -3.6730  -27.0346 O   0  0  0  0  0  0  0  0  0  0  0  0
   -8.0065   -3.8065  -24.5091 N   0  0  0  0  0  0  0  0  0  0  0  0
   -8.8695   -2.9922  -24.2609 C   0  0  0  0  0  0  0  0  0  0  0  0
   -9.4358   -2.0850  -23.8726 C   0  0  0  0  0  0  0  0  0  0  0  0
  -10.0327   -0.9695  -23.6067 C   0  0  2  0  0  0  0  0  0  0  0  0
  -10.6956   -0.0346  -24.9315 S   0  0  0  0  0  0  0  0  0  0  0  0
  -12.2680   -0.0189  -24.2529 C   0  0  0  0  0  2  0  0  0  0  0  0
  -12.4478   -0.8598  -23.3477 C   0  0  0  0  0  2  0  0  0  0  0  0
  -12.3045   -1.5553  -22.7284 H   0  0  0  0  0  0  0  0  0  0  0  0
   -9.8399   -0.4267  -22.4947 C   0  0  0  0  0  0  0  0  0  0  0  0
   -9.1504    0.2661  -21.5302 C   0  0  0  0  0  0  0  0  0  0  0  0
   -9.5116    1.3147  -21.1262 O   0  0  0  0  0  0  0  0  0  0  0  0
   -8.0087   -0.3515  -21.1882 N   0  0  0  0  0  0  0  0  0  0  0  0
   -7.2482    0.0831  -20.1939 C   0  0  0  0  0  0  0  0  0  0  0  0
   -7.5179    0.1384  -18.9146 C   0  0  0  0  0  0  0  0  0  0  0  0
   -7.0259    0.5324  -17.9171 N   0  0  0  0  0  0  0  0  0  0  0  0
   -5.9584    0.8880  -18.2496 C   0  0  0  0  0  0  0  0  0  0  0  0
   -5.4154    0.9010  -19.3221 C   0  0  0  0  0  0  0  0  0  0  0  0
   -5.8729    0.5096  -20.4679 C   0  0  0  0  0  0  0  0  0  0  0  0
   -5.1234    0.5047  -22.0254 Br  0  0  0  0  0  0  0  0  0  0  0  0
   -7.1260   -3.3330  -24.4833 H   0  0  0  0  0  0  0  0  0  0  0  0
  -10.9979   -1.4254  -23.3411 H   0  0  0  0  0  0  0  0  0  0  0  0
  -10.0630   -1.3117  -21.8807 H   0  0  0  0  0  0  0  0  0  0  0  0
  -10.7198    0.2329  -22.5207 H   0  0  0  0  0  0  0  0  0  0  0  0
   -7.7238   -1.1629  -21.6985 H   0  0  0  0  0  0  0  0  0  0  0  0
   -8.4785   -0.3113  -18.7107 H   0  0  0  0  0  0  0  0  0  0  0  0
   -5.3520    1.2749  -17.4440 H   0  0  0  0  0  0  0  0  0  0  0  0
   -4.4089    1.2925  -19.3308 H   0  0  0  0  0  0  0  0  0  0  0  0
 19 20  2  0  0  0  0
 18 19  1  0  0  0  0
 20 21  1  0  0  0  0
 17 18  2  0  0  0  0
 21 22  2  0  0  0  0
 17 22  1  0  0  0  0
 16 17  1  0  0  0  0
 22 23  1  0  0  0  0
 14 15  2  0  0  0  0
 14 16  1  0  0  0  0
 13 14  1  0  0  0  0
  8 13  1  0  0  0  0
 11 12  1  0  0  0  0
 10 11  1  0  0  0  0
  7  8  1  0  0  0  0
  8  9  1  0  0  0  0
  6  7  3  0  0  0  0
  9 10  1  0  0  0  0
  5  6  1  0  0  0  0
  2  5  1  0  0  0  0
  2  3  2  0  0  0  0
  1  2  1  0  0  0  0
  2  4  2  0  0  0  0
  5 24  1  0  0  0  0
  8 25  1  0  0  0  0
 13 26  1  0  0  0  0
 13 27  1  0  0  0  0
 16 28  1  0  0  0  0
 18 29  1  0  0  0  0
 20 30  1  0  0  0  0
 21 31  1  0  0  0  0
M  END
> <Chemgauss4>
-11.345679

$$$$
