MODEL 1
REMARK VINA RESULT:    -6.430      0.000      0.000
REMARK INTER + INTRA:         -10.658
REMARK INTER:                  -9.438
REMARK INTRA:                  -1.220
REMARK UNBOUND:                -1.220
REMARK  8 active torsions:
REMARK  status: ('A' for Active; 'I' for Inactive)
REMARK    1  A    between atoms: S_2  and  N_5 
REMARK    2  A    between atoms: N_5  and  C_7 
REMARK    3  A    between atoms: C_7  and  C_8 
REMARK    4  A    between atoms: C_9  and  C_14 
REMARK    5  A    between atoms: C_9  and  C_10 
REMARK    6  A    between atoms: C_10  and  C_11 
REMARK    7  A    between atoms: C_15  and  C_16 
REMARK       I    between atoms: C_16  and  N_18 
REMARK    8  A    between atoms: N_18  and  C_20 
ROOT
HETATM    1  C   UNL     1       9.108  -2.447  23.286  1.00  0.00     0.043 A 
HETATM    2  C   UNL     1      10.332  -1.322  23.216  1.00  0.00     0.101 A 
HETATM    3  C   UNL     1       9.372  -1.144  22.495  1.00  0.00     0.052 A 
ENDROOT
BRANCH   3   4
HETATM    4  C   UNL     1       8.742  -0.313  21.424  1.00  0.00     0.255 C 
HETATM    5  O   UNL     1       9.403   0.433  20.763  1.00  0.00    -0.268 OA
HETATM    6  N   UNL     1       7.447  -0.527  21.381  1.00  0.00    -0.315 N 
ATOM      7  HN  UNL     1       7.025  -1.116  22.100  1.00  0.00     0.170 HD
BRANCH   6   8
HETATM    8  C   UNL     1       6.685  -0.024  20.469  1.00  0.00     0.105 A 
HETATM    9  S   UNL     1       6.316  -0.764  18.987  1.00  0.00    -0.020 SA
HETATM   10  N   UNL     1       5.149   0.058  17.688  1.00  0.00    -0.323 N 
HETATM   11  C   UNL     1       5.366   0.448  18.490  1.00  0.00     0.092 A 
ATOM     12  HN  UNL     1       4.662   0.059  16.791  1.00  0.00     0.174 HD
HETATM   13  C   UNL     1       5.461   1.292  19.570  1.00  0.00     0.060 A 
HETATM   14  C   UNL     1       6.037   1.210  20.618  1.00  0.00     0.048 A 
HETATM   15 BR   UNL     1       6.099   2.257  22.052  1.00  0.00    -0.048 Br
ENDBRANCH   6   8
ENDBRANCH   3   4
BRANCH   1  16
HETATM   16  C   UNL     1       8.664  -3.390  23.692  1.00  0.00    -0.019 C 
BRANCH  16  17
HETATM   17  N   UNL     1       8.095  -4.271  24.216  1.00  0.00    -0.230 N 
ATOM     18  HN  UNL     1       8.727  -4.881  24.734  1.00  0.00     0.191 HD
BRANCH  17  19
HETATM   19  S   UNL     1       6.529  -4.765  24.323  1.00  0.00     0.215 S 
HETATM   20  O   UNL     1       6.306  -5.646  23.155  1.00  0.00    -0.577 OA
HETATM   21  O   UNL     1       6.349  -5.474  25.561  1.00  0.00    -0.577 OA
HETATM   22  O   UNL     1       5.669  -3.621  24.283  1.00  0.00    -0.577 OA
ENDBRANCH  17  19
ENDBRANCH  16  17
ENDBRANCH   1  16
BRANCH   2  23
HETATM   23  C   UNL     1      11.746  -1.586  22.840  1.00  0.00     0.255 C 
HETATM   24  O   UNL     1      12.681  -1.950  22.777  1.00  0.00    -0.305 OA
ENDBRANCH   2  23
BRANCH   2  25
HETATM   25  C   UNL     1      10.737  -0.484  24.273  1.00  0.00    -0.000 C 
BRANCH  25  26
HETATM   26  C   UNL     1      10.682   0.619  24.345  1.00  0.00    -0.012 C 
HETATM   27  C   UNL     1      10.365   1.538  24.722  1.00  0.00     0.011 C 
ENDBRANCH  25  26
ENDBRANCH   2  25
TORSDOF 8
ENDMDL
MODEL 2
REMARK VINA RESULT:    -6.184     20.037     23.503
REMARK INTER + INTRA:         -10.295
REMARK INTER:                  -9.075
REMARK INTRA:                  -1.220
REMARK UNBOUND:                -1.220
REMARK  8 active torsions:
REMARK  status: ('A' for Active; 'I' for Inactive)
REMARK    1  A    between atoms: S_2  and  N_5 
REMARK    2  A    between atoms: N_5  and  C_7 
REMARK    3  A    between atoms: C_7  and  C_8 
REMARK    4  A    between atoms: C_9  and  C_14 
REMARK    5  A    between atoms: C_9  and  C_10 
REMARK    6  A    between atoms: C_10  and  C_11 
REMARK    7  A    between atoms: C_15  and  C_16 
REMARK       I    between atoms: C_16  and  N_18 
REMARK    8  A    between atoms: N_18  and  C_20 
ROOT
HETATM    1  C   UNL     1       7.693  12.037   3.249  1.00  0.00     0.043 A 
HETATM    2  C   UNL     1       6.476  11.641   2.186  1.00  0.00     0.101 A 
HETATM    3  C   UNL     1       6.473  11.087   3.266  1.00  0.00     0.052 A 
ENDROOT
BRANCH   3   4
HETATM    4  C   UNL     1       5.834  10.067   4.152  1.00  0.00     0.255 C 
HETATM    5  O   UNL     1       5.853  10.193   5.340  1.00  0.00    -0.268 OA
HETATM    6  N   UNL     1       5.325   9.092   3.432  1.00  0.00    -0.315 N 
ATOM      7  HN  UNL     1       5.499   9.084   2.427  1.00  0.00     0.170 HD
BRANCH   6   8
HETATM    8  C   UNL     1       4.614   8.144   3.944  1.00  0.00     0.105 A 
HETATM    9  S   UNL     1       5.235   6.730   4.648  1.00  0.00    -0.020 SA
HETATM   10  N   UNL     1       4.094   5.370   5.407  1.00  0.00    -0.323 N 
HETATM   11  C   UNL     1       3.775   6.137   5.015  1.00  0.00     0.092 A 
ATOM     12  HN  UNL     1       3.953   4.479   5.882  1.00  0.00     0.174 HD
HETATM   13  C   UNL     1       2.974   7.142   4.529  1.00  0.00     0.060 A 
HETATM   14  C   UNL     1       3.215   8.191   4.002  1.00  0.00     0.048 A 
HETATM   15 BR   UNL     1       2.191   9.533   3.448  1.00  0.00    -0.048 Br
ENDBRANCH   6   8
ENDBRANCH   3   4
BRANCH   1  16
HETATM   16  C   UNL     1       8.620  12.607   3.513  1.00  0.00    -0.019 C 
BRANCH  16  17
HETATM   17  N   UNL     1       9.606  13.231   3.614  1.00  0.00    -0.230 N 
ATOM     18  HN  UNL     1      10.376  12.674   3.985  1.00  0.00     0.191 HD
BRANCH  17  19
HETATM   19  S   UNL     1      10.057  14.782   3.304  1.00  0.00     0.215 S 
HETATM   20  O   UNL     1       9.194  15.629   4.158  1.00  0.00    -0.577 OA
HETATM   21  O   UNL     1      11.447  14.938   3.639  1.00  0.00    -0.577 OA
HETATM   22  O   UNL     1       9.852  15.066   1.916  1.00  0.00    -0.577 OA
ENDBRANCH  17  19
ENDBRANCH  16  17
ENDBRANCH   1  16
BRANCH   2  23
HETATM   23  C   UNL     1       6.651  11.049   0.833  1.00  0.00     0.255 C 
HETATM   24  O   UNL     1       7.028  10.692  -0.028  1.00  0.00    -0.305 OA
ENDBRANCH   2  23
BRANCH   2  25
HETATM   25  C   UNL     1       5.487  12.522   1.706  1.00  0.00    -0.000 C 
BRANCH  25  26
HETATM   26  C   UNL     1       4.401  12.527   1.918  1.00  0.00    -0.012 C 
HETATM   27  C   UNL     1       3.506  12.884   2.317  1.00  0.00     0.011 C 
ENDBRANCH  25  26
ENDBRANCH   2  25
TORSDOF 8
ENDMDL
MODEL 3
REMARK VINA RESULT:    -6.098      3.006      6.258
REMARK INTER + INTRA:         -10.169
REMARK INTER:                  -8.996
REMARK INTRA:                  -1.173
REMARK UNBOUND:                -1.220
REMARK  8 active torsions:
REMARK  status: ('A' for Active; 'I' for Inactive)
REMARK    1  A    between atoms: S_2  and  N_5 
REMARK    2  A    between atoms: N_5  and  C_7 
REMARK    3  A    between atoms: C_7  and  C_8 
REMARK    4  A    between atoms: C_9  and  C_14 
REMARK    5  A    between atoms: C_9  and  C_10 
REMARK    6  A    between atoms: C_10  and  C_11 
REMARK    7  A    between atoms: C_15  and  C_16 
REMARK       I    between atoms: C_16  and  N_18 
REMARK    8  A    between atoms: N_18  and  C_20 
ROOT
HETATM    1  C   UNL     1       7.954   0.589  22.295  1.00  0.00     0.043 A 
HETATM    2  C   UNL     1       8.944   0.947  23.582  1.00  0.00     0.101 A 
HETATM    3  C   UNL     1       8.780  -0.226  23.316  1.00  0.00     0.052 A 
ENDROOT
BRANCH   3   4
HETATM    4  C   UNL     1       9.052  -1.648  23.688  1.00  0.00     0.255 C 
HETATM    5  O   UNL     1      10.122  -2.139  23.479  1.00  0.00    -0.268 OA
HETATM    6  N   UNL     1       7.978  -2.197  24.211  1.00  0.00    -0.315 N 
ATOM      7  HN  UNL     1       7.108  -1.665  24.211  1.00  0.00     0.170 HD
BRANCH   6   8
HETATM    8  C   UNL     1       7.979  -3.381  24.723  1.00  0.00     0.105 A 
HETATM    9  S   UNL     1       8.390  -3.750  26.328  1.00  0.00    -0.020 SA
HETATM   10  N   UNL     1       8.344  -5.554  27.014  1.00  0.00    -0.323 N 
HETATM   11  C   UNL     1       8.133  -5.338  26.148  1.00  0.00     0.092 A 
ATOM     12  HN  UNL     1       8.464  -6.232  27.767  1.00  0.00     0.174 HD
HETATM   13  C   UNL     1       7.750  -5.375  24.828  1.00  0.00     0.060 A 
HETATM   14  C   UNL     1       7.601  -4.521  24.001  1.00  0.00     0.048 A 
HETATM   15 BR   UNL     1       7.026  -4.549  22.319  1.00  0.00    -0.048 Br
ENDBRANCH   6   8
ENDBRANCH   3   4
BRANCH   1  16
HETATM   16  C   UNL     1       7.281   0.902  21.457  1.00  0.00    -0.019 C 
BRANCH  16  17
HETATM   17  N   UNL     1       6.674   1.121  20.478  1.00  0.00    -0.230 N 
ATOM     18  HN  UNL     1       6.101   1.961  20.562  1.00  0.00     0.191 HD
BRANCH  17  19
HETATM   19  S   UNL     1       6.517   0.408  19.004  1.00  0.00     0.215 S 
HETATM   20  O   UNL     1       7.894   0.086  18.566  1.00  0.00    -0.577 OA
HETATM   21  O   UNL     1       5.716  -0.778  19.143  1.00  0.00    -0.577 OA
HETATM   22  O   UNL     1       5.886   1.323  18.101  1.00  0.00    -0.577 OA
ENDBRANCH  17  19
ENDBRANCH  16  17
ENDBRANCH   1  16
BRANCH   2  23
HETATM   23  C   UNL     1       8.553   1.690  24.810  1.00  0.00     0.255 C 
HETATM   24  O   UNL     1       8.273   2.396  25.468  1.00  0.00    -0.305 OA
ENDBRANCH   2  23
BRANCH   2  25
HETATM   25  C   UNL     1      10.164   1.648  23.510  1.00  0.00    -0.000 C 
BRANCH  25  26
HETATM   26  C   UNL     1      11.132   1.407  23.990  1.00  0.00    -0.012 C 
HETATM   27  C   UNL     1      12.061   0.944  24.089  1.00  0.00     0.011 C 
ENDBRANCH  25  26
ENDBRANCH   2  25
TORSDOF 8
ENDMDL
MODEL 4
REMARK VINA RESULT:    -6.093      4.183      6.134
REMARK INTER + INTRA:         -10.162
REMARK INTER:                  -9.181
REMARK INTRA:                  -0.981
REMARK UNBOUND:                -1.220
REMARK  8 active torsions:
REMARK  status: ('A' for Active; 'I' for Inactive)
REMARK    1  A    between atoms: S_2  and  N_5 
REMARK    2  A    between atoms: N_5  and  C_7 
REMARK    3  A    between atoms: C_7  and  C_8 
REMARK    4  A    between atoms: C_9  and  C_14 
REMARK    5  A    between atoms: C_9  and  C_10 
REMARK    6  A    between atoms: C_10  and  C_11 
REMARK    7  A    between atoms: C_15  and  C_16 
REMARK       I    between atoms: C_16  and  N_18 
REMARK    8  A    between atoms: N_18  and  C_20 
ROOT
HETATM    1  C   UNL     1       7.272  -5.003  25.617  1.00  0.00     0.043 A 
HETATM    2  C   UNL     1       6.475  -4.807  24.170  1.00  0.00     0.101 A 
HETATM    3  C   UNL     1       7.428  -4.085  24.383  1.00  0.00     0.052 A 
ENDROOT
BRANCH   3   4
HETATM    4  C   UNL     1       8.272  -2.946  23.907  1.00  0.00     0.255 C 
HETATM    5  O   UNL     1       8.354  -2.693  22.742  1.00  0.00    -0.268 OA
HETATM    6  N   UNL     1       8.863  -2.360  24.925  1.00  0.00    -0.315 N 
ATOM      7  HN  UNL     1       8.772  -2.779  25.850  1.00  0.00     0.170 HD
BRANCH   6   8
HETATM    8  C   UNL     1       9.554  -1.277  24.801  1.00  0.00     0.105 A 
HETATM    9  S   UNL     1      11.036  -1.153  23.983  1.00  0.00    -0.020 SA
HETATM   10  N   UNL     1      11.992   0.517  23.834  1.00  0.00    -0.323 N 
HETATM   11  C   UNL     1      11.194   0.431  24.279  1.00  0.00     0.092 A 
ATOM     12  HN  UNL     1      12.783   1.073  23.508  1.00  0.00     0.174 HD
HETATM   13  C   UNL     1      10.043   0.662  24.995  1.00  0.00     0.060 A 
HETATM   14  C   UNL     1       9.131  -0.045  25.318  1.00  0.00     0.048 A 
HETATM   15 BR   UNL     1       7.602   0.263  26.169  1.00  0.00    -0.048 Br
ENDBRANCH   6   8
ENDBRANCH   3   4
BRANCH   1  16
HETATM   16  C   UNL     1       7.396  -5.507  26.609  1.00  0.00    -0.019 C 
BRANCH  16  17
HETATM   17  N   UNL     1       7.403  -5.919  27.706  1.00  0.00    -0.230 N 
ATOM     18  HN  UNL     1       8.350  -6.087  28.047  1.00  0.00     0.191 HD
BRANCH  17  19
HETATM   19  S   UNL     1       6.263  -6.294  28.832  1.00  0.00     0.215 S 
HETATM   20  O   UNL     1       6.310  -7.766  28.976  1.00  0.00    -0.577 OA
HETATM   21  O   UNL     1       6.593  -5.631  30.065  1.00  0.00    -0.577 OA
HETATM   22  O   UNL     1       4.980  -5.857  28.369  1.00  0.00    -0.577 OA
ENDBRANCH  17  19
ENDBRANCH  16  17
ENDBRANCH   1  16
BRANCH   2  23
HETATM   23  C   UNL     1       5.045  -4.439  23.999  1.00  0.00     0.255 C 
HETATM   24  O   UNL     1       4.047  -4.356  24.091  1.00  0.00    -0.305 OA
ENDBRANCH   2  23
BRANCH   2  25
HETATM   25  C   UNL     1       6.381  -5.771  23.147  1.00  0.00    -0.000 C 
BRANCH  25  26
HETATM   26  C   UNL     1       6.564  -5.652  22.062  1.00  0.00    -0.012 C 
HETATM   27  C   UNL     1       6.361  -5.739  21.043  1.00  0.00     0.011 C 
ENDBRANCH  25  26
ENDBRANCH   2  25
TORSDOF 8
ENDMDL
MODEL 5
REMARK VINA RESULT:    -6.064      1.521      2.027
REMARK INTER + INTRA:         -10.120
REMARK INTER:                  -8.886
REMARK INTRA:                  -1.235
REMARK UNBOUND:                -1.220
REMARK  8 active torsions:
REMARK  status: ('A' for Active; 'I' for Inactive)
REMARK    1  A    between atoms: S_2  and  N_5 
REMARK    2  A    between atoms: N_5  and  C_7 
REMARK    3  A    between atoms: C_7  and  C_8 
REMARK    4  A    between atoms: C_9  and  C_14 
REMARK    5  A    between atoms: C_9  and  C_10 
REMARK    6  A    between atoms: C_10  and  C_11 
REMARK    7  A    between atoms: C_15  and  C_16 
REMARK       I    between atoms: C_16  and  N_18 
REMARK    8  A    between atoms: N_18  and  C_20 
ROOT
HETATM    1  C   UNL     1       8.446  -3.134  24.406  1.00  0.00     0.043 A 
HETATM    2  C   UNL     1       9.263  -1.820  23.794  1.00  0.00     0.101 A 
HETATM    3  C   UNL     1       8.163  -2.053  23.337  1.00  0.00     0.052 A 
ENDROOT
BRANCH   3   4
HETATM    4  C   UNL     1       7.117  -1.687  22.333  1.00  0.00     0.255 C 
HETATM    5  O   UNL     1       6.051  -2.229  22.337  1.00  0.00    -0.268 OA
HETATM    6  N   UNL     1       7.573  -0.766  21.514  1.00  0.00    -0.315 N 
ATOM      7  HN  UNL     1       8.553  -0.494  21.582  1.00  0.00     0.170 HD
BRANCH   6   8
HETATM    8  C   UNL     1       6.831  -0.190  20.629  1.00  0.00     0.105 A 
HETATM    9  S   UNL     1       6.347  -0.888  19.159  1.00  0.00    -0.020 SA
HETATM   10  N   UNL     1       5.219   0.044  17.900  1.00  0.00    -0.323 N 
HETATM   11  C   UNL     1       5.497   0.409  18.695  1.00  0.00     0.092 A 
ATOM     12  HN  UNL     1       4.704   0.093  17.020  1.00  0.00     0.174 HD
HETATM   13  C   UNL     1       5.706   1.237  19.772  1.00  0.00     0.060 A 
HETATM   14  C   UNL     1       6.306   1.098  20.800  1.00  0.00     0.048 A 
HETATM   15 BR   UNL     1       6.512   2.129  22.232  1.00  0.00    -0.048 Br
ENDBRANCH   6   8
ENDBRANCH   3   4
BRANCH   1  16
HETATM   16  C   UNL     1       8.378  -4.016  25.092  1.00  0.00    -0.019 C 
BRANCH  16  17
HETATM   17  N   UNL     1       8.251  -4.823  25.932  1.00  0.00    -0.230 N 
ATOM     18  HN  UNL     1       9.100  -5.371  26.069  1.00  0.00     0.191 HD
BRANCH  17  19
HETATM   19  S   UNL     1       7.041  -5.289  26.944  1.00  0.00     0.215 S 
HETATM   20  O   UNL     1       6.332  -4.046  27.322  1.00  0.00    -0.577 OA
HETATM   21  O   UNL     1       6.175  -6.200  26.246  1.00  0.00    -0.577 OA
HETATM   22  O   UNL     1       7.607  -5.933  28.092  1.00  0.00    -0.577 OA
ENDBRANCH  17  19
ENDBRANCH  16  17
ENDBRANCH   1  16
BRANCH   2  23
HETATM   23  C   UNL     1      10.584  -1.849  23.111  1.00  0.00     0.255 C 
HETATM   24  O   UNL     1      11.325  -1.917  22.435  1.00  0.00    -0.305 OA
ENDBRANCH   2  23
BRANCH   2  25
HETATM   25  C   UNL     1       9.629  -0.670  24.521  1.00  0.00    -0.000 C 
BRANCH  25  26
HETATM   26  C   UNL     1       9.465   0.394  24.265  1.00  0.00    -0.012 C 
HETATM   27  C   UNL     1       9.495   1.427  24.404  1.00  0.00     0.011 C 
ENDBRANCH  25  26
ENDBRANCH   2  25
TORSDOF 8
ENDMDL
MODEL 6
REMARK VINA RESULT:    -5.925      2.082      2.492
REMARK INTER + INTRA:          -9.916
REMARK INTER:                  -9.134
REMARK INTRA:                  -0.783
REMARK UNBOUND:                -1.220
REMARK  8 active torsions:
REMARK  status: ('A' for Active; 'I' for Inactive)
REMARK    1  A    between atoms: S_2  and  N_5 
REMARK    2  A    between atoms: N_5  and  C_7 
REMARK    3  A    between atoms: C_7  and  C_8 
REMARK    4  A    between atoms: C_9  and  C_14 
REMARK    5  A    between atoms: C_9  and  C_10 
REMARK    6  A    between atoms: C_10  and  C_11 
REMARK    7  A    between atoms: C_15  and  C_16 
REMARK       I    between atoms: C_16  and  N_18 
REMARK    8  A    between atoms: N_18  and  C_20 
ROOT
HETATM    1  C   UNL     1       9.243  -0.693  24.644  1.00  0.00     0.043 A 
HETATM    2  C   UNL     1      10.242   0.503  24.063  1.00  0.00     0.101 A 
HETATM    3  C   UNL     1       9.422   0.043  23.296  1.00  0.00     0.052 A 
ENDROOT
BRANCH   3   4
HETATM    4  C   UNL     1       8.874   0.025  21.904  1.00  0.00     0.255 C 
HETATM    5  O   UNL     1       9.576   0.275  20.970  1.00  0.00    -0.268 OA
HETATM    6  N   UNL     1       7.592  -0.263  21.922  1.00  0.00    -0.315 N 
ATOM      7  HN  UNL     1       7.120  -0.336  22.823  1.00  0.00     0.170 HD
BRANCH   6   8
HETATM    8  C   UNL     1       6.906  -0.457  20.847  1.00  0.00     0.105 A 
HETATM    9  S   UNL     1       6.908   0.562  19.489  1.00  0.00    -0.020 SA
HETATM   10  N   UNL     1       5.860   0.181  17.914  1.00  0.00    -0.323 N 
HETATM   11  C   UNL     1       5.864  -0.354  18.659  1.00  0.00     0.092 A 
ATOM     12  HN  UNL     1       5.543   0.405  16.970  1.00  0.00     0.174 HD
HETATM   13  C   UNL     1       5.645  -1.361  19.570  1.00  0.00     0.060 A 
HETATM   14  C   UNL     1       6.082  -1.576  20.664  1.00  0.00     0.048 A 
HETATM   15 BR   UNL     1       5.869  -2.916  21.812  1.00  0.00    -0.048 Br
ENDBRANCH   6   8
ENDBRANCH   3   4
BRANCH   1  16
HETATM   16  C   UNL     1       8.899  -1.374  25.463  1.00  0.00    -0.019 C 
BRANCH  16  17
HETATM   17  N   UNL     1       8.562  -2.218  26.203  1.00  0.00    -0.230 N 
ATOM     18  HN  UNL     1       8.529  -1.891  27.169  1.00  0.00     0.191 HD
BRANCH  17  19
HETATM   19  S   UNL     1       8.129  -3.800  26.069  1.00  0.00     0.215 S 
HETATM   20  O   UNL     1       6.665  -3.834  26.280  1.00  0.00    -0.577 OA
HETATM   21  O   UNL     1       8.485  -4.270  24.758  1.00  0.00    -0.577 OA
HETATM   22  O   UNL     1       8.816  -4.564  27.067  1.00  0.00    -0.577 OA
ENDBRANCH  17  19
ENDBRANCH  16  17
ENDBRANCH   1  16
BRANCH   2  23
HETATM   23  C   UNL     1      11.726   0.445  23.988  1.00  0.00     0.255 C 
HETATM   24  O   UNL     1      12.711   0.617  24.100  1.00  0.00    -0.305 OA
ENDBRANCH   2  23
BRANCH   2  25
HETATM   25  C   UNL     1      10.286   1.832  24.526  1.00  0.00    -0.000 C 
BRANCH  25  26
HETATM   26  C   UNL     1       9.828   2.737  24.083  1.00  0.00    -0.012 C 
HETATM   27  C   UNL     1       9.662   3.758  23.950  1.00  0.00     0.011 C 
ENDBRANCH  25  26
ENDBRANCH   2  25
TORSDOF 8
ENDMDL
MODEL 7
REMARK VINA RESULT:    -5.883      3.882      5.883
REMARK INTER + INTRA:          -9.854
REMARK INTER:                  -8.663
REMARK INTRA:                  -1.191
REMARK UNBOUND:                -1.220
REMARK  8 active torsions:
REMARK  status: ('A' for Active; 'I' for Inactive)
REMARK    1  A    between atoms: S_2  and  N_5 
REMARK    2  A    between atoms: N_5  and  C_7 
REMARK    3  A    between atoms: C_7  and  C_8 
REMARK    4  A    between atoms: C_9  and  C_14 
REMARK    5  A    between atoms: C_9  and  C_10 
REMARK    6  A    between atoms: C_10  and  C_11 
REMARK    7  A    between atoms: C_15  and  C_16 
REMARK       I    between atoms: C_16  and  N_18 
REMARK    8  A    between atoms: N_18  and  C_20 
ROOT
HETATM    1  C   UNL     1       8.422   0.173  21.769  1.00  0.00     0.043 A 
HETATM    2  C   UNL     1       9.398  -0.573  22.890  1.00  0.00     0.101 A 
HETATM    3  C   UNL     1       9.206   0.618  23.025  1.00  0.00     0.052 A 
ENDROOT
BRANCH   3   4
HETATM    4  C   UNL     1       9.520   1.862  23.792  1.00  0.00     0.255 C 
HETATM    5  O   UNL     1       9.415   1.887  24.983  1.00  0.00    -0.268 OA
HETATM    6  N   UNL     1       9.870   2.828  22.973  1.00  0.00    -0.315 N 
ATOM      7  HN  UNL     1       9.795   2.668  21.968  1.00  0.00     0.170 HD
BRANCH   6   8
HETATM    8  C   UNL     1      10.304   3.971  23.386  1.00  0.00     0.105 A 
HETATM    9  S   UNL     1      11.935   4.356  23.656  1.00  0.00    -0.020 SA
HETATM   10  N   UNL     1      12.495   6.102  24.258  1.00  0.00    -0.323 N 
HETATM   11  C   UNL     1      11.617   5.875  24.115  1.00  0.00     0.092 A 
ATOM     12  HN  UNL     1      13.216   6.771  24.529  1.00  0.00     0.174 HD
HETATM   13  C   UNL     1      10.247   5.885  23.995  1.00  0.00     0.060 A 
HETATM   14  C   UNL     1       9.457   5.059  23.636  1.00  0.00     0.048 A 
HETATM   15 BR   UNL     1       7.697   5.089  23.397  1.00  0.00    -0.048 Br
ENDBRANCH   6   8
ENDBRANCH   3   4
BRANCH   1  16
HETATM   16  C   UNL     1       7.784   0.145  20.849  1.00  0.00    -0.019 C 
BRANCH  16  17
HETATM   17  N   UNL     1       7.212   0.256  19.832  1.00  0.00    -0.230 N 
ATOM     18  HN  UNL     1       7.717   0.845  19.171  1.00  0.00     0.191 HD
BRANCH  17  19
HETATM   19  S   UNL     1       5.797  -0.305  19.208  1.00  0.00     0.215 S 
HETATM   20  O   UNL     1       4.793   0.747  19.480  1.00  0.00    -0.577 OA
HETATM   21  O   UNL     1       5.966  -0.523  17.797  1.00  0.00    -0.577 OA
HETATM   22  O   UNL     1       5.450  -1.535  19.855  1.00  0.00    -0.577 OA
ENDBRANCH  17  19
ENDBRANCH  16  17
ENDBRANCH   1  16
BRANCH   2  23
HETATM   23  C   UNL     1      10.671  -1.287  22.608  1.00  0.00     0.255 C 
HETATM   24  O   UNL     1      11.475  -1.699  22.166  1.00  0.00    -0.305 OA
ENDBRANCH   2  23
BRANCH   2  25
HETATM   25  C   UNL     1       8.995  -1.581  23.788  1.00  0.00    -0.000 C 
BRANCH  25  26
HETATM   26  C   UNL     1       9.108  -1.616  24.888  1.00  0.00    -0.012 C 
HETATM   27  C   UNL     1       8.801  -1.559  25.883  1.00  0.00     0.011 C 
ENDBRANCH  25  26
ENDBRANCH   2  25
TORSDOF 8
ENDMDL
MODEL 8
REMARK VINA RESULT:    -5.794      3.364      5.488
REMARK INTER + INTRA:          -9.723
REMARK INTER:                  -8.610
REMARK INTRA:                  -1.113
REMARK UNBOUND:                -1.220
REMARK  8 active torsions:
REMARK  status: ('A' for Active; 'I' for Inactive)
REMARK    1  A    between atoms: S_2  and  N_5 
REMARK    2  A    between atoms: N_5  and  C_7 
REMARK    3  A    between atoms: C_7  and  C_8 
REMARK    4  A    between atoms: C_9  and  C_14 
REMARK    5  A    between atoms: C_9  and  C_10 
REMARK    6  A    between atoms: C_10  and  C_11 
REMARK    7  A    between atoms: C_15  and  C_16 
REMARK       I    between atoms: C_16  and  N_18 
REMARK    8  A    between atoms: N_18  and  C_20 
ROOT
HETATM    1  C   UNL     1       6.916  -5.139  25.684  1.00  0.00     0.043 A 
HETATM    2  C   UNL     1       5.974  -4.951  24.326  1.00  0.00     0.101 A 
HETATM    3  C   UNL     1       6.934  -4.218  24.442  1.00  0.00     0.052 A 
ENDROOT
BRANCH   3   4
HETATM    4  C   UNL     1       7.711  -3.068  23.885  1.00  0.00     0.255 C 
HETATM    5  O   UNL     1       8.879  -3.174  23.657  1.00  0.00    -0.268 OA
HETATM    6  N   UNL     1       6.932  -2.019  23.740  1.00  0.00    -0.315 N 
ATOM      7  HN  UNL     1       5.977  -2.067  24.094  1.00  0.00     0.170 HD
BRANCH   6   8
HETATM    8  C   UNL     1       7.325  -0.931  23.168  1.00  0.00     0.105 A 
HETATM    9  S   UNL     1       7.191  -0.595  21.510  1.00  0.00    -0.020 SA
HETATM   10  N   UNL     1       7.792   1.072  20.745  1.00  0.00    -0.323 N 
HETATM   11  C   UNL     1       7.865   0.871  21.638  1.00  0.00     0.092 A 
ATOM     12  HN  UNL     1       7.927   1.699  19.952  1.00  0.00     0.174 HD
HETATM   13  C   UNL     1       8.113   0.909  22.989  1.00  0.00     0.060 A 
HETATM   14  C   UNL     1       7.896   0.134  23.878  1.00  0.00     0.048 A 
HETATM   15 BR   UNL     1       8.137   0.210  25.636  1.00  0.00    -0.048 Br
ENDBRANCH   6   8
ENDBRANCH   3   4
BRANCH   1  16
HETATM   16  C   UNL     1       7.148  -5.641  26.657  1.00  0.00    -0.019 C 
BRANCH  16  17
HETATM   17  N   UNL     1       7.339  -6.014  27.751  1.00  0.00    -0.230 N 
ATOM     18  HN  UNL     1       8.333  -6.108  27.957  1.00  0.00     0.191 HD
BRANCH  17  19
HETATM   19  S   UNL     1       6.399  -6.424  29.038  1.00  0.00     0.215 S 
HETATM   20  O   UNL     1       5.028  -6.573  28.502  1.00  0.00    -0.577 OA
HETATM   21  O   UNL     1       6.886  -7.656  29.596  1.00  0.00    -0.577 OA
HETATM   22  O   UNL     1       6.463  -5.383  30.020  1.00  0.00    -0.577 OA
ENDBRANCH  17  19
ENDBRANCH  16  17
ENDBRANCH   1  16
BRANCH   2  23
HETATM   23  C   UNL     1       4.529  -4.601  24.303  1.00  0.00     0.255 C 
HETATM   24  O   UNL     1       3.641  -4.139  24.400  1.00  0.00    -0.305 OA
ENDBRANCH   2  23
BRANCH   2  25
HETATM   25  C   UNL     1       5.788  -5.916  23.316  1.00  0.00    -0.000 C 
BRANCH  25  26
HETATM   26  C   UNL     1       5.934  -5.814  22.224  1.00  0.00    -0.012 C 
HETATM   27  C   UNL     1       6.457  -5.844  21.322  1.00  0.00     0.011 C 
ENDBRANCH  25  26
ENDBRANCH   2  25
TORSDOF 8
ENDMDL
MODEL 9
REMARK VINA RESULT:    -5.743      3.028      5.788
REMARK INTER + INTRA:          -9.649
REMARK INTER:                  -8.582
REMARK INTRA:                  -1.067
REMARK UNBOUND:                -1.220
REMARK  8 active torsions:
REMARK  status: ('A' for Active; 'I' for Inactive)
REMARK    1  A    between atoms: S_2  and  N_5 
REMARK    2  A    between atoms: N_5  and  C_7 
REMARK    3  A    between atoms: C_7  and  C_8 
REMARK    4  A    between atoms: C_9  and  C_14 
REMARK    5  A    between atoms: C_9  and  C_10 
REMARK    6  A    between atoms: C_10  and  C_11 
REMARK    7  A    between atoms: C_15  and  C_16 
REMARK       I    between atoms: C_16  and  N_18 
REMARK    8  A    between atoms: N_18  and  C_20 
ROOT
HETATM    1  C   UNL     1       8.101  -0.287  21.262  1.00  0.00     0.043 A 
HETATM    2  C   UNL     1       9.333  -0.349  22.378  1.00  0.00     0.101 A 
HETATM    3  C   UNL     1       8.553  -1.279  22.359  1.00  0.00     0.052 A 
ENDROOT
BRANCH   3   4
HETATM    4  C   UNL     1       8.121  -2.569  22.979  1.00  0.00     0.255 C 
HETATM    5  O   UNL     1       8.887  -3.223  23.622  1.00  0.00    -0.268 OA
HETATM    6  N   UNL     1       6.866  -2.821  22.680  1.00  0.00    -0.315 N 
ATOM      7  HN  UNL     1       6.388  -2.208  22.020  1.00  0.00     0.170 HD
BRANCH   6   8
HETATM    8  C   UNL     1       6.213  -3.813  23.187  1.00  0.00     0.105 A 
HETATM    9  S   UNL     1       6.180  -5.386  22.551  1.00  0.00    -0.020 SA
HETATM   10  N   UNL     1       5.188  -6.814  23.389  1.00  0.00    -0.323 N 
HETATM   11  C   UNL     1       5.210  -5.956  23.715  1.00  0.00     0.092 A 
ATOM     12  HN  UNL     1       4.876  -7.785  23.435  1.00  0.00     0.174 HD
HETATM   13  C   UNL     1       5.034  -4.818  24.466  1.00  0.00     0.060 A 
HETATM   14  C   UNL     1       5.463  -3.704  24.365  1.00  0.00     0.048 A 
HETATM   15 BR   UNL     1       5.309  -2.251  25.376  1.00  0.00    -0.048 Br
ENDBRANCH   6   8
ENDBRANCH   3   4
BRANCH   1  16
HETATM   16  C   UNL     1       7.553   0.226  20.431  1.00  0.00    -0.019 C 
BRANCH  16  17
HETATM   17  N   UNL     1       6.921   0.874  19.688  1.00  0.00    -0.230 N 
ATOM     18  HN  UNL     1       7.113   1.870  19.788  1.00  0.00     0.191 HD
BRANCH  17  19
HETATM   19  S   UNL     1       5.799   0.574  18.522  1.00  0.00     0.215 S 
HETATM   20  O   UNL     1       4.484   0.777  19.169  1.00  0.00    -0.577 OA
HETATM   21  O   UNL     1       6.001   1.493  17.435  1.00  0.00    -0.577 OA
HETATM   22  O   UNL     1       5.948  -0.773  18.059  1.00  0.00    -0.577 OA
ENDBRANCH  17  19
ENDBRANCH  16  17
ENDBRANCH   1  16
BRANCH   2  23
HETATM   23  C   UNL     1       9.583   0.637  23.463  1.00  0.00     0.255 C 
HETATM   24  O   UNL     1       9.514   1.218  24.280  1.00  0.00    -0.305 OA
ENDBRANCH   2  23
BRANCH   2  25
HETATM   25  C   UNL     1      10.708  -0.417  22.080  1.00  0.00    -0.000 C 
BRANCH  25  26
HETATM   26  C   UNL     1      11.464  -1.133  22.454  1.00  0.00    -0.012 C 
HETATM   27  C   UNL     1      12.036  -1.635  23.168  1.00  0.00     0.011 C 
ENDBRANCH  25  26
ENDBRANCH   2  25
TORSDOF 8
ENDMDL
