REMARK  8 active torsions:
REMARK  status: ('A' for Active; 'I' for Inactive)
REMARK    1  A    between atoms: S_2  and  N_5 
REMARK    2  A    between atoms: N_5  and  C_7 
REMARK    3  A    between atoms: C_7  and  C_8 
REMARK    4  A    between atoms: C_9  and  C_14 
REMARK    5  A    between atoms: C_9  and  C_10 
REMARK    6  A    between atoms: C_10  and  C_11 
REMARK    7  A    between atoms: C_15  and  C_16 
REMARK       I    between atoms: C_16  and  N_18 
REMARK    8  A    between atoms: N_18  and  C_20 
ROOT
HETATM    1  C   UNL     1       9.316  -1.963  23.550  1.00  0.00     0.043 A 
HETATM    2  C   UNL     1      10.635  -1.007  23.213  1.00  0.00     0.101 A 
HETATM    3  C   UNL     1       9.614  -0.784  22.595  1.00  0.00     0.052 A 
ENDROOT
BRANCH   3   4
HETATM    4  C   UNL     1       8.945   0.011  21.520  1.00  0.00     0.255 C 
HETATM    5  O   UNL     1       9.496   0.947  21.021  1.00  0.00    -0.268 OA
HETATM    6  N   UNL     1       7.743  -0.464  21.282  1.00  0.00    -0.315 N 
ATOM      7  HN  UNL     1       7.382  -1.204  21.884  1.00  0.00     0.170 HD
BRANCH   6   8
HETATM    8  C   UNL     1       7.000  -0.033  20.319  1.00  0.00     0.105 A 
HETATM    9  S   UNL     1       7.378  -0.147  18.668  1.00  0.00    -0.020 SA
HETATM   10  N   UNL     1       6.194   0.511  17.293  1.00  0.00    -0.323 N 
HETATM   11  C   UNL     1       6.009   0.572  18.190  1.00  0.00     0.092 A 
ATOM     12  HN  UNL     1       5.955   0.670  16.314  1.00  0.00     0.174 HD
HETATM   13  C   UNL     1       5.421   0.813  19.409  1.00  0.00     0.060 A 
HETATM   14  C   UNL     1       5.752   0.567  20.534  1.00  0.00     0.048 A 
HETATM   15 BR   UNL     1       4.961   0.799  22.108  1.00  0.00    -0.048 Br
ENDBRANCH   6   8
ENDBRANCH   3   4
BRANCH   1  16
HETATM   16  C   UNL     1       8.828  -2.802  24.108  1.00  0.00    -0.019 C 
BRANCH  16  17
HETATM   17  N   UNL     1       8.165  -3.620  24.622  1.00  0.00    -0.230 N 
ATOM     18  HN  UNL     1       7.440  -3.974  23.998  1.00  0.00     0.191 HD
BRANCH  17  19
HETATM   19  S   UNL     1       8.115  -4.339  26.101  1.00  0.00     0.215 S 
HETATM   20  O   UNL     1       6.723  -4.812  26.270  1.00  0.00    -0.577 OA
HETATM   21  O   UNL     1       9.050  -5.431  26.119  1.00  0.00    -0.577 OA
HETATM   22  O   UNL     1       8.463  -3.379  27.105  1.00  0.00    -0.577 OA
ENDBRANCH  17  19
ENDBRANCH  16  17
ENDBRANCH   1  16
BRANCH   2  23
HETATM   23  C   UNL     1      11.951  -1.476  22.704  1.00  0.00     0.255 C 
HETATM   24  O   UNL     1      12.921  -1.555  22.451  1.00  0.00    -0.305 OA
ENDBRANCH   2  23
BRANCH   2  25
HETATM   25  C   UNL     1      11.263  -0.127  24.116  1.00  0.00    -0.000 C 
BRANCH  25  26
HETATM   26  C   UNL     1      12.318   0.206  24.140  1.00  0.00    -0.012 C 
HETATM   27  C   UNL     1      13.322   0.223  23.859  1.00  0.00     0.011 C 
ENDBRANCH  25  26
ENDBRANCH   2  25
TORSDOF 8
