MODEL 1
REMARK VINA RESULT:    -5.795      0.000      0.000
REMARK INTER + INTRA:          -9.476
REMARK INTER:                  -8.166
REMARK INTRA:                  -1.310
REMARK UNBOUND:                -1.310
REMARK  7 active torsions:
REMARK  status: ('A' for Active; 'I' for Inactive)
REMARK    1  A    between atoms: S_2  and  N_5 
REMARK    2  A    between atoms: N_5  and  C_7 
REMARK    3  A    between atoms: C_8  and  C_9 
REMARK    4  A    between atoms: C_9  and  C_12 
REMARK    5  A    between atoms: C_9  and  C_10 
REMARK    6  A    between atoms: C_12  and  C_13 
REMARK       I    between atoms: C_13  and  N_15 
REMARK    7  A    between atoms: N_15  and  C_17 
ROOT
HETATM    1  C   UNL     1       9.621  18.938   1.012  1.00  0.00    -0.035 C 
ENDROOT
BRANCH   1   2
HETATM    2  C   UNL     1       9.757  20.062   0.705  1.00  0.00     0.069 C 
BRANCH   2   3
HETATM    3  C   UNL     1      10.754  20.310   1.718  1.00  0.00    -0.034 C 
HETATM    4  C   UNL     1      11.252  20.419   2.649  1.00  0.00     0.028 C 
BRANCH   4   5
HETATM    5  N   UNL     1      12.027  20.319   3.512  1.00  0.00    -0.223 N 
ATOM      6  HN  UNL     1      12.685  21.092   3.609  1.00  0.00     0.192 HD
BRANCH   5   7
HETATM    7  S   UNL     1      12.200  19.110   4.582  1.00  0.00     0.216 S 
HETATM    8  O   UNL     1      10.787  18.617   4.826  1.00  0.00    -0.577 OA
HETATM    9  O   UNL     1      13.027  18.066   4.015  1.00  0.00    -0.577 OA
HETATM   10  O   UNL     1      12.784  19.640   5.769  1.00  0.00    -0.577 OA
ENDBRANCH   5   7
ENDBRANCH   4   5
ENDBRANCH   2   3
BRANCH   2  11
HETATM   11  C   UNL     1       8.908  20.843  -0.209  1.00  0.00     0.019 C 
HETATM   12  C   UNL     1       7.846  20.897   0.490  1.00  0.00     0.013 C 
ENDBRANCH   2  11
ENDBRANCH   1   2
BRANCH   1  13
HETATM   13  C   UNL     1       9.558  17.597   1.157  1.00  0.00     0.295 C 
HETATM   14  O   UNL     1       9.555  17.002   0.181  1.00  0.00    -0.258 OA
HETATM   15  N   UNL     1       9.456  17.177   2.440  1.00  0.00    -0.300 N 
ATOM     16  HN  UNL     1       9.462  17.854   3.202  1.00  0.00     0.171 HD
BRANCH  15  17
HETATM   17  C   UNL     1       9.351  15.922   2.692  1.00  0.00     0.146 A 
HETATM   18  N   UNL     1      10.342  14.955   2.495  1.00  0.00    -0.284 N 
HETATM   19  N   UNL     1      10.021  13.802   2.904  1.00  0.00    -0.309 N 
ATOM     20  HN  UNL     1      11.242  15.161   2.061  1.00  0.00     0.188 HD
HETATM   21  C   UNL     1       8.821  13.893   3.415  1.00  0.00     0.135 A 
ATOM     22  HN  UNL     1      10.593  12.959   2.847  1.00  0.00     0.186 HD
HETATM   23  C   UNL     1       8.270  15.314   3.266  1.00  0.00     0.096 A 
HETATM   24 CL   UNL     1       6.814  16.023   3.646  1.00  0.00    -0.079 Cl
ENDBRANCH  15  17
ENDBRANCH   1  13
TORSDOF 7
ENDMDL
MODEL 2
REMARK VINA RESULT:    -5.780      2.979      4.496
REMARK INTER + INTRA:          -9.455
REMARK INTER:                  -8.322
REMARK INTRA:                  -1.133
REMARK UNBOUND:                -1.310
REMARK  7 active torsions:
REMARK  status: ('A' for Active; 'I' for Inactive)
REMARK    1  A    between atoms: S_2  and  N_5 
REMARK    2  A    between atoms: N_5  and  C_7 
REMARK    3  A    between atoms: C_8  and  C_9 
REMARK    4  A    between atoms: C_9  and  C_12 
REMARK    5  A    between atoms: C_9  and  C_10 
REMARK    6  A    between atoms: C_12  and  C_13 
REMARK       I    between atoms: C_13  and  N_15 
REMARK    7  A    between atoms: N_15  and  C_17 
ROOT
HETATM    1  C   UNL     1       9.454  18.697   1.540  1.00  0.00    -0.035 C 
ENDROOT
BRANCH   1   2
HETATM    2  C   UNL     1       8.654  18.250   0.807  1.00  0.00     0.069 C 
BRANCH   2   3
HETATM    3  C   UNL     1       8.903  16.891   1.221  1.00  0.00    -0.034 C 
HETATM    4  C   UNL     1       9.371  15.960   1.424  1.00  0.00     0.028 C 
BRANCH   4   5
HETATM    5  N   UNL     1       9.746  15.001   1.967  1.00  0.00    -0.223 N 
ATOM      6  HN  UNL     1       9.909  14.189   1.372  1.00  0.00     0.192 HD
BRANCH   5   7
HETATM    7  S   UNL     1      10.046  14.786   3.548  1.00  0.00     0.216 S 
HETATM    8  O   UNL     1      11.515  15.126   3.704  1.00  0.00    -0.577 OA
HETATM    9  O   UNL     1       9.217  15.678   4.332  1.00  0.00    -0.577 OA
HETATM   10  O   UNL     1       9.784  13.423   3.874  1.00  0.00    -0.577 OA
ENDBRANCH   5   7
ENDBRANCH   4   5
ENDBRANCH   2   3
BRANCH   2  11
HETATM   11  C   UNL     1       7.959  18.952  -0.285  1.00  0.00     0.019 C 
HETATM   12  C   UNL     1       7.650  20.026   0.322  1.00  0.00     0.013 C 
ENDBRANCH   2  11
ENDBRANCH   1   2
BRANCH   1  13
HETATM   13  C   UNL     1      10.484  19.007   2.355  1.00  0.00     0.295 C 
HETATM   14  O   UNL     1      11.248  19.736   1.917  1.00  0.00    -0.258 OA
HETATM   15  N   UNL     1      10.471  18.361   3.545  1.00  0.00    -0.300 N 
ATOM     16  HN  UNL     1       9.708  17.725   3.773  1.00  0.00     0.171 HD
BRANCH  15  17
HETATM   17  C   UNL     1      11.425  18.553   4.384  1.00  0.00     0.146 A 
HETATM   18  N   UNL     1      12.723  18.044   4.288  1.00  0.00    -0.284 N 
HETATM   19  N   UNL     1      13.502  18.451   5.199  1.00  0.00    -0.309 N 
ATOM     20  HN  UNL     1      13.017  17.403   3.550  1.00  0.00     0.188 HD
HETATM   21  C   UNL     1      12.815  19.262   5.960  1.00  0.00     0.135 A 
ATOM     22  HN  UNL     1      14.482  18.193   5.316  1.00  0.00     0.186 HD
HETATM   23  C   UNL     1      11.360  19.351   5.491  1.00  0.00     0.096 A 
HETATM   24 CL   UNL     1      10.016  20.143   6.071  1.00  0.00    -0.079 Cl
ENDBRANCH  15  17
ENDBRANCH   1  13
TORSDOF 7
ENDMDL
MODEL 3
REMARK VINA RESULT:    -5.756     28.096     30.916
REMARK INTER + INTRA:          -9.421
REMARK INTER:                  -8.447
REMARK INTRA:                  -0.974
REMARK UNBOUND:                -1.310
REMARK  7 active torsions:
REMARK  status: ('A' for Active; 'I' for Inactive)
REMARK    1  A    between atoms: S_2  and  N_5 
REMARK    2  A    between atoms: N_5  and  C_7 
REMARK    3  A    between atoms: C_8  and  C_9 
REMARK    4  A    between atoms: C_9  and  C_12 
REMARK    5  A    between atoms: C_9  and  C_10 
REMARK    6  A    between atoms: C_12  and  C_13 
REMARK       I    between atoms: C_13  and  N_15 
REMARK    7  A    between atoms: N_15  and  C_17 
ROOT
HETATM    1  C   UNL     1       7.474  -3.975  22.837  1.00  0.00    -0.035 C 
ENDROOT
BRANCH   1   2
HETATM    2  C   UNL     1       7.113  -5.091  22.880  1.00  0.00     0.069 C 
BRANCH   2   3
HETATM    3  C   UNL     1       7.000  -5.093  24.318  1.00  0.00    -0.034 C 
HETATM    4  C   UNL     1       7.121  -5.326  25.347  1.00  0.00     0.028 C 
BRANCH   4   5
HETATM    5  N   UNL     1       7.320  -5.234  26.490  1.00  0.00    -0.223 N 
ATOM      6  HN  UNL     1       8.191  -4.772  26.752  1.00  0.00     0.192 HD
BRANCH   5   7
HETATM    7  S   UNL     1       6.395  -5.743  27.722  1.00  0.00     0.216 S 
HETATM    8  O   UNL     1       5.511  -6.814  27.114  1.00  0.00    -0.577 OA
HETATM    9  O   UNL     1       7.230  -6.289  28.772  1.00  0.00    -0.577 OA
HETATM   10  O   UNL     1       5.630  -4.638  28.197  1.00  0.00    -0.577 OA
ENDBRANCH   5   7
ENDBRANCH   4   5
ENDBRANCH   2   3
BRANCH   2  11
HETATM   11  C   UNL     1       7.125  -6.072  21.781  1.00  0.00     0.019 C 
HETATM   12  C   UNL     1       6.082  -5.695  21.157  1.00  0.00     0.013 C 
ENDBRANCH   2  11
ENDBRANCH   1   2
BRANCH   1  13
HETATM   13  C   UNL     1       7.925  -2.733  22.563  1.00  0.00     0.295 C 
HETATM   14  O   UNL     1       7.172  -2.046  22.044  1.00  0.00    -0.258 OA
HETATM   15  N   UNL     1       9.218  -2.519  22.902  1.00  0.00    -0.300 N 
ATOM     16  HN  UNL     1       9.757  -3.257  23.353  1.00  0.00     0.171 HD
BRANCH  15  17
HETATM   17  C   UNL     1       9.762  -1.383  22.651  1.00  0.00     0.146 A 
HETATM   18  N   UNL     1      10.067  -0.875  21.385  1.00  0.00    -0.284 N 
HETATM   19  N   UNL     1      10.519   0.306  21.401  1.00  0.00    -0.309 N 
ATOM     20  HN  UNL     1       9.936  -1.409  20.525  1.00  0.00     0.188 HD
HETATM   21  C   UNL     1      10.543   0.693  22.650  1.00  0.00     0.135 A 
ATOM     22  HN  UNL     1      10.811   0.854  20.592  1.00  0.00     0.186 HD
HETATM   23  C   UNL     1      10.079  -0.432  23.580  1.00  0.00     0.096 A 
HETATM   24 CL   UNL     1       9.955  -0.574  25.233  1.00  0.00    -0.079 Cl
ENDBRANCH  15  17
ENDBRANCH   1  13
TORSDOF 7
ENDMDL
MODEL 4
REMARK VINA RESULT:    -5.739     27.084     29.791
REMARK INTER + INTRA:          -9.397
REMARK INTER:                  -8.550
REMARK INTRA:                  -0.847
REMARK UNBOUND:                -1.310
REMARK  7 active torsions:
REMARK  status: ('A' for Active; 'I' for Inactive)
REMARK    1  A    between atoms: S_2  and  N_5 
REMARK    2  A    between atoms: N_5  and  C_7 
REMARK    3  A    between atoms: C_8  and  C_9 
REMARK    4  A    between atoms: C_9  and  C_12 
REMARK    5  A    between atoms: C_9  and  C_10 
REMARK    6  A    between atoms: C_12  and  C_13 
REMARK       I    between atoms: C_13  and  N_15 
REMARK    7  A    between atoms: N_15  and  C_17 
ROOT
HETATM    1  C   UNL     1       9.126  -2.672  23.710  1.00  0.00    -0.035 C 
ENDROOT
BRANCH   1   2
HETATM    2  C   UNL     1       9.780  -1.947  23.059  1.00  0.00     0.069 C 
BRANCH   2   3
HETATM    3  C   UNL     1       8.702  -1.652  22.146  1.00  0.00    -0.034 C 
HETATM    4  C   UNL     1       7.790  -1.305  21.728  1.00  0.00     0.028 C 
BRANCH   4   5
HETATM    5  N   UNL     1       7.014  -0.780  21.037  1.00  0.00    -0.223 N 
ATOM      6  HN  UNL     1       6.084  -1.199  21.016  1.00  0.00     0.192 HD
BRANCH   5   7
HETATM    7  S   UNL     1       7.216   0.531  20.103  1.00  0.00     0.216 S 
HETATM    8  O   UNL     1       5.806   0.991  19.787  1.00  0.00    -0.577 OA
HETATM    9  O   UNL     1       7.947   1.547  20.832  1.00  0.00    -0.577 OA
HETATM   10  O   UNL     1       7.917   0.141  18.925  1.00  0.00    -0.577 OA
ENDBRANCH   5   7
ENDBRANCH   4   5
ENDBRANCH   2   3
BRANCH   2  11
HETATM   11  C   UNL     1      11.239  -1.764  23.125  1.00  0.00     0.019 C 
HETATM   12  C   UNL     1      11.292  -0.845  24.004  1.00  0.00     0.013 C 
ENDBRANCH   2  11
ENDBRANCH   1   2
BRANCH   1  13
HETATM   13  C   UNL     1       8.530  -3.669  24.399  1.00  0.00     0.295 C 
HETATM   14  O   UNL     1       8.152  -4.541  23.763  1.00  0.00    -0.258 OA
HETATM   15  N   UNL     1       8.432  -3.447  25.730  1.00  0.00    -0.300 N 
ATOM     16  HN  UNL     1       8.819  -2.597  26.138  1.00  0.00     0.171 HD
BRANCH  15  17
HETATM   17  C   UNL     1       7.848  -4.314  26.478  1.00  0.00     0.146 A 
HETATM   18  N   UNL     1       8.365  -5.555  26.861  1.00  0.00    -0.284 N 
HETATM   19  N   UNL     1       7.631  -6.188  27.674  1.00  0.00    -0.309 N 
ATOM     20  HN  UNL     1       9.255  -5.918  26.516  1.00  0.00     0.188 HD
HETATM   21  C   UNL     1       6.587  -5.438  27.916  1.00  0.00     0.135 A 
ATOM     22  HN  UNL     1       7.818  -7.110  28.067  1.00  0.00     0.186 HD
HETATM   23  C   UNL     1       6.639  -4.147  27.093  1.00  0.00     0.096 A 
HETATM   24 CL   UNL     1       5.601  -2.859  26.916  1.00  0.00    -0.079 Cl
ENDBRANCH  15  17
ENDBRANCH   1  13
TORSDOF 7
ENDMDL
MODEL 5
REMARK VINA RESULT:    -5.730     26.436     28.435
REMARK INTER + INTRA:          -9.384
REMARK INTER:                  -7.881
REMARK INTRA:                  -1.504
REMARK UNBOUND:                -1.310
REMARK  7 active torsions:
REMARK  status: ('A' for Active; 'I' for Inactive)
REMARK    1  A    between atoms: S_2  and  N_5 
REMARK    2  A    between atoms: N_5  and  C_7 
REMARK    3  A    between atoms: C_8  and  C_9 
REMARK    4  A    between atoms: C_9  and  C_12 
REMARK    5  A    between atoms: C_9  and  C_10 
REMARK    6  A    between atoms: C_12  and  C_13 
REMARK       I    between atoms: C_13  and  N_15 
REMARK    7  A    between atoms: N_15  and  C_17 
ROOT
HETATM    1  C   UNL     1       7.926  -1.064  21.486  1.00  0.00    -0.035 C 
ENDROOT
BRANCH   1   2
HETATM    2  C   UNL     1       8.185  -0.231  20.702  1.00  0.00     0.069 C 
BRANCH   2   3
HETATM    3  C   UNL     1       9.447   0.087  21.324  1.00  0.00    -0.034 C 
HETATM    4  C   UNL     1      10.189   0.408  22.012  1.00  0.00     0.028 C 
BRANCH   4   5
HETATM    5  N   UNL     1      11.128   0.435  22.699  1.00  0.00    -0.223 N 
ATOM      6  HN  UNL     1      11.655   1.309  22.695  1.00  0.00     0.192 HD
BRANCH   5   7
HETATM    7  S   UNL     1      11.710  -0.733  23.664  1.00  0.00     0.216 S 
HETATM    8  O   UNL     1      10.520  -1.160  24.500  1.00  0.00    -0.577 OA
HETATM    9  O   UNL     1      12.207  -1.831  22.862  1.00  0.00    -0.577 OA
HETATM   10  O   UNL     1      12.746  -0.176  24.470  1.00  0.00    -0.577 OA
ENDBRANCH   5   7
ENDBRANCH   4   5
ENDBRANCH   2   3
BRANCH   2  11
HETATM   11  C   UNL     1       7.285   0.351  19.693  1.00  0.00     0.019 C 
HETATM   12  C   UNL     1       6.576   1.090  20.449  1.00  0.00     0.013 C 
ENDBRANCH   2  11
ENDBRANCH   1   2
BRANCH   1  13
HETATM   13  C   UNL     1       7.622  -1.848  22.542  1.00  0.00     0.295 C 
HETATM   14  O   UNL     1       6.736  -1.494  23.172  1.00  0.00    -0.258 OA
HETATM   15  N   UNL     1       8.453  -2.903  22.714  1.00  0.00    -0.300 N 
ATOM     16  HN  UNL     1       9.213  -3.068  22.055  1.00  0.00     0.171 HD
BRANCH  15  17
HETATM   17  C   UNL     1       8.278  -3.695  23.710  1.00  0.00     0.146 A 
HETATM   18  N   UNL     1       8.536  -3.401  25.053  1.00  0.00    -0.284 N 
HETATM   19  N   UNL     1       8.198  -4.321  25.853  1.00  0.00    -0.309 N 
ATOM     20  HN  UNL     1       8.959  -2.525  25.359  1.00  0.00     0.188 HD
HETATM   21  C   UNL     1       7.680  -5.285  25.137  1.00  0.00     0.135 A 
ATOM     22  HN  UNL     1       8.308  -4.312  26.867  1.00  0.00     0.186 HD
HETATM   23  C   UNL     1       7.741  -4.950  23.643  1.00  0.00     0.096 A 
HETATM   24 CL   UNL     1       7.315  -5.779  22.265  1.00  0.00    -0.079 Cl
ENDBRANCH  15  17
ENDBRANCH   1  13
TORSDOF 7
ENDMDL
MODEL 6
REMARK VINA RESULT:    -5.626      7.075      9.455
REMARK INTER + INTRA:          -9.238
REMARK INTER:                  -8.414
REMARK INTRA:                  -0.824
REMARK UNBOUND:                -1.310
REMARK  7 active torsions:
REMARK  status: ('A' for Active; 'I' for Inactive)
REMARK    1  A    between atoms: S_2  and  N_5 
REMARK    2  A    between atoms: N_5  and  C_7 
REMARK    3  A    between atoms: C_8  and  C_9 
REMARK    4  A    between atoms: C_9  and  C_12 
REMARK    5  A    between atoms: C_9  and  C_10 
REMARK    6  A    between atoms: C_12  and  C_13 
REMARK       I    between atoms: C_13  and  N_15 
REMARK    7  A    between atoms: N_15  and  C_17 
ROOT
HETATM    1  C   UNL     1       5.525   9.961   3.420  1.00  0.00    -0.035 C 
ENDROOT
BRANCH   1   2
HETATM    2  C   UNL     1       5.513  10.915   2.738  1.00  0.00     0.069 C 
BRANCH   2   3
HETATM    3  C   UNL     1       6.892  11.238   3.014  1.00  0.00    -0.034 C 
HETATM    4  C   UNL     1       7.839  11.718   3.038  1.00  0.00     0.028 C 
BRANCH   4   5
HETATM    5  N   UNL     1       8.825  12.210   3.414  1.00  0.00    -0.223 N 
ATOM      6  HN  UNL     1       9.611  11.576   3.553  1.00  0.00     0.192 HD
BRANCH   5   7
HETATM    7  S   UNL     1       9.113  13.772   3.745  1.00  0.00     0.216 S 
HETATM    8  O   UNL     1       7.931  14.204   4.591  1.00  0.00    -0.577 OA
HETATM    9  O   UNL     1      10.355  13.898   4.480  1.00  0.00    -0.577 OA
HETATM   10  O   UNL     1       9.170  14.490   2.515  1.00  0.00    -0.577 OA
ENDBRANCH   5   7
ENDBRANCH   4   5
ENDBRANCH   2   3
BRANCH   2  11
HETATM   11  C   UNL     1       4.337  11.565   2.137  1.00  0.00     0.019 C 
HETATM   12  C   UNL     1       4.361  12.667   2.773  1.00  0.00     0.013 C 
ENDBRANCH   2  11
ENDBRANCH   1   2
BRANCH   1  13
HETATM   13  C   UNL     1       5.309   8.854   4.162  1.00  0.00     0.295 C 
HETATM   14  O   UNL     1       5.693   8.907   5.238  1.00  0.00    -0.258 OA
HETATM   15  N   UNL     1       4.717   7.837   3.492  1.00  0.00    -0.300 N 
ATOM     16  HN  UNL     1       4.447   7.957   2.516  1.00  0.00     0.171 HD
BRANCH  15  17
HETATM   17  C   UNL     1       4.499   6.722   4.090  1.00  0.00     0.146 A 
HETATM   18  N   UNL     1       5.470   5.815   4.527  1.00  0.00    -0.284 N 
HETATM   19  N   UNL     1       5.001   4.831   5.168  1.00  0.00    -0.309 N 
ATOM     20  HN  UNL     1       6.466   5.937   4.344  1.00  0.00     0.188 HD
HETATM   21  C   UNL     1       3.705   4.993   5.232  1.00  0.00     0.135 A 
ATOM     22  HN  UNL     1       5.534   4.056   5.562  1.00  0.00     0.186 HD
HETATM   23  C   UNL     1       3.273   6.252   4.472  1.00  0.00     0.096 A 
HETATM   24 CL   UNL     1       1.795   6.940   4.142  1.00  0.00    -0.079 Cl
ENDBRANCH  15  17
ENDBRANCH   1  13
TORSDOF 7
ENDMDL
MODEL 7
REMARK VINA RESULT:    -5.602      2.992      3.578
REMARK INTER + INTRA:          -9.204
REMARK INTER:                  -7.731
REMARK INTRA:                  -1.473
REMARK UNBOUND:                -1.310
REMARK  7 active torsions:
REMARK  status: ('A' for Active; 'I' for Inactive)
REMARK    1  A    between atoms: S_2  and  N_5 
REMARK    2  A    between atoms: N_5  and  C_7 
REMARK    3  A    between atoms: C_8  and  C_9 
REMARK    4  A    between atoms: C_9  and  C_12 
REMARK    5  A    between atoms: C_9  and  C_10 
REMARK    6  A    between atoms: C_12  and  C_13 
REMARK       I    between atoms: C_13  and  N_15 
REMARK    7  A    between atoms: N_15  and  C_17 
ROOT
HETATM    1  C   UNL     1       8.495  16.470   1.814  1.00  0.00    -0.035 C 
ENDROOT
BRANCH   1   2
HETATM    2  C   UNL     1       8.624  17.629   1.943  1.00  0.00     0.069 C 
BRANCH   2   3
HETATM    3  C   UNL     1       9.332  17.501   3.194  1.00  0.00    -0.034 C 
HETATM    4  C   UNL     1       9.565  17.421   4.226  1.00  0.00     0.028 C 
BRANCH   4   5
HETATM    5  N   UNL     1       9.994  17.047   5.242  1.00  0.00    -0.223 N 
ATOM      6  HN  UNL     1      10.557  17.721   5.760  1.00  0.00     0.192 HD
BRANCH   5   7
HETATM    7  S   UNL     1       9.813  15.595   5.943  1.00  0.00     0.216 S 
HETATM    8  O   UNL     1      10.507  14.631   5.000  1.00  0.00    -0.577 OA
HETATM    9  O   UNL     1      10.443  15.596   7.247  1.00  0.00    -0.577 OA
HETATM   10  O   UNL     1       8.419  15.315   6.048  1.00  0.00    -0.577 OA
ENDBRANCH   5   7
ENDBRANCH   4   5
ENDBRANCH   2   3
BRANCH   2  11
HETATM   11  C   UNL     1       7.967  18.690   1.162  1.00  0.00     0.019 C 
HETATM   12  C   UNL     1       8.625  18.587   0.078  1.00  0.00     0.013 C 
ENDBRANCH   2  11
ENDBRANCH   1   2
BRANCH   1  13
HETATM   13  C   UNL     1       8.485  15.121   1.851  1.00  0.00     0.295 C 
HETATM   14  O   UNL     1       8.953  14.606   0.943  1.00  0.00    -0.258 OA
HETATM   15  N   UNL     1       7.874  14.595   2.939  1.00  0.00    -0.300 N 
ATOM     16  HN  UNL     1       7.495  15.209   3.660  1.00  0.00     0.171 HD
BRANCH  15  17
HETATM   17  C   UNL     1       7.775  13.320   3.058  1.00  0.00     0.146 A 
HETATM   18  N   UNL     1       8.811  12.437   3.374  1.00  0.00    -0.284 N 
HETATM   19  N   UNL     1       8.437  11.237   3.519  1.00  0.00    -0.309 N 
ATOM     20  HN  UNL     1       9.782  12.733   3.479  1.00  0.00     0.188 HD
HETATM   21  C   UNL     1       7.143  11.211   3.333  1.00  0.00     0.135 A 
ATOM     22  HN  UNL     1       9.033  10.440   3.740  1.00  0.00     0.186 HD
HETATM   23  C   UNL     1       6.615  12.602   2.965  1.00  0.00     0.096 A 
HETATM   24 CL   UNL     1       5.112  13.185   2.554  1.00  0.00    -0.079 Cl
ENDBRANCH  15  17
ENDBRANCH   1  13
TORSDOF 7
ENDMDL
MODEL 8
REMARK VINA RESULT:    -5.503     25.461     28.038
REMARK INTER + INTRA:          -9.065
REMARK INTER:                  -7.848
REMARK INTRA:                  -1.217
REMARK UNBOUND:                -1.310
REMARK  7 active torsions:
REMARK  status: ('A' for Active; 'I' for Inactive)
REMARK    1  A    between atoms: S_2  and  N_5 
REMARK    2  A    between atoms: N_5  and  C_7 
REMARK    3  A    between atoms: C_8  and  C_9 
REMARK    4  A    between atoms: C_9  and  C_12 
REMARK    5  A    between atoms: C_9  and  C_10 
REMARK    6  A    between atoms: C_12  and  C_13 
REMARK       I    between atoms: C_13  and  N_15 
REMARK    7  A    between atoms: N_15  and  C_17 
ROOT
HETATM    1  C   UNL     1       8.785  -1.197  22.473  1.00  0.00    -0.035 C 
ENDROOT
BRANCH   1   2
HETATM    2  C   UNL     1       9.241  -0.121  22.367  1.00  0.00     0.069 C 
BRANCH   2   3
HETATM    3  C   UNL     1       8.561   0.140  21.121  1.00  0.00    -0.034 C 
HETATM    4  C   UNL     1       7.875   0.110  20.312  1.00  0.00     0.028 C 
BRANCH   4   5
HETATM    5  N   UNL     1       7.108   0.424  19.494  1.00  0.00    -0.223 N 
ATOM      6  HN  UNL     1       7.365   1.239  18.936  1.00  0.00     0.192 HD
BRANCH   5   7
HETATM    7  S   UNL     1       5.685  -0.262  19.124  1.00  0.00     0.216 S 
HETATM    8  O   UNL     1       5.605  -1.477  20.027  1.00  0.00    -0.577 OA
HETATM    9  O   UNL     1       4.606   0.664  19.397  1.00  0.00    -0.577 OA
HETATM   10  O   UNL     1       5.708  -0.631  17.747  1.00  0.00    -0.577 OA
ENDBRANCH   5   7
ENDBRANCH   4   5
ENDBRANCH   2   3
BRANCH   2  11
HETATM   11  C   UNL     1      10.332   0.465  23.162  1.00  0.00     0.019 C 
HETATM   12  C   UNL     1       9.710   0.664  24.254  1.00  0.00     0.013 C 
ENDBRANCH   2  11
ENDBRANCH   1   2
BRANCH   1  13
HETATM   13  C   UNL     1       8.431  -2.470  22.750  1.00  0.00     0.295 C 
HETATM   14  O   UNL     1       9.143  -3.032  23.447  1.00  0.00    -0.258 OA
HETATM   15  N   UNL     1       7.313  -2.891  22.115  1.00  0.00    -0.300 N 
ATOM     16  HN  UNL     1       6.797  -2.253  21.510  1.00  0.00     0.171 HD
BRANCH  15  17
HETATM   17  C   UNL     1       6.905  -4.098  22.277  1.00  0.00     0.146 A 
HETATM   18  N   UNL     1       7.529  -5.252  21.793  1.00  0.00    -0.284 N 
HETATM   19  N   UNL     1       6.975  -6.328  22.163  1.00  0.00    -0.309 N 
ATOM     20  HN  UNL     1       8.357  -5.229  21.197  1.00  0.00     0.188 HD
HETATM   21  C   UNL     1       5.963  -6.000  22.923  1.00  0.00     0.135 A 
ATOM     22  HN  UNL     1       7.265  -7.274  21.915  1.00  0.00     0.186 HD
HETATM   23  C   UNL     1       5.818  -4.478  23.014  1.00  0.00     0.096 A 
HETATM   24 CL   UNL     1       4.716  -3.474  23.752  1.00  0.00    -0.079 Cl
ENDBRANCH  15  17
ENDBRANCH   1  13
TORSDOF 7
ENDMDL
MODEL 9
REMARK VINA RESULT:    -5.492      3.749      5.611
REMARK INTER + INTRA:          -9.050
REMARK INTER:                  -7.989
REMARK INTRA:                  -1.061
REMARK UNBOUND:                -1.310
REMARK  7 active torsions:
REMARK  status: ('A' for Active; 'I' for Inactive)
REMARK    1  A    between atoms: S_2  and  N_5 
REMARK    2  A    between atoms: N_5  and  C_7 
REMARK    3  A    between atoms: C_8  and  C_9 
REMARK    4  A    between atoms: C_9  and  C_12 
REMARK    5  A    between atoms: C_9  and  C_10 
REMARK    6  A    between atoms: C_12  and  C_13 
REMARK       I    between atoms: C_13  and  N_15 
REMARK    7  A    between atoms: N_15  and  C_17 
ROOT
HETATM    1  C   UNL     1       8.748  17.156   2.700  1.00  0.00    -0.035 C 
ENDROOT
BRANCH   1   2
HETATM    2  C   UNL     1       8.075  17.079   1.742  1.00  0.00     0.069 C 
BRANCH   2   3
HETATM    3  C   UNL     1       7.904  15.652   1.868  1.00  0.00    -0.034 C 
HETATM    4  C   UNL     1       8.081  14.605   1.893  1.00  0.00     0.028 C 
BRANCH   4   5
HETATM    5  N   UNL     1       8.124  13.494   2.238  1.00  0.00    -0.223 N 
ATOM      6  HN  UNL     1       7.892  12.800   1.528  1.00  0.00     0.192 HD
BRANCH   5   7
HETATM    7  S   UNL     1       8.503  12.904   3.701  1.00  0.00     0.216 S 
HETATM    8  O   UNL     1       7.405  13.416   4.612  1.00  0.00    -0.577 OA
HETATM    9  O   UNL     1       8.516  11.456   3.660  1.00  0.00    -0.577 OA
HETATM   10  O   UNL     1       9.779  13.417   4.076  1.00  0.00    -0.577 OA
ENDBRANCH   5   7
ENDBRANCH   4   5
ENDBRANCH   2   3
BRANCH   2  11
HETATM   11  C   UNL     1       7.845  18.123   0.730  1.00  0.00     0.019 C 
HETATM   12  C   UNL     1       8.968  18.084   0.133  1.00  0.00     0.013 C 
ENDBRANCH   2  11
ENDBRANCH   1   2
BRANCH   1  13
HETATM   13  C   UNL     1       9.565  17.462   3.730  1.00  0.00     0.295 C 
HETATM   14  O   UNL     1       9.347  16.906   4.705  1.00  0.00    -0.258 OA
HETATM   15  N   UNL     1      10.481  18.419   3.452  1.00  0.00    -0.300 N 
ATOM     16  HN  UNL     1      10.531  18.824   2.518  1.00  0.00     0.171 HD
BRANCH  15  17
HETATM   17  C   UNL     1      11.286  18.815   4.371  1.00  0.00     0.146 A 
HETATM   18  N   UNL     1      11.927  18.004   5.312  1.00  0.00    -0.284 N 
HETATM   19  N   UNL     1      12.740  18.625   6.057  1.00  0.00    -0.309 N 
ATOM     20  HN  UNL     1      11.756  17.001   5.392  1.00  0.00     0.188 HD
HETATM   21  C   UNL     1      12.729  19.877   5.680  1.00  0.00     0.135 A 
ATOM     22  HN  UNL     1      13.300  18.224   6.809  1.00  0.00     0.186 HD
HETATM   23  C   UNL     1      11.717  20.100   4.552  1.00  0.00     0.096 A 
HETATM   24 CL   UNL     1      11.208  21.447   3.719  1.00  0.00    -0.079 Cl
ENDBRANCH  15  17
ENDBRANCH   1  13
TORSDOF 7
ENDMDL
