REMARK  7 active torsions:
REMARK  status: ('A' for Active; 'I' for Inactive)
REMARK    1  A    between atoms: S_2  and  N_5 
REMARK    2  A    between atoms: N_5  and  C_7 
REMARK    3  A    between atoms: C_8  and  C_9 
REMARK    4  A    between atoms: C_9  and  C_12 
REMARK    5  A    between atoms: C_9  and  C_10 
REMARK    6  A    between atoms: C_12  and  C_13 
REMARK       I    between atoms: C_13  and  N_15 
REMARK    7  A    between atoms: N_15  and  C_17 
ROOT
HETATM    1  C   UNL     1       9.676  -0.682  22.414  1.00  0.00    -0.035 C 
ENDROOT
BRANCH   1   2
HETATM    2  C   UNL     1      10.333  -1.049  23.314  1.00  0.00     0.069 C 
BRANCH   2   3
HETATM    3  C   UNL     1       9.396  -2.078  23.694  1.00  0.00    -0.034 C 
HETATM    4  C   UNL     1       8.898  -2.857  24.216  1.00  0.00     0.028 C 
BRANCH   4   5
HETATM    5  N   UNL     1       8.078  -3.490  24.747  1.00  0.00    -0.223 N 
ATOM      6  HN  UNL     1       7.184  -3.555  24.260  1.00  0.00     0.192 HD
BRANCH   5   7
HETATM    7  S   UNL     1       8.169  -4.283  26.160  1.00  0.00     0.216 S 
HETATM    8  O   UNL     1       6.740  -4.693  26.456  1.00  0.00    -0.577 OA
HETATM    9  O   UNL     1       9.027  -5.441  26.020  1.00  0.00    -0.577 OA
HETATM   10  O   UNL     1       8.674  -3.387  27.147  1.00  0.00    -0.577 OA
ENDBRANCH   5   7
ENDBRANCH   4   5
ENDBRANCH   2   3
BRANCH   2  11
HETATM   11  C   UNL     1      11.514  -0.380  23.884  1.00  0.00     0.019 C 
HETATM   12  C   UNL     1      12.418  -0.896  23.152  1.00  0.00     0.013 C 
ENDBRANCH   2  11
ENDBRANCH   1   2
BRANCH   1  13
HETATM   13  C   UNL     1       9.053  -0.069  21.385  1.00  0.00     0.295 C 
HETATM   14  O   UNL     1       9.598   0.842  20.960  1.00  0.00    -0.258 OA
HETATM   15  N   UNL     1       7.854  -0.605  21.057  1.00  0.00    -0.300 N 
ATOM     16  HN  UNL     1       7.506  -1.424  21.555  1.00  0.00     0.171 HD
BRANCH  15  17
HETATM   17  C   UNL     1       7.157  -0.077  20.116  1.00  0.00     0.146 A 
HETATM   18  N   UNL     1       7.513  -0.005  18.766  1.00  0.00    -0.284 N 
HETATM   19  N   UNL     1       6.614   0.487  18.024  1.00  0.00    -0.309 N 
ATOM     20  HN  UNL     1       8.416  -0.321  18.411  1.00  0.00     0.188 HD
HETATM   21  C   UNL     1       5.592   0.768  18.790  1.00  0.00     0.135 A 
ATOM     22  HN  UNL     1       6.675   0.636  17.017  1.00  0.00     0.186 HD
HETATM   23  C   UNL     1       5.904   0.451  20.256  1.00  0.00     0.096 A 
HETATM   24 CL   UNL     1       5.058   0.646  21.675  1.00  0.00    -0.079 Cl
ENDBRANCH  15  17
ENDBRANCH   1  13
TORSDOF 7
