stable:False satoms:18 tatoms:24 sratio:0.75
  -OEChem-07092417373D

 24 23  0     0  0  0  0  0  0999 V2000
    6.8788   -4.5045   26.3797 F   0  0  0  0  0  0  0  0  0  0  0  0
    8.0929   -4.0853   26.0566 C   0  0  0  0  0  0  0  0  0  0  0  0
    8.7499   -5.0234   26.0186 H   0  0  0  0  0  0  0  0  0  0  0  0
    8.4683   -3.4456   26.9181 H   0  0  0  0  0  0  0  0  0  0  0  0
    7.9377   -3.4972   24.8481 N   0  0  0  0  0  0  0  0  0  0  0  0
    9.0771   -1.9305   24.0066 C   0  0  0  0  0  0  0  0  0  0  0  0
    8.2481   -2.3636   24.1134 N   0  0  0  0  0  0  0  0  0  0  0  0
   10.1897   -1.0193   23.5562 C   0  0  0  0  0  0  0  0  0  0  0  0
   11.1132   -0.5027   24.5187 O   0  0  0  0  0  0  0  0  0  0  0  0
   12.2088   -0.4975   23.8377 C   0  0  0  0  0  0  0  0  0  0  0  0
   13.1516   -0.1599   24.2696 H   0  0  0  0  0  0  0  0  0  0  0  0
   12.7313   -1.3305   21.9042 H   0  0  0  0  0  0  0  0  0  0  0  0
   11.9975   -0.9785   22.6211 C   0  5  0  0  0  0  0  0  0  0  0  0
   10.1714   -0.6966   22.4403 C   0  0  0  0  0  0  0  0  0  0  0  0
    9.1168   -0.1070   21.4294 C   0  0  0  0  0  0  0  0  0  0  0  0
    9.4691    0.8428   20.7959 O   0  0  0  0  0  0  0  0  0  0  0  0
    7.8884   -0.6679   21.3813 N   0  0  0  0  0  0  0  0  0  0  0  0
    6.8099   -0.0232   20.8462 C   0  3  0  0  0  0  0  0  0  0  0  0
    7.9118   -0.1131   18.8484 F   0  0  0  0  0  0  0  0  0  0  0  0
    6.0281    0.7348   17.6566 H   0  0  0  0  0  0  0  0  0  0  0  0
    5.7712    0.6701   18.6980 C   0  0  0  0  0  0  0  0  0  0  0  0
    4.8365    0.9392   19.1361 H   0  0  0  0  0  0  0  0  0  0  0  0
    6.7414    0.2157   19.5195 C   0  0  0  0  0  0  0  0  0  0  0  0
    5.9944    0.2537   21.4966 H   0  0  0  0  0  0  0  0  0  0  0  0
 20 21  1  0  0  0  0
 21 22  1  0  0  0  0
 21 23  2  0  0  0  0
 19 23  1  0  0  0  0
 18 23  1  0  0  0  0
 15 16  2  0  0  0  0
 17 18  1  0  0  0  0
 18 24  1  0  0  0  0
 15 17  1  0  0  0  0
 14 15  1  0  0  0  0
 12 13  1  0  0  0  0
  8 14  2  3  0  0  0
 10 13  2  0  0  0  0
  6  8  1  0  0  0  0
  8  9  1  0  0  0  0
 10 11  1  0  0  0  0
  9 10  1  0  0  0  0
  6  7  1  0  0  0  0
  5  7  1  0  0  0  0
  2  5  1  0  0  0  0
  2  3  1  0  0  0  0
  1  2  1  0  0  0  0
  2  4  1  0  0  0  0
M  CHG  2  13  -1  18   1
M  END
> <Shapegauss>
-184.574341

$$$$
