stable:False satoms:18 tatoms:24 sratio:0.75
  -OEChem-08062404223D

 30 29  0     0  0  0  0  0  0999 V2000
   -6.9251   -5.2813  -25.6422 F   0  0  0  0  0  0  0  0  0  0  0  0
   -8.1416   -4.8363  -25.3661 C   0  0  0  0  0  0  0  0  0  0  0  0
   -8.7884   -5.7683  -25.2047 H   0  0  0  0  0  0  0  0  0  0  0  0
   -8.5288   -4.3147  -26.2991 H   0  0  0  0  0  0  0  0  0  0  0  0
   -7.9854   -4.0981  -24.2431 N   0  0  0  0  0  0  0  0  0  0  0  0
   -9.1363   -2.4484  -23.5989 C   0  0  0  0  0  0  0  0  0  0  0  0
   -8.3034   -2.8835  -23.6559 N   0  0  0  0  0  0  0  0  0  0  0  0
  -10.2557   -1.4982  -23.2597 C   0  0  0  0  0  0  0  0  0  0  0  0
  -11.1903   -1.1169  -24.2733 O   0  0  0  0  0  0  0  0  0  0  0  0
  -12.2818   -1.0359  -23.5905 C   0  0  0  0  0  0  0  0  0  0  0  0
  -13.2307   -0.7650  -24.0549 H   0  0  0  0  0  0  0  0  0  0  0  0
  -11.0645   -1.6338  -22.0048 H   0  0  0  0  0  0  0  0  0  0  0  0
  -12.0582   -1.3566  -22.3243 C   0  0  0  0  0  0  0  0  0  0  0  0
  -10.2342   -1.0363  -22.1939 C   0  0  0  0  0  0  0  0  0  0  0  0
   -9.1799   -0.3130  -21.2736 C   0  0  0  0  0  0  0  0  0  0  0  0
   -9.5384    0.7060  -20.7632 O   0  0  0  0  0  0  0  0  0  0  0  0
   -7.9453   -0.8513  -21.1637 N   0  0  0  0  0  0  0  0  0  0  0  0
   -6.8705   -0.1335  -20.7225 C   0  0  0  0  0  2  0  0  0  0  0  0
   -7.9595    0.0202  -18.7215 F   0  0  0  0  0  0  0  0  0  0  0  0
   -6.0778    1.0307  -17.6605 H   0  0  0  0  0  0  0  0  0  0  0  0
   -5.8265    0.8368  -18.6871 C   0  0  0  0  0  0  0  0  0  0  0  0
   -4.8973    1.0572  -19.1626 H   0  0  0  0  0  0  0  0  0  0  0  0
   -6.7967    0.2725  -19.4373 C   0  0  0  0  0  0  0  0  0  0  0  0
   -6.9878   -4.0744  -24.1793 H   0  0  0  0  0  0  0  0  0  0  0  0
   -9.6814   -3.3459  -23.2715 H   0  0  0  0  0  0  0  0  0  0  0  0
   -9.2468   -2.3287  -24.6868 H   0  0  0  0  0  0  0  0  0  0  0  0
   -7.7108   -2.2232  -24.1173 H   0  0  0  0  0  0  0  0  0  0  0  0
  -12.8698   -1.3407  -21.6118 H   0  0  0  0  0  0  0  0  0  0  0  0
  -11.1921   -1.1270  -21.7034 H   0  0  0  0  0  0  0  0  0  0  0  0
   -7.8139   -1.8104  -21.4145 H   0  0  0  0  0  0  0  0  0  0  0  0
 20 21  1  0  0  0  0
 21 22  1  0  0  0  0
 21 23  2  0  0  0  0
 19 23  1  0  0  0  0
 18 23  1  0  0  0  0
 15 16  2  0  0  0  0
 17 18  1  0  0  0  0
 15 17  1  0  0  0  0
 14 15  1  0  0  0  0
 12 13  1  0  0  0  0
  8 14  2  3  0  0  0
 10 13  2  0  0  0  0
  6  8  1  0  0  0  0
  8  9  1  0  0  0  0
 10 11  1  0  0  0  0
  9 10  1  0  0  0  0
  6  7  1  0  0  0  0
  5  7  1  0  0  0  0
  2  5  1  0  0  0  0
  2  3  1  0  0  0  0
  1  2  1  0  0  0  0
  2  4  1  0  0  0  0
  5 24  1  0  0  0  0
  6 25  1  0  0  0  0
  6 26  1  0  0  0  0
  7 27  1  0  0  0  0
 13 28  1  0  0  0  0
 14 29  1  0  0  0  0
 17 30  1  0  0  0  0
M  END
> <Chemgauss4>
-6.928051

$$$$
