stable:False satoms:18 tatoms:24 sratio:0.75
  -OEChem-08062404223D

 30 29  0     0  0  0  0  0  0999 V2000
    6.7654   -5.4921   25.5806 F   0  0  0  0  0  0  0  0  0  0  0  0
    7.9819   -5.0471   25.3045 C   0  0  0  0  0  0  0  0  0  0  0  0
    8.6288   -5.9791   25.1431 H   0  0  0  0  0  0  0  0  0  0  0  0
    8.3691   -4.5255   26.2374 H   0  0  0  0  0  0  0  0  0  0  0  0
    7.8257   -4.3089   24.1815 N   0  0  0  0  0  0  0  0  0  0  0  0
    8.9766   -2.6592   23.5373 C   0  0  0  0  0  0  0  0  0  0  0  0
    8.1437   -3.0943   23.5943 N   0  0  0  0  0  0  0  0  0  0  0  0
   10.0960   -1.7090   23.1981 C   0  0  0  0  0  0  0  0  0  0  0  0
   11.0306   -1.3277   24.2116 O   0  0  0  0  0  0  0  0  0  0  0  0
   12.1221   -1.2468   23.5289 C   0  0  0  0  0  0  0  0  0  0  0  0
   13.0710   -0.9759   23.9933 H   0  0  0  0  0  0  0  0  0  0  0  0
   10.9048   -1.8446   21.9432 H   0  0  0  0  0  0  0  0  0  0  0  0
   11.8986   -1.5674   22.2627 C   0  0  0  0  0  0  0  0  0  0  0  0
   10.0745   -1.2471   22.1323 C   0  0  0  0  0  0  0  0  0  0  0  0
    9.0202   -0.5238   21.2120 C   0  0  0  0  0  0  0  0  0  0  0  0
    9.3787    0.4952   20.7016 O   0  0  0  0  0  0  0  0  0  0  0  0
    7.7857   -1.0621   21.1020 N   0  0  0  0  0  0  0  0  0  0  0  0
    6.7109   -0.3443   20.6608 C   0  0  0  0  0  2  0  0  0  0  0  0
    7.7999   -0.1906   18.6599 F   0  0  0  0  0  0  0  0  0  0  0  0
    5.9182    0.8199   17.5989 H   0  0  0  0  0  0  0  0  0  0  0  0
    5.6668    0.6260   18.6255 C   0  0  0  0  0  0  0  0  0  0  0  0
    4.7376    0.8464   19.1009 H   0  0  0  0  0  0  0  0  0  0  0  0
    6.6370    0.0617   19.3757 C   0  0  0  0  0  0  0  0  0  0  0  0
    6.8281   -4.2852   24.1177 H   0  0  0  0  0  0  0  0  0  0  0  0
    9.5217   -3.5567   23.2099 H   0  0  0  0  0  0  0  0  0  0  0  0
    9.0871   -2.5395   24.6252 H   0  0  0  0  0  0  0  0  0  0  0  0
    7.5511   -2.4341   24.0557 H   0  0  0  0  0  0  0  0  0  0  0  0
   12.7101   -1.5515   21.5502 H   0  0  0  0  0  0  0  0  0  0  0  0
   11.0324   -1.3378   21.6418 H   0  0  0  0  0  0  0  0  0  0  0  0
    7.6543   -2.0212   21.3529 H   0  0  0  0  0  0  0  0  0  0  0  0
 20 21  1  0  0  0  0
 21 22  1  0  0  0  0
 21 23  2  0  0  0  0
 19 23  1  0  0  0  0
 18 23  1  0  0  0  0
 15 16  2  0  0  0  0
 17 18  1  0  0  0  0
 15 17  1  0  0  0  0
 14 15  1  0  0  0  0
 12 13  1  0  0  0  0
  8 14  2  3  0  0  0
 10 13  2  0  0  0  0
  6  8  1  0  0  0  0
  8  9  1  0  0  0  0
 10 11  1  0  0  0  0
  9 10  1  0  0  0  0
  6  7  1  0  0  0  0
  5  7  1  0  0  0  0
  2  5  1  0  0  0  0
  2  3  1  0  0  0  0
  1  2  1  0  0  0  0
  2  4  1  0  0  0  0
  5 24  1  0  0  0  0
  6 25  1  0  0  0  0
  6 26  1  0  0  0  0
  7 27  1  0  0  0  0
 13 28  1  0  0  0  0
 14 29  1  0  0  0  0
 17 30  1  0  0  0  0
M  END
> <Chemgauss4>
-6.959263

$$$$
