
 OpenBabel07202414153D

 46 49  0  0  1  0  0  0  0  0999 V2000
    7.1022    6.6543   -6.6299 C   0  0  0  0  0  0  0  0  0  0  0  0
    5.5195    6.2655   -7.3477 S   0  0  0  0  0  0  0  0  0  0  0  0
    4.5344    7.1687   -6.7893 O   0  0  0  0  0  0  0  0  0  0  0  0
    5.6894    6.1346   -8.7782 O   0  0  0  0  0  0  0  0  0  0  0  0
    5.1847    4.6503   -6.6882 C   0  0  0  0  0  0  0  0  0  0  0  0
    5.5518    3.5150   -7.4042 C   0  0  0  0  0  0  0  0  0  0  0  0
    5.3368    2.2626   -6.8348 C   0  0  0  0  0  0  0  0  0  0  0  0
    4.7916    2.1466   -5.5415 C   0  0  0  0  0  0  0  0  0  0  0  0
    4.6155    0.8942   -4.9594 C   0  0  0  0  0  0  0  0  0  0  0  0
    4.1336    0.6938   -3.7210 N   0  0  0  0  0  0  0  0  0  0  0  0
    3.7953    1.7989   -3.0156 C   0  0  0  0  0  0  0  0  0  0  0  0
    3.8974    3.1135   -3.4779 C   0  0  0  0  0  0  0  0  0  0  0  0
    3.5344    4.2357   -2.6741 N   0  0  0  0  0  0  0  0  0  0  0  0
    2.8175    4.1810   -1.4908 C   0  0  0  0  0  0  0  0  0  0  0  0
    2.4071    3.1451   -0.9681 O   0  0  0  0  0  0  0  0  0  0  0  0
    2.3653    5.5113   -0.8982 C   0  0  3  0  0  0  0  0  0  0  0  0
    1.0487    5.9349   -1.5611 C   0  0  0  0  0  0  0  0  0  0  0  0
    1.3084    6.6008   -2.9006 C   0  0  0  0  0  0  0  0  0  0  0  0
    2.2346    7.7147   -2.7715 N   0  0  0  0  0  0  0  0  0  0  0  0
    3.1878    7.7344   -1.7600 C   0  0  0  0  0  0  0  0  0  0  0  0
    4.0494    8.8345   -1.6574 C   0  0  0  0  0  0  0  0  0  0  0  0
    5.0724    8.8663   -0.7048 C   0  0  0  0  0  0  0  0  0  0  0  0
    6.0572   10.2850   -0.6288 Cl  0  0  0  0  0  0  0  0  0  0  0  0
    5.2658    7.7720    0.1413 C   0  0  0  0  0  0  0  0  0  0  0  0
    6.5111    7.7357    1.3372 Cl  0  0  0  0  0  0  0  0  0  0  0  0
    4.4191    6.6641    0.0397 C   0  0  0  0  0  0  0  0  0  0  0  0
    3.3744    6.6421   -0.8982 C   0  0  0  0  0  0  0  0  0  0  0  0
    4.4106    3.2950   -4.7957 C   0  0  0  0  0  0  0  0  0  0  0  0
    4.5725    4.5476   -5.4302 C   0  0  0  0  0  0  0  0  0  0  0  0
    7.3578    7.6777   -6.9054 H   0  0  0  0  0  0  0  0  0  0  0  0
    7.8479    5.9616   -7.0236 H   0  0  0  0  0  0  0  0  0  0  0  0
    7.0321    6.5690   -5.5430 H   0  0  0  0  0  0  0  0  0  0  0  0
    6.0021    3.5892   -8.3924 H   0  0  0  0  0  0  0  0  0  0  0  0
    5.6141    1.3723   -7.3983 H   0  0  0  0  0  0  0  0  0  0  0  0
    4.8750   -0.0210   -5.4864 H   0  0  0  0  0  0  0  0  0  0  0  0
    3.4557    1.5561   -2.0150 H   0  0  0  0  0  0  0  0  0  0  0  0
    3.7572    5.1592   -3.0238 H   0  0  0  0  0  0  0  0  0  0  0  0
    2.1372    5.3007    0.1575 H   0  0  0  0  0  0  0  0  0  0  0  0
    0.5218    6.6390   -0.9039 H   0  0  0  0  0  0  0  0  0  0  0  0
    0.3867    5.0717   -1.7002 H   0  0  0  0  0  0  0  0  0  0  0  0
    0.3658    6.9603   -3.3269 H   0  0  0  0  0  0  0  0  0  0  0  0
    1.7142    5.8869   -3.6244 H   0  0  0  0  0  0  0  0  0  0  0  0
    1.8340    8.6266   -2.9866 H   0  0  0  0  0  0  0  0  0  0  0  0
    3.9155    9.6834   -2.3251 H   0  0  0  0  0  0  0  0  0  0  0  0
    4.5546    5.8235    0.7246 H   0  0  0  0  0  0  0  0  0  0  0  0
    4.2292    5.4628   -4.9550 H   0  0  0  0  0  0  0  0  0  0  0  0
  1  2  1  0  0  0  0
  1 30  1  0  0  0  0
  1 31  1  0  0  0  0
  1 32  1  0  0  0  0
  2  3  2  0  0  0  0
  2  4  2  0  0  0  0
  2  5  1  0  0  0  0
  5  6  1  0  0  0  0
  5 29  2  0  0  0  0
  6  7  2  0  0  0  0
  6 33  1  0  0  0  0
  7  8  1  0  0  0  0
  7 34  1  0  0  0  0
  8  9  1  0  0  0  0
  8 28  2  0  0  0  0
  9 10  2  0  0  0  0
  9 35  1  0  0  0  0
 10 11  1  0  0  0  0
 11 12  2  0  0  0  0
 11 36  1  0  0  0  0
 12 13  1  0  0  0  0
 12 28  1  0  0  0  0
 13 14  1  0  0  0  0
 13 37  1  0  0  0  0
 14 15  2  0  0  0  0
 14 16  1  0  0  0  0
 16 17  1  0  0  0  0
 16 27  1  0  0  0  0
 16 38  1  0  0  0  0
 17 18  1  0  0  0  0
 17 39  1  0  0  0  0
 17 40  1  0  0  0  0
 18 19  1  0  0  0  0
 18 41  1  0  0  0  0
 18 42  1  0  0  0  0
 19 20  1  0  0  0  0
 19 43  1  0  0  0  0
 20 21  1  0  0  0  0
 20 27  2  0  0  0  0
 21 22  2  0  0  0  0
 21 44  1  0  0  0  0
 22 23  1  0  0  0  0
 22 24  1  0  0  0  0
 24 25  1  0  0  0  0
 24 26  2  0  0  0  0
 26 27  1  0  0  0  0
 26 45  1  0  0  0  0
 28 29  1  0  0  0  0
 29 46  1  0  0  0  0
M  END
$$$$
