stable:False satoms:13 tatoms:24 sratio:0.5416666666666666
  -OEChem-07092417393D

 24 24  0     1  0  0  0  0  0999 V2000
    6.4936   -4.8354   26.3614 Cl  0  0  0  0  0  0  0  0  0  0  0  0
    8.2147   -4.2654   26.1332 S   0  0  0  0  0  0  0  0  0  0  0  0
    9.0262   -5.4317   26.0423 O   0  0  0  0  0  0  0  0  0  0  0  0
    8.5484   -3.3369   27.1327 O   0  0  0  0  0  0  0  0  0  0  0  0
    8.1695   -3.5674   24.7233 C   0  0  0  0  0  0  0  0  0  0  0  0
    8.7202   -2.8670   23.9908 C   0  0  0  0  0  0  0  0  0  0  0  0
    9.1741   -1.9553   23.2314 C   0  0  0  0  0  0  0  0  0  0  0  0
   10.9486   -0.9126   23.2345 C   0  0  0  0  0  0  0  0  0  0  0  0
   10.8019   -0.2027   24.0870 H   0  0  0  0  0  0  0  0  0  0  0  0
   12.5656    0.2161   24.3163 H   0  0  0  0  0  0  0  0  0  0  0  0
   13.1365    0.0683   23.5258 O   0  0  0  0  0  0  0  0  0  0  0  0
   12.4617   -0.6128   22.2425 S   0  0  0  0  0  0  0  0  0  0  0  0
   11.3510   -1.9047   23.4641 H   0  0  0  0  0  0  0  0  0  0  0  0
    9.6096   -0.9945   22.6315 C   0  0  3  0  0  0  0  0  0  0  0  0
    8.9666   -0.0254   21.6368 C   0  0  0  0  0  0  0  0  0  0  0  0
    9.5708    0.8201   21.0953 O   0  0  0  0  0  0  0  0  0  0  0  0
    7.5769   -0.0594   21.3556 N   0  0  0  0  0  0  0  0  0  0  0  0
    7.0534    0.1772   20.2141 C   0  0  1  0  0  0  0  0  0  0  0  0
    7.8148   -0.0120   19.4335 H   0  0  0  0  0  0  0  0  0  0  0  0
    6.2308   -0.0194   17.1048 N   0  0  0  0  0  0  0  0  0  0  0  0
    6.0290    0.2941   18.1186 C   0  0  0  0  0  0  0  0  0  0  0  0
    5.0495    1.1039   19.7370 H   0  0  0  0  0  0  0  0  0  0  0  0
    5.9186    0.5826   19.4212 C   0  5  3  0  0  0  0  0  0  0  0  0
    6.1519    0.4502   22.0630 S   0  0  0  0  0  0  0  0  0  0  0  0
 20 21  3  0  0  0  0
 21 23  1  0  0  0  0
 22 23  1  0  0  0  0
 18 23  1  0  0  0  0
 18 19  1  0  0  0  0
 17 18  1  0  0  0  0
 18 24  1  0  0  0  0
 15 16  2  0  0  0  0
 15 17  1  0  0  0  0
 17 24  1  0  0  0  0
 14 15  1  0  0  0  0
  8 12  1  0  0  0  0
 11 12  1  0  0  0  0
  7 14  1  0  0  0  0
  8 14  1  0  0  0  0
  6  7  3  0  0  0  0
  8 13  1  0  0  0  0
  8  9  1  0  0  0  0
 10 11  1  0  0  0  0
  5  6  1  0  0  0  0
  2  5  1  0  0  0  0
  2  3  2  0  0  0  0
  1  2  1  0  0  0  0
  2  4  2  0  0  0  0
M  CHG  1  23  -1
M  END
> <Shapegauss>
-220.971313

$$$$
