stable:False satoms:13 tatoms:24 sratio:0.5416666666666666
  -OEChem-08062406543D

 28 28  0     1  0  0  0  0  0999 V2000
    6.2594   -5.6313   26.0694 Cl  0  0  0  0  0  0  0  0  0  0  0  0
    8.0215   -5.1478   26.0618 S   0  0  0  0  0  0  0  0  0  0  0  0
    8.7761   -6.3437   25.8961 O   0  0  0  0  0  0  0  0  0  0  0  0
    8.3093   -4.3680   27.1938 O   0  0  0  0  0  0  0  0  0  0  0  0
    8.1433   -4.2851   24.7510 C   0  0  0  0  0  0  0  0  0  0  0  0
    8.7952   -3.5385   24.1611 C   0  0  0  0  0  0  0  0  0  0  0  0
    9.3642   -2.5732   23.5626 C   0  0  0  0  0  0  0  0  0  0  0  0
   11.1828   -1.6522   23.8469 C   0  0  0  0  0  0  0  0  0  0  0  0
   10.9951   -1.0412   24.7654 H   0  0  0  0  0  0  0  0  0  0  0  0
   12.7494   -0.7648   25.1948 H   0  0  0  0  0  0  0  0  0  0  0  0
   13.3825   -0.8529   24.4438 O   0  0  0  0  0  0  0  0  0  0  0  0
   12.7947   -1.3322   23.0328 S   0  0  0  0  0  0  0  0  0  0  0  0
   11.5100   -2.6880   23.9848 H   0  0  0  0  0  0  0  0  0  0  0  0
    9.9028   -1.5770   23.1263 C   0  0  3  0  0  0  0  0  0  0  0  0
    9.4059   -0.4576   22.2086 C   0  0  0  0  0  0  0  0  0  0  0  0
   10.1009    0.4066   21.8301 O   0  0  0  0  0  0  0  0  0  0  0  0
    8.0483   -0.3702   21.8077 N   0  0  0  0  0  0  0  0  0  0  0  0
    7.6456    0.0334   20.6640 C   0  0  1  0  0  0  0  0  0  0  0  0
    8.4650   -0.1090   19.9339 H   0  0  0  0  0  0  0  0  0  0  0  0
    7.1049    0.2613   17.4956 N   0  0  0  0  0  0  0  0  0  0  0  0
    6.8269    0.4637   18.5196 C   0  0  0  0  0  0  0  0  0  0  0  0
    6.5375    1.6749   20.0609 H   0  0  0  0  0  0  0  0  0  0  0  0
    6.6117    0.6012   19.8338 C   0  0  3  0  0  0  0  0  0  0  0  0
    6.5925    0.1402   22.4488 S   0  0  0  0  0  0  0  0  0  0  0  0
    7.2098   -3.7073   24.8186 H   0  0  0  0  0  0  0  0  0  0  0  0
    8.0313   -5.0757   23.9944 H   0  0  0  0  0  0  0  0  0  0  0  0
   10.3175   -2.1320   22.2718 H   0  0  0  0  0  0  0  0  0  0  0  0
    5.6604    0.1075   20.0812 H   0  0  0  0  0  0  0  0  0  0  0  0
 20 21  3  0  0  0  0
 21 23  1  0  0  0  0
 22 23  1  0  0  0  0
 18 23  1  0  0  0  0
 18 19  1  0  0  0  0
 17 18  1  0  0  0  0
 18 24  1  0  0  0  0
 15 16  2  0  0  0  0
 15 17  1  0  0  0  0
 17 24  1  0  0  0  0
 14 15  1  0  0  0  0
  8 12  1  0  0  0  0
 11 12  1  0  0  0  0
  7 14  1  0  0  0  0
  8 14  1  0  0  0  0
  6  7  3  0  0  0  0
  8 13  1  0  0  0  0
  8  9  1  0  0  0  0
 10 11  1  0  0  0  0
  5  6  1  0  0  0  0
  2  5  1  0  0  0  0
  2  3  2  0  0  0  0
  1  2  1  0  0  0  0
  2  4  2  0  0  0  0
  5 25  1  0  0  0  0
  5 26  1  0  0  0  0
 14 27  1  0  0  0  0
 23 28  1  0  0  0  0
M  END
> <Chemgauss4>
-7.850844

$$$$
