stable:False satoms:13 tatoms:24 sratio:0.5416666666666666
  -OEChem-08062406543D

 28 28  0     1  0  0  0  0  0999 V2000
   -6.1916   -5.4285  -26.1951 Cl  0  0  0  0  0  0  0  0  0  0  0  0
   -7.9654   -4.9988  -26.1044 S   0  0  0  0  0  0  0  0  0  0  0  0
   -8.6788   -6.2225  -25.9607 O   0  0  0  0  0  0  0  0  0  0  0  0
   -8.3172   -4.1836  -27.1926 O   0  0  0  0  0  0  0  0  0  0  0  0
   -8.0631   -4.1930  -24.7560 C   0  0  0  0  0  0  0  0  0  0  0  0
   -8.7136   -3.4904  -24.1130 C   0  0  0  0  0  0  0  0  0  0  0  0
   -9.2874   -2.5671  -23.4555 C   0  0  0  0  0  0  0  0  0  0  0  0
  -11.1408   -1.6906  -23.6365 C   0  0  0  0  0  0  0  0  0  0  0  0
  -11.0049   -1.0382  -24.5354 H   0  0  0  0  0  0  0  0  0  0  0  0
  -12.7811   -0.7977  -24.8899 H   0  0  0  0  0  0  0  0  0  0  0  0
  -13.3831   -0.9347  -24.1208 O   0  0  0  0  0  0  0  0  0  0  0  0
  -12.7299   -1.4518  -22.7526 S   0  0  0  0  0  0  0  0  0  0  0  0
  -11.4432   -2.7295  -23.8047 H   0  0  0  0  0  0  0  0  0  0  0  0
   -9.8377   -1.6058  -22.9598 C   0  0  3  0  0  0  0  0  0  0  0  0
   -9.3393   -0.5093  -22.0157 C   0  0  0  0  0  0  0  0  0  0  0  0
  -10.0441    0.3179  -21.5775 O   0  0  0  0  0  0  0  0  0  0  0  0
   -7.9708   -0.3972  -21.6606 N   0  0  0  0  0  0  0  0  0  0  0  0
   -7.5376   -0.0275  -20.5165 C   0  0  1  0  0  0  0  0  0  0  0  0
   -8.3250   -0.2233  -19.7638 H   0  0  0  0  0  0  0  0  0  0  0  0
   -6.8865    0.0903  -17.3629 N   0  0  0  0  0  0  0  0  0  0  0  0
   -6.6525    0.3416  -18.3871 C   0  0  0  0  0  0  0  0  0  0  0  0
   -6.4552    1.6213  -19.8870 H   0  0  0  0  0  0  0  0  0  0  0  0
   -6.4902    0.5376  -19.7014 C   0  0  3  0  0  0  0  0  0  0  0  0
   -6.5549    0.1818  -22.3321 S   0  0  0  0  0  0  0  0  0  0  0  0
   -7.1495   -3.5852  -24.8334 H   0  0  0  0  0  0  0  0  0  0  0  0
   -7.9005   -5.0094  -24.0368 H   0  0  0  0  0  0  0  0  0  0  0  0
  -10.2043   -2.2065  -22.1144 H   0  0  0  0  0  0  0  0  0  0  0  0
   -5.5350    0.0829  -20.0028 H   0  0  0  0  0  0  0  0  0  0  0  0
 20 21  3  0  0  0  0
 21 23  1  0  0  0  0
 22 23  1  0  0  0  0
 18 23  1  0  0  0  0
 18 19  1  0  0  0  0
 17 18  1  0  0  0  0
 18 24  1  0  0  0  0
 15 16  2  0  0  0  0
 15 17  1  0  0  0  0
 17 24  1  0  0  0  0
 14 15  1  0  0  0  0
  8 12  1  0  0  0  0
 11 12  1  0  0  0  0
  7 14  1  0  0  0  0
  8 14  1  0  0  0  0
  6  7  3  0  0  0  0
  8 13  1  0  0  0  0
  8  9  1  0  0  0  0
 10 11  1  0  0  0  0
  5  6  1  0  0  0  0
  2  5  1  0  0  0  0
  2  3  2  0  0  0  0
  1  2  1  0  0  0  0
  2  4  2  0  0  0  0
  5 25  1  0  0  0  0
  5 26  1  0  0  0  0
 14 27  1  0  0  0  0
 23 28  1  0  0  0  0
M  END
> <Chemgauss4>
-7.723155

$$$$
