stable:False satoms:16 tatoms:24 sratio:0.6666666666666666
  -OEChem-07092417433D

 24 26  0     1  0  0  0  0  0999 V2000
    6.4585   -4.9242   26.5341 Cl  0  0  0  0  0  0  0  0  0  0  0  0
    8.2365   -4.2903   26.1066 S   0  0  0  0  0  0  0  0  0  0  0  0
    9.0674   -5.4573   26.0120 O   0  0  0  0  0  0  0  0  0  0  0  0
    8.5796   -3.3700   27.1392 O   0  0  0  0  0  0  0  0  0  0  0  0
    8.0680   -3.5696   24.6820 N   0  0  0  0  0  0  0  0  0  0  0  0
    8.7924   -2.8061   24.0139 C   0  0  0  0  0  0  0  0  0  0  0  0
    9.1569   -1.9230   23.2785 C   0  0  0  0  0  0  0  0  0  0  0  0
   11.1590   -0.9088   23.0257 C   0  0  2  0  0  0  0  0  0  0  0  0
   10.4832   -0.1569   23.8629 O   0  0  0  0  0  0  0  0  0  0  0  0
   12.5136    0.3012   24.2042 H   0  0  0  0  0  0  0  0  0  0  0  0
   13.4202   -0.6016   23.0768 H   0  0  0  0  0  0  0  0  0  0  0  0
   12.6031   -0.4346   23.3906 C   0  5  0  0  0  0  0  0  0  0  0  0
   11.4503   -1.7480   22.3557 H   0  0  0  0  0  0  0  0  0  0  0  0
    9.7917   -0.7666   22.8098 C   0  0  2  0  0  0  0  0  0  0  0  0
    9.0430    0.0097   21.5827 C   0  0  0  0  0  0  0  0  0  0  0  0
    9.5976    0.9808   21.1591 O   0  0  0  0  0  0  0  0  0  0  0  0
    7.9039   -0.5262   21.2102 N   0  0  0  0  0  0  0  0  0  0  0  0
    7.1292   -0.0889   20.2614 C   0  0  0  0  0  0  0  0  0  0  0  0
    7.1198   -0.0583   18.9280 C   0  0  0  0  0  0  0  0  0  0  0  0
    6.6977    0.1914   17.7946 N   0  0  0  0  0  0  0  0  0  0  0  0
    5.7289    0.7158   18.2870 C   0  0  0  0  0  0  0  0  0  0  0  0
    5.2809    0.8724   19.4502 C   0  0  0  0  0  0  0  0  0  0  0  0
    5.8292    0.5642   20.5642 C   0  0  0  0  0  0  0  0  0  0  0  0
    5.4735    0.7049   21.5673 H   0  0  0  0  0  0  0  0  0  0  0  0
 20 21  2  0  0  0  0
 19 20  1  0  0  0  0
 19 21  1  0  0  0  0
 21 22  1  0  0  0  0
 18 19  2  0  0  0  0
 22 23  2  0  0  0  0
 18 23  1  0  0  0  0
 17 18  1  0  0  0  0
 23 24  1  0  0  0  0
 15 16  2  0  0  0  0
 15 17  1  0  0  0  0
 14 15  1  0  0  0  0
  8 13  1  0  0  0  0
  8 14  1  0  0  0  0
  7 14  1  0  0  0  0
  9 14  1  0  0  0  0
  8 12  1  0  0  0  0
  8  9  1  0  0  0  0
 11 12  1  0  0  0  0
  6  7  3  0  0  0  0
 10 12  1  0  0  0  0
  5  6  1  0  0  0  0
  2  5  1  0  0  0  0
  2  3  2  0  0  0  0
  1  2  1  0  0  0  0
  2  4  2  0  0  0  0
M  CHG  1  12  -1
M  END
> <Shapegauss>
-245.439453

$$$$
