stable:False satoms:16 tatoms:24 sratio:0.6666666666666666
  -OEChem-08062410583D

 28 30  0     1  0  0  0  0  0999 V2000
   -6.5645   -5.4595  -26.0086 Cl  0  0  0  0  0  0  0  0  0  0  0  0
   -8.3401   -4.7730  -25.6591 S   0  0  0  0  0  0  0  0  0  0  0  0
   -9.1854   -5.9190  -25.4765 O   0  0  0  0  0  0  0  0  0  0  0  0
   -8.6603   -3.9402  -26.7703 O   0  0  0  0  0  0  0  0  0  0  0  0
   -8.1801   -3.9358  -24.2987 N   0  0  0  0  0  0  0  0  0  0  0  0
   -8.9035   -3.1108  -23.7070 C   0  0  0  0  0  0  0  0  0  0  0  0
   -9.2665   -2.1646  -23.0539 C   0  0  0  0  0  0  0  0  0  0  0  0
  -11.2596   -1.1118  -22.9135 C   0  0  2  0  0  0  0  0  0  0  0  0
  -10.5654   -0.4408  -23.8027 O   0  0  0  0  0  0  0  0  0  0  0  0
  -13.0109    0.1876  -22.7039 H   0  0  0  0  0  0  0  0  0  0  0  0
  -13.3971   -1.4917  -23.2108 H   0  0  0  0  0  0  0  0  0  0  0  0
  -12.6938   -0.6552  -23.3356 C   0  0  0  0  0  0  0  0  0  0  0  0
  -11.5685   -1.8879  -22.1785 H   0  0  0  0  0  0  0  0  0  0  0  0
   -9.8934   -0.9660  -22.6930 C   0  0  2  0  0  0  0  0  0  0  0  0
   -9.1504   -0.0962  -21.5267 C   0  0  0  0  0  0  0  0  0  0  0  0
   -9.6988    0.9131  -21.1940 O   0  0  0  0  0  0  0  0  0  0  0  0
   -8.0220   -0.6104  -21.0956 N   0  0  0  0  0  0  0  0  0  0  0  0
   -7.2536   -0.1023  -20.1775 C   0  0  0  0  0  0  0  0  0  0  0  0
   -7.2596    0.0413  -18.8515 C   0  0  0  0  0  0  0  0  0  0  0  0
   -6.8480    0.3819  -17.7381 N   0  0  0  0  0  0  0  0  0  0  0  0
   -5.8675    0.8525  -18.2608 C   0  0  0  0  0  0  0  0  0  0  0  0
   -5.4041    0.9050  -19.4273 C   0  0  0  0  0  0  0  0  0  0  0  0
   -5.9427    0.5091  -20.5180 C   0  0  0  0  0  0  0  0  0  0  0  0
   -5.5736    0.5604  -21.5248 H   0  0  0  0  0  0  0  0  0  0  0  0
   -7.3288   -3.4309  -24.4411 H   0  0  0  0  0  0  0  0  0  0  0  0
  -12.6827   -0.3397  -24.3894 H   0  0  0  0  0  0  0  0  0  0  0  0
   -7.7265   -1.4708  -21.5108 H   0  0  0  0  0  0  0  0  0  0  0  0
   -4.4210    1.3423  -19.5217 H   0  0  0  0  0  0  0  0  0  0  0  0
 20 21  2  0  0  0  0
 19 20  1  0  0  0  0
 19 21  1  0  0  0  0
 21 22  1  0  0  0  0
 18 19  2  0  0  0  0
 22 23  2  0  0  0  0
 18 23  1  0  0  0  0
 17 18  1  0  0  0  0
 23 24  1  0  0  0  0
 15 16  2  0  0  0  0
 15 17  1  0  0  0  0
 14 15  1  0  0  0  0
  8 13  1  0  0  0  0
  8 14  1  0  0  0  0
  7 14  1  0  0  0  0
  9 14  1  0  0  0  0
  8 12  1  0  0  0  0
  8  9  1  0  0  0  0
 11 12  1  0  0  0  0
  6  7  3  0  0  0  0
 10 12  1  0  0  0  0
  5  6  1  0  0  0  0
  2  5  1  0  0  0  0
  2  3  2  0  0  0  0
  1  2  1  0  0  0  0
  2  4  2  0  0  0  0
  5 25  1  0  0  0  0
 12 26  1  0  0  0  0
 17 27  1  0  0  0  0
 22 28  1  0  0  0  0
M  END
> <Chemgauss4>
-7.040067

$$$$
