stable:False satoms:16 tatoms:24 sratio:0.6666666666666666
  -OEChem-08062410583D

 28 30  0     1  0  0  0  0  0999 V2000
    6.4235   -5.4393   26.2307 Cl  0  0  0  0  0  0  0  0  0  0  0  0
    8.1991   -4.7528   25.8811 S   0  0  0  0  0  0  0  0  0  0  0  0
    9.0444   -5.8988   25.6985 O   0  0  0  0  0  0  0  0  0  0  0  0
    8.5193   -3.9200   26.9923 O   0  0  0  0  0  0  0  0  0  0  0  0
    8.0391   -3.9156   24.5207 N   0  0  0  0  0  0  0  0  0  0  0  0
    8.7625   -3.0906   23.9290 C   0  0  0  0  0  0  0  0  0  0  0  0
    9.1255   -2.1444   23.2759 C   0  0  0  0  0  0  0  0  0  0  0  0
   11.1186   -1.0915   23.1355 C   0  0  2  0  0  0  0  0  0  0  0  0
   10.4244   -0.4206   24.0247 O   0  0  0  0  0  0  0  0  0  0  0  0
   12.8699    0.2079   22.9259 H   0  0  0  0  0  0  0  0  0  0  0  0
   13.2561   -1.4715   23.4328 H   0  0  0  0  0  0  0  0  0  0  0  0
   12.5528   -0.6350   23.5576 C   0  0  0  0  0  0  0  0  0  0  0  0
   11.4275   -1.8677   22.4005 H   0  0  0  0  0  0  0  0  0  0  0  0
    9.7524   -0.9458   22.9150 C   0  0  2  0  0  0  0  0  0  0  0  0
    9.0094   -0.0760   21.7487 C   0  0  0  0  0  0  0  0  0  0  0  0
    9.5578    0.9333   21.4161 O   0  0  0  0  0  0  0  0  0  0  0  0
    7.8810   -0.5902   21.3176 N   0  0  0  0  0  0  0  0  0  0  0  0
    7.1126   -0.0821   20.3995 C   0  0  0  0  0  0  0  0  0  0  0  0
    7.1186    0.0615   19.0735 C   0  0  0  0  0  0  0  0  0  0  0  0
    6.7070    0.4022   17.9601 N   0  0  0  0  0  0  0  0  0  0  0  0
    5.7265    0.8727   18.4828 C   0  0  0  0  0  0  0  0  0  0  0  0
    5.2631    0.9253   19.6493 C   0  0  0  0  0  0  0  0  0  0  0  0
    5.8017    0.5293   20.7400 C   0  0  0  0  0  0  0  0  0  0  0  0
    5.4326    0.5806   21.7468 H   0  0  0  0  0  0  0  0  0  0  0  0
    7.1878   -3.4107   24.6631 H   0  0  0  0  0  0  0  0  0  0  0  0
   12.5417   -0.3195   24.6114 H   0  0  0  0  0  0  0  0  0  0  0  0
    7.5855   -1.4506   21.7328 H   0  0  0  0  0  0  0  0  0  0  0  0
    4.2800    1.3625   19.7437 H   0  0  0  0  0  0  0  0  0  0  0  0
 20 21  2  0  0  0  0
 19 20  1  0  0  0  0
 19 21  1  0  0  0  0
 21 22  1  0  0  0  0
 18 19  2  0  0  0  0
 22 23  2  0  0  0  0
 18 23  1  0  0  0  0
 17 18  1  0  0  0  0
 23 24  1  0  0  0  0
 15 16  2  0  0  0  0
 15 17  1  0  0  0  0
 14 15  1  0  0  0  0
  8 13  1  0  0  0  0
  8 14  1  0  0  0  0
  7 14  1  0  0  0  0
  9 14  1  0  0  0  0
  8 12  1  0  0  0  0
  8  9  1  0  0  0  0
 11 12  1  0  0  0  0
  6  7  3  0  0  0  0
 10 12  1  0  0  0  0
  5  6  1  0  0  0  0
  2  5  1  0  0  0  0
  2  3  2  0  0  0  0
  1  2  1  0  0  0  0
  2  4  2  0  0  0  0
  5 25  1  0  0  0  0
 12 26  1  0  0  0  0
 17 27  1  0  0  0  0
 22 28  1  0  0  0  0
M  END
> <Chemgauss4>
-6.994039

$$$$
