stable:False satoms:13 tatoms:24 sratio:0.5416666666666666
  -OEChem-08062405573D

 36 37  0     0  0  0  0  0  0999 V2000
    6.5474    0.4368   18.2809 F   0  0  0  0  0  0  0  0  0  0  0  0
    7.6320    0.4817   19.1807 C   0  0  0  0  0  0  0  0  0  0  0  0
    7.7761    1.5549   19.5191 H   0  0  0  0  0  0  0  0  0  0  0  0
    8.5310    0.1446   18.6108 H   0  0  0  0  0  0  0  0  0  0  0  0
    7.2868   -0.3381   20.3068 N   0  0  0  0  0  0  0  0  0  0  0  0
    7.9005   -0.9399   21.1393 C   0  0  0  0  0  0  0  0  0  0  0  0
    8.3516   -1.6416   21.9696 C   0  0  0  0  0  0  0  0  0  0  0  0
   10.1582   -1.5339   23.2106 C   0  0  0  0  0  0  0  0  0  0  0  0
   11.1981   -1.6760   22.3251 N   0  0  0  0  0  0  0  0  0  0  0  0
   12.3106   -1.5567   22.8095 N   0  0  0  0  0  0  0  0  0  0  0  0
   12.1401   -0.9916   23.8561 C   0  0  0  0  0  0  0  0  0  0  0  0
   11.4200   -0.4789   24.6732 N   0  3  0  0  0  0  0  0  0  0  0  0
   10.2652   -0.6691   24.2119 N   0  3  0  0  0  0  0  0  0  0  0  0
    9.0329   -2.2025   23.0153 C   0  0  0  0  0  0  0  0  0  0  0  0
    8.7628   -3.2381   23.8056 C   0  0  0  0  0  0  0  0  0  0  0  0
    8.3884   -4.2072   24.3016 O   0  0  0  0  0  0  0  0  0  0  0  0
    6.9953   -3.9941   23.7864 N   0  0  0  0  0  0  0  0  0  0  0  0
    6.2489   -4.7868   24.3516 C   0  0  0  0  0  0  0  0  0  0  0  0
    5.6860   -5.1543   25.5377 C   0  0  0  0  0  0  0  0  0  0  0  0
    5.5780   -5.0793   26.5729 H   0  0  0  0  0  0  0  0  0  0  0  0
    4.2494   -6.9005   25.0602 H   0  0  0  0  0  0  0  0  0  0  0  0
    4.9079   -6.2289   24.5910 C   0  0  0  0  0  0  0  0  0  0  0  0
    5.4022   -5.8304   23.5314 C   0  0  0  0  0  0  0  0  0  0  0  0
    5.4600   -5.9111   22.4811 H   0  0  0  0  0  0  0  0  0  0  0  0
    6.7190   -1.0505   19.8943 H   0  0  0  0  0  0  0  0  0  0  0  0
   11.1344   -2.5864   21.9162 H   0  0  0  0  0  0  0  0  0  0  0  0
   12.8979   -1.0136   22.2095 H   0  0  0  0  0  0  0  0  0  0  0  0
   12.8195   -0.1427   23.6896 H   0  0  0  0  0  0  0  0  0  0  0  0
   12.6266   -1.7271   24.5137 H   0  0  0  0  0  0  0  0  0  0  0  0
   11.6144    0.4984   24.7570 H   0  0  0  0  0  0  0  0  0  0  0  0
    9.6905   -0.9997   24.9605 H   0  0  0  0  0  0  0  0  0  0  0  0
    8.4302   -2.6023   24.6393 H   0  0  0  0  0  0  0  0  0  0  0  0
    9.8231   -3.4972   23.9425 H   0  0  0  0  0  0  0  0  0  0  0  0
    6.9721   -4.1531   22.7993 H   0  0  0  0  0  0  0  0  0  0  0  0
   11.5244   -0.9172   25.5659 H   0  0  0  0  0  0  0  0  0  0  0  0
    9.9187    0.2119   23.8897 H   0  0  0  0  0  0  0  0  0  0  0  0
 19 20  1  0  0  0  0
 21 22  1  0  0  0  0
 19 22  2  0  0  0  0
 18 19  1  0  0  0  0
 22 23  1  0  0  0  0
 18 23  2  0  0  0  0
 17 18  1  0  0  0  0
 23 24  1  0  0  0  0
 16 17  1  0  0  0  0
 15 16  1  0  0  0  0
 14 15  1  0  0  0  0
 12 13  1  0  0  0  0
  8 13  1  0  0  0  0
 11 12  1  0  0  0  0
  8 14  2  3  0  0  0
  7 14  1  0  0  0  0
  8  9  1  0  0  0  0
  6  7  3  0  0  0  0
 10 11  1  0  0  0  0
  5  6  1  0  0  0  0
  9 10  1  0  0  0  0
  2  5  1  0  0  0  0
  2  3  1  0  0  0  0
  1  2  1  0  0  0  0
  2  4  1  0  0  0  0
  5 25  1  0  0  0  0
  9 26  1  0  0  0  0
 10 27  1  0  0  0  0
 11 28  1  0  0  0  0
 11 29  1  0  0  0  0
 12 30  1  0  0  0  0
 13 31  1  0  0  0  0
 15 32  1  0  0  0  0
 15 33  1  0  0  0  0
 17 34  1  0  0  0  0
 12 35  1  0  0  0  0
 13 36  1  0  0  0  0
M  CHG  2  12   1  13   1
M  END
> <Chemgauss4>
-6.488109

$$$$
