stable:False satoms:13 tatoms:24 sratio:0.5416666666666666
  -OEChem-08062405573D

 36 37  0     0  0  0  0  0  0999 V2000
   -6.5474    0.5471  -18.1331 F   0  0  0  0  0  0  0  0  0  0  0  0
   -7.6213    0.5719  -19.0464 C   0  0  0  0  0  0  0  0  0  0  0  0
   -7.7738    1.6406  -19.3953 H   0  0  0  0  0  0  0  0  0  0  0  0
   -8.5233    0.2289  -18.4847 H   0  0  0  0  0  0  0  0  0  0  0  0
   -7.2528   -0.2528  -20.1614 N   0  0  0  0  0  0  0  0  0  0  0  0
   -7.8493   -0.8684  -20.9964 C   0  0  0  0  0  0  0  0  0  0  0  0
   -8.2820   -1.5820  -21.8263 C   0  0  0  0  0  0  0  0  0  0  0  0
  -10.0744   -1.5056  -23.0900 C   0  0  0  0  0  0  0  0  0  0  0  0
  -11.1233   -1.6527  -22.2161 N   0  0  0  0  0  0  0  0  0  0  0  0
  -12.2312   -1.5504  -22.7149 N   0  0  0  0  0  0  0  0  0  0  0  0
  -12.0545   -0.9918  -23.7639 C   0  0  0  0  0  0  0  0  0  0  0  0
  -11.3305   -0.4773  -24.5764 N   0  3  0  0  0  0  0  0  0  0  0  0
  -10.1792   -0.6501  -24.0996 N   0  3  0  0  0  0  0  0  0  0  0  0
   -8.9439   -2.1593  -22.8756 C   0  0  0  0  0  0  0  0  0  0  0  0
   -8.6521   -3.1980  -23.6541 C   0  0  0  0  0  0  0  0  0  0  0  0
   -8.2604   -4.1665  -24.1375 O   0  0  0  0  0  0  0  0  0  0  0  0
   -6.8763   -3.9330  -23.6072 N   0  0  0  0  0  0  0  0  0  0  0  0
   -6.1139   -4.7214  -24.1568 C   0  0  0  0  0  0  0  0  0  0  0  0
   -5.5322   -5.0918  -25.3329 C   0  0  0  0  0  0  0  0  0  0  0  0
   -5.4124   -5.0239  -26.3673 H   0  0  0  0  0  0  0  0  0  0  0  0
   -4.0813   -6.8171  -24.8237 H   0  0  0  0  0  0  0  0  0  0  0  0
   -4.7533   -6.1495  -24.3681 C   0  0  0  0  0  0  0  0  0  0  0  0
   -5.2651   -5.7483  -23.3178 C   0  0  0  0  0  0  0  0  0  0  0  0
   -5.3349   -5.8212  -22.2677 H   0  0  0  0  0  0  0  0  0  0  0  0
   -6.6819   -0.9551  -19.7363 H   0  0  0  0  0  0  0  0  0  0  0  0
  -11.0540   -2.5589  -21.7990 H   0  0  0  0  0  0  0  0  0  0  0  0
  -12.8320   -1.0094  -22.1265 H   0  0  0  0  0  0  0  0  0  0  0  0
  -12.7457   -0.1496  -23.6126 H   0  0  0  0  0  0  0  0  0  0  0  0
  -12.5242   -1.7382  -24.4213 H   0  0  0  0  0  0  0  0  0  0  0  0
  -11.5352    0.4970  -24.6705 H   0  0  0  0  0  0  0  0  0  0  0  0
   -9.5916   -0.9800  -24.8384 H   0  0  0  0  0  0  0  0  0  0  0  0
   -8.3167   -2.5650  -24.4888 H   0  0  0  0  0  0  0  0  0  0  0  0
   -9.7076   -3.4706  -23.8017 H   0  0  0  0  0  0  0  0  0  0  0  0
   -6.8633   -4.0837  -22.6187 H   0  0  0  0  0  0  0  0  0  0  0  0
  -11.4188   -0.9240  -25.4667 H   0  0  0  0  0  0  0  0  0  0  0  0
   -9.8470    0.2374  -23.7805 H   0  0  0  0  0  0  0  0  0  0  0  0
 19 20  1  0  0  0  0
 21 22  1  0  0  0  0
 19 22  2  0  0  0  0
 18 19  1  0  0  0  0
 22 23  1  0  0  0  0
 18 23  2  0  0  0  0
 17 18  1  0  0  0  0
 23 24  1  0  0  0  0
 16 17  1  0  0  0  0
 15 16  1  0  0  0  0
 14 15  1  0  0  0  0
 12 13  1  0  0  0  0
  8 13  1  0  0  0  0
 11 12  1  0  0  0  0
  8 14  2  3  0  0  0
  7 14  1  0  0  0  0
  8  9  1  0  0  0  0
  6  7  3  0  0  0  0
 10 11  1  0  0  0  0
  5  6  1  0  0  0  0
  9 10  1  0  0  0  0
  2  5  1  0  0  0  0
  2  3  1  0  0  0  0
  1  2  1  0  0  0  0
  2  4  1  0  0  0  0
  5 25  1  0  0  0  0
  9 26  1  0  0  0  0
 10 27  1  0  0  0  0
 11 28  1  0  0  0  0
 11 29  1  0  0  0  0
 12 30  1  0  0  0  0
 13 31  1  0  0  0  0
 15 32  1  0  0  0  0
 15 33  1  0  0  0  0
 17 34  1  0  0  0  0
 12 35  1  0  0  0  0
 13 36  1  0  0  0  0
M  CHG  2  12   1  13   1
M  END
> <Chemgauss4>
-6.321005

$$$$
