
 OpenBabel07202414163D

 44 46  0  0  0  0  0  0  0  0999 V2000
    0.8724   -0.4087    0.3253 C   0  0  0  0  0  0  0  0  0  0  0  0
    2.3638   -0.2667    0.3499 C   0  0  0  0  0  0  0  0  0  0  0  0
    3.0732    0.0751   -0.8016 C   0  0  0  0  0  0  0  0  0  0  0  0
    4.4691    0.1913   -0.7625 C   0  0  0  0  0  0  0  0  0  0  0  0
    5.2034   -0.0445    0.4176 C   0  0  0  0  0  0  0  0  0  0  0  0
    4.4654   -0.3599    1.5687 C   0  0  0  0  0  0  0  0  0  0  0  0
    3.0762   -0.4638    1.5324 C   0  0  0  0  0  0  0  0  0  0  0  0
    2.4082   -0.7703    2.6609 F   0  0  0  0  0  0  0  0  0  0  0  0
    5.0936   -0.5979    2.7333 F   0  0  0  0  0  0  0  0  0  0  0  0
    6.6849    0.0070    0.3998 C   0  0  0  0  0  0  0  0  0  0  0  0
    7.3972   -0.4761   -0.7143 C   0  0  0  0  0  0  0  0  0  0  0  0
    8.8005   -0.4503   -0.7772 C   0  0  0  0  0  0  0  0  0  0  0  0
    9.5164    0.0415    0.3163 C   0  0  0  0  0  0  0  0  0  0  0  0
    8.8344    0.5133    1.4300 C   0  0  0  0  0  0  0  0  0  0  0  0
    7.4375    0.5096    1.4779 C   0  0  0  0  0  0  0  0  0  0  0  0
    9.7323    1.1006    2.7805 Cl  0  0  0  0  0  0  0  0  0  0  0  0
    9.5120   -1.0258   -1.9746 C   0  0  0  0  0  0  0  0  0  0  0  0
    9.0744   -0.4542   -3.3093 C   0  0  0  0  0  0  0  0  0  0  0  0
    8.7848   -1.2067   -4.2371 O   0  0  0  0  0  0  0  0  0  0  0  0
    9.1368    0.9289   -3.4134 N   0  0  0  0  0  0  0  0  0  0  0  0
    8.9267    1.5664   -4.6582 C   0  0  0  0  0  0  0  0  0  0  0  0
    7.8744    1.1971   -5.5002 C   0  0  0  0  0  0  0  0  0  0  0  0
    7.6789    1.6889   -6.7464 N   0  0  0  0  0  0  0  0  0  0  0  0
    8.5989    2.5658   -7.1894 C   0  0  0  0  0  0  0  0  0  0  0  0
    9.6609    3.0231   -6.4214 C   0  0  0  0  0  0  0  0  0  0  0  0
    9.8199    2.5444   -5.1134 C   0  0  0  0  0  0  0  0  0  0  0  0
   10.9958    2.9989   -4.2994 C   0  0  0  0  0  0  0  0  0  0  0  0
    0.4866   -0.3636   -0.6989 H   0  0  0  0  0  0  0  0  0  0  0  0
    0.4081    0.3955    0.9016 H   0  0  0  0  0  0  0  0  0  0  0  0
    0.5768   -1.3754    0.7450 H   0  0  0  0  0  0  0  0  0  0  0  0
    2.5555    0.2425   -1.7438 H   0  0  0  0  0  0  0  0  0  0  0  0
    4.9783    0.4671   -1.6846 H   0  0  0  0  0  0  0  0  0  0  0  0
    6.8517   -0.9149   -1.5492 H   0  0  0  0  0  0  0  0  0  0  0  0
   10.6055    0.0365    0.3073 H   0  0  0  0  0  0  0  0  0  0  0  0
    6.9395    0.8879    2.3642 H   0  0  0  0  0  0  0  0  0  0  0  0
    9.3121   -2.1056   -1.9939 H   0  0  0  0  0  0  0  0  0  0  0  0
   10.5972   -0.9026   -1.8938 H   0  0  0  0  0  0  0  0  0  0  0  0
    9.7078    1.4083   -2.7272 H   0  0  0  0  0  0  0  0  0  0  0  0
    7.1262    0.4744   -5.1841 H   0  0  0  0  0  0  0  0  0  0  0  0
    8.4671    2.8939   -8.2165 H   0  0  0  0  0  0  0  0  0  0  0  0
   10.3711    3.7181   -6.8583 H   0  0  0  0  0  0  0  0  0  0  0  0
   11.5866    3.7522   -4.8307 H   0  0  0  0  0  0  0  0  0  0  0  0
   11.6555    2.1515   -4.0846 H   0  0  0  0  0  0  0  0  0  0  0  0
   10.6592    3.4463   -3.3588 H   0  0  0  0  0  0  0  0  0  0  0  0
  1  2  1  0  0  0  0
  1 28  1  0  0  0  0
  1 29  1  0  0  0  0
  1 30  1  0  0  0  0
  2  3  1  0  0  0  0
  2  7  2  0  0  0  0
  3  4  2  0  0  0  0
  3 31  1  0  0  0  0
  4  5  1  0  0  0  0
  4 32  1  0  0  0  0
  5  6  2  0  0  0  0
  5 10  1  0  0  0  0
  6  7  1  0  0  0  0
  6  9  1  0  0  0  0
  7  8  1  0  0  0  0
 10 11  1  0  0  0  0
 10 15  2  0  0  0  0
 11 12  2  0  0  0  0
 11 33  1  0  0  0  0
 12 13  1  0  0  0  0
 12 17  1  0  0  0  0
 13 14  2  0  0  0  0
 13 34  1  0  0  0  0
 14 15  1  0  0  0  0
 14 16  1  0  0  0  0
 15 35  1  0  0  0  0
 17 18  1  0  0  0  0
 17 36  1  0  0  0  0
 17 37  1  0  0  0  0
 18 19  2  0  0  0  0
 18 20  1  0  0  0  0
 20 21  1  0  0  0  0
 20 38  1  0  0  0  0
 21 22  1  0  0  0  0
 21 26  2  0  0  0  0
 22 23  2  0  0  0  0
 22 39  1  0  0  0  0
 23 24  1  0  0  0  0
 24 25  2  0  0  0  0
 24 40  1  0  0  0  0
 25 26  1  0  0  0  0
 25 41  1  0  0  0  0
 26 27  1  0  0  0  0
 27 42  1  0  0  0  0
 27 43  1  0  0  0  0
 27 44  1  0  0  0  0
M  END
$$$$
