REMARK  10 active torsions:
REMARK  status: ('A' for Active; 'I' for Inactive)
REMARK    1  A    between atoms: S_2  and  N_5 
REMARK    2  A    between atoms: C_7  and  C_8 
REMARK    3  A    between atoms: C_8  and  C_9 
REMARK    4  A    between atoms: C_9  and  C_15 
REMARK    5  A    between atoms: C_9  and  C_14 
REMARK    6  A    between atoms: C_11  and  C_12 
REMARK    7  A    between atoms: C_12  and  C_13 
REMARK    8  A    between atoms: C_13  and  C_14 
REMARK    9  A    between atoms: C_15  and  C_16 
REMARK       I    between atoms: C_16  and  N_18 
REMARK   10  A    between atoms: N_18  and  C_20 
ROOT
HETATM    1  C   UNL     1      10.347  -1.212  23.174  1.00  0.00     0.109 C 
ENDROOT
BRANCH   1   2
HETATM    2  C   UNL     1       9.433  -2.002  23.496  1.00  0.00     0.011 C 
BRANCH   2   3
HETATM    3  C   UNL     1       8.943  -2.891  24.136  1.00  0.00     0.097 C 
HETATM    4  N   UNL     1       8.117  -3.539  24.672  1.00  0.00    -0.296 N 
ATOM      5  HN  UNL     1       7.221  -3.630  24.193  1.00  0.00     0.177 HD
BRANCH   4   6
HETATM    6  S   UNL     1       8.264  -4.294  26.084  1.00  0.00     0.226 S 
HETATM    7  C   UNL     1       6.577  -4.953  26.390  1.00  0.00     0.186 C 
HETATM    8  O   UNL     1       9.153  -5.412  26.017  1.00  0.00    -0.206 OA
HETATM    9  O   UNL     1       8.537  -3.389  27.144  1.00  0.00    -0.206 OA
ENDBRANCH   4   6
ENDBRANCH   2   3
ENDBRANCH   1   2
BRANCH   1  10
HETATM   10  C   UNL     1       9.700  -0.566  22.352  1.00  0.00    -0.071 C 
BRANCH  10  11
HETATM   11  C   UNL     1       9.047   0.028  21.399  1.00  0.00     0.289 C 
HETATM   12  O   UNL     1       9.558   0.965  21.000  1.00  0.00    -0.259 OA
HETATM   13  N   UNL     1       7.890  -0.612  21.104  1.00  0.00    -0.315 N 
ATOM     14  HN  UNL     1       7.605  -1.463  21.588  1.00  0.00     0.170 HD
BRANCH  13  15
HETATM   15  C   UNL     1       7.181  -0.090  20.190  1.00  0.00     0.057 A 
HETATM   16  C   UNL     1       7.224   0.059  18.873  1.00  0.00     0.117 A 
HETATM   17  N   UNL     1       6.773   0.368  17.792  1.00  0.00    -0.373 N 
HETATM   18  C   UNL     1       5.678   0.909  18.320  1.00  0.00     0.088 A 
ATOM     19  HN  UNL     1       7.108   0.256  16.835  1.00  0.00     0.164 HD
HETATM   20  C   UNL     1       5.266   1.005  19.466  1.00  0.00     0.026 A 
HETATM   21  C   UNL     1       5.810   0.584  20.592  1.00  0.00    -0.033 A 
HETATM   22  C   UNL     1       5.323   0.691  21.929  1.00  0.00     0.050 C 
ENDBRANCH  13  15
ENDBRANCH  10  11
ENDBRANCH   1  10
BRANCH   1  23
HETATM   23  C   UNL     1      11.712  -1.765  22.568  1.00  0.00    -0.006 C 
BRANCH  23  24
HETATM   24  C   UNL     1      12.748  -1.210  22.739  1.00  0.00    -0.002 C 
BRANCH  24  25
HETATM   25  C   UNL     1      13.171  -0.273  23.396  1.00  0.00    -0.001 C 
BRANCH  25  26
HETATM   26  C   UNL     1      12.055   0.278  24.194  1.00  0.00    -0.010 C 
HETATM   27  C   UNL     1      11.078   0.028  24.273  1.00  0.00     0.011 C 
ENDBRANCH  25  26
ENDBRANCH  24  25
ENDBRANCH  23  24
ENDBRANCH   1  23
TORSDOF 10
