stable:False satoms:7 tatoms:24 sratio:0.2916666666666667
  -OEChem-07092417463D

 24 24  0     1  0  0  0  0  0999 V2000
    6.5765   -4.9529   26.3902 C   0  0  0  0  0  0  0  0  0  0  0  0
    8.2640   -4.2936   26.0837 S   0  0  0  0  0  0  0  0  0  0  0  0
    9.1529   -5.4115   26.0165 O   0  0  0  0  0  0  0  0  0  0  0  0
    8.5367   -3.3893   27.1437 O   0  0  0  0  0  0  0  0  0  0  0  0
    8.1173   -3.5386   24.6718 N   0  0  0  0  0  0  0  0  0  0  0  0
    8.9425   -2.8914   24.1362 C   0  0  0  0  0  0  0  0  0  0  0  0
    9.4330   -2.0019   23.4956 C   0  0  0  0  0  0  0  0  0  0  0  0
   10.3474   -1.2116   23.1736 C   0  0  1  0  0  0  0  0  0  0  0  0
   11.0778    0.0279   24.2728 C   0  0  0  0  0  0  0  0  0  0  0  0
   12.0552    0.2781   24.1938 C   0  0  0  0  0  0  0  0  0  0  0  0
   13.1713   -0.2728   23.3958 C   0  0  0  0  0  0  0  0  0  0  0  0
   12.7476   -1.2102   22.7387 C   0  0  0  0  0  0  0  0  0  0  0  0
   11.7116   -1.7649   22.5680 C   0  0  0  0  0  0  0  0  0  0  0  0
    9.6999   -0.5656   22.3521 C   0  0  0  0  0  0  0  0  0  0  0  0
    9.0469    0.0280   21.3988 C   0  0  0  0  0  0  0  0  0  0  0  0
    9.5577    0.9654   21.0000 O   0  0  0  0  0  0  0  0  0  0  0  0
    7.8904   -0.6116   21.1041 N   0  0  0  0  0  0  0  0  0  0  0  0
    7.1808   -0.0898   20.1897 C   0  0  0  0  0  0  0  0  0  0  0  0
    7.2245    0.0587   18.8732 C   0  0  0  0  0  0  0  0  0  0  0  0
    6.7727    0.3679   17.7919 N   0  0  0  0  0  0  0  0  0  0  0  0
    5.6785    0.9088   18.3198 C   0  0  0  0  0  0  0  0  0  0  0  0
    5.2658    1.0050   19.4657 C   0  0  0  0  0  0  0  0  0  0  0  0
    5.8099    0.5844   20.5923 C   0  0  0  0  0  0  0  0  0  0  0  0
    5.3230    0.6914   21.9288 C   0  0  0  0  0  0  0  0  0  0  0  0
 20 21  2  0  0  0  0
 19 20  1  0  0  0  0
 21 22  1  0  0  0  0
 18 19  2  0  0  0  0
 22 23  2  0  0  0  0
 18 23  1  0  0  0  0
 17 18  1  0  0  0  0
 23 24  1  0  0  0  0
 15 16  2  0  0  0  0
 15 17  1  0  0  0  0
 14 15  1  0  0  0  0
  8 14  1  0  0  0  0
 12 13  2  0  0  0  0
  8 13  1  0  0  0  0
 11 12  1  0  0  0  0
  7  8  1  0  0  0  0
 10 11  1  0  0  0  0
  6  7  2  0  0  0  0
  5  6  1  0  0  0  0
  9 10  2  0  0  0  0
  2  5  1  0  0  0  0
  2  3  2  0  0  0  0
  1  2  1  0  0  0  0
  2  4  2  0  0  0  0
M  END
> <Shapegauss>
-287.528412

$$$$
