MODEL 1
REMARK VINA RESULT:    -6.327      0.000      0.000
REMARK INTER + INTRA:         -11.453
REMARK INTER:                 -10.026
REMARK INTRA:                  -1.427
REMARK UNBOUND:                -1.427
REMARK  10 active torsions:
REMARK  status: ('A' for Active; 'I' for Inactive)
REMARK    1  A    between atoms: S_2  and  N_5 
REMARK    2  A    between atoms: C_7  and  C_8 
REMARK    3  A    between atoms: C_8  and  C_9 
REMARK    4  A    between atoms: C_9  and  C_15 
REMARK    5  A    between atoms: C_9  and  C_14 
REMARK    6  A    between atoms: C_11  and  C_12 
REMARK    7  A    between atoms: C_12  and  C_13 
REMARK    8  A    between atoms: C_13  and  C_14 
REMARK    9  A    between atoms: C_15  and  C_16 
REMARK       I    between atoms: C_16  and  N_18 
REMARK   10  A    between atoms: N_18  and  C_20 
ROOT
HETATM    1  C   UNL     1       9.956  -1.865  22.476  1.00  0.00     0.109 C 
ENDROOT
BRANCH   1   2
HETATM    2  C   UNL     1       9.137  -0.975  22.160  1.00  0.00     0.011 C 
BRANCH   2   3
HETATM    3  C   UNL     1       8.505  -0.306  21.389  1.00  0.00     0.097 C 
HETATM    4  N   UNL     1       7.792   0.545  20.995  1.00  0.00    -0.296 N 
ATOM      5  HN  UNL     1       7.872   1.458  21.444  1.00  0.00     0.177 HD
BRANCH   4   6
HETATM    6  S   UNL     1       6.704   0.409  19.819  1.00  0.00     0.226 S 
HETATM    7  C   UNL     1       5.509   1.755  20.189  1.00  0.00     0.186 C 
HETATM    8  O   UNL     1       7.258   0.674  18.528  1.00  0.00    -0.206 OA
HETATM    9  O   UNL     1       5.975  -0.806  19.908  1.00  0.00    -0.206 OA
ENDBRANCH   4   6
ENDBRANCH   2   3
ENDBRANCH   1   2
BRANCH   1  10
HETATM   10  C   UNL     1       9.294  -2.358  23.387  1.00  0.00    -0.071 C 
BRANCH  10  11
HETATM   11  C   UNL     1       8.701  -2.887  24.415  1.00  0.00     0.289 C 
HETATM   12  O   UNL     1       8.572  -2.174  25.294  1.00  0.00    -0.259 OA
HETATM   13  N   UNL     1       8.379  -4.185  24.199  1.00  0.00    -0.315 N 
ATOM     14  HN  UNL     1       8.584  -4.653  23.317  1.00  0.00     0.170 HD
BRANCH  13  15
HETATM   15  C   UNL     1       7.806  -4.784  25.160  1.00  0.00     0.057 A 
HETATM   16  C   UNL     1       8.143  -5.339  26.317  1.00  0.00     0.117 A 
HETATM   17  N   UNL     1       7.917  -5.854  27.390  1.00  0.00    -0.373 N 
HETATM   18  C   UNL     1       6.609  -5.935  27.160  1.00  0.00     0.088 A 
ATOM     19  HN  UNL     1       8.509  -6.124  28.176  1.00  0.00     0.164 HD
HETATM   20  C   UNL     1       5.903  -5.574  26.231  1.00  0.00     0.026 A 
HETATM   21  C   UNL     1       6.238  -4.963  25.110  1.00  0.00    -0.033 A 
HETATM   22  C   UNL     1       5.409  -4.536  24.029  1.00  0.00     0.050 C 
ENDBRANCH  13  15
ENDBRANCH  10  11
ENDBRANCH   1  10
BRANCH   1  23
HETATM   23  C   UNL     1      11.428  -1.474  22.943  1.00  0.00    -0.006 C 
BRANCH  23  24
HETATM   24  C   UNL     1      11.627  -0.789  23.892  1.00  0.00    -0.002 C 
BRANCH  24  25
HETATM   25  C   UNL     1      12.224   0.243  24.150  1.00  0.00    -0.001 C 
BRANCH  25  26
HETATM   26  C   UNL     1      11.244   1.349  24.203  1.00  0.00    -0.010 C 
HETATM   27  C   UNL     1      11.244   2.286  23.822  1.00  0.00     0.011 C 
ENDBRANCH  25  26
ENDBRANCH  24  25
ENDBRANCH  23  24
ENDBRANCH   1  23
TORSDOF 10
ENDMDL
MODEL 2
REMARK VINA RESULT:    -6.063      3.127      7.157
REMARK INTER + INTRA:         -11.036
REMARK INTER:                  -9.642
REMARK INTRA:                  -1.394
REMARK UNBOUND:                -1.427
REMARK  10 active torsions:
REMARK  status: ('A' for Active; 'I' for Inactive)
REMARK    1  A    between atoms: S_2  and  N_5 
REMARK    2  A    between atoms: C_7  and  C_8 
REMARK    3  A    between atoms: C_8  and  C_9 
REMARK    4  A    between atoms: C_9  and  C_15 
REMARK    5  A    between atoms: C_9  and  C_14 
REMARK    6  A    between atoms: C_11  and  C_12 
REMARK    7  A    between atoms: C_12  and  C_13 
REMARK    8  A    between atoms: C_13  and  C_14 
REMARK    9  A    between atoms: C_15  and  C_16 
REMARK       I    between atoms: C_16  and  N_18 
REMARK   10  A    between atoms: N_18  and  C_20 
ROOT
HETATM    1  C   UNL     1       7.909  -2.657  23.662  1.00  0.00     0.109 C 
ENDROOT
BRANCH   1   2
HETATM    2  C   UNL     1       8.645  -1.895  24.325  1.00  0.00     0.011 C 
BRANCH   2   3
HETATM    3  C   UNL     1       9.647  -1.270  24.540  1.00  0.00     0.097 C 
HETATM    4  N   UNL     1      10.338  -0.369  24.857  1.00  0.00    -0.296 N 
ATOM      5  HN  UNL     1      10.032   0.188  25.654  1.00  0.00     0.177 HD
BRANCH   4   6
HETATM    6  S   UNL     1      11.718   0.067  24.154  1.00  0.00     0.226 S 
HETATM    7  C   UNL     1      11.991  -1.250  22.904  1.00  0.00     0.186 C 
HETATM    8  O   UNL     1      11.605   1.307  23.451  1.00  0.00    -0.206 OA
HETATM    9  O   UNL     1      12.816  -0.001  25.053  1.00  0.00    -0.206 OA
ENDBRANCH   4   6
ENDBRANCH   2   3
ENDBRANCH   1   2
BRANCH   1  10
HETATM   10  C   UNL     1       7.873  -1.974  22.640  1.00  0.00    -0.071 C 
BRANCH  10  11
HETATM   11  C   UNL     1       7.715  -1.291  21.547  1.00  0.00     0.289 C 
HETATM   12  O   UNL     1       8.687  -0.905  21.096  1.00  0.00    -0.259 OA
HETATM   13  N   UNL     1       6.409  -1.189  21.199  1.00  0.00    -0.315 N 
ATOM     14  HN  UNL     1       5.668  -1.620  21.750  1.00  0.00     0.170 HD
BRANCH  13  15
HETATM   15  C   UNL     1       6.163  -0.524  20.146  1.00  0.00     0.057 A 
HETATM   16  C   UNL     1       5.988  -0.756  18.852  1.00  0.00     0.117 A 
HETATM   17  N   UNL     1       5.694  -0.453  17.717  1.00  0.00    -0.373 N 
HETATM   18  C   UNL     1       5.575   0.839  18.013  1.00  0.00     0.088 A 
ATOM     19  HN  UNL     1       5.581  -0.988  16.856  1.00  0.00     0.164 HD
HETATM   20  C   UNL     1       5.674   1.467  19.056  1.00  0.00     0.026 A 
HETATM   21  C   UNL     1       5.949   1.036  20.273  1.00  0.00    -0.033 A 
HETATM   22  C   UNL     1       6.058   1.771  21.491  1.00  0.00     0.050 C 
ENDBRANCH  13  15
ENDBRANCH  10  11
ENDBRANCH   1  10
BRANCH   1  23
HETATM   23  C   UNL     1       6.455  -3.032  24.190  1.00  0.00    -0.006 C 
BRANCH  23  24
HETATM   24  C   UNL     1       5.889  -4.015  23.836  1.00  0.00    -0.002 C 
BRANCH  24  25
HETATM   25  C   UNL     1       5.191  -4.365  22.899  1.00  0.00    -0.001 C 
BRANCH  25  26
HETATM   26  C   UNL     1       5.794  -5.571  22.293  1.00  0.00    -0.010 C 
HETATM   27  C   UNL     1       6.685  -5.743  21.845  1.00  0.00     0.011 C 
ENDBRANCH  25  26
ENDBRANCH  24  25
ENDBRANCH  23  24
ENDBRANCH   1  23
TORSDOF 10
ENDMDL
MODEL 3
REMARK VINA RESULT:    -5.908      1.672      2.043
REMARK INTER + INTRA:         -10.789
REMARK INTER:                  -9.618
REMARK INTRA:                  -1.172
REMARK UNBOUND:                -1.427
REMARK  10 active torsions:
REMARK  status: ('A' for Active; 'I' for Inactive)
REMARK    1  A    between atoms: S_2  and  N_5 
REMARK    2  A    between atoms: C_7  and  C_8 
REMARK    3  A    between atoms: C_8  and  C_9 
REMARK    4  A    between atoms: C_9  and  C_15 
REMARK    5  A    between atoms: C_9  and  C_14 
REMARK    6  A    between atoms: C_11  and  C_12 
REMARK    7  A    between atoms: C_12  and  C_13 
REMARK    8  A    between atoms: C_13  and  C_14 
REMARK    9  A    between atoms: C_15  and  C_16 
REMARK       I    between atoms: C_16  and  N_18 
REMARK   10  A    between atoms: N_18  and  C_20 
ROOT
HETATM    1  C   UNL     1       9.238  -2.295  23.479  1.00  0.00     0.109 C 
ENDROOT
BRANCH   1   2
HETATM    2  C   UNL     1       8.457  -1.957  22.563  1.00  0.00     0.011 C 
BRANCH   2   3
HETATM    3  C   UNL     1       7.721  -1.203  21.988  1.00  0.00     0.097 C 
HETATM    4  N   UNL     1       6.771  -0.819  21.405  1.00  0.00    -0.296 N 
ATOM      5  HN  UNL     1       5.869  -1.193  21.698  1.00  0.00     0.177 HD
BRANCH   4   6
HETATM    6  S   UNL     1       6.759   0.239  20.194  1.00  0.00     0.226 S 
HETATM    7  C   UNL     1       5.712  -0.581  18.926  1.00  0.00     0.186 C 
HETATM    8  O   UNL     1       6.117   1.467  20.546  1.00  0.00    -0.206 OA
HETATM    9  O   UNL     1       8.044   0.393  19.611  1.00  0.00    -0.206 OA
ENDBRANCH   4   6
ENDBRANCH   2   3
ENDBRANCH   1   2
BRANCH   1  10
HETATM   10  C   UNL     1       8.581  -3.251  23.887  1.00  0.00    -0.071 C 
BRANCH  10  11
HETATM   11  C   UNL     1       7.879  -4.299  24.198  1.00  0.00     0.289 C 
HETATM   12  O   UNL     1       8.247  -5.264  23.717  1.00  0.00    -0.259 OA
HETATM   13  N   UNL     1       6.853  -3.992  25.028  1.00  0.00    -0.315 N 
ATOM     14  HN  UNL     1       6.691  -3.040  25.357  1.00  0.00     0.170 HD
BRANCH  13  15
HETATM   15  C   UNL     1       6.106  -4.958  25.373  1.00  0.00     0.057 A 
HETATM   16  C   UNL     1       6.063  -5.880  26.326  1.00  0.00     0.117 A 
HETATM   17  N   UNL     1       5.552  -6.781  26.953  1.00  0.00    -0.373 N 
HETATM   18  C   UNL     1       4.522  -6.880  26.116  1.00  0.00     0.088 A 
ATOM     19  HN  UNL     1       5.814  -7.278  27.805  1.00  0.00     0.164 HD
HETATM   20  C   UNL     1       4.197  -6.254  25.119  1.00  0.00     0.026 A 
HETATM   21  C   UNL     1       4.799  -5.237  24.532  1.00  0.00    -0.033 A 
HETATM   22  C   UNL     1       4.412  -4.503  23.371  1.00  0.00     0.050 C 
ENDBRANCH  13  15
ENDBRANCH  10  11
ENDBRANCH   1  10
BRANCH   1  23
HETATM   23  C   UNL     1       9.603  -1.272  24.643  1.00  0.00    -0.006 C 
BRANCH  23  24
HETATM   24  C   UNL     1      10.262  -0.304  24.448  1.00  0.00    -0.002 C 
BRANCH  24  25
HETATM   25  C   UNL     1      11.122   0.334  25.033  1.00  0.00    -0.001 C 
BRANCH  25  26
HETATM   26  C   UNL     1      12.381   0.234  24.265  1.00  0.00    -0.010 C 
HETATM   27  C   UNL     1      13.135  -0.440  24.268  1.00  0.00     0.011 C 
ENDBRANCH  25  26
ENDBRANCH  24  25
ENDBRANCH  23  24
ENDBRANCH   1  23
TORSDOF 10
ENDMDL
MODEL 4
REMARK VINA RESULT:    -5.869      3.564      7.672
REMARK INTER + INTRA:         -10.728
REMARK INTER:                  -9.348
REMARK INTRA:                  -1.380
REMARK UNBOUND:                -1.427
REMARK  10 active torsions:
REMARK  status: ('A' for Active; 'I' for Inactive)
REMARK    1  A    between atoms: S_2  and  N_5 
REMARK    2  A    between atoms: C_7  and  C_8 
REMARK    3  A    between atoms: C_8  and  C_9 
REMARK    4  A    between atoms: C_9  and  C_15 
REMARK    5  A    between atoms: C_9  and  C_14 
REMARK    6  A    between atoms: C_11  and  C_12 
REMARK    7  A    between atoms: C_12  and  C_13 
REMARK    8  A    between atoms: C_13  and  C_14 
REMARK    9  A    between atoms: C_15  and  C_16 
REMARK       I    between atoms: C_16  and  N_18 
REMARK   10  A    between atoms: N_18  and  C_20 
ROOT
HETATM    1  C   UNL     1       8.203  -4.997  24.529  1.00  0.00     0.109 C 
ENDROOT
BRANCH   1   2
HETATM    2  C   UNL     1       7.614  -5.108  25.627  1.00  0.00     0.011 C 
BRANCH   2   3
HETATM    3  C   UNL     1       7.499  -5.474  26.764  1.00  0.00     0.097 C 
HETATM    4  N   UNL     1       7.595  -6.160  27.717  1.00  0.00    -0.296 N 
ATOM      5  HN  UNL     1       8.470  -6.673  27.829  1.00  0.00     0.177 HD
BRANCH   4   6
HETATM    6  S   UNL     1       6.483  -6.368  28.859  1.00  0.00     0.226 S 
HETATM    7  C   UNL     1       4.925  -6.553  27.905  1.00  0.00     0.186 C 
HETATM    8  O   UNL     1       6.676  -7.577  29.598  1.00  0.00    -0.206 OA
HETATM    9  O   UNL     1       6.324  -5.208  29.663  1.00  0.00    -0.206 OA
ENDBRANCH   4   6
ENDBRANCH   2   3
ENDBRANCH   1   2
BRANCH   1  10
HETATM   10  C   UNL     1       8.542  -3.823  24.663  1.00  0.00    -0.071 C 
BRANCH  10  11
HETATM   11  C   UNL     1       8.995  -2.624  24.876  1.00  0.00     0.289 C 
HETATM   12  O   UNL     1       8.726  -2.201  25.899  1.00  0.00    -0.259 OA
HETATM   13  N   UNL     1       9.686  -2.149  23.811  1.00  0.00    -0.315 N 
ATOM     14  HN  UNL     1       9.821  -2.701  22.965  1.00  0.00     0.170 HD
BRANCH  13  15
HETATM   15  C   UNL     1      10.154  -0.975  23.930  1.00  0.00     0.057 A 
HETATM   16  C   UNL     1      11.259  -0.395  24.379  1.00  0.00     0.117 A 
HETATM   17  N   UNL     1      12.008   0.539  24.558  1.00  0.00    -0.373 N 
HETATM   18  C   UNL     1      11.135   1.426  24.087  1.00  0.00     0.088 A 
ATOM     19  HN  UNL     1      12.955   0.617  24.931  1.00  0.00     0.164 HD
HETATM   20  C   UNL     1      10.017   1.320  23.607  1.00  0.00     0.026 A 
HETATM   21  C   UNL     1       9.291   0.237  23.400  1.00  0.00    -0.033 A 
HETATM   22  C   UNL     1       7.988   0.115  22.832  1.00  0.00     0.050 C 
ENDBRANCH  13  15
ENDBRANCH  10  11
ENDBRANCH   1  10
BRANCH   1  23
HETATM   23  C   UNL     1       7.418  -5.248  23.166  1.00  0.00    -0.006 C 
BRANCH  23  24
HETATM   24  C   UNL     1       6.235  -5.171  23.097  1.00  0.00    -0.002 C 
BRANCH  24  25
HETATM   25  C   UNL     1       5.408  -4.460  22.549  1.00  0.00    -0.001 C 
BRANCH  25  26
HETATM   26  C   UNL     1       4.931  -3.461  23.529  1.00  0.00    -0.010 C 
HETATM   27  C   UNL     1       4.436  -3.542  24.407  1.00  0.00     0.011 C 
ENDBRANCH  25  26
ENDBRANCH  24  25
ENDBRANCH  23  24
ENDBRANCH   1  23
TORSDOF 10
ENDMDL
MODEL 5
REMARK VINA RESULT:    -5.833      1.276      1.821
REMARK INTER + INTRA:         -10.670
REMARK INTER:                  -9.383
REMARK INTRA:                  -1.287
REMARK UNBOUND:                -1.427
REMARK  10 active torsions:
REMARK  status: ('A' for Active; 'I' for Inactive)
REMARK    1  A    between atoms: S_2  and  N_5 
REMARK    2  A    between atoms: C_7  and  C_8 
REMARK    3  A    between atoms: C_8  and  C_9 
REMARK    4  A    between atoms: C_9  and  C_15 
REMARK    5  A    between atoms: C_9  and  C_14 
REMARK    6  A    between atoms: C_11  and  C_12 
REMARK    7  A    between atoms: C_12  and  C_13 
REMARK    8  A    between atoms: C_13  and  C_14 
REMARK    9  A    between atoms: C_15  and  C_16 
REMARK       I    between atoms: C_16  and  N_18 
REMARK   10  A    between atoms: N_18  and  C_20 
ROOT
HETATM    1  C   UNL     1      10.167  -1.883  22.924  1.00  0.00     0.109 C 
ENDROOT
BRANCH   1   2
HETATM    2  C   UNL     1       9.646  -1.353  21.918  1.00  0.00     0.011 C 
BRANCH   2   3
HETATM    3  C   UNL     1       8.907  -0.597  21.351  1.00  0.00     0.097 C 
HETATM    4  N   UNL     1       8.096   0.245  21.196  1.00  0.00    -0.296 N 
ATOM      5  HN  UNL     1       8.128   1.038  21.836  1.00  0.00     0.177 HD
BRANCH   4   6
HETATM    6  S   UNL     1       6.945   0.265  20.073  1.00  0.00     0.226 S 
HETATM    7  C   UNL     1       5.870   1.660  20.594  1.00  0.00     0.186 C 
HETATM    8  O   UNL     1       7.453   0.580  18.774  1.00  0.00    -0.206 OA
HETATM    9  O   UNL     1       6.136  -0.901  20.121  1.00  0.00    -0.206 OA
ENDBRANCH   4   6
ENDBRANCH   2   3
ENDBRANCH   1   2
BRANCH   1  10
HETATM   10  C   UNL     1       9.156  -2.455  23.329  1.00  0.00    -0.071 C 
BRANCH  10  11
HETATM   11  C   UNL     1       8.035  -3.029  23.646  1.00  0.00     0.289 C 
HETATM   12  O   UNL     1       7.183  -2.302  23.853  1.00  0.00    -0.259 OA
HETATM   13  N   UNL     1       8.147  -4.379  23.664  1.00  0.00    -0.315 N 
ATOM     14  HN  UNL     1       9.022  -4.852  23.439  1.00  0.00     0.170 HD
BRANCH  13  15
HETATM   15  C   UNL     1       7.099  -5.022  23.979  1.00  0.00     0.057 A 
HETATM   16  C   UNL     1       6.081  -5.609  23.364  1.00  0.00     0.117 A 
HETATM   17  N   UNL     1       5.084  -6.295  23.310  1.00  0.00    -0.373 N 
HETATM   18  C   UNL     1       5.001  -6.409  24.633  1.00  0.00     0.088 A 
ATOM     19  HN  UNL     1       4.520  -6.652  22.539  1.00  0.00     0.164 HD
HETATM   20  C   UNL     1       5.703  -6.010  25.549  1.00  0.00     0.026 A 
HETATM   21  C   UNL     1       6.817  -5.303  25.507  1.00  0.00    -0.033 A 
HETATM   22  C   UNL     1       7.640  -4.845  26.579  1.00  0.00     0.050 C 
ENDBRANCH  13  15
ENDBRANCH  10  11
ENDBRANCH   1  10
BRANCH   1  23
HETATM   23  C   UNL     1      10.843  -0.982  24.049  1.00  0.00    -0.006 C 
BRANCH  23  24
HETATM   24  C   UNL     1      10.280  -0.060  24.541  1.00  0.00    -0.002 C 
BRANCH  24  25
HETATM   25  C   UNL     1      10.525   1.103  24.818  1.00  0.00    -0.001 C 
BRANCH  25  26
HETATM   26  C   UNL     1      11.115   1.751  23.627  1.00  0.00    -0.010 C 
HETATM   27  C   UNL     1      10.712   2.266  22.855  1.00  0.00     0.011 C 
ENDBRANCH  25  26
ENDBRANCH  24  25
ENDBRANCH  23  24
ENDBRANCH   1  23
TORSDOF 10
ENDMDL
MODEL 6
REMARK VINA RESULT:    -5.675      3.287      7.908
REMARK INTER + INTRA:         -10.420
REMARK INTER:                  -9.482
REMARK INTRA:                  -0.938
REMARK UNBOUND:                -1.427
REMARK  10 active torsions:
REMARK  status: ('A' for Active; 'I' for Inactive)
REMARK    1  A    between atoms: S_2  and  N_5 
REMARK    2  A    between atoms: C_7  and  C_8 
REMARK    3  A    between atoms: C_8  and  C_9 
REMARK    4  A    between atoms: C_9  and  C_15 
REMARK    5  A    between atoms: C_9  and  C_14 
REMARK    6  A    between atoms: C_11  and  C_12 
REMARK    7  A    between atoms: C_12  and  C_13 
REMARK    8  A    between atoms: C_13  and  C_14 
REMARK    9  A    between atoms: C_15  and  C_16 
REMARK       I    between atoms: C_16  and  N_18 
REMARK   10  A    between atoms: N_18  and  C_20 
ROOT
HETATM    1  C   UNL     1       9.498   0.405  21.612  1.00  0.00     0.109 C 
ENDROOT
BRANCH   1   2
HETATM    2  C   UNL     1       9.664  -0.626  22.300  1.00  0.00     0.011 C 
BRANCH   2   3
HETATM    3  C   UNL     1       9.353  -1.699  22.739  1.00  0.00     0.097 C 
HETATM    4  N   UNL     1       8.958  -2.809  22.762  1.00  0.00    -0.296 N 
ATOM      5  HN  UNL     1       9.215  -3.405  21.975  1.00  0.00     0.177 HD
BRANCH   4   6
HETATM    6  S   UNL     1       8.055  -3.478  23.912  1.00  0.00     0.226 S 
HETATM    7  C   UNL     1       8.622  -2.631  25.441  1.00  0.00     0.186 C 
HETATM    8  O   UNL     1       6.664  -3.187  23.754  1.00  0.00    -0.206 OA
HETATM    9  O   UNL     1       8.352  -4.856  24.086  1.00  0.00    -0.206 OA
ENDBRANCH   4   6
ENDBRANCH   2   3
ENDBRANCH   1   2
BRANCH   1  10
HETATM   10  C   UNL     1      10.129   1.169  22.339  1.00  0.00    -0.071 C 
BRANCH  10  11
HETATM   11  C   UNL     1      10.761   2.070  23.030  1.00  0.00     0.289 C 
HETATM   12  O   UNL     1      11.543   1.646  23.741  1.00  0.00    -0.259 OA
HETATM   13  N   UNL     1      10.329   3.322  22.743  1.00  0.00    -0.315 N 
ATOM     14  HN  UNL     1       9.599   3.496  22.052  1.00  0.00     0.170 HD
BRANCH  13  15
HETATM   15  C   UNL     1      10.885   4.265  23.384  1.00  0.00     0.057 A 
HETATM   16  C   UNL     1      12.091   4.805  23.495  1.00  0.00     0.117 A 
HETATM   17  N   UNL     1      12.886   5.638  23.870  1.00  0.00    -0.373 N 
HETATM   18  C   UNL     1      11.992   6.253  24.641  1.00  0.00     0.088 A 
ATOM     19  HN  UNL     1      13.872   5.806  23.671  1.00  0.00     0.164 HD
HETATM   20  C   UNL     1      10.801   6.068  24.844  1.00  0.00     0.026 A 
HETATM   21  C   UNL     1       9.995   5.154  24.340  1.00  0.00    -0.033 A 
HETATM   22  C   UNL     1       8.603   4.945  24.574  1.00  0.00     0.050 C 
ENDBRANCH  13  15
ENDBRANCH  10  11
ENDBRANCH   1  10
BRANCH   1  23
HETATM   23  C   UNL     1       8.030   0.939  21.304  1.00  0.00    -0.006 C 
BRANCH  23  24
HETATM   24  C   UNL     1       7.380   0.514  20.406  1.00  0.00    -0.002 C 
BRANCH  24  25
HETATM   25  C   UNL     1       7.568   0.105  19.272  1.00  0.00    -0.001 C 
BRANCH  25  26
HETATM   26  C   UNL     1       6.390   0.455  18.449  1.00  0.00    -0.010 C 
HETATM   27  C   UNL     1       5.562   1.005  18.634  1.00  0.00     0.011 C 
ENDBRANCH  25  26
ENDBRANCH  24  25
ENDBRANCH  23  24
ENDBRANCH   1  23
TORSDOF 10
ENDMDL
MODEL 7
REMARK VINA RESULT:    -5.658     24.899     28.902
REMARK INTER + INTRA:         -10.393
REMARK INTER:                  -8.930
REMARK INTRA:                  -1.463
REMARK UNBOUND:                -1.427
REMARK  10 active torsions:
REMARK  status: ('A' for Active; 'I' for Inactive)
REMARK    1  A    between atoms: S_2  and  N_5 
REMARK    2  A    between atoms: C_7  and  C_8 
REMARK    3  A    between atoms: C_8  and  C_9 
REMARK    4  A    between atoms: C_9  and  C_15 
REMARK    5  A    between atoms: C_9  and  C_14 
REMARK    6  A    between atoms: C_11  and  C_12 
REMARK    7  A    between atoms: C_12  and  C_13 
REMARK    8  A    between atoms: C_13  and  C_14 
REMARK    9  A    between atoms: C_15  and  C_16 
REMARK       I    between atoms: C_16  and  N_18 
REMARK   10  A    between atoms: N_18  and  C_20 
ROOT
HETATM    1  C   UNL     1       8.716  16.956   1.473  1.00  0.00     0.109 C 
ENDROOT
BRANCH   1   2
HETATM    2  C   UNL     1       8.209  15.903   1.916  1.00  0.00     0.011 C 
BRANCH   2   3
HETATM    3  C   UNL     1       8.215  14.745   2.232  1.00  0.00     0.097 C 
HETATM    4  N   UNL     1       7.872  13.619   2.303  1.00  0.00    -0.296 N 
ATOM      5  HN  UNL     1       7.482  13.202   1.458  1.00  0.00     0.177 HD
BRANCH   4   6
HETATM    6  S   UNL     1       7.961  12.676   3.602  1.00  0.00     0.226 S 
HETATM    7  C   UNL     1       7.145  11.124   3.056  1.00  0.00     0.186 C 
HETATM    8  O   UNL     1       9.309  12.349   3.950  1.00  0.00    -0.206 OA
HETATM    9  O   UNL     1       7.182  13.178   4.678  1.00  0.00    -0.206 OA
ENDBRANCH   4   6
ENDBRANCH   2   3
ENDBRANCH   1   2
BRANCH   1  10
HETATM   10  C   UNL     1       9.185  17.352   2.538  1.00  0.00    -0.071 C 
BRANCH  10  11
HETATM   11  C   UNL     1       9.712  17.877   3.603  1.00  0.00     0.289 C 
HETATM   12  O   UNL     1       9.126  17.676   4.559  1.00  0.00    -0.259 OA
HETATM   13  N   UNL     1      10.849  18.558   3.321  1.00  0.00    -0.315 N 
ATOM     14  HN  UNL     1      11.221  18.619   2.373  1.00  0.00     0.170 HD
BRANCH  13  15
HETATM   15  C   UNL     1      11.425  19.115   4.305  1.00  0.00     0.057 A 
HETATM   16  C   UNL     1      12.352  18.815   5.204  1.00  0.00     0.117 A 
HETATM   17  N   UNL     1      13.119  19.062   6.108  1.00  0.00    -0.373 N 
HETATM   18  C   UNL     1      12.654  20.299   6.265  1.00  0.00     0.088 A 
ATOM     19  HN  UNL     1      13.849  18.523   6.575  1.00  0.00     0.164 HD
HETATM   20  C   UNL     1      11.806  20.951   5.675  1.00  0.00     0.026 A 
HETATM   21  C   UNL     1      11.046  20.609   4.652  1.00  0.00    -0.033 A 
HETATM   22  C   UNL     1      10.060  21.375   3.960  1.00  0.00     0.050 C 
ENDBRANCH  13  15
ENDBRANCH  10  11
ENDBRANCH   1  10
BRANCH   1  23
HETATM   23  C   UNL     1       7.803  18.054   0.769  1.00  0.00    -0.006 C 
BRANCH  23  24
HETATM   24  C   UNL     1       8.212  18.749  -0.103  1.00  0.00    -0.002 C 
BRANCH  24  25
HETATM   25  C   UNL     1       8.324  19.943  -0.327  1.00  0.00    -0.001 C 
BRANCH  25  26
HETATM   26  C   UNL     1       9.512  20.444   0.398  1.00  0.00    -0.010 C 
HETATM   27  C   UNL     1      10.081  21.274   0.293  1.00  0.00     0.011 C 
ENDBRANCH  25  26
ENDBRANCH  24  25
ENDBRANCH  23  24
ENDBRANCH   1  23
TORSDOF 10
ENDMDL
MODEL 8
REMARK VINA RESULT:    -5.628      3.145      6.686
REMARK INTER + INTRA:         -10.346
REMARK INTER:                  -9.149
REMARK INTRA:                  -1.197
REMARK UNBOUND:                -1.427
REMARK  10 active torsions:
REMARK  status: ('A' for Active; 'I' for Inactive)
REMARK    1  A    between atoms: S_2  and  N_5 
REMARK    2  A    between atoms: C_7  and  C_8 
REMARK    3  A    between atoms: C_8  and  C_9 
REMARK    4  A    between atoms: C_9  and  C_15 
REMARK    5  A    between atoms: C_9  and  C_14 
REMARK    6  A    between atoms: C_11  and  C_12 
REMARK    7  A    between atoms: C_12  and  C_13 
REMARK    8  A    between atoms: C_13  and  C_14 
REMARK    9  A    between atoms: C_15  and  C_16 
REMARK       I    between atoms: C_16  and  N_18 
REMARK   10  A    between atoms: N_18  and  C_20 
ROOT
HETATM    1  C   UNL     1       9.433  -1.924  23.376  1.00  0.00     0.109 C 
ENDROOT
BRANCH   1   2
HETATM    2  C   UNL     1       9.597  -0.857  24.005  1.00  0.00     0.011 C 
BRANCH   2   3
HETATM    3  C   UNL     1       9.960   0.280  24.138  1.00  0.00     0.097 C 
HETATM    4  N   UNL     1      10.076   1.352  24.612  1.00  0.00    -0.296 N 
ATOM      5  HN  UNL     1      10.140   1.401  25.629  1.00  0.00     0.177 HD
BRANCH   4   6
HETATM    6  S   UNL     1      10.145   2.746  23.814  1.00  0.00     0.226 S 
HETATM    7  C   UNL     1       8.998   3.830  24.755  1.00  0.00     0.186 C 
HETATM    8  O   UNL     1      11.441   3.347  23.871  1.00  0.00    -0.206 OA
HETATM    9  O   UNL     1       9.606   2.636  22.505  1.00  0.00    -0.206 OA
ENDBRANCH   4   6
ENDBRANCH   2   3
ENDBRANCH   1   2
BRANCH   1  10
HETATM   10  C   UNL     1       8.965  -1.423  22.355  1.00  0.00    -0.071 C 
BRANCH  10  11
HETATM   11  C   UNL     1       8.438  -0.794  21.348  1.00  0.00     0.289 C 
HETATM   12  O   UNL     1       9.192  -0.224  20.711  1.00  0.00    -0.259 OA
HETATM   13  N   UNL     1       7.094  -0.959  21.295  1.00  0.00    -0.315 N 
ATOM     14  HN  UNL     1       6.593  -1.527  21.978  1.00  0.00     0.170 HD
BRANCH  13  15
HETATM   15  C   UNL     1       6.496  -0.366  20.347  1.00  0.00     0.057 A 
HETATM   16  C   UNL     1       6.094  -0.637  19.112  1.00  0.00     0.117 A 
HETATM   17  N   UNL     1       5.506  -0.407  18.078  1.00  0.00    -0.373 N 
HETATM   18  C   UNL     1       5.195   0.834  18.443  1.00  0.00     0.088 A 
ATOM     19  HN  UNL     1       5.319  -0.959  17.241  1.00  0.00     0.164 HD
HETATM   20  C   UNL     1       5.390   1.475  19.465  1.00  0.00     0.026 A 
HETATM   21  C   UNL     1       6.004   1.117  20.577  1.00  0.00    -0.033 A 
HETATM   22  C   UNL     1       6.223   1.866  21.772  1.00  0.00     0.050 C 
ENDBRANCH  13  15
ENDBRANCH  10  11
ENDBRANCH   1  10
BRANCH   1  23
HETATM   23  C   UNL     1       8.500  -3.071  23.967  1.00  0.00    -0.006 C 
BRANCH  23  24
HETATM   24  C   UNL     1       7.998  -3.895  23.275  1.00  0.00    -0.002 C 
BRANCH  24  25
HETATM   25  C   UNL     1       7.063  -4.677  23.336  1.00  0.00    -0.001 C 
BRANCH  25  26
HETATM   26  C   UNL     1       7.111  -5.556  22.148  1.00  0.00    -0.010 C 
HETATM   27  C   UNL     1       6.395  -6.041  21.624  1.00  0.00     0.011 C 
ENDBRANCH  25  26
ENDBRANCH  24  25
ENDBRANCH  23  24
ENDBRANCH   1  23
TORSDOF 10
ENDMDL
MODEL 9
REMARK VINA RESULT:    -5.551     24.420     27.968
REMARK INTER + INTRA:         -10.223
REMARK INTER:                  -8.867
REMARK INTRA:                  -1.356
REMARK UNBOUND:                -1.427
REMARK  10 active torsions:
REMARK  status: ('A' for Active; 'I' for Inactive)
REMARK    1  A    between atoms: S_2  and  N_5 
REMARK    2  A    between atoms: C_7  and  C_8 
REMARK    3  A    between atoms: C_8  and  C_9 
REMARK    4  A    between atoms: C_9  and  C_15 
REMARK    5  A    between atoms: C_9  and  C_14 
REMARK    6  A    between atoms: C_11  and  C_12 
REMARK    7  A    between atoms: C_12  and  C_13 
REMARK    8  A    between atoms: C_13  and  C_14 
REMARK    9  A    between atoms: C_15  and  C_16 
REMARK       I    between atoms: C_16  and  N_18 
REMARK   10  A    between atoms: N_18  and  C_20 
ROOT
HETATM    1  C   UNL     1       7.968  17.403   1.959  1.00  0.00     0.109 C 
ENDROOT
BRANCH   1   2
HETATM    2  C   UNL     1       8.964  17.560   2.698  1.00  0.00     0.011 C 
BRANCH   2   3
HETATM    3  C   UNL     1       9.784  18.206   3.291  1.00  0.00     0.097 C 
HETATM    4  N   UNL     1      10.673  18.957   3.476  1.00  0.00    -0.296 N 
ATOM      5  HN  UNL     1      10.700  19.792   2.890  1.00  0.00     0.177 HD
BRANCH   4   6
HETATM    6  S   UNL     1      11.848  18.796   4.562  1.00  0.00     0.226 S 
HETATM    7  C   UNL     1      12.485  20.509   4.755  1.00  0.00     0.186 C 
HETATM    8  O   UNL     1      11.360  18.377   5.839  1.00  0.00    -0.206 OA
HETATM    9  O   UNL     1      12.930  18.023   4.063  1.00  0.00    -0.206 OA
ENDBRANCH   4   6
ENDBRANCH   2   3
ENDBRANCH   1   2
BRANCH   1  10
HETATM   10  C   UNL     1       7.931  16.176   2.022  1.00  0.00    -0.071 C 
BRANCH  10  11
HETATM   11  C   UNL     1       7.765  14.889   2.091  1.00  0.00     0.289 C 
HETATM   12  O   UNL     1       7.930  14.347   1.102  1.00  0.00    -0.259 OA
HETATM   13  N   UNL     1       7.423  14.489   3.339  1.00  0.00    -0.315 N 
ATOM     14  HN  UNL     1       7.327  15.150   4.110  1.00  0.00     0.170 HD
BRANCH  13  15
HETATM   15  C   UNL     1       7.229  13.245   3.493  1.00  0.00     0.057 A 
HETATM   16  C   UNL     1       7.951  12.152   3.701  1.00  0.00     0.117 A 
HETATM   17  N   UNL     1       8.111  10.978   3.952  1.00  0.00    -0.373 N 
HETATM   18  C   UNL     1       6.809  10.711   3.890  1.00  0.00     0.088 A 
ATOM     19  HN  UNL     1       8.936  10.408   4.139  1.00  0.00     0.164 HD
HETATM   20  C   UNL     1       5.824  11.408   3.702  1.00  0.00     0.026 A 
HETATM   21  C   UNL     1       5.743  12.708   3.488  1.00  0.00    -0.033 A 
HETATM   22  C   UNL     1       4.590  13.521   3.276  1.00  0.00     0.050 C 
ENDBRANCH  13  15
ENDBRANCH  10  11
ENDBRANCH   1  10
BRANCH   1  23
HETATM   23  C   UNL     1       7.992  17.929   0.456  1.00  0.00    -0.006 C 
BRANCH  23  24
HETATM   24  C   UNL     1       8.135  19.079   0.193  1.00  0.00    -0.002 C 
BRANCH  24  25
HETATM   25  C   UNL     1       8.987  19.788  -0.316  1.00  0.00    -0.001 C 
BRANCH  25  26
HETATM   26  C   UNL     1       9.312  20.878   0.628  1.00  0.00    -0.010 C 
HETATM   27  C   UNL     1      10.160  21.396   0.813  1.00  0.00     0.011 C 
ENDBRANCH  25  26
ENDBRANCH  24  25
ENDBRANCH  23  24
ENDBRANCH   1  23
TORSDOF 10
ENDMDL
