stable:False satoms:11 tatoms:24 sratio:0.4583333333333333
  -OEChem-07092417423D

 24 24  0     0  0  0  0  0  0999 V2000
    6.4859   -5.0201   26.5114 Cl  0  0  0  0  0  0  0  0  0  0  0  0
    8.2652   -4.3900   26.1585 S   0  0  0  0  0  0  0  0  0  0  0  0
    9.1010   -5.5326   26.0709 O   0  0  0  0  0  0  0  0  0  0  0  0
    8.6187   -3.4976   27.2120 O   0  0  0  0  0  0  0  0  0  0  0  0
    8.1072   -3.7072   24.7244 N   0  0  0  0  0  0  0  0  0  0  0  0
    8.9120   -2.9421   24.2161 C   0  0  0  0  0  0  0  0  0  0  0  0
    9.5037   -2.1294   23.6540 C   0  0  0  0  0  0  0  0  0  0  0  0
   10.3449   -1.2448   23.0072 C   0  0  0  0  0  0  0  0  0  0  0  0
   11.4012    0.3007   24.5096 H   0  0  0  0  0  0  0  0  0  0  0  0
   12.1875   -0.0536   23.9717 C   0  5  0  0  0  0  0  0  0  0  0  0
   13.1881    0.0901   23.8644 H   0  0  0  0  0  0  0  0  0  0  0  0
   12.7077   -1.6968   22.3902 O   0  0  0  0  0  0  0  0  0  0  0  0
   11.8075   -1.2579   22.9504 C   0  0  0  0  0  0  0  0  0  0  0  0
    9.7535   -0.4523   22.2568 C   0  0  0  0  0  0  0  0  0  0  0  0
    8.9991    0.1687   21.3262 C   0  0  0  0  0  0  0  0  0  0  0  0
    9.4356    1.1437   20.7289 O   0  0  0  0  0  0  0  0  0  0  0  0
    7.8234   -0.4880   21.2003 N   0  0  0  0  0  0  0  0  0  0  0  0
    7.1087    0.0337   20.2830 C   0  0  0  0  0  0  0  0  0  0  0  0
    7.1967    0.1073   19.0391 C   0  0  0  0  0  0  0  0  0  0  0  0
    6.1868    0.6117   17.1877 N   0  0  0  0  0  0  0  0  0  0  0  0
    6.0612    0.6376   18.2204 C   0  0  0  0  0  0  0  0  0  0  0  0
    5.3854    0.8142   19.5066 C   0  0  0  0  0  0  0  0  0  0  0  0
    5.6973    0.5702   20.6419 C   0  0  0  0  0  0  0  0  0  0  0  0
    5.3058    0.6444   21.6649 H   0  0  0  0  0  0  0  0  0  0  0  0
 20 21  1  0  0  0  0
 19 21  1  0  0  0  0
 21 22  2  0  0  0  0
 18 19  1  0  0  0  0
 22 23  1  0  0  0  0
 18 23  2  0  0  0  0
 17 18  1  0  0  0  0
 23 24  1  0  0  0  0
 15 16  2  0  0  0  0
 15 17  1  0  0  0  0
 14 15  1  0  0  0  0
  8 14  2  3  0  0  0
 12 13  2  0  0  0  0
  8 13  1  0  0  0  0
 10 13  1  0  0  0  0
  7  8  1  0  0  0  0
  6  7  3  0  0  0  0
 10 11  1  0  0  0  0
  9 10  1  0  0  0  0
  5  6  1  0  0  0  0
  2  5  1  0  0  0  0
  2  3  2  0  0  0  0
  1  2  1  0  0  0  0
  2  4  2  0  0  0  0
M  CHG  1  10  -1
M  END
> <Shapegauss>
-255.809677

$$$$
