MODEL 1
REMARK VINA RESULT:    -6.254      0.000      0.000
REMARK INTER + INTRA:          -9.678
REMARK INTER:                  -8.996
REMARK INTRA:                  -0.682
REMARK UNBOUND:                -0.682
REMARK  8 active torsions:
REMARK  status: ('A' for Active; 'I' for Inactive)
REMARK    1  A    between atoms: S_2  and  N_5 
REMARK    2  A    between atoms: N_5  and  C_7 
REMARK    3  A    between atoms: C_8  and  C_9 
REMARK    4  A    between atoms: C_9  and  C_13 
REMARK    5  A    between atoms: C_9  and  C_12 
REMARK    6  A    between atoms: C_13  and  C_14 
REMARK       I    between atoms: C_14  and  N_16 
REMARK    7  A    between atoms: N_16  and  C_18 
REMARK    8  A    between atoms: N_20  and  C_23 
ROOT
HETATM    1  C   UNL     1       9.487  -1.060  22.069  1.00  0.00    -0.030 C 
ENDROOT
BRANCH   1   2
HETATM    2  C   UNL     1      10.068  -1.698  22.961  1.00  0.00     0.119 C 
BRANCH   2   3
HETATM    3  C   UNL     1       9.262  -2.618  23.602  1.00  0.00    -0.030 C 
HETATM    4  C   UNL     1       8.673  -3.479  24.090  1.00  0.00     0.027 C 
BRANCH   4   5
HETATM    5  N   UNL     1       7.888  -4.244  24.630  1.00  0.00    -0.229 N 
ATOM      6  HN  UNL     1       7.437  -4.945  24.043  1.00  0.00     0.190 HD
BRANCH   5   7
HETATM    7  S   UNL     1       7.512  -4.232  26.182  1.00  0.00     0.327 S 
HETATM    8 CL   UNL     1       6.288  -5.704  26.318  1.00  0.00     0.042 Cl
HETATM    9  O   UNL     1       8.648  -4.562  26.967  1.00  0.00    -0.188 OA
HETATM   10  O   UNL     1       6.827  -3.064  26.624  1.00  0.00    -0.188 OA
ENDBRANCH   5   7
ENDBRANCH   4   5
ENDBRANCH   2   3
BRANCH   2  11
HETATM   11  C   UNL     1      11.518  -1.530  23.069  1.00  0.00     0.189 C 
HETATM   12  C   UNL     1      11.629  -0.221  24.024  1.00  0.00     0.072 C 
HETATM   13  O   UNL     1      12.525  -1.889  22.651  1.00  0.00    -0.287 OA
ENDBRANCH   2  11
ENDBRANCH   1   2
BRANCH   1  14
HETATM   14  C   UNL     1       8.852  -0.153  21.297  1.00  0.00     0.294 C 
HETATM   15  O   UNL     1       9.384   0.919  21.042  1.00  0.00    -0.258 OA
HETATM   16  N   UNL     1       7.668  -0.668  20.892  1.00  0.00    -0.317 N 
ATOM     17  HN  UNL     1       7.306  -1.578  21.176  1.00  0.00     0.170 HD
BRANCH  16  18
HETATM   18  C   UNL     1       7.069   0.137  20.108  1.00  0.00     0.037 A 
HETATM   19  C   UNL     1       7.021   0.279  18.868  1.00  0.00     0.058 A 
HETATM   20  C   UNL     1       6.043   1.226  18.242  1.00  0.00     0.027 A 
HETATM   21  C   UNL     1       5.635   1.511  19.619  1.00  0.00     0.031 A 
HETATM   22  C   UNL     1       5.983   1.083  20.687  1.00  0.00     0.032 A 
BRANCH  20  23
HETATM   23  N   UNL     1       6.023   1.246  17.202  1.00  0.00    -0.399 N 
ATOM     24  HN2 UNL     1       5.825   1.589  16.263  1.00  0.00     0.156 HD
ATOM     25  HN1 UNL     1       6.332   0.395  16.730  1.00  0.00     0.156 HD
ENDBRANCH  20  23
ENDBRANCH  16  18
ENDBRANCH   1  14
TORSDOF 8
ENDMDL
MODEL 2
REMARK VINA RESULT:    -6.239      2.217      2.391
REMARK INTER + INTRA:          -9.657
REMARK INTER:                  -9.107
REMARK INTRA:                  -0.549
REMARK UNBOUND:                -0.682
REMARK  8 active torsions:
REMARK  status: ('A' for Active; 'I' for Inactive)
REMARK    1  A    between atoms: S_2  and  N_5 
REMARK    2  A    between atoms: N_5  and  C_7 
REMARK    3  A    between atoms: C_8  and  C_9 
REMARK    4  A    between atoms: C_9  and  C_13 
REMARK    5  A    between atoms: C_9  and  C_12 
REMARK    6  A    between atoms: C_13  and  C_14 
REMARK       I    between atoms: C_14  and  N_16 
REMARK    7  A    between atoms: N_16  and  C_18 
REMARK    8  A    between atoms: N_20  and  C_23 
ROOT
HETATM    1  C   UNL     1       8.975  -0.816  21.930  1.00  0.00    -0.030 C 
ENDROOT
BRANCH   1   2
HETATM    2  C   UNL     1       9.444  -1.652  22.719  1.00  0.00     0.119 C 
BRANCH   2   3
HETATM    3  C   UNL     1       8.548  -2.639  23.080  1.00  0.00    -0.030 C 
HETATM    4  C   UNL     1       7.813  -3.416  23.508  1.00  0.00     0.027 C 
BRANCH   4   5
HETATM    5  N   UNL     1       7.062  -4.343  23.769  1.00  0.00    -0.229 N 
ATOM      6  HN  UNL     1       7.129  -4.752  24.701  1.00  0.00     0.190 HD
BRANCH   5   7
HETATM    7  S   UNL     1       5.984  -4.964  22.768  1.00  0.00     0.327 S 
HETATM    8 CL   UNL     1       7.089  -5.889  21.500  1.00  0.00     0.042 Cl
HETATM    9  O   UNL     1       5.203  -5.945  23.433  1.00  0.00    -0.188 OA
HETATM   10  O   UNL     1       5.214  -4.007  22.047  1.00  0.00    -0.188 OA
ENDBRANCH   5   7
ENDBRANCH   4   5
ENDBRANCH   2   3
BRANCH   2  11
HETATM   11  C   UNL     1      10.881  -1.586  22.988  1.00  0.00     0.189 C 
HETATM   12  C   UNL     1      10.936  -0.548  24.236  1.00  0.00     0.072 C 
HETATM   13  O   UNL     1      11.913  -1.885  22.584  1.00  0.00    -0.287 OA
ENDBRANCH   2  11
ENDBRANCH   1   2
BRANCH   1  14
HETATM   14  C   UNL     1       8.213  -0.038  21.132  1.00  0.00     0.294 C 
HETATM   15  O   UNL     1       8.592   1.083  20.821  1.00  0.00    -0.258 OA
HETATM   16  N   UNL     1       7.104  -0.725  20.773  1.00  0.00    -0.317 N 
ATOM     17  HN  UNL     1       6.871  -1.662  21.103  1.00  0.00     0.170 HD
BRANCH  16  18
HETATM   18  C   UNL     1       6.390  -0.044  19.968  1.00  0.00     0.037 A 
HETATM   19  C   UNL     1       5.499   0.821  20.104  1.00  0.00     0.058 A 
HETATM   20  C   UNL     1       4.984   1.584  18.922  1.00  0.00     0.027 A 
HETATM   21  C   UNL     1       5.932   0.777  18.151  1.00  0.00     0.031 A 
HETATM   22  C   UNL     1       6.734  -0.066  18.454  1.00  0.00     0.032 A 
BRANCH  20  23
HETATM   23  N   UNL     1       4.286   2.328  19.124  1.00  0.00    -0.399 N 
ATOM     24  HN2 UNL     1       3.553   3.015  18.948  1.00  0.00     0.156 HD
ATOM     25  HN1 UNL     1       4.310   2.726  20.063  1.00  0.00     0.156 HD
ENDBRANCH  20  23
ENDBRANCH  16  18
ENDBRANCH   1  14
TORSDOF 8
ENDMDL
MODEL 3
REMARK VINA RESULT:    -6.004      3.477      4.718
REMARK INTER + INTRA:          -9.319
REMARK INTER:                  -8.582
REMARK INTRA:                  -0.737
REMARK UNBOUND:                -0.682
REMARK  8 active torsions:
REMARK  status: ('A' for Active; 'I' for Inactive)
REMARK    1  A    between atoms: S_2  and  N_5 
REMARK    2  A    between atoms: N_5  and  C_7 
REMARK    3  A    between atoms: C_8  and  C_9 
REMARK    4  A    between atoms: C_9  and  C_13 
REMARK    5  A    between atoms: C_9  and  C_12 
REMARK    6  A    between atoms: C_13  and  C_14 
REMARK       I    between atoms: C_14  and  N_16 
REMARK    7  A    between atoms: N_16  and  C_18 
REMARK    8  A    between atoms: N_20  and  C_23 
ROOT
HETATM    1  C   UNL     1       8.292  -3.120  23.208  1.00  0.00    -0.030 C 
ENDROOT
BRANCH   1   2
HETATM    2  C   UNL     1       7.587  -4.128  23.378  1.00  0.00     0.119 C 
BRANCH   2   3
HETATM    3  C   UNL     1       7.726  -4.699  24.628  1.00  0.00    -0.030 C 
HETATM    4  C   UNL     1       7.963  -5.220  25.628  1.00  0.00     0.027 C 
BRANCH   4   5
HETATM    5  N   UNL     1       7.999  -5.746  26.729  1.00  0.00    -0.229 N 
ATOM      6  HN  UNL     1       8.905  -6.070  27.065  1.00  0.00     0.190 HD
BRANCH   5   7
HETATM    7  S   UNL     1       6.738  -5.967  27.685  1.00  0.00     0.327 S 
HETATM    8 CL   UNL     1       6.060  -4.183  27.888  1.00  0.00     0.042 Cl
HETATM    9  O   UNL     1       5.738  -6.719  27.016  1.00  0.00    -0.188 OA
HETATM   10  O   UNL     1       7.051  -6.456  28.986  1.00  0.00    -0.188 OA
ENDBRANCH   5   7
ENDBRANCH   4   5
ENDBRANCH   2   3
BRANCH   2  11
HETATM   11  C   UNL     1       6.603  -4.440  22.341  1.00  0.00     0.189 C 
HETATM   12  C   UNL     1       7.115  -5.893  21.826  1.00  0.00     0.072 C 
HETATM   13  O   UNL     1       5.739  -4.003  21.723  1.00  0.00    -0.287 OA
ENDBRANCH   2  11
ENDBRANCH   1   2
BRANCH   1  14
HETATM   14  C   UNL     1       9.173  -2.100  23.279  1.00  0.00     0.294 C 
HETATM   15  O   UNL     1      10.362  -2.298  23.067  1.00  0.00    -0.258 OA
HETATM   16  N   UNL     1       8.505  -0.957  23.557  1.00  0.00    -0.317 N 
ATOM     17  HN  UNL     1       7.502  -0.901  23.733  1.00  0.00     0.170 HD
BRANCH  16  18
HETATM   18  C   UNL     1       9.299   0.039  23.569  1.00  0.00     0.037 A 
HETATM   19  C   UNL     1       9.652   0.888  22.723  1.00  0.00     0.058 A 
HETATM   20  C   UNL     1      10.476   2.073  23.124  1.00  0.00     0.027 A 
HETATM   21  C   UNL     1      10.414   1.498  24.469  1.00  0.00     0.031 A 
HETATM   22  C   UNL     1       9.880   0.523  24.925  1.00  0.00     0.032 A 
BRANCH  20  23
HETATM   23  N   UNL     1      10.680   2.766  22.375  1.00  0.00    -0.399 N 
ATOM     24  HN2 UNL     1      10.526   3.343  21.549  1.00  0.00     0.156 HD
ATOM     25  HN1 UNL     1      11.643   3.098  22.318  1.00  0.00     0.156 HD
ENDBRANCH  20  23
ENDBRANCH  16  18
ENDBRANCH   1  14
TORSDOF 8
ENDMDL
MODEL 4
REMARK VINA RESULT:    -5.775      3.716      6.373
REMARK INTER + INTRA:          -8.989
REMARK INTER:                  -8.410
REMARK INTRA:                  -0.579
REMARK UNBOUND:                -0.682
REMARK  8 active torsions:
REMARK  status: ('A' for Active; 'I' for Inactive)
REMARK    1  A    between atoms: S_2  and  N_5 
REMARK    2  A    between atoms: N_5  and  C_7 
REMARK    3  A    between atoms: C_8  and  C_9 
REMARK    4  A    between atoms: C_9  and  C_13 
REMARK    5  A    between atoms: C_9  and  C_12 
REMARK    6  A    between atoms: C_13  and  C_14 
REMARK       I    between atoms: C_14  and  N_16 
REMARK    7  A    between atoms: N_16  and  C_18 
REMARK    8  A    between atoms: N_20  and  C_23 
ROOT
HETATM    1  C   UNL     1       6.203  -1.365  20.980  1.00  0.00    -0.030 C 
ENDROOT
BRANCH   1   2
HETATM    2  C   UNL     1       6.807  -0.299  20.778  1.00  0.00     0.119 C 
BRANCH   2   3
HETATM    3  C   UNL     1       8.142  -0.342  21.132  1.00  0.00    -0.030 C 
HETATM    4  C   UNL     1       9.266  -0.256  21.368  1.00  0.00     0.027 C 
BRANCH   4   5
HETATM    5  N   UNL     1      10.445  -0.382  21.660  1.00  0.00    -0.229 N 
ATOM      6  HN  UNL     1      11.122   0.159  21.122  1.00  0.00     0.190 HD
BRANCH   5   7
HETATM    7  S   UNL     1      11.011  -1.325  22.818  1.00  0.00     0.327 S 
HETATM    8 CL   UNL     1      11.165  -0.110  24.297  1.00  0.00     0.042 Cl
HETATM    9  O   UNL     1      10.043  -2.298  23.178  1.00  0.00    -0.188 OA
HETATM   10  O   UNL     1      12.306  -1.865  22.572  1.00  0.00    -0.188 OA
ENDBRANCH   5   7
ENDBRANCH   4   5
ENDBRANCH   2   3
BRANCH   2  11
HETATM   11  C   UNL     1       6.096   0.745  20.040  1.00  0.00     0.189 C 
HETATM   12  C   UNL     1       6.432   0.349  18.501  1.00  0.00     0.072 C 
HETATM   13  O   UNL     1       5.532   1.739  20.154  1.00  0.00    -0.287 OA
ENDBRANCH   2  11
ENDBRANCH   1   2
BRANCH   1  14
HETATM   14  C   UNL     1       5.799  -2.609  21.314  1.00  0.00     0.294 C 
HETATM   15  O   UNL     1       5.581  -3.440  20.443  1.00  0.00    -0.258 OA
HETATM   16  N   UNL     1       5.747  -2.710  22.662  1.00  0.00    -0.317 N 
ATOM     17  HN  UNL     1       5.937  -1.944  23.308  1.00  0.00     0.170 HD
BRANCH  16  18
HETATM   18  C   UNL     1       5.430  -3.892  23.015  1.00  0.00     0.037 A 
HETATM   19  C   UNL     1       4.362  -4.541  23.046  1.00  0.00     0.058 A 
HETATM   20  C   UNL     1       4.365  -6.009  23.342  1.00  0.00     0.027 A 
HETATM   21  C   UNL     1       5.816  -5.851  23.460  1.00  0.00     0.031 A 
HETATM   22  C   UNL     1       6.557  -4.914  23.323  1.00  0.00     0.032 A 
BRANCH  20  23
HETATM   23  N   UNL     1       3.445  -6.490  23.291  1.00  0.00    -0.399 N 
ATOM     24  HN2 UNL     1       2.623  -6.925  22.872  1.00  0.00     0.156 HD
ATOM     25  HN1 UNL     1       2.936  -6.585  24.170  1.00  0.00     0.156 HD
ENDBRANCH  20  23
ENDBRANCH  16  18
ENDBRANCH   1  14
TORSDOF 8
ENDMDL
MODEL 5
REMARK VINA RESULT:    -5.736      5.002      6.235
REMARK INTER + INTRA:          -8.934
REMARK INTER:                  -8.453
REMARK INTRA:                  -0.481
REMARK UNBOUND:                -0.682
REMARK  8 active torsions:
REMARK  status: ('A' for Active; 'I' for Inactive)
REMARK    1  A    between atoms: S_2  and  N_5 
REMARK    2  A    between atoms: N_5  and  C_7 
REMARK    3  A    between atoms: C_8  and  C_9 
REMARK    4  A    between atoms: C_9  and  C_13 
REMARK    5  A    between atoms: C_9  and  C_12 
REMARK    6  A    between atoms: C_13  and  C_14 
REMARK       I    between atoms: C_14  and  N_16 
REMARK    7  A    between atoms: N_16  and  C_18 
REMARK    8  A    between atoms: N_20  and  C_23 
ROOT
HETATM    1  C   UNL     1       8.478   1.197  22.973  1.00  0.00    -0.030 C 
ENDROOT
BRANCH   1   2
HETATM    2  C   UNL     1       9.035   1.420  24.060  1.00  0.00     0.119 C 
BRANCH   2   3
HETATM    3  C   UNL     1      10.139   2.244  23.960  1.00  0.00    -0.030 C 
HETATM    4  C   UNL     1      11.003   3.005  23.973  1.00  0.00     0.027 C 
BRANCH   4   5
HETATM    5  N   UNL     1      11.976   3.721  23.795  1.00  0.00    -0.229 N 
ATOM      6  HN  UNL     1      12.879   3.263  23.671  1.00  0.00     0.190 HD
BRANCH   5   7
HETATM    7  S   UNL     1      11.948   5.317  23.742  1.00  0.00     0.327 S 
HETATM    8 CL   UNL     1      13.055   5.696  22.220  1.00  0.00     0.042 Cl
HETATM    9  O   UNL     1      10.642   5.776  23.430  1.00  0.00    -0.188 OA
HETATM   10  O   UNL     1      12.533   5.965  24.868  1.00  0.00    -0.188 OA
ENDBRANCH   5   7
ENDBRANCH   4   5
ENDBRANCH   2   3
BRANCH   2  11
HETATM   11  C   UNL     1       8.353   0.957  25.269  1.00  0.00     0.189 C 
HETATM   12  C   UNL     1       8.814  -0.600  25.331  1.00  0.00     0.072 C 
HETATM   13  O   UNL     1       7.570   1.243  26.058  1.00  0.00    -0.287 OA
ENDBRANCH   2  11
ENDBRANCH   1   2
BRANCH   1  14
HETATM   14  C   UNL     1       8.037   1.176  21.697  1.00  0.00     0.294 C 
HETATM   15  O   UNL     1       8.822   1.329  20.771  1.00  0.00    -0.258 OA
HETATM   16  N   UNL     1       6.706   0.931  21.694  1.00  0.00    -0.317 N 
ATOM     17  HN  UNL     1       6.134   0.832  22.532  1.00  0.00     0.170 HD
BRANCH  16  18
HETATM   18  C   UNL     1       6.266   0.841  20.502  1.00  0.00     0.037 A 
HETATM   19  C   UNL     1       6.355  -0.016  19.597  1.00  0.00     0.058 A 
HETATM   20  C   UNL     1       5.538   0.100  18.347  1.00  0.00     0.027 A 
HETATM   21  C   UNL     1       5.022   1.329  18.953  1.00  0.00     0.031 A 
HETATM   22  C   UNL     1       5.221   1.876  20.005  1.00  0.00     0.032 A 
BRANCH  20  23
HETATM   23  N   UNL     1       5.624  -0.683  17.668  1.00  0.00    -0.399 N 
ATOM     24  HN2 UNL     1       5.404  -1.562  17.200  1.00  0.00     0.156 HD
ATOM     25  HN1 UNL     1       6.466  -0.689  17.091  1.00  0.00     0.156 HD
ENDBRANCH  20  23
ENDBRANCH  16  18
ENDBRANCH   1  14
TORSDOF 8
ENDMDL
MODEL 6
REMARK VINA RESULT:    -5.710      3.323      5.133
REMARK INTER + INTRA:          -8.896
REMARK INTER:                  -8.381
REMARK INTRA:                  -0.515
REMARK UNBOUND:                -0.682
REMARK  8 active torsions:
REMARK  status: ('A' for Active; 'I' for Inactive)
REMARK    1  A    between atoms: S_2  and  N_5 
REMARK    2  A    between atoms: N_5  and  C_7 
REMARK    3  A    between atoms: C_8  and  C_9 
REMARK    4  A    between atoms: C_9  and  C_13 
REMARK    5  A    between atoms: C_9  and  C_12 
REMARK    6  A    between atoms: C_13  and  C_14 
REMARK       I    between atoms: C_14  and  N_16 
REMARK    7  A    between atoms: N_16  and  C_18 
REMARK    8  A    between atoms: N_20  and  C_23 
ROOT
HETATM    1  C   UNL     1       7.282  -4.018  23.784  1.00  0.00    -0.030 C 
ENDROOT
BRANCH   1   2
HETATM    2  C   UNL     1       6.417  -4.909  23.778  1.00  0.00     0.119 C 
BRANCH   2   3
HETATM    3  C   UNL     1       5.981  -5.269  25.038  1.00  0.00    -0.030 C 
HETATM    4  C   UNL     1       5.730  -5.643  26.098  1.00  0.00     0.027 C 
BRANCH   4   5
HETATM    5  N   UNL     1       5.261  -5.966  27.179  1.00  0.00    -0.229 N 
ATOM      6  HN  UNL     1       4.245  -5.999  27.258  1.00  0.00     0.190 HD
BRANCH   5   7
HETATM    7  S   UNL     1       6.113  -6.340  28.477  1.00  0.00     0.327 S 
HETATM    8 CL   UNL     1       5.395  -5.144  29.796  1.00  0.00     0.042 Cl
HETATM    9  O   UNL     1       5.809  -7.659  28.902  1.00  0.00    -0.188 OA
HETATM   10  O   UNL     1       7.509  -6.076  28.375  1.00  0.00    -0.188 OA
ENDBRANCH   5   7
ENDBRANCH   4   5
ENDBRANCH   2   3
BRANCH   2  11
HETATM   11  C   UNL     1       5.863  -5.295  22.480  1.00  0.00     0.189 C 
HETATM   12  C   UNL     1       7.129  -6.043  21.790  1.00  0.00     0.072 C 
HETATM   13  O   UNL     1       4.963  -5.160  21.780  1.00  0.00    -0.287 OA
ENDBRANCH   2  11
ENDBRANCH   1   2
BRANCH   1  14
HETATM   14  C   UNL     1       8.013  -2.890  23.669  1.00  0.00     0.294 C 
HETATM   15  O   UNL     1       8.079  -2.100  24.602  1.00  0.00    -0.258 OA
HETATM   16  N   UNL     1       8.609  -2.871  22.454  1.00  0.00    -0.317 N 
ATOM     17  HN  UNL     1       8.476  -3.580  21.733  1.00  0.00     0.170 HD
BRANCH  16  18
HETATM   18  C   UNL     1       9.360  -1.849  22.334  1.00  0.00     0.037 A 
HETATM   19  C   UNL     1       9.190  -0.680  21.927  1.00  0.00     0.058 A 
HETATM   20  C   UNL     1      10.258   0.355  22.102  1.00  0.00     0.027 A 
HETATM   21  C   UNL     1      11.022  -0.725  22.729  1.00  0.00     0.031 A 
HETATM   22  C   UNL     1      10.777  -1.877  22.968  1.00  0.00     0.032 A 
BRANCH  20  23
HETATM   23  N   UNL     1      10.019   1.319  21.792  1.00  0.00    -0.399 N 
ATOM     24  HN2 UNL     1       9.528   2.212  21.761  1.00  0.00     0.156 HD
ATOM     25  HN1 UNL     1      10.492   1.652  20.951  1.00  0.00     0.156 HD
ENDBRANCH  20  23
ENDBRANCH  16  18
ENDBRANCH   1  14
TORSDOF 8
ENDMDL
MODEL 7
REMARK VINA RESULT:    -5.687      4.951      7.442
REMARK INTER + INTRA:          -8.863
REMARK INTER:                  -8.108
REMARK INTRA:                  -0.755
REMARK UNBOUND:                -0.682
REMARK  8 active torsions:
REMARK  status: ('A' for Active; 'I' for Inactive)
REMARK    1  A    between atoms: S_2  and  N_5 
REMARK    2  A    between atoms: N_5  and  C_7 
REMARK    3  A    between atoms: C_8  and  C_9 
REMARK    4  A    between atoms: C_9  and  C_13 
REMARK    5  A    between atoms: C_9  and  C_12 
REMARK    6  A    between atoms: C_13  and  C_14 
REMARK       I    between atoms: C_14  and  N_16 
REMARK    7  A    between atoms: N_16  and  C_18 
REMARK    8  A    between atoms: N_20  and  C_23 
ROOT
HETATM    1  C   UNL     1       6.439  -0.605  20.501  1.00  0.00    -0.030 C 
ENDROOT
BRANCH   1   2
HETATM    2  C   UNL     1       6.630   0.620  20.437  1.00  0.00     0.119 C 
BRANCH   2   3
HETATM    3  C   UNL     1       5.544   1.327  19.960  1.00  0.00    -0.030 C 
HETATM    4  C   UNL     1       4.635   1.829  19.460  1.00  0.00     0.027 C 
BRANCH   4   5
HETATM    5  N   UNL     1       3.717   2.530  19.065  1.00  0.00    -0.229 N 
ATOM      6  HN  UNL     1       3.774   2.884  18.110  1.00  0.00     0.190 HD
BRANCH   5   7
HETATM    7  S   UNL     1       2.433   2.935  19.924  1.00  0.00     0.327 S 
HETATM    8 CL   UNL     1       3.219   3.639  21.528  1.00  0.00     0.042 Cl
HETATM    9  O   UNL     1       1.739   4.003  19.298  1.00  0.00    -0.188 OA
HETATM   10  O   UNL     1       1.595   1.847  20.300  1.00  0.00    -0.188 OA
ENDBRANCH   5   7
ENDBRANCH   4   5
ENDBRANCH   2   3
BRANCH   2  11
HETATM   11  C   UNL     1       7.860   1.138  21.036  1.00  0.00     0.189 C 
HETATM   12  C   UNL     1       7.293   2.354  21.953  1.00  0.00     0.072 C 
HETATM   13  O   UNL     1       9.006   1.079  20.997  1.00  0.00    -0.287 OA
ENDBRANCH   2  11
ENDBRANCH   1   2
BRANCH   1  14
HETATM   14  C   UNL     1       5.984  -1.860  20.699  1.00  0.00     0.294 C 
HETATM   15  O   UNL     1       5.293  -2.407  19.849  1.00  0.00    -0.258 OA
HETATM   16  N   UNL     1       6.451  -2.318  21.883  1.00  0.00    -0.317 N 
ATOM     17  HN  UNL     1       7.014  -1.771  22.534  1.00  0.00     0.170 HD
BRANCH  16  18
HETATM   18  C   UNL     1       6.092  -3.526  22.075  1.00  0.00     0.037 A 
HETATM   19  C   UNL     1       6.612  -4.640  21.854  1.00  0.00     0.058 A 
HETATM   20  C   UNL     1       5.993  -5.894  22.390  1.00  0.00     0.027 A 
HETATM   21  C   UNL     1       4.973  -5.001  22.943  1.00  0.00     0.031 A 
HETATM   22  C   UNL     1       4.828  -3.808  22.932  1.00  0.00     0.032 A 
BRANCH  20  23
HETATM   23  N   UNL     1       6.516  -6.776  22.214  1.00  0.00    -0.399 N 
ATOM     24  HN2 UNL     1       7.040  -7.626  22.421  1.00  0.00     0.156 HD
ATOM     25  HN1 UNL     1       6.748  -6.977  21.241  1.00  0.00     0.156 HD
ENDBRANCH  20  23
ENDBRANCH  16  18
ENDBRANCH   1  14
TORSDOF 8
ENDMDL
MODEL 8
REMARK VINA RESULT:    -5.681      4.741      6.544
REMARK INTER + INTRA:          -8.853
REMARK INTER:                  -8.273
REMARK INTRA:                  -0.580
REMARK UNBOUND:                -0.682
REMARK  8 active torsions:
REMARK  status: ('A' for Active; 'I' for Inactive)
REMARK    1  A    between atoms: S_2  and  N_5 
REMARK    2  A    between atoms: N_5  and  C_7 
REMARK    3  A    between atoms: C_8  and  C_9 
REMARK    4  A    between atoms: C_9  and  C_13 
REMARK    5  A    between atoms: C_9  and  C_12 
REMARK    6  A    between atoms: C_13  and  C_14 
REMARK       I    between atoms: C_14  and  N_16 
REMARK    7  A    between atoms: N_16  and  C_18 
REMARK    8  A    between atoms: N_20  and  C_23 
ROOT
HETATM    1  C   UNL     1       8.963   0.678  23.285  1.00  0.00    -0.030 C 
ENDROOT
BRANCH   1   2
HETATM    2  C   UNL     1       8.276  -0.356  23.259  1.00  0.00     0.119 C 
BRANCH   2   3
HETATM    3  C   UNL     1       7.479  -0.465  22.137  1.00  0.00    -0.030 C 
HETATM    4  C   UNL     1       6.802  -0.422  21.206  1.00  0.00     0.027 C 
BRANCH   4   5
HETATM    5  N   UNL     1       6.062  -0.594  20.249  1.00  0.00    -0.229 N 
ATOM      6  HN  UNL     1       5.313  -1.278  20.352  1.00  0.00     0.190 HD
BRANCH   5   7
HETATM    7  S   UNL     1       6.174   0.168  18.850  1.00  0.00     0.327 S 
HETATM    8 CL   UNL     1       5.051   1.700  19.127  1.00  0.00     0.042 Cl
HETATM    9  O   UNL     1       7.495   0.651  18.657  1.00  0.00    -0.188 OA
HETATM   10  O   UNL     1       5.654  -0.548  17.734  1.00  0.00    -0.188 OA
ENDBRANCH   5   7
ENDBRANCH   4   5
ENDBRANCH   2   3
BRANCH   2  11
HETATM   11  C   UNL     1       8.544  -1.364  24.285  1.00  0.00     0.189 C 
HETATM   12  C   UNL     1       9.302  -2.516  23.426  1.00  0.00     0.072 C 
HETATM   13  O   UNL     1       8.317  -1.665  25.369  1.00  0.00    -0.287 OA
ENDBRANCH   2  11
ENDBRANCH   1   2
BRANCH   1  14
HETATM   14  C   UNL     1       9.657   1.807  23.027  1.00  0.00     0.294 C 
HETATM   15  O   UNL     1       9.820   2.179  21.873  1.00  0.00    -0.258 OA
HETATM   16  N   UNL     1      10.034   2.371  24.198  1.00  0.00    -0.317 N 
ATOM     17  HN  UNL     1       9.858   1.967  25.118  1.00  0.00     0.170 HD
BRANCH  16  18
HETATM   18  C   UNL     1      10.638   3.474  23.995  1.00  0.00     0.037 A 
HETATM   19  C   UNL     1      11.795   3.788  23.643  1.00  0.00     0.058 A 
HETATM   20  C   UNL     1      12.135   5.206  23.303  1.00  0.00     0.027 A 
HETATM   21  C   UNL     1      10.733   5.483  23.626  1.00  0.00     0.031 A 
HETATM   22  C   UNL     1       9.813   4.789  23.967  1.00  0.00     0.032 A 
BRANCH  20  23
HETATM   23  N   UNL     1      13.102   5.378  22.963  1.00  0.00    -0.399 N 
ATOM     24  HN2 UNL     1      13.861   5.540  22.301  1.00  0.00     0.156 HD
ATOM     25  HN1 UNL     1      13.845   5.302  23.658  1.00  0.00     0.156 HD
ENDBRANCH  20  23
ENDBRANCH  16  18
ENDBRANCH   1  14
TORSDOF 8
ENDMDL
MODEL 9
REMARK VINA RESULT:    -5.543      3.911      6.832
REMARK INTER + INTRA:          -8.655
REMARK INTER:                  -7.973
REMARK INTRA:                  -0.682
REMARK UNBOUND:                -0.682
REMARK  8 active torsions:
REMARK  status: ('A' for Active; 'I' for Inactive)
REMARK    1  A    between atoms: S_2  and  N_5 
REMARK    2  A    between atoms: N_5  and  C_7 
REMARK    3  A    between atoms: C_8  and  C_9 
REMARK    4  A    between atoms: C_9  and  C_13 
REMARK    5  A    between atoms: C_9  and  C_12 
REMARK    6  A    between atoms: C_13  and  C_14 
REMARK       I    between atoms: C_14  and  N_16 
REMARK    7  A    between atoms: N_16  and  C_18 
REMARK    8  A    between atoms: N_20  and  C_23 
ROOT
HETATM    1  C   UNL     1       8.419  -2.364  23.194  1.00  0.00    -0.030 C 
ENDROOT
BRANCH   1   2
HETATM    2  C   UNL     1       9.179  -1.614  22.562  1.00  0.00     0.119 C 
BRANCH   2   3
HETATM    3  C   UNL     1       8.521  -0.720  21.740  1.00  0.00    -0.030 C 
HETATM    4  C   UNL     1       7.872  -0.066  21.049  1.00  0.00     0.027 C 
BRANCH   4   5
HETATM    5  N   UNL     1       7.369   0.743  20.284  1.00  0.00    -0.229 N 
ATOM      6  HN  UNL     1       7.744   1.691  20.292  1.00  0.00     0.190 HD
BRANCH   5   7
HETATM    7  S   UNL     1       6.173   0.433  19.272  1.00  0.00     0.327 S 
HETATM    8 CL   UNL     1       4.846   1.716  19.802  1.00  0.00     0.042 Cl
HETATM    9  O   UNL     1       6.555   0.754  17.944  1.00  0.00    -0.188 OA
HETATM   10  O   UNL     1       5.594  -0.862  19.408  1.00  0.00    -0.188 OA
ENDBRANCH   5   7
ENDBRANCH   4   5
ENDBRANCH   2   3
BRANCH   2  11
HETATM   11  C   UNL     1      10.599  -1.649  22.912  1.00  0.00     0.189 C 
HETATM   12  C   UNL     1      10.619  -0.801  24.297  1.00  0.00     0.072 C 
HETATM   13  O   UNL     1      11.642  -1.933  22.524  1.00  0.00    -0.287 OA
ENDBRANCH   2  11
ENDBRANCH   1   2
BRANCH   1  14
HETATM   14  C   UNL     1       7.383  -3.029  23.748  1.00  0.00     0.294 C 
HETATM   15  O   UNL     1       6.373  -2.425  24.085  1.00  0.00    -0.258 OA
HETATM   16  N   UNL     1       7.677  -4.349  23.790  1.00  0.00    -0.317 N 
ATOM     17  HN  UNL     1       8.565  -4.754  23.494  1.00  0.00     0.170 HD
BRANCH  16  18
HETATM   18  C   UNL     1       6.694  -5.017  24.250  1.00  0.00     0.037 A 
HETATM   19  C   UNL     1       5.779  -5.695  23.737  1.00  0.00     0.058 A 
HETATM   20  C   UNL     1       4.874  -6.530  24.589  1.00  0.00     0.027 A 
HETATM   21  C   UNL     1       5.662  -6.011  25.709  1.00  0.00     0.031 A 
HETATM   22  C   UNL     1       6.610  -5.275  25.779  1.00  0.00     0.032 A 
BRANCH  20  23
HETATM   23  N   UNL     1       4.175  -7.112  24.085  1.00  0.00    -0.399 N 
ATOM     24  HN2 UNL     1       3.269  -7.401  23.716  1.00  0.00     0.156 HD
ATOM     25  HN1 UNL     1       4.499  -8.022  23.755  1.00  0.00     0.156 HD
ENDBRANCH  20  23
ENDBRANCH  16  18
ENDBRANCH   1  14
TORSDOF 8
ENDMDL
