REMARK  8 active torsions:
REMARK  status: ('A' for Active; 'I' for Inactive)
REMARK    1  A    between atoms: S_2  and  N_5 
REMARK    2  A    between atoms: N_5  and  C_7 
REMARK    3  A    between atoms: C_8  and  C_9 
REMARK    4  A    between atoms: C_9  and  C_13 
REMARK    5  A    between atoms: C_9  and  C_12 
REMARK    6  A    between atoms: C_13  and  C_14 
REMARK       I    between atoms: C_14  and  N_16 
REMARK    7  A    between atoms: N_16  and  C_18 
REMARK    8  A    between atoms: N_20  and  C_23 
ROOT
HETATM    1  C   UNL     1       9.754  -0.452  22.257  1.00  0.00    -0.030 C 
ENDROOT
BRANCH   1   2
HETATM    2  C   UNL     1      10.345  -1.245  23.007  1.00  0.00     0.119 C 
BRANCH   2   3
HETATM    3  C   UNL     1       9.504  -2.129  23.654  1.00  0.00    -0.030 C 
HETATM    4  C   UNL     1       8.912  -2.942  24.216  1.00  0.00     0.027 C 
BRANCH   4   5
HETATM    5  N   UNL     1       8.107  -3.707  24.724  1.00  0.00    -0.229 N 
ATOM      6  HN  UNL     1       7.267  -3.927  24.189  1.00  0.00     0.190 HD
BRANCH   5   7
HETATM    7  S   UNL     1       8.265  -4.390  26.159  1.00  0.00     0.327 S 
HETATM    8 CL   UNL     1       6.486  -5.020  26.511  1.00  0.00     0.042 Cl
HETATM    9  O   UNL     1       9.101  -5.533  26.071  1.00  0.00    -0.188 OA
HETATM   10  O   UNL     1       8.619  -3.498  27.212  1.00  0.00    -0.188 OA
ENDBRANCH   5   7
ENDBRANCH   4   5
ENDBRANCH   2   3
BRANCH   2  11
HETATM   11  C   UNL     1      11.807  -1.258  22.950  1.00  0.00     0.189 C 
HETATM   12  C   UNL     1      12.188  -0.054  23.972  1.00  0.00     0.072 C 
HETATM   13  O   UNL     1      12.708  -1.697  22.390  1.00  0.00    -0.287 OA
ENDBRANCH   2  11
ENDBRANCH   1   2
BRANCH   1  14
HETATM   14  C   UNL     1       8.999   0.169  21.326  1.00  0.00     0.294 C 
HETATM   15  O   UNL     1       9.436   1.144  20.729  1.00  0.00    -0.258 OA
HETATM   16  N   UNL     1       7.823  -0.488  21.200  1.00  0.00    -0.317 N 
ATOM     17  HN  UNL     1       7.546  -1.292  21.763  1.00  0.00     0.170 HD
BRANCH  16  18
HETATM   18  C   UNL     1       7.109   0.034  20.283  1.00  0.00     0.037 A 
HETATM   19  C   UNL     1       7.197   0.107  19.039  1.00  0.00     0.058 A 
HETATM   20  C   UNL     1       6.061   0.638  18.220  1.00  0.00     0.027 A 
HETATM   21  C   UNL     1       5.385   0.814  19.507  1.00  0.00     0.031 A 
HETATM   22  C   UNL     1       5.697   0.570  20.642  1.00  0.00     0.032 A 
BRANCH  20  23
HETATM   23  N   UNL     1       6.187   0.612  17.188  1.00  0.00    -0.399 N 
ATOM     24  HN2 UNL     1       6.658   0.489  16.292  1.00  0.00     0.156 HD
ATOM     25  HN1 UNL     1       5.413   0.974  16.630  1.00  0.00     0.156 HD
ENDBRANCH  20  23
ENDBRANCH  16  18
ENDBRANCH   1  14
TORSDOF 8
