MODEL 1
REMARK VINA RESULT:    -5.808      0.000      0.000
REMARK INTER + INTRA:          -6.740
REMARK INTER:                  -6.487
REMARK INTRA:                  -0.253
REMARK UNBOUND:                -0.253
REMARK  2 active torsions:
REMARK  status: ('A' for Active; 'I' for Inactive)
REMARK    1  A    between atoms: N_4  and  N_17 
REMARK    2  A    between atoms: N_4  and  C_12 
ROOT
HETATM    1  N   UNL     1       8.916  -3.346  23.230  1.00  0.00    -0.285 N 
ATOM      2  HN  UNL     1       9.364  -3.988  23.884  1.00  0.00     0.188 HD
ENDROOT
BRANCH   1   3
HETATM    3  N   UNL     1       9.393  -2.211  23.014  1.00  0.00    -0.298 N 
HETATM    4  C   UNL     1      10.238  -1.554  23.776  1.00  0.00     0.069 C 
HETATM    5  C   UNL     1      11.536  -1.754  23.324  1.00  0.00     0.033 C 
HETATM    6  C   UNL     1       9.985  -0.525  24.779  1.00  0.00     0.059 C 
HETATM    7  C   UNL     1      12.479  -0.767  23.523  1.00  0.00     0.002 C 
HETATM    8  C   UNL     1      12.229   0.264  24.403  1.00  0.00     0.002 C 
HETATM    9  C   UNL     1      11.009   0.348  25.049  1.00  0.00     0.026 C 
HETATM   10  S   UNL     1       8.490  -0.151  25.582  1.00  0.00    -0.078 SA
ATOM     11  HN  UNL     1       9.095  -1.746  22.156  1.00  0.00     0.187 HD
ENDBRANCH   1   3
BRANCH   1  12
HETATM   12  C   UNL     1       7.817  -3.687  22.589  1.00  0.00     0.119 C 
HETATM   13  N   UNL     1       7.456  -5.013  22.204  1.00  0.00    -0.333 N 
HETATM   14  H   UNL     1       7.952  -5.924  22.697  1.00  0.00     0.168 HD
HETATM   15  C   UNL     1       6.412  -5.288  21.460  1.00  0.00     0.228 C 
HETATM   16  O   UNL     1       5.553  -4.372  21.120  1.00  0.00    -0.343 OA
HETATM   17  C   UNL     1       5.563  -3.229  21.985  1.00  0.00     0.207 C 
HETATM   18  C   UNL     1       6.917  -2.753  22.286  1.00  0.00     0.049 C 
ENDBRANCH   1  12
TORSDOF 2
ENDMDL
MODEL 2
REMARK VINA RESULT:    -5.723      2.958      5.981
REMARK INTER + INTRA:          -6.645
REMARK INTER:                  -6.393
REMARK INTRA:                  -0.252
REMARK UNBOUND:                -0.253
REMARK  2 active torsions:
REMARK  status: ('A' for Active; 'I' for Inactive)
REMARK    1  A    between atoms: N_4  and  N_17 
REMARK    2  A    between atoms: N_4  and  C_12 
ROOT
HETATM    1  N   UNL     1      10.158  -2.256  22.855  1.00  0.00    -0.285 N 
ATOM      2  HN  UNL     1      10.393  -2.791  22.019  1.00  0.00     0.188 HD
ENDROOT
BRANCH   1   3
HETATM    3  N   UNL     1       9.011  -2.306  23.350  1.00  0.00    -0.298 N 
HETATM    4  C   UNL     1       7.956  -2.896  22.833  1.00  0.00     0.069 C 
HETATM    5  C   UNL     1       7.816  -4.169  23.369  1.00  0.00     0.033 C 
HETATM    6  C   UNL     1       6.867  -2.333  22.042  1.00  0.00     0.059 C 
HETATM    7  C   UNL     1       6.555  -4.720  23.479  1.00  0.00     0.002 C 
HETATM    8  C   UNL     1       5.492  -4.155  22.808  1.00  0.00     0.002 C 
HETATM    9  C   UNL     1       5.668  -3.001  22.068  1.00  0.00     0.026 C 
HETATM   10  S   UNL     1       6.832  -0.825  21.179  1.00  0.00    -0.078 SA
ATOM     11  HN  UNL     1       8.880  -1.842  24.248  1.00  0.00     0.187 HD
ENDBRANCH   1   3
BRANCH   1  12
HETATM   12  C   UNL     1      11.053  -1.491  23.446  1.00  0.00     0.119 C 
HETATM   13  N   UNL     1      12.456  -1.498  23.185  1.00  0.00    -0.333 N 
HETATM   14  H   UNL     1      12.871  -1.956  22.217  1.00  0.00     0.168 HD
HETATM   15  C   UNL     1      13.323  -0.806  23.884  1.00  0.00     0.228 C 
HETATM   16  O   UNL     1      12.945   0.040  24.798  1.00  0.00    -0.343 OA
HETATM   17  C   UNL     1      11.597   0.497  24.632  1.00  0.00     0.207 C 
HETATM   18  C   UNL     1      10.657  -0.591  24.345  1.00  0.00     0.049 C 
ENDBRANCH   1  12
TORSDOF 2
ENDMDL
MODEL 3
REMARK VINA RESULT:    -5.548      2.208      2.359
REMARK INTER + INTRA:          -6.450
REMARK INTER:                  -6.109
REMARK INTRA:                  -0.341
REMARK UNBOUND:                -0.253
REMARK  2 active torsions:
REMARK  status: ('A' for Active; 'I' for Inactive)
REMARK    1  A    between atoms: N_4  and  N_17 
REMARK    2  A    between atoms: N_4  and  C_12 
ROOT
HETATM    1  N   UNL     1       8.484  -3.414  23.180  1.00  0.00    -0.285 N 
ATOM      2  HN  UNL     1       8.785  -3.481  24.152  1.00  0.00     0.188 HD
ENDROOT
BRANCH   1   3
HETATM    3  N   UNL     1       9.088  -2.680  22.368  1.00  0.00    -0.298 N 
HETATM    4  C   UNL     1       9.160  -1.369  22.395  1.00  0.00     0.069 C 
HETATM    5  C   UNL     1      10.334  -0.972  23.023  1.00  0.00     0.033 C 
HETATM    6  C   UNL     1       8.365  -0.376  21.679  1.00  0.00     0.059 C 
HETATM    7  C   UNL     1      10.923   0.221  22.658  1.00  0.00     0.002 C 
HETATM    8  C   UNL     1      10.222   1.140  21.909  1.00  0.00     0.002 C 
HETATM    9  C   UNL     1       8.944   0.851  21.468  1.00  0.00     0.026 C 
HETATM   10  S   UNL     1       6.821  -0.585  20.911  1.00  0.00    -0.078 SA
ATOM     11  HN  UNL     1       9.576  -3.149  21.605  1.00  0.00     0.187 HD
ENDBRANCH   1   3
BRANCH   1  12
HETATM   12  C   UNL     1       7.445  -4.097  22.743  1.00  0.00     0.119 C 
HETATM   13  N   UNL     1       7.502  -5.278  21.944  1.00  0.00    -0.333 N 
HETATM   14  H   UNL     1       8.467  -5.898  21.880  1.00  0.00     0.168 HD
HETATM   15  C   UNL     1       6.441  -5.853  21.431  1.00  0.00     0.228 C 
HETATM   16  O   UNL     1       5.238  -5.451  21.720  1.00  0.00    -0.343 OA
HETATM   17  C   UNL     1       5.159  -4.718  22.949  1.00  0.00     0.207 C 
HETATM   18  C   UNL     1       6.216  -3.711  23.082  1.00  0.00     0.049 C 
ENDBRANCH   1  12
TORSDOF 2
ENDMDL
MODEL 4
REMARK VINA RESULT:    -5.487      2.694      5.856
REMARK INTER + INTRA:          -6.382
REMARK INTER:                  -6.088
REMARK INTRA:                  -0.294
REMARK UNBOUND:                -0.253
REMARK  2 active torsions:
REMARK  status: ('A' for Active; 'I' for Inactive)
REMARK    1  A    between atoms: N_4  and  N_17 
REMARK    2  A    between atoms: N_4  and  C_12 
ROOT
HETATM    1  N   UNL     1       8.935  -2.560  22.578  1.00  0.00    -0.285 N 
ATOM      2  HN  UNL     1       8.454  -2.182  21.762  1.00  0.00     0.188 HD
ENDROOT
BRANCH   1   3
HETATM    3  N   UNL     1       8.612  -3.668  23.059  1.00  0.00    -0.298 N 
HETATM    4  C   UNL     1       7.394  -4.145  23.187  1.00  0.00     0.069 C 
HETATM    5  C   UNL     1       7.094  -4.968  22.109  1.00  0.00     0.033 C 
HETATM    6  C   UNL     1       6.504  -4.133  24.343  1.00  0.00     0.059 C 
HETATM    7  C   UNL     1       6.210  -6.013  22.285  1.00  0.00     0.002 C 
HETATM    8  C   UNL     1       5.417  -6.069  23.411  1.00  0.00     0.002 C 
HETATM    9  C   UNL     1       5.542  -5.111  24.399  1.00  0.00     0.026 C 
HETATM   10  S   UNL     1       6.591  -3.127  25.757  1.00  0.00    -0.078 SA
ATOM     11  HN  UNL     1       9.373  -4.263  23.386  1.00  0.00     0.187 HD
ENDBRANCH   1   3
BRANCH   1  12
HETATM   12  C   UNL     1       9.915  -1.896  23.157  1.00  0.00     0.119 C 
HETATM   13  N   UNL     1      11.237  -1.747  22.642  1.00  0.00    -0.333 N 
HETATM   14  H   UNL     1      11.460  -1.936  21.531  1.00  0.00     0.168 HD
HETATM   15  C   UNL     1      12.212  -1.181  23.312  1.00  0.00     0.228 C 
HETATM   16  O   UNL     1      12.007  -0.600  24.459  1.00  0.00    -0.343 OA
HETATM   17  C   UNL     1      10.644  -0.210  24.666  1.00  0.00     0.207 C 
HETATM   18  C   UNL     1       9.688  -1.262  24.306  1.00  0.00     0.049 C 
ENDBRANCH   1  12
TORSDOF 2
ENDMDL
MODEL 5
REMARK VINA RESULT:    -5.473     28.777     29.405
REMARK INTER + INTRA:          -6.366
REMARK INTER:                  -5.953
REMARK INTRA:                  -0.413
REMARK UNBOUND:                -0.253
REMARK  2 active torsions:
REMARK  status: ('A' for Active; 'I' for Inactive)
REMARK    1  A    between atoms: N_4  and  N_17 
REMARK    2  A    between atoms: N_4  and  C_12 
ROOT
HETATM    1  N   UNL     1       9.403  16.771   0.416  1.00  0.00    -0.285 N 
ATOM      2  HN  UNL     1       9.538  16.329  -0.493  1.00  0.00     0.188 HD
ENDROOT
BRANCH   1   3
HETATM    3  N   UNL     1       9.276  16.085   1.453  1.00  0.00    -0.298 N 
HETATM    4  C   UNL     1       8.153  15.644   1.973  1.00  0.00     0.069 C 
HETATM    5  C   UNL     1       7.918  14.341   1.554  1.00  0.00     0.033 C 
HETATM    6  C   UNL     1       7.337  16.205   3.044  1.00  0.00     0.059 C 
HETATM    7  C   UNL     1       7.211  13.486   2.374  1.00  0.00     0.002 C 
HETATM    8  C   UNL     1       6.500  13.983   3.446  1.00  0.00     0.002 C 
HETATM    9  C   UNL     1       6.537  15.333   3.740  1.00  0.00     0.026 C 
HETATM   10  S   UNL     1       7.353  17.825   3.673  1.00  0.00    -0.078 SA
ATOM     11  HN  UNL     1      10.135  15.841   1.947  1.00  0.00     0.187 HD
ENDBRANCH   1   3
BRANCH   1  12
HETATM   12  C   UNL     1       9.356  18.083   0.532  1.00  0.00     0.119 C 
HETATM   13  N   UNL     1      10.251  18.882   1.305  1.00  0.00    -0.333 N 
HETATM   14  H   UNL     1      11.271  18.469   1.637  1.00  0.00     0.168 HD
HETATM   15  C   UNL     1      10.091  20.171   1.489  1.00  0.00     0.228 C 
HETATM   16  O   UNL     1       9.161  20.840   0.871  1.00  0.00    -0.343 OA
HETATM   17  C   UNL     1       8.694  20.200  -0.323  1.00  0.00     0.207 C 
HETATM   18  C   UNL     1       8.434  18.769  -0.140  1.00  0.00     0.049 C 
ENDBRANCH   1  12
TORSDOF 2
ENDMDL
MODEL 6
REMARK VINA RESULT:    -5.441     28.840     29.464
REMARK INTER + INTRA:          -6.330
REMARK INTER:                  -6.083
REMARK INTRA:                  -0.248
REMARK UNBOUND:                -0.253
REMARK  2 active torsions:
REMARK  status: ('A' for Active; 'I' for Inactive)
REMARK    1  A    between atoms: N_4  and  N_17 
REMARK    2  A    between atoms: N_4  and  C_12 
ROOT
HETATM    1  N   UNL     1       9.947  18.150   3.589  1.00  0.00    -0.285 N 
ATOM      2  HN  UNL     1       9.396  18.716   4.235  1.00  0.00     0.188 HD
ENDROOT
BRANCH   1   3
HETATM    3  N   UNL     1      10.536  18.673   2.618  1.00  0.00    -0.298 N 
HETATM    4  C   UNL     1      10.178  19.759   1.972  1.00  0.00     0.069 C 
HETATM    5  C   UNL     1      10.866  20.856   2.474  1.00  0.00     0.033 C 
HETATM    6  C   UNL     1       9.419  19.901   0.734  1.00  0.00     0.059 C 
HETATM    7  C   UNL     1      11.140  21.920   1.639  1.00  0.00     0.002 C 
HETATM    8  C   UNL     1      10.498  22.032   0.425  1.00  0.00     0.002 C 
HETATM    9  C   UNL     1       9.618  21.050   0.009  1.00  0.00     0.026 C 
HETATM   10  S   UNL     1       8.395  18.730  -0.040  1.00  0.00    -0.078 SA
ATOM     11  HN  UNL     1      11.383  18.207   2.293  1.00  0.00     0.187 HD
ENDBRANCH   1   3
BRANCH   1  12
HETATM   12  C   UNL     1      10.059  16.848   3.753  1.00  0.00     0.119 C 
HETATM   13  N   UNL     1       9.884  15.863   2.736  1.00  0.00    -0.333 N 
HETATM   14  H   UNL     1       9.935  16.150   1.625  1.00  0.00     0.168 HD
HETATM   15  C   UNL     1       9.884  14.573   2.974  1.00  0.00     0.228 C 
HETATM   16  O   UNL     1      10.171  14.094   4.149  1.00  0.00    -0.343 OA
HETATM   17  C   UNL     1      10.929  14.996   4.965  1.00  0.00     0.207 C 
HETATM   18  C   UNL     1      10.401  16.364   4.946  1.00  0.00     0.049 C 
ENDBRANCH   1  12
TORSDOF 2
ENDMDL
MODEL 7
REMARK VINA RESULT:    -5.400      4.110      6.327
REMARK INTER + INTRA:          -6.285
REMARK INTER:                  -5.957
REMARK INTRA:                  -0.328
REMARK UNBOUND:                -0.253
REMARK  2 active torsions:
REMARK  status: ('A' for Active; 'I' for Inactive)
REMARK    1  A    between atoms: N_4  and  N_17 
REMARK    2  A    between atoms: N_4  and  C_12 
ROOT
HETATM    1  N   UNL     1       9.736  -0.065  20.997  1.00  0.00    -0.285 N 
ATOM      2  HN  UNL     1      10.321   0.058  20.171  1.00  0.00     0.188 HD
ENDROOT
BRANCH   1   3
HETATM    3  N   UNL     1       8.522  -0.344  20.890  1.00  0.00    -0.298 N 
HETATM    4  C   UNL     1       7.595   0.386  20.312  1.00  0.00     0.069 C 
HETATM    5  C   UNL     1       7.404  -0.042  19.004  1.00  0.00     0.033 C 
HETATM    6  C   UNL     1       6.644   1.324  20.899  1.00  0.00     0.059 C 
HETATM    7  C   UNL     1       6.163   0.107  18.420  1.00  0.00     0.002 C 
HETATM    8  C   UNL     1       5.216   0.922  19.002  1.00  0.00     0.002 C 
HETATM    9  C   UNL     1       5.482   1.551  20.204  1.00  0.00     0.026 C 
HETATM   10  S   UNL     1       6.712   2.090  22.457  1.00  0.00    -0.078 SA
ATOM     11  HN  UNL     1       8.220  -1.230  21.294  1.00  0.00     0.187 HD
ENDBRANCH   1   3
BRANCH   1  12
HETATM   12  C   UNL     1      10.237   0.066  22.209  1.00  0.00     0.119 C 
HETATM   13  N   UNL     1      10.629   1.295  22.819  1.00  0.00    -0.333 N 
HETATM   14  H   UNL     1      10.250   2.300  22.413  1.00  0.00     0.168 HD
HETATM   15  C   UNL     1      11.236   1.362  23.979  1.00  0.00     0.228 C 
HETATM   16  O   UNL     1      11.414   0.308  24.720  1.00  0.00    -0.343 OA
HETATM   17  C   UNL     1      10.507  -0.761  24.421  1.00  0.00     0.207 C 
HETATM   18  C   UNL     1      10.372  -1.009  22.983  1.00  0.00     0.049 C 
ENDBRANCH   1  12
TORSDOF 2
ENDMDL
MODEL 8
REMARK VINA RESULT:    -5.388      3.146      4.666
REMARK INTER + INTRA:          -6.272
REMARK INTER:                  -5.840
REMARK INTRA:                  -0.431
REMARK UNBOUND:                -0.253
REMARK  2 active torsions:
REMARK  status: ('A' for Active; 'I' for Inactive)
REMARK    1  A    between atoms: N_4  and  N_17 
REMARK    2  A    between atoms: N_4  and  C_12 
ROOT
HETATM    1  N   UNL     1       9.037  -2.119  21.869  1.00  0.00    -0.285 N 
ATOM      2  HN  UNL     1       8.632  -2.678  21.118  1.00  0.00     0.188 HD
ENDROOT
BRANCH   1   3
HETATM    3  N   UNL     1       9.462  -2.657  22.915  1.00  0.00    -0.298 N 
HETATM    4  C   UNL     1       8.781  -2.884  24.016  1.00  0.00     0.069 C 
HETATM    5  C   UNL     1       8.296  -4.185  24.012  1.00  0.00     0.033 C 
HETATM    6  C   UNL     1       8.705  -2.099  25.243  1.00  0.00     0.059 C 
HETATM    7  C   UNL     1       8.109  -4.839  25.213  1.00  0.00     0.002 C 
HETATM    8  C   UNL     1       8.118  -4.131  26.396  1.00  0.00     0.002 C 
HETATM    9  C   UNL     1       8.371  -2.772  26.393  1.00  0.00     0.026 C 
HETATM   10  S   UNL     1       9.135  -0.433  25.484  1.00  0.00    -0.078 SA
ATOM     11  HN  UNL     1      10.439  -2.951  22.913  1.00  0.00     0.187 HD
ENDBRANCH   1   3
BRANCH   1  12
HETATM   12  C   UNL     1       9.128  -0.809  21.766  1.00  0.00     0.119 C 
HETATM   13  N   UNL     1       8.029   0.096  21.668  1.00  0.00    -0.333 N 
HETATM   14  H   UNL     1       6.972  -0.226  21.983  1.00  0.00     0.168 HD
HETATM   15  C   UNL     1       8.171   1.380  21.444  1.00  0.00     0.228 C 
HETATM   16  O   UNL     1       9.343   1.945  21.418  1.00  0.00    -0.343 OA
HETATM   17  C   UNL     1      10.352   1.200  22.111  1.00  0.00     0.207 C 
HETATM   18  C   UNL     1      10.327  -0.230  21.789  1.00  0.00     0.049 C 
ENDBRANCH   1  12
TORSDOF 2
ENDMDL
MODEL 9
REMARK VINA RESULT:    -5.339     28.866     29.340
REMARK INTER + INTRA:          -6.217
REMARK INTER:                  -5.934
REMARK INTRA:                  -0.282
REMARK UNBOUND:                -0.253
REMARK  2 active torsions:
REMARK  status: ('A' for Active; 'I' for Inactive)
REMARK    1  A    between atoms: N_4  and  N_17 
REMARK    2  A    between atoms: N_4  and  C_12 
ROOT
HETATM    1  N   UNL     1       9.001  16.451   0.765  1.00  0.00    -0.285 N 
ATOM      2  HN  UNL     1       9.305  16.273  -0.192  1.00  0.00     0.188 HD
ENDROOT
BRANCH   1   3
HETATM    3  N   UNL     1       8.487  17.545   1.084  1.00  0.00    -0.298 N 
HETATM    4  C   UNL     1       9.018  18.738   0.936  1.00  0.00     0.069 C 
HETATM    5  C   UNL     1       8.562  19.315  -0.243  1.00  0.00     0.033 C 
HETATM    6  C   UNL     1       9.748  19.559   1.895  1.00  0.00     0.059 C 
HETATM    7  C   UNL     1       8.463  20.688  -0.326  1.00  0.00     0.002 C 
HETATM    8  C   UNL     1       9.073  21.486   0.617  1.00  0.00     0.002 C 
HETATM    9  C   UNL     1       9.741  20.916   1.685  1.00  0.00     0.026 C 
HETATM   10  S   UNL     1      10.511  19.064   3.375  1.00  0.00    -0.078 SA
ATOM     11  HN  UNL     1       7.558  17.508   1.503  1.00  0.00     0.187 HD
ENDBRANCH   1   3
BRANCH   1  12
HETATM   12  C   UNL     1       9.139  15.536   1.703  1.00  0.00     0.119 C 
HETATM   13  N   UNL     1      10.092  15.569   2.765  1.00  0.00    -0.333 N 
HETATM   14  H   UNL     1      10.606  16.552   3.062  1.00  0.00     0.168 HD
HETATM   15  C   UNL     1      10.273  14.576   3.602  1.00  0.00     0.228 C 
HETATM   16  O   UNL     1       9.503  13.528   3.597  1.00  0.00    -0.343 OA
HETATM   17  C   UNL     1       8.224  13.761   2.993  1.00  0.00     0.207 C 
HETATM   18  C   UNL     1       8.317  14.488   1.724  1.00  0.00     0.049 C 
ENDBRANCH   1  12
TORSDOF 2
ENDMDL
