REMARK  2 active torsions:
REMARK  status: ('A' for Active; 'I' for Inactive)
REMARK    1  A    between atoms: N_4  and  N_17 
REMARK    2  A    between atoms: N_4  and  C_12 
ROOT
HETATM    1  N   UNL     1       9.236   0.390  22.182  1.00  0.00    -0.285 N 
ATOM      2  HN  UNL     1       9.234   1.170  21.525  1.00  0.00     0.188 HD
ENDROOT
BRANCH   1   3
HETATM    3  N   UNL     1       9.834  -0.675  21.915  1.00  0.00    -0.298 N 
HETATM    4  C   UNL     1       9.335  -1.726  21.304  1.00  0.00     0.069 C 
HETATM    5  C   UNL     1       9.641  -1.675  19.950  1.00  0.00     0.033 C 
HETATM    6  C   UNL     1       8.783  -2.955  21.863  1.00  0.00     0.059 C 
HETATM    7  C   UNL     1       9.783  -2.853  19.246  1.00  0.00     0.002 C 
HETATM    8  C   UNL     1       9.346  -4.042  19.789  1.00  0.00     0.002 C 
HETATM    9  C   UNL     1       8.815  -4.072  21.065  1.00  0.00     0.026 C 
HETATM   10  S   UNL     1       8.220  -3.243  23.481  1.00  0.00    -0.078 SA
ATOM     11  HN  UNL     1      10.811  -0.734  22.201  1.00  0.00     0.187 HD
ENDBRANCH   1   3
BRANCH   1  12
HETATM   12  C   UNL     1       8.608   0.474  23.337  1.00  0.00     0.119 C 
HETATM   13  N   UNL     1       8.145  -0.629  24.115  1.00  0.00    -0.333 N 
HETATM   14  H   UNL     1       8.560  -1.686  23.941  1.00  0.00     0.168 HD
HETATM   15  C   UNL     1       7.417  -0.493  25.197  1.00  0.00     0.228 C 
HETATM   16  O   UNL     1       7.167   0.676  25.711  1.00  0.00    -0.343 OA
HETATM   17  C   UNL     1       8.107   1.685  25.321  1.00  0.00     0.207 C 
HETATM   18  C   UNL     1       8.397   1.670  23.884  1.00  0.00     0.049 C 
ENDBRANCH   1  12
TORSDOF 2
