
 OpenBabel07202414153D

 49 52  0  0  1  0  0  0  0  0999 V2000
    3.1024   -1.1497    3.2785 C   0  0  0  0  0  0  0  0  0  0  0  0
    2.4281   -1.7878    2.0789 C   0  0  1  0  0  0  0  0  0  0  0  0
    1.0152   -1.5901    2.2173 O   0  0  0  0  0  0  0  0  0  0  0  0
    2.9260   -1.1954    0.7570 C   0  0  0  0  0  0  0  0  0  0  0  0
    4.3423   -1.3830    0.4383 N   0  0  0  0  0  0  0  0  0  0  0  0
    4.9180   -2.7245    0.3620 C   0  0  0  0  0  0  0  0  0  0  0  0
    5.6275   -2.9713   -0.9667 C   0  0  1  0  0  0  0  0  0  0  0  0
    4.6028   -3.3622   -2.0341 C   0  0  0  0  0  0  0  0  0  0  0  0
    4.6347   -4.4866   -2.5279 O   0  0  0  0  0  0  0  0  0  0  0  0
    3.6878   -2.3734   -2.3452 N   0  0  0  0  0  0  0  0  0  0  0  0
    2.6777   -2.4234   -3.3395 C   0  0  0  0  0  0  0  0  0  0  0  0
    2.3132   -3.6091   -3.9779 C   0  0  0  0  0  0  0  0  0  0  0  0
    1.5005   -3.6789   -5.0555 N   0  0  0  0  0  0  0  0  0  0  0  0
    0.9923   -2.5128   -5.4997 C   0  0  0  0  0  0  0  0  0  0  0  0
    1.1675   -1.2823   -4.8684 C   0  0  0  0  0  0  0  0  0  0  0  0
    0.5028   -0.1325   -5.3319 C   0  0  0  0  0  0  0  0  0  0  0  0
    0.6602    1.0903   -4.6855 C   0  0  0  0  0  0  0  0  0  0  0  0
    1.5018    1.1818   -3.5859 C   0  0  0  0  0  0  0  0  0  0  0  0
    2.1808    0.0485   -3.1269 C   0  0  0  0  0  0  0  0  0  0  0  0
    2.0284   -1.2212   -3.7474 C   0  0  0  0  0  0  0  0  0  0  0  0
    6.4937   -1.7819   -1.3543 C   0  0  0  0  0  0  0  0  0  0  0  0
    7.5011   -1.9343   -2.3131 C   0  0  0  0  0  0  0  0  0  0  0  0
    8.2650   -0.8288   -2.7147 C   0  0  0  0  0  0  0  0  0  0  0  0
    9.4820   -1.0225   -3.9117 Cl  0  0  0  0  0  0  0  0  0  0  0  0
    8.0423    0.4211   -2.1487 C   0  0  0  0  0  0  0  0  0  0  0  0
    7.0552    0.5812   -1.1790 C   0  0  0  0  0  0  0  0  0  0  0  0
    6.2830   -0.5213   -0.7699 C   0  0  0  0  0  0  0  0  0  0  0  0
    5.1305   -0.2755    0.1517 C   0  0  0  0  0  0  0  0  0  0  0  0
    4.8469    0.8640    0.4979 O   0  0  0  0  0  0  0  0  0  0  0  0
    2.7004   -1.5711    4.2071 H   0  0  0  0  0  0  0  0  0  0  0  0
    2.9051   -0.0733    3.3096 H   0  0  0  0  0  0  0  0  0  0  0  0
    4.1849   -1.3101    3.2668 H   0  0  0  0  0  0  0  0  0  0  0  0
    2.5989   -2.8691    2.0991 H   0  0  0  0  0  0  0  0  0  0  0  0
    0.6355   -1.2852    1.3739 H   0  0  0  0  0  0  0  0  0  0  0  0
    2.6733   -0.1300    0.7152 H   0  0  0  0  0  0  0  0  0  0  0  0
    2.3584   -1.6498   -0.0651 H   0  0  0  0  0  0  0  0  0  0  0  0
    4.1464   -3.4797    0.5465 H   0  0  0  0  0  0  0  0  0  0  0  0
    5.6497   -2.7874    1.1778 H   0  0  0  0  0  0  0  0  0  0  0  0
    6.2847   -3.8403   -0.8310 H   0  0  0  0  0  0  0  0  0  0  0  0
    3.8622   -1.4681   -1.9331 H   0  0  0  0  0  0  0  0  0  0  0  0
    2.6585   -4.5807   -3.6392 H   0  0  0  0  0  0  0  0  0  0  0  0
    0.4090   -2.6012   -6.4130 H   0  0  0  0  0  0  0  0  0  0  0  0
   -0.1615   -0.1892   -6.1922 H   0  0  0  0  0  0  0  0  0  0  0  0
    0.1226    1.9673   -5.0372 H   0  0  0  0  0  0  0  0  0  0  0  0
    1.6313    2.1351   -3.0781 H   0  0  0  0  0  0  0  0  0  0  0  0
    2.8150    0.1860   -2.2561 H   0  0  0  0  0  0  0  0  0  0  0  0
    7.6852   -2.9034   -2.7765 H   0  0  0  0  0  0  0  0  0  0  0  0
    8.6162    1.2877   -2.4768 H   0  0  0  0  0  0  0  0  0  0  0  0
    6.8681    1.5692   -0.7556 H   0  0  0  0  0  0  0  0  0  0  0  0
  1  2  1  0  0  0  0
  1 30  1  0  0  0  0
  1 31  1  0  0  0  0
  1 32  1  0  0  0  0
  2  3  1  0  0  0  0
  2  4  1  0  0  0  0
  2 33  1  1  0  0  0
  3 34  1  0  0  0  0
  4  5  1  0  0  0  0
  4 35  1  0  0  0  0
  4 36  1  0  0  0  0
  5  6  1  0  0  0  0
  5 28  1  0  0  0  0
  6  7  1  0  0  0  0
  6 37  1  0  0  0  0
  6 38  1  0  0  0  0
  7  8  1  0  0  0  0
  7 21  1  0  0  0  0
  7 39  1  1  0  0  0
  8  9  2  0  0  0  0
  8 10  1  0  0  0  0
 10 11  1  0  0  0  0
 10 40  1  0  0  0  0
 11 12  1  0  0  0  0
 11 20  2  0  0  0  0
 12 13  2  0  0  0  0
 12 41  1  0  0  0  0
 13 14  1  0  0  0  0
 14 15  2  0  0  0  0
 14 42  1  0  0  0  0
 15 16  1  0  0  0  0
 15 20  1  0  0  0  0
 16 17  2  0  0  0  0
 16 43  1  0  0  0  0
 17 18  1  0  0  0  0
 17 44  1  0  0  0  0
 18 19  2  0  0  0  0
 18 45  1  0  0  0  0
 19 20  1  0  0  0  0
 19 46  1  0  0  0  0
 21 22  1  0  0  0  0
 21 27  2  0  0  0  0
 22 23  2  0  0  0  0
 22 47  1  0  0  0  0
 23 24  1  0  0  0  0
 23 25  1  0  0  0  0
 25 26  2  0  0  0  0
 25 48  1  0  0  0  0
 26 27  1  0  0  0  0
 26 49  1  0  0  0  0
 27 28  1  0  0  0  0
 28 29  2  0  0  0  0
M  END
$$$$
