REMARK  7 active torsions:
REMARK  status: ('A' for Active; 'I' for Inactive)
REMARK    1  A    between atoms: S_2  and  N_5 
REMARK    2  A    between atoms: N_5  and  C_7 
REMARK    3  A    between atoms: C_7  and  C_8 
REMARK    4  A    between atoms: C_8  and  C_9 
REMARK    5  A    between atoms: C_9  and  C_15 
REMARK    6  A    between atoms: C_15  and  C_16 
REMARK       I    between atoms: C_16  and  N_18 
REMARK    7  A    between atoms: N_18  and  C_20 
ROOT
HETATM    1  C   UNL     1      10.370  -1.201  23.198  1.00  0.00     0.068 C 
HETATM    2  C   UNL     1      11.048  -0.050  24.285  1.00  0.00     0.000 C 
HETATM    3  C   UNL     1      12.092   0.256  24.186  1.00  0.00    -0.002 C 
HETATM    4  C   UNL     1      13.180  -0.174  23.376  1.00  0.00    -0.001 C 
HETATM    5  C   UNL     1      12.767  -1.190  22.649  1.00  0.00    -0.002 C 
HETATM    6  C   UNL     1      11.755  -1.706  22.564  1.00  0.00     0.000 C 
ENDROOT
BRANCH   1   7
HETATM    7  C   UNL     1       9.434  -2.023  23.570  1.00  0.00     0.135 C 
BRANCH   7   8
HETATM    8  C   UNL     1       8.974  -2.868  24.158  1.00  0.00    -0.058 C 
BRANCH   8   9
HETATM    9  N   UNL     1       8.150  -3.559  24.733  1.00  0.00    -0.254 N 
ATOM     10  HN  UNL     1       7.261  -3.662  24.244  1.00  0.00     0.188 HD
BRANCH   9  11
HETATM   11  S   UNL     1       8.241  -4.336  26.143  1.00  0.00     0.233 S 
HETATM   12  C   UNL     1       6.584  -4.802  26.452  1.00  0.00     0.186 C 
HETATM   13  O   UNL     1       9.025  -5.526  26.019  1.00  0.00    -0.206 OA
HETATM   14  O   UNL     1       8.665  -3.511  27.246  1.00  0.00    -0.206 OA
ENDBRANCH   9  11
ENDBRANCH   8   9
ENDBRANCH   7   8
ENDBRANCH   1   7
BRANCH   1  15
HETATM   15  C   UNL     1       9.744  -0.538  22.344  1.00  0.00    -0.064 C 
BRANCH  15  16
HETATM   16  C   UNL     1       9.061   0.077  21.388  1.00  0.00     0.290 C 
HETATM   17  O   UNL     1       9.560   1.029  20.985  1.00  0.00    -0.259 OA
HETATM   18  N   UNL     1       7.890  -0.552  21.085  1.00  0.00    -0.317 N 
ATOM     19  HN  UNL     1       7.612  -1.401  21.578  1.00  0.00     0.169 HD
BRANCH  18  20
HETATM   20  C   UNL     1       7.155  -0.059  20.178  1.00  0.00     0.059 A 
HETATM   21  C   UNL     1       7.112   0.081  18.855  1.00  0.00     0.155 A 
HETATM   22  N   UNL     1       6.778   0.305  17.679  1.00  0.00    -0.400 N 
HETATM   23  C   UNL     1       5.756   0.780  18.260  1.00  0.00     0.130 A 
ATOM     24  HN  UNL     1       7.139   0.174  16.734  1.00  0.00     0.154 HD
HETATM   25  C   UNL     1       5.183   0.974  19.402  1.00  0.00     0.026 A 
HETATM   26  C   UNL     1       5.779   0.576  20.518  1.00  0.00     0.057 A 
HETATM   27 CL   UNL     1       5.281   0.729  22.024  1.00  0.00    -0.082 Cl
ENDBRANCH  18  20
ENDBRANCH  15  16
ENDBRANCH   1  15
TORSDOF 7
