stable:False satoms:9 tatoms:24 sratio:0.375
  -OEChem-07092417443D

 24 26  0     1  0  0  0  0  0999 V2000
    6.5836   -4.8024   26.4523 C   0  0  0  0  0  0  0  0  0  0  0  0
    8.2413   -4.3363   26.1429 S   0  0  0  0  0  0  0  0  0  0  0  0
    9.0252   -5.5260   26.0191 O   0  0  0  0  0  0  0  0  0  0  0  0
    8.6648   -3.5114   27.2458 O   0  0  0  0  0  0  0  0  0  0  0  0
    8.1496   -3.5592   24.7328 N   0  0  0  0  0  0  0  0  0  0  0  0
    8.9738   -2.8681   24.1578 C   0  0  0  0  0  0  0  0  0  0  0  0
    9.4339   -2.0227   23.5702 C   0  0  0  0  0  0  0  0  0  0  0  0
   10.3697   -1.2013   23.1984 C   0  0  1  0  0  0  0  0  0  0  0  0
   11.0479   -0.0500   24.2847 C   0  0  0  0  0  0  0  0  0  0  0  0
   12.0920    0.2562   24.1858 C   0  0  0  0  0  0  0  0  0  0  0  0
   13.1803   -0.1738   23.3761 C   0  0  0  0  0  0  0  0  0  0  0  0
   12.7671   -1.1903   22.6488 C   0  0  0  0  0  0  0  0  0  0  0  0
   11.7550   -1.7057   22.5638 C   0  0  0  0  0  0  0  0  0  0  0  0
    9.7441   -0.5380   22.3444 C   0  0  0  0  0  0  0  0  0  0  0  0
    9.0610    0.0766   21.3878 C   0  0  0  0  0  0  0  0  0  0  0  0
    9.5601    1.0292   20.9849 O   0  0  0  0  0  0  0  0  0  0  0  0
    7.8900   -0.5525   21.0853 N   0  0  0  0  0  0  0  0  0  0  0  0
    7.1550   -0.0595   20.1779 C   0  0  0  0  0  0  0  0  0  0  0  0
    7.1121    0.0813   18.8555 C   0  0  0  0  0  0  0  0  0  0  0  0
    6.7784    0.3051   17.6787 N   0  0  0  0  0  0  0  0  0  0  0  0
    5.7565    0.7803   18.2596 C   0  0  0  0  0  0  0  0  0  0  0  0
    5.1834    0.9738   19.4023 C   0  0  0  0  0  0  0  0  0  0  0  0
    5.7785    0.5758   20.5180 C   0  0  0  0  0  0  0  0  0  0  0  0
    5.2808    0.7287   22.0238 Cl  0  0  0  0  0  0  0  0  0  0  0  0
 20 21  2  0  0  0  0
 19 20  1  0  0  0  0
 19 21  1  0  0  0  0
 21 22  1  0  0  0  0
 18 19  2  0  0  0  0
 22 23  2  0  0  0  0
 18 23  1  0  0  0  0
 17 18  1  0  0  0  0
 23 24  1  0  0  0  0
 15 16  2  0  0  0  0
 15 17  1  0  0  0  0
 14 15  1  0  0  0  0
  8 14  1  0  0  0  0
 12 13  1  0  0  0  0
  8 13  1  0  0  0  0
 11 12  2  0  0  0  0
  7  8  1  0  0  0  0
  8  9  1  0  0  0  0
 10 11  1  0  0  0  0
  6  7  3  0  0  0  0
  5  6  1  0  0  0  0
  9 10  2  0  0  0  0
  2  5  1  0  0  0  0
  2  3  2  0  0  0  0
  1  2  1  0  0  0  0
  2  4  2  0  0  0  0
M  END
> <Shapegauss>
-286.366516

$$$$
