stable:False satoms:12 tatoms:24 sratio:0.5
  -OEChem-07092417423D

 24 25  0     0  0  0  0  0  0999 V2000
    6.7358   -4.8900   26.4146 O   0  0  0  0  0  0  0  0  0  0  0  0
    8.1178   -4.4192   26.1645 S   0  0  0  0  0  0  0  0  0  0  0  0
    9.0379   -5.5223   26.1161 O   0  0  0  0  0  0  0  0  0  0  0  0
    8.5438   -3.4740   27.1900 O   0  5  0  0  0  0  0  0  0  0  0  0
    8.0652   -3.7085   24.6860 N   0  0  0  0  0  0  0  0  0  0  0  0
    8.8468   -2.9037   24.2554 C   0  0  0  0  0  0  0  0  0  0  0  0
    9.4085   -2.1193   23.6759 C   0  0  0  0  0  0  0  0  0  0  0  0
   10.2679   -1.3919   22.9261 C   0  0  0  0  0  0  0  0  0  0  0  0
   11.4426    0.2357   24.4232 H   0  0  0  0  0  0  0  0  0  0  0  0
   12.3042    0.0804   23.9817 C   0  5  0  0  0  0  0  0  0  0  0  0
   13.2069    0.4206   23.9973 H   0  0  0  0  0  0  0  0  0  0  0  0
   12.6049   -1.2230   22.8140 C   0  0  0  0  0  0  0  0  0  0  0  0
   11.6163   -1.6577   22.7284 C   0  0  0  0  0  0  0  0  0  0  0  0
    9.8681   -0.4874   22.1731 C   0  0  0  0  0  0  0  0  0  0  0  0
    9.0709    0.1760   21.3030 C   0  0  0  0  0  0  0  0  0  0  0  0
    9.4635    1.2007   20.7802 O   0  0  0  0  0  0  0  0  0  0  0  0
    7.8909   -0.4668   21.1694 N   0  0  0  0  0  0  0  0  0  0  0  0
    7.1230   -0.0647   20.2025 C   0  0  0  0  0  0  0  0  0  0  0  0
    7.1622   -0.0174   18.8635 C   0  0  0  0  0  0  0  0  0  0  0  0
    6.7068    0.2486   17.7750 N   0  0  0  0  0  0  0  0  0  0  0  0
    5.6774    0.7952   18.2370 C   0  0  0  0  0  0  0  0  0  0  0  0
    5.2641    0.8900   19.3953 C   0  0  0  0  0  0  0  0  0  0  0  0
    5.7817    0.4892   20.5168 C   0  0  0  0  0  0  0  0  0  0  0  0
    5.3767    0.5193   21.5075 H   0  0  0  0  0  0  0  0  0  0  0  0
 20 21  2  0  0  0  0
 19 20  1  0  0  0  0
 19 21  1  0  0  0  0
 21 22  1  0  0  0  0
 18 19  2  0  0  0  0
 22 23  2  0  0  0  0
 18 23  1  0  0  0  0
 17 18  1  0  0  0  0
 23 24  1  0  0  0  0
 15 16  2  0  0  0  0
 15 17  1  0  0  0  0
 14 15  1  0  0  0  0
  8 14  2  3  0  0  0
 12 13  1  0  0  0  0
  8 13  1  0  0  0  0
 10 12  1  0  0  0  0
  7  8  1  0  0  0  0
  6  7  3  0  0  0  0
 10 11  1  0  0  0  0
  9 10  1  0  0  0  0
  5  6  1  0  0  0  0
  2  5  1  0  0  0  0
  2  3  2  0  0  0  0
  1  2  2  0  0  0  0
  2  4  1  0  0  0  0
M  CHG  2   4  -1  10  -1
M  END
> <Shapegauss>
-258.622955

$$$$
