stable:False satoms:12 tatoms:24 sratio:0.5
  -OEChem-08062412013D

 33 34  0     0  0  0  0  0  0999 V2000
    6.6834   -5.0260   26.5302 O   0  0  0  0  0  0  0  0  0  0  0  0
    8.0663   -4.5351   26.3281 S   0  0  0  0  0  0  0  0  0  0  0  0
    9.0069   -5.6218   26.3429 O   0  0  0  0  0  0  0  0  0  0  0  0
    8.4317   -3.5605   27.3495 O   0  5  0  0  0  0  0  0  0  0  0  0
    8.0640   -3.8573   24.8334 N   0  0  0  0  0  0  0  0  0  0  0  0
    8.8489   -3.0475   24.4183 C   0  0  0  0  0  0  0  0  0  0  0  0
    9.4208   -2.2654   23.8457 C   0  0  0  0  0  0  0  0  0  0  0  0
   10.2983   -1.5384   23.1168 C   0  0  0  0  0  0  0  0  0  0  0  0
   11.5178    0.6636   23.7687 H   0  0  0  0  0  0  0  0  0  0  0  0
   12.2617   -0.0064   24.2243 C   0  0  0  0  0  0  0  0  0  0  0  0
   13.1793    0.5594   24.4430 H   0  0  0  0  0  0  0  0  0  0  0  0
   12.6346   -1.3287   23.0994 C   0  0  0  0  0  0  0  0  0  0  0  0
   11.6583   -1.7834   22.9820 C   0  0  0  0  0  0  0  0  0  0  0  0
    9.9150   -0.6578   22.3279 C   0  0  0  0  0  0  0  0  0  0  0  0
    9.1439   -0.0280   21.4105 C   0  0  0  0  0  0  0  0  0  0  0  0
    9.5402    0.9924   20.8822 O   0  0  0  0  0  0  0  0  0  0  0  0
    7.9821   -0.6953   21.2417 N   0  0  0  0  0  0  0  0  0  0  0  0
    7.2490   -0.3282   20.2347 C   0  0  0  0  0  0  0  0  0  0  0  0
    7.3442   -0.3088   18.8978 C   0  0  0  0  0  0  0  0  0  0  0  0
    6.9308   -0.0746   17.7855 N   0  0  0  0  0  0  0  0  0  0  0  0
    5.8732    0.4626   18.1916 C   0  0  0  0  0  0  0  0  0  0  0  0
    5.4095    0.5744   19.3291 C   0  0  0  0  0  0  0  0  0  0  0  0
    5.8860    0.2073   20.4799 C   0  0  0  0  0  0  0  0  0  0  0  0
    5.4388    0.2511   21.4518 H   0  0  0  0  0  0  0  0  0  0  0  0
    7.1685   -3.4209   24.7463 H   0  0  0  0  0  0  0  0  0  0  0  0
   11.8566   -0.4230   25.1583 H   0  0  0  0  0  0  0  0  0  0  0  0
   13.3592   -2.0344   23.5319 H   0  0  0  0  0  0  0  0  0  0  0  0
   13.0203   -0.9477   22.1423 H   0  0  0  0  0  0  0  0  0  0  0  0
   11.7044   -2.0903   21.9267 H   0  0  0  0  0  0  0  0  0  0  0  0
   11.7689   -2.6680   23.6263 H   0  0  0  0  0  0  0  0  0  0  0  0
   10.6996    0.0731   22.4566 H   0  0  0  0  0  0  0  0  0  0  0  0
    7.7019   -1.4313   21.8579 H   0  0  0  0  0  0  0  0  0  0  0  0
    4.4454    1.0590   19.3757 H   0  0  0  0  0  0  0  0  0  0  0  0
 20 21  2  0  0  0  0
 19 20  1  0  0  0  0
 19 21  1  0  0  0  0
 21 22  1  0  0  0  0
 18 19  2  0  0  0  0
 22 23  2  0  0  0  0
 18 23  1  0  0  0  0
 17 18  1  0  0  0  0
 23 24  1  0  0  0  0
 15 16  2  0  0  0  0
 15 17  1  0  0  0  0
 14 15  1  0  0  0  0
  8 14  2  3  0  0  0
 12 13  1  0  0  0  0
  8 13  1  0  0  0  0
 10 12  1  0  0  0  0
  7  8  1  0  0  0  0
  6  7  3  0  0  0  0
 10 11  1  0  0  0  0
  9 10  1  0  0  0  0
  5  6  1  0  0  0  0
  2  5  1  0  0  0  0
  2  3  2  0  0  0  0
  1  2  2  0  0  0  0
  2  4  1  0  0  0  0
  5 25  1  0  0  0  0
 10 26  1  0  0  0  0
 12 27  1  0  0  0  0
 12 28  1  0  0  0  0
 13 29  1  0  0  0  0
 13 30  1  0  0  0  0
 14 31  1  0  0  0  0
 17 32  1  0  0  0  0
 22 33  1  0  0  0  0
M  CHG  1   4  -1
M  END
> <Chemgauss4>
-7.567265

$$$$
