stable:False satoms:22 tatoms:24 sratio:0.9166666666666666
  -OEChem-07092417333D

 24 24  0     1  0  0  0  0  0999 V2000
    7.0073   -3.0753   23.5912 H   0  0  0  0  0  0  0  0  0  0  0  0
    7.7650   -2.8935   22.8224 C   0  0  0  0  0  0  0  0  0  0  0  0
   10.5152   -2.0269   22.9844 H   0  0  0  0  0  0  0  0  0  0  0  0
    7.1776   -0.5810   24.2628 H   0  0  0  0  0  0  0  0  0  0  0  0
   10.4377    0.0810   22.3142 C   0  0  0  0  0  0  0  0  0  0  0  0
    9.2363   -1.7613   24.9025 H   0  0  0  0  0  0  0  0  0  0  0  0
    8.7414   -3.1428   23.2029 H   0  0  0  0  0  0  0  0  0  0  0  0
    9.4706    0.0192   24.9245 H   0  0  0  0  0  0  0  0  0  0  0  0
   10.2069    1.0066   22.8358 H   0  0  0  0  0  0  0  0  0  0  0  0
   11.4463    0.2088   21.8682 H   0  0  0  0  0  0  0  0  0  0  0  0
   11.4303   -0.8868   23.9623 H   0  0  0  0  0  0  0  0  0  0  0  0
    8.0191   -0.7672   23.6092 C   0  5  2  0  0  0  0  0  0  0  0  0
   10.5139   -1.0091   23.3705 C   0  0  0  0  0  0  0  0  0  0  0  0
    9.2582   -2.0208   20.8516 H   0  0  0  0  0  0  0  0  0  0  0  0
    7.5570   -3.5016   21.9472 H   0  0  0  0  0  0  0  0  0  0  0  0
    7.7201   -1.4134   22.3025 C   0  0  1  0  0  0  0  0  0  0  0  0
    9.5016    0.0042   21.1246 C   0  0  0  0  0  0  0  0  0  0  0  0
    8.6163   -1.1625   21.0437 C   0  0  0  0  0  0  0  0  0  0  0  0
    6.3862   -1.1526   21.7468 C   0  5  0  0  0  0  0  0  0  0  0  0
    6.0545   -1.6245   20.8290 H   0  0  0  0  0  0  0  0  0  0  0  0
    9.5620    0.7246   20.1422 O   0  0  0  0  0  0  0  0  0  0  0  0
    7.9738   -0.9817   20.1629 H   0  0  0  0  0  0  0  0  0  0  0  0
    9.2789   -0.8397   24.2629 C   0  0  0  0  0  0  0  0  0  0  0  0
    5.7079   -0.4937   22.2323 H   0  0  0  0  0  0  0  0  0  0  0  0
 17 21  2  0  0  0  0
 18 22  1  0  0  0  0
 19 20  1  0  0  0  0
 14 18  1  0  0  0  0
 17 18  1  0  0  0  0
 16 18  1  0  0  0  0
  5 17  1  0  0  0  0
 19 24  1  0  0  0  0
 16 19  1  0  0  0  0
  5 10  1  0  0  0  0
  2 15  1  0  0  0  0
  2 16  1  0  0  0  0
 12 16  1  0  0  0  0
  5  9  1  0  0  0  0
  5 13  1  0  0  0  0
  2  7  1  0  0  0  0
  1  2  1  0  0  0  0
  3 13  1  0  0  0  0
 11 13  1  0  0  0  0
 13 23  1  0  0  0  0
  4 12  1  0  0  0  0
 12 23  1  0  0  0  0
  6 23  1  0  0  0  0
  8 23  1  0  0  0  0
M  CHG  2  12  -1  19  -1
M  END
> <Shapegauss>
-85.335655

$$$$
