stable:False satoms:22 tatoms:24 sratio:0.9166666666666666
  -OEChem-08052418523D

 26 26  0     1  0  0  0  0  0999 V2000
   -8.5580    0.8675  -23.0531 H   0  0  0  0  0  0  0  0  0  0  0  0
   -9.6313    0.9854  -22.8732 C   0  0  0  0  0  0  0  0  0  0  0  0
  -11.5906   -0.7530  -21.6567 H   0  0  0  0  0  0  0  0  0  0  0  0
  -10.3668   -1.3984  -24.9757 H   0  0  0  0  0  0  0  0  0  0  0  0
  -12.7464   -1.5222  -23.3803 C   0  0  0  0  0  0  0  0  0  0  0  0
   -9.5601   -1.7244  -22.2212 H   0  0  0  0  0  0  0  0  0  0  0  0
   -9.9091    0.4788  -21.9641 H   0  0  0  0  0  0  0  0  0  0  0  0
  -10.3281   -2.9016  -23.3393 H   0  0  0  0  0  0  0  0  0  0  0  0
  -12.5725   -2.3452  -24.0692 H   0  0  0  0  0  0  0  0  0  0  0  0
  -13.7415   -1.6962  -22.9197 H   0  0  0  0  0  0  0  0  0  0  0  0
  -11.9163   -2.4813  -21.6399 H   0  0  0  0  0  0  0  0  0  0  0  0
  -10.0142   -0.9361  -24.0419 C   0  0  2  0  0  0  0  0  0  0  0  0
  -11.6887   -1.6299  -22.2942 C   0  0  0  0  0  0  0  0  0  0  0  0
  -12.2395    1.2245  -22.9973 H   0  0  0  0  0  0  0  0  0  0  0  0
   -9.8777    2.0392  -22.7842 H   0  0  0  0  0  0  0  0  0  0  0  0
  -10.4825    0.4756  -24.0891 C   0  0  1  0  0  0  0  0  0  0  0  0
  -12.9293   -0.2766  -24.2242 C   0  0  0  0  0  0  0  0  0  0  0  0
  -12.0027    0.8352  -23.9863 C   0  0  0  0  0  0  0  0  0  0  0  0
  -10.0991    1.2404  -25.2825 C   0  0  0  0  0  0  0  0  0  0  0  0
   -9.0299    1.0861  -25.4896 H   0  0  0  0  0  0  0  0  0  0  0  0
  -13.8928   -0.0533  -24.9381 O   0  0  0  0  0  0  0  0  0  0  0  0
  -12.2550    1.5947  -24.7485 H   0  0  0  0  0  0  0  0  0  0  0  0
  -10.3504   -1.8518  -23.0083 C   0  0  0  0  0  0  0  0  0  0  0  0
  -10.2883    2.3100  -25.1088 H   0  0  0  0  0  0  0  0  0  0  0  0
   -8.9154   -0.8859  -24.0497 H   0  0  0  0  0  0  0  0  0  0  0  0
  -10.6923    0.8982  -26.1434 H   0  0  0  0  0  0  0  0  0  0  0  0
 17 21  2  0  0  0  0
 18 22  1  0  0  0  0
 19 20  1  0  0  0  0
 14 18  1  0  0  0  0
 17 18  1  0  0  0  0
 16 18  1  0  0  0  0
  5 17  1  0  0  0  0
 19 24  1  0  0  0  0
 16 19  1  0  0  0  0
  5 10  1  0  0  0  0
  2 15  1  0  0  0  0
  2 16  1  0  0  0  0
 12 16  1  0  0  0  0
  5  9  1  0  0  0  0
  5 13  1  0  0  0  0
  2  7  1  0  0  0  0
  1  2  1  0  0  0  0
  3 13  1  0  0  0  0
 11 13  1  0  0  0  0
 13 23  1  0  0  0  0
  4 12  1  0  0  0  0
 12 23  1  0  0  0  0
  6 23  1  0  0  0  0
  8 23  1  0  0  0  0
 12 25  1  0  0  0  0
 19 26  1  0  0  0  0
M  END
> <Chemgauss4>
-5.543528

$$$$
