stable:False satoms:22 tatoms:24 sratio:0.9166666666666666
  -OEChem-08052418523D

 26 26  0     1  0  0  0  0  0999 V2000
    8.2231    0.5183   24.5888 H   0  0  0  0  0  0  0  0  0  0  0  0
    9.1927    0.7109   24.1187 C   0  0  0  0  0  0  0  0  0  0  0  0
   10.6548   -0.6880   22.0581 H   0  0  0  0  0  0  0  0  0  0  0  0
   10.4876   -1.9935   25.4045 H   0  0  0  0  0  0  0  0  0  0  0  0
   12.2656   -1.7199   23.1713 C   0  0  0  0  0  0  0  0  0  0  0  0
    8.8744   -1.8291   23.0139 H   0  0  0  0  0  0  0  0  0  0  0  0
    9.1707    0.3955   23.0890 H   0  0  0  0  0  0  0  0  0  0  0  0
    9.9236   -3.1633   23.6009 H   0  0  0  0  0  0  0  0  0  0  0  0
   12.2940   -2.6638   23.7100 H   0  0  0  0  0  0  0  0  0  0  0  0
   13.0696   -1.7642   22.4070 H   0  0  0  0  0  0  0  0  0  0  0  0
   10.9267   -2.3680   21.6139 H   0  0  0  0  0  0  0  0  0  0  0  0
    9.8764   -1.3788   24.7273 C   0  0  2  0  0  0  0  0  0  0  0  0
   10.9256   -1.6643   22.4564 C   0  0  0  0  0  0  0  0  0  0  0  0
   11.7189    1.0272   23.4915 H   0  0  0  0  0  0  0  0  0  0  0  0
    9.4205    1.7717   24.1623 H   0  0  0  0  0  0  0  0  0  0  0  0
   10.3638    0.0166   24.8994 C   0  0  1  0  0  0  0  0  0  0  0  0
   12.7207   -0.6484   24.1420 C   0  0  0  0  0  0  0  0  0  0  0  0
   11.7870    0.4501   24.4123 C   0  0  0  0  0  0  0  0  0  0  0  0
   10.3767    0.5278   26.2758 C   0  0  0  0  0  0  0  0  0  0  0  0
    9.4185    0.2945   26.7632 H   0  0  0  0  0  0  0  0  0  0  0  0
   13.8599   -0.5245   24.5598 O   0  0  0  0  0  0  0  0  0  0  0  0
   12.2740    1.0625   25.1928 H   0  0  0  0  0  0  0  0  0  0  0  0
    9.8642   -2.0700   23.4856 C   0  0  0  0  0  0  0  0  0  0  0  0
   10.5245    1.6177   26.2607 H   0  0  0  0  0  0  0  0  0  0  0  0
    8.8333   -1.3752   25.0765 H   0  0  0  0  0  0  0  0  0  0  0  0
   11.1972    0.0543   26.8350 H   0  0  0  0  0  0  0  0  0  0  0  0
 17 21  2  0  0  0  0
 18 22  1  0  0  0  0
 19 20  1  0  0  0  0
 14 18  1  0  0  0  0
 17 18  1  0  0  0  0
 16 18  1  0  0  0  0
  5 17  1  0  0  0  0
 19 24  1  0  0  0  0
 16 19  1  0  0  0  0
  5 10  1  0  0  0  0
  2 15  1  0  0  0  0
  2 16  1  0  0  0  0
 12 16  1  0  0  0  0
  5  9  1  0  0  0  0
  5 13  1  0  0  0  0
  2  7  1  0  0  0  0
  1  2  1  0  0  0  0
  3 13  1  0  0  0  0
 11 13  1  0  0  0  0
 13 23  1  0  0  0  0
  4 12  1  0  0  0  0
 12 23  1  0  0  0  0
  6 23  1  0  0  0  0
  8 23  1  0  0  0  0
 12 25  1  0  0  0  0
 19 26  1  0  0  0  0
M  END
> <Chemgauss4>
-5.498826

$$$$
