REMARK  6 active torsions:
REMARK  status: ('A' for Active; 'I' for Inactive)
REMARK    1  A    between atoms: S_2  and  N_5 
REMARK    2  A    between atoms: C_7  and  C_8 
REMARK    3  A    between atoms: C_8  and  C_9 
REMARK    4  A    between atoms: C_9  and  C_15 
REMARK    5  A    between atoms: C_15  and  C_16 
REMARK       I    between atoms: C_16  and  N_18 
REMARK    6  A    between atoms: N_18  and  C_20 
ROOT
HETATM    1  C   UNL     1      10.379  -1.173  23.220  1.00  0.00     0.076 C 
HETATM    2  C   UNL     1      11.066   0.023  24.297  1.00  0.00     0.003 C 
HETATM    3  C   UNL     1      12.044   0.300  24.273  1.00  0.00    -0.002 C 
HETATM    4  C   UNL     1      13.137  -0.210  23.424  1.00  0.00    -0.001 C 
HETATM    5  C   UNL     1      12.829  -1.233  22.671  1.00  0.00    -0.002 C 
HETATM    6  C   UNL     1      11.764  -1.679  22.609  1.00  0.00     0.003 C 
ENDROOT
BRANCH   1   7
HETATM    7  C   UNL     1       9.415  -2.015  23.545  1.00  0.00     0.021 C 
BRANCH   7   8
HETATM    8  C   UNL     1       8.945  -2.911  24.161  1.00  0.00     0.098 C 
HETATM    9  N   UNL     1       8.082  -3.601  24.672  1.00  0.00    -0.296 N 
ATOM     10  HN  UNL     1       7.229  -3.745  24.132  1.00  0.00     0.177 HD
BRANCH   9  11
HETATM   11  S   UNL     1       8.156  -4.314  26.129  1.00  0.00     0.226 S 
HETATM   12  C   UNL     1       6.721  -4.811  26.401  1.00  0.00     0.186 C 
HETATM   13  O   UNL     1       9.080  -5.445  26.061  1.00  0.00    -0.206 OA
HETATM   14  O   UNL     1       8.601  -3.373  27.136  1.00  0.00    -0.206 OA
ENDBRANCH   9  11
ENDBRANCH   7   8
ENDBRANCH   1   7
BRANCH   1  15
HETATM   15  C   UNL     1       9.723  -0.630  22.376  1.00  0.00    -0.061 C 
BRANCH  15  16
HETATM   16  C   UNL     1       9.053   0.027  21.383  1.00  0.00     0.290 C 
HETATM   17  O   UNL     1       9.582   0.967  20.934  1.00  0.00    -0.259 OA
HETATM   18  N   UNL     1       7.905  -0.574  21.113  1.00  0.00    -0.315 N 
ATOM     19  HN  UNL     1       7.597  -1.399  21.627  1.00  0.00     0.170 HD
BRANCH  18  20
HETATM   20  C   UNL     1       7.204  -0.068  20.177  1.00  0.00     0.060 C 
HETATM   21  C   UNL     1       7.199   0.040  18.886  1.00  0.00     0.117 C 
HETATM   22  N   UNL     1       6.746   0.292  17.751  1.00  0.00    -0.373 N 
HETATM   23  C   UNL     1       5.622   0.857  18.257  1.00  0.00     0.088 C 
ATOM     24  HN  UNL     1       7.090   0.133  16.804  1.00  0.00     0.164 HD
HETATM   25  C   UNL     1       5.235   0.974  19.390  1.00  0.00     0.030 C 
HETATM   26  C   UNL     1       5.789   0.582  20.568  1.00  0.00    -0.016 C 
HETATM   27  C   UNL     1       5.308   0.686  21.864  1.00  0.00     0.026 C 
ENDBRANCH  18  20
ENDBRANCH  15  16
ENDBRANCH   1  15
TORSDOF 6
