MODEL 1
REMARK VINA RESULT:    -7.696      0.000      0.000
REMARK INTER + INTRA:         -11.154
REMARK INTER:                 -10.396
REMARK INTRA:                  -0.758
REMARK UNBOUND:                -0.758
REMARK  6 active torsions:
REMARK  status: ('A' for Active; 'I' for Inactive)
REMARK    1  A    between atoms: S_2  and  N_5 
REMARK    2  A    between atoms: C_7  and  C_8 
REMARK    3  A    between atoms: C_8  and  C_9 
REMARK    4  A    between atoms: C_9  and  C_15 
REMARK    5  A    between atoms: C_15  and  C_16 
REMARK       I    between atoms: C_16  and  N_18 
REMARK    6  A    between atoms: N_18  and  C_20 
ROOT
HETATM    1  C   UNL     1       9.655  -1.233  23.493  1.00  0.00     0.076 C 
HETATM    2  C   UNL     1       9.919  -0.018  24.725  1.00  0.00     0.003 C 
HETATM    3  C   UNL     1      10.830   0.386  24.924  1.00  0.00    -0.002 C 
HETATM    4  C   UNL     1      12.141   0.071  24.326  1.00  0.00    -0.001 C 
HETATM    5  C   UNL     1      12.149  -0.941  23.499  1.00  0.00    -0.002 C 
HETATM    6  C   UNL     1      11.196  -1.519  23.192  1.00  0.00     0.003 C 
ENDROOT
BRANCH   1   7
HETATM    7  C   UNL     1       8.771  -2.211  23.576  1.00  0.00     0.021 C 
BRANCH   7   8
HETATM    8  C   UNL     1       8.201  -3.169  23.177  1.00  0.00     0.098 C 
HETATM    9  N   UNL     1       7.885  -4.056  22.405  1.00  0.00    -0.296 N 
ATOM     10  HN  UNL     1       8.636  -4.483  21.863  1.00  0.00     0.177 HD
BRANCH   9  11
HETATM   11  S   UNL     1       6.385  -4.626  22.155  1.00  0.00     0.226 S 
HETATM   12  C   UNL     1       6.590  -6.022  21.531  1.00  0.00     0.186 C 
HETATM   13  O   UNL     1       5.697  -4.741  23.440  1.00  0.00    -0.206 OA
HETATM   14  O   UNL     1       5.644  -3.746  21.276  1.00  0.00    -0.206 OA
ENDBRANCH   9  11
ENDBRANCH   7   8
ENDBRANCH   1   7
BRANCH   1  15
HETATM   15  C   UNL     1       9.127  -0.736  22.539  1.00  0.00    -0.061 C 
BRANCH  15  16
HETATM   16  C   UNL     1       8.589  -0.210  21.398  1.00  0.00     0.290 C 
HETATM   17  O   UNL     1       9.318   0.390  20.709  1.00  0.00    -0.259 OA
HETATM   18  N   UNL     1       7.306  -0.517  21.299  1.00  0.00    -0.315 N 
ATOM     19  HN  UNL     1       6.825  -1.054  22.019  1.00  0.00     0.170 HD
BRANCH  18  20
HETATM   20  C   UNL     1       6.701  -0.106  20.255  1.00  0.00     0.060 C 
HETATM   21  C   UNL     1       6.401  -0.504  19.059  1.00  0.00     0.117 C 
HETATM   22  N   UNL     1       5.832  -0.493  17.948  1.00  0.00    -0.373 N 
HETATM   23  C   UNL     1       5.288   0.729  18.169  1.00  0.00     0.088 C 
ATOM     24  HN  UNL     1       5.793  -1.152  17.171  1.00  0.00     0.164 HD
HETATM   25  C   UNL     1       5.322   1.449  19.132  1.00  0.00     0.030 C 
HETATM   26  C   UNL     1       5.921   1.294  20.343  1.00  0.00    -0.016 C 
HETATM   27  C   UNL     1       5.913   2.116  21.459  1.00  0.00     0.026 C 
ENDBRANCH  18  20
ENDBRANCH  15  16
ENDBRANCH   1  15
TORSDOF 6
ENDMDL
MODEL 2
REMARK VINA RESULT:    -7.421      2.688      5.776
REMARK INTER + INTRA:         -10.782
REMARK INTER:                  -9.812
REMARK INTRA:                  -0.970
REMARK UNBOUND:                -0.758
REMARK  6 active torsions:
REMARK  status: ('A' for Active; 'I' for Inactive)
REMARK    1  A    between atoms: S_2  and  N_5 
REMARK    2  A    between atoms: C_7  and  C_8 
REMARK    3  A    between atoms: C_8  and  C_9 
REMARK    4  A    between atoms: C_9  and  C_15 
REMARK    5  A    between atoms: C_15  and  C_16 
REMARK       I    between atoms: C_16  and  N_18 
REMARK    6  A    between atoms: N_18  and  C_20 
ROOT
HETATM    1  C   UNL     1      10.232  -0.572  23.566  1.00  0.00     0.076 C 
HETATM    2  C   UNL     1      11.453  -1.546  22.777  1.00  0.00     0.003 C 
HETATM    3  C   UNL     1      12.439  -1.512  23.024  1.00  0.00    -0.002 C 
HETATM    4  C   UNL     1      13.124  -0.661  24.014  1.00  0.00    -0.001 C 
HETATM    5  C   UNL     1      12.377   0.250  24.580  1.00  0.00    -0.002 C 
HETATM    6  C   UNL     1      11.243   0.355  24.383  1.00  0.00     0.003 C 
ENDROOT
BRANCH   1   7
HETATM    7  C   UNL     1       9.163  -0.075  22.970  1.00  0.00     0.021 C 
BRANCH   7   8
HETATM    8  C   UNL     1       8.216  -0.130  22.260  1.00  0.00     0.098 C 
HETATM    9  N   UNL     1       7.372  -0.629  21.538  1.00  0.00    -0.296 N 
ATOM     10  HN  UNL     1       7.005  -1.538  21.820  1.00  0.00     0.177 HD
BRANCH   9  11
HETATM   11  S   UNL     1       6.774   0.011  20.171  1.00  0.00     0.226 S 
HETATM   12  C   UNL     1       6.128   1.343  20.606  1.00  0.00     0.186 C 
HETATM   13  O   UNL     1       7.873   0.260  19.240  1.00  0.00    -0.206 OA
HETATM   14  O   UNL     1       5.809  -0.885  19.568  1.00  0.00    -0.206 OA
ENDBRANCH   9  11
ENDBRANCH   7   8
ENDBRANCH   1   7
BRANCH   1  15
HETATM   15  C   UNL     1       9.590  -1.253  24.315  1.00  0.00    -0.061 C 
BRANCH  15  16
HETATM   16  C   UNL     1       8.898  -2.103  25.130  1.00  0.00     0.290 C 
HETATM   17  O   UNL     1       8.550  -1.669  26.157  1.00  0.00    -0.259 OA
HETATM   18  N   UNL     1       8.743  -3.285  24.554  1.00  0.00    -0.315 N 
ATOM     19  HN  UNL     1       9.133  -3.489  23.634  1.00  0.00     0.170 HD
BRANCH  18  20
HETATM   20  C   UNL     1       8.081  -4.155  25.208  1.00  0.00     0.060 C 
HETATM   21  C   UNL     1       8.239  -5.005  26.173  1.00  0.00     0.117 C 
HETATM   22  N   UNL     1       7.909  -5.821  27.057  1.00  0.00    -0.373 N 
HETATM   23  C   UNL     1       6.615  -5.832  26.652  1.00  0.00     0.088 C 
ATOM     24  HN  UNL     1       8.418  -6.298  27.802  1.00  0.00     0.164 HD
HETATM   25  C   UNL     1       6.048  -5.207  25.795  1.00  0.00     0.030 C 
HETATM   26  C   UNL     1       6.505  -4.266  24.926  1.00  0.00    -0.016 C 
HETATM   27  C   UNL     1       5.827  -3.522  23.973  1.00  0.00     0.026 C 
ENDBRANCH  18  20
ENDBRANCH  15  16
ENDBRANCH   1  15
TORSDOF 6
ENDMDL
MODEL 3
REMARK VINA RESULT:    -7.202      4.089      6.295
REMARK INTER + INTRA:         -10.487
REMARK INTER:                  -9.768
REMARK INTRA:                  -0.719
REMARK UNBOUND:                -0.758
REMARK  6 active torsions:
REMARK  status: ('A' for Active; 'I' for Inactive)
REMARK    1  A    between atoms: S_2  and  N_5 
REMARK    2  A    between atoms: C_7  and  C_8 
REMARK    3  A    between atoms: C_8  and  C_9 
REMARK    4  A    between atoms: C_9  and  C_15 
REMARK    5  A    between atoms: C_15  and  C_16 
REMARK       I    between atoms: C_16  and  N_18 
REMARK    6  A    between atoms: N_18  and  C_20 
ROOT
HETATM    1  C   UNL     1       7.290  -4.583  24.152  1.00  0.00     0.076 C 
HETATM    2  C   UNL     1       7.561  -5.803  22.927  1.00  0.00     0.003 C 
HETATM    3  C   UNL     1       6.936  -5.952  22.139  1.00  0.00    -0.002 C 
HETATM    4  C   UNL     1       5.665  -5.277  21.817  1.00  0.00    -0.001 C 
HETATM    5  C   UNL     1       5.228  -4.446  22.726  1.00  0.00    -0.002 C 
HETATM    6  C   UNL     1       5.814  -4.191  23.690  1.00  0.00     0.003 C 
ENDROOT
BRANCH   1   7
HETATM    7  C   UNL     1       7.607  -4.712  25.428  1.00  0.00     0.021 C 
BRANCH   7   8
HETATM    8  C   UNL     1       7.490  -5.169  26.514  1.00  0.00     0.098 C 
HETATM    9  N   UNL     1       7.544  -6.000  27.402  1.00  0.00    -0.296 N 
ATOM     10  HN  UNL     1       8.366  -6.603  27.418  1.00  0.00     0.177 HD
BRANCH   9  11
HETATM   11  S   UNL     1       6.435  -6.242  28.563  1.00  0.00     0.226 S 
HETATM   12  C   UNL     1       5.105  -6.440  27.806  1.00  0.00     0.186 C 
HETATM   13  O   UNL     1       6.779  -7.452  29.308  1.00  0.00    -0.206 OA
HETATM   14  O   UNL     1       6.380  -5.108  29.462  1.00  0.00    -0.206 OA
ENDBRANCH   9  11
ENDBRANCH   7   8
ENDBRANCH   1   7
BRANCH   1  15
HETATM   15  C   UNL     1       8.040  -3.663  23.981  1.00  0.00    -0.061 C 
BRANCH  15  16
HETATM   16  C   UNL     1       8.864  -2.610  23.700  1.00  0.00     0.290 C 
HETATM   17  O   UNL     1       9.020  -2.361  22.569  1.00  0.00    -0.259 OA
HETATM   18  N   UNL     1       9.319  -2.058  24.814  1.00  0.00    -0.315 N 
ATOM     19  HN  UNL     1       9.077  -2.426  25.733  1.00  0.00     0.170 HD
BRANCH  18  20
HETATM   20  C   UNL     1      10.075  -1.042  24.678  1.00  0.00     0.060 C 
HETATM   21  C   UNL     1      11.287  -0.744  24.328  1.00  0.00     0.117 C 
HETATM   22  N   UNL     1      12.247  -0.020  23.994  1.00  0.00    -0.373 N 
HETATM   23  C   UNL     1      11.556   1.119  24.248  1.00  0.00     0.088 C 
ATOM     24  HN  UNL     1      13.190  -0.212  23.658  1.00  0.00     0.164 HD
HETATM   25  C   UNL     1      10.418   1.294  24.596  1.00  0.00     0.030 C 
HETATM   26  C   UNL     1       9.418   0.412  24.860  1.00  0.00    -0.016 C 
HETATM   27  C   UNL     1       8.097   0.633  25.218  1.00  0.00     0.026 C 
ENDBRANCH  18  20
ENDBRANCH  15  16
ENDBRANCH   1  15
TORSDOF 6
ENDMDL
MODEL 4
REMARK VINA RESULT:    -6.983      2.618      6.223
REMARK INTER + INTRA:         -10.191
REMARK INTER:                  -9.268
REMARK INTRA:                  -0.923
REMARK UNBOUND:                -0.758
REMARK  6 active torsions:
REMARK  status: ('A' for Active; 'I' for Inactive)
REMARK    1  A    between atoms: S_2  and  N_5 
REMARK    2  A    between atoms: C_7  and  C_8 
REMARK    3  A    between atoms: C_8  and  C_9 
REMARK    4  A    between atoms: C_9  and  C_15 
REMARK    5  A    between atoms: C_15  and  C_16 
REMARK       I    between atoms: C_16  and  N_18 
REMARK    6  A    between atoms: N_18  and  C_20 
ROOT
HETATM    1  C   UNL     1       7.057  -0.104  20.514  1.00  0.00     0.076 C 
HETATM    2  C   UNL     1       6.190   1.298  21.103  1.00  0.00     0.003 C 
HETATM    3  C   UNL     1       5.555   1.844  20.528  1.00  0.00    -0.002 C 
HETATM    4  C   UNL     1       5.215   1.683  19.102  1.00  0.00    -0.001 C 
HETATM    5  C   UNL     1       5.906   0.777  18.462  1.00  0.00    -0.002 C 
HETATM    6  C   UNL     1       6.685   0.093  18.974  1.00  0.00     0.003 C 
ENDROOT
BRANCH   1   7
HETATM    7  C   UNL     1       8.271  -0.455  20.895  1.00  0.00     0.021 C 
BRANCH   7   8
HETATM    8  C   UNL     1       9.264  -0.340  21.531  1.00  0.00     0.098 C 
HETATM    9  N   UNL     1      10.458  -0.269  21.759  1.00  0.00    -0.296 N 
ATOM     10  HN  UNL     1      11.023   0.253  21.090  1.00  0.00     0.177 HD
BRANCH   9  11
HETATM   11  S   UNL     1      11.237  -0.924  23.024  1.00  0.00     0.226 S 
HETATM   12  C   UNL     1      11.874   0.272  23.761  1.00  0.00     0.186 C 
HETATM   13  O   UNL     1      10.266  -1.594  23.888  1.00  0.00    -0.206 OA
HETATM   14  O   UNL     1      12.234  -1.873  22.573  1.00  0.00    -0.206 OA
ENDBRANCH   9  11
ENDBRANCH   7   8
ENDBRANCH   1   7
BRANCH   1  15
HETATM   15  C   UNL     1       6.551  -1.103  20.942  1.00  0.00    -0.061 C 
BRANCH  15  16
HETATM   16  C   UNL     1       5.979  -2.277  21.344  1.00  0.00     0.290 C 
HETATM   17  O   UNL     1       5.605  -2.989  20.497  1.00  0.00    -0.259 OA
HETATM   18  N   UNL     1       5.985  -2.374  22.664  1.00  0.00    -0.315 N 
ATOM     19  HN  UNL     1       6.355  -1.630  23.256  1.00  0.00     0.170 HD
BRANCH  18  20
HETATM   20  C   UNL     1       5.505  -3.446  23.158  1.00  0.00     0.060 C 
HETATM   21  C   UNL     1       4.364  -4.030  23.346  1.00  0.00     0.117 C 
HETATM   22  N   UNL     1       3.572  -4.953  23.624  1.00  0.00    -0.373 N 
HETATM   23  C   UNL     1       4.571  -5.767  24.045  1.00  0.00     0.088 C 
ATOM     24  HN  UNL     1       2.559  -5.056  23.558  1.00  0.00     0.164 HD
HETATM   25  C   UNL     1       5.765  -5.617  24.054  1.00  0.00     0.030 C 
HETATM   26  C   UNL     1       6.537  -4.576  23.644  1.00  0.00    -0.016 C 
HETATM   27  C   UNL     1       7.916  -4.437  23.620  1.00  0.00     0.026 C 
ENDBRANCH  18  20
ENDBRANCH  15  16
ENDBRANCH   1  15
TORSDOF 6
ENDMDL
MODEL 5
REMARK VINA RESULT:    -6.812      2.984      5.973
REMARK INTER + INTRA:          -9.959
REMARK INTER:                  -9.063
REMARK INTRA:                  -0.896
REMARK UNBOUND:                -0.758
REMARK  6 active torsions:
REMARK  status: ('A' for Active; 'I' for Inactive)
REMARK    1  A    between atoms: S_2  and  N_5 
REMARK    2  A    between atoms: C_7  and  C_8 
REMARK    3  A    between atoms: C_8  and  C_9 
REMARK    4  A    between atoms: C_9  and  C_15 
REMARK    5  A    between atoms: C_15  and  C_16 
REMARK       I    between atoms: C_16  and  N_18 
REMARK    6  A    between atoms: N_18  and  C_20 
ROOT
HETATM    1  C   UNL     1       8.914   0.645  22.138  1.00  0.00     0.076 C 
HETATM    2  C   UNL     1      10.408   1.518  21.875  1.00  0.00     0.003 C 
HETATM    3  C   UNL     1      10.698   2.311  22.441  1.00  0.00    -0.002 C 
HETATM    4  C   UNL     1       9.989   2.972  23.553  1.00  0.00    -0.001 C 
HETATM    5  C   UNL     1       8.773   2.546  23.773  1.00  0.00    -0.002 C 
HETATM    6  C   UNL     1       8.293   1.668  23.193  1.00  0.00     0.003 C 
ENDROOT
BRANCH   1   7
HETATM    7  C   UNL     1       8.180   0.102  21.183  1.00  0.00     0.021 C 
BRANCH   7   8
HETATM    8  C   UNL     1       7.653   0.085  20.123  1.00  0.00     0.098 C 
HETATM    9  N   UNL     1       7.446   0.378  18.959  1.00  0.00    -0.296 N 
ATOM     10  HN  UNL     1       8.265   0.506  18.365  1.00  0.00     0.177 HD
BRANCH   9  11
HETATM   11  S   UNL     1       5.994   0.583  18.261  1.00  0.00     0.226 S 
HETATM   12  C   UNL     1       5.041   0.929  19.424  1.00  0.00     0.186 C 
HETATM   13  O   UNL     1       6.071   1.699  17.320  1.00  0.00    -0.206 OA
HETATM   14  O   UNL     1       5.586  -0.621  17.568  1.00  0.00    -0.206 OA
ENDBRANCH   9  11
ENDBRANCH   7   8
ENDBRANCH   1   7
BRANCH   1  15
HETATM   15  C   UNL     1       9.146  -0.408  22.662  1.00  0.00    -0.061 C 
BRANCH  15  16
HETATM   16  C   UNL     1       9.347  -1.586  23.324  1.00  0.00     0.290 C 
HETATM   17  O   UNL     1      10.417  -2.049  23.246  1.00  0.00    -0.259 OA
HETATM   18  N   UNL     1       8.248  -1.964  23.956  1.00  0.00    -0.315 N 
ATOM     19  HN  UNL     1       7.384  -1.425  23.901  1.00  0.00     0.170 HD
BRANCH  18  20
HETATM   20  C   UNL     1       8.324  -3.038  24.638  1.00  0.00     0.060 C 
HETATM   21  C   UNL     1       8.638  -3.440  25.829  1.00  0.00     0.117 C 
HETATM   22  N   UNL     1       8.731  -4.223  26.795  1.00  0.00    -0.373 N 
HETATM   23  C   UNL     1       8.302  -5.279  26.060  1.00  0.00     0.088 C 
ATOM     24  HN  UNL     1       9.019  -4.112  27.767  1.00  0.00     0.164 HD
HETATM   25  C   UNL     1       7.921  -5.349  24.921  1.00  0.00     0.030 C 
HETATM   26  C   UNL     1       7.785  -4.393  23.965  1.00  0.00    -0.016 C 
HETATM   27  C   UNL     1       7.302  -4.483  22.668  1.00  0.00     0.026 C 
ENDBRANCH  18  20
ENDBRANCH  15  16
ENDBRANCH   1  15
TORSDOF 6
ENDMDL
MODEL 6
REMARK VINA RESULT:    -6.741      1.701      2.190
REMARK INTER + INTRA:          -9.864
REMARK INTER:                  -9.145
REMARK INTRA:                  -0.719
REMARK UNBOUND:                -0.758
REMARK  6 active torsions:
REMARK  status: ('A' for Active; 'I' for Inactive)
REMARK    1  A    between atoms: S_2  and  N_5 
REMARK    2  A    between atoms: C_7  and  C_8 
REMARK    3  A    between atoms: C_8  and  C_9 
REMARK    4  A    between atoms: C_9  and  C_15 
REMARK    5  A    between atoms: C_15  and  C_16 
REMARK       I    between atoms: C_16  and  N_18 
REMARK    6  A    between atoms: N_18  and  C_20 
ROOT
HETATM    1  C   UNL     1       9.573  -1.688  23.711  1.00  0.00     0.076 C 
HETATM    2  C   UNL     1       9.470  -0.442  24.935  1.00  0.00     0.003 C 
HETATM    3  C   UNL     1      10.189   0.263  25.077  1.00  0.00    -0.002 C 
HETATM    4  C   UNL     1      11.481   0.428  24.386  1.00  0.00    -0.001 C 
HETATM    5  C   UNL     1      11.793  -0.526  23.548  1.00  0.00    -0.002 C 
HETATM    6  C   UNL     1      11.090  -1.409  23.301  1.00  0.00     0.003 C 
ENDROOT
BRANCH   1   7
HETATM    7  C   UNL     1       9.103  -2.915  23.843  1.00  0.00     0.021 C 
BRANCH   7   8
HETATM    8  C   UNL     1       8.405  -3.743  24.321  1.00  0.00     0.098 C 
HETATM    9  N   UNL     1       7.424  -4.450  24.463  1.00  0.00    -0.296 N 
ATOM     10  HN  UNL     1       6.995  -4.817  23.613  1.00  0.00     0.177 HD
BRANCH   9  11
HETATM   11  S   UNL     1       6.731  -4.865  25.871  1.00  0.00     0.226 S 
HETATM   12  C   UNL     1       6.759  -3.578  26.722  1.00  0.00     0.186 C 
HETATM   13  O   UNL     1       5.351  -5.279  25.622  1.00  0.00    -0.206 OA
HETATM   14  O   UNL     1       7.463  -5.944  26.502  1.00  0.00    -0.206 OA
ENDBRANCH   9  11
ENDBRANCH   7   8
ENDBRANCH   1   7
BRANCH   1  15
HETATM   15  C   UNL     1       8.838  -1.424  22.801  1.00  0.00    -0.061 C 
BRANCH  15  16
HETATM   16  C   UNL     1       7.931  -1.147  21.817  1.00  0.00     0.290 C 
HETATM   17  O   UNL     1       7.018  -1.871  21.735  1.00  0.00    -0.259 OA
HETATM   18  N   UNL     1       8.280  -0.060  21.147  1.00  0.00    -0.315 N 
ATOM     19  HN  UNL     1       9.138   0.449  21.360  1.00  0.00     0.170 HD
BRANCH  18  20
HETATM   20  C   UNL     1       7.490   0.317  20.222  1.00  0.00     0.060 C 
HETATM   21  C   UNL     1       7.230   0.073  18.976  1.00  0.00     0.117 C 
HETATM   22  N   UNL     1       6.594   0.104  17.903  1.00  0.00    -0.373 N 
HETATM   23  C   UNL     1       5.711   1.015  18.380  1.00  0.00     0.088 C 
ATOM     24  HN  UNL     1       6.699  -0.373  17.008  1.00  0.00     0.164 HD
HETATM   25  C   UNL     1       5.596   1.513  19.470  1.00  0.00     0.030 C 
HETATM   26  C   UNL     1       6.315   1.340  20.610  1.00  0.00    -0.016 C 
HETATM   27  C   UNL     1       6.143   1.890  21.871  1.00  0.00     0.026 C 
ENDBRANCH  18  20
ENDBRANCH  15  16
ENDBRANCH   1  15
TORSDOF 6
ENDMDL
MODEL 7
REMARK VINA RESULT:    -6.682      3.008      6.425
REMARK INTER + INTRA:          -9.784
REMARK INTER:                  -8.982
REMARK INTRA:                  -0.802
REMARK UNBOUND:                -0.758
REMARK  6 active torsions:
REMARK  status: ('A' for Active; 'I' for Inactive)
REMARK    1  A    between atoms: S_2  and  N_5 
REMARK    2  A    between atoms: C_7  and  C_8 
REMARK    3  A    between atoms: C_8  and  C_9 
REMARK    4  A    between atoms: C_9  and  C_15 
REMARK    5  A    between atoms: C_15  and  C_16 
REMARK       I    between atoms: C_16  and  N_18 
REMARK    6  A    between atoms: N_18  and  C_20 
ROOT
HETATM    1  C   UNL     1       7.441   0.535  20.630  1.00  0.00     0.076 C 
HETATM    2  C   UNL     1       5.962   1.433  20.890  1.00  0.00     0.003 C 
HETATM    3  C   UNL     1       5.248   1.551  20.176  1.00  0.00    -0.002 C 
HETATM    4  C   UNL     1       5.242   1.085  18.777  1.00  0.00    -0.001 C 
HETATM    5  C   UNL     1       6.354   0.534  18.366  1.00  0.00    -0.002 C 
HETATM    6  C   UNL     1       7.266   0.355  19.054  1.00  0.00     0.003 C 
ENDROOT
BRANCH   1   7
HETATM    7  C   UNL     1       8.609   0.834  21.169  1.00  0.00     0.021 C 
BRANCH   7   8
HETATM    8  C   UNL     1       9.352   1.511  21.797  1.00  0.00     0.098 C 
HETATM    9  N   UNL     1      10.405   2.019  22.136  1.00  0.00    -0.296 N 
ATOM     10  HN  UNL     1      11.038   2.307  21.391  1.00  0.00     0.177 HD
BRANCH   9  11
HETATM   11  S   UNL     1      10.900   2.281  23.660  1.00  0.00     0.226 S 
HETATM   12  C   UNL     1      11.789   1.067  24.004  1.00  0.00     0.186 C 
HETATM   13  O   UNL     1      11.686   3.513  23.702  1.00  0.00    -0.206 OA
HETATM   14  O   UNL     1       9.766   2.389  24.554  1.00  0.00    -0.206 OA
ENDBRANCH   9  11
ENDBRANCH   7   8
ENDBRANCH   1   7
BRANCH   1  15
HETATM   15  C   UNL     1       7.374  -0.527  21.183  1.00  0.00    -0.061 C 
BRANCH  15  16
HETATM   16  C   UNL     1       7.222  -1.755  21.761  1.00  0.00     0.290 C 
HETATM   17  O   UNL     1       8.193  -2.258  22.174  1.00  0.00    -0.259 OA
HETATM   18  N   UNL     1       5.952  -2.127  21.750  1.00  0.00    -0.315 N 
ATOM     19  HN  UNL     1       5.227  -1.547  21.328  1.00  0.00     0.170 HD
BRANCH  18  20
HETATM   20  C   UNL     1       5.681  -3.247  22.294  1.00  0.00     0.060 C 
HETATM   21  C   UNL     1       5.644  -4.509  22.004  1.00  0.00     0.117 C 
HETATM   22  N   UNL     1       5.569  -5.738  22.208  1.00  0.00    -0.373 N 
HETATM   23  C   UNL     1       5.272  -5.565  23.520  1.00  0.00     0.088 C 
ATOM     24  HN  UNL     1       5.687  -6.559  21.615  1.00  0.00     0.164 HD
HETATM   25  C   UNL     1       5.195  -4.569  24.191  1.00  0.00     0.030 C 
HETATM   26  C   UNL     1       5.379  -3.261  23.870  1.00  0.00    -0.016 C 
HETATM   27  C   UNL     1       5.330  -2.127  24.667  1.00  0.00     0.026 C 
ENDBRANCH  18  20
ENDBRANCH  15  16
ENDBRANCH   1  15
TORSDOF 6
ENDMDL
MODEL 8
REMARK VINA RESULT:    -6.561     14.538     16.071
REMARK INTER + INTRA:          -9.621
REMARK INTER:                  -8.728
REMARK INTRA:                  -0.892
REMARK UNBOUND:                -0.758
REMARK  6 active torsions:
REMARK  status: ('A' for Active; 'I' for Inactive)
REMARK    1  A    between atoms: S_2  and  N_5 
REMARK    2  A    between atoms: C_7  and  C_8 
REMARK    3  A    between atoms: C_8  and  C_9 
REMARK    4  A    between atoms: C_9  and  C_15 
REMARK    5  A    between atoms: C_15  and  C_16 
REMARK       I    between atoms: C_16  and  N_18 
REMARK    6  A    between atoms: N_18  and  C_20 
ROOT
HETATM    1  C   UNL     1      23.079  -1.851  23.759  1.00  0.00     0.076 C 
HETATM    2  C   UNL     1      21.357  -1.618  23.963  1.00  0.00     0.003 C 
HETATM    3  C   UNL     1      20.954  -0.804  24.420  1.00  0.00    -0.002 C 
HETATM    4  C   UNL     1      21.633   0.338  25.061  1.00  0.00    -0.001 C 
HETATM    5  C   UNL     1      22.934   0.238  25.145  1.00  0.00    -0.002 C 
HETATM    6  C   UNL     1      23.535  -0.641  24.695  1.00  0.00     0.003 C 
ENDROOT
BRANCH   1   7
HETATM    7  C   UNL     1      23.691  -3.021  23.791  1.00  0.00     0.021 C 
BRANCH   7   8
HETATM    8  C   UNL     1      23.931  -4.086  24.252  1.00  0.00     0.098 C 
HETATM    9  N   UNL     1      23.720  -5.203  24.686  1.00  0.00    -0.296 N 
ATOM     10  HN  UNL     1      23.011  -5.757  24.206  1.00  0.00     0.177 HD
BRANCH   9  11
HETATM   11  S   UNL     1      24.457  -5.898  25.956  1.00  0.00     0.226 S 
HETATM   12  C   UNL     1      25.963  -5.828  25.628  1.00  0.00     0.186 C 
HETATM   13  O   UNL     1      24.164  -5.124  27.161  1.00  0.00    -0.206 OA
HETATM   14  O   UNL     1      24.004  -7.264  26.124  1.00  0.00    -0.206 OA
ENDBRANCH   9  11
ENDBRANCH   7   8
ENDBRANCH   1   7
BRANCH   1  15
HETATM   15  C   UNL     1      23.386  -1.638  22.620  1.00  0.00    -0.061 C 
BRANCH  15  16
HETATM   16  C   UNL     1      23.738  -1.305  21.343  1.00  0.00     0.290 C 
HETATM   17  O   UNL     1      24.711  -0.670  21.221  1.00  0.00    -0.259 OA
HETATM   18  N   UNL     1      22.878  -1.807  20.471  1.00  0.00    -0.315 N 
ATOM     19  HN  UNL     1      22.062  -2.341  20.769  1.00  0.00     0.170 HD
BRANCH  18  20
HETATM   20  C   UNL     1      23.122  -1.589  19.240  1.00  0.00     0.060 C 
HETATM   21  C   UNL     1      22.921  -0.687  18.332  1.00  0.00     0.117 C 
HETATM   22  N   UNL     1      23.054  -0.102  17.238  1.00  0.00    -0.373 N 
HETATM   23  C   UNL     1      23.802  -1.108  16.720  1.00  0.00     0.088 C 
ATOM     24  HN  UNL     1      22.725   0.792  16.872  1.00  0.00     0.164 HD
HETATM   25  C   UNL     1      24.210  -2.126  17.213  1.00  0.00     0.030 C 
HETATM   26  C   UNL     1      24.065  -2.633  18.466  1.00  0.00    -0.016 C 
HETATM   27  C   UNL     1      24.579  -3.789  19.031  1.00  0.00     0.026 C 
ENDBRANCH  18  20
ENDBRANCH  15  16
ENDBRANCH   1  15
TORSDOF 6
ENDMDL
MODEL 9
REMARK VINA RESULT:    -6.322      3.288      4.570
REMARK INTER + INTRA:          -9.297
REMARK INTER:                  -8.537
REMARK INTRA:                  -0.761
REMARK UNBOUND:                -0.758
REMARK  6 active torsions:
REMARK  status: ('A' for Active; 'I' for Inactive)
REMARK    1  A    between atoms: S_2  and  N_5 
REMARK    2  A    between atoms: C_7  and  C_8 
REMARK    3  A    between atoms: C_8  and  C_9 
REMARK    4  A    between atoms: C_9  and  C_15 
REMARK    5  A    between atoms: C_15  and  C_16 
REMARK       I    between atoms: C_16  and  N_18 
REMARK    6  A    between atoms: N_18  and  C_20 
ROOT
HETATM    1  C   UNL     1       5.342  -4.022  24.025  1.00  0.00     0.076 C 
HETATM    2  C   UNL     1       5.606  -2.715  25.158  1.00  0.00     0.003 C 
HETATM    3  C   UNL     1       6.449  -2.624  25.719  1.00  0.00    -0.002 C 
HETATM    4  C   UNL     1       7.619  -3.519  25.796  1.00  0.00    -0.001 C 
HETATM    5  C   UNL     1       7.511  -4.639  25.131  1.00  0.00    -0.002 C 
HETATM    6  C   UNL     1       6.600  -4.899  24.468  1.00  0.00     0.003 C 
ENDROOT
BRANCH   1   7
HETATM    7  C   UNL     1       4.169  -4.571  23.767  1.00  0.00     0.021 C 
BRANCH   7   8
HETATM    8  C   UNL     1       3.444  -5.481  23.546  1.00  0.00     0.098 C 
HETATM    9  N   UNL     1       2.879  -6.345  22.900  1.00  0.00    -0.296 N 
ATOM     10  HN  UNL     1       3.438  -6.838  22.204  1.00  0.00     0.177 HD
BRANCH   9  11
HETATM   11  S   UNL     1       1.323  -6.788  23.038  1.00  0.00     0.226 S 
HETATM   12  C   UNL     1       1.334  -8.325  22.897  1.00  0.00     0.186 C 
HETATM   13  O   UNL     1       0.832  -6.404  24.360  1.00  0.00    -0.206 OA
HETATM   14  O   UNL     1       0.520  -6.158  22.010  1.00  0.00    -0.206 OA
ENDBRANCH   9  11
ENDBRANCH   7   8
ENDBRANCH   1   7
BRANCH   1  15
HETATM   15  C   UNL     1       5.486  -3.622  22.903  1.00  0.00    -0.061 C 
BRANCH  15  16
HETATM   16  C   UNL     1       5.715  -3.110  21.658  1.00  0.00     0.290 C 
HETATM   17  O   UNL     1       5.641  -3.861  20.766  1.00  0.00    -0.259 OA
HETATM   18  N   UNL     1       5.964  -1.812  21.722  1.00  0.00    -0.315 N 
ATOM     19  HN  UNL     1       5.997  -1.314  22.611  1.00  0.00     0.170 HD
BRANCH  18  20
HETATM   20  C   UNL     1       6.162  -1.215  20.613  1.00  0.00     0.060 C 
HETATM   21  C   UNL     1       5.577  -1.011  19.476  1.00  0.00     0.117 C 
HETATM   22  N   UNL     1       5.377  -0.495  18.357  1.00  0.00    -0.373 N 
HETATM   23  C   UNL     1       6.550   0.184  18.391  1.00  0.00     0.088 C 
ATOM     24  HN  UNL     1       4.619  -0.560  17.677  1.00  0.00     0.164 HD
HETATM   25  C   UNL     1       7.392   0.269  19.246  1.00  0.00     0.030 C 
HETATM   26  C   UNL     1       7.467  -0.288  20.484  1.00  0.00    -0.016 C 
HETATM   27  C   UNL     1       8.425  -0.145  21.475  1.00  0.00     0.026 C 
ENDBRANCH  18  20
ENDBRANCH  15  16
ENDBRANCH   1  15
TORSDOF 6
ENDMDL
