stable:False satoms:16 tatoms:24 sratio:0.6666666666666666
  -OEChem-08062400143D

 31 32  0     1  0  0  0  0  0999 V2000
  -12.2337   -0.3449  -21.7958 H   0  0  0  0  0  0  0  0  0  0  0  0
  -12.3643   -1.2251  -24.4122 H   0  0  0  0  0  0  0  0  0  0  0  0
  -12.6020   -1.5211  -23.3798 C   0  0  0  0  0  0  0  0  0  0  0  0
  -13.6149   -1.1770  -23.1238 H   0  0  0  0  0  0  0  0  0  0  0  0
  -10.1318   -0.4487  -21.6293 N   0  3  0  0  0  0  0  0  0  0  0  0
  -10.3815   -1.1483  -22.4116 C   0  0  3  0  0  0  0  0  0  0  0  0
  -11.5627   -0.8708  -22.3960 C   0  0  2  0  0  0  0  0  0  0  0  0
   -9.4857   -2.1187  -23.1303 C   0  0  0  0  0  0  0  0  0  0  0  0
   -8.8659   -4.6764  -23.2282 H   0  0  0  0  0  0  0  0  0  0  0  0
   -8.1908   -4.0608  -23.7731 C   0  0  0  0  0  0  0  0  0  0  0  0
   -7.2199   -4.4265  -23.5965 H   0  0  0  0  0  0  0  0  0  0  0  0
   -8.3209   -4.1062  -24.8349 H   0  0  0  0  0  0  0  0  0  0  0  0
   -8.5612   -2.6391  -23.2942 C   0  0  0  0  0  0  0  0  0  0  0  0
   -6.5508   -1.3653  -22.4336 N   0  3  0  0  0  0  0  0  0  0  0  0
   -6.1737   -0.6426  -23.0128 H   0  0  0  0  0  0  0  0  0  0  0  0
   -7.3168   -1.0746  -21.4796 C   0  0  0  0  0  0  0  0  0  0  0  0
   -7.6841   -1.6193  -22.4809 C   0  0  0  0  0  0  0  0  0  0  0  0
   -6.8962    1.3665  -21.6367 H   0  0  0  0  0  0  0  0  0  0  0  0
   -4.7870    1.4612  -21.8686 H   0  0  0  0  0  0  0  0  0  0  0  0
   -4.9956    1.0049  -21.0036 N   0  3  0  0  0  0  0  0  0  0  0  0
   -4.4596    1.4195  -20.2682 H   0  0  0  0  0  0  0  0  0  0  0  0
   -6.5235    1.9599  -19.9992 H   0  0  0  0  0  0  0  0  0  0  0  0
   -6.4184    1.1558  -20.7003 C   0  0  0  0  0  0  0  0  0  0  0  0
   -7.4570   -0.1718  -19.8960 S   0  0  0  0  0  0  0  0  0  0  0  0
  -12.5540   -2.6166  -23.2921 H   0  0  0  0  0  0  0  0  0  0  0  0
   -9.9204   -0.7462  -20.6983 H   0  0  0  0  0  0  0  0  0  0  0  0
  -10.1946   -0.3846  -23.1809 H   0  0  0  0  0  0  0  0  0  0  0  0
  -10.1234   -2.5047  -23.9118 H   0  0  0  0  0  0  0  0  0  0  0  0
   -9.6626    0.4139  -21.8182 H   0  0  0  0  0  0  0  0  0  0  0  0
   -5.8762   -2.0963  -22.3311 H   0  0  0  0  0  0  0  0  0  0  0  0
   -4.7696    0.0334  -21.0763 H   0  0  0  0  0  0  0  0  0  0  0  0
 20 21  1  0  0  0  0
 19 20  1  0  0  0  0
 20 23  1  0  0  0  0
 22 23  1  0  0  0  0
 14 15  1  0  0  0  0
 18 23  1  0  0  0  0
 23 24  1  0  0  0  0
 14 16  1  0  0  0  0
 14 17  1  0  0  0  0
 16 24  1  0  0  0  0
 16 17  2  0  0  0  0
 13 17  1  0  0  0  0
 10 11  1  0  0  0  0
 10 13  1  0  0  0  0
  8 13  2  0  0  0  0
 10 12  1  0  0  0  0
  9 10  1  0  0  0  0
  6  8  1  0  0  0  0
  5  6  1  0  0  0  0
  5  7  1  0  0  0  0
  6  7  1  0  0  0  0
  1  7  1  0  0  0  0
  3  7  1  0  0  0  0
  3  4  1  0  0  0  0
  2  3  1  0  0  0  0
  3 25  1  0  0  0  0
  5 26  1  0  0  0  0
  6 27  1  0  0  0  0
  8 28  1  0  0  0  0
  5 29  1  0  0  0  0
 14 30  1  0  0  0  0
 20 31  1  0  0  0  0
M  CHG  3   5   1  14   1  20   1
M  END
> <Chemgauss4>
-6.687017

$$$$
