stable:False satoms:16 tatoms:24 sratio:0.6666666666666666
  -OEChem-08062400143D

 31 32  0     1  0  0  0  0  0999 V2000
   12.3202   -0.3970   21.8216 H   0  0  0  0  0  0  0  0  0  0  0  0
   12.4508   -1.2772   24.4380 H   0  0  0  0  0  0  0  0  0  0  0  0
   12.6885   -1.5732   23.4056 C   0  0  0  0  0  0  0  0  0  0  0  0
   13.7015   -1.2291   23.1496 H   0  0  0  0  0  0  0  0  0  0  0  0
   10.2183   -0.5008   21.6551 N   0  3  0  0  0  0  0  0  0  0  0  0
   10.4680   -1.2005   22.4374 C   0  0  3  0  0  0  0  0  0  0  0  0
   11.6492   -0.9230   22.4218 C   0  0  2  0  0  0  0  0  0  0  0  0
    9.5722   -2.1708   23.1561 C   0  0  0  0  0  0  0  0  0  0  0  0
    8.9524   -4.7285   23.2541 H   0  0  0  0  0  0  0  0  0  0  0  0
    8.2774   -4.1129   23.7989 C   0  0  0  0  0  0  0  0  0  0  0  0
    7.3064   -4.4786   23.6223 H   0  0  0  0  0  0  0  0  0  0  0  0
    8.4074   -4.1583   24.8607 H   0  0  0  0  0  0  0  0  0  0  0  0
    8.6477   -2.6912   23.3200 C   0  0  0  0  0  0  0  0  0  0  0  0
    6.6373   -1.4174   22.4594 N   0  3  0  0  0  0  0  0  0  0  0  0
    6.2602   -0.6947   23.0386 H   0  0  0  0  0  0  0  0  0  0  0  0
    7.4033   -1.1268   21.5054 C   0  0  0  0  0  0  0  0  0  0  0  0
    7.7706   -1.6715   22.5067 C   0  0  0  0  0  0  0  0  0  0  0  0
    6.9827    1.3143   21.6625 H   0  0  0  0  0  0  0  0  0  0  0  0
    4.8735    1.4091   21.8944 H   0  0  0  0  0  0  0  0  0  0  0  0
    5.0821    0.9527   21.0294 N   0  3  0  0  0  0  0  0  0  0  0  0
    4.5461    1.3673   20.2940 H   0  0  0  0  0  0  0  0  0  0  0  0
    6.6100    1.9078   20.0250 H   0  0  0  0  0  0  0  0  0  0  0  0
    6.5049    1.1037   20.7261 C   0  0  0  0  0  0  0  0  0  0  0  0
    7.5436   -0.2239   19.9218 S   0  0  0  0  0  0  0  0  0  0  0  0
   12.6405   -2.6687   23.3179 H   0  0  0  0  0  0  0  0  0  0  0  0
   10.0069   -0.7984   20.7241 H   0  0  0  0  0  0  0  0  0  0  0  0
   10.2811   -0.4368   23.2067 H   0  0  0  0  0  0  0  0  0  0  0  0
   10.2099   -2.5568   23.9376 H   0  0  0  0  0  0  0  0  0  0  0  0
    9.7491    0.3618   21.8441 H   0  0  0  0  0  0  0  0  0  0  0  0
    5.9627   -2.1485   22.3569 H   0  0  0  0  0  0  0  0  0  0  0  0
    4.8561   -0.0187   21.1021 H   0  0  0  0  0  0  0  0  0  0  0  0
 20 21  1  0  0  0  0
 19 20  1  0  0  0  0
 20 23  1  0  0  0  0
 22 23  1  0  0  0  0
 14 15  1  0  0  0  0
 18 23  1  0  0  0  0
 23 24  1  0  0  0  0
 14 16  1  0  0  0  0
 14 17  1  0  0  0  0
 16 24  1  0  0  0  0
 16 17  2  0  0  0  0
 13 17  1  0  0  0  0
 10 11  1  0  0  0  0
 10 13  1  0  0  0  0
  8 13  2  0  0  0  0
 10 12  1  0  0  0  0
  9 10  1  0  0  0  0
  6  8  1  0  0  0  0
  5  6  1  0  0  0  0
  5  7  1  0  0  0  0
  6  7  1  0  0  0  0
  1  7  1  0  0  0  0
  3  7  1  0  0  0  0
  3  4  1  0  0  0  0
  2  3  1  0  0  0  0
  3 25  1  0  0  0  0
  5 26  1  0  0  0  0
  6 27  1  0  0  0  0
  8 28  1  0  0  0  0
  5 29  1  0  0  0  0
 14 30  1  0  0  0  0
 20 31  1  0  0  0  0
M  CHG  3   5   1  14   1  20   1
M  END
> <Chemgauss4>
-6.670354

$$$$
