REMARK  6 active torsions:
REMARK  status: ('A' for Active; 'I' for Inactive)
REMARK    1  A    between atoms: C_2  and  O_13 
REMARK    2  A    between atoms: C_4  and  C_9 
REMARK    3  A    between atoms: C_6  and  O_13 
REMARK    4  A    between atoms: C_6  and  N_12 
REMARK    5  A    between atoms: C_9  and  N_12 
REMARK    6  A    between atoms: C_11  and  O_14 
ROOT
HETATM    1  C   UNL     1       9.216  -0.853  21.804  1.00  0.00     0.131 A 
HETATM    2  C   UNL     1       9.568   0.476  22.088  1.00  0.00     0.065 A 
HETATM    3  C   UNL     1       9.844  -0.084  20.743  1.00  0.00     0.065 A 
ENDROOT
BRANCH   1   4
HETATM    4  O   UNL     1       7.902  -1.193  21.348  1.00  0.00    -0.351 OA
BRANCH   4   5
HETATM    5  C   UNL     1       7.132  -1.291  22.574  1.00  0.00     0.187 A 
HETATM    6  C   UNL     1       6.893  -0.028  23.041  1.00  0.00     0.181 A 
HETATM    7  O   UNL     1       7.710  -1.067  23.835  1.00  0.00     0.000 OA
HETATM    8  H   UNL     1       8.659  -0.878  23.949  1.00  0.00     0.000 HD
BRANCH   6   9
HETATM    9  O   UNL     1       6.651   0.910  21.981  1.00  0.00    -0.390 OA
HETATM   10  H   UNL     1       6.419   0.819  21.098  1.00  0.00     0.210 HD
ENDBRANCH   6   9
ENDBRANCH   4   5
ENDBRANCH   1   4
BRANCH   1  11
HETATM   11  N   UNL     1       9.827  -2.061  22.218  1.00  0.00    -0.382 N 
HETATM   12  H   UNL     1       9.676  -2.636  21.393  1.00  0.00     0.156 HD
BRANCH  11  13
HETATM   13  C   UNL     1      10.229  -2.718  23.385  1.00  0.00     0.230 C 
BRANCH  13  14
HETATM   14  C   UNL     1       9.125  -3.643  24.207  1.00  0.00     0.191 C 
HETATM   15  O   UNL     1       8.027  -3.836  23.695  1.00  0.00    -0.647 OA
HETATM   16  O   UNL     1       9.535  -3.995  25.316  1.00  0.00    -0.647 OA
ENDBRANCH  13  14
ENDBRANCH  11  13
ENDBRANCH   1  11
TORSDOF 6
