stable:False satoms:23 tatoms:24 sratio:0.9583333333333334
  -OEChem-07092417273D

 24 25  0     1  0  0  0  0  0999 V2000
    8.8639   -2.1415   24.9021 H   0  0  0  0  0  0  0  0  0  0  0  0
   10.0631   -2.0194   21.5067 C   0  0  2  0  0  0  0  0  0  0  0  0
    8.7043   -2.3532   22.2221 C   0  0  2  0  0  0  0  0  0  0  0  0
   10.6081   -1.6091   22.3634 H   0  0  0  0  0  0  0  0  0  0  0  0
   10.9009   -3.0299   19.7863 H   0  0  0  0  0  0  0  0  0  0  0  0
    6.7241    0.6458   23.2985 C   0  0  0  0  0  0  0  0  0  0  0  0
    6.2164    1.2763   25.2768 H   0  0  0  0  0  0  0  0  0  0  0  0
    6.1481    1.4255   22.8125 H   0  0  0  0  0  0  0  0  0  0  0  0
    8.2260   -1.3859   24.4585 C   0  0  0  0  0  0  0  0  0  0  0  0
    8.8118   -1.1795   20.0503 H   0  0  0  0  0  0  0  0  0  0  0  0
   12.1543   -2.5358   20.9085 H   0  0  0  0  0  0  0  0  0  0  0  0
    6.7696    0.5728   24.6611 C   0  5  3  0  0  0  0  0  0  0  0  0
    8.8183   -2.0278   20.7818 C   0  0  0  0  0  0  0  0  0  0  0  0
   11.6015   -0.3757   20.5742 H   0  0  0  0  0  0  0  0  0  0  0  0
    8.6706   -3.3379   22.6479 H   0  0  0  0  0  0  0  0  0  0  0  0
   11.2010   -2.2228   20.4688 C   0  0  0  0  0  0  0  0  0  0  0  0
   11.3354   -0.9904   19.8379 O   0  0  0  0  0  0  0  0  0  0  0  0
    7.3660   -0.1634   21.4179 H   0  0  0  0  0  0  0  0  0  0  0  0
    6.8591   -1.0142   26.0638 H   0  0  0  0  0  0  0  0  0  0  0  0
    7.5366   -0.4611   25.3933 C   0  0  0  0  0  0  0  0  0  0  0  0
    8.2061   -2.7691   20.2306 H   0  0  0  0  0  0  0  0  0  0  0  0
    7.4111   -0.2795   22.4891 C   0  0  0  0  0  0  0  0  0  0  0  0
    8.2830   -0.0025   26.0586 H   0  0  0  0  0  0  0  0  0  0  0  0
    8.1048   -1.3120   23.0862 C   0  0  0  0  0  0  0  0  0  0  0  0
  5 16  1  0  0  0  0
 16 17  1  0  0  0  0
 14 17  1  0  0  0  0
 10 13  1  0  0  0  0
 13 21  1  0  0  0  0
 11 16  1  0  0  0  0
  2 16  1  0  0  0  0
  2 13  1  0  0  0  0
  3 13  1  0  0  0  0
 18 22  1  0  0  0  0
  2  3  1  0  0  0  0
  2  4  1  0  0  0  0
  3 15  1  0  0  0  0
  3 24  1  0  0  0  0
 22 24  1  0  0  0  0
  6 22  2  0  0  0  0
  6  8  1  0  0  0  0
  9 24  2  0  0  0  0
  6 12  1  0  0  0  0
  1  9  1  0  0  0  0
  9 20  1  0  0  0  0
  7 12  1  0  0  0  0
 12 20  1  0  0  0  0
 20 23  1  0  0  0  0
 19 20  1  0  0  0  0
M  CHG  1  12  -1
M  END
> <Shapegauss>
-57.511353

$$$$
