stable:False satoms:23 tatoms:24 sratio:0.9583333333333334
  -OEChem-08052417353D

 25 26  0     1  0  0  0  0  0999 V2000
   11.8914   -2.5494   21.7072 H   0  0  0  0  0  0  0  0  0  0  0  0
    8.4692   -1.4879   22.0866 C   0  0  2  0  0  0  0  0  0  0  0  0
    9.5009   -2.3241   22.9268 C   0  0  2  0  0  0  0  0  0  0  0  0
    9.1516   -1.0936   21.3262 H   0  0  0  0  0  0  0  0  0  0  0  0
    6.3549   -1.8910   21.8631 H   0  0  0  0  0  0  0  0  0  0  0  0
   12.0028   -0.2717   24.8247 C   0  0  0  0  0  0  0  0  0  0  0  0
   13.6120    0.3991   23.8977 H   0  0  0  0  0  0  0  0  0  0  0  0
   11.9926    0.3786   25.6924 H   0  0  0  0  0  0  0  0  0  0  0  0
   11.9344   -1.9473   22.6073 C   0  0  0  0  0  0  0  0  0  0  0  0
    7.8526   -0.8075   23.9705 H   0  0  0  0  0  0  0  0  0  0  0  0
    7.0435   -1.2578   20.3801 H   0  0  0  0  0  0  0  0  0  0  0  0
   13.1808   -0.5665   24.2006 C   0  0  3  0  0  0  0  0  0  0  0  0
    8.2666   -1.7317   23.4917 C   0  0  0  0  0  0  0  0  0  0  0  0
    7.5437    0.6704   21.4361 H   0  0  0  0  0  0  0  0  0  0  0  0
    9.6189   -3.3345   22.5845 H   0  0  0  0  0  0  0  0  0  0  0  0
    7.0800   -1.1645   21.4710 C   0  0  0  0  0  0  0  0  0  0  0  0
    6.8119    0.1442   21.8585 O   0  0  0  0  0  0  0  0  0  0  0  0
    9.8718   -0.5146   24.8817 H   0  0  0  0  0  0  0  0  0  0  0  0
   13.9581   -2.2790   23.2220 H   0  0  0  0  0  0  0  0  0  0  0  0
   13.2715   -1.4434   23.0105 C   0  0  0  0  0  0  0  0  0  0  0  0
    7.7887   -2.5105   24.1188 H   0  0  0  0  0  0  0  0  0  0  0  0
   10.7782   -0.7989   24.3711 C   0  0  0  0  0  0  0  0  0  0  0  0
   13.7246   -0.9112   22.1610 H   0  0  0  0  0  0  0  0  0  0  0  0
   10.7751   -1.6720   23.3028 C   0  0  0  0  0  0  0  0  0  0  0  0
   13.8205   -1.0297   24.9662 H   0  0  0  0  0  0  0  0  0  0  0  0
  5 16  1  0  0  0  0
 16 17  1  0  0  0  0
 14 17  1  0  0  0  0
 10 13  1  0  0  0  0
 13 21  1  0  0  0  0
 11 16  1  0  0  0  0
  2 16  1  0  0  0  0
  2 13  1  0  0  0  0
  3 13  1  0  0  0  0
 18 22  1  0  0  0  0
  2  3  1  0  0  0  0
  2  4  1  0  0  0  0
  3 15  1  0  0  0  0
  3 24  1  0  0  0  0
 22 24  1  0  0  0  0
  6 22  2  0  0  0  0
  6  8  1  0  0  0  0
  9 24  2  0  0  0  0
  6 12  1  0  0  0  0
  1  9  1  0  0  0  0
  9 20  1  0  0  0  0
  7 12  1  0  0  0  0
 12 20  1  0  0  0  0
 20 23  1  0  0  0  0
 19 20  1  0  0  0  0
 12 25  1  0  0  0  0
M  END
> <Chemgauss4>
-6.630759

$$$$
