stable:False satoms:23 tatoms:24 sratio:0.9583333333333334
  -OEChem-08052417353D

 25 26  0     1  0  0  0  0  0999 V2000
  -11.6715   -2.4042  -21.5448 H   0  0  0  0  0  0  0  0  0  0  0  0
   -8.2494   -1.3427  -21.9242 C   0  0  2  0  0  0  0  0  0  0  0  0
   -9.2811   -2.1789  -22.7645 C   0  0  2  0  0  0  0  0  0  0  0  0
   -8.9318   -0.9484  -21.1639 H   0  0  0  0  0  0  0  0  0  0  0  0
   -6.1351   -1.7458  -21.7008 H   0  0  0  0  0  0  0  0  0  0  0  0
  -11.7830   -0.1265  -24.6624 C   0  0  0  0  0  0  0  0  0  0  0  0
  -13.3921    0.5443  -23.7354 H   0  0  0  0  0  0  0  0  0  0  0  0
  -11.7728    0.5238  -25.5301 H   0  0  0  0  0  0  0  0  0  0  0  0
  -11.7146   -1.8021  -22.4450 C   0  0  0  0  0  0  0  0  0  0  0  0
   -7.6328   -0.6624  -23.8082 H   0  0  0  0  0  0  0  0  0  0  0  0
   -6.8237   -1.1126  -20.2178 H   0  0  0  0  0  0  0  0  0  0  0  0
  -12.9610   -0.4214  -24.0382 C   0  0  3  0  0  0  0  0  0  0  0  0
   -8.0468   -1.5865  -23.3294 C   0  0  0  0  0  0  0  0  0  0  0  0
   -7.3239    0.8156  -21.2738 H   0  0  0  0  0  0  0  0  0  0  0  0
   -9.3991   -3.1893  -22.4222 H   0  0  0  0  0  0  0  0  0  0  0  0
   -6.8602   -1.0193  -21.3087 C   0  0  0  0  0  0  0  0  0  0  0  0
   -6.5921    0.2894  -21.6962 O   0  0  0  0  0  0  0  0  0  0  0  0
   -9.6520   -0.3694  -24.7193 H   0  0  0  0  0  0  0  0  0  0  0  0
  -13.7383   -2.1338  -23.0597 H   0  0  0  0  0  0  0  0  0  0  0  0
  -13.0517   -1.2982  -22.8481 C   0  0  0  0  0  0  0  0  0  0  0  0
   -7.5688   -2.3653  -23.9564 H   0  0  0  0  0  0  0  0  0  0  0  0
  -10.5584   -0.6537  -24.2088 C   0  0  0  0  0  0  0  0  0  0  0  0
  -13.5047   -0.7660  -21.9987 H   0  0  0  0  0  0  0  0  0  0  0  0
  -10.5553   -1.5268  -23.1404 C   0  0  0  0  0  0  0  0  0  0  0  0
  -13.6007   -0.8845  -24.8039 H   0  0  0  0  0  0  0  0  0  0  0  0
  5 16  1  0  0  0  0
 16 17  1  0  0  0  0
 14 17  1  0  0  0  0
 10 13  1  0  0  0  0
 13 21  1  0  0  0  0
 11 16  1  0  0  0  0
  2 16  1  0  0  0  0
  2 13  1  0  0  0  0
  3 13  1  0  0  0  0
 18 22  1  0  0  0  0
  2  3  1  0  0  0  0
  2  4  1  0  0  0  0
  3 15  1  0  0  0  0
  3 24  1  0  0  0  0
 22 24  1  0  0  0  0
  6 22  2  0  0  0  0
  6  8  1  0  0  0  0
  9 24  2  0  0  0  0
  6 12  1  0  0  0  0
  1  9  1  0  0  0  0
  9 20  1  0  0  0  0
  7 12  1  0  0  0  0
 12 20  1  0  0  0  0
 20 23  1  0  0  0  0
 19 20  1  0  0  0  0
 12 25  1  0  0  0  0
M  END
> <Chemgauss4>
-6.451118

$$$$
