stable:False satoms:21 tatoms:24 sratio:0.875
  -OEChem-07092417303D

 24 24  0     1  0  0  0  0  0999 V2000
    7.2599   -2.1130   22.4276 H   0  0  0  0  0  0  0  0  0  0  0  0
    7.8184    2.7648   23.1761 H   0  0  0  0  0  0  0  0  0  0  0  0
    8.2849   -0.8371   19.6742 O   0  0  0  0  0  0  0  0  0  0  0  0
   10.2324   -4.2032   22.4755 H   0  0  0  0  0  0  0  0  0  0  0  0
    9.9363   -0.8716   24.5773 H   0  0  0  0  0  0  0  0  0  0  0  0
    6.8033   -0.1393   21.6010 C   0  0  2  0  0  0  0  0  0  0  0  0
   10.3162   -2.1143   21.9439 C   0  0  0  0  0  0  0  0  0  0  0  0
    6.6484    1.9947   21.2794 H   0  0  0  0  0  0  0  0  0  0  0  0
   11.3360   -3.2829   23.4750 H   0  0  0  0  0  0  0  0  0  0  0  0
    7.7516   -0.9227   20.7431 C   0  0  0  0  0  0  0  0  0  0  0  0
    9.2529   -1.3538   23.8773 C   0  0  0  0  0  0  0  0  0  0  0  0
    9.0510    1.2137   23.2761 O   0  0  0  0  0  0  0  0  0  0  0  0
    7.1511    1.2536   21.8872 C   0  5  3  0  0  0  0  0  0  0  0  0
    9.7152   -2.3709   21.0660 H   0  0  0  0  0  0  0  0  0  0  0  0
   11.3106   -1.8286   21.5982 H   0  0  0  0  0  0  0  0  0  0  0  0
    8.2608   -0.9211   24.0243 H   0  0  0  0  0  0  0  0  0  0  0  0
    9.2775   -2.8850   23.9743 C   0  0  0  0  0  0  0  0  0  0  0  0
    7.4554   -1.4282   21.7831 N   0  0  0  0  0  0  0  0  0  0  0  0
    8.3331   -3.3155   23.6558 H   0  0  0  0  0  0  0  0  0  0  0  0
   10.3793   -3.2515   22.9644 C   0  0  0  0  0  0  0  0  0  0  0  0
    5.7481   -0.2334   21.4371 H   0  0  0  0  0  0  0  0  0  0  0  0
    9.7261   -0.9803   22.5690 O   0  0  0  0  0  0  0  0  0  0  0  0
    9.4795   -3.2253   24.9846 H   0  0  0  0  0  0  0  0  0  0  0  0
    8.0561    1.7609   22.8264 C   0  0  0  0  0  0  0  0  0  0  0  0
  3 10  2  0  0  0  0
  6 10  1  0  0  0  0
 10 18  1  0  0  0  0
  7 14  1  0  0  0  0
  8 13  1  0  0  0  0
  6 21  1  0  0  0  0
  7 15  1  0  0  0  0
  6 18  1  0  0  0  0
  6 13  1  0  0  0  0
  1 18  1  0  0  0  0
 13 24  1  0  0  0  0
  7 22  1  0  0  0  0
  7 20  1  0  0  0  0
  4 20  1  0  0  0  0
 11 22  1  0  0  0  0
  2 24  1  0  0  0  0
 12 24  2  0  0  0  0
  9 20  1  0  0  0  0
 17 20  1  0  0  0  0
 17 19  1  0  0  0  0
 11 17  1  0  0  0  0
 11 16  1  0  0  0  0
  5 11  1  0  0  0  0
 17 23  1  0  0  0  0
M  CHG  1  13  -1
M  END
> <Shapegauss>
-94.778595

$$$$
