stable:False satoms:10 tatoms:24 sratio:0.4166666666666667
  -OEChem-08062411063D

 31 30  0     1  0  0  0  0  0999 V2000
    6.3060   -4.8444   26.6093 Cl  0  0  0  0  0  0  0  0  0  0  0  0
    7.9934   -4.1134   26.5633 S   0  0  0  0  0  0  0  0  0  0  0  0
    8.9545   -5.1778   26.6474 O   0  0  0  0  0  0  0  0  0  0  0  0
    8.0632   -3.1905   27.6358 O   0  0  0  0  0  0  0  0  0  0  0  0
    7.9913   -3.4299   25.1226 N   0  0  0  0  0  0  0  0  0  0  0  0
    8.7129   -2.6033   24.7700 C   0  0  0  0  0  0  0  0  0  0  0  0
    9.1691   -1.7031   24.3876 C   0  0  0  0  0  0  0  0  0  0  0  0
    9.8081   -0.5867   24.2105 C   0  0  0  0  0  0  0  0  0  0  0  0
   10.5971    0.1824   25.0433 C   0  0  0  0  0  0  0  0  0  0  0  0
   12.1764    1.2929   25.4592 H   0  0  0  0  0  0  0  0  0  0  0  0
   11.8316    0.4794   24.9375 C   0  0  0  0  0  0  0  0  0  0  0  0
   13.0287   -0.7789   23.6077 C   0  0  0  0  0  0  0  0  0  0  0  0
   12.3837   -0.4025   24.0515 C   0  0  0  0  0  0  0  0  0  0  0  0
    9.5786   -0.2205   23.1065 C   0  0  0  0  0  0  0  0  0  0  0  0
    9.0445    0.3535   21.9692 C   0  0  0  0  0  0  0  0  0  0  0  0
    9.4553    1.4030   21.6571 O   0  0  0  0  0  0  0  0  0  0  0  0
    8.0738   -0.4115   21.4092 N   0  0  0  0  0  0  0  0  0  0  0  0
    7.3528   -0.0457   20.3946 C   0  0  3  0  0  0  0  0  0  0  0  0
    7.5768    0.0120   18.9310 C   0  0  0  0  0  0  0  0  0  0  0  0
    7.8197    0.0115   17.8771 N   0  0  0  0  0  0  0  0  0  0  0  0
    4.7533    0.9975   18.8818 H   0  0  0  0  0  0  0  0  0  0  0  0
    5.7490    0.6603   19.1297 C   0  0  0  0  0  0  0  0  0  0  0  0
    6.0413    0.3388   20.3595 C   0  0  0  0  0  0  0  0  0  0  0  0
    5.0412    0.3488   21.8198 Br  0  0  0  0  0  0  0  0  0  0  0  0
    7.0752   -3.0434   25.0155 H   0  0  0  0  0  0  0  0  0  0  0  0
   10.0957    0.5906   25.9084 H   0  0  0  0  0  0  0  0  0  0  0  0
   13.8156   -1.2383   23.0661 H   0  0  0  0  0  0  0  0  0  0  0  0
   10.4276   -0.6899   22.6320 H   0  0  0  0  0  0  0  0  0  0  0  0
    7.9035   -1.3146   21.8035 H   0  0  0  0  0  0  0  0  0  0  0  0
    7.6800    0.9984   20.5075 H   0  0  0  0  0  0  0  0  0  0  0  0
    6.5025    0.5894   18.3593 H   0  0  0  0  0  0  0  0  0  0  0  0
 19 20  3  0  0  0  0
 21 22  1  0  0  0  0
 18 19  1  0  0  0  0
 22 23  2  3  0  0  0
 18 23  1  0  0  0  0
 17 18  1  0  0  0  0
 23 24  1  0  0  0  0
 15 16  2  0  0  0  0
 15 17  1  0  0  0  0
 14 15  1  0  0  0  0
 12 13  3  0  0  0  0
  8 14  2  3  0  0  0
 11 13  1  0  0  0  0
  7  8  1  0  0  0  0
  8  9  1  0  0  0  0
  6  7  3  0  0  0  0
  9 11  2  0  0  0  0
 10 11  1  0  0  0  0
  5  6  1  0  0  0  0
  2  5  1  0  0  0  0
  2  3  2  0  0  0  0
  1  2  1  0  0  0  0
  2  4  2  0  0  0  0
  5 25  1  0  0  0  0
  9 26  1  0  0  0  0
 12 27  1  0  0  0  0
 14 28  1  0  0  0  0
 17 29  1  0  0  0  0
 18 30  1  0  0  0  0
 22 31  1  0  0  0  0
M  END
> <Chemgauss4>
-8.450872

$$$$
