stable:False satoms:10 tatoms:24 sratio:0.4166666666666667
  -OEChem-08062411063D

 31 30  0     1  0  0  0  0  0999 V2000
   -6.5333   -5.0717  -26.5596 Cl  0  0  0  0  0  0  0  0  0  0  0  0
   -8.2206   -4.3407  -26.5136 S   0  0  0  0  0  0  0  0  0  0  0  0
   -9.1818   -5.4050  -26.5977 O   0  0  0  0  0  0  0  0  0  0  0  0
   -8.2904   -3.4177  -27.5862 O   0  0  0  0  0  0  0  0  0  0  0  0
   -8.2185   -3.6572  -25.0729 N   0  0  0  0  0  0  0  0  0  0  0  0
   -8.9402   -2.8306  -24.7203 C   0  0  0  0  0  0  0  0  0  0  0  0
   -9.3964   -1.9304  -24.3379 C   0  0  0  0  0  0  0  0  0  0  0  0
  -10.0353   -0.8139  -24.1608 C   0  0  0  0  0  0  0  0  0  0  0  0
  -10.8243   -0.0449  -24.9936 C   0  0  0  0  0  0  0  0  0  0  0  0
  -12.4036    1.0656  -25.4095 H   0  0  0  0  0  0  0  0  0  0  0  0
  -12.0588    0.2521  -24.8878 C   0  0  0  0  0  0  0  0  0  0  0  0
  -13.2559   -1.0062  -23.5580 C   0  0  0  0  0  0  0  0  0  0  0  0
  -12.6110   -0.6297  -24.0018 C   0  0  0  0  0  0  0  0  0  0  0  0
   -9.8058   -0.4478  -23.0568 C   0  0  0  0  0  0  0  0  0  0  0  0
   -9.2718    0.1263  -21.9195 C   0  0  0  0  0  0  0  0  0  0  0  0
   -9.6826    1.1758  -21.6074 O   0  0  0  0  0  0  0  0  0  0  0  0
   -8.3011   -0.6388  -21.3595 N   0  0  0  0  0  0  0  0  0  0  0  0
   -7.5800   -0.2729  -20.3449 C   0  0  3  0  0  0  0  0  0  0  0  0
   -7.8040   -0.2152  -18.8813 C   0  0  0  0  0  0  0  0  0  0  0  0
   -8.0469   -0.2158  -17.8275 N   0  0  0  0  0  0  0  0  0  0  0  0
   -4.9806    0.7702  -18.8321 H   0  0  0  0  0  0  0  0  0  0  0  0
   -5.9762    0.4331  -19.0800 C   0  0  0  0  0  0  0  0  0  0  0  0
   -6.2686    0.1116  -20.3098 C   0  0  0  0  0  0  0  0  0  0  0  0
   -5.2685    0.1215  -21.7701 Br  0  0  0  0  0  0  0  0  0  0  0  0
   -7.3025   -3.2707  -24.9658 H   0  0  0  0  0  0  0  0  0  0  0  0
  -10.3229    0.3633  -25.8587 H   0  0  0  0  0  0  0  0  0  0  0  0
  -14.0429   -1.4656  -23.0164 H   0  0  0  0  0  0  0  0  0  0  0  0
  -10.6549   -0.9171  -22.5823 H   0  0  0  0  0  0  0  0  0  0  0  0
   -8.1307   -1.5418  -21.7538 H   0  0  0  0  0  0  0  0  0  0  0  0
   -7.9072    0.7712  -20.4578 H   0  0  0  0  0  0  0  0  0  0  0  0
   -6.7298    0.3621  -18.3096 H   0  0  0  0  0  0  0  0  0  0  0  0
 19 20  3  0  0  0  0
 21 22  1  0  0  0  0
 18 19  1  0  0  0  0
 22 23  2  3  0  0  0
 18 23  1  0  0  0  0
 17 18  1  0  0  0  0
 23 24  1  0  0  0  0
 15 16  2  0  0  0  0
 15 17  1  0  0  0  0
 14 15  1  0  0  0  0
 12 13  3  0  0  0  0
  8 14  2  3  0  0  0
 11 13  1  0  0  0  0
  7  8  1  0  0  0  0
  8  9  1  0  0  0  0
  6  7  3  0  0  0  0
  9 11  2  0  0  0  0
 10 11  1  0  0  0  0
  5  6  1  0  0  0  0
  2  5  1  0  0  0  0
  2  3  2  0  0  0  0
  1  2  1  0  0  0  0
  2  4  2  0  0  0  0
  5 25  1  0  0  0  0
  9 26  1  0  0  0  0
 12 27  1  0  0  0  0
 14 28  1  0  0  0  0
 17 29  1  0  0  0  0
 18 30  1  0  0  0  0
 22 31  1  0  0  0  0
M  END
> <Chemgauss4>
-8.234312

$$$$
