stable:False satoms:14 tatoms:24 sratio:0.5833333333333334
  -OEChem-08062409213D

 29 29  0     1  0  0  0  0  0999 V2000
   -6.2807   -5.2052  -25.8846 Cl  0  0  0  0  0  0  0  0  0  0  0  0
   -8.0626   -4.7483  -25.8001 S   0  0  0  0  0  0  0  0  0  0  0  0
   -8.8428   -5.9368  -25.6125 O   0  0  0  0  0  0  0  0  0  0  0  0
   -8.3653   -4.0300  -27.0039 O   0  0  0  0  0  0  0  0  0  0  0  0
   -8.0890   -3.7912  -24.5165 N   0  0  0  0  0  0  0  0  0  0  0  0
   -8.9961   -3.1341  -24.0154 C   0  0  0  0  0  0  0  0  0  0  0  0
   -9.6744   -2.3897  -23.4947 C   0  0  0  0  0  0  0  0  0  0  0  0
  -10.6340   -1.5306  -22.9610 C   0  0  3  0  0  0  0  0  0  0  0  0
  -11.7141   -0.1653  -24.6219 H   0  0  0  0  0  0  0  0  0  0  0  0
  -12.5248   -0.6097  -24.0622 C   0  0  0  0  0  0  0  0  0  0  0  0
  -13.5606   -0.4343  -24.1577 H   0  0  0  0  0  0  0  0  0  0  0  0
  -12.8331   -1.9740  -22.5275 H   0  0  0  0  0  0  0  0  0  0  0  0
  -12.1023   -1.5126  -23.1164 C   0  0  0  0  0  0  0  0  0  0  0  0
  -10.2787   -0.6666  -22.2347 N   0  0  0  0  0  0  0  0  0  0  0  0
   -9.5048   -0.0259  -21.3507 C   0  0  0  0  0  0  0  0  0  0  0  0
   -9.9681    0.9453  -20.8192 O   0  0  0  0  0  0  0  0  0  0  0  0
   -8.2248   -0.5091  -21.1442 N   0  0  0  0  0  0  0  0  0  0  0  0
   -7.5460    0.0601  -20.1217 C   0  0  0  0  0  0  0  0  0  0  0  0
   -7.9308    0.0408  -18.8450 N   0  0  0  0  0  0  0  0  0  0  0  0
   -7.3623    0.5480  -17.8750 N   0  0  0  0  0  0  0  0  0  0  0  0
   -6.2996    1.1014  -18.0190 N   0  0  0  0  0  0  0  0  0  0  0  0
   -5.9698    1.0760  -19.1763 C   0  0  0  0  0  0  0  0  0  0  0  0
   -6.2939    0.6878  -20.3674 C   0  0  0  0  0  0  0  0  0  0  0  0
   -5.8142    0.8021  -21.3422 H   0  0  0  0  0  0  0  0  0  0  0  0
   -7.3822   -3.1114  -24.7118 H   0  0  0  0  0  0  0  0  0  0  0  0
  -10.5266   -0.8601  -23.8264 H   0  0  0  0  0  0  0  0  0  0  0  0
  -11.0148   -0.0011  -22.3585 H   0  0  0  0  0  0  0  0  0  0  0  0
   -7.8284   -1.2303  -21.7123 H   0  0  0  0  0  0  0  0  0  0  0  0
   -5.0185    1.5818  -19.2507 H   0  0  0  0  0  0  0  0  0  0  0  0
 20 21  2  0  0  0  0
 19 20  1  0  0  0  0
 21 22  1  0  0  0  0
 18 19  2  0  0  0  0
 22 23  2  0  0  0  0
 18 23  1  0  0  0  0
 17 18  1  0  0  0  0
 23 24  1  0  0  0  0
 15 16  2  0  0  0  0
 15 17  1  0  0  0  0
 14 15  1  0  0  0  0
  8 14  1  0  0  0  0
 12 13  1  0  0  0  0
  8 13  1  0  0  0  0
  7  8  1  0  0  0  0
 10 13  2  0  0  0  0
  6  7  3  0  0  0  0
 10 11  1  0  0  0  0
  9 10  1  0  0  0  0
  5  6  1  0  0  0  0
  2  5  1  0  0  0  0
  2  3  2  0  0  0  0
  1  2  1  0  0  0  0
  2  4  2  0  0  0  0
  5 25  1  0  0  0  0
  8 26  1  0  0  0  0
 14 27  1  0  0  0  0
 17 28  1  0  0  0  0
 22 29  1  0  0  0  0
M  END
> <Chemgauss4>
-9.164276

$$$$
