stable:False satoms:19 tatoms:24 sratio:0.7916666666666666
  -OEChem-07092417273D

 24 26  0     0  0  0  0  0  0999 V2000
    8.7604   -0.7783   25.1135 C   0  0  0  0  0  0  0  0  0  0  0  0
    8.5732   -1.3807   22.9263 C   0  0  0  0  0  0  0  0  0  0  0  0
    8.5467   -0.7694   21.4880 C   0  0  0  0  0  0  0  0  0  0  0  0
    8.6223   -3.5450   20.4455 N   0  0  0  0  0  0  0  0  0  0  0  0
    8.9294   -4.3859   20.0326 H   0  0  0  0  0  0  0  0  0  0  0  0
    8.7376    0.8529   23.0882 N   0  0  0  0  0  0  0  0  0  0  0  0
    8.5392   -2.4689   19.6385 O   0  0  0  0  0  0  0  0  0  0  0  0
    8.7227    1.5219   20.6950 C   0  0  0  0  0  0  0  0  0  0  0  0
    8.7851    2.5720   20.8869 H   0  0  0  0  0  0  0  0  0  0  0  0
    8.7938   -0.3205   19.1591 N   0  0  0  0  0  0  0  0  0  0  0  0
    8.6120   -1.1963   20.1116 C   0  0  0  0  0  0  0  0  0  0  0  0
    8.0524   -3.9470   25.8650 H   0  0  0  0  0  0  0  0  0  0  0  0
    8.8779   -3.2483   25.9806 C   0  0  0  0  0  0  0  0  0  0  0  0
    8.7392   -2.1571   24.9757 C   0  0  0  0  0  0  0  0  0  0  0  0
    8.8224   -0.2019   26.0176 H   0  0  0  0  0  0  0  0  0  0  0  0
    8.5935   -2.5115   23.6570 N   0  0  0  0  0  0  0  0  0  0  0  0
    8.8490    1.7759   23.4792 H   0  0  0  0  0  0  0  0  0  0  0  0
    8.7464    1.6197   18.5344 H   0  0  0  0  0  0  0  0  0  0  0  0
    9.8145   -3.7811   25.8166 H   0  0  0  0  0  0  0  0  0  0  0  0
    8.7574    0.9907   19.4194 C   0  0  0  0  0  0  0  0  0  0  0  0
    8.6788   -0.2901   23.7920 C   0  0  0  0  0  0  0  0  0  0  0  0
    8.6639    0.5832   21.7307 C   0  0  0  0  0  0  0  0  0  0  0  0
    8.8571   -2.8712   27.0145 H   0  0  0  0  0  0  0  0  0  0  0  0
    8.5091   -3.3532   21.4289 H   0  0  0  0  0  0  0  0  0  0  0  0
 18 20  1  0  0  0  0
 10 20  2  0  0  0  0
 10 11  1  0  0  0  0
  8 20  1  0  0  0  0
  7 11  1  0  0  0  0
  4  7  1  0  0  0  0
  4  5  1  0  0  0  0
  3 11  2  0  0  0  0
  4 24  1  0  0  0  0
  8  9  1  0  0  0  0
  8 22  2  0  0  0  0
  3 22  1  0  0  0  0
  2  3  1  0  0  0  0
  6 22  1  0  0  0  0
  2 16  1  0  0  0  0
  2 21  2  0  0  0  0
  6 17  1  0  0  0  0
  6 21  1  0  0  0  0
 14 16  1  0  0  0  0
  1 21  1  0  0  0  0
  1 14  2  0  0  0  0
 13 14  1  0  0  0  0
  1 15  1  0  0  0  0
 13 19  1  0  0  0  0
 12 13  1  0  0  0  0
 13 23  1  0  0  0  0
M  END
> <Shapegauss>
-104.579086

$$$$
