stable:False satoms:19 tatoms:24 sratio:0.7916666666666666
  -OEChem-08052415593D

 25 27  0     0  0  0  0  0  0999 V2000
   -8.6390   -2.6810  -21.8091 C   0  0  0  0  0  0  0  0  0  0  0  0
   -9.6581   -1.1679  -23.1706 C   0  0  0  0  0  0  0  0  0  0  0  0
  -11.0673   -0.7701  -23.7174 C   0  0  0  0  0  0  0  0  0  0  0  0
   -9.7915    1.6373  -24.8893 N   0  0  0  0  0  0  0  0  0  0  0  0
   -9.5157    2.5696  -25.0527 H   0  0  0  0  0  0  0  0  0  0  0  0
  -11.1791   -2.6086  -22.3622 N   0  0  0  0  0  0  0  0  0  0  0  0
  -11.0980    1.3535  -25.0585 O   0  0  0  0  0  0  0  0  0  0  0  0
  -13.2784   -1.7075  -23.3401 C   0  0  0  0  0  0  0  0  0  0  0  0
  -13.9126   -2.4573  -22.9172 H   0  0  0  0  0  0  0  0  0  0  0  0
  -13.0064    0.3736  -24.5036 N   0  0  0  0  0  0  0  0  0  0  0  0
  -11.7033    0.3087  -24.4335 C   0  0  0  0  0  0  0  0  0  0  0  0
   -5.7414   -1.4346  -22.8848 H   0  0  0  0  0  0  0  0  0  0  0  0
   -6.2959   -1.5167  -21.9526 C   0  0  0  0  0  0  0  0  0  0  0  0
   -7.7385   -1.7285  -22.2589 C   0  0  0  0  0  0  0  0  0  0  0  0
   -8.4505   -3.5250  -21.1722 H   0  0  0  0  0  0  0  0  0  0  0  0
   -8.3540   -0.8391  -23.1049 N   0  0  0  0  0  0  0  0  0  0  0  0
  -11.5949   -3.3625  -21.8370 H   0  0  0  0  0  0  0  0  0  0  0  0
  -14.8159   -0.5491  -24.3263 H   0  0  0  0  0  0  0  0  0  0  0  0
   -6.1726   -0.5924  -21.3882 H   0  0  0  0  0  0  0  0  0  0  0  0
  -13.7663   -0.6341  -24.0614 C   0  0  0  0  0  0  0  0  0  0  0  0
   -9.8719   -2.2982  -22.3789 C   0  0  0  0  0  0  0  0  0  0  0  0
  -11.8932   -1.7142  -23.1440 C   0  0  0  0  0  0  0  0  0  0  0  0
   -5.8632   -2.3485  -21.3760 H   0  0  0  0  0  0  0  0  0  0  0  0
   -9.2452    0.9045  -24.4634 H   0  0  0  0  0  0  0  0  0  0  0  0
   -7.9124   -0.0820  -23.5865 H   0  0  0  0  0  0  0  0  0  0  0  0
 18 20  1  0  0  0  0
 10 20  2  0  0  0  0
 10 11  1  0  0  0  0
  8 20  1  0  0  0  0
  7 11  1  0  0  0  0
  4  7  1  0  0  0  0
  4  5  1  0  0  0  0
  3 11  2  0  0  0  0
  4 24  1  0  0  0  0
  8  9  1  0  0  0  0
  8 22  2  0  0  0  0
  3 22  1  0  0  0  0
  2  3  1  0  0  0  0
  6 22  1  0  0  0  0
  2 16  1  0  0  0  0
  2 21  2  0  0  0  0
  6 17  1  0  0  0  0
  6 21  1  0  0  0  0
 14 16  1  0  0  0  0
  1 21  1  0  0  0  0
  1 14  2  0  0  0  0
 13 14  1  0  0  0  0
  1 15  1  0  0  0  0
 13 19  1  0  0  0  0
 12 13  1  0  0  0  0
 13 23  1  0  0  0  0
 16 25  1  0  0  0  0
M  END
> <Chemgauss4>
-6.724285

$$$$
