MODEL 1
REMARK VINA RESULT:    -5.085      0.000      0.000
REMARK INTER + INTRA:          -6.915
REMARK INTER:                  -6.572
REMARK INTRA:                  -0.343
REMARK UNBOUND:                -0.343
REMARK  5 active torsions:
REMARK  status: ('A' for Active; 'I' for Inactive)
REMARK    1  A    between atoms: N_2  and  C_4 
REMARK    2  A    between atoms: C_5  and  C_6 
REMARK    3  A    between atoms: C_6  and  O_7 
REMARK    4  A    between atoms: C_9  and  C_10 
REMARK    5  A    between atoms: N_11  and  C_13 
ROOT
HETATM    1  C   UNL     1       9.721  14.641   2.997  1.00  0.00     0.124 C 
HETATM    2  C   UNL     1       8.777  13.930   3.587  1.00  0.00     0.063 C 
ENDROOT
BRANCH   2   3
HETATM    3  C   UNL     1       7.879  13.046   3.687  1.00  0.00     0.092 C 
HETATM    4  N   UNL     1       7.963  12.061   2.793  1.00  0.00    -0.359 N 
ATOM      5  HN  UNL     1       8.826  11.978   2.256  1.00  0.00     0.166 HD
BRANCH   4   6
HETATM    6  C   UNL     1       7.052  11.228   2.569  1.00  0.00     0.090 A 
HETATM    7  S   UNL     1       6.193  10.376   3.859  1.00  0.00    -0.066 SA
HETATM    8  C   UNL     1       5.259   9.704   2.653  1.00  0.00     0.140 A 
HETATM    9  N   UNL     1       5.575  10.047   1.391  1.00  0.00    -0.367 N 
HETATM   10  C   UNL     1       6.567  10.875   1.319  1.00  0.00     0.125 A 
ATOM     11  HN  UNL     1       5.082   9.690   0.573  1.00  0.00     0.165 HD
ENDBRANCH   4   6
ENDBRANCH   2   3
BRANCH   1  12
HETATM   12  C   UNL     1       9.411  15.375   1.930  1.00  0.00    -0.019 C 
HETATM   13  C   UNL     1       9.220  16.284   1.201  1.00  0.00     0.013 C 
BRANCH  13  14
HETATM   14  N   UNL     1       9.024  17.086   0.396  1.00  0.00    -0.354 N 
HETATM   15  C   UNL     1       8.443  18.368   0.323  1.00  0.00     0.157 C 
ATOM     16  HN  UNL     1       9.365  16.784  -0.516  1.00  0.00     0.169 HD
ENDBRANCH  13  14
ENDBRANCH   1  12
BRANCH   1  17
HETATM   17  O   UNL     1      11.008  14.579   3.255  1.00  0.00    -0.347 OA
HETATM   18  C   UNL     1      11.281  15.351   4.455  1.00  0.00     0.211 C 
ENDBRANCH   1  17
TORSDOF 5
ENDMDL
MODEL 2
REMARK VINA RESULT:    -5.046     24.363     25.712
REMARK INTER + INTRA:          -6.864
REMARK INTER:                  -6.538
REMARK INTRA:                  -0.325
REMARK UNBOUND:                -0.343
REMARK  5 active torsions:
REMARK  status: ('A' for Active; 'I' for Inactive)
REMARK    1  A    between atoms: N_2  and  C_4 
REMARK    2  A    between atoms: C_5  and  C_6 
REMARK    3  A    between atoms: C_6  and  O_7 
REMARK    4  A    between atoms: C_9  and  C_10 
REMARK    5  A    between atoms: N_11  and  C_13 
ROOT
HETATM    1  C   UNL     1      11.439   0.666  24.466  1.00  0.00     0.124 C 
HETATM    2  C   UNL     1      10.372  -0.111  24.488  1.00  0.00     0.063 C 
ENDROOT
BRANCH   2   3
HETATM    3  C   UNL     1       9.438  -0.816  24.013  1.00  0.00     0.092 C 
HETATM    4  N   UNL     1       9.447  -2.091  24.404  1.00  0.00    -0.359 N 
ATOM      5  HN  UNL     1      10.050  -2.344  25.187  1.00  0.00     0.166 HD
BRANCH   4   6
HETATM    6  C   UNL     1       8.765  -3.000  23.872  1.00  0.00     0.090 A 
HETATM    7  S   UNL     1       8.261  -4.454  24.743  1.00  0.00    -0.066 SA
HETATM    8  C   UNL     1       7.436  -4.874  23.358  1.00  0.00     0.140 A 
HETATM    9  N   UNL     1       7.550  -4.030  22.315  1.00  0.00    -0.367 N 
HETATM   10  C   UNL     1       8.287  -2.999  22.571  1.00  0.00     0.125 A 
ATOM     11  HN  UNL     1       7.100  -4.189  21.414  1.00  0.00     0.165 HD
ENDBRANCH   4   6
ENDBRANCH   2   3
BRANCH   1  12
HETATM   12  C   UNL     1      11.371   1.847  23.853  1.00  0.00    -0.019 C 
HETATM   13  C   UNL     1      11.318   3.007  23.637  1.00  0.00     0.013 C 
BRANCH  13  14
HETATM   14  N   UNL     1      11.287   4.110  23.306  1.00  0.00    -0.354 N 
HETATM   15  C   UNL     1      11.939   5.317  23.634  1.00  0.00     0.157 C 
ATOM     16  HN  UNL     1      10.595   4.255  22.572  1.00  0.00     0.169 HD
ENDBRANCH  13  14
ENDBRANCH   1  12
BRANCH   1  17
HETATM   17  O   UNL     1      12.649   0.328  24.852  1.00  0.00    -0.347 OA
HETATM   18  C   UNL     1      13.140  -0.725  23.982  1.00  0.00     0.211 C 
ENDBRANCH   1  17
TORSDOF 5
ENDMDL
MODEL 3
REMARK VINA RESULT:    -4.968     24.163     25.912
REMARK INTER + INTRA:          -6.763
REMARK INTER:                  -6.398
REMARK INTRA:                  -0.365
REMARK UNBOUND:                -0.343
REMARK  5 active torsions:
REMARK  status: ('A' for Active; 'I' for Inactive)
REMARK    1  A    between atoms: N_2  and  C_4 
REMARK    2  A    between atoms: C_5  and  C_6 
REMARK    3  A    between atoms: C_6  and  O_7 
REMARK    4  A    between atoms: C_9  and  C_10 
REMARK    5  A    between atoms: N_11  and  C_13 
ROOT
HETATM    1  C   UNL     1      10.128  -1.634  22.778  1.00  0.00     0.124 C 
HETATM    2  C   UNL     1       9.395  -2.389  23.576  1.00  0.00     0.063 C 
ENDROOT
BRANCH   2   3
HETATM    3  C   UNL     1       8.608  -3.326  23.890  1.00  0.00     0.092 C 
HETATM    4  N   UNL     1       8.183  -4.065  22.864  1.00  0.00    -0.359 N 
ATOM      5  HN  UNL     1       8.665  -3.962  21.972  1.00  0.00     0.166 HD
BRANCH   4   6
HETATM    6  C   UNL     1       7.229  -4.877  22.924  1.00  0.00     0.090 A 
HETATM    7  S   UNL     1       6.079  -4.908  24.266  1.00  0.00    -0.066 SA
HETATM    8  C   UNL     1       5.280  -6.101  23.420  1.00  0.00     0.140 A 
HETATM    9  N   UNL     1       5.833  -6.479  22.253  1.00  0.00    -0.367 N 
HETATM   10  C   UNL     1       6.914  -5.828  21.965  1.00  0.00     0.125 A 
ATOM     11  HN  UNL     1       5.441  -7.206  21.655  1.00  0.00     0.165 HD
ENDBRANCH   4   6
ENDBRANCH   2   3
BRANCH   1  12
HETATM   12  C   UNL     1       9.533  -0.952  21.801  1.00  0.00    -0.019 C 
HETATM   13  C   UNL     1       8.754  -0.328  21.171  1.00  0.00     0.013 C 
BRANCH  13  14
HETATM   14  N   UNL     1       8.085   0.299  20.473  1.00  0.00    -0.354 N 
HETATM   15  C   UNL     1       7.436   0.141  19.231  1.00  0.00     0.157 C 
ATOM     16  HN  UNL     1       7.916   1.227  20.860  1.00  0.00     0.169 HD
ENDBRANCH  13  14
ENDBRANCH   1  12
BRANCH   1  17
HETATM   17  O   UNL     1      11.441  -1.603  22.737  1.00  0.00    -0.347 OA
HETATM   18  C   UNL     1      11.924  -0.777  23.830  1.00  0.00     0.211 C 
ENDBRANCH   1  17
TORSDOF 5
ENDMDL
MODEL 4
REMARK VINA RESULT:    -4.764     25.811     27.599
REMARK INTER + INTRA:          -6.499
REMARK INTER:                  -6.155
REMARK INTRA:                  -0.344
REMARK UNBOUND:                -0.343
REMARK  5 active torsions:
REMARK  status: ('A' for Active; 'I' for Inactive)
REMARK    1  A    between atoms: N_2  and  C_4 
REMARK    2  A    between atoms: C_5  and  C_6 
REMARK    3  A    between atoms: C_6  and  O_7 
REMARK    4  A    between atoms: C_9  and  C_10 
REMARK    5  A    between atoms: N_11  and  C_13 
ROOT
HETATM    1  C   UNL     1       8.838  -1.810  22.566  1.00  0.00     0.124 C 
HETATM    2  C   UNL     1       8.279  -2.947  22.937  1.00  0.00     0.063 C 
ENDROOT
BRANCH   2   3
HETATM    3  C   UNL     1       7.970  -3.889  23.721  1.00  0.00     0.092 C 
HETATM    4  N   UNL     1       7.593  -3.500  24.940  1.00  0.00    -0.359 N 
ATOM      5  HN  UNL     1       7.385  -2.512  25.080  1.00  0.00     0.166 HD
BRANCH   4   6
HETATM    6  C   UNL     1       7.478  -4.268  25.925  1.00  0.00     0.090 A 
HETATM    7  S   UNL     1       6.121  -4.181  27.055  1.00  0.00    -0.066 SA
HETATM    8  C   UNL     1       6.788  -5.515  27.799  1.00  0.00     0.140 A 
HETATM    9  N   UNL     1       7.943  -5.972  27.283  1.00  0.00    -0.367 N 
HETATM   10  C   UNL     1       8.349  -5.294  26.259  1.00  0.00     0.125 A 
ATOM     11  HN  UNL     1       8.449  -6.773  27.661  1.00  0.00     0.165 HD
ENDBRANCH   4   6
ENDBRANCH   2   3
BRANCH   1  12
HETATM   12  C   UNL     1      10.163  -1.685  22.629  1.00  0.00    -0.019 C 
HETATM   13  C   UNL     1      11.264  -1.519  23.019  1.00  0.00     0.013 C 
BRANCH  13  14
HETATM   14  N   UNL     1      12.379  -1.399  23.287  1.00  0.00    -0.354 N 
HETATM   15  C   UNL     1      13.167  -0.579  24.120  1.00  0.00     0.157 C 
ATOM     16  HN  UNL     1      12.954  -2.071  22.781  1.00  0.00     0.169 HD
ENDBRANCH  13  14
ENDBRANCH   1  12
BRANCH   1  17
HETATM   17  O   UNL     1       8.203  -0.695  22.283  1.00  0.00    -0.347 OA
HETATM   18  C   UNL     1       8.496  -0.326  20.910  1.00  0.00     0.211 C 
ENDBRANCH   1  17
TORSDOF 5
ENDMDL
MODEL 5
REMARK VINA RESULT:    -4.662     26.201     28.124
REMARK INTER + INTRA:          -6.368
REMARK INTER:                  -6.019
REMARK INTRA:                  -0.350
REMARK UNBOUND:                -0.343
REMARK  5 active torsions:
REMARK  status: ('A' for Active; 'I' for Inactive)
REMARK    1  A    between atoms: N_2  and  C_4 
REMARK    2  A    between atoms: C_5  and  C_6 
REMARK    3  A    between atoms: C_6  and  O_7 
REMARK    4  A    between atoms: C_9  and  C_10 
REMARK    5  A    between atoms: N_11  and  C_13 
ROOT
HETATM    1  C   UNL     1       7.439  -4.700  23.146  1.00  0.00     0.124 C 
HETATM    2  C   UNL     1       7.766  -3.452  22.864  1.00  0.00     0.063 C 
ENDROOT
BRANCH   2   3
HETATM    3  C   UNL     1       8.456  -2.394  22.903  1.00  0.00     0.092 C 
HETATM    4  N   UNL     1       9.739  -2.576  23.216  1.00  0.00    -0.359 N 
ATOM      5  HN  UNL     1      10.104  -3.528  23.193  1.00  0.00     0.166 HD
BRANCH   4   6
HETATM    6  C   UNL     1      10.527  -1.654  23.538  1.00  0.00     0.090 A 
HETATM    7  S   UNL     1      10.086  -0.365  24.664  1.00  0.00    -0.066 SA
HETATM    8  C   UNL     1      11.654   0.175  24.501  1.00  0.00     0.140 A 
HETATM    9  N   UNL     1      12.439  -0.516  23.653  1.00  0.00    -0.367 N 
HETATM   10  C   UNL     1      11.836  -1.519  23.101  1.00  0.00     0.125 A 
ATOM     11  HN  UNL     1      13.411  -0.272  23.463  1.00  0.00     0.165 HD
ENDBRANCH   4   6
ENDBRANCH   2   3
BRANCH   1  12
HETATM   12  C   UNL     1       7.195  -5.039  24.411  1.00  0.00    -0.019 C 
HETATM   13  C   UNL     1       6.654  -5.266  25.435  1.00  0.00     0.013 C 
BRANCH  13  14
HETATM   14  N   UNL     1       6.234  -5.538  26.473  1.00  0.00    -0.354 N 
HETATM   15  C   UNL     1       6.716  -5.666  27.792  1.00  0.00     0.157 C 
ATOM     16  HN  UNL     1       5.237  -5.745  26.425  1.00  0.00     0.169 HD
ENDBRANCH  13  14
ENDBRANCH   1  12
BRANCH   1  17
HETATM   17  O   UNL     1       7.485  -5.716  22.314  1.00  0.00    -0.347 OA
HETATM   18  C   UNL     1       6.328  -5.656  21.439  1.00  0.00     0.211 C 
ENDBRANCH   1  17
TORSDOF 5
ENDMDL
MODEL 6
REMARK VINA RESULT:    -4.625     23.881     25.677
REMARK INTER + INTRA:          -6.319
REMARK INTER:                  -6.046
REMARK INTRA:                  -0.274
REMARK UNBOUND:                -0.343
REMARK  5 active torsions:
REMARK  status: ('A' for Active; 'I' for Inactive)
REMARK    1  A    between atoms: N_2  and  C_4 
REMARK    2  A    between atoms: C_5  and  C_6 
REMARK    3  A    between atoms: C_6  and  O_7 
REMARK    4  A    between atoms: C_9  and  C_10 
REMARK    5  A    between atoms: N_11  and  C_13 
ROOT
HETATM    1  C   UNL     1       9.212  -0.339  21.791  1.00  0.00     0.124 C 
HETATM    2  C   UNL     1       8.638  -1.511  21.992  1.00  0.00     0.063 C 
ENDROOT
BRANCH   2   3
HETATM    3  C   UNL     1       7.995  -2.398  22.622  1.00  0.00     0.092 C 
HETATM    4  N   UNL     1       7.846  -3.550  21.967  1.00  0.00    -0.359 N 
ATOM      5  HN  UNL     1       8.417  -3.702  21.136  1.00  0.00     0.166 HD
BRANCH   4   6
HETATM    6  C   UNL     1       7.052  -4.460  22.305  1.00  0.00     0.090 A 
HETATM    7  S   UNL     1       5.630  -4.164  23.314  1.00  0.00    -0.066 SA
HETATM    8  C   UNL     1       5.266  -5.776  23.094  1.00  0.00     0.140 A 
HETATM    9  N   UNL     1       6.141  -6.492  22.365  1.00  0.00    -0.367 N 
HETATM   10  C   UNL     1       7.138  -5.792  21.931  1.00  0.00     0.125 A 
ATOM     11  HN  UNL     1       6.029  -7.487  22.173  1.00  0.00     0.165 HD
ENDBRANCH   4   6
ENDBRANCH   2   3
BRANCH   1  12
HETATM   12  C   UNL     1      10.210   0.042  22.588  1.00  0.00    -0.019 C 
HETATM   13  C   UNL     1      11.122   0.037  23.337  1.00  0.00     0.013 C 
BRANCH  13  14
HETATM   14  N   UNL     1      12.026   0.154  24.043  1.00  0.00    -0.354 N 
HETATM   15  C   UNL     1      13.282  -0.456  24.237  1.00  0.00     0.157 C 
ATOM     16  HN  UNL     1      11.875   0.908  24.712  1.00  0.00     0.169 HD
ENDBRANCH  13  14
ENDBRANCH   1  12
BRANCH   1  17
HETATM   17  O   UNL     1       8.791   0.595  20.969  1.00  0.00    -0.347 OA
HETATM   18  C   UNL     1       7.960  -0.019  19.949  1.00  0.00     0.211 C 
ENDBRANCH   1  17
TORSDOF 5
ENDMDL
MODEL 7
REMARK VINA RESULT:    -4.615     21.605     23.060
REMARK INTER + INTRA:          -6.307
REMARK INTER:                  -6.001
REMARK INTRA:                  -0.306
REMARK UNBOUND:                -0.343
REMARK  5 active torsions:
REMARK  status: ('A' for Active; 'I' for Inactive)
REMARK    1  A    between atoms: N_2  and  C_4 
REMARK    2  A    between atoms: C_5  and  C_6 
REMARK    3  A    between atoms: C_6  and  O_7 
REMARK    4  A    between atoms: C_9  and  C_10 
REMARK    5  A    between atoms: N_11  and  C_13 
ROOT
HETATM    1  C   UNL     1      10.269   1.755  23.657  1.00  0.00     0.124 C 
HETATM    2  C   UNL     1       9.410   1.366  22.732  1.00  0.00     0.063 C 
ENDROOT
BRANCH   2   3
HETATM    3  C   UNL     1       9.019   1.012  21.584  1.00  0.00     0.092 C 
HETATM    4  N   UNL     1       7.788   1.413  21.266  1.00  0.00    -0.359 N 
ATOM      5  HN  UNL     1       7.352   2.123  21.854  1.00  0.00     0.166 HD
BRANCH   4   6
HETATM    6  C   UNL     1       7.130   0.976  20.291  1.00  0.00     0.090 A 
HETATM    7  S   UNL     1       5.467   1.474  19.956  1.00  0.00    -0.066 SA
HETATM    8  C   UNL     1       5.568   0.531  18.586  1.00  0.00     0.140 A 
HETATM    9  N   UNL     1       6.724  -0.133  18.402  1.00  0.00    -0.367 N 
HETATM   10  C   UNL     1       7.593   0.086  19.335  1.00  0.00     0.125 A 
ATOM     11  HN  UNL     1       6.897  -0.749  17.608  1.00  0.00     0.165 HD
ENDBRANCH   4   6
ENDBRANCH   2   3
BRANCH   1  12
HETATM   12  C   UNL     1      10.920   2.907  23.496  1.00  0.00    -0.019 C 
HETATM   13  C   UNL     1      11.522   3.902  23.699  1.00  0.00     0.013 C 
BRANCH  13  14
HETATM   14  N   UNL     1      12.126   4.880  23.773  1.00  0.00    -0.354 N 
HETATM   15  C   UNL     1      12.090   6.075  24.522  1.00  0.00     0.157 C 
ATOM     16  HN  UNL     1      12.903   4.884  23.113  1.00  0.00     0.169 HD
ENDBRANCH  13  14
ENDBRANCH   1  12
BRANCH   1  17
HETATM   17  O   UNL     1      10.688   1.036  24.673  1.00  0.00    -0.347 OA
HETATM   18  C   UNL     1      11.849   0.270  24.255  1.00  0.00     0.211 C 
ENDBRANCH   1  17
TORSDOF 5
ENDMDL
MODEL 8
REMARK VINA RESULT:    -4.615     21.516     22.624
REMARK INTER + INTRA:          -6.307
REMARK INTER:                  -5.887
REMARK INTRA:                  -0.420
REMARK UNBOUND:                -0.343
REMARK  5 active torsions:
REMARK  status: ('A' for Active; 'I' for Inactive)
REMARK    1  A    between atoms: N_2  and  C_4 
REMARK    2  A    between atoms: C_5  and  C_6 
REMARK    3  A    between atoms: C_6  and  O_7 
REMARK    4  A    between atoms: C_9  and  C_10 
REMARK    5  A    between atoms: N_11  and  C_13 
ROOT
HETATM    1  C   UNL     1      11.429   5.173  23.778  1.00  0.00     0.124 C 
HETATM    2  C   UNL     1      11.289   3.864  23.886  1.00  0.00     0.063 C 
ENDROOT
BRANCH   2   3
HETATM    3  C   UNL     1      10.948   2.699  23.536  1.00  0.00     0.092 C 
HETATM    4  N   UNL     1      10.385   2.621  22.330  1.00  0.00    -0.359 N 
ATOM      5  HN  UNL     1      10.462   3.432  21.716  1.00  0.00     0.166 HD
BRANCH   4   6
HETATM    6  C   UNL     1       9.769   1.617  21.899  1.00  0.00     0.090 A 
HETATM    7  S   UNL     1       8.026   1.618  21.599  1.00  0.00    -0.066 SA
HETATM    8  C   UNL     1       8.228   0.066  21.024  1.00  0.00     0.140 A 
HETATM    9  N   UNL     1       9.475  -0.435  21.081  1.00  0.00    -0.367 N 
HETATM   10  C   UNL     1      10.338   0.396  21.571  1.00  0.00     0.125 A 
ATOM     11  HN  UNL     1       9.716  -1.375  20.770  1.00  0.00     0.165 HD
ENDBRANCH   4   6
ENDBRANCH   2   3
BRANCH   1  12
HETATM   12  C   UNL     1      10.344   5.936  23.662  1.00  0.00    -0.019 C 
HETATM   13  C   UNL     1       9.297   6.368  23.327  1.00  0.00     0.013 C 
BRANCH  13  14
HETATM   14  N   UNL     1       8.285   6.870  23.098  1.00  0.00    -0.354 N 
HETATM   15  C   UNL     1       7.240   6.729  22.162  1.00  0.00     0.157 C 
ATOM     16  HN  UNL     1       8.092   7.627  23.753  1.00  0.00     0.169 HD
ENDBRANCH  13  14
ENDBRANCH   1  12
BRANCH   1  17
HETATM   17  O   UNL     1      12.562   5.816  23.605  1.00  0.00    -0.347 OA
HETATM   18  C   UNL     1      13.017   5.603  22.243  1.00  0.00     0.211 C 
ENDBRANCH   1  17
TORSDOF 5
ENDMDL
MODEL 9
REMARK VINA RESULT:    -4.565     25.983     28.163
REMARK INTER + INTRA:          -6.242
REMARK INTER:                  -5.920
REMARK INTRA:                  -0.322
REMARK UNBOUND:                -0.343
REMARK  5 active torsions:
REMARK  status: ('A' for Active; 'I' for Inactive)
REMARK    1  A    between atoms: N_2  and  C_4 
REMARK    2  A    between atoms: C_5  and  C_6 
REMARK    3  A    between atoms: C_6  and  O_7 
REMARK    4  A    between atoms: C_9  and  C_10 
REMARK    5  A    between atoms: N_11  and  C_13 
ROOT
HETATM    1  C   UNL     1       7.639  -4.431  25.456  1.00  0.00     0.124 C 
HETATM    2  C   UNL     1       8.332  -3.353  25.775  1.00  0.00     0.063 C 
ENDROOT
BRANCH   2   3
HETATM    3  C   UNL     1       8.690  -2.142  25.719  1.00  0.00     0.092 C 
HETATM    4  N   UNL     1       9.488  -1.843  24.694  1.00  0.00    -0.359 N 
ATOM      5  HN  UNL     1       9.575  -2.528  23.943  1.00  0.00     0.166 HD
BRANCH   4   6
HETATM    6  C   UNL     1      10.138  -0.775  24.590  1.00  0.00     0.090 A 
HETATM    7  S   UNL     1      11.757  -0.703  23.882  1.00  0.00    -0.066 SA
HETATM    8  C   UNL     1      11.666   0.947  24.097  1.00  0.00     0.140 A 
HETATM    9  N   UNL     1      10.546   1.413  24.680  1.00  0.00    -0.367 N 
HETATM   10  C   UNL     1       9.697   0.482  24.972  1.00  0.00     0.125 A 
ATOM     11  HN  UNL     1      10.384   2.401  24.873  1.00  0.00     0.165 HD
ENDBRANCH   4   6
ENDBRANCH   2   3
BRANCH   1  12
HETATM   12  C   UNL     1       7.706  -4.903  24.212  1.00  0.00    -0.019 C 
HETATM   13  C   UNL     1       7.446  -5.186  23.096  1.00  0.00     0.013 C 
BRANCH  13  14
HETATM   14  N   UNL     1       7.313  -5.494  21.993  1.00  0.00    -0.354 N 
HETATM   15  C   UNL     1       6.253  -5.666  21.079  1.00  0.00     0.157 C 
ATOM     16  HN  UNL     1       8.211  -5.699  21.557  1.00  0.00     0.169 HD
ENDBRANCH  13  14
ENDBRANCH   1  12
BRANCH   1  17
HETATM   17  O   UNL     1       6.736  -5.018  26.208  1.00  0.00    -0.347 OA
HETATM   18  C   UNL     1       7.358  -5.420  27.457  1.00  0.00     0.211 C 
ENDBRANCH   1  17
TORSDOF 5
ENDMDL
