stable:False satoms:14 tatoms:24 sratio:0.5833333333333334
  -OEChem-07092417393D

 24 24  0     1  0  0  0  0  0999 V2000
    8.2896   -4.3556   26.1926 C   0  0  0  0  0  0  0  0  0  0  0  0
    7.3028   -4.6510   26.4284 H   0  0  0  0  0  0  0  0  0  0  0  0
    8.9532   -5.2280   26.2171 H   0  0  0  0  0  0  0  0  0  0  0  0
    8.6309   -3.6273   26.9507 H   0  0  0  0  0  0  0  0  0  0  0  0
    8.2902   -3.7595   24.9145 N   0  3  0  0  0  0  0  0  0  0  0  0
    8.8280   -2.8932   24.3792 C   0  0  0  0  0  0  0  0  0  0  0  0
    9.2623   -1.9565   23.8072 C   0  0  0  0  0  0  0  0  0  0  0  0
   10.0872   -1.0356   23.3089 C   0  0  3  0  0  0  0  0  0  0  0  0
   11.0432   -0.6670   24.1314 O   0  0  0  0  0  0  0  0  0  0  0  0
   12.9814   -0.6081   24.3035 H   0  0  0  0  0  0  0  0  0  0  0  0
   12.3262   -0.9622   23.5182 C   0  0  0  0  0  0  0  0  0  0  0  0
   12.5489   -0.4866   22.5918 H   0  0  0  0  0  0  0  0  0  0  0  0
   12.3391   -2.0254   23.2410 H   0  0  0  0  0  0  0  0  0  0  0  0
    9.7985   -0.4710   22.1505 C   0  0  0  0  0  0  0  0  0  0  0  0
    9.1252    0.2051   21.3228 C   0  0  0  0  0  0  0  0  0  0  0  0
    9.5339    1.0594   20.8134 H   0  0  0  0  0  0  0  0  0  0  0  0
    7.8426   -0.1494   21.2256 N   0  0  0  0  0  0  0  0  0  0  0  0
    7.0715    0.2254   20.3099 C   0  0  0  0  0  0  0  0  0  0  0  0
    7.5660    0.3047   18.6144 S   0  0  0  0  0  0  0  0  0  0  0  0
    5.9933    0.7452   18.2829 C   0  0  0  0  0  0  0  0  0  0  0  0
    5.5812    0.9573   17.3413 H   0  0  0  0  0  0  0  0  0  0  0  0
    5.1697    0.8630   19.3413 N   0  0  0  0  0  0  0  0  0  0  0  0
    5.7454    0.5939   20.4682 C   0  0  0  0  0  0  0  0  0  0  0  0
    5.2738    0.6323   21.4419 H   0  0  0  0  0  0  0  0  0  0  0  0
 20 21  1  0  0  0  0
 19 20  1  0  0  0  0
 20 22  2  0  0  0  0
 18 19  1  0  0  0  0
 22 23  1  0  0  0  0
 18 23  2  0  0  0  0
 17 18  1  0  0  0  0
 23 24  1  0  0  0  0
 15 16  1  0  0  0  0
 15 17  1  0  0  0  0
 14 15  2  3  0  0  0
  8 14  1  0  0  0  0
 11 12  1  0  0  0  0
 11 13  1  0  0  0  0
  7  8  1  0  0  0  0
  8  9  1  0  0  0  0
  9 11  1  0  0  0  0
 10 11  1  0  0  0  0
  6  7  3  0  0  0  0
  5  6  1  0  0  0  0
  1  5  1  0  0  0  0
  1  3  1  0  0  0  0
  1  2  1  0  0  0  0
  1  4  1  0  0  0  0
M  CHG  1   5   1
M  END
> <Shapegauss>
-189.503586

$$$$
