MODEL 1
REMARK VINA RESULT:    -6.142      0.000      0.000
REMARK INTER + INTRA:          -9.783
REMARK INTER:                  -9.015
REMARK INTRA:                  -0.768
REMARK UNBOUND:                -0.768
REMARK  8 active torsions:
REMARK  status: ('A' for Active; 'I' for Inactive)
REMARK    1  A    between atoms: S_2  and  O_5 
REMARK    2  A    between atoms: O_5  and  C_6 
REMARK    3  A    between atoms: C_6  and  C_7 
REMARK    4  A    between atoms: C_8  and  O_13 
REMARK    5  A    between atoms: C_8  and  N_14 
REMARK    6  A    between atoms: N_11  and  O_13 
REMARK       I    between atoms: N_14  and  C_16 
REMARK       I    between atoms: C_16  and  N_18 
REMARK    7  A    between atoms: N_18  and  C_20 
REMARK    8  A    between atoms: C_24  and  C_25 
ROOT
HETATM    1  C   UNL     1       9.927  15.066   2.577  1.00  0.00     0.311 A 
HETATM    2  C   UNL     1      10.032  14.262   3.661  1.00  0.00     0.316 A 
HETATM    3  O   UNL     1      11.141  14.696   3.105  1.00  0.00    -0.307 OA
ENDROOT
BRANCH   2   4
HETATM    4  O   UNL     1       9.690  14.610   4.996  1.00  0.00    -0.208 OA
BRANCH   4   5
HETATM    5  N   UNL     1      10.570  15.390   5.745  1.00  0.00    -0.240 N 
HETATM    6  C   UNL     1       9.963  16.308   6.064  1.00  0.00     0.085 C 
ATOM      7  HN  UNL     1      11.545  15.186   5.964  1.00  0.00     0.203 HD
ENDBRANCH   4   5
ENDBRANCH   2   4
BRANCH   2   8
HETATM    8  N   UNL     1       9.501  13.059   3.200  1.00  0.00    -0.283 N 
HETATM    9  C   UNL     1       8.494  12.278   3.569  1.00  0.00     0.324 C 
HETATM   10  O   UNL     1       8.568  11.532   4.529  1.00  0.00    -0.247 OA
HETATM   11  N   UNL     1       7.395  12.348   2.723  1.00  0.00    -0.319 N 
ATOM     12  HN  UNL     1       7.129  13.278   2.395  1.00  0.00     0.170 HD
ATOM     13  HN  UNL     1      10.003  12.694   2.391  1.00  0.00     0.169 HD
BRANCH  11  14
HETATM   14  C   UNL     1       6.700  11.396   2.322  1.00  0.00     0.094 C 
HETATM   15  C   UNL     1       6.456  10.657   1.301  1.00  0.00     0.034 C 
BRANCH  15  16
HETATM   16  C   UNL     1       5.360   9.986   1.795  1.00  0.00     0.082 C 
HETATM   17  N   UNL     1       4.436  10.769   1.506  1.00  0.00    -0.408 N 
HETATM   18  H   UNL     1       3.767  11.050   0.885  1.00  0.00     0.155 HD
ATOM     19  HN  UNL     1       4.355  11.402   2.302  1.00  0.00     0.155 HD
ENDBRANCH  15  16
ENDBRANCH  11  14
ENDBRANCH   2   8
BRANCH   1  20
HETATM   20  C   UNL     1       9.325  15.726   1.662  1.00  0.00     0.037 C 
BRANCH  20  21
HETATM   21  O   UNL     1       8.955  16.501   0.838  1.00  0.00    -0.165 OA
BRANCH  21  22
HETATM   22  S   UNL     1       8.893  18.061   0.747  1.00  0.00     0.451 S 
HETATM   23  F   UNL     1       8.627  18.551   2.123  1.00  0.00    -0.081 F 
HETATM   24  O   UNL     1      10.118  18.549   0.447  1.00  0.00    -0.163 OA
HETATM   25  O   UNL     1       7.872  18.390  -0.044  1.00  0.00    -0.163 OA
ENDBRANCH  21  22
ENDBRANCH  20  21
ENDBRANCH   1  20
TORSDOF 8
ENDMDL
MODEL 2
REMARK VINA RESULT:    -5.865     23.510     25.161
REMARK INTER + INTRA:          -9.375
REMARK INTER:                  -8.162
REMARK INTRA:                  -1.214
REMARK UNBOUND:                -0.768
REMARK  8 active torsions:
REMARK  status: ('A' for Active; 'I' for Inactive)
REMARK    1  A    between atoms: S_2  and  O_5 
REMARK    2  A    between atoms: O_5  and  C_6 
REMARK    3  A    between atoms: C_6  and  C_7 
REMARK    4  A    between atoms: C_8  and  O_13 
REMARK    5  A    between atoms: C_8  and  N_14 
REMARK    6  A    between atoms: N_11  and  O_13 
REMARK       I    between atoms: N_14  and  C_16 
REMARK       I    between atoms: C_16  and  N_18 
REMARK    7  A    between atoms: N_18  and  C_20 
REMARK    8  A    between atoms: C_24  and  C_25 
ROOT
HETATM    1  C   UNL     1       8.982  -0.034  21.226  1.00  0.00     0.311 A 
HETATM    2  C   UNL     1       9.548  -0.605  22.316  1.00  0.00     0.316 A 
HETATM    3  O   UNL     1      10.342  -0.042  21.433  1.00  0.00    -0.307 OA
ENDROOT
BRANCH   2   4
HETATM    4  O   UNL     1       9.467  -0.123  23.650  1.00  0.00    -0.208 OA
BRANCH   4   5
HETATM    5  N   UNL     1      10.377  -0.584  24.600  1.00  0.00    -0.240 N 
HETATM    6  C   UNL     1      11.038   0.317  24.849  1.00  0.00     0.085 C 
ATOM      7  HN  UNL     1      10.441  -1.524  24.990  1.00  0.00     0.203 HD
ENDBRANCH   4   5
ENDBRANCH   2   4
BRANCH   2   8
HETATM    8  N   UNL     1       9.241  -1.955  22.146  1.00  0.00    -0.283 N 
HETATM    9  C   UNL     1       8.503  -2.836  22.807  1.00  0.00     0.324 C 
HETATM   10  O   UNL     1       8.885  -3.361  23.838  1.00  0.00    -0.247 OA
HETATM   11  N   UNL     1       7.303  -3.143  22.178  1.00  0.00    -0.319 N 
ATOM     12  HN  UNL     1       6.789  -2.362  21.770  1.00  0.00     0.170 HD
ATOM     13  HN  UNL     1       9.686  -2.357  21.322  1.00  0.00     0.169 HD
BRANCH  11  14
HETATM   14  C   UNL     1       6.790  -4.271  22.059  1.00  0.00     0.094 C 
HETATM   15  C   UNL     1       7.064  -5.519  21.927  1.00  0.00     0.034 C 
BRANCH  15  16
HETATM   16  C   UNL     1       5.791  -5.979  21.678  1.00  0.00     0.082 C 
HETATM   17  N   UNL     1       5.424  -6.331  22.814  1.00  0.00    -0.408 N 
HETATM   18  H   UNL     1       4.997  -6.111  23.640  1.00  0.00     0.155 HD
ATOM     19  HN  UNL     1       5.714  -7.305  22.906  1.00  0.00     0.155 HD
ENDBRANCH  15  16
ENDBRANCH  11  14
ENDBRANCH   2   8
BRANCH   1  20
HETATM   20  C   UNL     1       8.030   0.320  20.452  1.00  0.00     0.037 C 
BRANCH  20  21
HETATM   21  O   UNL     1       7.141   0.407  19.664  1.00  0.00    -0.165 OA
BRANCH  21  22
HETATM   22  S   UNL     1       5.865  -0.440  19.348  1.00  0.00     0.451 S 
HETATM   23  F   UNL     1       4.709   0.484  19.470  1.00  0.00    -0.081 F 
HETATM   24  O   UNL     1       5.870  -0.802  18.046  1.00  0.00    -0.163 OA
HETATM   25  O   UNL     1       5.765  -1.397  20.270  1.00  0.00    -0.163 OA
ENDBRANCH  21  22
ENDBRANCH  20  21
ENDBRANCH   1  20
TORSDOF 8
ENDMDL
MODEL 3
REMARK VINA RESULT:    -5.780      2.334      5.657
REMARK INTER + INTRA:          -9.251
REMARK INTER:                  -8.191
REMARK INTRA:                  -1.060
REMARK UNBOUND:                -0.768
REMARK  8 active torsions:
REMARK  status: ('A' for Active; 'I' for Inactive)
REMARK    1  A    between atoms: S_2  and  O_5 
REMARK    2  A    between atoms: O_5  and  C_6 
REMARK    3  A    between atoms: C_6  and  C_7 
REMARK    4  A    between atoms: C_8  and  O_13 
REMARK    5  A    between atoms: C_8  and  N_14 
REMARK    6  A    between atoms: N_11  and  O_13 
REMARK       I    between atoms: N_14  and  C_16 
REMARK       I    between atoms: C_16  and  N_18 
REMARK    7  A    between atoms: N_18  and  C_20 
REMARK    8  A    between atoms: C_24  and  C_25 
ROOT
HETATM    1  C   UNL     1       7.573  15.993   2.336  1.00  0.00     0.311 A 
HETATM    2  C   UNL     1       8.049  14.945   3.050  1.00  0.00     0.316 A 
HETATM    3  O   UNL     1       6.771  15.232   3.154  1.00  0.00    -0.307 OA
ENDROOT
BRANCH   2   4
HETATM    4  O   UNL     1       8.486  13.702   2.518  1.00  0.00    -0.208 OA
BRANCH   4   5
HETATM    5  N   UNL     1       9.063  12.760   3.370  1.00  0.00    -0.240 N 
HETATM    6  C   UNL     1       8.217  12.033   3.633  1.00  0.00     0.085 C 
ATOM      7  HN  UNL     1      10.030  12.725   3.689  1.00  0.00     0.203 HD
ENDBRANCH   4   5
ENDBRANCH   2   4
BRANCH   2   8
HETATM    8  N   UNL     1       8.928  15.559   3.941  1.00  0.00    -0.283 N 
HETATM    9  C   UNL     1      10.196  15.943   3.889  1.00  0.00     0.324 C 
HETATM   10  O   UNL     1      11.120  15.154   3.989  1.00  0.00    -0.247 OA
HETATM   11  N   UNL     1      10.358  17.318   3.781  1.00  0.00    -0.319 N 
ATOM     12  HN  UNL     1       9.729  17.804   3.141  1.00  0.00     0.170 HD
ATOM     13  HN  UNL     1       8.495  15.759   4.843  1.00  0.00     0.169 HD
BRANCH  11  14
HETATM   14  C   UNL     1      11.191  18.021   4.384  1.00  0.00     0.094 C 
HETATM   15  C   UNL     1      11.471  19.229   4.717  1.00  0.00     0.034 C 
BRANCH  15  16
HETATM   16  C   UNL     1      12.734  19.011   5.220  1.00  0.00     0.082 C 
HETATM   17  N   UNL     1      13.218  18.249   4.363  1.00  0.00    -0.408 N 
HETATM   18  H   UNL     1      13.710  18.138   3.552  1.00  0.00     0.155 HD
ATOM     19  HN  UNL     1      12.978  17.305   4.669  1.00  0.00     0.155 HD
ENDBRANCH  15  16
ENDBRANCH  11  14
ENDBRANCH   2   8
BRANCH   1  20
HETATM   20  C   UNL     1       7.632  16.987   1.536  1.00  0.00     0.037 C 
BRANCH  20  21
HETATM   21  O   UNL     1       7.850  18.004   0.956  1.00  0.00    -0.165 OA
BRANCH  21  22
HETATM   22  S   UNL     1       9.124  18.876   0.709  1.00  0.00     0.451 S 
HETATM   23  F   UNL     1       9.317  19.692   1.935  1.00  0.00    -0.081 F 
HETATM   24  O   UNL     1      10.217  18.081   0.659  1.00  0.00    -0.163 OA
HETATM   25  O   UNL     1       8.882  19.681  -0.324  1.00  0.00    -0.163 OA
ENDBRANCH  21  22
ENDBRANCH  20  21
ENDBRANCH   1  20
TORSDOF 8
ENDMDL
MODEL 4
REMARK VINA RESULT:    -5.708     23.963     25.788
REMARK INTER + INTRA:          -9.146
REMARK INTER:                  -8.383
REMARK INTRA:                  -0.763
REMARK UNBOUND:                -0.768
REMARK  8 active torsions:
REMARK  status: ('A' for Active; 'I' for Inactive)
REMARK    1  A    between atoms: S_2  and  O_5 
REMARK    2  A    between atoms: O_5  and  C_6 
REMARK    3  A    between atoms: C_6  and  C_7 
REMARK    4  A    between atoms: C_8  and  O_13 
REMARK    5  A    between atoms: C_8  and  N_14 
REMARK    6  A    between atoms: N_11  and  O_13 
REMARK       I    between atoms: N_14  and  C_16 
REMARK       I    between atoms: C_16  and  N_18 
REMARK    7  A    between atoms: N_18  and  C_20 
REMARK    8  A    between atoms: C_24  and  C_25 
ROOT
HETATM    1  C   UNL     1       8.991  -2.447  23.700  1.00  0.00     0.311 A 
HETATM    2  C   UNL     1       7.664  -2.651  23.521  1.00  0.00     0.316 A 
HETATM    3  O   UNL     1       8.417  -3.693  23.795  1.00  0.00    -0.307 OA
ENDROOT
BRANCH   2   4
HETATM    4  O   UNL     1       6.629  -2.237  24.402  1.00  0.00    -0.208 OA
BRANCH   4   5
HETATM    5  N   UNL     1       5.382  -2.857  24.331  1.00  0.00    -0.240 N 
HETATM    6  C   UNL     1       5.163  -3.218  25.395  1.00  0.00     0.085 C 
ATOM      7  HN  UNL     1       4.791  -2.967  23.507  1.00  0.00     0.203 HD
ENDBRANCH   4   5
ENDBRANCH   2   4
BRANCH   2   8
HETATM    8  N   UNL     1       7.483  -2.314  22.181  1.00  0.00    -0.283 N 
HETATM    9  C   UNL     1       6.445  -1.955  21.439  1.00  0.00     0.324 C 
HETATM   10  O   UNL     1       5.622  -2.759  21.038  1.00  0.00    -0.247 OA
HETATM   11  N   UNL     1       6.431  -0.603  21.117  1.00  0.00    -0.319 N 
ATOM     12  HN  UNL     1       6.680   0.047  21.863  1.00  0.00     0.170 HD
ATOM     13  HN  UNL     1       8.351  -2.353  21.646  1.00  0.00     0.169 HD
BRANCH  11  14
HETATM   14  C   UNL     1       6.146  -0.103  20.013  1.00  0.00     0.094 C 
HETATM   15  C   UNL     1       5.191   0.425  19.337  1.00  0.00     0.034 C 
BRANCH  15  16
HETATM   16  C   UNL     1       5.820   0.488  18.114  1.00  0.00     0.082 C 
HETATM   17  N   UNL     1       5.631  -0.661  17.674  1.00  0.00    -0.408 N 
HETATM   18  H   UNL     1       5.088  -1.264  17.170  1.00  0.00     0.155 HD
ATOM     19  HN  UNL     1       6.421  -1.215  18.006  1.00  0.00     0.155 HD
ENDBRANCH  15  16
ENDBRANCH  11  14
ENDBRANCH   2   8
BRANCH   1  20
HETATM   20  C   UNL     1      10.073  -1.771  23.763  1.00  0.00     0.037 C 
BRANCH  20  21
HETATM   21  O   UNL     1      11.025  -1.077  23.586  1.00  0.00    -0.165 OA
BRANCH  21  22
HETATM   22  S   UNL     1      11.589   0.209  24.273  1.00  0.00     0.451 S 
HETATM   23  F   UNL     1      10.875   0.340  25.568  1.00  0.00    -0.081 F 
HETATM   24  O   UNL     1      12.881   0.010  24.619  1.00  0.00    -0.163 OA
HETATM   25  O   UNL     1      11.297   1.254  23.499  1.00  0.00    -0.163 OA
ENDBRANCH  21  22
ENDBRANCH  20  21
ENDBRANCH   1  20
TORSDOF 8
ENDMDL
MODEL 5
REMARK VINA RESULT:    -5.606     27.609     29.626
REMARK INTER + INTRA:          -8.997
REMARK INTER:                  -7.874
REMARK INTRA:                  -1.123
REMARK UNBOUND:                -0.768
REMARK  8 active torsions:
REMARK  status: ('A' for Active; 'I' for Inactive)
REMARK    1  A    between atoms: S_2  and  O_5 
REMARK    2  A    between atoms: O_5  and  C_6 
REMARK    3  A    between atoms: C_6  and  C_7 
REMARK    4  A    between atoms: C_8  and  O_13 
REMARK    5  A    between atoms: C_8  and  N_14 
REMARK    6  A    between atoms: N_11  and  O_13 
REMARK       I    between atoms: N_14  and  C_16 
REMARK       I    between atoms: C_16  and  N_18 
REMARK    7  A    between atoms: N_18  and  C_20 
REMARK    8  A    between atoms: C_24  and  C_25 
ROOT
HETATM    1  C   UNL     1       5.258  -5.488  25.230  1.00  0.00     0.311 A 
HETATM    2  C   UNL     1       5.836  -5.235  26.429  1.00  0.00     0.316 A 
HETATM    3  O   UNL     1       4.547  -5.010  26.305  1.00  0.00    -0.307 OA
ENDROOT
BRANCH   2   4
HETATM    4  O   UNL     1       6.331  -6.207  27.339  1.00  0.00    -0.208 OA
BRANCH   4   5
HETATM    5  N   UNL     1       5.487  -7.227  27.777  1.00  0.00    -0.240 N 
HETATM    6  C   UNL     1       5.432  -7.106  28.914  1.00  0.00     0.085 C 
ATOM      7  HN  UNL     1       5.019  -7.930  27.205  1.00  0.00     0.203 HD
ENDBRANCH   4   5
ENDBRANCH   2   4
BRANCH   2   8
HETATM    8  N   UNL     1       6.710  -4.191  26.131  1.00  0.00    -0.283 N 
HETATM    9  C   UNL     1       7.997  -4.107  25.825  1.00  0.00     0.324 C 
HETATM   10  O   UNL     1       8.873  -4.202  26.667  1.00  0.00    -0.247 OA
HETATM   11  N   UNL     1       8.235  -3.836  24.484  1.00  0.00    -0.319 N 
ATOM     12  HN  UNL     1       7.658  -4.337  23.807  1.00  0.00     0.170 HD
ATOM     13  HN  UNL     1       6.253  -3.279  26.154  1.00  0.00     0.169 HD
BRANCH  11  14
HETATM   14  C   UNL     1       9.079  -3.047  24.021  1.00  0.00     0.094 C 
HETATM   15  C   UNL     1       9.425  -1.811  23.987  1.00  0.00     0.034 C 
BRANCH  15  16
HETATM   16  C   UNL     1      10.407  -1.902  23.027  1.00  0.00     0.082 C 
HETATM   17  N   UNL     1       9.737  -1.872  21.978  1.00  0.00    -0.408 N 
HETATM   18  H   UNL     1       9.339  -1.360  21.276  1.00  0.00     0.155 HD
ATOM     19  HN  UNL     1       9.505  -2.845  21.774  1.00  0.00     0.155 HD
ENDBRANCH  15  16
ENDBRANCH  11  14
ENDBRANCH   2   8
BRANCH   1  20
HETATM   20  C   UNL     1       5.214  -5.850  24.005  1.00  0.00     0.037 C 
BRANCH  20  21
HETATM   21  O   UNL     1       5.323  -5.990  22.828  1.00  0.00    -0.165 OA
BRANCH  21  22
HETATM   22  S   UNL     1       6.300  -5.433  21.742  1.00  0.00     0.451 S 
HETATM   23  F   UNL     1       7.572  -6.184  21.898  1.00  0.00    -0.081 F 
HETATM   24  O   UNL     1       5.856  -5.776  20.512  1.00  0.00    -0.163 OA
HETATM   25  O   UNL     1       6.515  -4.144  21.998  1.00  0.00    -0.163 OA
ENDBRANCH  21  22
ENDBRANCH  20  21
ENDBRANCH   1  20
TORSDOF 8
ENDMDL
MODEL 6
REMARK VINA RESULT:    -5.600     23.811     25.443
REMARK INTER + INTRA:          -8.988
REMARK INTER:                  -8.289
REMARK INTRA:                  -0.699
REMARK UNBOUND:                -0.768
REMARK  8 active torsions:
REMARK  status: ('A' for Active; 'I' for Inactive)
REMARK    1  A    between atoms: S_2  and  O_5 
REMARK    2  A    between atoms: O_5  and  C_6 
REMARK    3  A    between atoms: C_6  and  C_7 
REMARK    4  A    between atoms: C_8  and  O_13 
REMARK    5  A    between atoms: C_8  and  N_14 
REMARK    6  A    between atoms: N_11  and  O_13 
REMARK       I    between atoms: N_14  and  C_16 
REMARK       I    between atoms: C_16  and  N_18 
REMARK    7  A    between atoms: N_18  and  C_20 
REMARK    8  A    between atoms: C_24  and  C_25 
ROOT
HETATM    1  C   UNL     1      10.560  -0.884  22.106  1.00  0.00     0.311 A 
HETATM    2  C   UNL     1      11.018  -1.496  23.224  1.00  0.00     0.316 A 
HETATM    3  O   UNL     1      11.736  -1.597  22.128  1.00  0.00    -0.307 OA
ENDROOT
BRANCH   2   4
HETATM    4  O   UNL     1      11.527  -0.848  24.383  1.00  0.00    -0.208 OA
BRANCH   4   5
HETATM    5  N   UNL     1      11.412   0.536  24.497  1.00  0.00    -0.240 N 
HETATM    6  C   UNL     1      10.482   0.711  25.142  1.00  0.00     0.085 C 
ATOM      7  HN  UNL     1      12.026   1.244  24.093  1.00  0.00     0.203 HD
ENDBRANCH   4   5
ENDBRANCH   2   4
BRANCH   2   8
HETATM    8  N   UNL     1      10.048  -2.469  23.458  1.00  0.00    -0.283 N 
HETATM    9  C   UNL     1       8.722  -2.489  23.446  1.00  0.00     0.324 C 
HETATM   10  O   UNL     1       8.056  -2.034  24.359  1.00  0.00    -0.247 OA
HETATM   11  N   UNL     1       8.185  -3.134  22.339  1.00  0.00    -0.319 N 
ATOM     12  HN  UNL     1       8.626  -2.941  21.439  1.00  0.00     0.170 HD
ATOM     13  HN  UNL     1      10.451  -3.376  23.693  1.00  0.00     0.169 HD
BRANCH  11  14
HETATM   14  C   UNL     1       7.221  -3.921  22.329  1.00  0.00     0.094 C 
HETATM   15  C   UNL     1       6.774  -5.009  22.845  1.00  0.00     0.034 C 
BRANCH  15  16
HETATM   16  C   UNL     1       5.674  -5.180  22.035  1.00  0.00     0.082 C 
HETATM   17  N   UNL     1       5.920  -6.279  21.506  1.00  0.00    -0.408 N 
HETATM   18  H   UNL     1       5.840  -7.231  21.523  1.00  0.00     0.155 HD
ATOM     19  HN  UNL     1       6.455  -6.065  20.664  1.00  0.00     0.155 HD
ENDBRANCH  15  16
ENDBRANCH  11  14
ENDBRANCH   2   8
BRANCH   1  20
HETATM   20  C   UNL     1       9.752  -0.194  21.397  1.00  0.00     0.037 C 
BRANCH  20  21
HETATM   21  O   UNL     1       9.082   0.305  20.549  1.00  0.00    -0.165 OA
BRANCH  21  22
HETATM   22  S   UNL     1       7.552   0.321  20.225  1.00  0.00     0.451 S 
HETATM   23  F   UNL     1       6.993   1.519  20.902  1.00  0.00    -0.081 F 
HETATM   24  O   UNL     1       7.368   0.563  18.908  1.00  0.00    -0.163 OA
HETATM   25  O   UNL     1       7.006  -0.776  20.747  1.00  0.00    -0.163 OA
ENDBRANCH  21  22
ENDBRANCH  20  21
ENDBRANCH   1  20
TORSDOF 8
ENDMDL
MODEL 7
REMARK VINA RESULT:    -5.589     22.149     23.781
REMARK INTER + INTRA:          -8.971
REMARK INTER:                  -8.381
REMARK INTRA:                  -0.590
REMARK UNBOUND:                -0.768
REMARK  8 active torsions:
REMARK  status: ('A' for Active; 'I' for Inactive)
REMARK    1  A    between atoms: S_2  and  O_5 
REMARK    2  A    between atoms: O_5  and  C_6 
REMARK    3  A    between atoms: C_6  and  C_7 
REMARK    4  A    between atoms: C_8  and  O_13 
REMARK    5  A    between atoms: C_8  and  N_14 
REMARK    6  A    between atoms: N_11  and  O_13 
REMARK       I    between atoms: N_14  and  C_16 
REMARK       I    between atoms: C_16  and  N_18 
REMARK    7  A    between atoms: N_18  and  C_20 
REMARK    8  A    between atoms: C_24  and  C_25 
ROOT
HETATM    1  C   UNL     1       8.489  -0.186  20.897  1.00  0.00     0.311 A 
HETATM    2  C   UNL     1       9.418  -0.318  21.874  1.00  0.00     0.316 A 
HETATM    3  O   UNL     1       8.151  -0.304  22.225  1.00  0.00    -0.307 OA
ENDROOT
BRANCH   2   4
HETATM    4  O   UNL     1      10.234  -1.459  22.102  1.00  0.00    -0.208 OA
BRANCH   4   5
HETATM    5  N   UNL     1      11.621  -1.328  22.048  1.00  0.00    -0.240 N 
HETATM    6  C   UNL     1      11.998  -1.673  23.073  1.00  0.00     0.085 C 
ATOM      7  HN  UNL     1      12.182  -0.996  21.263  1.00  0.00     0.203 HD
ENDBRANCH   4   5
ENDBRANCH   2   4
BRANCH   2   8
HETATM    8  N   UNL     1      10.091   0.901  21.820  1.00  0.00    -0.283 N 
HETATM    9  C   UNL     1       9.880   2.109  22.323  1.00  0.00     0.324 C 
HETATM   10  O   UNL     1       9.066   2.880  21.844  1.00  0.00    -0.247 OA
HETATM   11  N   UNL     1      10.715   2.425  23.388  1.00  0.00    -0.319 N 
ATOM     12  HN  UNL     1      10.876   1.688  24.075  1.00  0.00     0.170 HD
ATOM     13  HN  UNL     1      10.946   0.852  21.266  1.00  0.00     0.169 HD
BRANCH  11  14
HETATM   14  C   UNL     1      11.287   3.512  23.590  1.00  0.00     0.094 C 
HETATM   15  C   UNL     1      11.084   4.740  23.907  1.00  0.00     0.034 C 
BRANCH  15  16
HETATM   16  C   UNL     1      12.354   5.219  23.682  1.00  0.00     0.082 C 
HETATM   17  N   UNL     1      12.450   6.098  24.558  1.00  0.00    -0.408 N 
HETATM   18  H   UNL     1      12.701   6.343  25.447  1.00  0.00     0.155 HD
ATOM     19  HN  UNL     1      12.096   6.953  24.128  1.00  0.00     0.155 HD
ENDBRANCH  15  16
ENDBRANCH  11  14
ENDBRANCH   2   8
BRANCH   1  20
HETATM   20  C   UNL     1       8.059  -0.044  19.703  1.00  0.00     0.037 C 
BRANCH  20  21
HETATM   21  O   UNL     1       7.453   0.178  18.702  1.00  0.00    -0.165 OA
BRANCH  21  22
HETATM   22  S   UNL     1       5.937   0.278  18.335  1.00  0.00     0.451 S 
HETATM   23  F   UNL     1       5.192   0.256  19.620  1.00  0.00    -0.081 F 
HETATM   24  O   UNL     1       5.673   1.497  17.815  1.00  0.00    -0.163 OA
HETATM   25  O   UNL     1       5.612  -0.798  17.619  1.00  0.00    -0.163 OA
ENDBRANCH  21  22
ENDBRANCH  20  21
ENDBRANCH   1  20
TORSDOF 8
ENDMDL
MODEL 8
REMARK VINA RESULT:    -5.489     24.061     26.026
REMARK INTER + INTRA:          -8.825
REMARK INTER:                  -7.674
REMARK INTRA:                  -1.151
REMARK UNBOUND:                -0.768
REMARK  8 active torsions:
REMARK  status: ('A' for Active; 'I' for Inactive)
REMARK    1  A    between atoms: S_2  and  O_5 
REMARK    2  A    between atoms: O_5  and  C_6 
REMARK    3  A    between atoms: C_6  and  C_7 
REMARK    4  A    between atoms: C_8  and  O_13 
REMARK    5  A    between atoms: C_8  and  N_14 
REMARK    6  A    between atoms: N_11  and  O_13 
REMARK       I    between atoms: N_14  and  C_16 
REMARK       I    between atoms: C_16  and  N_18 
REMARK    7  A    between atoms: N_18  and  C_20 
REMARK    8  A    between atoms: C_24  and  C_25 
ROOT
HETATM    1  C   UNL     1       7.971  -2.817  23.940  1.00  0.00     0.311 A 
HETATM    2  C   UNL     1       8.590  -1.616  24.037  1.00  0.00     0.316 A 
HETATM    3  O   UNL     1       8.102  -2.149  25.134  1.00  0.00    -0.307 OA
ENDROOT
BRANCH   2   4
HETATM    4  O   UNL     1       9.984  -1.380  23.887  1.00  0.00    -0.208 OA
BRANCH   4   5
HETATM    5  N   UNL     1      10.699  -2.097  22.929  1.00  0.00    -0.240 N 
HETATM    6  C   UNL     1      11.610  -1.447  22.684  1.00  0.00     0.085 C 
ATOM      7  HN  UNL     1      10.463  -3.006  22.532  1.00  0.00     0.203 HD
ENDBRANCH   4   5
ENDBRANCH   2   4
BRANCH   2   8
HETATM    8  N   UNL     1       7.758  -0.783  23.291  1.00  0.00    -0.283 N 
HETATM    9  C   UNL     1       7.811  -0.249  22.079  1.00  0.00     0.324 C 
HETATM   10  O   UNL     1       8.507   0.719  21.825  1.00  0.00    -0.247 OA
HETATM   11  N   UNL     1       6.957  -0.852  21.165  1.00  0.00    -0.319 N 
ATOM     12  HN  UNL     1       6.906  -1.871  21.191  1.00  0.00     0.170 HD
ATOM     13  HN  UNL     1       6.909  -0.524  23.796  1.00  0.00     0.169 HD
BRANCH  11  14
HETATM   14  C   UNL     1       6.246  -0.280  20.318  1.00  0.00     0.094 C 
HETATM   15  C   UNL     1       5.498  -0.483  19.294  1.00  0.00     0.034 C 
BRANCH  15  16
HETATM   16  C   UNL     1       5.308   0.829  18.921  1.00  0.00     0.082 C 
HETATM   17  N   UNL     1       4.430   1.194  19.725  1.00  0.00    -0.408 N 
HETATM   18  H   UNL     1       4.205   1.582  20.568  1.00  0.00     0.155 HD
ATOM     19  HN  UNL     1       3.540   0.980  19.275  1.00  0.00     0.155 HD
ENDBRANCH  15  16
ENDBRANCH  11  14
ENDBRANCH   2   8
BRANCH   1  20
HETATM   20  C   UNL     1       7.520  -3.857  23.350  1.00  0.00     0.037 C 
BRANCH  20  21
HETATM   21  O   UNL     1       6.893  -4.779  22.933  1.00  0.00    -0.165 OA
BRANCH  21  22
HETATM   22  S   UNL     1       5.858  -4.970  21.777  1.00  0.00     0.451 S 
HETATM   23  F   UNL     1       6.484  -5.903  20.805  1.00  0.00    -0.081 F 
HETATM   24  O   UNL     1       4.779  -5.641  22.238  1.00  0.00    -0.163 OA
HETATM   25  O   UNL     1       5.665  -3.788  21.194  1.00  0.00    -0.163 OA
ENDBRANCH  21  22
ENDBRANCH  20  21
ENDBRANCH   1  20
TORSDOF 8
ENDMDL
MODEL 9
REMARK VINA RESULT:    -5.376     23.184     24.917
REMARK INTER + INTRA:          -8.658
REMARK INTER:                  -7.655
REMARK INTRA:                  -1.003
REMARK UNBOUND:                -0.768
REMARK  8 active torsions:
REMARK  status: ('A' for Active; 'I' for Inactive)
REMARK    1  A    between atoms: S_2  and  O_5 
REMARK    2  A    between atoms: O_5  and  C_6 
REMARK    3  A    between atoms: C_6  and  C_7 
REMARK    4  A    between atoms: C_8  and  O_13 
REMARK    5  A    between atoms: C_8  and  N_14 
REMARK    6  A    between atoms: N_11  and  O_13 
REMARK       I    between atoms: N_14  and  C_16 
REMARK       I    between atoms: C_16  and  N_18 
REMARK    7  A    between atoms: N_18  and  C_20 
REMARK    8  A    between atoms: C_24  and  C_25 
ROOT
HETATM    1  C   UNL     1       9.963  -1.137  23.555  1.00  0.00     0.311 A 
HETATM    2  C   UNL     1       9.495  -2.393  23.362  1.00  0.00     0.316 A 
HETATM    3  O   UNL     1      10.797  -2.211  23.352  1.00  0.00    -0.307 OA
ENDROOT
BRANCH   2   4
HETATM    4  O   UNL     1       8.871  -3.213  24.341  1.00  0.00    -0.208 OA
BRANCH   4   5
HETATM    5  N   UNL     1       8.559  -2.671  25.587  1.00  0.00    -0.240 N 
HETATM    6  C   UNL     1       7.860  -3.432  26.080  1.00  0.00     0.085 C 
ATOM      7  HN  UNL     1       8.884  -1.786  25.976  1.00  0.00     0.203 HD
ENDBRANCH   4   5
ENDBRANCH   2   4
BRANCH   2   8
HETATM    8  N   UNL     1       8.814  -2.280  22.151  1.00  0.00    -0.283 N 
HETATM    9  C   UNL     1       7.613  -1.851  21.790  1.00  0.00     0.324 C 
HETATM   10  O   UNL     1       6.607  -2.520  21.949  1.00  0.00    -0.247 OA
HETATM   11  N   UNL     1       7.629  -0.612  21.160  1.00  0.00    -0.319 N 
ATOM     12  HN  UNL     1       8.243   0.096  21.563  1.00  0.00     0.170 HD
ATOM     13  HN  UNL     1       9.368  -2.604  21.358  1.00  0.00     0.169 HD
BRANCH  11  14
HETATM   14  C   UNL     1       6.973  -0.277  20.157  1.00  0.00     0.094 C 
HETATM   15  C   UNL     1       7.069   0.266  18.997  1.00  0.00     0.034 C 
BRANCH  15  16
HETATM   16  C   UNL     1       5.726   0.375  18.714  1.00  0.00     0.082 C 
HETATM   17  N   UNL     1       5.607  -0.410  17.755  1.00  0.00    -0.408 N 
HETATM   18  H   UNL     1       5.425  -1.294  17.440  1.00  0.00     0.155 HD
ATOM     19  HN  UNL     1       5.786   0.148  16.920  1.00  0.00     0.155 HD
ENDBRANCH  15  16
ENDBRANCH  11  14
ENDBRANCH   2   8
BRANCH   1  20
HETATM   20  C   UNL     1       9.886   0.122  23.758  1.00  0.00     0.037 C 
BRANCH  20  21
HETATM   21  O   UNL     1       9.684   1.296  23.734  1.00  0.00    -0.165 OA
BRANCH  21  22
HETATM   22  S   UNL     1       9.684   2.387  22.615  1.00  0.00     0.451 S 
HETATM   23  F   UNL     1      11.041   2.991  22.619  1.00  0.00    -0.081 F 
HETATM   24  O   UNL     1       9.582   1.797  21.403  1.00  0.00    -0.163 OA
HETATM   25  O   UNL     1       8.786   3.316  22.941  1.00  0.00    -0.163 OA
ENDBRANCH  21  22
ENDBRANCH  20  21
ENDBRANCH   1  20
TORSDOF 8
ENDMDL
