REMARK  8 active torsions:
REMARK  status: ('A' for Active; 'I' for Inactive)
REMARK    1  A    between atoms: S_2  and  O_5 
REMARK    2  A    between atoms: O_5  and  C_6 
REMARK    3  A    between atoms: C_6  and  C_7 
REMARK    4  A    between atoms: C_8  and  O_13 
REMARK    5  A    between atoms: C_8  and  N_14 
REMARK    6  A    between atoms: N_11  and  O_13 
REMARK       I    between atoms: N_14  and  C_16 
REMARK       I    between atoms: C_16  and  N_18 
REMARK    7  A    between atoms: N_18  and  C_20 
REMARK    8  A    between atoms: C_24  and  C_25 
ROOT
HETATM    1  C   UNL     1       9.886  -1.873  23.994  1.00  0.00     0.311 A 
HETATM    2  C   UNL     1      10.532  -1.022  23.162  1.00  0.00     0.316 A 
HETATM    3  O   UNL     1      10.798  -0.949  24.447  1.00  0.00    -0.307 OA
ENDROOT
BRANCH   2   4
HETATM    4  O   UNL     1      11.535  -1.375  22.219  1.00  0.00    -0.208 OA
BRANCH   4   5
HETATM    5  N   UNL     1      12.876  -1.165  22.537  1.00  0.00    -0.240 N 
HETATM    6  C   UNL     1      12.870  -0.373  23.364  1.00  0.00     0.085 C 
ATOM      7  HN  UNL     1      13.689  -1.620  22.122  1.00  0.00     0.203 HD
ENDBRANCH   4   5
ENDBRANCH   2   4
BRANCH   2   8
HETATM    8  N   UNL     1       9.494  -0.234  22.667  1.00  0.00    -0.283 N 
HETATM    9  C   UNL     1       9.135   0.192  21.464  1.00  0.00     0.324 C 
HETATM   10  O   UNL     1       9.701   1.115  20.905  1.00  0.00    -0.247 OA
HETATM   11  N   UNL     1       8.025  -0.465  20.948  1.00  0.00    -0.319 N 
ATOM     12  HN  UNL     1       7.990  -1.476  21.081  1.00  0.00     0.170 HD
ATOM     13  HN  UNL     1       8.864   0.090  23.401  1.00  0.00     0.169 HD
BRANCH  11  14
HETATM   14  C   UNL     1       7.069   0.051  20.340  1.00  0.00     0.094 C 
HETATM   15  C   UNL     1       5.869   0.485  20.485  1.00  0.00     0.034 C 
BRANCH  15  16
HETATM   16  C   UNL     1       5.568   0.693  19.158  1.00  0.00     0.082 C 
HETATM   17  N   UNL     1       6.658   0.442  18.611  1.00  0.00    -0.408 N 
HETATM   18  H   UNL     1       7.239  -0.196  18.201  1.00  0.00     0.155 HD
ATOM     19  HN  UNL     1       7.165   1.327  18.592  1.00  0.00     0.155 HD
ENDBRANCH  15  16
ENDBRANCH  11  14
ENDBRANCH   2   8
BRANCH   1  20
HETATM   20  C   UNL     1       9.075  -2.807  24.314  1.00  0.00     0.037 C 
BRANCH  20  21
HETATM   21  O   UNL     1       8.270  -3.531  24.810  1.00  0.00    -0.165 OA
BRANCH  21  22
HETATM   22  S   UNL     1       8.209  -4.365  26.131  1.00  0.00     0.451 S 
HETATM   23  F   UNL     1       6.794  -4.784  26.297  1.00  0.00    -0.081 F 
HETATM   24  O   UNL     1       8.886  -5.524  25.969  1.00  0.00    -0.163 OA
HETATM   25  O   UNL     1       8.555  -3.568  27.141  1.00  0.00    -0.163 OA
ENDBRANCH  21  22
ENDBRANCH  20  21
ENDBRANCH   1  20
TORSDOF 8
