stable:False satoms:17 tatoms:24 sratio:0.7083333333333334
  -OEChem-08062407413D

 33 34  0     1  0  0  0  0  0999 V2000
    7.0233   -2.3050   21.2631 H   0  0  0  0  0  0  0  0  0  0  0  0
    8.0302   -2.6729   21.5745 C   0  0  0  0  0  0  0  0  0  0  0  0
    8.3320   -3.4804   20.8853 H   0  0  0  0  0  0  0  0  0  0  0  0
    7.9527   -3.0805   22.6069 H   0  0  0  0  0  0  0  0  0  0  0  0
    8.9826   -1.6263   21.5001 N   0  3  0  0  0  0  0  0  0  0  0  0
    9.9176   -1.5948   22.2406 C   0  0  0  0  0  0  0  0  0  0  0  0
   10.8663   -1.3161   22.9138 C   0  0  0  0  0  0  0  0  0  0  0  0
   12.0310   -1.0701   23.4551 C   0  0  3  0  0  0  0  0  0  0  0  0
   12.8142   -1.9263   25.3560 H   0  0  0  0  0  0  0  0  0  0  0  0
   13.4571   -3.3359   24.6814 H   0  0  0  0  0  0  0  0  0  0  0  0
   14.4503   -1.9044   24.6440 H   0  0  0  0  0  0  0  0  0  0  0  0
   13.4731   -2.2863   24.5225 C   0  0  0  0  0  0  0  0  0  0  0  0
   13.0046   -1.9473   23.2236 O   0  0  0  0  0  0  0  0  0  0  0  0
   12.4129    0.1373   24.0705 C   0  0  3  0  0  0  0  0  0  0  0  0
   11.9881    1.7499   23.7581 C   0  0  1  0  0  0  0  0  0  0  0  0
   13.0422    0.7596   24.7374 O   0  0  0  0  0  0  0  0  0  0  0  0
   11.6341    2.3516   23.2637 N   0  3  0  0  0  0  0  0  0  0  0  0
   11.4285    3.4067   23.6539 C   0  0  1  0  0  0  0  0  0  0  0  0
   12.1082    5.1103   23.3316 C   0  0  0  0  0  0  0  0  0  0  0  0
   12.2791    4.0566   23.1673 H   0  0  0  0  0  0  0  0  0  0  0  0
   11.1024    5.4850   23.9444 C   0  0  0  0  0  0  0  0  0  0  0  0
   10.6564    6.3623   24.2893 H   0  0  0  0  0  0  0  0  0  0  0  0
   10.5187    4.1594   24.2065 C   0  0  3  0  0  0  0  0  0  0  0  0
   10.4213    3.9603   25.2839 H   0  0  0  0  0  0  0  0  0  0  0  0
    8.4798   -0.7733   21.6399 H   0  0  0  0  0  0  0  0  0  0  0  0
   11.7545   -1.5373   24.4118 H   0  0  0  0  0  0  0  0  0  0  0  0
   11.6210    0.0438   24.8283 H   0  0  0  0  0  0  0  0  0  0  0  0
   10.7529    1.9863   22.9636 H   0  0  0  0  0  0  0  0  0  0  0  0
   12.3692    3.9765   23.6740 H   0  0  0  0  0  0  0  0  0  0  0  0
   12.8161    5.8365   22.9603 H   0  0  0  0  0  0  0  0  0  0  0  0
    9.5385    4.0402   23.7215 H   0  0  0  0  0  0  0  0  0  0  0  0
    9.3549   -1.6455   20.5722 H   0  0  0  0  0  0  0  0  0  0  0  0
   12.2378    2.4569   22.4734 H   0  0  0  0  0  0  0  0  0  0  0  0
 19 20  1  0  0  0  0
 19 21  2  0  0  0  0
 21 22  1  0  0  0  0
 21 23  1  0  0  0  0
 18 23  1  0  0  0  0
 17 18  1  0  0  0  0
 15 18  1  0  0  0  0
 23 24  1  0  0  0  0
 15 17  1  0  0  0  0
 15 16  1  0  0  0  0
 14 15  1  0  0  0  0
 14 16  1  0  0  0  0
  8 14  1  0  0  0  0
 11 12  1  0  0  0  0
  8 13  1  0  0  0  0
  7  8  1  0  0  0  0
 12 13  1  0  0  0  0
  9 12  1  0  0  0  0
 10 12  1  0  0  0  0
  6  7  3  0  0  0  0
  5  6  1  0  0  0  0
  2  5  1  0  0  0  0
  1  2  1  0  0  0  0
  2  3  1  0  0  0  0
  2  4  1  0  0  0  0
  5 25  1  0  0  0  0
  8 26  1  0  0  0  0
 14 27  1  0  0  0  0
 17 28  1  0  0  0  0
 18 29  1  0  0  0  0
 19 30  1  0  0  0  0
 23 31  1  0  0  0  0
  5 32  1  0  0  0  0
 17 33  1  0  0  0  0
M  CHG  2   5   1  17   1
M  END
> <Chemgauss4>
-5.980235

$$$$
