stable:False satoms:17 tatoms:24 sratio:0.7083333333333334
  -OEChem-08062407413D

 33 34  0     1  0  0  0  0  0999 V2000
   -5.9150    3.2663  -20.9893 H   0  0  0  0  0  0  0  0  0  0  0  0
   -5.6043    2.1948  -20.9466 C   0  0  0  0  0  0  0  0  0  0  0  0
   -4.9528    2.0583  -20.0663 H   0  0  0  0  0  0  0  0  0  0  0  0
   -5.0300    1.9574  -21.8694 H   0  0  0  0  0  0  0  0  0  0  0  0
   -6.7393    1.3572  -20.8120 N   0  3  0  0  0  0  0  0  0  0  0  0
   -6.7444    0.2544  -21.2675 C   0  0  0  0  0  0  0  0  0  0  0  0
   -7.0045   -0.8298  -21.7007 C   0  0  0  0  0  0  0  0  0  0  0  0
   -7.2754   -2.0855  -21.9453 C   0  0  3  0  0  0  0  0  0  0  0  0
   -6.2068   -3.4153  -23.3769 H   0  0  0  0  0  0  0  0  0  0  0  0
   -4.9959   -3.9140  -22.3089 H   0  0  0  0  0  0  0  0  0  0  0  0
   -6.5069   -4.7814  -22.2686 H   0  0  0  0  0  0  0  0  0  0  0  0
   -6.0537   -3.8305  -22.3460 C   0  0  0  0  0  0  0  0  0  0  0  0
   -6.5490   -2.9983  -21.3049 O   0  0  0  0  0  0  0  0  0  0  0  0
   -8.3999   -2.5626  -22.6456 C   0  0  3  0  0  0  0  0  0  0  0  0
   -9.9910   -1.9845  -22.7585 C   0  0  1  0  0  0  0  0  0  0  0  0
   -8.9664   -3.3213  -23.2213 O   0  0  0  0  0  0  0  0  0  0  0  0
  -10.6261   -1.4752  -22.4957 N   0  3  0  0  0  0  0  0  0  0  0  0
  -11.5785   -1.3337  -23.1126 C   0  0  1  0  0  0  0  0  0  0  0  0
  -13.3711   -1.8065  -22.9367 C   0  0  0  0  0  0  0  0  0  0  0  0
  -12.3802   -1.9782  -22.5430 H   0  0  0  0  0  0  0  0  0  0  0  0
  -13.5395   -0.9961  -23.8546 C   0  0  0  0  0  0  0  0  0  0  0  0
  -14.3006   -0.6206  -24.4607 H   0  0  0  0  0  0  0  0  0  0  0  0
  -12.1373   -0.5788  -24.0168 C   0  0  3  0  0  0  0  0  0  0  0  0
  -11.7584   -0.7992  -25.0257 H   0  0  0  0  0  0  0  0  0  0  0  0
   -7.5039    1.8435  -21.2349 H   0  0  0  0  0  0  0  0  0  0  0  0
   -6.6348   -2.1141  -22.8390 H   0  0  0  0  0  0  0  0  0  0  0  0
   -8.1067   -2.0221  -23.5576 H   0  0  0  0  0  0  0  0  0  0  0  0
  -10.2275   -0.5652  -22.3815 H   0  0  0  0  0  0  0  0  0  0  0  0
  -12.2289   -2.2114  -22.9836 H   0  0  0  0  0  0  0  0  0  0  0  0
  -14.2149   -2.3428  -22.5284 H   0  0  0  0  0  0  0  0  0  0  0  0
  -12.0003    0.4907  -23.7993 H   0  0  0  0  0  0  0  0  0  0  0  0
   -6.9073    1.2608  -19.8309 H   0  0  0  0  0  0  0  0  0  0  0  0
  -10.9173   -1.8256  -21.6055 H   0  0  0  0  0  0  0  0  0  0  0  0
 19 20  1  0  0  0  0
 19 21  2  0  0  0  0
 21 22  1  0  0  0  0
 21 23  1  0  0  0  0
 18 23  1  0  0  0  0
 17 18  1  0  0  0  0
 15 18  1  0  0  0  0
 23 24  1  0  0  0  0
 15 17  1  0  0  0  0
 15 16  1  0  0  0  0
 14 15  1  0  0  0  0
 14 16  1  0  0  0  0
  8 14  1  0  0  0  0
 11 12  1  0  0  0  0
  8 13  1  0  0  0  0
  7  8  1  0  0  0  0
 12 13  1  0  0  0  0
  9 12  1  0  0  0  0
 10 12  1  0  0  0  0
  6  7  3  0  0  0  0
  5  6  1  0  0  0  0
  2  5  1  0  0  0  0
  1  2  1  0  0  0  0
  2  3  1  0  0  0  0
  2  4  1  0  0  0  0
  5 25  1  0  0  0  0
  8 26  1  0  0  0  0
 14 27  1  0  0  0  0
 17 28  1  0  0  0  0
 18 29  1  0  0  0  0
 19 30  1  0  0  0  0
 23 31  1  0  0  0  0
  5 32  1  0  0  0  0
 17 33  1  0  0  0  0
M  CHG  2   5   1  17   1
M  END
> <Chemgauss4>
-6.509254

$$$$
