REMARK  7 active torsions:
REMARK  status: ('A' for Active; 'I' for Inactive)
REMARK    1  A    between atoms: C_2  and  N_4 
REMARK    2  A    between atoms: C_3  and  N_6 
REMARK    3  A    between atoms: N_4  and  C_9 
REMARK    4  A    between atoms: C_9  and  O_10 
REMARK    5  A    between atoms: O_10  and  C_12 
REMARK    6  A    between atoms: C_12  and  C_13 
REMARK    7  A    between atoms: C_13  and  O_14 
ROOT
HETATM    1  C   UNL     1      11.081  -0.020  22.625  1.00  0.00     0.063 C 
HETATM    2  C   UNL     1       9.540   0.137  22.925  1.00  0.00     0.226 C 
ENDROOT
BRANCH   2   3
HETATM    3  N   UNL     1       8.813  -0.886  23.579  1.00  0.00    -0.359 N 
ATOM      4  HN  UNL     1       7.952  -0.749  24.108  1.00  0.00     0.162 HD
BRANCH   3   5
HETATM    5  C   UNL     1       9.395  -1.999  23.407  1.00  0.00     0.185 C 
HETATM    6  N   UNL     1       9.913  -2.779  24.361  1.00  0.00    -0.322 N 
ATOM      7  HN  UNL     1      10.835  -2.602  24.759  1.00  0.00     0.176 HD
BRANCH   6   8
HETATM    8  C   UNL     1       9.229  -3.703  24.724  1.00  0.00    -0.075 C 
HETATM    9  C   UNL     1       8.632  -4.692  25.496  1.00  0.00     0.123 C 
ENDBRANCH   6   8
ENDBRANCH   3   5
ENDBRANCH   2   3
BRANCH   2  10
HETATM   10  O   UNL     1       8.785   0.644  21.772  1.00  0.00    -0.294 OA
BRANCH  10  11
HETATM   11  C   UNL     1       8.013  -0.181  20.968  1.00  0.00     0.277 C 
HETATM   12  O   UNL     1       8.200  -1.294  20.959  1.00  0.00    -0.263 OA
BRANCH  11  13
HETATM   13  C   UNL     1       6.795   0.343  19.746  1.00  0.00     0.290 C 
BRANCH  13  14
HETATM   14  O   UNL     1       6.309   1.488  20.500  1.00  0.00    -0.398 OA
HETATM   15  H   UNL     1       6.031   1.303  21.414  1.00  0.00     0.209 HD
ENDBRANCH  13  14
ENDBRANCH  11  13
ENDBRANCH  10  11
ENDBRANCH   2  10
TORSDOF 7
