MODEL 1
REMARK VINA RESULT:    -4.820      0.000      0.000
REMARK INTER + INTRA:          -6.960
REMARK INTER:                  -6.229
REMARK INTRA:                  -0.731
REMARK UNBOUND:                -0.731
REMARK  7 active torsions:
REMARK  status: ('A' for Active; 'I' for Inactive)
REMARK    1  A    between atoms: C_2  and  N_4 
REMARK    2  A    between atoms: C_3  and  N_6 
REMARK    3  A    between atoms: N_4  and  C_9 
REMARK    4  A    between atoms: C_9  and  O_10 
REMARK    5  A    between atoms: O_10  and  C_12 
REMARK    6  A    between atoms: C_12  and  C_13 
REMARK    7  A    between atoms: C_13  and  O_14 
ROOT
HETATM    1  C   UNL     1       7.356  13.681   4.207  1.00  0.00     0.063 C 
HETATM    2  C   UNL     1       8.550  12.729   3.808  1.00  0.00     0.226 C 
ENDROOT
BRANCH   2   3
HETATM    3  N   UNL     1       9.648  13.208   3.054  1.00  0.00    -0.359 N 
ATOM      4  HN  UNL     1      10.232  12.640   2.440  1.00  0.00     0.162 HD
BRANCH   3   5
HETATM    5  C   UNL     1       9.794  14.450   3.256  1.00  0.00     0.185 C 
HETATM    6  N   UNL     1      10.041  15.381   2.329  1.00  0.00    -0.322 N 
ATOM      7  HN  UNL     1      10.981  15.547   1.970  1.00  0.00     0.176 HD
BRANCH   6   8
HETATM    8  C   UNL     1       9.091  16.014   1.942  1.00  0.00    -0.075 C 
HETATM    9  C   UNL     1       7.794  16.451   1.701  1.00  0.00     0.123 C 
ENDBRANCH   6   8
ENDBRANCH   3   5
ENDBRANCH   2   3
BRANCH   2  10
HETATM   10  O   UNL     1       8.095  11.435   3.284  1.00  0.00    -0.294 OA
BRANCH  10  11
HETATM   11  C   UNL     1       6.901  11.291   2.593  1.00  0.00     0.277 C 
HETATM   12  O   UNL     1       6.108  10.588   2.979  1.00  0.00    -0.263 OA
BRANCH  11  13
HETATM   13  C   UNL     1       6.501  11.996   0.982  1.00  0.00     0.290 C 
BRANCH  13  14
HETATM   14  O   UNL     1       7.161  10.963   0.198  1.00  0.00    -0.398 OA
HETATM   15  H   UNL     1       6.752  10.761  -0.662  1.00  0.00     0.209 HD
ENDBRANCH  13  14
ENDBRANCH  11  13
ENDBRANCH  10  11
ENDBRANCH   2  10
TORSDOF 7
ENDMDL
MODEL 2
REMARK VINA RESULT:    -4.815      2.494      4.702
REMARK INTER + INTRA:          -6.954
REMARK INTER:                  -6.042
REMARK INTRA:                  -0.912
REMARK UNBOUND:                -0.731
REMARK  7 active torsions:
REMARK  status: ('A' for Active; 'I' for Inactive)
REMARK    1  A    between atoms: C_2  and  N_4 
REMARK    2  A    between atoms: C_3  and  N_6 
REMARK    3  A    between atoms: N_4  and  C_9 
REMARK    4  A    between atoms: C_9  and  O_10 
REMARK    5  A    between atoms: O_10  and  C_12 
REMARK    6  A    between atoms: C_12  and  C_13 
REMARK    7  A    between atoms: C_13  and  O_14 
ROOT
HETATM    1  C   UNL     1       7.720  16.625   1.640  1.00  0.00     0.063 C 
HETATM    2  C   UNL     1       8.606  15.351   1.925  1.00  0.00     0.226 C 
ENDROOT
BRANCH   2   3
HETATM    3  N   UNL     1       8.537  14.209   1.092  1.00  0.00    -0.359 N 
ATOM      4  HN  UNL     1       9.315  13.827   0.554  1.00  0.00     0.162 HD
BRANCH   3   5
HETATM    5  C   UNL     1       7.362  13.734   1.116  1.00  0.00     0.185 C 
HETATM    6  N   UNL     1       7.021  12.453   0.951  1.00  0.00    -0.322 N 
ATOM      7  HN  UNL     1       6.942  12.032   0.026  1.00  0.00     0.176 HD
BRANCH   6   8
HETATM    8  C   UNL     1       6.813  11.822   1.958  1.00  0.00    -0.075 C 
HETATM    9  C   UNL     1       6.982  11.111   3.139  1.00  0.00     0.123 C 
ENDBRANCH   6   8
ENDBRANCH   3   5
ENDBRANCH   2   3
BRANCH   2  10
HETATM   10  O   UNL     1       8.592  14.954   3.339  1.00  0.00    -0.294 OA
BRANCH  10  11
HETATM   11  C   UNL     1       9.631  14.243   3.922  1.00  0.00     0.277 C 
HETATM   12  O   UNL     1       9.675  13.121   3.814  1.00  0.00    -0.263 OA
BRANCH  11  13
HETATM   13  C   UNL     1      10.896  14.900   5.027  1.00  0.00     0.290 C 
BRANCH  13  14
HETATM   14  O   UNL     1      11.878  15.168   3.988  1.00  0.00    -0.398 OA
HETATM   15  H   UNL     1      12.739  14.726   4.099  1.00  0.00     0.209 HD
ENDBRANCH  13  14
ENDBRANCH  11  13
ENDBRANCH  10  11
ENDBRANCH   2  10
TORSDOF 7
ENDMDL
MODEL 3
REMARK VINA RESULT:    -4.676      4.646      6.435
REMARK INTER + INTRA:          -6.774
REMARK INTER:                  -6.027
REMARK INTRA:                  -0.747
REMARK UNBOUND:                -0.731
REMARK  7 active torsions:
REMARK  status: ('A' for Active; 'I' for Inactive)
REMARK    1  A    between atoms: C_2  and  N_4 
REMARK    2  A    between atoms: C_3  and  N_6 
REMARK    3  A    between atoms: N_4  and  C_9 
REMARK    4  A    between atoms: C_9  and  O_10 
REMARK    5  A    between atoms: O_10  and  C_12 
REMARK    6  A    between atoms: C_12  and  C_13 
REMARK    7  A    between atoms: C_13  and  O_14 
ROOT
HETATM    1  C   UNL     1       7.574  17.002   2.329  1.00  0.00     0.063 C 
HETATM    2  C   UNL     1       8.870  16.959   1.430  1.00  0.00     0.226 C 
ENDROOT
BRANCH   2   3
HETATM    3  N   UNL     1       9.482  15.731   1.085  1.00  0.00    -0.359 N 
ATOM      4  HN  UNL     1       9.880  15.508   0.173  1.00  0.00     0.162 HD
BRANCH   3   5
HETATM    5  C   UNL     1       9.461  14.950   2.083  1.00  0.00     0.185 C 
HETATM    6  N   UNL     1      10.515  14.559   2.807  1.00  0.00    -0.322 N 
ATOM      7  HN  UNL     1      11.129  13.805   2.501  1.00  0.00     0.176 HD
BRANCH   6   8
HETATM    8  C   UNL     1      10.699  15.149   3.842  1.00  0.00    -0.075 C 
HETATM    9  C   UNL     1      10.559  16.008   4.926  1.00  0.00     0.123 C 
ENDBRANCH   6   8
ENDBRANCH   3   5
ENDBRANCH   2   3
BRANCH   2  10
HETATM   10  O   UNL     1       9.883  17.937   1.847  1.00  0.00    -0.294 OA
BRANCH  10  11
HETATM   11  C   UNL     1       9.994  19.189   1.260  1.00  0.00     0.277 C 
HETATM   12  O   UNL     1       9.610  19.355   0.212  1.00  0.00    -0.263 OA
BRANCH  11  13
HETATM   13  C   UNL     1      10.867  20.616   1.931  1.00  0.00     0.290 C 
BRANCH  13  14
HETATM   14  O   UNL     1      12.027  19.875   2.402  1.00  0.00    -0.398 OA
HETATM   15  H   UNL     1      12.684  20.393   2.898  1.00  0.00     0.209 HD
ENDBRANCH  13  14
ENDBRANCH  11  13
ENDBRANCH  10  11
ENDBRANCH   2  10
TORSDOF 7
ENDMDL
MODEL 4
REMARK VINA RESULT:    -4.612      2.633      4.761
REMARK INTER + INTRA:          -6.692
REMARK INTER:                  -5.913
REMARK INTRA:                  -0.779
REMARK UNBOUND:                -0.731
REMARK  7 active torsions:
REMARK  status: ('A' for Active; 'I' for Inactive)
REMARK    1  A    between atoms: C_2  and  N_4 
REMARK    2  A    between atoms: C_3  and  N_6 
REMARK    3  A    between atoms: N_4  and  C_9 
REMARK    4  A    between atoms: C_9  and  O_10 
REMARK    5  A    between atoms: O_10  and  C_12 
REMARK    6  A    between atoms: C_12  and  C_13 
REMARK    7  A    between atoms: C_13  and  O_14 
ROOT
HETATM    1  C   UNL     1       5.323  13.743   2.910  1.00  0.00     0.063 C 
HETATM    2  C   UNL     1       6.850  13.936   2.564  1.00  0.00     0.226 C 
ENDROOT
BRANCH   2   3
HETATM    3  N   UNL     1       7.516  13.058   1.675  1.00  0.00    -0.359 N 
ATOM      4  HN  UNL     1       8.528  12.979   1.575  1.00  0.00     0.162 HD
BRANCH   3   5
HETATM    5  C   UNL     1       6.663  12.386   1.021  1.00  0.00     0.185 C 
HETATM    6  N   UNL     1       6.673  11.063   0.830  1.00  0.00    -0.322 N 
ATOM      7  HN  UNL     1       7.250  10.627   0.111  1.00  0.00     0.176 HD
BRANCH   6   8
HETATM    8  C   UNL     1       5.963  10.414   1.557  1.00  0.00    -0.075 C 
HETATM    9  C   UNL     1       5.313   9.358   2.184  1.00  0.00     0.123 C 
ENDBRANCH   6   8
ENDBRANCH   3   5
ENDBRANCH   2   3
BRANCH   2  10
HETATM   10  O   UNL     1       7.677  14.183   3.752  1.00  0.00    -0.294 OA
BRANCH  10  11
HETATM   11  C   UNL     1       9.026  13.868   3.798  1.00  0.00     0.277 C 
HETATM   12  O   UNL     1       9.350  12.789   3.876  1.00  0.00    -0.263 OA
BRANCH  11  13
HETATM   13  C   UNL     1      10.398  15.031   3.924  1.00  0.00     0.290 C 
BRANCH  13  14
HETATM   14  O   UNL     1      11.046  14.633   2.684  1.00  0.00    -0.398 OA
HETATM   15  H   UNL     1      11.339  15.362   2.110  1.00  0.00     0.209 HD
ENDBRANCH  13  14
ENDBRANCH  11  13
ENDBRANCH  10  11
ENDBRANCH   2  10
TORSDOF 7
ENDMDL
MODEL 5
REMARK VINA RESULT:    -4.531      1.786      2.780
REMARK INTER + INTRA:          -6.586
REMARK INTER:                  -5.510
REMARK INTRA:                  -1.076
REMARK UNBOUND:                -0.731
REMARK  7 active torsions:
REMARK  status: ('A' for Active; 'I' for Inactive)
REMARK    1  A    between atoms: C_2  and  N_4 
REMARK    2  A    between atoms: C_3  and  N_6 
REMARK    3  A    between atoms: N_4  and  C_9 
REMARK    4  A    between atoms: C_9  and  O_10 
REMARK    5  A    between atoms: O_10  and  C_12 
REMARK    6  A    between atoms: C_12  and  C_13 
REMARK    7  A    between atoms: C_13  and  O_14 
ROOT
HETATM    1  C   UNL     1       8.109  16.362   1.699  1.00  0.00     0.063 C 
HETATM    2  C   UNL     1       8.269  15.004   2.488  1.00  0.00     0.226 C 
ENDROOT
BRANCH   2   3
HETATM    3  N   UNL     1       9.454  14.236   2.392  1.00  0.00    -0.359 N 
ATOM      4  HN  UNL     1       9.767  13.741   1.557  1.00  0.00     0.162 HD
BRANCH   3   5
HETATM    5  C   UNL     1      10.066  14.258   3.501  1.00  0.00     0.185 C 
HETATM    6  N   UNL     1      11.170  14.957   3.785  1.00  0.00    -0.322 N 
ATOM      7  HN  UNL     1      12.098  14.626   3.523  1.00  0.00     0.176 HD
BRANCH   6   8
HETATM    8  C   UNL     1      11.005  15.999   4.367  1.00  0.00    -0.075 C 
HETATM    9  C   UNL     1      10.502  16.993   5.198  1.00  0.00     0.123 C 
ENDBRANCH   6   8
ENDBRANCH   3   5
ENDBRANCH   2   3
BRANCH   2  10
HETATM   10  O   UNL     1       7.088  14.139   2.374  1.00  0.00    -0.294 OA
BRANCH  10  11
HETATM   11  C   UNL     1       7.113  12.932   1.691  1.00  0.00     0.277 C 
HETATM   12  O   UNL     1       7.122  12.923   0.563  1.00  0.00    -0.263 OA
BRANCH  11  13
HETATM   13  C   UNL     1       6.958  11.286   2.412  1.00  0.00     0.290 C 
BRANCH  13  14
HETATM   14  O   UNL     1       8.286  11.257   3.006  1.00  0.00    -0.398 OA
HETATM   15  H   UNL     1       8.877  10.556   2.680  1.00  0.00     0.209 HD
ENDBRANCH  13  14
ENDBRANCH  11  13
ENDBRANCH  10  11
ENDBRANCH   2  10
TORSDOF 7
ENDMDL
MODEL 6
REMARK VINA RESULT:    -4.438      1.741      2.491
REMARK INTER + INTRA:          -6.467
REMARK INTER:                  -5.924
REMARK INTRA:                  -0.543
REMARK UNBOUND:                -0.731
REMARK  7 active torsions:
REMARK  status: ('A' for Active; 'I' for Inactive)
REMARK    1  A    between atoms: C_2  and  N_4 
REMARK    2  A    between atoms: C_3  and  N_6 
REMARK    3  A    between atoms: N_4  and  C_9 
REMARK    4  A    between atoms: C_9  and  O_10 
REMARK    5  A    between atoms: O_10  and  C_12 
REMARK    6  A    between atoms: C_12  and  C_13 
REMARK    7  A    between atoms: C_13  and  O_14 
ROOT
HETATM    1  C   UNL     1       6.739  12.266   1.158  1.00  0.00     0.063 C 
HETATM    2  C   UNL     1       7.097  11.701   2.586  1.00  0.00     0.226 C 
ENDROOT
BRANCH   2   3
HETATM    3  N   UNL     1       8.424  11.739   3.078  1.00  0.00    -0.359 N 
ATOM      4  HN  UNL     1       9.088  10.967   3.037  1.00  0.00     0.162 HD
BRANCH   3   5
HETATM    5  C   UNL     1       8.661  12.881   3.576  1.00  0.00     0.185 C 
HETATM    6  N   UNL     1       9.707  13.665   3.300  1.00  0.00    -0.322 N 
ATOM      7  HN  UNL     1      10.617  13.523   3.738  1.00  0.00     0.176 HD
BRANCH   6   8
HETATM    8  C   UNL     1       9.515  14.550   2.505  1.00  0.00    -0.075 C 
HETATM    9  C   UNL     1       9.240  15.252   1.337  1.00  0.00     0.123 C 
ENDBRANCH   6   8
ENDBRANCH   3   5
ENDBRANCH   2   3
BRANCH   2  10
HETATM   10  O   UNL     1       6.493  10.388   2.847  1.00  0.00    -0.294 OA
BRANCH  10  11
HETATM   11  C   UNL     1       5.303   9.988   2.258  1.00  0.00     0.277 C 
HETATM   12  O   UNL     1       5.318   9.256   1.399  1.00  0.00    -0.263 OA
BRANCH  11  13
HETATM   13  C   UNL     1       3.660  10.648   2.598  1.00  0.00     0.290 C 
BRANCH  13  14
HETATM   14  O   UNL     1       3.518  11.354   1.334  1.00  0.00    -0.398 OA
HETATM   15  H   UNL     1       2.689  11.189   0.851  1.00  0.00     0.209 HD
ENDBRANCH  13  14
ENDBRANCH  11  13
ENDBRANCH  10  11
ENDBRANCH   2  10
TORSDOF 7
ENDMDL
MODEL 7
REMARK VINA RESULT:    -4.426     21.732     23.117
REMARK INTER + INTRA:          -6.451
REMARK INTER:                  -5.582
REMARK INTRA:                  -0.869
REMARK UNBOUND:                -0.731
REMARK  7 active torsions:
REMARK  status: ('A' for Active; 'I' for Inactive)
REMARK    1  A    between atoms: C_2  and  N_4 
REMARK    2  A    between atoms: C_3  and  N_6 
REMARK    3  A    between atoms: N_4  and  C_9 
REMARK    4  A    between atoms: C_9  and  O_10 
REMARK    5  A    between atoms: O_10  and  C_12 
REMARK    6  A    between atoms: C_12  and  C_13 
REMARK    7  A    between atoms: C_13  and  O_14 
ROOT
HETATM    1  C   UNL     1       9.712   1.851  22.155  1.00  0.00     0.063 C 
HETATM    2  C   UNL     1       8.817   0.722  21.511  1.00  0.00     0.226 C 
ENDROOT
BRANCH   2   3
HETATM    3  N   UNL     1       9.389  -0.476  21.021  1.00  0.00    -0.359 N 
ATOM      4  HN  UNL     1       9.606  -0.667  20.043  1.00  0.00     0.162 HD
BRANCH   3   5
HETATM    5  C   UNL     1       9.590  -1.276  21.984  1.00  0.00     0.185 C 
HETATM    6  N   UNL     1      10.738  -1.897  22.272  1.00  0.00    -0.322 N 
ATOM      7  HN  UNL     1      11.027  -2.747  21.787  1.00  0.00     0.176 HD
BRANCH   6   8
HETATM    8  C   UNL     1      11.412  -1.397  23.137  1.00  0.00    -0.075 C 
HETATM    9  C   UNL     1      12.102  -0.481  23.922  1.00  0.00     0.123 C 
ENDBRANCH   6   8
ENDBRANCH   3   5
ENDBRANCH   2   3
BRANCH   2  10
HETATM   10  O   UNL     1       7.839   1.251  20.552  1.00  0.00    -0.294 OA
BRANCH  10  11
HETATM   11  C   UNL     1       6.852   0.460  19.983  1.00  0.00     0.277 C 
HETATM   12  O   UNL     1       6.427  -0.411  20.561  1.00  0.00    -0.263 OA
BRANCH  11  13
HETATM   13  C   UNL     1       6.248   0.549  18.286  1.00  0.00     0.290 C 
BRANCH  13  14
HETATM   14  O   UNL     1       4.915   1.021  18.626  1.00  0.00    -0.398 OA
HETATM   15  H   UNL     1       4.747   1.965  18.456  1.00  0.00     0.209 HD
ENDBRANCH  13  14
ENDBRANCH  11  13
ENDBRANCH  10  11
ENDBRANCH   2  10
TORSDOF 7
ENDMDL
MODEL 8
REMARK VINA RESULT:    -4.379      2.037      2.891
REMARK INTER + INTRA:          -6.390
REMARK INTER:                  -5.705
REMARK INTRA:                  -0.685
REMARK UNBOUND:                -0.731
REMARK  7 active torsions:
REMARK  status: ('A' for Active; 'I' for Inactive)
REMARK    1  A    between atoms: C_2  and  N_4 
REMARK    2  A    between atoms: C_3  and  N_6 
REMARK    3  A    between atoms: N_4  and  C_9 
REMARK    4  A    between atoms: C_9  and  O_10 
REMARK    5  A    between atoms: O_10  and  C_12 
REMARK    6  A    between atoms: C_12  and  C_13 
REMARK    7  A    between atoms: C_13  and  O_14 
ROOT
HETATM    1  C   UNL     1       9.952  15.604   4.740  1.00  0.00     0.063 C 
HETATM    2  C   UNL     1      10.074  14.813   3.380  1.00  0.00     0.226 C 
ENDROOT
BRANCH   2   3
HETATM    3  N   UNL     1       9.614  15.371   2.164  1.00  0.00    -0.359 N 
ATOM      4  HN  UNL     1       9.618  14.897   1.261  1.00  0.00     0.162 HD
BRANCH   3   5
HETATM    5  C   UNL     1       9.195  16.550   2.368  1.00  0.00     0.185 C 
HETATM    6  N   UNL     1       9.720  17.675   1.871  1.00  0.00    -0.322 N 
ATOM      7  HN  UNL     1      10.534  18.121   2.293  1.00  0.00     0.176 HD
BRANCH   6   8
HETATM    8  C   UNL     1       9.176  18.132   0.896  1.00  0.00    -0.075 C 
HETATM    9  C   UNL     1       8.216  18.551  -0.016  1.00  0.00     0.123 C 
ENDBRANCH   6   8
ENDBRANCH   3   5
ENDBRANCH   2   3
BRANCH   2  10
HETATM   10  O   UNL     1       9.644  13.414   3.496  1.00  0.00    -0.294 OA
BRANCH  10  11
HETATM   11  C   UNL     1       8.309  13.041   3.461  1.00  0.00     0.277 C 
HETATM   12  O   UNL     1       7.503  13.823   3.571  1.00  0.00    -0.263 OA
BRANCH  11  13
HETATM   13  C   UNL     1       7.663  11.358   3.428  1.00  0.00     0.290 C 
BRANCH  13  14
HETATM   14  O   UNL     1       8.505  10.853   4.501  1.00  0.00    -0.398 OA
HETATM   15  H   UNL     1       8.486  11.364   5.328  1.00  0.00     0.209 HD
ENDBRANCH  13  14
ENDBRANCH  11  13
ENDBRANCH  10  11
ENDBRANCH   2  10
TORSDOF 7
ENDMDL
MODEL 9
REMARK VINA RESULT:    -4.302      3.656      5.181
REMARK INTER + INTRA:          -6.291
REMARK INTER:                  -4.876
REMARK INTRA:                  -1.414
REMARK UNBOUND:                -0.731
REMARK  7 active torsions:
REMARK  status: ('A' for Active; 'I' for Inactive)
REMARK    1  A    between atoms: C_2  and  N_4 
REMARK    2  A    between atoms: C_3  and  N_6 
REMARK    3  A    between atoms: N_4  and  C_9 
REMARK    4  A    between atoms: C_9  and  O_10 
REMARK    5  A    between atoms: O_10  and  C_12 
REMARK    6  A    between atoms: C_12  and  C_13 
REMARK    7  A    between atoms: C_13  and  O_14 
ROOT
HETATM    1  C   UNL     1       7.745  14.822   2.334  1.00  0.00     0.063 C 
HETATM    2  C   UNL     1       8.423  16.247   2.322  1.00  0.00     0.226 C 
ENDROOT
BRANCH   2   3
HETATM    3  N   UNL     1       9.407  16.581   1.362  1.00  0.00    -0.359 N 
ATOM      4  HN  UNL     1      10.224  16.014   1.135  1.00  0.00     0.162 HD
BRANCH   3   5
HETATM    5  C   UNL     1       9.119  17.693   0.826  1.00  0.00     0.185 C 
HETATM    6  N   UNL     1       8.785  18.819   1.465  1.00  0.00    -0.322 N 
ATOM      7  HN  UNL     1       7.839  18.982   1.807  1.00  0.00     0.176 HD
BRANCH   6   8
HETATM    8  C   UNL     1       9.665  19.629   1.613  1.00  0.00    -0.075 C 
HETATM    9  C   UNL     1      10.865  20.241   1.955  1.00  0.00     0.123 C 
ENDBRANCH   6   8
ENDBRANCH   3   5
ENDBRANCH   2   3
BRANCH   2  10
HETATM   10  O   UNL     1       8.841  16.689   3.658  1.00  0.00    -0.294 OA
BRANCH  10  11
HETATM   11  C   UNL     1      10.144  16.555   4.112  1.00  0.00     0.277 C 
HETATM   12  O   UNL     1      10.825  17.455   4.145  1.00  0.00    -0.263 OA
BRANCH  11  13
HETATM   13  C   UNL     1      10.986  15.014   4.521  1.00  0.00     0.290 C 
BRANCH  13  14
HETATM   14  O   UNL     1      11.227  14.604   3.147  1.00  0.00    -0.398 OA
HETATM   15  H   UNL     1      10.432  14.413   2.619  1.00  0.00     0.209 HD
ENDBRANCH  13  14
ENDBRANCH  11  13
ENDBRANCH  10  11
ENDBRANCH   2  10
TORSDOF 7
ENDMDL
