stable:False satoms:18 tatoms:24 sratio:0.75
  -OEChem-07092417363D

 24 23  0     1  0  0  0  0  0999 V2000
    7.5244   -4.7579   25.3961 H   0  0  0  0  0  0  0  0  0  0  0  0
    8.6321   -4.6918   25.4956 C   0  0  0  0  0  0  0  0  0  0  0  0
    9.0507   -5.6896   25.2778 H   0  0  0  0  0  0  0  0  0  0  0  0
    8.8612   -4.4331   26.5391 H   0  0  0  0  0  0  0  0  0  0  0  0
    9.3946   -1.9993   23.4068 C   0  0  0  0  0  0  0  0  0  0  0  0
    9.2292   -3.7027   24.7235 C   0  0  0  0  0  0  0  0  0  0  0  0
    8.8132   -0.8862   23.5792 N   0  0  0  0  0  0  0  0  0  0  0  0
    9.9133   -2.7793   24.3608 N   0  0  0  0  0  0  0  0  0  0  0  0
    9.5220    0.9702   23.6743 H   0  0  0  0  0  0  0  0  0  0  0  0
   11.5034    0.9716   22.4508 H   0  0  0  0  0  0  0  0  0  0  0  0
   11.6119   -0.4297   23.4880 H   0  0  0  0  0  0  0  0  0  0  0  0
   11.0814   -0.0199   22.6252 C   0  0  0  0  0  0  0  0  0  0  0  0
   11.2156   -0.6546   21.7482 H   0  0  0  0  0  0  0  0  0  0  0  0
    9.5405    0.1373   22.9254 C   0  0  1  0  0  0  0  0  0  0  0  0
    9.5736   -2.2196   22.3385 H   0  0  0  0  0  0  0  0  0  0  0  0
    8.7848    0.6443   21.7723 O   0  0  0  0  0  0  0  0  0  0  0  0
    8.1996   -1.2944   20.9592 O   0  0  0  0  0  0  0  0  0  0  0  0
    8.0128   -0.1812   20.9683 C   0  0  0  0  0  0  0  0  0  0  0  0
    6.7946    0.3431   19.7460 C   0  0  0  0  0  0  0  0  0  0  0  0
    7.6086    0.8665   19.1752 H   0  0  0  0  0  0  0  0  0  0  0  0
    6.2740    0.1777   18.6075 H   0  0  0  0  0  0  0  0  0  0  0  0
    6.1035   -0.4524   20.1243 H   0  0  0  0  0  0  0  0  0  0  0  0
    6.3085    1.4881   20.5004 O   0  0  0  0  0  0  0  0  0  0  0  0
    6.0306    1.3027   21.4143 H   0  0  0  0  0  0  0  0  0  0  0  0
 19 21  1  0  0  0  0
 19 20  1  0  0  0  0
 19 22  1  0  0  0  0
 19 23  1  0  0  0  0
 18 19  1  0  0  0  0
 23 24  1  0  0  0  0
 17 18  2  0  0  0  0
 16 18  1  0  0  0  0
 12 13  1  0  0  0  0
 14 16  1  0  0  0  0
  5 15  1  0  0  0  0
 10 12  1  0  0  0  0
 12 14  1  0  0  0  0
 11 12  1  0  0  0  0
  7 14  1  0  0  0  0
  9 14  1  0  0  0  0
  5  7  2  3  0  0  0
  5  8  1  0  0  0  0
  6  8  1  0  0  0  0
  2  6  1  0  0  0  0
  2  3  1  0  0  0  0
  1  2  1  0  0  0  0
  2  4  1  0  0  0  0
M  END
> <Shapegauss>
-121.903503

$$$$
