stable:False satoms:6 tatoms:24 sratio:0.25
  -OEChem-07092417453D

 24 25  0     1  0  0  0  0  0999 V2000
    6.5628   -4.8623   26.4390 C   0  0  0  0  0  0  0  0  0  0  0  0
    8.2225   -4.2992   26.0849 S   0  0  0  0  0  0  0  0  0  0  0  0
    9.0700   -5.4567   26.0134 O   0  0  0  0  0  0  0  0  0  0  0  0
    8.5844   -3.4211   27.1300 O   0  0  0  0  0  0  0  0  0  0  0  0
    8.0928   -3.5485   24.6622 N   0  0  0  0  0  0  0  0  0  0  0  0
    8.9151   -2.8843   24.1288 C   0  0  0  0  0  0  0  0  0  0  0  0
    9.4036   -1.9985   23.5115 C   0  0  0  0  0  0  0  0  0  0  0  0
   10.3077   -1.1466   23.2349 C   0  0  1  0  0  0  0  0  0  0  0  0
   11.0523   -0.0632   24.2789 C   0  0  0  0  0  0  0  0  0  0  0  0
   12.1521    0.2459   24.2520 C   0  0  0  0  0  0  0  0  0  0  0  0
   13.1345   -0.2085   23.5378 C   0  0  0  0  0  0  0  0  0  0  0  0
   12.7363   -1.3101   22.6404 C   0  0  0  0  0  0  0  0  0  0  0  0
   11.8220   -1.7171   22.5070 C   0  0  0  0  0  0  0  0  0  0  0  0
    9.7039   -0.5558   22.3420 C   0  0  0  0  0  0  0  0  0  0  0  0
    9.0646    0.0568   21.3991 C   0  0  0  0  0  0  0  0  0  0  0  0
    9.5952    0.9804   20.9855 O   0  0  0  0  0  0  0  0  0  0  0  0
    7.9002   -0.5403   21.0961 N   0  0  0  0  0  0  0  0  0  0  0  0
    7.1936   -0.0844   20.2039 C   0  0  0  0  0  0  0  0  0  0  0  0
    7.2361    0.0075   18.8625 C   0  0  0  0  0  0  0  0  0  0  0  0
    6.8459    0.3067   17.8107 N   0  0  0  0  0  0  0  0  0  0  0  0
    5.6437    0.9106   18.2609 C   0  0  0  0  0  0  0  0  0  0  0  0
    5.2736    0.9725   19.3903 C   0  0  0  0  0  0  0  0  0  0  0  0
    5.8130    0.5947   20.5436 C   0  0  0  0  0  0  0  0  0  0  0  0
    5.2583    0.7314   21.9812 Cl  0  0  0  0  0  0  0  0  0  0  0  0
 20 21  2  0  0  0  0
 19 20  1  0  0  0  0
 21 22  1  0  0  0  0
 18 19  2  0  0  0  0
 22 23  2  0  0  0  0
 18 23  1  0  0  0  0
 17 18  1  0  0  0  0
 23 24  1  0  0  0  0
 15 16  2  0  0  0  0
 15 17  1  0  0  0  0
 14 15  1  0  0  0  0
  8 14  1  0  0  0  0
 12 13  1  0  0  0  0
  8 13  1  0  0  0  0
 11 12  2  0  0  0  0
  7  8  1  0  0  0  0
  8  9  1  0  0  0  0
  6  7  3  0  0  0  0
 10 11  1  0  0  0  0
  5  6  1  0  0  0  0
  9 10  2  0  0  0  0
  2  5  1  0  0  0  0
  2  3  2  0  0  0  0
  1  2  1  0  0  0  0
  2  4  2  0  0  0  0
M  END
> <Shapegauss>
-286.041473

$$$$
