stable:False satoms:6 tatoms:24 sratio:0.25
  -OEChem-08062414183D

 40 41  0     1  0  0  0  0  0999 V2000
   -6.3983   -5.1167  -26.2683 C   0  0  0  0  0  0  0  0  0  0  0  0
   -8.0655   -4.5080  -26.0512 S   0  0  0  0  0  0  0  0  0  0  0  0
   -8.9403   -5.6453  -25.9865 O   0  0  0  0  0  0  0  0  0  0  0  0
   -8.3386   -3.6710  -27.1554 O   0  0  0  0  0  0  0  0  0  0  0  0
   -8.0143   -3.6969  -24.6569 N   0  0  0  0  0  0  0  0  0  0  0  0
   -8.8558   -2.9945  -24.2093 C   0  0  0  0  0  0  0  0  0  0  0  0
   -9.3652   -2.0731  -23.6652 C   0  0  0  0  0  0  0  0  0  0  0  0
  -10.2672   -1.1933  -23.4871 C   0  0  1  0  0  0  0  0  0  0  0  0
  -10.9178   -0.1442  -24.6248 C   0  0  0  0  0  0  0  0  0  0  0  0
  -12.0101    0.1860  -24.6852 C   0  0  0  0  0  0  0  0  0  0  0  0
  -13.0471   -0.2179  -24.0195 C   0  0  0  0  0  0  0  0  0  0  0  0
  -12.7328   -1.2854  -23.0504 C   0  0  0  0  0  0  0  0  0  0  0  0
  -11.8382   -1.7027  -22.8384 C   0  0  0  0  0  0  0  0  0  0  0  0
   -9.7115   -0.5743  -22.5822 C   0  0  0  0  0  0  0  0  0  0  0  0
   -9.1231    0.0680  -21.6260 C   0  0  0  0  0  0  0  0  0  0  0  0
   -9.6601    1.0188  -21.2895 O   0  0  0  0  0  0  0  0  0  0  0  0
   -7.9943   -0.5362  -21.2199 N   0  0  0  0  0  0  0  0  0  0  0  0
   -7.3388   -0.0539  -20.3030 C   0  0  0  0  0  0  0  0  0  0  0  0
   -7.4681    0.0987  -18.9727 C   0  0  0  0  0  0  0  0  0  0  0  0
   -7.1421    0.4375  -17.9111 N   0  0  0  0  0  0  0  0  0  0  0  0
   -5.9002    0.9985  -18.3054 C   0  0  0  0  0  0  0  0  0  0  0  0
   -5.4548    1.0030  -19.4090 C   0  0  0  0  0  0  0  0  0  0  0  0
   -5.9246    0.5839  -20.5784 C   0  0  0  0  0  0  0  0  0  0  0  0
   -5.2731    0.6459  -21.9801 Cl  0  0  0  0  0  0  0  0  0  0  0  0
   -6.3358   -5.6897  -27.2052 H   0  0  0  0  0  0  0  0  0  0  0  0
   -5.7006   -4.2674  -26.3108 H   0  0  0  0  0  0  0  0  0  0  0  0
   -6.1327   -5.7675  -25.4223 H   0  0  0  0  0  0  0  0  0  0  0  0
   -7.2039   -3.1153  -24.7270 H   0  0  0  0  0  0  0  0  0  0  0  0
  -10.2426    0.2551  -25.3671 H   0  0  0  0  0  0  0  0  0  0  0  0
  -12.2110    0.9579  -25.4133 H   0  0  0  0  0  0  0  0  0  0  0  0
  -14.0390    0.1856  -24.1599 H   0  0  0  0  0  0  0  0  0  0  0  0
  -13.5729   -1.6724  -22.4928 H   0  0  0  0  0  0  0  0  0  0  0  0
  -11.7368   -1.6268  -21.7457 H   0  0  0  0  0  0  0  0  0  0  0  0
  -11.9387   -2.7601  -23.1247 H   0  0  0  0  0  0  0  0  0  0  0  0
  -10.6661   -0.0945  -22.3206 H   0  0  0  0  0  0  0  0  0  0  0  0
   -9.1829    0.0416  -23.3247 H   0  0  0  0  0  0  0  0  0  0  0  0
   -7.6891   -1.3781  -21.6648 H   0  0  0  0  0  0  0  0  0  0  0  0
   -8.4291   -0.3560  -18.7827 H   0  0  0  0  0  0  0  0  0  0  0  0
   -5.3047    1.4638  -17.5338 H   0  0  0  0  0  0  0  0  0  0  0  0
   -4.4675    1.4361  -19.4725 H   0  0  0  0  0  0  0  0  0  0  0  0
 20 21  2  0  0  0  0
 19 20  1  0  0  0  0
 21 22  1  0  0  0  0
 18 19  2  0  0  0  0
 22 23  2  0  0  0  0
 18 23  1  0  0  0  0
 17 18  1  0  0  0  0
 23 24  1  0  0  0  0
 15 16  2  0  0  0  0
 15 17  1  0  0  0  0
 14 15  1  0  0  0  0
  8 14  1  0  0  0  0
 12 13  1  0  0  0  0
  8 13  1  0  0  0  0
 11 12  2  0  0  0  0
  7  8  1  0  0  0  0
  8  9  1  0  0  0  0
  6  7  3  0  0  0  0
 10 11  1  0  0  0  0
  5  6  1  0  0  0  0
  9 10  2  0  0  0  0
  2  5  1  0  0  0  0
  2  3  2  0  0  0  0
  1  2  1  0  0  0  0
  2  4  2  0  0  0  0
  1 25  1  0  0  0  0
  1 26  1  0  0  0  0
  1 27  1  0  0  0  0
  5 28  1  0  0  0  0
  9 29  1  0  0  0  0
 10 30  1  0  0  0  0
 11 31  1  0  0  0  0
 12 32  1  0  0  0  0
 13 33  1  0  0  0  0
 13 34  1  0  0  0  0
 14 35  1  0  0  0  0
 14 36  1  0  0  0  0
 17 37  1  0  0  0  0
 19 38  1  0  0  0  0
 21 39  1  0  0  0  0
 22 40  1  0  0  0  0
M  END
> <Chemgauss4>
-13.372507

$$$$
