MODEL 1
REMARK VINA RESULT:    -4.110      0.000      0.000
REMARK INTER + INTRA:          -5.353
REMARK INTER:                  -5.071
REMARK INTRA:                  -0.282
REMARK UNBOUND:                -0.282
REMARK  4 active torsions:
REMARK  status: ('A' for Active; 'I' for Inactive)
REMARK    1  A    between atoms: C_1  and  C_9 
REMARK    2  A    between atoms: C_2  and  N_3 
REMARK    3  A    between atoms: C_2  and  O_7 
REMARK    4  A    between atoms: C_9  and  C_11 
ROOT
HETATM    1  C   UNL     1      11.112   0.173  24.484  1.00  0.00     0.115 A 
HETATM    2  N   UNL     1      11.511  -0.919  23.697  1.00  0.00    -0.311 N 
HETATM    3  O   UNL     1      13.674  -0.292  24.199  1.00  0.00    -0.270 OA
HETATM    4  C   UNL     1      10.027   0.136  25.357  1.00  0.00     0.049 C 
HETATM    5  C   UNL     1      12.543  -0.516  24.068  1.00  0.00     0.251 A 
ENDROOT
BRANCH   1   6
HETATM    6  C   UNL     1      11.578   1.573  24.068  1.00  0.00     0.040 C 
BRANCH   6   7
HETATM    7  C   UNL     1      10.231   2.324  24.092  1.00  0.00    -0.002 C 
HETATM    8  C   UNL     1      10.460   3.709  23.770  1.00  0.00     0.005 C 
ENDBRANCH   6   7
ENDBRANCH   1   6
BRANCH   2   9
HETATM    9  C   UNL     1      10.665  -1.694  22.905  1.00  0.00     0.296 C 
BRANCH   9  10
HETATM   10  O   UNL     1      10.551  -0.748  21.934  1.00  0.00    -0.377 OA
HETATM   11  C   UNL     1       9.195  -0.479  21.498  1.00  0.00     0.203 C 
ENDBRANCH   9  10
ENDBRANCH   2   9
TORSDOF 4
ENDMDL
MODEL 2
REMARK VINA RESULT:    -3.926     24.467     25.802
REMARK INTER + INTRA:          -5.126
REMARK INTER:                  -4.905
REMARK INTRA:                  -0.221
REMARK UNBOUND:                -0.282
REMARK  4 active torsions:
REMARK  status: ('A' for Active; 'I' for Inactive)
REMARK    1  A    between atoms: C_1  and  C_9 
REMARK    2  A    between atoms: C_2  and  N_3 
REMARK    3  A    between atoms: C_2  and  O_7 
REMARK    4  A    between atoms: C_9  and  C_11 
ROOT
HETATM    1  C   UNL     1       8.412  15.586   2.785  1.00  0.00     0.115 A 
HETATM    2  N   UNL     1       8.669  14.218   2.975  1.00  0.00    -0.311 N 
HETATM    3  O   UNL     1      10.902  14.797   2.979  1.00  0.00    -0.270 OA
HETATM    4  C   UNL     1       7.370  16.267   3.410  1.00  0.00     0.049 C 
HETATM    5  C   UNL     1       9.750  14.660   3.002  1.00  0.00     0.251 A 
ENDROOT
BRANCH   1   6
HETATM    6  C   UNL     1       8.990  16.264   1.537  1.00  0.00     0.040 C 
BRANCH   6   7
HETATM    7  C   UNL     1       7.893  17.314   1.269  1.00  0.00    -0.002 C 
HETATM    8  C   UNL     1       8.362  18.236   0.266  1.00  0.00     0.005 C 
ENDBRANCH   6   7
ENDBRANCH   1   6
BRANCH   2   9
HETATM    9  C   UNL     1       7.718  13.202   2.904  1.00  0.00     0.296 C 
BRANCH   9  10
HETATM   10  O   UNL     1       8.290  12.466   3.895  1.00  0.00    -0.377 OA
HETATM   11  C   UNL     1       7.680  11.172   4.126  1.00  0.00     0.203 C 
ENDBRANCH   9  10
ENDBRANCH   2   9
TORSDOF 4
ENDMDL
MODEL 3
REMARK VINA RESULT:    -3.851      2.268      4.217
REMARK INTER + INTRA:          -5.034
REMARK INTER:                  -4.793
REMARK INTRA:                  -0.241
REMARK UNBOUND:                -0.282
REMARK  4 active torsions:
REMARK  status: ('A' for Active; 'I' for Inactive)
REMARK    1  A    between atoms: C_1  and  C_9 
REMARK    2  A    between atoms: C_2  and  N_3 
REMARK    3  A    between atoms: C_2  and  O_7 
REMARK    4  A    between atoms: C_9  and  C_11 
ROOT
HETATM    1  C   UNL     1      10.225   1.158  23.795  1.00  0.00     0.115 A 
HETATM    2  N   UNL     1      10.058   2.448  23.266  1.00  0.00    -0.311 N 
HETATM    3  O   UNL     1       9.684   1.402  21.244  1.00  0.00    -0.270 OA
HETATM    4  C   UNL     1       9.740   0.768  25.041  1.00  0.00     0.049 C 
HETATM    5  C   UNL     1       9.846   1.786  22.327  1.00  0.00     0.251 A 
ENDROOT
BRANCH   1   6
HETATM    6  C   UNL     1      11.338   0.277  23.215  1.00  0.00     0.040 C 
BRANCH   6   7
HETATM    7  C   UNL     1      12.318   0.261  24.406  1.00  0.00    -0.002 C 
HETATM    8  C   UNL     1      13.367  -0.688  24.137  1.00  0.00     0.005 C 
ENDBRANCH   6   7
ENDBRANCH   1   6
BRANCH   2   9
HETATM    9  C   UNL     1      10.320   3.637  23.944  1.00  0.00     0.296 C 
BRANCH   9  10
HETATM   10  O   UNL     1      11.636   3.654  23.601  1.00  0.00    -0.377 OA
HETATM   11  C   UNL     1      12.287   4.943  23.734  1.00  0.00     0.203 C 
ENDBRANCH   9  10
ENDBRANCH   2   9
TORSDOF 4
ENDMDL
MODEL 4
REMARK VINA RESULT:    -3.727     24.322     25.606
REMARK INTER + INTRA:          -4.880
REMARK INTER:                  -4.581
REMARK INTRA:                  -0.299
REMARK UNBOUND:                -0.282
REMARK  4 active torsions:
REMARK  status: ('A' for Active; 'I' for Inactive)
REMARK    1  A    between atoms: C_1  and  C_9 
REMARK    2  A    between atoms: C_2  and  N_3 
REMARK    3  A    between atoms: C_2  and  O_7 
REMARK    4  A    between atoms: C_9  and  C_11 
ROOT
HETATM    1  C   UNL     1       9.418  14.874   2.824  1.00  0.00     0.115 A 
HETATM    2  N   UNL     1       9.773  15.836   3.783  1.00  0.00    -0.311 N 
HETATM    3  O   UNL     1      10.877  14.125   4.867  1.00  0.00    -0.270 OA
HETATM    4  C   UNL     1       9.401  15.123   1.454  1.00  0.00     0.049 C 
HETATM    5  C   UNL     1      10.321  14.891   4.195  1.00  0.00     0.251 A 
ENDROOT
BRANCH   1   6
HETATM    6  C   UNL     1       8.604  13.660   3.285  1.00  0.00     0.040 C 
BRANCH   6   7
HETATM    7  C   UNL     1       7.299  13.896   2.497  1.00  0.00    -0.002 C 
HETATM    8  C   UNL     1       6.313  14.460   3.383  1.00  0.00     0.005 C 
ENDBRANCH   6   7
ENDBRANCH   1   6
BRANCH   2   9
HETATM    9  C   UNL     1       9.276  17.138   3.840  1.00  0.00     0.296 C 
BRANCH   9  10
HETATM   10  O   UNL     1      10.487  17.712   3.604  1.00  0.00    -0.377 OA
HETATM   11  C   UNL     1      10.684  19.004   4.231  1.00  0.00     0.203 C 
ENDBRANCH   9  10
ENDBRANCH   2   9
TORSDOF 4
ENDMDL
MODEL 5
REMARK VINA RESULT:    -3.674     11.394     13.206
REMARK INTER + INTRA:          -4.816
REMARK INTER:                  -4.604
REMARK INTRA:                  -0.212
REMARK UNBOUND:                -0.282
REMARK  4 active torsions:
REMARK  status: ('A' for Active; 'I' for Inactive)
REMARK    1  A    between atoms: C_1  and  C_9 
REMARK    2  A    between atoms: C_2  and  N_3 
REMARK    3  A    between atoms: C_2  and  O_7 
REMARK    4  A    between atoms: C_9  and  C_11 
ROOT
HETATM    1  C   UNL     1      23.314  -2.841  25.622  1.00  0.00     0.115 A 
HETATM    2  N   UNL     1      23.965  -4.079  25.751  1.00  0.00    -0.311 N 
HETATM    3  O   UNL     1      23.911  -4.174  23.447  1.00  0.00    -0.270 OA
HETATM    4  C   UNL     1      23.611  -1.730  26.407  1.00  0.00     0.049 C 
HETATM    5  C   UNL     1      23.908  -3.971  24.589  1.00  0.00     0.251 A 
ENDROOT
BRANCH   1   6
HETATM    6  C   UNL     1      21.949  -2.812  24.924  1.00  0.00     0.040 C 
BRANCH   6   7
HETATM    7  C   UNL     1      21.436  -1.435  25.395  1.00  0.00    -0.002 C 
HETATM    8  C   UNL     1      20.577  -0.883  24.380  1.00  0.00     0.005 C 
ENDBRANCH   6   7
ENDBRANCH   1   6
BRANCH   2   9
HETATM    9  C   UNL     1      24.179  -4.755  26.951  1.00  0.00     0.296 C 
BRANCH   9  10
HETATM   10  O   UNL     1      23.854  -5.971  26.435  1.00  0.00    -0.377 OA
HETATM   11  C   UNL     1      24.945  -6.924  26.380  1.00  0.00     0.203 C 
ENDBRANCH   9  10
ENDBRANCH   2   9
TORSDOF 4
ENDMDL
MODEL 6
REMARK VINA RESULT:    -3.658     13.694     15.061
REMARK INTER + INTRA:          -4.796
REMARK INTER:                  -4.605
REMARK INTRA:                  -0.191
REMARK UNBOUND:                -0.282
REMARK  4 active torsions:
REMARK  status: ('A' for Active; 'I' for Inactive)
REMARK    1  A    between atoms: C_1  and  C_9 
REMARK    2  A    between atoms: C_2  and  N_3 
REMARK    3  A    between atoms: C_2  and  O_7 
REMARK    4  A    between atoms: C_9  and  C_11 
ROOT
HETATM    1  C   UNL     1      23.620  -1.727  17.591  1.00  0.00     0.115 A 
HETATM    2  N   UNL     1      23.664  -1.678  16.188  1.00  0.00    -0.311 N 
HETATM    3  O   UNL     1      23.653  -3.984  16.262  1.00  0.00    -0.270 OA
HETATM    4  C   UNL     1      22.854  -0.861  18.367  1.00  0.00     0.049 C 
HETATM    5  C   UNL     1      23.609  -2.830  16.375  1.00  0.00     0.251 A 
ENDROOT
BRANCH   1   6
HETATM    6  C   UNL     1      24.763  -2.437  18.326  1.00  0.00     0.040 C 
BRANCH   6   7
HETATM    7  C   UNL     1      24.178  -2.482  19.753  1.00  0.00    -0.002 C 
HETATM    8  C   UNL     1      24.241  -3.835  20.243  1.00  0.00     0.005 C 
ENDBRANCH   6   7
ENDBRANCH   1   6
BRANCH   2   9
HETATM    9  C   UNL     1      23.863  -0.527  15.428  1.00  0.00     0.296 C 
BRANCH   9  10
HETATM   10  O   UNL     1      23.892  -1.198  14.245  1.00  0.00    -0.377 OA
HETATM   11  C   UNL     1      25.104  -1.018  13.469  1.00  0.00     0.203 C 
ENDBRANCH   9  10
ENDBRANCH   2   9
TORSDOF 4
ENDMDL
MODEL 7
REMARK VINA RESULT:    -3.649      1.898      3.831
REMARK INTER + INTRA:          -4.785
REMARK INTER:                  -4.568
REMARK INTRA:                  -0.217
REMARK UNBOUND:                -0.282
REMARK  4 active torsions:
REMARK  status: ('A' for Active; 'I' for Inactive)
REMARK    1  A    between atoms: C_1  and  C_9 
REMARK    2  A    between atoms: C_2  and  N_3 
REMARK    3  A    between atoms: C_2  and  O_7 
REMARK    4  A    between atoms: C_9  and  C_11 
ROOT
HETATM    1  C   UNL     1      10.951   0.135  23.168  1.00  0.00     0.115 A 
HETATM    2  N   UNL     1      11.334   1.278  23.889  1.00  0.00    -0.311 N 
HETATM    3  O   UNL     1      13.125   0.024  24.625  1.00  0.00    -0.270 OA
HETATM    4  C   UNL     1      10.435   0.179  21.875  1.00  0.00     0.049 C 
HETATM    5  C   UNL     1      12.208   0.544  24.141  1.00  0.00     0.251 A 
ENDROOT
BRANCH   1   6
HETATM    6  C   UNL     1      10.665  -1.152  23.951  1.00  0.00     0.040 C 
BRANCH   6   7
HETATM    7  C   UNL     1       9.176  -1.354  23.602  1.00  0.00    -0.002 C 
HETATM    8  C   UNL     1       8.900  -2.765  23.525  1.00  0.00     0.005 C 
ENDBRANCH   6   7
ENDBRANCH   1   6
BRANCH   2   9
HETATM    9  C   UNL     1      10.566   2.432  24.037  1.00  0.00     0.296 C 
BRANCH   9  10
HETATM   10  O   UNL     1      11.423   3.209  23.320  1.00  0.00    -0.377 OA
HETATM   11  C   UNL     1      11.571   4.567  23.807  1.00  0.00     0.203 C 
ENDBRANCH   9  10
ENDBRANCH   2   9
TORSDOF 4
ENDMDL
MODEL 8
REMARK VINA RESULT:    -3.647      2.214      3.201
REMARK INTER + INTRA:          -4.782
REMARK INTER:                  -4.499
REMARK INTRA:                  -0.283
REMARK UNBOUND:                -0.282
REMARK  4 active torsions:
REMARK  status: ('A' for Active; 'I' for Inactive)
REMARK    1  A    between atoms: C_1  and  C_9 
REMARK    2  A    between atoms: C_2  and  N_3 
REMARK    3  A    between atoms: C_2  and  O_7 
REMARK    4  A    between atoms: C_9  and  C_11 
ROOT
HETATM    1  C   UNL     1      10.166   0.931  23.846  1.00  0.00     0.115 A 
HETATM    2  N   UNL     1       9.551   0.272  22.768  1.00  0.00    -0.311 N 
HETATM    3  O   UNL     1       8.374  -0.908  24.363  1.00  0.00    -0.270 OA
HETATM    4  C   UNL     1      10.448   2.295  23.854  1.00  0.00     0.049 C 
HETATM    5  C   UNL     1       9.000  -0.212  23.677  1.00  0.00     0.251 A 
ENDROOT
BRANCH   1   6
HETATM    6  C   UNL     1      10.953   0.087  24.855  1.00  0.00     0.040 C 
BRANCH   6   7
HETATM    7  C   UNL     1      12.394   0.415  24.414  1.00  0.00    -0.002 C 
HETATM    8  C   UNL     1      13.035  -0.796  23.970  1.00  0.00     0.005 C 
ENDBRANCH   6   7
ENDBRANCH   1   6
BRANCH   2   9
HETATM    9  C   UNL     1       9.929   0.389  21.432  1.00  0.00     0.296 C 
BRANCH   9  10
HETATM   10  O   UNL     1       8.737   0.913  21.041  1.00  0.00    -0.377 OA
HETATM   11  C   UNL     1       8.007   0.120  20.071  1.00  0.00     0.203 C 
ENDBRANCH   9  10
ENDBRANCH   2   9
TORSDOF 4
ENDMDL
MODEL 9
REMARK VINA RESULT:    -3.575      5.124      6.962
REMARK INTER + INTRA:          -4.693
REMARK INTER:                  -4.456
REMARK INTRA:                  -0.237
REMARK UNBOUND:                -0.282
REMARK  4 active torsions:
REMARK  status: ('A' for Active; 'I' for Inactive)
REMARK    1  A    between atoms: C_1  and  C_9 
REMARK    2  A    between atoms: C_2  and  N_3 
REMARK    3  A    between atoms: C_2  and  O_7 
REMARK    4  A    between atoms: C_9  and  C_11 
ROOT
HETATM    1  C   UNL     1       7.193  -5.207  23.167  1.00  0.00     0.115 A 
HETATM    2  N   UNL     1       8.059  -4.170  23.550  1.00  0.00    -0.311 N 
HETATM    3  O   UNL     1       8.345  -5.344  25.516  1.00  0.00    -0.270 OA
HETATM    4  C   UNL     1       7.145  -5.732  21.878  1.00  0.00     0.049 C 
HETATM    5  C   UNL     1       8.142  -4.888  24.468  1.00  0.00     0.251 A 
ENDROOT
BRANCH   1   6
HETATM    6  C   UNL     1       5.961  -5.478  24.038  1.00  0.00     0.040 C 
BRANCH   6   7
HETATM    7  C   UNL     1       4.868  -5.527  22.950  1.00  0.00    -0.002 C 
HETATM    8  C   UNL     1       3.657  -4.951  23.475  1.00  0.00     0.005 C 
ENDBRANCH   6   7
ENDBRANCH   1   6
BRANCH   2   9
HETATM    9  C   UNL     1       8.240  -2.973  22.858  1.00  0.00     0.296 C 
BRANCH   9  10
HETATM   10  O   UNL     1       9.235  -2.539  23.678  1.00  0.00    -0.377 OA
HETATM   11  C   UNL     1      10.348  -1.899  23.003  1.00  0.00     0.203 C 
ENDBRANCH   9  10
ENDBRANCH   2   9
TORSDOF 4
ENDMDL
