REMARK  7 active torsions:
REMARK  status: ('A' for Active; 'I' for Inactive)
REMARK    1  A    between atoms: C_6  and  N_14 
REMARK    2  A    between atoms: C_6  and  N_7 
REMARK    3  A    between atoms: N_7  and  C_12 
REMARK    4  A    between atoms: C_9  and  C_11 
REMARK    5  A    between atoms: C_13  and  C_16 
REMARK    6  A    between atoms: C_13  and  O_21 
REMARK    7  A    between atoms: N_14  and  C_16 
ROOT
HETATM    1  C   UNL     1       7.148  -3.165  24.829  1.00  0.00     0.079 C 
HETATM    2  O   UNL     1       8.407  -2.548  23.664  1.00  0.00    -0.281 OA
HETATM    3  C   UNL     1       7.351  -2.578  23.606  1.00  0.00     0.210 C 
HETATM    4  S   UNL     1       6.307  -1.978  22.213  1.00  0.00    -0.008 SA
ENDROOT
TORSDOF 7
