stable:False satoms:14 tatoms:24 sratio:0.5833333333333334
  -OEChem-07092417343D

 24 23  0     1  0  0  0  0  0999 V2000
    6.2719   -3.7771   25.0459 H   0  0  0  0  0  0  0  0  0  0  0  0
    7.1478   -3.1652   24.8288 C   0  5  0  0  0  0  0  0  0  0  0  0
   10.4432   -3.6456   24.9860 Br  0  0  0  0  0  0  0  0  0  0  0  0
    7.7154   -2.9694   25.7198 H   0  0  0  0  0  0  0  0  0  0  0  0
    8.4070   -2.5479   23.6643 O   0  0  0  0  0  0  0  0  0  0  0  0
    7.3515   -2.5779   23.6058 C   0  0  0  0  0  0  0  0  0  0  0  0
    9.8532   -1.1118   22.0206 C   0  0  0  0  0  0  0  0  0  0  0  0
   10.3306   -2.0875   22.6163 N   0  0  0  0  0  0  0  0  0  0  0  0
   12.2307   -0.0306   24.3041 C   0  0  0  0  0  0  0  0  0  0  0  0
   12.8176    1.1998   24.7231 Cl  0  0  0  0  0  0  0  0  0  0  0  0
   12.1064   -1.1654   23.7598 C   0  0  0  0  0  0  0  0  0  0  0  0
   13.0125   -1.4859   23.3118 H   0  0  0  0  0  0  0  0  0  0  0  0
   11.0093   -2.0726   23.5397 C   0  0  3  0  0  0  0  0  0  0  0  0
    8.0085    0.2671   22.8324 H   0  0  0  0  0  0  0  0  0  0  0  0
    7.4878    0.2398   21.8803 C   0  3  0  0  0  0  0  0  0  0  0  0
    9.5949   -0.2651   21.2844 N   0  0  0  0  0  0  0  0  0  0  0  0
    8.2352   -0.3154   20.6905 C   0  0  2  0  0  0  0  0  0  0  0  0
    6.3921   -0.8699   19.6638 H   0  0  0  0  0  0  0  0  0  0  0  0
    7.3407   -0.2955   19.5628 C   0  0  0  0  0  0  0  0  0  0  0  0
    8.4188   -0.8155   19.3702 N   0  3  0  0  0  0  0  0  0  0  0  0
    7.0114    0.6401   19.0358 H   0  0  0  0  0  0  0  0  0  0  0  0
    5.8484    0.8998   20.8776 H   0  0  0  0  0  0  0  0  0  0  0  0
    6.3073   -1.9779   22.2128 S   0  0  0  0  0  0  0  0  0  0  0  0
    6.2417    0.6392   21.7603 O   0  0  0  0  0  0  0  0  0  0  0  0
 19 21  1  0  0  0  0
 19 20  1  0  0  0  0
 17 20  1  0  0  0  0
 18 19  1  0  0  0  0
 17 19  1  0  0  0  0
 16 17  1  0  0  0  0
 15 17  1  0  0  0  0
 22 24  1  0  0  0  0
  7 16  2  3  0  0  0
 15 24  1  0  0  0  0
 14 15  1  0  0  0  0
  7  8  1  0  0  0  0
  6 23  1  0  0  0  0
  8 13  1  0  0  0  0
 11 12  1  0  0  0  0
 11 13  1  0  0  0  0
  3 13  1  0  0  0  0
  5  6  2  0  0  0  0
  2  6  1  0  0  0  0
  9 11  2  0  0  0  0
  9 10  1  0  0  0  0
  1  2  1  0  0  0  0
  2  4  1  0  0  0  0
M  CHG  3   2  -1  15   1  20   1
M  END
> <Shapegauss>
-156.361740

$$$$
