MODEL 1
REMARK VINA RESULT:    -8.021      0.000      0.000
REMARK INTER + INTRA:         -10.647
REMARK INTER:                  -9.896
REMARK INTRA:                  -0.751
REMARK UNBOUND:                -0.751
REMARK  4 active torsions:
REMARK  status: ('A' for Active; 'I' for Inactive)
REMARK    1  A    between atoms: S_2  and  N_5 
REMARK    2  A    between atoms: N_5  and  C_7 
REMARK    3  A    between atoms: C_15  and  C_16 
REMARK       I    between atoms: C_16  and  N_18 
REMARK    4  A    between atoms: N_18  and  C_20 
ROOT
HETATM    1  C   UNL     1       8.512  -3.549  23.874  1.00  0.00     0.109 C 
HETATM    2  C   UNL     1       8.872  -2.454  23.422  1.00  0.00    -0.008 A 
HETATM    3  C   UNL     1       9.618  -1.381  23.417  1.00  0.00     0.058 A 
HETATM    4  C   UNL     1       9.708  -0.278  24.679  1.00  0.00    -0.003 C 
HETATM    5  C   UNL     1      10.648   0.267  24.893  1.00  0.00    -0.002 C 
HETATM    6  C   UNL     1      11.885   0.160  24.430  1.00  0.00    -0.001 C 
HETATM    7  C   UNL     1      11.998  -0.908  23.510  1.00  0.00    -0.002 C 
HETATM    8  C   UNL     1      11.280  -1.562  23.104  1.00  0.00    -0.003 C 
HETATM    9  C   UNL     1       9.076  -0.993  22.445  1.00  0.00     0.040 A 
ENDROOT
BRANCH   9  10
HETATM   10  C   UNL     1       8.572  -0.352  21.325  1.00  0.00     0.254 C 
HETATM   11  O   UNL     1       9.261   0.367  20.753  1.00  0.00    -0.268 OA
HETATM   12  N   UNL     1       7.325  -0.711  21.150  1.00  0.00    -0.320 N 
ATOM     13  HN  UNL     1       6.886  -1.384  21.780  1.00  0.00     0.169 HD
BRANCH  12  14
HETATM   14  C   UNL     1       6.667  -0.205  20.179  1.00  0.00     0.072 A 
HETATM   15  C   UNL     1       6.356  -0.566  18.956  1.00  0.00     0.119 A 
HETATM   16  N   UNL     1       5.792  -0.435  17.869  1.00  0.00    -0.373 N 
HETATM   17  C   UNL     1       5.261   0.762  18.209  1.00  0.00     0.089 A 
ATOM     18  HN  UNL     1       5.743  -1.011  17.029  1.00  0.00     0.164 HD
HETATM   19  C   UNL     1       5.316   1.379  19.178  1.00  0.00     0.043 A 
HETATM   20  C   UNL     1       5.925   1.139  20.340  1.00  0.00     0.063 A 
HETATM   21 CL   UNL     1       5.964   2.013  21.642  1.00  0.00    -0.082 Cl
ENDBRANCH  12  14
ENDBRANCH   9  10
BRANCH   1  22
HETATM   22  N   UNL     1       7.754  -4.374  24.099  1.00  0.00    -0.295 N 
ATOM     23  HN  UNL     1       7.778  -4.788  25.031  1.00  0.00     0.177 HD
BRANCH  22  24
HETATM   24  S   UNL     1       6.646  -4.941  23.065  1.00  0.00     0.226 S 
HETATM   25  C   UNL     1       5.557  -3.530  22.781  1.00  0.00     0.186 C 
HETATM   26  O   UNL     1       7.235  -5.272  21.782  1.00  0.00    -0.206 OA
HETATM   27  O   UNL     1       5.854  -5.976  23.624  1.00  0.00    -0.206 OA
ENDBRANCH  22  24
ENDBRANCH   1  22
TORSDOF 4
ENDMDL
MODEL 2
REMARK VINA RESULT:    -7.984      2.819      5.927
REMARK INTER + INTRA:         -10.602
REMARK INTER:                  -9.746
REMARK INTRA:                  -0.856
REMARK UNBOUND:                -0.751
REMARK  4 active torsions:
REMARK  status: ('A' for Active; 'I' for Inactive)
REMARK    1  A    between atoms: S_2  and  N_5 
REMARK    2  A    between atoms: N_5  and  C_7 
REMARK    3  A    between atoms: C_15  and  C_16 
REMARK       I    between atoms: C_16  and  N_18 
REMARK    4  A    between atoms: N_18  and  C_20 
ROOT
HETATM    1  C   UNL     1       8.853   0.870  22.125  1.00  0.00     0.109 C 
HETATM    2  C   UNL     1       9.345   0.081  22.943  1.00  0.00    -0.008 A 
HETATM    3  C   UNL     1      10.348  -0.518  23.530  1.00  0.00     0.058 A 
HETATM    4  C   UNL     1      11.477  -1.478  22.742  1.00  0.00    -0.003 C 
HETATM    5  C   UNL     1      12.527  -1.524  23.090  1.00  0.00    -0.002 C 
HETATM    6  C   UNL     1      13.215  -0.842  23.993  1.00  0.00    -0.001 C 
HETATM    7  C   UNL     1      12.425   0.176  24.578  1.00  0.00    -0.002 C 
HETATM    8  C   UNL     1      11.410   0.427  24.465  1.00  0.00    -0.003 C 
HETATM    9  C   UNL     1       9.605  -1.093  24.241  1.00  0.00     0.040 A 
ENDROOT
BRANCH   9  10
HETATM   10  C   UNL     1       8.919  -1.870  25.160  1.00  0.00     0.254 C 
HETATM   11  O   UNL     1       8.677  -1.414  26.186  1.00  0.00    -0.268 OA
HETATM   12  N   UNL     1       8.690  -3.049  24.639  1.00  0.00    -0.320 N 
ATOM     13  HN  UNL     1       8.988  -3.261  23.686  1.00  0.00     0.169 HD
BRANCH  12  14
HETATM   14  C   UNL     1       8.089  -3.930  25.343  1.00  0.00     0.072 A 
HETATM   15  C   UNL     1       8.435  -4.823  26.239  1.00  0.00     0.119 A 
HETATM   16  N   UNL     1       8.214  -5.701  27.075  1.00  0.00    -0.373 N 
HETATM   17  C   UNL     1       6.880  -5.675  26.854  1.00  0.00     0.089 A 
ATOM     18  HN  UNL     1       8.812  -6.244  27.698  1.00  0.00     0.164 HD
HETATM   19  C   UNL     1       6.229  -5.032  26.157  1.00  0.00     0.043 A 
HETATM   20  C   UNL     1       6.551  -4.061  25.302  1.00  0.00     0.063 A 
HETATM   21 CL   UNL     1       5.621  -3.204  24.374  1.00  0.00    -0.082 Cl
ENDBRANCH  12  14
ENDBRANCH   9  10
BRANCH   1  22
HETATM   22  N   UNL     1       8.049   1.239  21.404  1.00  0.00    -0.295 N 
ATOM     23  HN  UNL     1       7.822   2.234  21.425  1.00  0.00     0.177 HD
BRANCH  22  24
HETATM   24  S   UNL     1       7.237   0.319  20.349  1.00  0.00     0.226 S 
HETATM   25  C   UNL     1       5.758   1.285  19.979  1.00  0.00     0.186 C 
HETATM   26  O   UNL     1       7.960   0.177  19.100  1.00  0.00    -0.206 OA
HETATM   27  O   UNL     1       6.805  -0.909  20.912  1.00  0.00    -0.206 OA
ENDBRANCH  22  24
ENDBRANCH   1  22
TORSDOF 4
ENDMDL
MODEL 3
REMARK VINA RESULT:    -7.631      2.898      6.343
REMARK INTER + INTRA:         -10.167
REMARK INTER:                  -9.460
REMARK INTRA:                  -0.707
REMARK UNBOUND:                -0.751
REMARK  4 active torsions:
REMARK  status: ('A' for Active; 'I' for Inactive)
REMARK    1  A    between atoms: S_2  and  N_5 
REMARK    2  A    between atoms: N_5  and  C_7 
REMARK    3  A    between atoms: C_15  and  C_16 
REMARK       I    between atoms: C_16  and  N_18 
REMARK    4  A    between atoms: N_18  and  C_20 
ROOT
HETATM    1  C   UNL     1       5.702  -1.680  20.657  1.00  0.00     0.109 C 
HETATM    2  C   UNL     1       6.248  -2.392  21.510  1.00  0.00    -0.008 A 
HETATM    3  C   UNL     1       6.330  -3.456  22.266  1.00  0.00     0.058 A 
HETATM    4  C   UNL     1       5.189  -3.896  23.416  1.00  0.00    -0.003 C 
HETATM    5  C   UNL     1       4.986  -4.962  23.638  1.00  0.00    -0.002 C 
HETATM    6  C   UNL     1       5.373  -6.096  23.073  1.00  0.00    -0.001 C 
HETATM    7  C   UNL     1       6.168  -5.855  21.928  1.00  0.00    -0.002 C 
HETATM    8  C   UNL     1       6.538  -4.964  21.508  1.00  0.00    -0.003 C 
HETATM    9  C   UNL     1       7.362  -3.087  22.696  1.00  0.00     0.040 A 
ENDROOT
BRANCH   9  10
HETATM   10  C   UNL     1       8.568  -2.841  23.333  1.00  0.00     0.254 C 
HETATM   11  O   UNL     1       8.848  -3.489  24.238  1.00  0.00    -0.268 OA
HETATM   12  N   UNL     1       9.170  -1.840  22.739  1.00  0.00    -0.320 N 
ATOM     13  HN  UNL     1       8.749  -1.391  21.926  1.00  0.00     0.169 HD
BRANCH  12  14
HETATM   14  C   UNL     1      10.293  -1.436  23.197  1.00  0.00     0.072 A 
HETATM   15  C   UNL     1      11.558  -1.674  22.945  1.00  0.00     0.119 A 
HETATM   16  N   UNL     1      12.770  -1.499  23.083  1.00  0.00    -0.373 N 
HETATM   17  C   UNL     1      12.597  -0.568  24.049  1.00  0.00     0.089 A 
ATOM     18  HN  UNL     1      13.593  -1.903  22.637  1.00  0.00     0.164 HD
HETATM   19  C   UNL     1      11.650  -0.115  24.518  1.00  0.00     0.043 A 
HETATM   20  C   UNL     1      10.357  -0.335  24.277  1.00  0.00     0.063 A 
HETATM   21 CL   UNL     1       9.096   0.319  24.942  1.00  0.00    -0.082 Cl
ENDBRANCH  12  14
ENDBRANCH   9  10
BRANCH   1  22
HETATM   22  N   UNL     1       5.429  -0.687  20.164  1.00  0.00    -0.295 N 
ATOM     23  HN  UNL     1       4.723  -0.114  20.625  1.00  0.00     0.177 HD
BRANCH  22  24
HETATM   24  S   UNL     1       6.068  -0.112  18.793  1.00  0.00     0.226 S 
HETATM   25  C   UNL     1       7.834  -0.007  19.149  1.00  0.00     0.186 C 
HETATM   26  O   UNL     1       5.922  -1.054  17.701  1.00  0.00    -0.206 OA
HETATM   27  O   UNL     1       5.624   1.201  18.490  1.00  0.00    -0.206 OA
ENDBRANCH  22  24
ENDBRANCH   1  22
TORSDOF 4
ENDMDL
MODEL 4
REMARK VINA RESULT:    -7.509      3.395      5.618
REMARK INTER + INTRA:         -10.016
REMARK INTER:                  -9.233
REMARK INTRA:                  -0.782
REMARK UNBOUND:                -0.751
REMARK  4 active torsions:
REMARK  status: ('A' for Active; 'I' for Inactive)
REMARK    1  A    between atoms: S_2  and  N_5 
REMARK    2  A    between atoms: N_5  and  C_7 
REMARK    3  A    between atoms: C_15  and  C_16 
REMARK       I    between atoms: C_16  and  N_18 
REMARK    4  A    between atoms: N_18  and  C_20 
ROOT
HETATM    1  C   UNL     1       7.083  -5.698  26.463  1.00  0.00     0.109 C 
HETATM    2  C   UNL     1       7.158  -5.073  25.397  1.00  0.00    -0.008 A 
HETATM    3  C   UNL     1       6.966  -4.927  24.112  1.00  0.00     0.058 A 
HETATM    4  C   UNL     1       7.599  -5.941  22.933  1.00  0.00    -0.003 C 
HETATM    5  C   UNL     1       7.046  -6.137  21.994  1.00  0.00    -0.002 C 
HETATM    6  C   UNL     1       5.825  -5.835  21.580  1.00  0.00    -0.001 C 
HETATM    7  C   UNL     1       5.091  -5.168  22.588  1.00  0.00    -0.002 C 
HETATM    8  C   UNL     1       5.364  -4.831  23.547  1.00  0.00    -0.003 C 
HETATM    9  C   UNL     1       7.434  -3.846  24.151  1.00  0.00     0.040 A 
ENDROOT
BRANCH   9  10
HETATM   10  C   UNL     1       7.950  -2.573  23.971  1.00  0.00     0.254 C 
HETATM   11  O   UNL     1       7.718  -1.775  24.763  1.00  0.00    -0.268 OA
HETATM   12  N   UNL     1       8.625  -2.539  22.850  1.00  0.00    -0.320 N 
ATOM     13  HN  UNL     1       8.721  -3.378  22.277  1.00  0.00     0.169 HD
BRANCH  12  14
HETATM   14  C   UNL     1       9.161  -1.438  22.485  1.00  0.00     0.072 A 
HETATM   15  C   UNL     1      10.303  -0.827  22.691  1.00  0.00     0.119 A 
HETATM   16  N   UNL     1      11.127   0.073  22.523  1.00  0.00    -0.373 N 
HETATM   17  C   UNL     1      10.313   0.760  21.690  1.00  0.00     0.089 A 
ATOM     18  HN  UNL     1      12.069   0.239  22.879  1.00  0.00     0.164 HD
HETATM   19  C   UNL     1       9.259   0.535  21.288  1.00  0.00     0.043 A 
HETATM   20  C   UNL     1       8.443  -0.500  21.492  1.00  0.00     0.063 A 
HETATM   21 CL   UNL     1       7.010  -0.765  20.910  1.00  0.00    -0.082 Cl
ENDBRANCH  12  14
ENDBRANCH   9  10
BRANCH   1  22
HETATM   22  N   UNL     1       7.434  -6.006  27.505  1.00  0.00    -0.295 N 
ATOM     23  HN  UNL     1       8.439  -6.099  27.652  1.00  0.00     0.177 HD
BRANCH  22  24
HETATM   24  S   UNL     1       6.471  -6.307  28.770  1.00  0.00     0.226 S 
HETATM   25  C   UNL     1       4.844  -6.552  28.028  1.00  0.00     0.186 C 
HETATM   26  O   UNL     1       6.820  -7.555  29.420  1.00  0.00    -0.206 OA
HETATM   27  O   UNL     1       6.366  -5.203  29.654  1.00  0.00    -0.206 OA
ENDBRANCH  22  24
ENDBRANCH   1  22
TORSDOF 4
ENDMDL
MODEL 5
REMARK VINA RESULT:    -7.339      1.933      2.187
REMARK INTER + INTRA:          -9.806
REMARK INTER:                  -9.017
REMARK INTRA:                  -0.790
REMARK UNBOUND:                -0.751
REMARK  4 active torsions:
REMARK  status: ('A' for Active; 'I' for Inactive)
REMARK    1  A    between atoms: S_2  and  N_5 
REMARK    2  A    between atoms: N_5  and  C_7 
REMARK    3  A    between atoms: C_15  and  C_16 
REMARK       I    between atoms: C_16  and  N_18 
REMARK    4  A    between atoms: N_18  and  C_20 
ROOT
HETATM    1  C   UNL     1       8.384  -4.050  24.488  1.00  0.00     0.109 C 
HETATM    2  C   UNL     1       8.415  -3.005  23.825  1.00  0.00    -0.008 A 
HETATM    3  C   UNL     1       8.942  -1.862  23.469  1.00  0.00     0.058 A 
HETATM    4  C   UNL     1       9.205  -0.571  24.508  1.00  0.00    -0.003 C 
HETATM    5  C   UNL     1      10.064   0.112  24.362  1.00  0.00    -0.002 C 
HETATM    6  C   UNL     1      11.118   0.086  23.559  1.00  0.00    -0.001 C 
HETATM    7  C   UNL     1      11.138  -1.093  22.777  1.00  0.00    -0.002 C 
HETATM    8  C   UNL     1      10.452  -1.886  22.687  1.00  0.00    -0.003 C 
HETATM    9  C   UNL     1       8.089  -1.703  22.672  1.00  0.00     0.040 A 
ENDROOT
BRANCH   9  10
HETATM   10  C   UNL     1       7.189  -1.315  21.693  1.00  0.00     0.254 C 
HETATM   11  O   UNL     1       6.248  -1.954  21.534  1.00  0.00    -0.268 OA
HETATM   12  N   UNL     1       7.639  -0.237  21.101  1.00  0.00    -0.320 N 
ATOM     13  HN  UNL     1       8.515   0.192  21.400  1.00  0.00     0.169 HD
BRANCH  12  14
HETATM   14  C   UNL     1       6.962   0.268  20.141  1.00  0.00     0.072 A 
HETATM   15  C   UNL     1       6.811   0.028  18.861  1.00  0.00     0.119 A 
HETATM   16  N   UNL     1       6.306   0.201  17.750  1.00  0.00    -0.373 N 
HETATM   17  C   UNL     1       5.531   1.222  18.183  1.00  0.00     0.089 A 
ATOM     18  HN  UNL     1       6.427  -0.253  16.845  1.00  0.00     0.164 HD
HETATM   19  C   UNL     1       5.400   1.699  19.221  1.00  0.00     0.043 A 
HETATM   20  C   UNL     1       5.964   1.418  20.397  1.00  0.00     0.063 A 
HETATM   21 CL   UNL     1       5.744   2.097  21.793  1.00  0.00    -0.082 Cl
ENDBRANCH  12  14
ENDBRANCH   9  10
BRANCH   1  22
HETATM   22  N   UNL     1       7.868  -4.916  25.026  1.00  0.00    -0.295 N 
ATOM     23  HN  UNL     1       7.511  -5.678  24.450  1.00  0.00     0.177 HD
BRANCH  22  24
HETATM   24  S   UNL     1       7.656  -5.035  26.626  1.00  0.00     0.226 S 
HETATM   25  C   UNL     1       6.469  -3.729  27.004  1.00  0.00     0.186 C 
HETATM   26  O   UNL     1       7.020  -6.287  26.987  1.00  0.00    -0.206 OA
HETATM   27  O   UNL     1       8.837  -4.751  27.358  1.00  0.00    -0.206 OA
ENDBRANCH  22  24
ENDBRANCH   1  22
TORSDOF 4
ENDMDL
MODEL 6
REMARK VINA RESULT:    -7.228      2.139      5.518
REMARK INTER + INTRA:          -9.670
REMARK INTER:                  -8.946
REMARK INTRA:                  -0.723
REMARK UNBOUND:                -0.751
REMARK  4 active torsions:
REMARK  status: ('A' for Active; 'I' for Inactive)
REMARK    1  A    between atoms: S_2  and  N_5 
REMARK    2  A    between atoms: N_5  and  C_7 
REMARK    3  A    between atoms: C_15  and  C_16 
REMARK       I    between atoms: C_16  and  N_18 
REMARK    4  A    between atoms: N_18  and  C_20 
ROOT
HETATM    1  C   UNL     1       5.900  -2.512  21.959  1.00  0.00     0.109 C 
HETATM    2  C   UNL     1       6.627  -1.608  21.525  1.00  0.00    -0.008 A 
HETATM    3  C   UNL     1       6.878  -0.573  20.767  1.00  0.00     0.058 A 
HETATM    4  C   UNL     1       6.813  -0.584  19.090  1.00  0.00    -0.003 C 
HETATM    5  C   UNL     1       6.507   0.318  18.526  1.00  0.00    -0.002 C 
HETATM    6  C   UNL     1       6.009   1.490  18.890  1.00  0.00    -0.001 C 
HETATM    7  C   UNL     1       5.793   1.545  20.287  1.00  0.00    -0.002 C 
HETATM    8  C   UNL     1       6.013   0.862  21.057  1.00  0.00    -0.003 C 
HETATM    9  C   UNL     1       7.958  -0.481  21.229  1.00  0.00     0.040 A 
ENDROOT
BRANCH   9  10
HETATM   10  C   UNL     1       9.256  -0.199  21.625  1.00  0.00     0.254 C 
HETATM   11  O   UNL     1       9.820   0.641  21.082  1.00  0.00    -0.268 OA
HETATM   12  N   UNL     1       9.597  -1.017  22.589  1.00  0.00    -0.320 N 
ATOM     13  HN  UNL     1       8.933  -1.706  22.944  1.00  0.00     0.169 HD
BRANCH  12  14
HETATM   14  C   UNL     1      10.775  -0.938  23.078  1.00  0.00     0.072 A 
HETATM   15  C   UNL     1      11.927  -1.530  22.871  1.00  0.00     0.119 A 
HETATM   16  N   UNL     1      13.134  -1.702  23.046  1.00  0.00    -0.373 N 
HETATM   17  C   UNL     1      13.206  -0.741  23.995  1.00  0.00     0.089 A 
ATOM     18  HN  UNL     1      13.821  -2.333  22.632  1.00  0.00     0.164 HD
HETATM   19  C   UNL     1      12.414  -0.028  24.427  1.00  0.00     0.043 A 
HETATM   20  C   UNL     1      11.119   0.122  24.145  1.00  0.00     0.063 A 
HETATM   21 CL   UNL     1      10.078   1.121  24.761  1.00  0.00    -0.082 Cl
ENDBRANCH  12  14
ENDBRANCH   9  10
BRANCH   1  22
HETATM   22  N   UNL     1       5.687  -3.549  22.388  1.00  0.00    -0.295 N 
ATOM     23  HN  UNL     1       4.717  -3.867  22.382  1.00  0.00     0.177 HD
BRANCH  22  24
HETATM   24  S   UNL     1       6.792  -4.557  23.004  1.00  0.00     0.226 S 
HETATM   25  C   UNL     1       7.068  -5.756  21.683  1.00  0.00     0.186 C 
HETATM   26  O   UNL     1       8.059  -3.887  23.224  1.00  0.00    -0.206 OA
HETATM   27  O   UNL     1       6.312  -5.275  24.128  1.00  0.00    -0.206 OA
ENDBRANCH  22  24
ENDBRANCH   1  22
TORSDOF 4
ENDMDL
MODEL 7
REMARK VINA RESULT:    -6.927     14.742     15.888
REMARK INTER + INTRA:          -9.298
REMARK INTER:                  -8.470
REMARK INTRA:                  -0.828
REMARK UNBOUND:                -0.751
REMARK  4 active torsions:
REMARK  status: ('A' for Active; 'I' for Inactive)
REMARK    1  A    between atoms: S_2  and  N_5 
REMARK    2  A    between atoms: N_5  and  C_7 
REMARK    3  A    between atoms: C_15  and  C_16 
REMARK       I    between atoms: C_16  and  N_18 
REMARK    4  A    between atoms: N_18  and  C_20 
ROOT
HETATM    1  C   UNL     1      24.449  -3.446  24.399  1.00  0.00     0.109 C 
HETATM    2  C   UNL     1      23.788  -2.597  23.786  1.00  0.00    -0.008 A 
HETATM    3  C   UNL     1      23.111  -1.482  23.700  1.00  0.00     0.058 A 
HETATM    4  C   UNL     1      21.720  -1.144  24.576  1.00  0.00    -0.003 C 
HETATM    5  C   UNL     1      21.485  -0.110  24.894  1.00  0.00    -0.002 C 
HETATM    6  C   UNL     1      22.163   1.028  24.858  1.00  0.00    -0.001 C 
HETATM    7  C   UNL     1      23.467   0.831  24.345  1.00  0.00    -0.002 C 
HETATM    8  C   UNL     1      23.942  -0.019  23.946  1.00  0.00    -0.003 C 
HETATM    9  C   UNL     1      22.951  -1.654  22.545  1.00  0.00     0.040 A 
ENDROOT
BRANCH   9  10
HETATM   10  C   UNL     1      22.640  -1.662  21.195  1.00  0.00     0.254 C 
HETATM   11  O   UNL     1      21.578  -1.967  20.883  1.00  0.00    -0.268 OA
HETATM   12  N   UNL     1      23.700  -1.315  20.509  1.00  0.00    -0.320 N 
ATOM     13  HN  UNL     1      24.569  -1.069  20.986  1.00  0.00     0.169 HD
BRANCH  12  14
HETATM   14  C   UNL     1      23.629  -1.288  19.234  1.00  0.00     0.072 A 
HETATM   15  C   UNL     1      23.276  -0.411  18.323  1.00  0.00     0.119 A 
HETATM   16  N   UNL     1      23.126  -0.009  17.169  1.00  0.00    -0.373 N 
HETATM   17  C   UNL     1      23.553  -1.174  16.631  1.00  0.00     0.089 A 
ATOM     18  HN  UNL     1      22.802   0.872  16.769  1.00  0.00     0.164 HD
HETATM   19  C   UNL     1      23.935  -2.146  17.111  1.00  0.00     0.043 A 
HETATM   20  C   UNL     1      24.108  -2.488  18.389  1.00  0.00     0.063 A 
HETATM   21 CL   UNL     1      24.643  -3.832  18.995  1.00  0.00    -0.082 Cl
ENDBRANCH  12  14
ENDBRANCH   9  10
BRANCH   1  22
HETATM   22  N   UNL     1      24.827  -4.502  24.615  1.00  0.00    -0.295 N 
ATOM     23  HN  UNL     1      25.752  -4.749  24.263  1.00  0.00     0.177 HD
BRANCH  22  24
HETATM   24  S   UNL     1      24.018  -5.642  25.430  1.00  0.00     0.226 S 
HETATM   25  C   UNL     1      25.246  -6.312  26.570  1.00  0.00     0.186 C 
HETATM   26  O   UNL     1      22.967  -5.067  26.247  1.00  0.00    -0.206 OA
HETATM   27  O   UNL     1      23.590  -6.709  24.601  1.00  0.00    -0.206 OA
ENDBRANCH  22  24
ENDBRANCH   1  22
TORSDOF 4
ENDMDL
MODEL 8
REMARK VINA RESULT:    -6.892      3.140      5.896
REMARK INTER + INTRA:          -9.255
REMARK INTER:                  -8.460
REMARK INTRA:                  -0.795
REMARK UNBOUND:                -0.751
REMARK  4 active torsions:
REMARK  status: ('A' for Active; 'I' for Inactive)
REMARK    1  A    between atoms: S_2  and  N_5 
REMARK    2  A    between atoms: N_5  and  C_7 
REMARK    3  A    between atoms: C_15  and  C_16 
REMARK       I    between atoms: C_16  and  N_18 
REMARK    4  A    between atoms: N_18  and  C_20 
ROOT
HETATM    1  C   UNL     1       6.788   1.329  21.375  1.00  0.00     0.109 C 
HETATM    2  C   UNL     1       7.750   0.992  22.078  1.00  0.00    -0.008 A 
HETATM    3  C   UNL     1       8.840   1.232  22.760  1.00  0.00     0.058 A 
HETATM    4  C   UNL     1      10.240   1.894  22.114  1.00  0.00    -0.003 C 
HETATM    5  C   UNL     1      10.895   2.547  22.723  1.00  0.00    -0.002 C 
HETATM    6  C   UNL     1      10.768   3.094  23.923  1.00  0.00    -0.001 C 
HETATM    7  C   UNL     1       9.507   2.798  24.491  1.00  0.00    -0.002 C 
HETATM    8  C   UNL     1       8.714   2.191  24.160  1.00  0.00    -0.003 C 
HETATM    9  C   UNL     1       8.913   0.097  23.067  1.00  0.00     0.040 A 
ENDROOT
BRANCH   9  10
HETATM   10  C   UNL     1       9.193  -1.177  23.533  1.00  0.00     0.254 C 
HETATM   11  O   UNL     1      10.193  -1.658  23.238  1.00  0.00    -0.268 OA
HETATM   12  N   UNL     1       8.182  -1.603  24.248  1.00  0.00    -0.320 N 
ATOM     13  HN  UNL     1       7.368  -1.007  24.402  1.00  0.00     0.169 HD
BRANCH  12  14
HETATM   14  C   UNL     1       8.232  -2.778  24.749  1.00  0.00     0.072 A 
HETATM   15  C   UNL     1       8.507  -3.296  25.923  1.00  0.00     0.119 A 
HETATM   16  N   UNL     1       8.611  -4.218  26.733  1.00  0.00    -0.373 N 
HETATM   17  C   UNL     1       8.259  -5.153  25.821  1.00  0.00     0.089 A 
ATOM     18  HN  UNL     1       8.866  -4.261  27.720  1.00  0.00     0.164 HD
HETATM   19  C   UNL     1       7.953  -5.071  24.716  1.00  0.00     0.043 A 
HETATM   20  C   UNL     1       7.825  -4.012  23.915  1.00  0.00     0.063 A 
HETATM   21 CL   UNL     1       7.395  -3.951  22.408  1.00  0.00    -0.082 Cl
ENDBRANCH  12  14
ENDBRANCH   9  10
BRANCH   1  22
HETATM   22  N   UNL     1       5.995   1.172  20.568  1.00  0.00    -0.295 N 
ATOM     23  HN  UNL     1       5.089   1.618  20.711  1.00  0.00     0.177 HD
BRANCH  22  24
HETATM   24  S   UNL     1       6.187   0.303  19.217  1.00  0.00     0.226 S 
HETATM   25  C   UNL     1       5.756  -1.377  19.718  1.00  0.00     0.186 C 
HETATM   26  O   UNL     1       5.231   0.687  18.197  1.00  0.00    -0.206 OA
HETATM   27  O   UNL     1       7.532   0.274  18.770  1.00  0.00    -0.206 OA
ENDBRANCH  22  24
ENDBRANCH   1  22
TORSDOF 4
ENDMDL
MODEL 9
REMARK VINA RESULT:    -6.768      2.985      6.354
REMARK INTER + INTRA:          -9.102
REMARK INTER:                  -8.309
REMARK INTRA:                  -0.793
REMARK UNBOUND:                -0.751
REMARK  4 active torsions:
REMARK  status: ('A' for Active; 'I' for Inactive)
REMARK    1  A    between atoms: S_2  and  N_5 
REMARK    2  A    between atoms: N_5  and  C_7 
REMARK    3  A    between atoms: C_15  and  C_16 
REMARK       I    between atoms: C_16  and  N_18 
REMARK    4  A    between atoms: N_18  and  C_20 
ROOT
HETATM    1  C   UNL     1       9.550   0.450  21.433  1.00  0.00     0.109 C 
HETATM    2  C   UNL     1       8.389   0.060  21.254  1.00  0.00    -0.008 A 
HETATM    3  C   UNL     1       7.188   0.159  20.745  1.00  0.00     0.058 A 
HETATM    4  C   UNL     1       6.139   1.439  21.022  1.00  0.00    -0.003 C 
HETATM    5  C   UNL     1       5.427   1.770  20.242  1.00  0.00    -0.002 C 
HETATM    6  C   UNL     1       5.266   1.454  18.966  1.00  0.00    -0.001 C 
HETATM    7  C   UNL     1       6.255   0.537  18.536  1.00  0.00    -0.002 C 
HETATM    8  C   UNL     1       7.022   0.040  19.056  1.00  0.00    -0.003 C 
HETATM    9  C   UNL     1       6.880  -0.864  21.242  1.00  0.00     0.040 A 
ENDROOT
BRANCH   9  10
HETATM   10  C   UNL     1       6.310  -2.026  21.737  1.00  0.00     0.254 C 
HETATM   11  O   UNL     1       5.845  -2.765  20.991  1.00  0.00    -0.268 OA
HETATM   12  N   UNL     1       6.412  -2.031  23.042  1.00  0.00    -0.320 N 
ATOM     13  HN  UNL     1       6.877  -1.265  23.529  1.00  0.00     0.169 HD
BRANCH  12  14
HETATM   14  C   UNL     1       5.917  -3.012  23.696  1.00  0.00     0.072 A 
HETATM   15  C   UNL     1       4.715  -3.416  24.032  1.00  0.00     0.119 A 
HETATM   16  N   UNL     1       3.906  -4.200  24.529  1.00  0.00    -0.373 N 
HETATM   17  C   UNL     1       4.876  -5.044  24.951  1.00  0.00     0.089 A 
ATOM     18  HN  UNL     1       2.889  -4.210  24.598  1.00  0.00     0.164 HD
HETATM   19  C   UNL     1       6.020  -5.017  24.838  1.00  0.00     0.043 A 
HETATM   20  C   UNL     1       6.824  -4.137  24.239  1.00  0.00     0.063 A 
HETATM   21 CL   UNL     1       8.386  -4.149  24.105  1.00  0.00    -0.082 Cl
ENDBRANCH  12  14
ENDBRANCH   9  10
BRANCH   1  22
HETATM   22  N   UNL     1      10.517   0.572  22.028  1.00  0.00    -0.295 N 
ATOM     23  HN  UNL     1      11.394   0.534  21.508  1.00  0.00     0.177 HD
BRANCH  22  24
HETATM   24  S   UNL     1      10.616   0.801  23.627  1.00  0.00     0.226 S 
HETATM   25  C   UNL     1      10.169  -0.803  24.322  1.00  0.00     0.186 C 
HETATM   26  O   UNL     1      11.978   1.067  24.044  1.00  0.00    -0.206 OA
HETATM   27  O   UNL     1       9.668   1.743  24.104  1.00  0.00    -0.206 OA
ENDBRANCH  22  24
ENDBRANCH   1  22
TORSDOF 4
ENDMDL
