stable:False satoms:8 tatoms:24 sratio:0.3333333333333333
  -OEChem-07092417473D

 24 26  0     1  0  0  0  0  0999 V2000
    6.5550   -4.8708   26.3897 C   0  0  0  0  0  0  0  0  0  0  0  0
    8.2375   -4.2894   26.0937 S   0  0  0  0  0  0  0  0  0  0  0  0
    9.0825   -5.4672   26.0609 O   0  0  0  0  0  0  0  0  0  0  0  0
    8.5538   -3.3770   27.1331 O   0  0  0  0  0  0  0  0  0  0  0  0
    8.1532   -3.5776   24.6428 N   0  0  0  0  0  0  0  0  0  0  0  0
    8.9843   -2.9664   24.1536 C   0  0  0  0  0  0  0  0  0  0  0  0
    9.4414   -2.0047   23.5214 C   0  0  0  0  0  0  0  0  0  0  0  0
   10.3756   -1.1414   23.2221 C   0  0  1  0  0  0  0  0  0  0  0  0
   11.0431   -0.0472   24.3056 C   0  0  0  0  0  0  0  0  0  0  0  0
   12.1023    0.2652   24.2211 C   0  0  0  0  0  0  0  0  0  0  0  0
   13.1133   -0.1489   23.4718 C   0  0  0  0  0  0  0  0  0  0  0  0
   12.7360   -1.2460   22.6616 C   0  0  0  0  0  0  0  0  0  0  0  0
   11.8099   -1.7236   22.5172 C   0  0  0  0  0  0  0  0  0  0  0  0
    9.6911   -0.6705   22.3866 C   0  0  3  0  0  0  0  0  0  0  0  0
    9.0584    0.0317   21.3742 C   0  0  0  0  0  0  0  0  0  0  0  0
    9.5603    0.9854   20.9757 O   0  0  0  0  0  0  0  0  0  0  0  0
    7.9341   -0.5692   21.0740 N   0  0  0  0  0  0  0  0  0  0  0  0
    7.1821   -0.0595   20.1753 C   0  0  0  0  0  0  0  0  0  0  0  0
    7.2026    0.0392   18.8673 C   0  0  0  0  0  0  0  0  0  0  0  0
    6.7376    0.3477   17.7687 N   0  0  0  0  0  0  0  0  0  0  0  0
    5.6277    0.8957   18.3135 C   0  0  0  0  0  0  0  0  0  0  0  0
    5.2736    0.9900   19.4035 C   0  0  0  0  0  0  0  0  0  0  0  0
    5.8292    0.5841   20.5467 C   0  0  0  0  0  0  0  0  0  0  0  0
    5.2991    0.7301   22.0164 Cl  0  0  0  0  0  0  0  0  0  0  0  0
 20 21  2  0  0  0  0
 19 20  1  0  0  0  0
 21 22  1  0  0  0  0
 18 19  2  0  0  0  0
 22 23  2  0  0  0  0
 18 23  1  0  0  0  0
 17 18  1  0  0  0  0
 23 24  1  0  0  0  0
 15 16  2  0  0  0  0
 15 17  1  0  0  0  0
 14 15  1  0  0  0  0
  8 14  1  0  0  0  0
  7 14  1  0  0  0  0
 12 13  1  0  0  0  0
  8 13  1  0  0  0  0
 11 12  2  0  0  0  0
  7  8  1  0  0  0  0
  8  9  1  0  0  0  0
 10 11  1  0  0  0  0
  6  7  2  3  0  0  0
  5  6  1  0  0  0  0
  9 10  2  0  0  0  0
  2  5  1  0  0  0  0
  2  3  2  0  0  0  0
  1  2  1  0  0  0  0
  2  4  2  0  0  0  0
M  END
> <Shapegauss>
-287.418457

$$$$
