stable:False satoms:19 tatoms:24 sratio:0.7916666666666666
  -OEChem-07092417283D

 24 24  0     1  0  0  0  0  0999 V2000
    8.8936    1.7714   24.1729 H   0  0  0  0  0  0  0  0  0  0  0  0
    8.8239   -1.0812   19.5755 C   0  0  0  0  0  0  0  0  0  0  0  0
    9.7190   -2.1228   25.1014 C   0  0  0  0  0  0  0  0  0  0  0  0
   10.2760   -2.9898   25.4481 H   0  0  0  0  0  0  0  0  0  0  0  0
   10.2100    0.9354   25.9547 H   0  0  0  0  0  0  0  0  0  0  0  0
    7.8945   -2.6126   18.9279 H   0  0  0  0  0  0  0  0  0  0  0  0
    8.9068   -1.1281   21.0531 C   0  0  0  0  0  0  0  0  0  0  0  0
    7.6559   -0.8134   20.5708 C   0  0  0  0  0  0  0  0  0  0  0  0
    7.8728   -1.4205   23.4969 C   0  0  0  0  0  0  0  0  0  0  0  0
    8.8760    0.6963   24.3305 C   0  0  0  0  0  0  0  0  0  0  0  0
    9.6755    0.1932   25.3595 C   0  0  0  0  0  0  0  0  0  0  0  0
    7.2406    0.1853   20.4411 H   0  0  0  0  0  0  0  0  0  0  0  0
    9.6109   -4.3289   22.6402 N   0  0  0  0  0  0  0  0  0  0  0  0
    8.0118   -0.0447   23.5209 C   0  5  3  0  0  0  0  0  0  0  0  0
    6.8341   -1.5194   20.7186 H   0  0  0  0  0  0  0  0  0  0  0  0
    8.7166   -2.1285   18.7025 O   0  0  0  0  0  0  0  0  0  0  0  0
    9.2529   -2.1206   21.4259 H   0  0  0  0  0  0  0  0  0  0  0  0
    9.3569   -0.2613   19.1123 H   0  0  0  0  0  0  0  0  0  0  0  0
    9.2596   -3.4548   23.2510 C   0  0  0  0  0  0  0  0  0  0  0  0
    6.9355   -1.8622   23.2059 H   0  0  0  0  0  0  0  0  0  0  0  0
    8.8997   -2.2964   23.9433 C   0  0  0  0  0  0  0  0  0  0  0  0
    9.4220   -0.3655   21.6654 H   0  0  0  0  0  0  0  0  0  0  0  0
    7.3324    0.5230   22.9110 H   0  0  0  0  0  0  0  0  0  0  0  0
    9.9070   -1.0442   25.7673 N   0  0  0  0  0  0  0  0  0  0  0  0
  6 16  1  0  0  0  0
  2 16  1  0  0  0  0
  2 18  1  0  0  0  0
  2  8  1  0  0  0  0
  2  7  1  0  0  0  0
  8 12  1  0  0  0  0
  8 15  1  0  0  0  0
  7  8  1  0  0  0  0
  7 17  1  0  0  0  0
  7 22  1  0  0  0  0
 13 19  3  0  0  0  0
 14 23  1  0  0  0  0
  9 20  1  0  0  0  0
 19 21  1  0  0  0  0
  9 14  1  0  0  0  0
  9 21  2  0  0  0  0
 10 14  1  0  0  0  0
  3 21  1  0  0  0  0
  1 10  1  0  0  0  0
 10 11  2  0  0  0  0
  3  4  1  0  0  0  0
  3 24  2  0  0  0  0
 11 24  1  0  0  0  0
  5 11  1  0  0  0  0
M  CHG  1  14  -1
M  END
> <Shapegauss>
-90.549065

$$$$
