REMARK  2 active torsions:
REMARK  status: ('A' for Active; 'I' for Inactive)
REMARK    1  A    between atoms: N_7  and  C_10 
REMARK       I    between atoms: N_12  and  C_17 
REMARK    2  A    between atoms: C_17  and  C_19 
ROOT
HETATM    1 BR   UNL     1       6.412  -4.601  25.919  1.00  0.00    -0.001 Br
HETATM    2  F   UNL     1       9.515  -4.586  25.680  1.00  0.00    -0.206 F 
HETATM    3  O   UNL     1      10.056  -2.454  25.298  1.00  0.00    -0.308 OA
HETATM    4  S   UNL     1       7.671  -3.239  24.212  1.00  0.00    -0.009 SA
HETATM    5  C   UNL     1       9.121  -3.271  25.542  1.00  0.00     0.392 C 
HETATM    6  C   UNL     1       8.331  -2.299  23.242  1.00  0.00     0.120 A 
HETATM    7  C   UNL     1      10.551  -1.447  24.044  1.00  0.00     0.078 C 
HETATM    8  C   UNL     1       9.694  -1.517  23.142  1.00  0.00     0.112 C 
HETATM    9  C   UNL     1      11.689  -0.475  23.698  1.00  0.00     0.079 C 
HETATM   10  N   UNL     1       7.466  -2.339  22.542  1.00  0.00    -0.322 N 
ATOM     11  HN  UNL     1       6.964  -2.092  21.689  1.00  0.00     0.174 HD
ENDROOT
BRANCH   8  12
HETATM   12  N   UNL     1       9.724  -0.768  22.090  1.00  0.00    -0.293 N 
HETATM   13  N   UNL     1       8.670  -0.422  21.527  1.00  0.00    -0.266 N 
HETATM   14  C   UNL     1       8.464   0.422  20.463  1.00  0.00     0.255 C 
ATOM     15  HN  UNL     1       7.822  -0.831  21.919  1.00  0.00     0.190 HD
HETATM   16  O   UNL     1       9.153   1.425  20.420  1.00  0.00    -0.267 OA
ATOM     17  HN  UNL     1      10.621  -0.457  21.717  1.00  0.00     0.187 HD
BRANCH  14  18
HETATM   18  C   UNL     1       7.479   0.140  19.479  1.00  0.00     0.045 C 
HETATM   19  C   UNL     1       6.080   0.487  19.531  1.00  0.00     0.041 C 
ENDBRANCH  14  18
ENDBRANCH   8  12
TORSDOF 2
