REMARK  6 active torsions:
REMARK  status: ('A' for Active; 'I' for Inactive)
REMARK    1  A    between atoms: S_2  and  N_5 
REMARK    2  A    between atoms: N_5  and  C_7 
REMARK    3  A    between atoms: C_7  and  C_8 
REMARK    4  A    between atoms: C_9  and  C_11 
REMARK    5  A    between atoms: C_12  and  C_13 
REMARK       I    between atoms: C_13  and  N_15 
REMARK    6  A    between atoms: N_15  and  C_17 
ROOT
HETATM    1  C   UNL     1       9.354  -1.945  23.532  1.00  0.00     0.030 A 
HETATM    2  C   UNL     1      10.494  -0.918  23.456  1.00  0.00     0.090 A 
HETATM    3  C   UNL     1       9.575  -0.813  22.578  1.00  0.00     0.039 A 
ENDROOT
BRANCH   3   4
HETATM    4  C   UNL     1       9.023  -0.032  21.402  1.00  0.00     0.254 C 
HETATM    5  O   UNL     1       9.607   0.898  20.929  1.00  0.00    -0.268 OA
HETATM    6  N   UNL     1       7.877  -0.533  21.073  1.00  0.00    -0.322 N 
ATOM      7  HN  UNL     1       7.586  -1.390  21.544  1.00  0.00     0.169 HD
BRANCH   6   8
HETATM    8  C   UNL     1       7.053  -0.022  20.174  1.00  0.00     0.053 A 
HETATM    9  C   UNL     1       7.123   0.054  18.820  1.00  0.00     0.136 A 
HETATM   10  N   UNL     1       6.597   0.369  17.839  1.00  0.00    -0.310 N 
HETATM   11  N   UNL     1       5.560   0.892  18.173  1.00  0.00    -0.312 N 
ATOM     12  HN  UNL     1       6.938   0.233  16.887  1.00  0.00     0.186 HD
HETATM   13  C   UNL     1       5.330   0.894  19.340  1.00  0.00     0.109 A 
ATOM     14  HN  UNL     1       4.921   1.307  17.495  1.00  0.00     0.186 HD
HETATM   15  C   UNL     1       5.778   0.513  20.490  1.00  0.00     0.049 A 
ENDBRANCH   6   8
ENDBRANCH   3   4
BRANCH   1  16
HETATM   16  C   UNL     1       8.890  -2.864  24.119  1.00  0.00    -0.022 C 
BRANCH  16  17
HETATM   17  N   UNL     1       8.160  -3.623  24.617  1.00  0.00    -0.236 N 
ATOM     18  HN  UNL     1       7.344  -3.880  24.061  1.00  0.00     0.189 HD
BRANCH  17  19
HETATM   19  S   UNL     1       8.267  -4.329  26.082  1.00  0.00     0.327 S 
HETATM   20 CL   UNL     1       6.436  -4.790  26.457  1.00  0.00     0.042 Cl
HETATM   21  O   UNL     1       9.031  -5.539  26.006  1.00  0.00    -0.188 OA
HETATM   22  O   UNL     1       8.656  -3.469  27.134  1.00  0.00    -0.188 OA
ENDBRANCH  17  19
ENDBRANCH  16  17
ENDBRANCH   1  16
BRANCH   2  23
HETATM   23  C   UNL     1      11.749  -1.166  23.110  1.00  0.00    -0.022 C 
HETATM   24  C   UNL     1      12.813  -0.531  23.318  1.00  0.00     0.008 C 
ENDBRANCH   2  23
TORSDOF 6
