MODEL 1
REMARK VINA RESULT:    -6.625      0.000      0.000
REMARK INTER + INTRA:          -9.633
REMARK INTER:                  -8.949
REMARK INTRA:                  -0.684
REMARK UNBOUND:                -0.684
REMARK  7 active torsions:
REMARK  status: ('A' for Active; 'I' for Inactive)
REMARK    1  A    between atoms: S_2  and  N_5 
REMARK    2  A    between atoms: N_5  and  C_7 
REMARK    3  A    between atoms: C_7  and  C_8 
REMARK    4  A    between atoms: C_8  and  C_12 
REMARK    5  A    between atoms: C_9  and  C_11 
REMARK    6  A    between atoms: C_12  and  C_13 
REMARK       I    between atoms: C_13  and  N_15 
REMARK    7  A    between atoms: N_15  and  C_17 
ROOT
HETATM    1  C   UNL     1       7.632  -5.072  23.251  1.00  0.00     0.080 C 
HETATM    2  C   UNL     1       8.311  -4.006  23.944  1.00  0.00     0.068 C 
ENDROOT
BRANCH   2   3
HETATM    3  C   UNL     1       8.142  -4.532  25.061  1.00  0.00    -0.042 C 
BRANCH   3   4
HETATM    4  C   UNL     1       7.985  -5.011  26.213  1.00  0.00     0.028 C 
BRANCH   4   5
HETATM    5  N   UNL     1       7.914  -5.705  27.197  1.00  0.00    -0.223 N 
ATOM      6  HN  UNL     1       8.785  -6.191  27.410  1.00  0.00     0.192 HD
BRANCH   5   7
HETATM    7  S   UNL     1       6.747  -6.023  28.233  1.00  0.00     0.216 S 
HETATM    8  O   UNL     1       5.725  -6.782  27.325  1.00  0.00    -0.577 OA
HETATM    9  O   UNL     1       7.250  -6.961  29.232  1.00  0.00    -0.577 OA
HETATM   10  O   UNL     1       6.138  -4.836  28.787  1.00  0.00    -0.577 OA
ENDBRANCH   5   7
ENDBRANCH   4   5
ENDBRANCH   3   4
ENDBRANCH   2   3
BRANCH   2  11
HETATM   11  C   UNL     1       8.958  -2.629  23.497  1.00  0.00     0.261 C 
HETATM   12  O   UNL     1       8.851  -2.248  22.370  1.00  0.00    -0.267 OA
HETATM   13  N   UNL     1       9.589  -2.071  24.500  1.00  0.00    -0.321 N 
ATOM     14  HN  UNL     1       9.613  -2.548  25.402  1.00  0.00     0.169 HD
BRANCH  13  15
HETATM   15  C   UNL     1      10.181  -0.929  24.371  1.00  0.00     0.050 C 
HETATM   16  C   UNL     1       9.850   0.333  24.554  1.00  0.00     0.117 C 
HETATM   17  N   UNL     1      10.197   1.521  24.623  1.00  0.00    -0.373 N 
HETATM   18  C   UNL     1      11.316   1.420  24.240  1.00  0.00     0.088 C 
ATOM     19  HN  UNL     1       9.675   2.344  24.921  1.00  0.00     0.164 HD
HETATM   20  C   UNL     1      11.953   0.371  23.978  1.00  0.00     0.019 C 
HETATM   21  C   UNL     1      11.659  -0.890  24.020  1.00  0.00     0.032 C 
ENDBRANCH  13  15
ENDBRANCH   2  11
BRANCH   1  22
HETATM   22  C   UNL     1       7.102  -5.924  21.816  1.00  0.00    -0.032 C 
HETATM   23  C   UNL     1       6.025  -5.834  21.570  1.00  0.00     0.007 C 
ENDBRANCH   1  22
TORSDOF 7
ENDMDL
MODEL 2
REMARK VINA RESULT:    -6.139      3.679      4.603
REMARK INTER + INTRA:          -8.976
REMARK INTER:                  -8.277
REMARK INTRA:                  -0.699
REMARK UNBOUND:                -0.684
REMARK  7 active torsions:
REMARK  status: ('A' for Active; 'I' for Inactive)
REMARK    1  A    between atoms: S_2  and  N_5 
REMARK    2  A    between atoms: N_5  and  C_7 
REMARK    3  A    between atoms: C_7  and  C_8 
REMARK    4  A    between atoms: C_8  and  C_12 
REMARK    5  A    between atoms: C_9  and  C_11 
REMARK    6  A    between atoms: C_12  and  C_13 
REMARK       I    between atoms: C_13  and  N_15 
REMARK    7  A    between atoms: N_15  and  C_17 
ROOT
HETATM    1  C   UNL     1       6.700  -0.343  20.546  1.00  0.00     0.080 C 
HETATM    2  C   UNL     1       7.721  -0.898  21.399  1.00  0.00     0.068 C 
ENDROOT
BRANCH   2   3
HETATM    3  C   UNL     1       6.978  -1.810  21.810  1.00  0.00    -0.042 C 
BRANCH   3   4
HETATM    4  C   UNL     1       6.198  -2.690  22.256  1.00  0.00     0.028 C 
BRANCH   4   5
HETATM    5  N   UNL     1       5.685  -3.668  22.741  1.00  0.00    -0.223 N 
ATOM      6  HN  UNL     1       4.836  -3.459  23.265  1.00  0.00     0.192 HD
BRANCH   5   7
HETATM    7  S   UNL     1       6.056  -5.218  22.735  1.00  0.00     0.216 S 
HETATM    8  O   UNL     1       5.614  -5.636  21.295  1.00  0.00    -0.577 OA
HETATM    9  O   UNL     1       7.507  -5.352  22.821  1.00  0.00    -0.577 OA
HETATM   10  O   UNL     1       5.330  -5.981  23.723  1.00  0.00    -0.577 OA
ENDBRANCH   5   7
ENDBRANCH   4   5
ENDBRANCH   3   4
ENDBRANCH   2   3
BRANCH   2  11
HETATM   11  C   UNL     1       9.205  -0.479  21.768  1.00  0.00     0.261 C 
HETATM   12  O   UNL     1       9.753   0.397  21.168  1.00  0.00    -0.267 OA
HETATM   13  N   UNL     1       9.664  -1.227  22.740  1.00  0.00    -0.321 N 
ATOM     14  HN  UNL     1       9.072  -1.961  23.128  1.00  0.00     0.169 HD
BRANCH  13  15
HETATM   15  C   UNL     1      10.853  -1.052  23.219  1.00  0.00     0.050 C 
HETATM   16  C   UNL     1      12.051  -1.545  22.979  1.00  0.00     0.117 C 
HETATM   17  N   UNL     1      13.274  -1.497  23.167  1.00  0.00    -0.373 N 
HETATM   18  C   UNL     1      13.305  -0.699  24.045  1.00  0.00     0.088 C 
ATOM     19  HN  UNL     1      14.033  -1.997  22.704  1.00  0.00     0.164 HD
HETATM   20  C   UNL     1      12.355  -0.031  24.518  1.00  0.00     0.019 C 
HETATM   21  C   UNL     1      11.088   0.035  24.255  1.00  0.00     0.032 C 
ENDBRANCH  13  15
ENDBRANCH   2  11
BRANCH   1  22
HETATM   22  C   UNL     1       6.107   0.752  19.315  1.00  0.00    -0.032 C 
HETATM   23  C   UNL     1       5.703   0.278  18.398  1.00  0.00     0.007 C 
ENDBRANCH   1  22
TORSDOF 7
ENDMDL
MODEL 3
REMARK VINA RESULT:    -5.905      3.206      7.169
REMARK INTER + INTRA:          -8.660
REMARK INTER:                  -8.077
REMARK INTRA:                  -0.583
REMARK UNBOUND:                -0.684
REMARK  7 active torsions:
REMARK  status: ('A' for Active; 'I' for Inactive)
REMARK    1  A    between atoms: S_2  and  N_5 
REMARK    2  A    between atoms: N_5  and  C_7 
REMARK    3  A    between atoms: C_7  and  C_8 
REMARK    4  A    between atoms: C_8  and  C_12 
REMARK    5  A    between atoms: C_9  and  C_11 
REMARK    6  A    between atoms: C_12  and  C_13 
REMARK       I    between atoms: C_13  and  N_15 
REMARK    7  A    between atoms: N_15  and  C_17 
ROOT
HETATM    1  C   UNL     1       7.625  -5.123  23.223  1.00  0.00     0.080 C 
HETATM    2  C   UNL     1       7.945  -4.601  24.529  1.00  0.00     0.068 C 
ENDROOT
BRANCH   2   3
HETATM    3  C   UNL     1       8.619  -3.662  24.062  1.00  0.00    -0.042 C 
BRANCH   3   4
HETATM    4  C   UNL     1       9.264  -2.676  23.623  1.00  0.00     0.028 C 
BRANCH   4   5
HETATM    5  N   UNL     1       9.791  -1.820  22.956  1.00  0.00    -0.223 N 
ATOM      6  HN  UNL     1       9.222  -1.519  22.165  1.00  0.00     0.192 HD
BRANCH   5   7
HETATM    7  S   UNL     1      11.189  -1.061  23.051  1.00  0.00     0.216 S 
HETATM    8  O   UNL     1      10.941   0.163  22.111  1.00  0.00    -0.577 OA
HETATM    9  O   UNL     1      11.359  -0.562  24.412  1.00  0.00    -0.577 OA
HETATM   10  O   UNL     1      12.298  -1.849  22.565  1.00  0.00    -0.577 OA
ENDBRANCH   5   7
ENDBRANCH   4   5
ENDBRANCH   3   4
ENDBRANCH   2   3
BRANCH   2  11
HETATM   11  C   UNL     1       7.648  -5.070  26.013  1.00  0.00     0.261 C 
HETATM   12  O   UNL     1       8.530  -5.128  26.818  1.00  0.00    -0.267 OA
HETATM   13  N   UNL     1       6.382  -5.374  26.154  1.00  0.00    -0.321 N 
ATOM     14  HN  UNL     1       5.758  -5.299  25.350  1.00  0.00     0.169 HD
BRANCH  13  15
HETATM   15  C   UNL     1       5.907  -5.767  27.291  1.00  0.00     0.050 C 
HETATM   16  C   UNL     1       5.665  -6.928  27.864  1.00  0.00     0.117 C 
HETATM   17  N   UNL     1       5.357  -7.564  28.881  1.00  0.00    -0.373 N 
HETATM   18  C   UNL     1       5.056  -6.662  29.592  1.00  0.00     0.088 C 
ATOM     19  HN  UNL     1       5.361  -8.569  29.057  1.00  0.00     0.164 HD
HETATM   20  C   UNL     1       5.163  -5.433  29.369  1.00  0.00     0.019 C 
HETATM   21  C   UNL     1       5.600  -4.738  28.367  1.00  0.00     0.032 C 
ENDBRANCH  13  15
ENDBRANCH   2  11
BRANCH   1  22
HETATM   22  C   UNL     1       6.788  -6.201  22.126  1.00  0.00    -0.032 C 
HETATM   23  C   UNL     1       5.966  -5.749  21.536  1.00  0.00     0.007 C 
ENDBRANCH   1  22
TORSDOF 7
ENDMDL
MODEL 4
REMARK VINA RESULT:    -5.816     23.498     26.058
REMARK INTER + INTRA:          -8.540
REMARK INTER:                  -7.985
REMARK INTRA:                  -0.555
REMARK UNBOUND:                -0.684
REMARK  7 active torsions:
REMARK  status: ('A' for Active; 'I' for Inactive)
REMARK    1  A    between atoms: S_2  and  N_5 
REMARK    2  A    between atoms: N_5  and  C_7 
REMARK    3  A    between atoms: C_7  and  C_8 
REMARK    4  A    between atoms: C_8  and  C_12 
REMARK    5  A    between atoms: C_9  and  C_11 
REMARK    6  A    between atoms: C_12  and  C_13 
REMARK       I    between atoms: C_13  and  N_15 
REMARK    7  A    between atoms: N_15  and  C_17 
ROOT
HETATM    1  C   UNL     1       4.843  11.539   2.691  1.00  0.00     0.080 C 
HETATM    2  C   UNL     1       5.410  10.280   3.109  1.00  0.00     0.068 C 
ENDROOT
BRANCH   2   3
HETATM    3  C   UNL     1       6.549  10.764   3.251  1.00  0.00    -0.042 C 
BRANCH   3   4
HETATM    4  C   UNL     1       7.694  11.278   3.342  1.00  0.00     0.028 C 
BRANCH   4   5
HETATM    5  N   UNL     1       8.653  12.007   3.381  1.00  0.00    -0.223 N 
ATOM      6  HN  UNL     1       9.538  11.515   3.262  1.00  0.00     0.192 HD
BRANCH   5   7
HETATM    7  S   UNL     1       8.830  13.578   3.580  1.00  0.00     0.216 S 
HETATM    8  O   UNL     1       7.747  13.876   4.667  1.00  0.00    -0.577 OA
HETATM    9  O   UNL     1      10.143  13.832   4.165  1.00  0.00    -0.577 OA
HETATM   10  O   UNL     1       8.558  14.337   2.381  1.00  0.00    -0.577 OA
ENDBRANCH   5   7
ENDBRANCH   4   5
ENDBRANCH   3   4
ENDBRANCH   2   3
BRANCH   2  11
HETATM   11  C   UNL     1       4.847   8.806   3.254  1.00  0.00     0.261 C 
HETATM   12  O   UNL     1       4.510   8.189   2.287  1.00  0.00    -0.267 OA
HETATM   13  N   UNL     1       4.807   8.452   4.514  1.00  0.00    -0.321 N 
ATOM     14  HN  UNL     1       5.105   9.115   5.229  1.00  0.00     0.169 HD
BRANCH  13  15
HETATM   15  C   UNL     1       4.396   7.278   4.870  1.00  0.00     0.050 C 
HETATM   16  C   UNL     1       4.837   6.043   4.743  1.00  0.00     0.117 C 
HETATM   17  N   UNL     1       4.739   4.846   5.047  1.00  0.00    -0.373 N 
HETATM   18  C   UNL     1       3.706   4.877   5.630  1.00  0.00     0.088 C 
ATOM     19  HN  UNL     1       5.364   4.063   4.853  1.00  0.00     0.164 HD
HETATM   20  C   UNL     1       3.018   5.880   5.934  1.00  0.00     0.019 C 
HETATM   21  C   UNL     1       3.158   7.154   5.743  1.00  0.00     0.032 C 
ENDBRANCH  13  15
ENDBRANCH   2  11
BRANCH   1  22
HETATM   22  C   UNL     1       3.516  12.595   2.253  1.00  0.00    -0.032 C 
HETATM   23  C   UNL     1       3.335  13.452   2.932  1.00  0.00     0.007 C 
ENDBRANCH   1  22
TORSDOF 7
ENDMDL
MODEL 5
REMARK VINA RESULT:    -5.647      2.522      3.380
REMARK INTER + INTRA:          -8.312
REMARK INTER:                  -7.717
REMARK INTRA:                  -0.595
REMARK UNBOUND:                -0.684
REMARK  7 active torsions:
REMARK  status: ('A' for Active; 'I' for Inactive)
REMARK    1  A    between atoms: S_2  and  N_5 
REMARK    2  A    between atoms: N_5  and  C_7 
REMARK    3  A    between atoms: C_7  and  C_8 
REMARK    4  A    between atoms: C_8  and  C_12 
REMARK    5  A    between atoms: C_9  and  C_11 
REMARK    6  A    between atoms: C_12  and  C_13 
REMARK       I    between atoms: C_13  and  N_15 
REMARK    7  A    between atoms: N_15  and  C_17 
ROOT
HETATM    1  C   UNL     1       4.256  -5.673  24.262  1.00  0.00     0.080 C 
HETATM    2  C   UNL     1       5.669  -5.473  24.467  1.00  0.00     0.068 C 
ENDROOT
BRANCH   2   3
HETATM    3  C   UNL     1       5.639  -5.952  25.617  1.00  0.00    -0.042 C 
BRANCH   3   4
HETATM    4  C   UNL     1       5.638  -6.484  26.756  1.00  0.00     0.028 C 
BRANCH   4   5
HETATM    5  N   UNL     1       5.366  -7.029  27.797  1.00  0.00    -0.223 N 
ATOM      6  HN  UNL     1       4.631  -7.730  27.705  1.00  0.00     0.192 HD
BRANCH   5   7
HETATM    7  S   UNL     1       5.915  -6.885  29.286  1.00  0.00     0.216 S 
HETATM    8  O   UNL     1       4.641  -7.237  30.121  1.00  0.00    -0.577 OA
HETATM    9  O   UNL     1       6.913  -7.925  29.520  1.00  0.00    -0.577 OA
HETATM   10  O   UNL     1       6.367  -5.550  29.600  1.00  0.00    -0.577 OA
ENDBRANCH   5   7
ENDBRANCH   4   5
ENDBRANCH   3   4
ENDBRANCH   2   3
BRANCH   2  11
HETATM   11  C   UNL     1       6.830  -4.814  23.613  1.00  0.00     0.261 C 
HETATM   12  O   UNL     1       7.430  -5.460  22.806  1.00  0.00    -0.267 OA
HETATM   13  N   UNL     1       6.997  -3.561  23.955  1.00  0.00    -0.321 N 
ATOM     14  HN  UNL     1       6.416  -3.163  24.693  1.00  0.00     0.169 HD
BRANCH  13  15
HETATM   15  C   UNL     1       7.883  -2.817  23.375  1.00  0.00     0.050 C 
HETATM   16  C   UNL     1       9.190  -2.673  23.449  1.00  0.00     0.117 C 
HETATM   17  N   UNL     1      10.230  -2.181  22.988  1.00  0.00    -0.373 N 
HETATM   18  C   UNL     1       9.758  -1.437  22.192  1.00  0.00     0.088 C 
ATOM     19  HN  UNL     1      11.206  -2.363  23.223  1.00  0.00     0.164 HD
HETATM   20  C   UNL     1       8.554  -1.318  21.863  1.00  0.00     0.019 C 
HETATM   21  C   UNL     1       7.461  -1.906  22.234  1.00  0.00     0.032 C 
ENDBRANCH  13  15
ENDBRANCH   2  11
BRANCH   1  22
HETATM   22  C   UNL     1       2.795  -5.677  23.296  1.00  0.00    -0.032 C 
HETATM   23  C   UNL     1       1.846  -5.537  23.852  1.00  0.00     0.007 C 
ENDBRANCH   1  22
TORSDOF 7
ENDMDL
MODEL 6
REMARK VINA RESULT:    -5.579     23.681     25.737
REMARK INTER + INTRA:          -8.220
REMARK INTER:                  -7.598
REMARK INTRA:                  -0.621
REMARK UNBOUND:                -0.684
REMARK  7 active torsions:
REMARK  status: ('A' for Active; 'I' for Inactive)
REMARK    1  A    between atoms: S_2  and  N_5 
REMARK    2  A    between atoms: N_5  and  C_7 
REMARK    3  A    between atoms: C_7  and  C_8 
REMARK    4  A    between atoms: C_8  and  C_12 
REMARK    5  A    between atoms: C_9  and  C_11 
REMARK    6  A    between atoms: C_12  and  C_13 
REMARK       I    between atoms: C_13  and  N_15 
REMARK    7  A    between atoms: N_15  and  C_17 
ROOT
HETATM    1  C   UNL     1       5.986  11.938   5.390  1.00  0.00     0.080 C 
HETATM    2  C   UNL     1       6.308  10.870   4.477  1.00  0.00     0.068 C 
ENDROOT
BRANCH   2   3
HETATM    3  C   UNL     1       7.316  11.457   4.039  1.00  0.00    -0.042 C 
BRANCH   3   4
HETATM    4  C   UNL     1       8.331  12.086   3.643  1.00  0.00     0.028 C 
BRANCH   4   5
HETATM    5  N   UNL     1       9.116  12.870   3.169  1.00  0.00    -0.223 N 
ATOM      6  HN  UNL     1       9.557  12.529   2.314  1.00  0.00     0.192 HD
BRANCH   5   7
HETATM    7  S   UNL     1       9.608  14.324   3.595  1.00  0.00     0.216 S 
HETATM    8  O   UNL     1      10.508  13.996   4.830  1.00  0.00    -0.577 OA
HETATM    9  O   UNL     1      10.462  14.857   2.539  1.00  0.00    -0.577 OA
HETATM   10  O   UNL     1       8.526  15.199   3.982  1.00  0.00    -0.577 OA
ENDBRANCH   5   7
ENDBRANCH   4   5
ENDBRANCH   3   4
ENDBRANCH   2   3
BRANCH   2  11
HETATM   11  C   UNL     1       5.616   9.498   4.088  1.00  0.00     0.261 C 
HETATM   12  O   UNL     1       5.339   9.262   2.949  1.00  0.00    -0.267 OA
HETATM   13  N   UNL     1       5.407   8.770   5.156  1.00  0.00    -0.321 N 
ATOM     14  HN  UNL     1       5.677   9.134   6.070  1.00  0.00     0.169 HD
BRANCH  13  15
HETATM   15  C   UNL     1       4.865   7.598   5.076  1.00  0.00     0.050 C 
HETATM   16  C   UNL     1       5.297   6.368   4.888  1.00  0.00     0.117 C 
HETATM   17  N   UNL     1       5.062   5.151   4.881  1.00  0.00    -0.373 N 
HETATM   18  C   UNL     1       3.881   5.180   5.000  1.00  0.00     0.088 C 
ATOM     19  HN  UNL     1       5.696   4.358   4.797  1.00  0.00     0.164 HD
HETATM   20  C   UNL     1       3.148   6.177   5.202  1.00  0.00     0.019 C 
HETATM   21  C   UNL     1       3.377   7.445   5.343  1.00  0.00     0.032 C 
ENDBRANCH  13  15
ENDBRANCH   2  11
BRANCH   1  22
HETATM   22  C   UNL     1       5.077  12.665   6.698  1.00  0.00    -0.032 C 
HETATM   23  C   UNL     1       4.806  11.990   7.534  1.00  0.00     0.007 C 
ENDBRANCH   1  22
TORSDOF 7
ENDMDL
MODEL 7
REMARK VINA RESULT:    -5.512      3.493      7.090
REMARK INTER + INTRA:          -8.130
REMARK INTER:                  -7.469
REMARK INTRA:                  -0.660
REMARK UNBOUND:                -0.684
REMARK  7 active torsions:
REMARK  status: ('A' for Active; 'I' for Inactive)
REMARK    1  A    between atoms: S_2  and  N_5 
REMARK    2  A    between atoms: N_5  and  C_7 
REMARK    3  A    between atoms: C_7  and  C_8 
REMARK    4  A    between atoms: C_8  and  C_12 
REMARK    5  A    between atoms: C_9  and  C_11 
REMARK    6  A    between atoms: C_12  and  C_13 
REMARK       I    between atoms: C_13  and  N_15 
REMARK    7  A    between atoms: N_15  and  C_17 
ROOT
HETATM    1  C   UNL     1       7.412  -3.966  22.710  1.00  0.00     0.080 C 
HETATM    2  C   UNL     1       7.995  -3.427  23.913  1.00  0.00     0.068 C 
ENDROOT
BRANCH   2   3
HETATM    3  C   UNL     1       8.674  -2.589  23.290  1.00  0.00    -0.042 C 
BRANCH   3   4
HETATM    4  C   UNL     1       9.409  -1.773  22.675  1.00  0.00     0.028 C 
BRANCH   4   5
HETATM    5  N   UNL     1       9.951  -0.803  22.208  1.00  0.00    -0.223 N 
ATOM      6  HN  UNL     1      10.969  -0.845  22.263  1.00  0.00     0.192 HD
BRANCH   5   7
HETATM    7  S   UNL     1       9.413   0.531  21.523  1.00  0.00     0.216 S 
HETATM    8  O   UNL     1       8.381   1.030  22.586  1.00  0.00    -0.577 OA
HETATM    9  O   UNL     1      10.504   1.499  21.460  1.00  0.00    -0.577 OA
HETATM   10  O   UNL     1       8.755   0.296  20.259  1.00  0.00    -0.577 OA
ENDBRANCH   5   7
ENDBRANCH   4   5
ENDBRANCH   3   4
ENDBRANCH   2   3
BRANCH   2  11
HETATM   11  C   UNL     1       7.900  -3.796  25.452  1.00  0.00     0.261 C 
HETATM   12  O   UNL     1       8.673  -3.329  26.235  1.00  0.00    -0.267 OA
HETATM   13  N   UNL     1       6.926  -4.646  25.661  1.00  0.00    -0.321 N 
ATOM     14  HN  UNL     1       6.372  -4.975  24.870  1.00  0.00     0.169 HD
BRANCH  13  15
HETATM   15  C   UNL     1       6.652  -5.076  26.850  1.00  0.00     0.050 C 
HETATM   16  C   UNL     1       7.066  -6.063  27.617  1.00  0.00     0.117 C 
HETATM   17  N   UNL     1       7.079  -6.607  28.730  1.00  0.00    -0.373 N 
HETATM   18  C   UNL     1       6.244  -5.961  29.273  1.00  0.00     0.088 C 
ATOM     19  HN  UNL     1       7.642  -7.383  29.078  1.00  0.00     0.164 HD
HETATM   20  C   UNL     1       5.646  -4.948  28.839  1.00  0.00     0.019 C 
HETATM   21  C   UNL     1       5.703  -4.279  27.730  1.00  0.00     0.032 C 
ENDBRANCH  13  15
ENDBRANCH   2  11
BRANCH   1  22
HETATM   22  C   UNL     1       6.301  -4.992  21.826  1.00  0.00    -0.032 C 
HETATM   23  C   UNL     1       6.672  -6.006  21.577  1.00  0.00     0.007 C 
ENDBRANCH   1  22
TORSDOF 7
ENDMDL
MODEL 8
REMARK VINA RESULT:    -5.275     27.819     30.219
REMARK INTER + INTRA:          -7.809
REMARK INTER:                  -7.132
REMARK INTRA:                  -0.677
REMARK UNBOUND:                -0.684
REMARK  7 active torsions:
REMARK  status: ('A' for Active; 'I' for Inactive)
REMARK    1  A    between atoms: S_2  and  N_5 
REMARK    2  A    between atoms: N_5  and  C_7 
REMARK    3  A    between atoms: C_7  and  C_8 
REMARK    4  A    between atoms: C_8  and  C_12 
REMARK    5  A    between atoms: C_9  and  C_11 
REMARK    6  A    between atoms: C_12  and  C_13 
REMARK       I    between atoms: C_13  and  N_15 
REMARK    7  A    between atoms: N_15  and  C_17 
ROOT
HETATM    1  C   UNL     1       7.625  16.085   3.274  1.00  0.00     0.080 C 
HETATM    2  C   UNL     1       7.773  15.233   2.121  1.00  0.00     0.068 C 
ENDROOT
BRANCH   2   3
HETATM    3  C   UNL     1       8.499  16.053   1.525  1.00  0.00    -0.042 C 
BRANCH   3   4
HETATM    4  C   UNL     1       9.182  16.906   0.902  1.00  0.00     0.028 C 
BRANCH   4   5
HETATM    5  N   UNL     1       9.718  17.901   0.483  1.00  0.00    -0.223 N 
ATOM      6  HN  UNL     1      10.246  17.743  -0.375  1.00  0.00     0.192 HD
BRANCH   5   7
HETATM    7  S   UNL     1       9.775  19.412   0.987  1.00  0.00     0.216 S 
HETATM    8  O   UNL     1       8.449  19.514   1.808  1.00  0.00    -0.577 OA
HETATM    9  O   UNL     1      10.894  19.554   1.913  1.00  0.00    -0.577 OA
HETATM   10  O   UNL     1       9.772  20.372  -0.092  1.00  0.00    -0.577 OA
ENDBRANCH   5   7
ENDBRANCH   4   5
ENDBRANCH   3   4
ENDBRANCH   2   3
BRANCH   2  11
HETATM   11  C   UNL     1       7.180  13.825   1.699  1.00  0.00     0.261 C 
HETATM   12  O   UNL     1       7.440  13.354   0.632  1.00  0.00    -0.267 OA
HETATM   13  N   UNL     1       6.409  13.350   2.645  1.00  0.00    -0.321 N 
ATOM     14  HN  UNL     1       6.264  13.898   3.493  1.00  0.00     0.169 HD
BRANCH  13  15
HETATM   15  C   UNL     1       5.828  12.200   2.525  1.00  0.00     0.050 C 
HETATM   16  C   UNL     1       4.692  11.763   2.023  1.00  0.00     0.117 C 
HETATM   17  N   UNL     1       3.980  10.807   1.687  1.00  0.00    -0.373 N 
HETATM   18  C   UNL     1       4.619   9.917   2.144  1.00  0.00     0.088 C 
ATOM     19  HN  UNL     1       3.101  10.788   1.169  1.00  0.00     0.164 HD
HETATM   20  C   UNL     1       5.748   9.975   2.687  1.00  0.00     0.019 C 
HETATM   21  C   UNL     1       6.574  10.942   2.937  1.00  0.00     0.032 C 
ENDBRANCH  13  15
ENDBRANCH   2  11
BRANCH   1  22
HETATM   22  C   UNL     1       7.098  16.440   4.906  1.00  0.00    -0.032 C 
HETATM   23  C   UNL     1       7.812  16.181   5.713  1.00  0.00     0.007 C 
ENDBRANCH   1  22
TORSDOF 7
ENDMDL
MODEL 9
REMARK VINA RESULT:    -5.156      4.868      8.576
REMARK INTER + INTRA:          -7.649
REMARK INTER:                  -6.995
REMARK INTRA:                  -0.654
REMARK UNBOUND:                -0.684
REMARK  7 active torsions:
REMARK  status: ('A' for Active; 'I' for Inactive)
REMARK    1  A    between atoms: S_2  and  N_5 
REMARK    2  A    between atoms: N_5  and  C_7 
REMARK    3  A    between atoms: C_7  and  C_8 
REMARK    4  A    between atoms: C_8  and  C_12 
REMARK    5  A    between atoms: C_9  and  C_11 
REMARK    6  A    between atoms: C_12  and  C_13 
REMARK       I    between atoms: C_13  and  N_15 
REMARK    7  A    between atoms: N_15  and  C_17 
ROOT
HETATM    1  C   UNL     1       7.238   0.371  23.318  1.00  0.00     0.080 C 
HETATM    2  C   UNL     1       7.075  -0.903  22.662  1.00  0.00     0.068 C 
ENDROOT
BRANCH   2   3
HETATM    3  C   UNL     1       7.185  -0.407  21.524  1.00  0.00    -0.042 C 
BRANCH   3   4
HETATM    4  C   UNL     1       7.309   0.038  20.354  1.00  0.00     0.028 C 
BRANCH   4   5
HETATM    5  N   UNL     1       7.155   0.417  19.220  1.00  0.00    -0.223 N 
ATOM      6  HN  UNL     1       8.032   0.615  18.739  1.00  0.00     0.192 HD
BRANCH   5   7
HETATM    7  S   UNL     1       5.869   0.675  18.315  1.00  0.00     0.216 S 
HETATM    8  O   UNL     1       5.682  -0.723  17.639  1.00  0.00    -0.577 OA
HETATM    9  O   UNL     1       4.723   0.915  19.187  1.00  0.00    -0.577 OA
HETATM   10  O   UNL     1       6.074   1.693  17.311  1.00  0.00    -0.577 OA
ENDBRANCH   5   7
ENDBRANCH   4   5
ENDBRANCH   3   4
ENDBRANCH   2   3
BRANCH   2  11
HETATM   11  C   UNL     1       6.776  -2.377  23.162  1.00  0.00     0.261 C 
HETATM   12  O   UNL     1       7.628  -3.016  23.706  1.00  0.00    -0.267 OA
HETATM   13  N   UNL     1       5.548  -2.722  22.866  1.00  0.00    -0.321 N 
ATOM     14  HN  UNL     1       4.951  -2.064  22.366  1.00  0.00     0.169 HD
BRANCH  13  15
HETATM   15  C   UNL     1       5.078  -3.881  23.194  1.00  0.00     0.050 C 
HETATM   16  C   UNL     1       5.166  -5.107  22.719  1.00  0.00     0.117 C 
HETATM   17  N   UNL     1       4.950  -6.318  22.864  1.00  0.00    -0.373 N 
HETATM   18  C   UNL     1       4.262  -6.279  23.830  1.00  0.00     0.088 C 
ATOM     19  HN  UNL     1       5.270  -7.116  22.315  1.00  0.00     0.164 HD
HETATM   20  C   UNL     1       3.975  -5.283  24.536  1.00  0.00     0.019 C 
HETATM   21  C   UNL     1       4.289  -4.027  24.485  1.00  0.00     0.032 C 
ENDBRANCH  13  15
ENDBRANCH   2  11
BRANCH   1  22
HETATM   22  C   UNL     1       7.440   1.400  24.721  1.00  0.00    -0.032 C 
HETATM   23  C   UNL     1       6.612   2.107  24.926  1.00  0.00     0.007 C 
ENDBRANCH   1  22
TORSDOF 7
ENDMDL
