MODEL 1
REMARK VINA RESULT:    -4.904      0.000      0.000
REMARK INTER + INTRA:          -7.315
REMARK INTER:                  -6.624
REMARK INTRA:                  -0.691
REMARK UNBOUND:                -0.691
REMARK  6 active torsions:
REMARK  status: ('A' for Active; 'I' for Inactive)
REMARK    1  A    between atoms: N_4  and  C_20 
REMARK       I    between atoms: N_4  and  C_6 
REMARK    2  A    between atoms: N_5  and  C_7 
REMARK    3  A    between atoms: C_6  and  C_7 
REMARK    4  A    between atoms: C_8  and  O_11 
REMARK    5  A    between atoms: O_11  and  C_17 
REMARK    6  A    between atoms: C_17  and  N_18 
ROOT
HETATM    1  C   UNL     1       5.588  -1.628  19.333  1.00  0.00     0.185 C 
HETATM    2  N   UNL     1       5.303  -2.564  18.821  1.00  0.00    -0.172 NA
HETATM    3  N   UNL     1       5.958  -0.561  20.015  1.00  0.00    -0.259 N 
ATOM      4  HN  UNL     1       5.615  -0.371  20.957  1.00  0.00     0.181 HD
ENDROOT
BRANCH   3   5
HETATM    5  C   UNL     1       6.777   0.222  19.413  1.00  0.00     0.232 C 
HETATM    6  N   UNL     1       6.789   0.366  18.063  1.00  0.00    -0.364 N 
HETATM    7  H   UNL     1       6.979   1.242  17.619  1.00  0.00     0.159 HD
HETATM    8  H   UNL     1       6.560  -0.527  17.677  1.00  0.00     0.159 HD
BRANCH   5   9
HETATM    9  O   UNL     1       7.792   0.839  20.053  1.00  0.00    -0.275 OA
BRANCH   9  10
HETATM   10  C   UNL     1       8.269   0.311  21.187  1.00  0.00     0.233 C 
HETATM   11  N   UNL     1       9.394  -0.320  21.067  1.00  0.00    -0.372 N 
HETATM   12  H   UNL     1      10.027   0.165  20.431  1.00  0.00     0.161 HD
BRANCH  11  13
HETATM   13  C   UNL     1       9.580  -1.553  21.787  1.00  0.00     0.217 C 
BRANCH  13  14
HETATM   14  C   UNL     1      10.666  -1.541  22.885  1.00  0.00     0.215 C 
HETATM   15  O   UNL     1      11.799  -1.906  22.657  1.00  0.00    -0.278 OA
HETATM   16  N   UNL     1      10.334  -1.036  24.092  1.00  0.00    -0.247 NA
HETATM   17  H   UNL     1      10.992  -0.970  24.850  1.00  0.00     0.131 HD
BRANCH  16  18
HETATM   18  C   UNL     1       8.996  -1.662  24.597  1.00  0.00     0.134 A 
HETATM   19  C   UNL     1       8.807  -1.098  25.662  1.00  0.00     0.106 A 
HETATM   20  S   UNL     1       8.308  -2.531  26.021  1.00  0.00    -0.146 SA
ENDBRANCH  16  18
ENDBRANCH  13  14
ENDBRANCH  11  13
ENDBRANCH   9  10
ENDBRANCH   5   9
ENDBRANCH   3   5
TORSDOF 6
ENDMDL
MODEL 2
REMARK VINA RESULT:    -4.681     23.883     25.569
REMARK INTER + INTRA:          -7.014
REMARK INTER:                  -5.995
REMARK INTRA:                  -1.019
REMARK UNBOUND:                -0.691
REMARK  6 active torsions:
REMARK  status: ('A' for Active; 'I' for Inactive)
REMARK    1  A    between atoms: N_4  and  C_20 
REMARK       I    between atoms: N_4  and  C_6 
REMARK    2  A    between atoms: N_5  and  C_7 
REMARK    3  A    between atoms: C_6  and  C_7 
REMARK    4  A    between atoms: C_8  and  O_11 
REMARK    5  A    between atoms: O_11  and  C_17 
REMARK    6  A    between atoms: C_17  and  N_18 
ROOT
HETATM    1  C   UNL     1       9.037  17.596   0.761  1.00  0.00     0.185 C 
HETATM    2  N   UNL     1       9.791  18.320   0.405  1.00  0.00    -0.172 NA
HETATM    3  N   UNL     1       8.103  16.728   1.102  1.00  0.00    -0.259 N 
ATOM      4  HN  UNL     1       7.114  16.892   0.917  1.00  0.00     0.181 HD
ENDROOT
BRANCH   3   5
HETATM    5  C   UNL     1       8.525  15.663   1.681  1.00  0.00     0.232 C 
HETATM    6  N   UNL     1       9.784  15.189   1.505  1.00  0.00    -0.364 N 
HETATM    7  H   UNL     1      10.302  14.754   2.242  1.00  0.00     0.159 HD
HETATM    8  H   UNL     1      10.037  15.389   0.558  1.00  0.00     0.159 HD
BRANCH   5   9
HETATM    9  O   UNL     1       7.710  14.847   2.380  1.00  0.00    -0.275 OA
BRANCH   9  10
HETATM   10  C   UNL     1       7.998  14.569   3.657  1.00  0.00     0.233 C 
HETATM   11  N   UNL     1       8.109  15.603   4.430  1.00  0.00    -0.372 N 
HETATM   12  H   UNL     1       7.403  16.306   4.214  1.00  0.00     0.161 HD
BRANCH  11  13
HETATM   13  C   UNL     1       9.158  15.625   5.416  1.00  0.00     0.217 C 
BRANCH  13  14
HETATM   14  C   UNL     1      10.590  15.379   4.891  1.00  0.00     0.215 C 
HETATM   15  O   UNL     1      11.150  14.317   5.059  1.00  0.00    -0.278 OA
HETATM   16  N   UNL     1      11.171  16.359   4.168  1.00  0.00    -0.247 NA
HETATM   17  H   UNL     1      12.091  16.264   3.771  1.00  0.00     0.131 HD
BRANCH  16  18
HETATM   18  C   UNL     1      11.044  17.730   4.904  1.00  0.00     0.134 A 
HETATM   19  C   UNL     1      10.731  18.500   4.011  1.00  0.00     0.106 A 
HETATM   20  S   UNL     1      11.682  19.417   4.839  1.00  0.00    -0.146 SA
ENDBRANCH  16  18
ENDBRANCH  13  14
ENDBRANCH  11  13
ENDBRANCH   9  10
ENDBRANCH   5   9
ENDBRANCH   3   5
TORSDOF 6
ENDMDL
MODEL 3
REMARK VINA RESULT:    -4.613     20.358     22.738
REMARK INTER + INTRA:          -6.923
REMARK INTER:                  -6.741
REMARK INTRA:                  -0.182
REMARK UNBOUND:                -0.691
REMARK  6 active torsions:
REMARK  status: ('A' for Active; 'I' for Inactive)
REMARK    1  A    between atoms: N_4  and  C_20 
REMARK       I    between atoms: N_4  and  C_6 
REMARK    2  A    between atoms: N_5  and  C_7 
REMARK    3  A    between atoms: C_6  and  C_7 
REMARK    4  A    between atoms: C_8  and  O_11 
REMARK    5  A    between atoms: O_11  and  C_17 
REMARK    6  A    between atoms: C_17  and  N_18 
ROOT
HETATM    1  C   UNL     1      -0.217 -16.549  13.726  1.00  0.00     0.185 C 
HETATM    2  N   UNL     1       0.447 -16.849  14.555  1.00  0.00    -0.172 NA
HETATM    3  N   UNL     1      -1.019 -16.107  12.775  1.00  0.00    -0.259 N 
ATOM      4  HN  UNL     1      -1.938 -15.714  12.977  1.00  0.00     0.181 HD
ENDROOT
BRANCH   3   5
HETATM    5  C   UNL     1      -0.563 -16.205  11.579  1.00  0.00     0.232 C 
HETATM    6  N   UNL     1      -0.998 -15.414  10.566  1.00  0.00    -0.364 N 
HETATM    7  H   UNL     1      -0.390 -15.083   9.843  1.00  0.00     0.159 HD
HETATM    8  H   UNL     1      -1.970 -15.248  10.729  1.00  0.00     0.159 HD
BRANCH   5   9
HETATM    9  O   UNL     1       0.263 -17.202  11.199  1.00  0.00    -0.275 OA
BRANCH   9  10
HETATM   10  C   UNL     1       0.329 -17.540   9.905  1.00  0.00     0.233 C 
HETATM   11  N   UNL     1      -0.302 -18.627   9.591  1.00  0.00    -0.372 N 
HETATM   12  H   UNL     1      -1.191 -18.697  10.086  1.00  0.00     0.161 HD
BRANCH  11  13
HETATM   13  C   UNL     1       0.305 -19.540   8.659  1.00  0.00     0.217 C 
BRANCH  13  14
HETATM   14  C   UNL     1       1.447 -18.967   7.791  1.00  0.00     0.215 C 
HETATM   15  O   UNL     1       1.219 -18.364   6.765  1.00  0.00    -0.278 OA
HETATM   16  N   UNL     1       2.709 -19.091   8.254  1.00  0.00    -0.247 NA
HETATM   17  H   UNL     1       3.504 -18.721   7.759  1.00  0.00     0.131 HD
BRANCH  16  18
HETATM   18  C   UNL     1       2.990 -20.562   8.693  1.00  0.00     0.134 A 
HETATM   19  C   UNL     1       3.668 -21.003   7.781  1.00  0.00     0.106 A 
HETATM   20  S   UNL     1       2.801 -22.258   8.106  1.00  0.00    -0.146 SA
ENDBRANCH  16  18
ENDBRANCH  13  14
ENDBRANCH  11  13
ENDBRANCH   9  10
ENDBRANCH   5   9
ENDBRANCH   3   5
TORSDOF 6
ENDMDL
MODEL 4
REMARK VINA RESULT:    -4.522      2.213      2.410
REMARK INTER + INTRA:          -6.799
REMARK INTER:                  -5.930
REMARK INTRA:                  -0.869
REMARK UNBOUND:                -0.691
REMARK  6 active torsions:
REMARK  status: ('A' for Active; 'I' for Inactive)
REMARK    1  A    between atoms: N_4  and  C_20 
REMARK       I    between atoms: N_4  and  C_6 
REMARK    2  A    between atoms: N_5  and  C_7 
REMARK    3  A    between atoms: C_6  and  C_7 
REMARK    4  A    between atoms: C_8  and  O_11 
REMARK    5  A    between atoms: O_11  and  C_17 
REMARK    6  A    between atoms: C_17  and  N_18 
ROOT
HETATM    1  C   UNL     1       5.738  -1.375  19.883  1.00  0.00     0.185 C 
HETATM    2  N   UNL     1       5.274  -2.290  19.474  1.00  0.00    -0.172 NA
HETATM    3  N   UNL     1       6.322  -0.331  20.442  1.00  0.00    -0.259 N 
ATOM      4  HN  UNL     1       6.120  -0.043  21.399  1.00  0.00     0.181 HD
ENDROOT
BRANCH   3   5
HETATM    5  C   UNL     1       7.161   0.294  19.700  1.00  0.00     0.232 C 
HETATM    6  N   UNL     1       7.069   0.304  18.345  1.00  0.00    -0.364 N 
HETATM    7  H   UNL     1       7.307   1.107  17.797  1.00  0.00     0.159 HD
HETATM    8  H   UNL     1       6.718  -0.592  18.075  1.00  0.00     0.159 HD
BRANCH   5   9
HETATM    9  O   UNL     1       8.285   0.856  20.191  1.00  0.00    -0.275 OA
BRANCH   9  10
HETATM   10  C   UNL     1       8.785   0.414  21.352  1.00  0.00     0.233 C 
HETATM   11  N   UNL     1       9.650  -0.544  21.246  1.00  0.00    -0.372 N 
HETATM   12  H   UNL     1      10.273  -0.397  20.452  1.00  0.00     0.161 HD
BRANCH  11  13
HETATM   13  C   UNL     1       9.607  -1.628  22.192  1.00  0.00     0.217 C 
BRANCH  13  14
HETATM   14  C   UNL     1       8.494  -1.556  23.260  1.00  0.00     0.215 C 
HETATM   15  O   UNL     1       8.621  -0.884  24.260  1.00  0.00    -0.278 OA
HETATM   16  N   UNL     1       7.337  -2.203  23.005  1.00  0.00    -0.247 NA
HETATM   17  H   UNL     1       6.556  -2.183  23.640  1.00  0.00     0.131 HD
BRANCH  16  18
HETATM   18  C   UNL     1       7.619  -3.670  22.552  1.00  0.00     0.134 A 
HETATM   19  C   UNL     1       6.506  -4.110  22.317  1.00  0.00     0.106 A 
HETATM   20  S   UNL     1       7.168  -5.370  22.955  1.00  0.00    -0.146 SA
ENDBRANCH  16  18
ENDBRANCH  13  14
ENDBRANCH  11  13
ENDBRANCH   9  10
ENDBRANCH   5   9
ENDBRANCH   3   5
TORSDOF 6
ENDMDL
MODEL 5
REMARK VINA RESULT:    -4.503     23.609     25.244
REMARK INTER + INTRA:          -6.773
REMARK INTER:                  -5.823
REMARK INTRA:                  -0.950
REMARK UNBOUND:                -0.691
REMARK  6 active torsions:
REMARK  status: ('A' for Active; 'I' for Inactive)
REMARK    1  A    between atoms: N_4  and  C_20 
REMARK       I    between atoms: N_4  and  C_6 
REMARK    2  A    between atoms: N_5  and  C_7 
REMARK    3  A    between atoms: C_6  and  C_7 
REMARK    4  A    between atoms: C_8  and  O_11 
REMARK    5  A    between atoms: O_11  and  C_17 
REMARK    6  A    between atoms: C_17  and  N_18 
ROOT
HETATM    1  C   UNL     1       8.999  13.734   3.749  1.00  0.00     0.185 C 
HETATM    2  N   UNL     1       9.156  12.643   3.802  1.00  0.00    -0.172 NA
HETATM    3  N   UNL     1       8.786  15.037   3.774  1.00  0.00    -0.259 N 
ATOM      4  HN  UNL     1       7.901  15.438   4.081  1.00  0.00     0.181 HD
ENDROOT
BRANCH   3   5
HETATM    5  C   UNL     1       9.771  15.763   3.387  1.00  0.00     0.232 C 
HETATM    6  N   UNL     1      11.061  15.460   3.683  1.00  0.00    -0.364 N 
HETATM    7  H   UNL     1      11.812  15.627   3.043  1.00  0.00     0.159 HD
HETATM    8  H   UNL     1      11.057  15.050   4.594  1.00  0.00     0.159 HD
BRANCH   5   9
HETATM    9  O   UNL     1       9.598  16.963   2.796  1.00  0.00    -0.275 OA
BRANCH   9  10
HETATM   10  C   UNL     1       9.758  18.079   3.519  1.00  0.00     0.233 C 
HETATM   11  N   UNL     1      10.615  18.923   3.039  1.00  0.00    -0.372 N 
HETATM   12  H   UNL     1      10.548  18.986   2.024  1.00  0.00     0.161 HD
BRANCH  11  13
HETATM   13  C   UNL     1      11.504  19.603   3.945  1.00  0.00     0.217 C 
BRANCH  13  14
HETATM   14  C   UNL     1      12.521  18.715   4.695  1.00  0.00     0.215 C 
HETATM   15  O   UNL     1      13.114  17.820   4.132  1.00  0.00    -0.278 OA
HETATM   16  N   UNL     1      12.791  19.019   5.982  1.00  0.00    -0.247 NA
HETATM   17  H   UNL     1      13.460  18.504   6.530  1.00  0.00     0.131 HD
BRANCH  16  18
HETATM   18  C   UNL     1      11.467  19.203   6.789  1.00  0.00     0.134 A 
HETATM   19  C   UNL     1      11.615  18.458   7.744  1.00  0.00     0.106 A 
HETATM   20  S   UNL     1      10.096  18.244   7.465  1.00  0.00    -0.146 SA
ENDBRANCH  16  18
ENDBRANCH  13  14
ENDBRANCH  11  13
ENDBRANCH   9  10
ENDBRANCH   5   9
ENDBRANCH   3   5
TORSDOF 6
ENDMDL
MODEL 6
REMARK VINA RESULT:    -4.479     22.686     24.978
REMARK INTER + INTRA:          -6.742
REMARK INTER:                  -6.233
REMARK INTRA:                  -0.509
REMARK UNBOUND:                -0.691
REMARK  6 active torsions:
REMARK  status: ('A' for Active; 'I' for Inactive)
REMARK    1  A    between atoms: N_4  and  C_20 
REMARK       I    between atoms: N_4  and  C_6 
REMARK    2  A    between atoms: N_5  and  C_7 
REMARK    3  A    between atoms: C_6  and  C_7 
REMARK    4  A    between atoms: C_8  and  O_11 
REMARK    5  A    between atoms: O_11  and  C_17 
REMARK    6  A    between atoms: C_17  and  N_18 
ROOT
HETATM    1  C   UNL     1       5.780  10.393   2.840  1.00  0.00     0.185 C 
HETATM    2  N   UNL     1       5.508   9.658   2.062  1.00  0.00    -0.172 NA
HETATM    3  N   UNL     1       6.086  11.207   3.833  1.00  0.00    -0.259 N 
ATOM      4  HN  UNL     1       5.438  11.403   4.596  1.00  0.00     0.181 HD
ENDROOT
BRANCH   3   5
HETATM    5  C   UNL     1       7.254  11.735   3.773  1.00  0.00     0.232 C 
HETATM    6  N   UNL     1       8.267  11.183   3.057  1.00  0.00    -0.364 N 
HETATM    7  H   UNL     1       8.941  11.736   2.566  1.00  0.00     0.159 HD
HETATM    8  H   UNL     1       8.158  10.191   3.123  1.00  0.00     0.159 HD
BRANCH   5   9
HETATM    9  O   UNL     1       7.615  12.785   4.539  1.00  0.00    -0.275 OA
BRANCH   9  10
HETATM   10  C   UNL     1       7.219  14.016   4.192  1.00  0.00     0.233 C 
HETATM   11  N   UNL     1       7.335  14.294   2.932  1.00  0.00    -0.372 N 
HETATM   12  H   UNL     1       7.075  13.498   2.350  1.00  0.00     0.161 HD
BRANCH  11  13
HETATM   13  C   UNL     1       7.803  15.599   2.547  1.00  0.00     0.217 C 
BRANCH  13  14
HETATM   14  C   UNL     1       9.195  15.654   1.879  1.00  0.00     0.215 C 
HETATM   15  O   UNL     1      10.110  14.964   2.271  1.00  0.00    -0.278 OA
HETATM   16  N   UNL     1       9.338  16.438   0.790  1.00  0.00    -0.247 NA
HETATM   17  H   UNL     1      10.206  16.507   0.285  1.00  0.00     0.131 HD
BRANCH  16  18
HETATM   18  C   UNL     1       8.763  17.864   1.064  1.00  0.00     0.134 A 
HETATM   19  C   UNL     1       9.592  18.602   0.558  1.00  0.00     0.106 A 
HETATM   20  S   UNL     1       9.222  19.435   1.823  1.00  0.00    -0.146 SA
ENDBRANCH  16  18
ENDBRANCH  13  14
ENDBRANCH  11  13
ENDBRANCH   9  10
ENDBRANCH   5   9
ENDBRANCH   3   5
TORSDOF 6
ENDMDL
MODEL 7
REMARK VINA RESULT:    -4.466     20.777     22.854
REMARK INTER + INTRA:          -6.724
REMARK INTER:                  -6.393
REMARK INTRA:                  -0.331
REMARK UNBOUND:                -0.691
REMARK  6 active torsions:
REMARK  status: ('A' for Active; 'I' for Inactive)
REMARK    1  A    between atoms: N_4  and  C_20 
REMARK       I    between atoms: N_4  and  C_6 
REMARK    2  A    between atoms: N_5  and  C_7 
REMARK    3  A    between atoms: C_6  and  C_7 
REMARK    4  A    between atoms: C_8  and  O_11 
REMARK    5  A    between atoms: O_11  and  C_17 
REMARK    6  A    between atoms: C_17  and  N_18 
ROOT
HETATM    1  C   UNL     1       9.052  14.938   1.833  1.00  0.00     0.185 C 
HETATM    2  N   UNL     1       9.446  15.869   1.389  1.00  0.00    -0.172 NA
HETATM    3  N   UNL     1       8.605  13.782   2.287  1.00  0.00    -0.259 N 
ATOM      4  HN  UNL     1       7.923  13.223   1.775  1.00  0.00     0.181 HD
ENDROOT
BRANCH   3   5
HETATM    5  C   UNL     1       9.088  13.409   3.416  1.00  0.00     0.232 C 
HETATM    6  N   UNL     1      10.183  13.992   3.968  1.00  0.00    -0.364 N 
HETATM    7  H   UNL     1      10.278  14.130   4.955  1.00  0.00     0.159 HD
HETATM    8  H   UNL     1      10.788  14.241   3.212  1.00  0.00     0.159 HD
BRANCH   5   9
HETATM    9  O   UNL     1       8.649  12.312   4.066  1.00  0.00    -0.275 OA
BRANCH   9  10
HETATM   10  C   UNL     1       7.928  11.401   3.400  1.00  0.00     0.233 C 
HETATM   11  N   UNL     1       6.652  11.447   3.619  1.00  0.00    -0.372 N 
HETATM   12  H   UNL     1       6.319  12.409   3.678  1.00  0.00     0.161 HD
BRANCH  11  13
HETATM   13  C   UNL     1       5.925  10.212   3.759  1.00  0.00     0.217 C 
BRANCH  13  14
HETATM   14  C   UNL     1       5.385   9.588   2.453  1.00  0.00     0.215 C 
HETATM   15  O   UNL     1       5.379  10.209   1.413  1.00  0.00    -0.278 OA
HETATM   16  N   UNL     1       4.992   8.298   2.490  1.00  0.00    -0.247 NA
HETATM   17  H   UNL     1       4.653   7.814   1.675  1.00  0.00     0.131 HD
BRANCH  16  18
HETATM   18  C   UNL     1       4.033   8.052   3.696  1.00  0.00     0.134 A 
HETATM   19  C   UNL     1       4.549   7.113   4.278  1.00  0.00     0.106 A 
HETATM   20  S   UNL     1       3.044   6.746   4.454  1.00  0.00    -0.146 SA
ENDBRANCH  16  18
ENDBRANCH  13  14
ENDBRANCH  11  13
ENDBRANCH   9  10
ENDBRANCH   5   9
ENDBRANCH   3   5
TORSDOF 6
ENDMDL
MODEL 8
REMARK VINA RESULT:    -4.466      3.283      4.543
REMARK INTER + INTRA:          -6.724
REMARK INTER:                  -6.128
REMARK INTRA:                  -0.596
REMARK UNBOUND:                -0.691
REMARK  6 active torsions:
REMARK  status: ('A' for Active; 'I' for Inactive)
REMARK    1  A    between atoms: N_4  and  C_20 
REMARK       I    between atoms: N_4  and  C_6 
REMARK    2  A    between atoms: N_5  and  C_7 
REMARK    3  A    between atoms: C_6  and  C_7 
REMARK    4  A    between atoms: C_8  and  O_11 
REMARK    5  A    between atoms: O_11  and  C_17 
REMARK    6  A    between atoms: C_17  and  N_18 
ROOT
HETATM    1  C   UNL     1       7.304  -4.946  22.808  1.00  0.00     0.185 C 
HETATM    2  N   UNL     1       6.580  -5.669  22.392  1.00  0.00    -0.172 NA
HETATM    3  N   UNL     1       8.236  -4.140  23.284  1.00  0.00    -0.259 N 
ATOM      4  HN  UNL     1       8.910  -4.443  23.986  1.00  0.00     0.181 HD
ENDROOT
BRANCH   3   5
HETATM    5  C   UNL     1       8.234  -2.951  22.802  1.00  0.00     0.232 C 
HETATM    6  N   UNL     1       9.375  -2.311  22.437  1.00  0.00    -0.364 N 
HETATM    7  H   UNL     1       9.418  -1.700  21.646  1.00  0.00     0.159 HD
HETATM    8  H   UNL     1      10.084  -2.601  23.079  1.00  0.00     0.159 HD
BRANCH   5   9
HETATM    9  O   UNL     1       7.125  -2.184  22.769  1.00  0.00    -0.275 OA
BRANCH   9  10
HETATM   10  C   UNL     1       7.189  -0.920  23.205  1.00  0.00     0.233 C 
HETATM   11  N   UNL     1       6.531  -0.061  22.493  1.00  0.00    -0.372 N 
HETATM   12  H   UNL     1       5.638  -0.442  22.181  1.00  0.00     0.161 HD
BRANCH  11  13
HETATM   13  C   UNL     1       7.119   1.228  22.237  1.00  0.00     0.217 C 
BRANCH  13  14
HETATM   14  C   UNL     1       8.292   1.253  21.232  1.00  0.00     0.215 C 
HETATM   15  O   UNL     1       8.248   0.628  20.195  1.00  0.00    -0.278 OA
HETATM   16  N   UNL     1       9.339   2.060  21.508  1.00  0.00    -0.247 NA
HETATM   17  H   UNL     1      10.128   2.150  20.891  1.00  0.00     0.131 HD
BRANCH  16  18
HETATM   18  C   UNL     1       9.828   1.837  22.974  1.00  0.00     0.134 A 
HETATM   19  C   UNL     1      10.834   2.524  23.041  1.00  0.00     0.106 A 
HETATM   20  S   UNL     1      11.283   1.300  23.896  1.00  0.00    -0.146 SA
ENDBRANCH  16  18
ENDBRANCH  13  14
ENDBRANCH  11  13
ENDBRANCH   9  10
ENDBRANCH   5   9
ENDBRANCH   3   5
TORSDOF 6
ENDMDL
MODEL 9
REMARK VINA RESULT:    -4.432      3.549      5.799
REMARK INTER + INTRA:          -6.678
REMARK INTER:                  -6.314
REMARK INTRA:                  -0.364
REMARK UNBOUND:                -0.691
REMARK  6 active torsions:
REMARK  status: ('A' for Active; 'I' for Inactive)
REMARK    1  A    between atoms: N_4  and  C_20 
REMARK       I    between atoms: N_4  and  C_6 
REMARK    2  A    between atoms: N_5  and  C_7 
REMARK    3  A    between atoms: C_6  and  C_7 
REMARK    4  A    between atoms: C_8  and  O_11 
REMARK    5  A    between atoms: O_11  and  C_17 
REMARK    6  A    between atoms: C_17  and  N_18 
ROOT
HETATM    1  C   UNL     1      12.418  -0.361  24.055  1.00  0.00     0.185 C 
HETATM    2  N   UNL     1      13.488  -0.416  24.322  1.00  0.00    -0.172 NA
HETATM    3  N   UNL     1      11.150  -0.205  23.725  1.00  0.00    -0.259 N 
ATOM      4  HN  UNL     1      10.536   0.444  24.215  1.00  0.00     0.181 HD
ENDROOT
BRANCH   3   5
HETATM    5  C   UNL     1      10.742  -0.925  22.744  1.00  0.00     0.232 C 
HETATM    6  N   UNL     1      10.541  -0.417  21.501  1.00  0.00    -0.364 N 
HETATM    7  H   UNL     1      10.740  -0.937  20.670  1.00  0.00     0.159 HD
HETATM    8  H   UNL     1      10.202   0.515  21.624  1.00  0.00     0.159 HD
BRANCH   5   9
HETATM    9  O   UNL     1      10.331  -2.200  22.903  1.00  0.00    -0.275 OA
BRANCH   9  10
HETATM   10  C   UNL     1       9.086  -2.438  23.334  1.00  0.00     0.233 C 
HETATM   11  N   UNL     1       8.499  -3.450  22.778  1.00  0.00    -0.372 N 
HETATM   12  H   UNL     1       9.144  -4.228  22.645  1.00  0.00     0.161 HD
BRANCH  11  13
HETATM   13  C   UNL     1       7.107  -3.340  22.428  1.00  0.00     0.217 C 
BRANCH  13  14
HETATM   14  C   UNL     1       6.378  -4.665  22.111  1.00  0.00     0.215 C 
HETATM   15  O   UNL     1       5.997  -4.924  20.991  1.00  0.00    -0.278 OA
HETATM   16  N   UNL     1       6.249  -5.564  23.110  1.00  0.00    -0.247 NA
HETATM   17  H   UNL     1       5.810  -6.459  22.977  1.00  0.00     0.131 HD
BRANCH  16  18
HETATM   18  C   UNL     1       5.686  -4.878  24.394  1.00  0.00     0.134 A 
HETATM   19  C   UNL     1       6.366  -5.353  25.288  1.00  0.00     0.106 A 
HETATM   20  S   UNL     1       4.983  -5.286  26.005  1.00  0.00    -0.146 SA
ENDBRANCH  16  18
ENDBRANCH  13  14
ENDBRANCH  11  13
ENDBRANCH   9  10
ENDBRANCH   5   9
ENDBRANCH   3   5
TORSDOF 6
ENDMDL
