stable:False satoms:20 tatoms:24 sratio:0.8333333333333334
  -OEChem-08052416333D

 24 26  0     0  0  0  0  0  0999 V2000
   -8.0746   -2.5444  -25.4434 C   0  0  0  0  0  0  0  0  0  0  0  0
   -6.4895   -3.5086  -26.7429 C   0  0  0  0  0  0  0  0  0  0  0  0
  -12.8949    0.2204  -25.2011 O   0  0  0  0  0  0  0  0  0  0  0  0
   -5.8902   -3.7912  -27.5915 H   0  0  0  0  0  0  0  0  0  0  0  0
   -9.4211   -0.5619  -25.6818 C   0  0  0  0  0  0  0  0  0  0  0  0
   -9.1061   -1.8051  -24.8991 C   0  0  0  0  0  0  0  0  0  0  0  0
   -8.9958   -3.4006  -23.0207 N   0  0  0  0  0  0  0  0  0  0  0  0
   -7.5038   -3.6775  -24.7691 C   0  0  0  0  0  0  0  0  0  0  0  0
   -7.9019   -5.7252  -21.8591 O   0  0  0  0  0  0  0  0  0  0  0  0
   -7.5333   -1.7264  -27.4354 H   0  0  0  0  0  0  0  0  0  0  0  0
  -11.7121   -1.1978  -24.0043 N   0  0  0  0  0  0  0  0  0  0  0  0
  -10.8391   -1.6963  -22.7566 S   0  0  0  0  0  0  0  0  0  0  0  0
   -7.2414   -5.1914  -22.7720 C   0  0  0  0  0  0  0  0  0  0  0  0
  -10.6610    0.0690  -25.6244 N   0  0  0  0  0  0  0  0  0  0  0  0
  -11.8222   -0.3001  -24.9294 C   0  0  0  0  0  0  0  0  0  0  0  0
   -7.9218   -4.0834  -23.5440 C   0  0  0  0  0  0  0  0  0  0  0  0
   -9.5811   -2.3522  -23.6478 C   0  0  0  0  0  0  0  0  0  0  0  0
   -8.6001   -0.0089  -26.4076 O   0  0  0  0  0  0  0  0  0  0  0  0
   -6.0729   -5.4639  -23.1244 O   0  5  0  0  0  0  0  0  0  0  0  0
   -7.3685   -2.4515  -26.6715 C   0  0  0  0  0  0  0  0  0  0  0  0
   -5.9068   -4.9421  -25.2765 H   0  0  0  0  0  0  0  0  0  0  0  0
  -10.7531    0.8612  -26.2626 H   0  0  0  0  0  0  0  0  0  0  0  0
   -6.5253   -4.2185  -25.6007 N   0  0  0  0  0  0  0  0  0  0  0  0
  -12.4763   -1.8340  -24.1101 H   0  0  0  0  0  0  0  0  0  0  0  0
 13 19  1  0  0  0  0
  9 13  2  0  0  0  0
 13 16  1  0  0  0  0
 21 23  1  0  0  0  0
  8 23  1  0  0  0  0
  2 23  1  0  0  0  0
  8 16  2  0  0  0  0
  7 16  1  0  0  0  0
  1  8  1  0  0  0  0
  2  4  1  0  0  0  0
  2 20  2  0  0  0  0
  7 17  2  0  0  0  0
  1 20  1  0  0  0  0
 10 20  1  0  0  0  0
  1  6  2  0  0  0  0
  5 18  2  0  0  0  0
  6 17  1  0  0  0  0
 12 17  1  0  0  0  0
  5  6  1  0  0  0  0
  5 14  1  0  0  0  0
 11 12  1  0  0  0  0
 14 22  1  0  0  0  0
 14 15  1  0  0  0  0
 11 15  1  0  0  0  0
  3 15  2  0  0  0  0
 11 24  1  0  0  0  0
M  CHG  1  19  -1
M  END
> <Chemgauss4>
-6.957356

$$$$
