stable:False satoms:20 tatoms:24 sratio:0.8333333333333334
  -OEChem-08052416333D

 24 26  0     0  0  0  0  0  0999 V2000
    8.2689   -1.7293   25.0772 C   0  0  0  0  0  0  0  0  0  0  0  0
    6.5306   -2.2026   26.4500 C   0  0  0  0  0  0  0  0  0  0  0  0
   13.3866    0.3849   24.5498 O   0  0  0  0  0  0  0  0  0  0  0  0
    5.8685   -2.2216   27.2988 H   0  0  0  0  0  0  0  0  0  0  0  0
    9.8284    0.1024   24.9621 C   0  0  0  0  0  0  0  0  0  0  0  0
    9.4012   -1.2449   24.4525 C   0  0  0  0  0  0  0  0  0  0  0  0
    9.1798   -3.2022   22.9672 N   0  0  0  0  0  0  0  0  0  0  0  0
    7.5965   -2.9185   24.6322 C   0  0  0  0  0  0  0  0  0  0  0  0
    7.8679   -5.6001   22.2752 O   0  0  0  0  0  0  0  0  0  0  0  0
    7.7479   -0.4305   26.8011 H   0  0  0  0  0  0  0  0  0  0  0  0
   12.0944   -1.1336   23.6188 N   0  0  0  0  0  0  0  0  0  0  0  0
   11.2197   -1.8058   22.4565 S   0  0  0  0  0  0  0  0  0  0  0  0
    7.2385   -4.8074   23.0034 C   0  0  0  0  0  0  0  0  0  0  0  0
   11.1352    0.5696   24.8488 N   0  0  0  0  0  0  0  0  0  0  0  0
   12.2719   -0.0672   24.3294 C   0  0  0  0  0  0  0  0  0  0  0  0
    8.0128   -3.6320   23.5561 C   0  0  0  0  0  0  0  0  0  0  0  0
    9.8586   -2.1071   23.3857 C   0  0  0  0  0  0  0  0  0  0  0  0
    9.0496    0.8884   25.4934 O   0  0  0  0  0  0  0  0  0  0  0  0
    6.0328   -4.8685   23.3298 O   0  5  0  0  0  0  0  0  0  0  0  0
    7.5298   -1.2877   26.2059 C   0  0  0  0  0  0  0  0  0  0  0  0
    5.8428   -3.8601   25.2992 H   0  0  0  0  0  0  0  0  0  0  0  0
   11.2940    1.4711   25.3021 H   0  0  0  0  0  0  0  0  0  0  0  0
    6.5286   -3.1516   25.4964 N   0  0  0  0  0  0  0  0  0  0  0  0
   12.7737   -1.8066   23.9114 H   0  0  0  0  0  0  0  0  0  0  0  0
 13 19  1  0  0  0  0
  9 13  2  0  0  0  0
 13 16  1  0  0  0  0
 21 23  1  0  0  0  0
  8 23  1  0  0  0  0
  2 23  1  0  0  0  0
  8 16  2  0  0  0  0
  7 16  1  0  0  0  0
  1  8  1  0  0  0  0
  2  4  1  0  0  0  0
  2 20  2  0  0  0  0
  7 17  2  0  0  0  0
  1 20  1  0  0  0  0
 10 20  1  0  0  0  0
  1  6  2  0  0  0  0
  5 18  2  0  0  0  0
  6 17  1  0  0  0  0
 12 17  1  0  0  0  0
  5  6  1  0  0  0  0
  5 14  1  0  0  0  0
 11 12  1  0  0  0  0
 14 22  1  0  0  0  0
 14 15  1  0  0  0  0
 11 15  1  0  0  0  0
  3 15  2  0  0  0  0
 11 24  1  0  0  0  0
M  CHG  1  19  -1
M  END
> <Chemgauss4>
-6.975991

$$$$
