stable:False satoms:19 tatoms:24 sratio:0.7916666666666666
  -OEChem-08062407123D

 31 32  0     1  0  0  0  0  0999 V2000
    7.0107   -4.0989   26.5306 H   0  0  0  0  0  0  0  0  0  0  0  0
    8.1429   -3.9704   26.5642 C   0  0  0  0  0  0  0  0  0  0  0  0
    8.6826   -5.0445   26.6451 O   0  0  0  0  0  0  0  0  0  0  0  0
    8.4161   -3.3617   27.4765 H   0  0  0  0  0  0  0  0  0  0  0  0
    8.5145   -3.2351   25.3638 N   0  0  0  0  0  0  0  0  0  0  0  0
    9.2719   -2.4739   25.1327 C   0  0  0  0  0  0  0  0  0  0  0  0
    9.3401   -1.0921   23.5707 N   0  3  0  0  0  0  0  0  0  0  0  0
    9.9579   -1.2164   24.5611 C   0  0  0  0  0  0  0  0  0  0  0  0
   11.0289   -0.1727   24.8570 C   0  0  0  0  0  0  0  0  0  0  0  0
   11.1078    0.4840   25.6913 H   0  0  0  0  0  0  0  0  0  0  0  0
   11.9540   -0.1413   23.8365 C   0  0  0  0  0  2  0  0  0  0  0  0
   11.3866   -0.5659   22.7291 O   0  0  0  0  0  0  0  0  0  0  0  0
   10.0209   -0.3974   22.7106 C   0  0  3  0  0  0  0  0  0  0  0  0
    9.3058    0.3940   21.6939 C   0  0  0  0  0  0  0  0  0  0  0  0
    9.7453    1.4589   21.2936 O   0  0  0  0  0  0  0  0  0  0  0  0
    8.1580   -0.2135   21.3656 N   0  0  0  0  0  0  0  0  0  0  0  0
    7.4952    0.2266   20.2806 C   0  0  0  0  0  0  0  0  0  0  0  0
    8.0162    0.1564   19.0540 N   0  0  0  0  0  0  0  0  0  0  0  0
    7.3363    0.5824   18.0036 N   0  0  0  0  0  0  0  0  0  0  0  0
    6.1906    1.1034   18.1088 N   0  0  0  0  0  0  0  0  0  0  0  0
    5.6019    1.2113   19.2876 N   0  0  0  0  0  0  0  0  0  0  0  0
    6.1572    0.7234   20.3672 C   0  0  0  0  0  0  0  0  0  0  0  0
    5.6363    0.7354   21.3294 H   0  0  0  0  0  0  0  0  0  0  0  0
    8.4058   -5.4792   27.4431 H   0  0  0  0  0  0  0  0  0  0  0  0
    7.6597   -2.7869   25.1022 H   0  0  0  0  0  0  0  0  0  0  0  0
   10.0068   -3.1836   24.7249 H   0  0  0  0  0  0  0  0  0  0  0  0
    9.5175   -2.2543   26.1822 H   0  0  0  0  0  0  0  0  0  0  0  0
    8.4813   -0.6210   23.7723 H   0  0  0  0  0  0  0  0  0  0  0  0
   10.0795    0.4643   23.3918 H   0  0  0  0  0  0  0  0  0  0  0  0
    7.8038   -0.9728   21.9114 H   0  0  0  0  0  0  0  0  0  0  0  0
    9.1432   -1.9943   23.1870 H   0  0  0  0  0  0  0  0  0  0  0  0
 19 20  2  0  0  0  0
 18 19  1  0  0  0  0
 20 21  1  0  0  0  0
 17 18  2  0  0  0  0
 21 22  2  0  0  0  0
 17 22  1  0  0  0  0
 16 17  1  0  0  0  0
 22 23  1  0  0  0  0
 14 15  2  0  0  0  0
 14 16  1  0  0  0  0
 13 14  1  0  0  0  0
 12 13  1  0  0  0  0
 11 12  1  0  0  0  0
  7 13  1  0  0  0  0
  9 11  1  0  0  0  0
  7  8  1  0  0  0  0
  8  9  2  0  0  0  0
  6  8  1  0  0  0  0
  9 10  1  0  0  0  0
  5  6  1  0  0  0  0
  2  5  1  0  0  0  0
  2  3  1  0  0  0  0
  1  2  1  0  0  0  0
  2  4  1  0  0  0  0
  3 24  1  0  0  0  0
  5 25  1  0  0  0  0
  6 26  1  0  0  0  0
  6 27  1  0  0  0  0
  7 28  1  0  0  0  0
 13 29  1  0  0  0  0
 16 30  1  0  0  0  0
  7 31  1  0  0  0  0
M  CHG  1   7   1
M  END
> <Chemgauss4>
-7.158141

$$$$
