stable:False satoms:19 tatoms:24 sratio:0.7916666666666666
  -OEChem-08062407123D

 31 32  0     1  0  0  0  0  0999 V2000
   -6.6787   -4.1513  -26.3640 H   0  0  0  0  0  0  0  0  0  0  0  0
   -7.8109   -4.0227  -26.3975 C   0  0  0  0  0  0  0  0  0  0  0  0
   -8.3507   -5.0968  -26.4784 O   0  0  0  0  0  0  0  0  0  0  0  0
   -8.0841   -3.4140  -27.3098 H   0  0  0  0  0  0  0  0  0  0  0  0
   -8.1825   -3.2875  -25.1971 N   0  0  0  0  0  0  0  0  0  0  0  0
   -8.9400   -2.5262  -24.9660 C   0  0  0  0  0  0  0  0  0  0  0  0
   -9.0081   -1.1444  -23.4041 N   0  3  0  0  0  0  0  0  0  0  0  0
   -9.6260   -1.2687  -24.3945 C   0  0  0  0  0  0  0  0  0  0  0  0
  -10.6969   -0.2250  -24.6903 C   0  0  0  0  0  0  0  0  0  0  0  0
  -10.7758    0.4317  -25.5246 H   0  0  0  0  0  0  0  0  0  0  0  0
  -11.6221   -0.1936  -23.6698 C   0  0  0  0  0  2  0  0  0  0  0  0
  -11.0546   -0.6183  -22.5625 O   0  0  0  0  0  0  0  0  0  0  0  0
   -9.6889   -0.4497  -22.5440 C   0  0  3  0  0  0  0  0  0  0  0  0
   -8.9738    0.3417  -21.5272 C   0  0  0  0  0  0  0  0  0  0  0  0
   -9.4134    1.4066  -21.1270 O   0  0  0  0  0  0  0  0  0  0  0  0
   -7.8260   -0.2659  -21.1989 N   0  0  0  0  0  0  0  0  0  0  0  0
   -7.1632    0.1742  -20.1139 C   0  0  0  0  0  0  0  0  0  0  0  0
   -7.6842    0.1041  -18.8873 N   0  0  0  0  0  0  0  0  0  0  0  0
   -7.0044    0.5300  -17.8369 N   0  0  0  0  0  0  0  0  0  0  0  0
   -5.8586    1.0510  -17.9421 N   0  0  0  0  0  0  0  0  0  0  0  0
   -5.2700    1.1589  -19.1210 N   0  0  0  0  0  0  0  0  0  0  0  0
   -5.8252    0.6710  -20.2005 C   0  0  0  0  0  0  0  0  0  0  0  0
   -5.3044    0.6831  -21.1627 H   0  0  0  0  0  0  0  0  0  0  0  0
   -8.0738   -5.5315  -27.2765 H   0  0  0  0  0  0  0  0  0  0  0  0
   -7.3277   -2.8393  -24.9356 H   0  0  0  0  0  0  0  0  0  0  0  0
   -9.6748   -3.2360  -24.5582 H   0  0  0  0  0  0  0  0  0  0  0  0
   -9.1855   -2.3067  -26.0155 H   0  0  0  0  0  0  0  0  0  0  0  0
   -8.1494   -0.6734  -23.6057 H   0  0  0  0  0  0  0  0  0  0  0  0
   -9.7475    0.4120  -23.2252 H   0  0  0  0  0  0  0  0  0  0  0  0
   -7.4718   -1.0252  -21.7448 H   0  0  0  0  0  0  0  0  0  0  0  0
   -8.8113   -2.0467  -23.0204 H   0  0  0  0  0  0  0  0  0  0  0  0
 19 20  2  0  0  0  0
 18 19  1  0  0  0  0
 20 21  1  0  0  0  0
 17 18  2  0  0  0  0
 21 22  2  0  0  0  0
 17 22  1  0  0  0  0
 16 17  1  0  0  0  0
 22 23  1  0  0  0  0
 14 15  2  0  0  0  0
 14 16  1  0  0  0  0
 13 14  1  0  0  0  0
 12 13  1  0  0  0  0
 11 12  1  0  0  0  0
  7 13  1  0  0  0  0
  9 11  1  0  0  0  0
  7  8  1  0  0  0  0
  8  9  2  0  0  0  0
  6  8  1  0  0  0  0
  9 10  1  0  0  0  0
  5  6  1  0  0  0  0
  2  5  1  0  0  0  0
  2  3  1  0  0  0  0
  1  2  1  0  0  0  0
  2  4  1  0  0  0  0
  3 24  1  0  0  0  0
  5 25  1  0  0  0  0
  6 26  1  0  0  0  0
  6 27  1  0  0  0  0
  7 28  1  0  0  0  0
 13 29  1  0  0  0  0
 16 30  1  0  0  0  0
  7 31  1  0  0  0  0
M  CHG  1   7   1
M  END
> <Chemgauss4>
-7.059854

$$$$
