stable:False satoms:11 tatoms:24 sratio:0.4583333333333333
  -OEChem-08062409043D

 33 33  0     0  0  0  0  0  0999 V2000
    6.4834   -5.1764   26.2638 O   0  0  0  0  0  0  0  0  0  0  0  0
    7.9004   -4.8997   25.8214 S   0  0  0  0  0  0  0  0  0  0  0  0
    8.6227   -6.1278   25.5048 O   0  0  0  0  0  0  0  0  0  0  0  0
    8.6143   -4.2073   26.8565 O   0  5  0  0  0  0  0  0  0  0  0  0
    7.7925   -4.0221   24.4705 N   0  0  0  0  0  0  0  0  0  0  0  0
    8.6618   -3.3233   23.9793 C   0  0  0  0  0  0  0  0  0  0  0  0
    9.2286   -2.5444   23.4970 C   0  0  0  0  0  0  0  0  0  0  0  0
    9.9761   -1.5591   23.0868 C   0  0  0  0  0  0  0  0  0  0  0  0
   11.0644   -1.0703   23.7597 C   0  0  0  0  0  0  0  0  0  0  0  0
   12.1188   -1.0001   23.5536 C   0  0  0  0  0  0  0  0  0  0  0  0
   12.3261   -1.3025   21.5152 H   0  0  0  0  0  0  0  0  0  0  0  0
   12.7639   -1.6525   22.4617 C   0  0  0  0  0  0  0  0  0  0  0  0
   13.8386   -1.4185   22.4772 H   0  0  0  0  0  0  0  0  0  0  0  0
    9.6847   -0.8113   22.0773 C   0  0  0  0  0  0  0  0  0  0  0  0
    8.9501    0.0249   21.3504 C   0  0  0  0  0  0  0  0  0  0  0  0
    9.3647    1.0687   20.9591 O   0  0  0  0  0  0  0  0  0  0  0  0
    7.6679   -0.4574   21.1807 N   0  0  0  0  0  0  0  0  0  0  0  0
    6.9287    0.2186   20.4081 C   0  0  0  0  0  0  0  0  0  0  0  0
    7.2841    0.1864   18.7770 S   0  0  0  0  0  0  0  0  0  0  0  0
    6.1969    0.9522   18.0195 N   0  0  0  0  0  0  0  0  0  0  0  0
    5.4953    1.4310   18.6771 C   0  0  0  0  0  0  0  0  0  0  0  0
    5.2899    1.4471   19.8694 C   0  0  0  0  0  0  0  0  0  0  0  0
    5.8052    0.9313   20.8992 C   0  0  0  0  0  0  0  0  0  0  0  0
    5.4850    1.0048   21.9430 H   0  0  0  0  0  0  0  0  0  0  0  0
    7.0217   -3.4041   24.6254 H   0  0  0  0  0  0  0  0  0  0  0  0
   10.8036   -0.6587   24.7235 H   0  0  0  0  0  0  0  0  0  0  0  0
   12.7254   -0.3986   24.2144 H   0  0  0  0  0  0  0  0  0  0  0  0
   12.6242   -2.7400   22.5502 H   0  0  0  0  0  0  0  0  0  0  0  0
   10.5538   -0.9421   21.4495 H   0  0  0  0  0  0  0  0  0  0  0  0
    7.3448   -1.2860   21.6381 H   0  0  0  0  0  0  0  0  0  0  0  0
    5.7012    0.3102   17.4346 H   0  0  0  0  0  0  0  0  0  0  0  0
    4.7977    2.0551   18.1384 H   0  0  0  0  0  0  0  0  0  0  0  0
    4.4410    2.0668   20.1178 H   0  0  0  0  0  0  0  0  0  0  0  0
 20 21  1  0  0  0  0
 19 20  1  0  0  0  0
 21 22  2  0  0  0  0
 18 19  1  0  0  0  0
 22 23  1  0  0  0  0
 18 23  2  0  0  0  0
 17 18  1  0  0  0  0
 23 24  1  0  0  0  0
 15 16  2  0  0  0  0
 15 17  1  0  0  0  0
 14 15  1  0  0  0  0
  8 14  2  3  0  0  0
 12 13  1  0  0  0  0
 11 12  1  0  0  0  0
 10 12  1  0  0  0  0
  7  8  1  0  0  0  0
  8  9  1  0  0  0  0
  6  7  3  0  0  0  0
  9 10  2  0  0  0  0
  5  6  1  0  0  0  0
  2  5  1  0  0  0  0
  2  3  2  0  0  0  0
  1  2  2  0  0  0  0
  2  4  1  0  0  0  0
  5 25  1  0  0  0  0
  9 26  1  0  0  0  0
 10 27  1  0  0  0  0
 12 28  1  0  0  0  0
 14 29  1  0  0  0  0
 17 30  1  0  0  0  0
 20 31  1  0  0  0  0
 21 32  1  0  0  0  0
 22 33  1  0  0  0  0
M  CHG  1   4  -1
M  END
> <Chemgauss4>
-7.660272

$$$$
