stable:False satoms:11 tatoms:24 sratio:0.4583333333333333
  -OEChem-08062409043D

 33 33  0     0  0  0  0  0  0999 V2000
   -6.4241   -4.7505  -26.8216 O   0  0  0  0  0  0  0  0  0  0  0  0
   -7.8501   -4.5032  -26.3911 S   0  0  0  0  0  0  0  0  0  0  0  0
   -8.6001   -5.7469  -26.2471 O   0  0  0  0  0  0  0  0  0  0  0  0
   -8.5207   -3.6779  -27.3554 O   0  5  0  0  0  0  0  0  0  0  0  0
   -7.7720   -3.7971  -24.9412 N   0  0  0  0  0  0  0  0  0  0  0  0
   -8.6460   -3.1466  -24.3950 C   0  0  0  0  0  0  0  0  0  0  0  0
   -9.2163   -2.4212  -23.8389 C   0  0  0  0  0  0  0  0  0  0  0  0
   -9.9618   -1.4790  -23.3347 C   0  0  0  0  0  0  0  0  0  0  0  0
  -11.0210   -0.8927  -23.9754 C   0  0  0  0  0  0  0  0  0  0  0  0
  -12.0802   -0.8284  -23.7936 C   0  0  0  0  0  0  0  0  0  0  0  0
  -12.3563   -1.3705  -21.8139 H   0  0  0  0  0  0  0  0  0  0  0  0
  -12.7690   -1.5957  -22.8084 C   0  0  0  0  0  0  0  0  0  0  0  0
  -13.8392   -1.3417  -22.8272 H   0  0  0  0  0  0  0  0  0  0  0  0
   -9.6915   -0.8640  -22.2339 C   0  0  0  0  0  0  0  0  0  0  0  0
   -8.9680   -0.1352  -21.3896 C   0  0  0  0  0  0  0  0  0  0  0  0
   -9.3793    0.8612  -20.8872 O   0  0  0  0  0  0  0  0  0  0  0  0
   -7.6990   -0.6581  -21.2417 N   0  0  0  0  0  0  0  0  0  0  0  0
   -6.9748   -0.0939  -20.3714 C   0  0  0  0  0  0  0  0  0  0  0  0
   -7.3821   -0.3160  -18.7674 S   0  0  0  0  0  0  0  0  0  0  0  0
   -6.3082    0.3327  -17.8909 N   0  0  0  0  0  0  0  0  0  0  0  0
   -5.5792    0.8742  -18.4645 C   0  0  0  0  0  0  0  0  0  0  0  0
   -5.3359    1.0302  -19.6395 C   0  0  0  0  0  0  0  0  0  0  0  0
   -5.8260    0.6519  -20.7390 C   0  0  0  0  0  0  0  0  0  0  0  0
   -5.4718    0.8450  -21.7563 H   0  0  0  0  0  0  0  0  0  0  0  0
   -6.9877   -3.1792  -24.9973 H   0  0  0  0  0  0  0  0  0  0  0  0
  -10.7237   -0.3726  -24.8741 H   0  0  0  0  0  0  0  0  0  0  0  0
  -12.6566   -0.1404  -24.3943 H   0  0  0  0  0  0  0  0  0  0  0  0
  -12.6427   -2.6670  -23.0238 H   0  0  0  0  0  0  0  0  0  0  0  0
  -10.5818   -1.0535  -21.6526 H   0  0  0  0  0  0  0  0  0  0  0  0
   -7.3740   -1.4312  -21.7863 H   0  0  0  0  0  0  0  0  0  0  0  0
   -5.8407   -0.3842  -17.3736 H   0  0  0  0  0  0  0  0  0  0  0  0
   -4.8898    1.4158  -17.8338 H   0  0  0  0  0  0  0  0  0  0  0  0
   -4.4705    1.6595  -19.7858 H   0  0  0  0  0  0  0  0  0  0  0  0
 20 21  1  0  0  0  0
 19 20  1  0  0  0  0
 21 22  2  0  0  0  0
 18 19  1  0  0  0  0
 22 23  1  0  0  0  0
 18 23  2  0  0  0  0
 17 18  1  0  0  0  0
 23 24  1  0  0  0  0
 15 16  2  0  0  0  0
 15 17  1  0  0  0  0
 14 15  1  0  0  0  0
  8 14  2  3  0  0  0
 12 13  1  0  0  0  0
 11 12  1  0  0  0  0
 10 12  1  0  0  0  0
  7  8  1  0  0  0  0
  8  9  1  0  0  0  0
  6  7  3  0  0  0  0
  9 10  2  0  0  0  0
  5  6  1  0  0  0  0
  2  5  1  0  0  0  0
  2  3  2  0  0  0  0
  1  2  2  0  0  0  0
  2  4  1  0  0  0  0
  5 25  1  0  0  0  0
  9 26  1  0  0  0  0
 10 27  1  0  0  0  0
 12 28  1  0  0  0  0
 14 29  1  0  0  0  0
 17 30  1  0  0  0  0
 20 31  1  0  0  0  0
 21 32  1  0  0  0  0
 22 33  1  0  0  0  0
M  CHG  1   4  -1
M  END
> <Chemgauss4>
-7.471315

$$$$
