
 OpenBabel07202414163D

 36 37  0  0  0  0  0  0  0  0999 V2000
   -3.6736   -1.1354   -1.0986 C   0  0  0  0  0  0  0  0  0  0  0  0
   -2.6721   -1.0376    0.0187 C   0  0  0  0  0  0  0  0  0  0  0  0
   -2.0947   -2.2331    0.4870 C   0  0  0  0  0  0  0  0  0  0  0  0
   -1.1752   -2.1873    1.5206 C   0  0  0  0  0  0  0  0  0  0  0  0
   -0.8086   -1.0518    2.1346 N   0  0  0  0  0  0  0  0  0  0  0  0
   -1.3728    0.0930    1.6742 C   0  0  0  0  0  0  0  0  0  0  0  0
   -2.2949    0.1747    0.6235 C   0  0  0  0  0  0  0  0  0  0  0  0
   -2.8437    1.4082    0.1928 N   0  0  0  0  0  0  0  0  0  0  0  0
   -2.3713    2.6633    0.5271 C   0  0  0  0  0  0  0  0  0  0  0  0
   -1.3291    2.8962    1.1407 O   0  0  0  0  0  0  0  0  0  0  0  0
   -3.2037    3.8349   -0.0022 C   0  0  0  0  0  0  0  0  0  0  0  0
   -4.6601    3.5457   -0.0380 N   0  0  0  0  0  0  0  0  0  0  0  0
   -5.1857    3.3746    1.3334 C   0  0  0  0  0  0  0  0  0  0  0  0
   -6.6821    3.0646    1.3010 C   0  0  0  0  0  0  0  0  0  0  0  0
   -7.4571    4.1670    0.5911 C   0  0  0  0  0  0  0  0  0  0  0  0
   -6.8525    4.4452   -0.7800 C   0  0  0  0  0  0  0  0  0  0  0  0
   -5.3462    4.6841   -0.6866 C   0  0  0  0  0  0  0  0  0  0  0  0
   -3.5690   -2.0863   -1.6353 H   0  0  0  0  0  0  0  0  0  0  0  0
   -3.5240   -0.3436   -1.8380 H   0  0  0  0  0  0  0  0  0  0  0  0
   -4.6910   -1.0825   -0.6998 H   0  0  0  0  0  0  0  0  0  0  0  0
   -2.3467   -3.1924    0.0465 H   0  0  0  0  0  0  0  0  0  0  0  0
   -0.6981   -3.0890    1.8921 H   0  0  0  0  0  0  0  0  0  0  0  0
   -1.0598    0.9670    2.2346 H   0  0  0  0  0  0  0  0  0  0  0  0
   -3.6488    1.4000   -0.4277 H   0  0  0  0  0  0  0  0  0  0  0  0
   -2.8330    4.0430   -1.0161 H   0  0  0  0  0  0  0  0  0  0  0  0
   -2.9978    4.7106    0.6238 H   0  0  0  0  0  0  0  0  0  0  0  0
   -5.0054    4.2734    1.9390 H   0  0  0  0  0  0  0  0  0  0  0  0
   -4.6866    2.5413    1.8403 H   0  0  0  0  0  0  0  0  0  0  0  0
   -7.0583    2.9460    2.3233 H   0  0  0  0  0  0  0  0  0  0  0  0
   -6.8469    2.1094    0.7861 H   0  0  0  0  0  0  0  0  0  0  0  0
   -7.4290    5.0814    1.1968 H   0  0  0  0  0  0  0  0  0  0  0  0
   -8.5099    3.8816    0.4878 H   0  0  0  0  0  0  0  0  0  0  0  0
   -7.3392    5.3197   -1.2265 H   0  0  0  0  0  0  0  0  0  0  0  0
   -7.0470    3.5954   -1.4455 H   0  0  0  0  0  0  0  0  0  0  0  0
   -5.1568    5.6171   -0.1377 H   0  0  0  0  0  0  0  0  0  0  0  0
   -4.9573    4.8229   -1.7023 H   0  0  0  0  0  0  0  0  0  0  0  0
  1  2  1  0  0  0  0
  1 18  1  0  0  0  0
  1 19  1  0  0  0  0
  1 20  1  0  0  0  0
  2  3  1  0  0  0  0
  2  7  2  0  0  0  0
  3  4  2  0  0  0  0
  3 21  1  0  0  0  0
  4  5  1  0  0  0  0
  4 22  1  0  0  0  0
  5  6  2  0  0  0  0
  6  7  1  0  0  0  0
  6 23  1  0  0  0  0
  7  8  1  0  0  0  0
  8  9  1  0  0  0  0
  8 24  1  0  0  0  0
  9 10  2  0  0  0  0
  9 11  1  0  0  0  0
 11 12  1  0  0  0  0
 11 25  1  0  0  0  0
 11 26  1  0  0  0  0
 12 13  1  0  0  0  0
 12 17  1  0  0  0  0
 13 14  1  0  0  0  0
 13 27  1  0  0  0  0
 13 28  1  0  0  0  0
 14 15  1  0  0  0  0
 14 29  1  0  0  0  0
 14 30  1  0  0  0  0
 15 16  1  0  0  0  0
 15 31  1  0  0  0  0
 15 32  1  0  0  0  0
 16 17  1  0  0  0  0
 16 33  1  0  0  0  0
 16 34  1  0  0  0  0
 17 35  1  0  0  0  0
 17 36  1  0  0  0  0
M  END
$$$$
