REMARK  8 active torsions:
REMARK  status: ('A' for Active; 'I' for Inactive)
REMARK    1  A    between atoms: C_2  and  N_6 
REMARK    2  A    between atoms: C_2  and  O_3 
REMARK    3  A    between atoms: N_6  and  C_8 
REMARK    4  A    between atoms: C_8  and  C_9 
REMARK    5  A    between atoms: C_10  and  C_14 
REMARK    6  A    between atoms: C_11  and  C_14 
REMARK    7  A    between atoms: C_14  and  C_15 
REMARK       I    between atoms: C_15  and  N_17 
REMARK    8  A    between atoms: N_17  and  C_19 
ROOT
HETATM    1  C   UNL     1       9.622  -2.479  23.770  1.00  0.00     0.173 A 
HETATM    2  C   UNL     1      10.328  -1.549  23.157  1.00  0.00     0.136 A 
HETATM    3  O   UNL     1      11.151  -2.237  23.379  1.00  0.00    -0.293 OA
ENDROOT
BRANCH   2   4
HETATM    4  C   UNL     1      10.313  -0.250  22.569  1.00  0.00     0.069 C 
BRANCH   4   5
HETATM    5  C   UNL     1      11.374   0.093  23.178  1.00  0.00     0.010 C 
HETATM    6  C   UNL     1      12.574  -0.063  23.451  1.00  0.00     0.012 C 
ENDBRANCH   4   5
BRANCH   4   7
HETATM    7  C   UNL     1       9.409   0.261  21.416  1.00  0.00     0.258 C 
HETATM    8  O   UNL     1       9.724   1.196  20.773  1.00  0.00    -0.267 OA
HETATM    9  N   UNL     1       8.301  -0.406  21.138  1.00  0.00    -0.332 N 
ATOM     10  HN  UNL     1       7.934  -1.143  21.740  1.00  0.00     0.168 HD
BRANCH   9  11
HETATM   11  C   UNL     1       7.777  -0.081  20.144  1.00  0.00     0.101 C 
HETATM   12  C   UNL     1       6.615   0.244  19.796  1.00  0.00    -0.040 C 
HETATM   13  C   UNL     1       5.645   0.710  18.802  1.00  0.00     0.024 C 
HETATM   14  C   UNL     1       5.765   0.305  20.590  1.00  0.00     0.024 C 
ENDBRANCH   9  11
ENDBRANCH   4   7
ENDBRANCH   2   4
BRANCH   1  15
HETATM   15  C   UNL     1       8.876  -3.079  24.254  1.00  0.00     0.005 C 
BRANCH  15  16
HETATM   16  N   UNL     1       7.963  -3.637  24.634  1.00  0.00    -0.247 N 
ATOM     17  HN  UNL     1       7.104  -3.689  24.087  1.00  0.00     0.183 HD
BRANCH  16  18
HETATM   18  C   UNL     1       8.078  -4.288  25.966  1.00  0.00     0.431 C 
HETATM   19  F   UNL     1       6.741  -4.603  26.348  1.00  0.00    -0.127 F 
HETATM   20  O   UNL     1       8.552  -3.495  26.840  1.00  0.00    -0.214 OA
BRANCH  18  21
HETATM   21  O   UNL     1       8.688  -5.458  25.897  1.00  0.00    -0.296 OA
ATOM     22  HO  UNL     1       9.579  -5.248  25.642  1.00  0.00     0.224 HD
ENDBRANCH  18  21
ENDBRANCH  16  18
ENDBRANCH  15  16
ENDBRANCH   1  15
TORSDOF 8
