stable:False satoms:17 tatoms:24 sratio:0.7083333333333334
  -OEChem-08062400343D

 32 33  0     1  0  0  0  0  0999 V2000
   -8.3292   -3.9446  -24.5584 H   0  0  0  0  0  0  0  0  0  0  0  0
   -8.6640   -3.2655  -23.7845 C   0  0  0  0  0  0  0  0  0  0  0  0
   -7.0424   -3.2771  -22.5337 H   0  0  0  0  0  0  0  0  0  0  0  0
   -8.0279   -2.9471  -22.7714 C   0  0  0  0  0  0  0  0  0  0  0  0
   -9.6226   -2.8785  -23.9858 H   0  0  0  0  0  0  0  0  0  0  0  0
   -8.6259   -1.9471  -22.0118 C   0  0  0  0  0  0  0  0  0  0  0  0
   -8.2365    0.5660  -20.0155 C   0  0  0  0  0  0  0  0  0  0  0  0
   -8.6352   -1.1922  -21.0459 C   0  0  0  0  0  0  0  0  0  0  0  0
   -7.9681   -0.8124  -19.9094 O   0  0  0  0  0  0  0  0  0  0  0  0
   -8.9335    0.7568  -19.1974 H   0  0  0  0  0  0  0  0  0  0  0  0
  -10.4711   -1.1537  -20.9174 H   0  0  0  0  0  0  0  0  0  0  0  0
   -7.2768    1.0401  -19.7599 H   0  0  0  0  0  0  0  0  0  0  0  0
   -9.6380   -0.8737  -21.3943 N   0  3  0  0  0  0  0  0  0  0  0  0
   -8.7190    1.1911  -21.1820 N   0  0  0  0  0  0  0  0  0  0  0  0
   -9.3675    2.0667  -21.7788 C   0  0  0  0  0  0  0  0  0  0  0  0
   -9.8705    3.0703  -22.1786 N   0  3  0  0  0  0  0  0  0  0  0  0
  -11.9198    0.9097  -23.8814 C   0  0  0  0  0  0  0  0  0  0  0  0
  -11.1256    3.1698  -24.1940 C   0  0  2  0  0  0  0  0  0  0  0  0
  -10.3195    3.7113  -23.3373 C   0  0  0  0  0  0  0  0  0  0  0  0
  -10.4018    4.8389  -23.9048 N   0  3  0  0  0  0  0  0  0  0  0  0
  -10.0450    5.6549  -23.4499 H   0  0  0  0  0  0  0  0  0  0  0  0
  -12.0575    3.1402  -25.0215 O   0  0  0  0  0  0  0  0  0  0  0  0
  -11.6726    2.0562  -24.2526 C   0  0  0  0  0  0  0  0  0  0  0  0
  -12.8155   -0.0750  -23.9812 S   0  0  0  0  0  0  0  0  0  0  0  0
   -8.3373    0.6363  -21.9212 H   0  0  0  0  0  0  0  0  0  0  0  0
   -9.8507    1.4021  -22.4798 H   0  0  0  0  0  0  0  0  0  0  0  0
  -11.1176    0.5782  -23.2388 H   0  0  0  0  0  0  0  0  0  0  0  0
  -10.3389    2.9307  -24.9247 H   0  0  0  0  0  0  0  0  0  0  0  0
  -12.2857   -0.9988  -23.2355 H   0  0  0  0  0  0  0  0  0  0  0  0
   -9.7839    0.0167  -21.8255 H   0  0  0  0  0  0  0  0  0  0  0  0
  -10.0300    3.6765  -21.3994 H   0  0  0  0  0  0  0  0  0  0  0  0
  -10.8237    4.9144  -24.8083 H   0  0  0  0  0  0  0  0  0  0  0  0
 20 21  1  0  0  0  0
 19 20  2  0  0  0  0
 18 19  1  0  0  0  0
 16 19  1  0  0  0  0
 18 22  1  0  0  0  0
 18 23  1  0  0  0  0
 22 23  1  0  0  0  0
 15 16  2  3  0  0  0
 14 15  1  0  0  0  0
 17 23  2  0  0  0  0
  7 14  1  0  0  0  0
  7 12  1  0  0  0  0
 17 24  1  0  0  0  0
  7 10  1  0  0  0  0
  7  9  1  0  0  0  0
  8  9  1  0  0  0  0
 11 13  1  0  0  0  0
  8 13  1  0  0  0  0
  6 13  1  0  0  0  0
  6  8  2  0  0  0  0
  4  6  1  0  0  0  0
  3  4  1  0  0  0  0
  2  4  2  0  0  0  0
  2  5  1  0  0  0  0
  1  2  1  0  0  0  0
 14 25  1  0  0  0  0
 15 26  1  0  0  0  0
 17 27  1  0  0  0  0
 18 28  1  0  0  0  0
 24 29  1  0  0  0  0
 13 30  1  0  0  0  0
 16 31  1  0  0  0  0
 20 32  1  0  0  0  0
M  CHG  3  13   1  16   1  20   1
M  END
> <Chemgauss4>
-6.097941

$$$$
