stable:False satoms:17 tatoms:24 sratio:0.7083333333333334
  -OEChem-08062400343D

 32 33  0     1  0  0  0  0  0999 V2000
    7.9687   -3.9068   24.5590 H   0  0  0  0  0  0  0  0  0  0  0  0
    8.3035   -3.2277   23.7851 C   0  0  0  0  0  0  0  0  0  0  0  0
    6.6820   -3.2393   22.5343 H   0  0  0  0  0  0  0  0  0  0  0  0
    7.6675   -2.9093   22.7720 C   0  0  0  0  0  0  0  0  0  0  0  0
    9.2622   -2.8406   23.9864 H   0  0  0  0  0  0  0  0  0  0  0  0
    8.2655   -1.9093   22.0124 C   0  0  0  0  0  0  0  0  0  0  0  0
    7.8761    0.6038   20.0161 C   0  0  0  0  0  0  0  0  0  0  0  0
    8.2748   -1.1543   21.0465 C   0  0  0  0  0  0  0  0  0  0  0  0
    7.6077   -0.7746   19.9100 O   0  0  0  0  0  0  0  0  0  0  0  0
    8.5731    0.7946   19.1980 H   0  0  0  0  0  0  0  0  0  0  0  0
   10.1107   -1.1158   20.9180 H   0  0  0  0  0  0  0  0  0  0  0  0
    6.9163    1.0779   19.7606 H   0  0  0  0  0  0  0  0  0  0  0  0
    9.2775   -0.8359   21.3949 N   0  3  0  0  0  0  0  0  0  0  0  0
    8.3585    1.2290   21.1826 N   0  0  0  0  0  0  0  0  0  0  0  0
    9.0071    2.1045   21.7794 C   0  0  0  0  0  0  0  0  0  0  0  0
    9.5101    3.1081   22.1792 N   0  3  0  0  0  0  0  0  0  0  0  0
   11.5594    0.9476   23.8820 C   0  0  0  0  0  0  0  0  0  0  0  0
   10.7652    3.2076   24.1946 C   0  0  2  0  0  0  0  0  0  0  0  0
    9.9591    3.7492   23.3379 C   0  0  0  0  0  0  0  0  0  0  0  0
   10.0414    4.8768   23.9054 N   0  3  0  0  0  0  0  0  0  0  0  0
    9.6845    5.6927   23.4506 H   0  0  0  0  0  0  0  0  0  0  0  0
   11.6970    3.1781   25.0222 O   0  0  0  0  0  0  0  0  0  0  0  0
   11.3122    2.0940   24.2532 C   0  0  0  0  0  0  0  0  0  0  0  0
   12.4550   -0.0372   23.9818 S   0  0  0  0  0  0  0  0  0  0  0  0
    7.9768    0.6741   21.9218 H   0  0  0  0  0  0  0  0  0  0  0  0
    9.4902    1.4400   22.4804 H   0  0  0  0  0  0  0  0  0  0  0  0
   10.7571    0.6160   23.2394 H   0  0  0  0  0  0  0  0  0  0  0  0
    9.9785    2.9686   24.9253 H   0  0  0  0  0  0  0  0  0  0  0  0
   11.9253   -0.9610   23.2361 H   0  0  0  0  0  0  0  0  0  0  0  0
    9.4235    0.0545   21.8261 H   0  0  0  0  0  0  0  0  0  0  0  0
    9.6696    3.7143   21.4000 H   0  0  0  0  0  0  0  0  0  0  0  0
   10.4633    4.9522   24.8089 H   0  0  0  0  0  0  0  0  0  0  0  0
 20 21  1  0  0  0  0
 19 20  2  0  0  0  0
 18 19  1  0  0  0  0
 16 19  1  0  0  0  0
 18 22  1  0  0  0  0
 18 23  1  0  0  0  0
 22 23  1  0  0  0  0
 15 16  2  3  0  0  0
 14 15  1  0  0  0  0
 17 23  2  0  0  0  0
  7 14  1  0  0  0  0
  7 12  1  0  0  0  0
 17 24  1  0  0  0  0
  7 10  1  0  0  0  0
  7  9  1  0  0  0  0
  8  9  1  0  0  0  0
 11 13  1  0  0  0  0
  8 13  1  0  0  0  0
  6 13  1  0  0  0  0
  6  8  2  0  0  0  0
  4  6  1  0  0  0  0
  3  4  1  0  0  0  0
  2  4  2  0  0  0  0
  2  5  1  0  0  0  0
  1  2  1  0  0  0  0
 14 25  1  0  0  0  0
 15 26  1  0  0  0  0
 17 27  1  0  0  0  0
 18 28  1  0  0  0  0
 24 29  1  0  0  0  0
 13 30  1  0  0  0  0
 16 31  1  0  0  0  0
 20 32  1  0  0  0  0
M  CHG  3  13   1  16   1  20   1
M  END
> <Chemgauss4>
-5.891215

$$$$
