MODEL 1
REMARK VINA RESULT:    -4.559      0.000      0.000
REMARK INTER + INTRA:          -4.865
REMARK INTER:                  -4.826
REMARK INTRA:                  -0.039
REMARK UNBOUND:                -0.039
REMARK  1 active torsions:
REMARK  status: ('A' for Active; 'I' for Inactive)
REMARK    1  A    between atoms: C_2  and  O_3 
ROOT
HETATM    1  C   UNL     1      11.892   0.660  24.421  1.00  0.00    -0.001 C 
HETATM    2  C   UNL     1       9.139   0.482  21.439  1.00  0.00     0.047 C 
HETATM    3  C   UNL     1      10.116  -1.719  22.397  1.00  0.00     0.174 C 
HETATM    4  C   UNL     1      11.497   1.830  23.816  1.00  0.00    -0.002 C 
HETATM    5  C   UNL     1      10.557   2.067  22.809  1.00  0.00     0.002 C 
HETATM    6  O   UNL     1      11.087  -0.829  22.829  1.00  0.00    -0.387 OA
HETATM    7  C   UNL     1       8.944  -0.968  21.722  1.00  0.00     0.090 C 
HETATM    8  C   UNL     1      10.305   1.189  21.766  1.00  0.00     0.032 C 
HETATM    9  C   UNL     1      11.560  -0.770  24.149  1.00  0.00     0.195 C 
ENDROOT
BRANCH   2  10
HETATM   10  O   UNL     1       8.164   1.059  20.728  1.00  0.00    -0.360 OA
HETATM   11  C   UNL     1       7.460   0.257  19.806  1.00  0.00     0.209 C 
ENDBRANCH   2  10
TORSDOF 1
ENDMDL
MODEL 2
REMARK VINA RESULT:    -4.251      2.554      3.615
REMARK INTER + INTRA:          -4.539
REMARK INTER:                  -4.488
REMARK INTRA:                  -0.051
REMARK UNBOUND:                -0.039
REMARK  1 active torsions:
REMARK  status: ('A' for Active; 'I' for Inactive)
REMARK    1  A    between atoms: C_2  and  O_3 
ROOT
HETATM    1  C   UNL     1       9.033   1.738  24.723  1.00  0.00    -0.001 C 
HETATM    2  C   UNL     1      11.238  -1.335  23.242  1.00  0.00     0.047 C 
HETATM    3  C   UNL     1       8.849  -1.801  24.132  1.00  0.00     0.174 C 
HETATM    4  C   UNL     1      10.350   1.966  24.399  1.00  0.00    -0.002 C 
HETATM    5  C   UNL     1      11.315   1.119  23.845  1.00  0.00     0.002 C 
HETATM    6  O   UNL     1       9.092  -0.585  24.750  1.00  0.00    -0.387 OA
HETATM    7  C   UNL     1      10.006  -2.171  23.173  1.00  0.00     0.090 C 
HETATM    8  C   UNL     1      11.389  -0.240  24.104  1.00  0.00     0.032 C 
HETATM    9  C   UNL     1       8.201   0.498  24.719  1.00  0.00     0.195 C 
ENDROOT
BRANCH   2  10
HETATM   10  O   UNL     1      12.264  -1.773  22.503  1.00  0.00    -0.360 OA
HETATM   11  C   UNL     1      13.535  -1.831  23.112  1.00  0.00     0.209 C 
ENDBRANCH   2  10
TORSDOF 1
ENDMDL
MODEL 3
REMARK VINA RESULT:    -4.185      1.568      2.256
REMARK INTER + INTRA:          -4.469
REMARK INTER:                  -4.428
REMARK INTRA:                  -0.041
REMARK UNBOUND:                -0.039
REMARK  1 active torsions:
REMARK  status: ('A' for Active; 'I' for Inactive)
REMARK    1  A    between atoms: C_2  and  O_3 
ROOT
HETATM    1  C   UNL     1      12.007  -0.923  23.685  1.00  0.00    -0.001 C 
HETATM    2  C   UNL     1       9.500   2.101  22.648  1.00  0.00     0.047 C 
HETATM    3  C   UNL     1       9.390  -0.140  21.351  1.00  0.00     0.174 C 
HETATM    4  C   UNL     1      12.179   0.309  24.273  1.00  0.00    -0.002 C 
HETATM    5  C   UNL     1      11.453   1.496  24.136  1.00  0.00     0.002 C 
HETATM    6  O   UNL     1      10.648  -0.265  21.918  1.00  0.00    -0.387 OA
HETATM    7  C   UNL     1       8.680   1.135  21.863  1.00  0.00     0.090 C 
HETATM    8  C   UNL     1      10.854   1.903  22.955  1.00  0.00     0.032 C 
HETATM    9  C   UNL     1      11.081  -1.402  22.616  1.00  0.00     0.195 C 
ENDROOT
BRANCH   2  10
HETATM   10  O   UNL     1       8.890   3.253  22.948  1.00  0.00    -0.360 OA
HETATM   11  C   UNL     1       7.558   3.424  22.513  1.00  0.00     0.209 C 
ENDBRANCH   2  10
TORSDOF 1
ENDMDL
MODEL 4
REMARK VINA RESULT:    -4.181     24.108     25.807
REMARK INTER + INTRA:          -4.464
REMARK INTER:                  -4.428
REMARK INTRA:                  -0.036
REMARK UNBOUND:                -0.039
REMARK  1 active torsions:
REMARK  status: ('A' for Active; 'I' for Inactive)
REMARK    1  A    between atoms: C_2  and  O_3 
ROOT
HETATM    1  C   UNL     1      19.999 -20.902  13.894  1.00  0.00    -0.001 C 
HETATM    2  C   UNL     1      21.445 -22.061  17.509  1.00  0.00     0.047 C 
HETATM    3  C   UNL     1      22.115 -23.391  15.389  1.00  0.00     0.174 C 
HETATM    4  C   UNL     1      19.516 -20.288  15.026  1.00  0.00    -0.002 C 
HETATM    5  C   UNL     1      19.854 -20.456  16.372  1.00  0.00     0.002 C 
HETATM    6  O   UNL     1      20.988 -22.745  14.907  1.00  0.00    -0.387 OA
HETATM    7  C   UNL     1      22.456 -22.910  16.819  1.00  0.00     0.090 C 
HETATM    8  C   UNL     1      20.230 -21.669  16.928  1.00  0.00     0.032 C 
HETATM    9  C   UNL     1      20.952 -22.035  13.698  1.00  0.00     0.195 C 
ENDROOT
BRANCH   2  10
HETATM   10  O   UNL     1      21.712 -21.786  18.791  1.00  0.00    -0.360 OA
HETATM   11  C   UNL     1      22.100 -22.856  19.625  1.00  0.00     0.209 C 
ENDBRANCH   2  10
TORSDOF 1
ENDMDL
MODEL 5
REMARK VINA RESULT:    -4.128     14.368     15.296
REMARK INTER + INTRA:          -4.408
REMARK INTER:                  -4.368
REMARK INTRA:                  -0.040
REMARK UNBOUND:                -0.039
REMARK  1 active torsions:
REMARK  status: ('A' for Active; 'I' for Inactive)
REMARK    1  A    between atoms: C_2  and  O_3 
ROOT
HETATM    1  C   UNL     1      24.485  -3.784  19.702  1.00  0.00    -0.001 C 
HETATM    2  C   UNL     1      23.826  -2.049  16.089  1.00  0.00     0.047 C 
HETATM    3  C   UNL     1      23.191  -0.764  18.248  1.00  0.00     0.174 C 
HETATM    4  C   UNL     1      24.680  -4.533  18.565  1.00  0.00    -0.002 C 
HETATM    5  C   UNL     1      24.568  -4.189  17.214  1.00  0.00     0.002 C 
HETATM    6  O   UNL     1      23.259  -2.051  18.758  1.00  0.00    -0.387 OA
HETATM    7  C   UNL     1      23.638  -0.736  16.767  1.00  0.00     0.090 C 
HETATM    8  C   UNL     1      23.640  -3.286  16.722  1.00  0.00     0.032 C 
HETATM    9  C   UNL     1      23.975  -2.397  19.913  1.00  0.00     0.195 C 
ENDROOT
BRANCH   2  10
HETATM   10  O   UNL     1      24.072  -1.981  14.776  1.00  0.00    -0.360 OA
HETATM   11  C   UNL     1      24.500  -0.743  14.250  1.00  0.00     0.209 C 
ENDBRANCH   2  10
TORSDOF 1
ENDMDL
MODEL 6
REMARK VINA RESULT:    -4.125      1.068      2.453
REMARK INTER + INTRA:          -4.405
REMARK INTER:                  -4.357
REMARK INTRA:                  -0.048
REMARK UNBOUND:                -0.039
REMARK  1 active torsions:
REMARK  status: ('A' for Active; 'I' for Inactive)
REMARK    1  A    between atoms: C_2  and  O_3 
ROOT
HETATM    1  C   UNL     1      12.403  -0.781  23.883  1.00  0.00    -0.001 C 
HETATM    2  C   UNL     1       9.330   0.833  21.773  1.00  0.00     0.047 C 
HETATM    3  C   UNL     1      10.430   2.214  23.670  1.00  0.00     0.174 C 
HETATM    4  C   UNL     1      11.728  -1.576  22.988  1.00  0.00    -0.002 C 
HETATM    5  C   UNL     1      10.675  -1.281  22.116  1.00  0.00     0.002 C 
HETATM    6  O   UNL     1      10.856   0.946  24.032  1.00  0.00    -0.387 OA
HETATM    7  C   UNL     1       9.675   2.175  22.320  1.00  0.00     0.090 C 
HETATM    8  C   UNL     1       9.667  -0.374  22.402  1.00  0.00     0.032 C 
HETATM    9  C   UNL     1      12.188   0.626  24.334  1.00  0.00     0.195 C 
ENDROOT
BRANCH   2  10
HETATM   10  O   UNL     1       8.555   0.845  20.682  1.00  0.00    -0.360 OA
HETATM   11  C   UNL     1       7.478  -0.064  20.631  1.00  0.00     0.209 C 
ENDBRANCH   2  10
TORSDOF 1
ENDMDL
MODEL 7
REMARK VINA RESULT:    -3.974     23.528     25.459
REMARK INTER + INTRA:          -4.245
REMARK INTER:                  -4.212
REMARK INTRA:                  -0.033
REMARK UNBOUND:                -0.039
REMARK  1 active torsions:
REMARK  status: ('A' for Active; 'I' for Inactive)
REMARK    1  A    between atoms: C_2  and  O_3 
ROOT
HETATM    1  C   UNL     1       2.686 -21.524   8.579  1.00  0.00    -0.001 C 
HETATM    2  C   UNL     1       0.820 -17.956   9.120  1.00  0.00     0.047 C 
HETATM    3  C   UNL     1      -0.603 -20.082   8.703  1.00  0.00     0.174 C 
HETATM    4  C   UNL     1       3.450 -20.383   8.644  1.00  0.00    -0.002 C 
HETATM    5  C   UNL     1       3.086 -19.049   8.858  1.00  0.00     0.002 C 
HETATM    6  O   UNL     1       0.619 -20.524   8.221  1.00  0.00    -0.387 OA
HETATM    7  C   UNL     1      -0.467 -18.675   9.334  1.00  0.00     0.090 C 
HETATM    8  C   UNL     1       1.902 -18.490   8.405  1.00  0.00     0.032 C 
HETATM    9  C   UNL     1       1.209 -21.742   8.589  1.00  0.00     0.195 C 
ENDROOT
BRANCH   2  10
HETATM   10  O   UNL     1       0.845 -16.692   9.557  1.00  0.00    -0.360 OA
HETATM   11  C   UNL     1      -0.081 -15.785   8.999  1.00  0.00     0.209 C 
ENDBRANCH   2  10
TORSDOF 1
ENDMDL
MODEL 8
REMARK VINA RESULT:    -3.965     12.382     13.949
REMARK INTER + INTRA:          -4.235
REMARK INTER:                  -4.195
REMARK INTRA:                  -0.041
REMARK UNBOUND:                -0.039
REMARK  1 active torsions:
REMARK  status: ('A' for Active; 'I' for Inactive)
REMARK    1  A    between atoms: C_2  and  O_3 
ROOT
HETATM    1  C   UNL     1      21.734  -0.063  25.817  1.00  0.00    -0.001 C 
HETATM    2  C   UNL     1      23.321  -3.720  25.038  1.00  0.00     0.047 C 
HETATM    3  C   UNL     1      24.068  -2.440  27.163  1.00  0.00     0.174 C 
HETATM    4  C   UNL     1      21.450  -0.663  24.613  1.00  0.00    -0.002 C 
HETATM    5  C   UNL     1      21.822  -1.911  24.103  1.00  0.00     0.002 C 
HETATM    6  O   UNL     1      23.542  -1.386  26.433  1.00  0.00    -0.387 OA
HETATM    7  C   UNL     1      23.829  -3.785  26.437  1.00  0.00     0.090 C 
HETATM    8  C   UNL     1      23.037  -2.522  24.367  1.00  0.00     0.032 C 
HETATM    9  C   UNL     1      22.624  -0.460  26.949  1.00  0.00     0.195 C 
ENDROOT
BRANCH   2  10
HETATM   10  O   UNL     1      23.265  -4.894  24.398  1.00  0.00    -0.360 OA
HETATM   11  C   UNL     1      23.679  -6.046  25.100  1.00  0.00     0.209 C 
ENDBRANCH   2  10
TORSDOF 1
ENDMDL
MODEL 9
REMARK VINA RESULT:    -3.943     24.043     25.672
REMARK INTER + INTRA:          -4.212
REMARK INTER:                  -4.172
REMARK INTRA:                  -0.040
REMARK UNBOUND:                -0.039
REMARK  1 active torsions:
REMARK  status: ('A' for Active; 'I' for Inactive)
REMARK    1  A    between atoms: C_2  and  O_3 
ROOT
HETATM    1  C   UNL     1      21.332 -20.147  11.835  1.00  0.00    -0.001 C 
HETATM    2  C   UNL     1      20.613 -21.486  15.602  1.00  0.00     0.047 C 
HETATM    3  C   UNL     1      21.663 -23.095  13.862  1.00  0.00     0.174 C 
HETATM    4  C   UNL     1      20.635 -19.338  12.701  1.00  0.00    -0.002 C 
HETATM    5  C   UNL     1      20.284 -19.523  14.042  1.00  0.00     0.002 C 
HETATM    6  O   UNL     1      21.131 -22.145  13.005  1.00  0.00    -0.387 OA
HETATM    7  C   UNL     1      21.488 -22.663  15.338  1.00  0.00     0.090 C 
HETATM    8  C   UNL     1      19.968 -20.753  14.595  1.00  0.00     0.032 C 
HETATM    9  C   UNL     1      21.852 -21.541  11.965  1.00  0.00     0.195 C 
ENDROOT
BRANCH   2  10
HETATM   10  O   UNL     1      20.374 -21.234  16.894  1.00  0.00    -0.360 OA
HETATM   11  C   UNL     1      21.406 -21.501  17.818  1.00  0.00     0.209 C 
ENDBRANCH   2  10
TORSDOF 1
ENDMDL
