REMARK  1 active torsions:
REMARK  status: ('A' for Active; 'I' for Inactive)
REMARK    1  A    between atoms: C_2  and  O_3 
ROOT
HETATM    1  C   UNL     1      10.065   0.100  24.518  1.00  0.00    -0.001 C 
HETATM    2  C   UNL     1       7.900  -1.513  21.483  1.00  0.00     0.047 C 
HETATM    3  C   UNL     1      10.485  -1.458  21.308  1.00  0.00     0.174 C 
HETATM    4  C   UNL     1       8.695   0.216  24.550  1.00  0.00    -0.002 C 
HETATM    5  C   UNL     1       7.716  -0.267  23.676  1.00  0.00     0.002 C 
HETATM    6  O   UNL     1      10.300  -0.491  22.283  1.00  0.00    -0.387 OA
HETATM    7  C   UNL     1       9.142  -2.134  20.943  1.00  0.00     0.090 C 
HETATM    8  C   UNL     1       7.891  -0.378  22.306  1.00  0.00     0.032 C 
HETATM    9  C   UNL     1      10.999  -0.464  23.499  1.00  0.00     0.195 C 
ENDROOT
BRANCH   2  10
HETATM   10  O   UNL     1       6.757  -2.040  21.029  1.00  0.00    -0.360 OA
HETATM   11  C   UNL     1       5.810  -2.475  21.980  1.00  0.00     0.209 C 
ENDBRANCH   2  10
TORSDOF 1
