stable:False satoms:16 tatoms:24 sratio:0.6666666666666666
  -OEChem-08062403353D

 35 35  0     1  0  0  0  0  0999 V2000
    5.0649   -1.7489   25.6238 H   0  0  0  0  0  0  0  0  0  0  0  0
    5.1373   -0.6404   25.7497 C   0  0  0  0  0  0  0  0  0  0  0  0
    4.5515   -0.3820   26.6469 H   0  0  0  0  0  0  0  0  0  0  0  0
    4.6659   -0.1677   24.8592 H   0  0  0  0  0  0  0  0  0  0  0  0
    6.4982   -0.1830   25.8779 N   0  0  0  0  0  0  0  0  0  0  0  0
    7.4532    0.6660   25.5627 C   0  0  0  0  0  0  0  0  0  0  0  0
    8.5743    0.3403   24.9837 N   0  0  0  0  0  0  0  0  0  0  0  0
    8.7078    2.3233   24.9533 C   0  0  0  0  0  0  0  0  0  0  0  0
    8.7973    3.5963   24.4640 C   0  0  0  0  0  0  0  0  0  0  0  0
    8.7617    4.8206   25.9016 H   0  0  0  0  0  0  0  0  0  0  0  0
    8.3496    4.6351   24.8987 C   0  0  0  0  0  0  0  0  0  0  0  0
    8.6269    5.4630   24.2296 H   0  0  0  0  0  0  0  0  0  0  0  0
    7.7390    2.1811   25.7670 N   0  0  0  0  0  0  0  0  0  0  0  0
    9.4828    1.2231   24.6844 C   0  0  3  0  0  0  0  0  0  0  0  0
   10.9222    1.1094   24.2611 C   0  0  0  0  0  0  0  0  0  0  0  0
   11.6214    2.0108   24.0024 O   0  0  0  0  0  0  0  0  0  0  0  0
   11.6162   -0.2128   24.1290 N   0  3  0  0  0  0  0  0  0  0  0  0
   12.8888   -0.3194   24.4349 C   0  0  0  0  0  0  0  0  0  0  0  0
   13.4259    0.2660   25.1639 H   0  0  0  0  0  0  0  0  0  0  0  0
   13.7284   -1.2389   23.8970 N   0  0  0  0  0  0  0  0  0  0  0  0
   14.6960   -1.5290   23.9388 H   0  0  0  0  0  0  0  0  0  0  0  0
   13.0502   -1.9792   22.9147 O   0  0  0  0  0  0  0  0  0  0  0  0
   11.7668   -1.6659   22.9143 C   0  0  0  0  0  0  0  0  0  0  0  0
   10.6456   -2.0128   22.3639 N   0  3  0  0  0  0  0  0  0  0  0  0
    6.9244   -0.8221   26.5181 H   0  0  0  0  0  0  0  0  0  0  0  0
    9.3554    3.6915   23.5443 H   0  0  0  0  0  0  0  0  0  0  0  0
    7.2535    4.5647   24.9599 H   0  0  0  0  0  0  0  0  0  0  0  0
    7.2924    2.8483   26.3630 H   0  0  0  0  0  0  0  0  0  0  0  0
    9.1576    1.2290   23.6336 H   0  0  0  0  0  0  0  0  0  0  0  0
   11.5217   -1.7740   23.9812 H   0  0  0  0  0  0  0  0  0  0  0  0
   11.8092   -0.5979   22.6542 H   0  0  0  0  0  0  0  0  0  0  0  0
   10.4508   -2.9698   22.5788 H   0  0  0  0  0  0  0  0  0  0  0  0
    9.9088   -1.4355   22.7159 H   0  0  0  0  0  0  0  0  0  0  0  0
   11.1102   -1.0133   23.8080 H   0  0  0  0  0  0  0  0  0  0  0  0
   10.7122   -1.9007   21.3724 H   0  0  0  0  0  0  0  0  0  0  0  0
 20 21  1  0  0  0  0
 18 19  1  0  0  0  0
 18 20  1  0  0  0  0
 20 22  1  0  0  0  0
 17 18  2  0  0  0  0
 22 23  1  0  0  0  0
 15 17  1  0  0  0  0
 15 16  2  0  0  0  0
 23 24  1  0  0  0  0
 14 15  1  0  0  0  0
  7 14  1  0  0  0  0
  8 14  1  0  0  0  0
 11 12  1  0  0  0  0
  6  7  2  0  0  0  0
  8  9  2  0  0  0  0
  8 13  1  0  0  0  0
  9 11  1  0  0  0  0
 10 11  1  0  0  0  0
  6 13  1  0  0  0  0
  5  6  1  0  0  0  0
  2  5  1  0  0  0  0
  1  2  1  0  0  0  0
  2  3  1  0  0  0  0
  2  4  1  0  0  0  0
  5 25  1  0  0  0  0
  9 26  1  0  0  0  0
 11 27  1  0  0  0  0
 13 28  1  0  0  0  0
 14 29  1  0  0  0  0
 23 30  1  0  0  0  0
 23 31  1  0  0  0  0
 24 32  1  0  0  0  0
 24 33  1  0  0  0  0
 17 34  1  0  0  0  0
 24 35  1  0  0  0  0
M  CHG  2  17   1  24   1
M  END
> <Chemgauss4>
-6.107256

$$$$
