
 OpenBabel07202414153D

 53 56  0  0  0  0  0  0  0  0999 V2000
    2.9809   -0.0247    0.9459 C   0  0  0  0  0  0  0  0  0  0  0  0
    4.5262   -0.8878    0.7933 S   0  0  0  0  0  0  0  0  0  0  0  0
    5.5972    0.0553    1.0401 O   0  0  0  0  0  0  0  0  0  0  0  0
    4.4289   -2.1203    1.5524 O   0  0  0  0  0  0  0  0  0  0  0  0
    4.5727   -1.3248   -0.9277 C   0  0  0  0  0  0  0  0  0  0  0  0
    4.0244   -2.5458   -1.3483 C   0  0  0  0  0  0  0  0  0  0  0  0
    4.0121   -2.8844   -2.7090 C   0  0  0  0  0  0  0  0  0  0  0  0
    3.4843   -4.1362   -3.0924 N   0  0  0  0  0  0  0  0  0  0  0  0
    3.8615   -5.0264   -4.1171 C   0  0  0  0  0  0  0  0  0  0  0  0
    5.1613   -5.0487   -4.6379 C   0  0  0  0  0  0  0  0  0  0  0  0
    5.4768   -5.7778   -5.7956 C   0  0  0  0  0  0  0  0  0  0  0  0
    6.8728   -5.7272   -6.3635 C   0  0  0  0  0  0  0  0  0  0  0  0
    7.2705   -4.3156   -6.7666 C   0  0  0  0  0  0  0  0  0  0  0  0
    6.8134   -3.7850   -7.7753 O   0  0  0  0  0  0  0  0  0  0  0  0
    8.1882   -3.7333   -5.9071 N   0  0  0  0  0  0  0  0  0  0  0  0
    8.6783   -2.4175   -6.0851 C   0  0  0  0  0  0  0  0  0  0  0  0
    7.8279   -1.3751   -6.4601 C   0  0  0  0  0  0  0  0  0  0  0  0
    8.2233   -0.0933   -6.6340 N   0  0  0  0  0  0  0  0  0  0  0  0
    9.5392    0.1534   -6.4614 C   0  0  0  0  0  0  0  0  0  0  0  0
   10.4900   -0.8045   -6.1007 C   0  0  0  0  0  0  0  0  0  0  0  0
   11.8540   -0.4797   -5.9863 C   0  0  0  0  0  0  0  0  0  0  0  0
   12.7942   -1.4550   -5.6602 C   0  0  0  0  0  0  0  0  0  0  0  0
   12.3827   -2.7617   -5.4351 C   0  0  0  0  0  0  0  0  0  0  0  0
   11.0308   -3.0953   -5.5419 C   0  0  0  0  0  0  0  0  0  0  0  0
   10.0514   -2.1289   -5.8809 C   0  0  0  0  0  0  0  0  0  0  0  0
    4.4710   -6.5195   -6.4226 C   0  0  0  0  0  0  0  0  0  0  0  0
    3.1861   -6.5405   -5.8831 C   0  0  0  0  0  0  0  0  0  0  0  0
    1.9502   -7.4484   -6.6649 Cl  0  0  0  0  0  0  0  0  0  0  0  0
    2.8797   -5.8043   -4.7369 C   0  0  0  0  0  0  0  0  0  0  0  0
    4.5793   -1.9643   -3.6127 C   0  0  0  0  0  0  0  0  0  0  0  0
    4.5141   -2.1329   -4.9673 O   0  0  0  0  0  0  0  0  0  0  0  0
    5.1720   -0.7764   -3.1873 C   0  0  0  0  0  0  0  0  0  0  0  0
    5.1711   -0.4505   -1.8362 C   0  0  0  0  0  0  0  0  0  0  0  0
    2.8823    0.3168    1.9788 H   0  0  0  0  0  0  0  0  0  0  0  0
    2.1644   -0.7081    0.7020 H   0  0  0  0  0  0  0  0  0  0  0  0
    2.9828    0.8333    0.2707 H   0  0  0  0  0  0  0  0  0  0  0  0
    3.6136   -3.2355   -0.6134 H   0  0  0  0  0  0  0  0  0  0  0  0
    2.7532   -4.4903   -2.4823 H   0  0  0  0  0  0  0  0  0  0  0  0
    5.9353   -4.4577   -4.1499 H   0  0  0  0  0  0  0  0  0  0  0  0
    6.9586   -6.3562   -7.2583 H   0  0  0  0  0  0  0  0  0  0  0  0
    7.5750   -6.1431   -5.6314 H   0  0  0  0  0  0  0  0  0  0  0  0
    8.7231   -4.3488   -5.3117 H   0  0  0  0  0  0  0  0  0  0  0  0
    6.7613   -1.5366   -6.6000 H   0  0  0  0  0  0  0  0  0  0  0  0
    9.8243    1.1870   -6.6426 H   0  0  0  0  0  0  0  0  0  0  0  0
   12.1951    0.5365   -6.1730 H   0  0  0  0  0  0  0  0  0  0  0  0
   13.8481   -1.1976   -5.5959 H   0  0  0  0  0  0  0  0  0  0  0  0
   13.1140   -3.5290   -5.1940 H   0  0  0  0  0  0  0  0  0  0  0  0
   10.7657   -4.1366   -5.3874 H   0  0  0  0  0  0  0  0  0  0  0  0
    4.6810   -7.0637   -7.3410 H   0  0  0  0  0  0  0  0  0  0  0  0
    1.8619   -5.8036   -4.3600 H   0  0  0  0  0  0  0  0  0  0  0  0
    3.8790   -2.8510   -5.1358 H   0  0  0  0  0  0  0  0  0  0  0  0
    5.6090   -0.0989   -3.9177 H   0  0  0  0  0  0  0  0  0  0  0  0
    5.6236    0.4832   -1.5100 H   0  0  0  0  0  0  0  0  0  0  0  0
  1  2  1  0  0  0  0
  1 34  1  0  0  0  0
  1 35  1  0  0  0  0
  1 36  1  0  0  0  0
  2  3  2  0  0  0  0
  2  4  2  0  0  0  0
  2  5  1  0  0  0  0
  5  6  2  0  0  0  0
  5 33  1  0  0  0  0
  6  7  1  0  0  0  0
  6 37  1  0  0  0  0
  7  8  1  0  0  0  0
  7 30  2  0  0  0  0
  8  9  1  0  0  0  0
  8 38  1  0  0  0  0
  9 10  2  0  0  0  0
  9 29  1  0  0  0  0
 10 11  1  0  0  0  0
 10 39  1  0  0  0  0
 11 12  1  0  0  0  0
 11 26  2  0  0  0  0
 12 13  1  0  0  0  0
 12 40  1  0  0  0  0
 12 41  1  0  0  0  0
 13 14  2  0  0  0  0
 13 15  1  0  0  0  0
 15 16  1  0  0  0  0
 15 42  1  0  0  0  0
 16 17  2  0  0  0  0
 16 25  1  0  0  0  0
 17 18  1  0  0  0  0
 17 43  1  0  0  0  0
 18 19  2  0  0  0  0
 19 20  1  0  0  0  0
 19 44  1  0  0  0  0
 20 21  2  0  0  0  0
 20 25  1  0  0  0  0
 21 22  1  0  0  0  0
 21 45  1  0  0  0  0
 22 23  2  0  0  0  0
 22 46  1  0  0  0  0
 23 24  1  0  0  0  0
 23 47  1  0  0  0  0
 24 25  2  0  0  0  0
 24 48  1  0  0  0  0
 26 27  1  0  0  0  0
 26 49  1  0  0  0  0
 27 28  1  0  0  0  0
 27 29  2  0  0  0  0
 29 50  1  0  0  0  0
 30 31  1  0  0  0  0
 30 32  1  0  0  0  0
 31 51  1  0  0  0  0
 32 33  2  0  0  0  0
 32 52  1  0  0  0  0
 33 53  1  0  0  0  0
M  END
$$$$
