stable:False satoms:13 tatoms:24 sratio:0.5416666666666666
  -OEChem-08062411583D

 31 31  0     0  0  0  0  0  0999 V2000
   -6.5633   -5.6276  -25.9866 Cl  0  0  0  0  0  0  0  0  0  0  0  0
   -8.2697   -4.9152  -25.8487 S   0  0  0  0  0  0  0  0  0  0  0  0
   -9.1661   -6.0100  -25.6901 O   0  0  0  0  0  0  0  0  0  0  0  0
   -8.4931   -4.1528  -26.9944 O   0  0  0  0  0  0  0  0  0  0  0  0
   -8.1258   -4.0342  -24.4985 N   0  0  0  0  0  0  0  0  0  0  0  0
   -8.9373   -3.1870  -24.0610 C   0  0  0  0  0  0  0  0  0  0  0  0
   -9.4647   -2.4165  -23.6181 C   0  0  0  0  0  0  0  0  0  0  0  0
  -10.2869   -1.6185  -23.0988 C   0  0  0  0  0  0  0  0  0  0  0  0
  -11.7439    0.7373  -23.8644 H   0  0  0  0  0  0  0  0  0  0  0  0
  -12.3804   -0.0512  -24.2921 C   0  0  0  0  0  0  0  0  0  0  0  0
  -13.3894    0.3488  -24.4708 H   0  0  0  0  0  0  0  0  0  0  0  0
  -12.4550   -1.1188  -23.4044 C   0  0  0  0  0  0  0  0  0  0  0  0
  -11.6603   -1.7199  -23.0288 C   0  0  0  0  0  0  0  0  0  0  0  0
   -9.9441   -0.5870  -22.3871 C   0  0  0  0  0  0  0  0  0  0  0  0
   -9.2549    0.0810  -21.4716 C   0  0  0  0  0  0  0  0  0  0  0  0
   -9.6695    1.0953  -21.0109 O   0  0  0  0  0  0  0  0  0  0  0  0
   -8.0696   -0.5410  -21.1484 N   0  0  0  0  0  0  0  0  0  0  0  0
   -7.3648   -0.0920  -20.1443 C   0  0  0  0  0  0  0  0  0  0  0  0
   -7.7601   -0.0019  -18.8730 N   0  0  0  0  0  0  0  0  0  0  0  0
   -7.1028    0.3576  -18.0445 N   0  0  0  0  0  0  0  0  0  0  0  0
   -5.1553    0.9891  -18.1802 H   0  0  0  0  0  0  0  0  0  0  0  0
   -5.7516    0.6604  -18.9150 C   0  0  0  0  0  0  0  0  0  0  0  0
   -6.0162    0.3640  -20.1790 C   0  0  0  0  0  0  0  0  0  0  0  0
   -5.2876    0.4042  -21.3855 Cl  0  0  0  0  0  0  0  0  0  0  0  0
   -7.2660   -3.5352  -24.6070 H   0  0  0  0  0  0  0  0  0  0  0  0
  -11.9487   -0.3952  -25.2436 H   0  0  0  0  0  0  0  0  0  0  0  0
  -13.4441   -1.3702  -23.0511 H   0  0  0  0  0  0  0  0  0  0  0  0
  -11.9995   -2.5866  -22.4809 H   0  0  0  0  0  0  0  0  0  0  0  0
  -10.6140    0.1735  -22.7603 H   0  0  0  0  0  0  0  0  0  0  0  0
   -7.7516   -1.3282  -21.6768 H   0  0  0  0  0  0  0  0  0  0  0  0
   -8.6969   -0.2712  -18.6495 H   0  0  0  0  0  0  0  0  0  0  0  0
 19 20  1  0  0  0  0
 20 22  2  0  0  0  0
 21 22  1  0  0  0  0
 18 19  1  0  0  0  0
 22 23  1  0  0  0  0
 18 23  2  0  0  0  0
 17 18  1  0  0  0  0
 23 24  1  0  0  0  0
 15 16  2  0  0  0  0
 15 17  1  0  0  0  0
 14 15  1  0  0  0  0
  8 14  2  3  0  0  0
  8 13  1  0  0  0  0
 12 13  2  0  0  0  0
  7  8  1  0  0  0  0
 10 12  1  0  0  0  0
  6  7  3  0  0  0  0
 10 11  1  0  0  0  0
  9 10  1  0  0  0  0
  5  6  1  0  0  0  0
  2  5  1  0  0  0  0
  2  3  2  0  0  0  0
  1  2  1  0  0  0  0
  2  4  2  0  0  0  0
  5 25  1  0  0  0  0
 10 26  1  0  0  0  0
 12 27  1  0  0  0  0
 13 28  1  0  0  0  0
 14 29  1  0  0  0  0
 17 30  1  0  0  0  0
 19 31  1  0  0  0  0
M  END
> <Chemgauss4>
-10.221735

$$$$
