stable:False satoms:13 tatoms:24 sratio:0.5416666666666666
  -OEChem-08062411583D

 31 31  0     0  0  0  0  0  0999 V2000
    6.7402   -5.6399   25.9866 Cl  0  0  0  0  0  0  0  0  0  0  0  0
    8.4466   -4.9275   25.8487 S   0  0  0  0  0  0  0  0  0  0  0  0
    9.3430   -6.0223   25.6901 O   0  0  0  0  0  0  0  0  0  0  0  0
    8.6700   -4.1651   26.9944 O   0  0  0  0  0  0  0  0  0  0  0  0
    8.3027   -4.0465   24.4985 N   0  0  0  0  0  0  0  0  0  0  0  0
    9.1142   -3.1993   24.0610 C   0  0  0  0  0  0  0  0  0  0  0  0
    9.6416   -2.4288   23.6181 C   0  0  0  0  0  0  0  0  0  0  0  0
   10.4638   -1.6308   23.0988 C   0  0  0  0  0  0  0  0  0  0  0  0
   11.9208    0.7250   23.8644 H   0  0  0  0  0  0  0  0  0  0  0  0
   12.5573   -0.0636   24.2921 C   0  0  0  0  0  0  0  0  0  0  0  0
   13.5663    0.3365   24.4708 H   0  0  0  0  0  0  0  0  0  0  0  0
   12.6319   -1.1311   23.4044 C   0  0  0  0  0  0  0  0  0  0  0  0
   11.8372   -1.7322   23.0288 C   0  0  0  0  0  0  0  0  0  0  0  0
   10.1210   -0.5993   22.3871 C   0  0  0  0  0  0  0  0  0  0  0  0
    9.4318    0.0687   21.4716 C   0  0  0  0  0  0  0  0  0  0  0  0
    9.8464    1.0830   21.0109 O   0  0  0  0  0  0  0  0  0  0  0  0
    8.2465   -0.5533   21.1484 N   0  0  0  0  0  0  0  0  0  0  0  0
    7.5417   -0.1044   20.1443 C   0  0  0  0  0  0  0  0  0  0  0  0
    7.9370   -0.0142   18.8730 N   0  0  0  0  0  0  0  0  0  0  0  0
    7.2797    0.3453   18.0445 N   0  0  0  0  0  0  0  0  0  0  0  0
    5.3322    0.9768   18.1802 H   0  0  0  0  0  0  0  0  0  0  0  0
    5.9285    0.6481   18.9150 C   0  0  0  0  0  0  0  0  0  0  0  0
    6.1931    0.3517   20.1790 C   0  0  0  0  0  0  0  0  0  0  0  0
    5.4645    0.3919   21.3855 Cl  0  0  0  0  0  0  0  0  0  0  0  0
    7.4429   -3.5475   24.6070 H   0  0  0  0  0  0  0  0  0  0  0  0
   12.1256   -0.4075   25.2436 H   0  0  0  0  0  0  0  0  0  0  0  0
   13.6210   -1.3825   23.0511 H   0  0  0  0  0  0  0  0  0  0  0  0
   12.1764   -2.5989   22.4809 H   0  0  0  0  0  0  0  0  0  0  0  0
   10.7909    0.1612   22.7602 H   0  0  0  0  0  0  0  0  0  0  0  0
    7.9285   -1.3405   21.6768 H   0  0  0  0  0  0  0  0  0  0  0  0
    8.8738   -0.2835   18.6495 H   0  0  0  0  0  0  0  0  0  0  0  0
 19 20  1  0  0  0  0
 20 22  2  0  0  0  0
 21 22  1  0  0  0  0
 18 19  1  0  0  0  0
 22 23  1  0  0  0  0
 18 23  2  0  0  0  0
 17 18  1  0  0  0  0
 23 24  1  0  0  0  0
 15 16  2  0  0  0  0
 15 17  1  0  0  0  0
 14 15  1  0  0  0  0
  8 14  2  3  0  0  0
  8 13  1  0  0  0  0
 12 13  2  0  0  0  0
  7  8  1  0  0  0  0
 10 12  1  0  0  0  0
  6  7  3  0  0  0  0
 10 11  1  0  0  0  0
  9 10  1  0  0  0  0
  5  6  1  0  0  0  0
  2  5  1  0  0  0  0
  2  3  2  0  0  0  0
  1  2  1  0  0  0  0
  2  4  2  0  0  0  0
  5 25  1  0  0  0  0
 10 26  1  0  0  0  0
 12 27  1  0  0  0  0
 13 28  1  0  0  0  0
 14 29  1  0  0  0  0
 17 30  1  0  0  0  0
 19 31  1  0  0  0  0
M  END
> <Chemgauss4>
-10.113615

$$$$
