stable:False satoms:11 tatoms:24 sratio:0.4583333333333333
  -OEChem-07092417413D

 24 25  0     1  0  0  0  0  0999 V2000
    6.4364   -4.7901   26.4572 Cl  0  0  0  0  0  0  0  0  0  0  0  0
    8.2668   -4.3290   26.0816 S   0  0  0  0  0  0  0  0  0  0  0  0
    9.0315   -5.5394   26.0062 O   0  0  0  0  0  0  0  0  0  0  0  0
    8.6561   -3.4689   27.1336 O   0  0  0  0  0  0  0  0  0  0  0  0
    8.1598   -3.6230   24.6172 N   0  0  0  0  0  0  0  0  0  0  0  0
    8.8899   -2.8642   24.1191 C   0  0  0  0  0  0  0  0  0  0  0  0
    9.3540   -1.9454   23.5325 C   0  0  0  0  0  0  0  0  0  0  0  0
   10.4937   -0.9185   23.4558 C   0  0  1  0  0  0  0  0  0  0  0  0
   10.5760   -0.2936   24.3712 H   0  0  0  0  0  0  0  0  0  0  0  0
   12.7225    0.2089   24.0771 H   0  0  0  0  0  0  0  0  0  0  0  0
   12.8133   -0.5307   23.3183 C   0  0  0  0  0  0  0  0  0  0  0  0
   13.5766   -0.8154   22.7187 H   0  0  0  0  0  0  0  0  0  0  0  0
   11.7487   -1.1659   23.1099 C   0  0  0  0  0  0  0  0  0  0  0  0
    9.5751   -0.8131   22.5782 C   0  0  3  0  0  0  0  0  0  0  0  0
    9.0229   -0.0317   21.4018 C   0  0  0  0  0  0  0  0  0  0  0  0
    9.6065    0.8983   20.9287 O   0  0  0  0  0  0  0  0  0  0  0  0
    7.8773   -0.5335   21.0733 N   0  0  0  0  0  0  0  0  0  0  0  0
    7.0530   -0.0219   20.1743 C   0  0  0  0  0  0  0  0  0  0  0  0
    7.1235    0.0538   18.8205 C   0  0  0  0  0  0  0  0  0  0  0  0
    6.5966    0.3692   17.8392 N   0  0  0  0  0  0  0  0  0  0  0  0
    5.5596    0.8917   18.1726 N   0  0  0  0  0  0  0  0  0  0  0  0
    5.3302    0.8936   19.3399 C   0  0  0  0  0  0  0  0  0  0  0  0
    5.7783    0.5131   20.4900 C   0  0  0  0  0  0  0  0  0  0  0  0
    5.3357    0.5657   21.4801 H   0  0  0  0  0  0  0  0  0  0  0  0
 20 21  2  0  0  0  0
 19 20  1  0  0  0  0
 21 22  1  0  0  0  0
 18 19  2  0  0  0  0
 22 23  2  0  0  0  0
 18 23  1  0  0  0  0
 17 18  1  0  0  0  0
 23 24  1  0  0  0  0
 15 16  2  0  0  0  0
 15 17  1  0  0  0  0
 14 15  1  0  0  0  0
  8 14  1  0  0  0  0
  7 14  1  0  0  0  0
 11 12  1  0  0  0  0
 11 13  2  0  0  0  0
  8 13  1  0  0  0  0
 10 11  1  0  0  0  0
  7  8  1  0  0  0  0
  8  9  1  0  0  0  0
  6  7  2  0  0  0  0
  5  6  1  0  0  0  0
  2  5  1  0  0  0  0
  2  3  2  0  0  0  0
  1  2  1  0  0  0  0
  2  4  2  0  0  0  0
M  END
> <Shapegauss>
-247.112366

$$$$
