stable:False satoms:11 tatoms:24 sratio:0.4583333333333333
  -OEChem-08062410353D

 31 32  0     1  0  0  0  0  0999 V2000
    6.4606   -5.5102   25.9017 Cl  0  0  0  0  0  0  0  0  0  0  0  0
    8.2728   -4.8984   25.6882 S   0  0  0  0  0  0  0  0  0  0  0  0
    9.1283   -6.0447   25.5896 O   0  0  0  0  0  0  0  0  0  0  0  0
    8.5266   -4.0885   26.8185 O   0  0  0  0  0  0  0  0  0  0  0  0
    8.2116   -4.1015   24.2685 N   0  0  0  0  0  0  0  0  0  0  0  0
    8.9150   -3.2612   23.8737 C   0  0  0  0  0  0  0  0  0  0  0  0
    9.3479   -2.2739   23.3821 C   0  0  0  0  0  0  0  0  0  0  0  0
   10.4111   -1.1676   23.4533 C   0  0  1  0  0  0  0  0  0  0  0  0
   10.3859   -0.6036   24.4106 H   0  0  0  0  0  0  0  0  0  0  0  0
   12.5042    0.0657   24.3034 H   0  0  0  0  0  0  0  0  0  0  0  0
   12.6997   -0.6113   23.5069 C   0  0  0  0  0  0  0  0  0  0  0  0
   13.5201   -0.8001   22.9462 H   0  0  0  0  0  0  0  0  0  0  0  0
   11.7012   -1.3028   23.1826 C   0  0  0  0  0  0  0  0  0  0  0  0
    9.5477   -1.0655   22.5211 C   0  0  3  0  0  0  0  0  0  0  0  0
    9.0187   -0.2444   21.3611 C   0  0  0  0  0  0  0  0  0  0  0  0
    9.5620    0.7544   20.9918 O   0  0  0  0  0  0  0  0  0  0  0  0
    7.9377   -0.8004   20.9201 N   0  0  0  0  0  0  0  0  0  0  0  0
    7.1394   -0.2860   19.9994 C   0  0  0  0  0  0  0  0  0  0  0  0
    7.2941   -0.1118   18.6618 C   0  0  0  0  0  0  0  0  0  0  0  0
    6.8117    0.2337   17.6678 N   0  0  0  0  0  0  0  0  0  0  0  0
    5.7190    0.6587   17.9594 N   0  0  0  0  0  0  0  0  0  0  0  0
    5.4130    0.5636   19.1050 C   0  0  0  0  0  0  0  0  0  0  0  0
    5.8105    0.1361   20.2572 C   0  0  0  0  0  0  0  0  0  0  0  0
    5.3003    0.0890   21.2146 H   0  0  0  0  0  0  0  0  0  0  0  0
    7.2992   -3.6924   24.2507 H   0  0  0  0  0  0  0  0  0  0  0  0
    9.8546   -3.7018   24.1729 H   0  0  0  0  0  0  0  0  0  0  0  0
   11.9376   -2.1625   22.5731 H   0  0  0  0  0  0  0  0  0  0  0  0
   10.1914   -1.6402   21.8390 H   0  0  0  0  0  0  0  0  0  0  0  0
    7.6857   -1.6883   21.3049 H   0  0  0  0  0  0  0  0  0  0  0  0
    8.2969   -0.4334   18.4227 H   0  0  0  0  0  0  0  0  0  0  0  0
    4.4325    0.9992   19.2282 H   0  0  0  0  0  0  0  0  0  0  0  0
 20 21  2  0  0  0  0
 19 20  1  0  0  0  0
 21 22  1  0  0  0  0
 18 19  2  0  0  0  0
 22 23  2  0  0  0  0
 18 23  1  0  0  0  0
 17 18  1  0  0  0  0
 23 24  1  0  0  0  0
 15 16  2  0  0  0  0
 15 17  1  0  0  0  0
 14 15  1  0  0  0  0
  8 14  1  0  0  0  0
  7 14  1  0  0  0  0
 11 12  1  0  0  0  0
 11 13  2  0  0  0  0
  8 13  1  0  0  0  0
 10 11  1  0  0  0  0
  7  8  1  0  0  0  0
  8  9  1  0  0  0  0
  6  7  2  0  0  0  0
  5  6  1  0  0  0  0
  2  5  1  0  0  0  0
  2  3  2  0  0  0  0
  1  2  1  0  0  0  0
  2  4  2  0  0  0  0
  5 25  1  0  0  0  0
  6 26  1  0  0  0  0
 13 27  1  0  0  0  0
 14 28  1  0  0  0  0
 17 29  1  0  0  0  0
 19 30  1  0  0  0  0
 22 31  1  0  0  0  0
M  END
> <Chemgauss4>
-10.592710

$$$$
