stable:False satoms:11 tatoms:24 sratio:0.4583333333333333
  -OEChem-08062410343D

 31 32  0     1  0  0  0  0  0999 V2000
   -6.3320   -5.2273  -25.8898 Cl  0  0  0  0  0  0  0  0  0  0  0  0
   -8.1442   -4.6155  -25.6762 S   0  0  0  0  0  0  0  0  0  0  0  0
   -8.9997   -5.7618  -25.5777 O   0  0  0  0  0  0  0  0  0  0  0  0
   -8.3980   -3.8056  -26.8066 O   0  0  0  0  0  0  0  0  0  0  0  0
   -8.0830   -3.8186  -24.2565 N   0  0  0  0  0  0  0  0  0  0  0  0
   -8.7864   -2.9783  -23.8617 C   0  0  0  0  0  0  0  0  0  0  0  0
   -9.2193   -1.9910  -23.3702 C   0  0  0  0  0  0  0  0  0  0  0  0
  -10.2825   -0.8847  -23.4414 C   0  0  1  0  0  0  0  0  0  0  0  0
  -10.2573   -0.3207  -24.3987 H   0  0  0  0  0  0  0  0  0  0  0  0
  -12.3756    0.3486  -24.2915 H   0  0  0  0  0  0  0  0  0  0  0  0
  -12.5711   -0.3284  -23.4950 C   0  0  0  0  0  0  0  0  0  0  0  0
  -13.3915   -0.5172  -22.9343 H   0  0  0  0  0  0  0  0  0  0  0  0
  -11.5726   -1.0199  -23.1707 C   0  0  0  0  0  0  0  0  0  0  0  0
   -9.4191   -0.7826  -22.5091 C   0  0  3  0  0  0  0  0  0  0  0  0
   -8.8901    0.0385  -21.3492 C   0  0  0  0  0  0  0  0  0  0  0  0
   -9.4334    1.0373  -20.9799 O   0  0  0  0  0  0  0  0  0  0  0  0
   -7.8091   -0.5175  -20.9081 N   0  0  0  0  0  0  0  0  0  0  0  0
   -7.0108   -0.0031  -19.9875 C   0  0  0  0  0  0  0  0  0  0  0  0
   -7.1655    0.1711  -18.6499 C   0  0  0  0  0  0  0  0  0  0  0  0
   -6.6831    0.5166  -17.6559 N   0  0  0  0  0  0  0  0  0  0  0  0
   -5.5904    0.9415  -17.9474 N   0  0  0  0  0  0  0  0  0  0  0  0
   -5.2844    0.8465  -19.0931 C   0  0  0  0  0  0  0  0  0  0  0  0
   -5.6819    0.4190  -20.2453 C   0  0  0  0  0  0  0  0  0  0  0  0
   -5.1717    0.3719  -21.2026 H   0  0  0  0  0  0  0  0  0  0  0  0
   -7.1706   -3.4095  -24.2388 H   0  0  0  0  0  0  0  0  0  0  0  0
   -9.7260   -3.4190  -24.1609 H   0  0  0  0  0  0  0  0  0  0  0  0
  -11.8090   -1.8796  -22.5611 H   0  0  0  0  0  0  0  0  0  0  0  0
  -10.0628   -1.3574  -21.8271 H   0  0  0  0  0  0  0  0  0  0  0  0
   -7.5571   -1.4054  -21.2930 H   0  0  0  0  0  0  0  0  0  0  0  0
   -8.1683   -0.1505  -18.4107 H   0  0  0  0  0  0  0  0  0  0  0  0
   -4.3039    1.2821  -19.2163 H   0  0  0  0  0  0  0  0  0  0  0  0
 20 21  2  0  0  0  0
 19 20  1  0  0  0  0
 21 22  1  0  0  0  0
 18 19  2  0  0  0  0
 22 23  2  0  0  0  0
 18 23  1  0  0  0  0
 17 18  1  0  0  0  0
 23 24  1  0  0  0  0
 15 16  2  0  0  0  0
 15 17  1  0  0  0  0
 14 15  1  0  0  0  0
  8 14  1  0  0  0  0
  7 14  1  0  0  0  0
 11 12  1  0  0  0  0
 11 13  2  0  0  0  0
  8 13  1  0  0  0  0
 10 11  1  0  0  0  0
  7  8  1  0  0  0  0
  8  9  1  0  0  0  0
  6  7  2  0  0  0  0
  5  6  1  0  0  0  0
  2  5  1  0  0  0  0
  2  3  2  0  0  0  0
  1  2  1  0  0  0  0
  2  4  2  0  0  0  0
  5 25  1  0  0  0  0
  6 26  1  0  0  0  0
 13 27  1  0  0  0  0
 14 28  1  0  0  0  0
 17 29  1  0  0  0  0
 19 30  1  0  0  0  0
 22 31  1  0  0  0  0
M  END
> <Chemgauss4>
-10.338079

$$$$
