stable:False satoms:19 tatoms:24 sratio:0.7916666666666666
  -OEChem-07092417303D

 24 24  0     1  0  0  0  0  0999 V2000
    7.5183   -3.1598   24.8137 C   0  3  0  0  0  0  0  0  0  0  0  0
    7.0879   -4.0269   25.2671 H   0  0  0  0  0  0  0  0  0  0  0  0
    6.7960   -2.2354   24.4961 N   0  3  0  0  0  0  0  0  0  0  0  0
   10.1326   -1.4519   24.1593 H   0  0  0  0  0  0  0  0  0  0  0  0
   10.8236   -1.3934   23.3325 C   0  0  0  0  0  0  0  0  0  0  0  0
    7.4606   -1.2362   23.7208 C   0  0  3  0  0  0  0  0  0  0  0  0
   11.5436   -0.6204   23.5329 H   0  0  0  0  0  0  0  0  0  0  0  0
    8.3717   -0.4598   23.1706 N   0  0  0  0  0  0  0  0  0  0  0  0
    8.6338   -3.1705   24.7040 H   0  0  0  0  0  0  0  0  0  0  0  0
    9.6138    0.9498   22.6335 H   0  0  0  0  0  0  0  0  0  0  0  0
   11.3853   -2.3235   23.2904 H   0  0  0  0  0  0  0  0  0  0  0  0
    9.1369    0.0801   22.2088 C   0  0  1  0  0  0  0  0  0  0  0  0
   10.1839   -1.0461   21.9770 C   0  0  2  0  0  0  0  0  0  0  0  0
    8.8146   -2.6905   22.0586 H   0  0  0  0  0  0  0  0  0  0  0  0
   10.9051   -0.6222   21.2825 H   0  0  0  0  0  0  0  0  0  0  0  0
    7.0144   -0.3036   23.1934 C   0  0  0  0  0  0  0  0  0  0  0  0
    9.6191   -2.4909   20.4416 H   0  0  0  0  0  0  0  0  0  0  0  0
    5.4734    0.4279   23.0004 S   0  0  0  0  0  0  0  0  0  0  0  0
    8.1959    0.3812   20.9904 C   0  0  0  0  0  0  0  0  0  0  0  0
    8.7646    0.8906   20.2139 H   0  0  0  0  0  0  0  0  0  0  0  0
    7.6701   -0.9204   19.5696 H   0  0  0  0  0  0  0  0  0  0  0  0
    7.4105    1.0577   21.3207 H   0  0  0  0  0  0  0  0  0  0  0  0
    7.5594   -0.7617   20.4898 O   0  0  0  0  0  0  0  0  0  0  0  0
    9.4690   -2.1641   21.4291 C   0  5  0  0  0  0  0  0  0  0  0  0
 21 23  1  0  0  0  0
 19 20  1  0  0  0  0
 17 24  1  0  0  0  0
 19 23  1  0  0  0  0
 19 22  1  0  0  0  0
 12 19  1  0  0  0  0
 13 15  1  0  0  0  0
 13 24  1  0  0  0  0
 14 24  1  0  0  0  0
 12 13  1  0  0  0  0
  5 13  1  0  0  0  0
 10 12  1  0  0  0  0
  8 12  1  0  0  0  0
 16 18  2  0  0  0  0
  8 16  1  0  0  0  0
  6  8  1  0  0  0  0
  6 16  1  0  0  0  0
  5 11  1  0  0  0  0
  5  7  1  0  0  0  0
  4  5  1  0  0  0  0
  3  6  1  0  0  0  0
  1  3  1  0  0  0  0
  1  9  1  0  0  0  0
  1  2  1  0  0  0  0
M  CHG  3   1   1   3   1  24  -1
M  END
> <Shapegauss>
-94.236351

$$$$
