stable:False satoms:19 tatoms:24 sratio:0.7916666666666666
  -OEChem-08052422413D

 27 27  0     1  0  0  0  0  0999 V2000
   -9.8008    3.3196  -23.4679 C   0  0  0  0  0  2  0  0  0  0  0  0
   -9.8008    3.3196  -23.4679 H   0  0  0  0  0  0  0  0  0  0  0  0
   -9.3442    2.7998  -22.4687 N   0  3  0  0  0  0  0  0  0  0  0  0
  -12.1670    1.1834  -23.5998 H   0  0  0  0  0  0  0  0  0  0  0  0
  -12.3572    0.2832  -24.1637 C   0  0  0  0  0  0  0  0  0  0  0  0
   -9.8308    1.4753  -22.2450 C   0  0  3  0  0  0  0  0  0  0  0  0
  -13.2853   -0.1470  -23.8325 H   0  0  0  0  0  0  0  0  0  0  0  0
  -10.5579    0.3767  -22.2497 N   0  0  0  0  0  0  0  0  0  0  0  0
  -11.7605   -1.1242  -21.9041 H   0  0  0  0  0  0  0  0  0  0  0  0
  -12.5082    0.5580  -25.2049 H   0  0  0  0  0  0  0  0  0  0  0  0
  -10.8947   -0.8972  -22.5065 C   0  0  1  0  0  0  0  0  0  0  0  0
  -11.2922   -0.8161  -24.0077 C   0  0  2  0  0  0  0  0  0  0  0  0
   -9.3451   -1.2851  -24.5669 H   0  0  0  0  0  0  0  0  0  0  0  0
  -11.6844   -1.8010  -24.2493 H   0  0  0  0  0  0  0  0  0  0  0  0
   -9.5032    0.7018  -21.4442 C   0  0  0  0  0  0  0  0  0  0  0  0
  -10.3226   -0.4278  -25.8062 H   0  0  0  0  0  0  0  0  0  0  0  0
   -8.3738    0.6132  -20.1543 S   0  0  0  0  0  0  0  0  0  0  0  0
   -9.6334   -1.7759  -22.1939 C   0  0  0  0  0  0  0  0  0  0  0  0
   -9.8879   -2.8275  -22.3177 H   0  0  0  0  0  0  0  0  0  0  0  0
   -8.1164   -2.1302  -23.4439 H   0  0  0  0  0  0  0  0  0  0  0  0
   -9.3575   -1.6243  -21.1525 H   0  0  0  0  0  0  0  0  0  0  0  0
   -8.5150   -1.4280  -22.9621 O   0  0  0  0  0  0  0  0  0  0  0  0
  -10.0946   -0.4971  -24.7324 C   0  0  0  0  0  0  0  0  0  0  0  0
   -9.5862    3.3639  -21.6792 H   0  0  0  0  0  0  0  0  0  0  0  0
   -9.1348    1.0595  -22.9885 H   0  0  0  0  0  0  0  0  0  0  0  0
   -9.6980    0.4661  -24.3789 H   0  0  0  0  0  0  0  0  0  0  0  0
   -8.3490    2.7610  -22.5582 H   0  0  0  0  0  0  0  0  0  0  0  0
 20 22  1  0  0  0  0
 18 19  1  0  0  0  0
 16 23  1  0  0  0  0
 18 22  1  0  0  0  0
 18 21  1  0  0  0  0
 11 18  1  0  0  0  0
 12 14  1  0  0  0  0
 12 23  1  0  0  0  0
 13 23  1  0  0  0  0
 11 12  1  0  0  0  0
  5 12  1  0  0  0  0
  9 11  1  0  0  0  0
  8 11  1  0  0  0  0
 15 17  2  0  0  0  0
  8 15  1  0  0  0  0
  6  8  1  0  0  0  0
  6 15  1  0  0  0  0
  5 10  1  0  0  0  0
  5  7  1  0  0  0  0
  4  5  1  0  0  0  0
  3  6  1  0  0  0  0
  1  3  1  0  0  0  0
  1  2  1  0  0  0  0
  3 24  1  0  0  0  0
  6 25  1  0  0  0  0
 23 26  1  0  0  0  0
  3 27  1  0  0  0  0
M  CHG  1   3   1
M  END
> <Chemgauss4>
-6.343644

$$$$
