stable:False satoms:19 tatoms:24 sratio:0.7916666666666666
  -OEChem-08052422413D

 27 27  0     1  0  0  0  0  0999 V2000
   10.0669    3.5543   23.5296 C   0  0  0  0  0  2  0  0  0  0  0  0
   10.0669    3.5543   23.5296 H   0  0  0  0  0  0  0  0  0  0  0  0
    9.6103    3.0345   22.5304 N   0  3  0  0  0  0  0  0  0  0  0  0
   12.4330    1.4181   23.6614 H   0  0  0  0  0  0  0  0  0  0  0  0
   12.6233    0.5179   24.2254 C   0  0  0  0  0  0  0  0  0  0  0  0
   10.0968    1.7100   22.3067 C   0  0  3  0  0  0  0  0  0  0  0  0
   13.5513    0.0877   23.8941 H   0  0  0  0  0  0  0  0  0  0  0  0
   10.8239    0.6114   22.3114 N   0  0  0  0  0  0  0  0  0  0  0  0
   12.0265   -0.8895   21.9657 H   0  0  0  0  0  0  0  0  0  0  0  0
   12.7742    0.7927   25.2665 H   0  0  0  0  0  0  0  0  0  0  0  0
   11.1607   -0.6625   22.5681 C   0  0  1  0  0  0  0  0  0  0  0  0
   11.5582   -0.5815   24.0694 C   0  0  2  0  0  0  0  0  0  0  0  0
    9.6112   -1.0504   24.6286 H   0  0  0  0  0  0  0  0  0  0  0  0
   11.9505   -1.5663   24.3109 H   0  0  0  0  0  0  0  0  0  0  0  0
    9.7692    0.9365   21.5058 C   0  0  0  0  0  0  0  0  0  0  0  0
   10.5886   -0.1931   25.8679 H   0  0  0  0  0  0  0  0  0  0  0  0
    8.6398    0.8479   20.2159 S   0  0  0  0  0  0  0  0  0  0  0  0
    9.8994   -1.5412   22.2555 C   0  0  0  0  0  0  0  0  0  0  0  0
   10.1539   -2.5928   22.3793 H   0  0  0  0  0  0  0  0  0  0  0  0
    8.3824   -1.8955   23.5055 H   0  0  0  0  0  0  0  0  0  0  0  0
    9.6235   -1.3896   21.2142 H   0  0  0  0  0  0  0  0  0  0  0  0
    8.7810   -1.1933   23.0237 O   0  0  0  0  0  0  0  0  0  0  0  0
   10.3606   -0.2624   24.7940 C   0  0  0  0  0  0  0  0  0  0  0  0
    9.8522    3.5986   21.7409 H   0  0  0  0  0  0  0  0  0  0  0  0
    9.4009    1.2942   23.0501 H   0  0  0  0  0  0  0  0  0  0  0  0
    9.9640    0.7008   24.4406 H   0  0  0  0  0  0  0  0  0  0  0  0
    8.6150    2.9957   22.6198 H   0  0  0  0  0  0  0  0  0  0  0  0
 20 22  1  0  0  0  0
 18 19  1  0  0  0  0
 16 23  1  0  0  0  0
 18 22  1  0  0  0  0
 18 21  1  0  0  0  0
 11 18  1  0  0  0  0
 12 14  1  0  0  0  0
 12 23  1  0  0  0  0
 13 23  1  0  0  0  0
 11 12  1  0  0  0  0
  5 12  1  0  0  0  0
  9 11  1  0  0  0  0
  8 11  1  0  0  0  0
 15 17  2  0  0  0  0
  8 15  1  0  0  0  0
  6  8  1  0  0  0  0
  6 15  1  0  0  0  0
  5 10  1  0  0  0  0
  5  7  1  0  0  0  0
  4  5  1  0  0  0  0
  3  6  1  0  0  0  0
  1  3  1  0  0  0  0
  1  2  1  0  0  0  0
  3 24  1  0  0  0  0
  6 25  1  0  0  0  0
 23 26  1  0  0  0  0
  3 27  1  0  0  0  0
M  CHG  1   3   1
M  END
> <Chemgauss4>
-6.055013

$$$$
