MODEL 1
REMARK VINA RESULT:    -6.578      0.000      0.000
REMARK INTER + INTRA:         -11.012
REMARK INTER:                 -10.039
REMARK INTRA:                  -0.973
REMARK UNBOUND:                -0.973
REMARK  9 active torsions:
REMARK  status: ('A' for Active; 'I' for Inactive)
REMARK    1  A    between atoms: S_2  and  N_5 
REMARK    2  A    between atoms: C_7  and  C_8 
REMARK    3  A    between atoms: C_8  and  C_9 
REMARK    4  A    between atoms: C_9  and  C_15 
REMARK    5  A    between atoms: C_9  and  C_10 
REMARK    6  A    between atoms: C_10  and  C_11 
REMARK    7  A    between atoms: C_11  and  C_12 
REMARK    8  A    between atoms: C_15  and  C_16 
REMARK       I    between atoms: C_16  and  N_18 
REMARK    9  A    between atoms: N_18  and  C_20 
ROOT
HETATM    1  C   UNL     1       9.077  -1.267  23.737  1.00  0.00     0.109 C 
ENDROOT
BRANCH   1   2
HETATM    2  C   UNL     1       8.405  -2.357  23.727  1.00  0.00     0.011 C 
BRANCH   2   3
HETATM    3  C   UNL     1       8.025  -3.397  23.252  1.00  0.00     0.097 C 
HETATM    4  N   UNL     1       7.858  -4.283  22.433  1.00  0.00    -0.296 N 
ATOM      5  HN  UNL     1       8.666  -4.539  21.865  1.00  0.00     0.177 HD
BRANCH   4   6
HETATM    6  S   UNL     1       6.507  -5.081  22.159  1.00  0.00     0.226 S 
HETATM    7  C   UNL     1       5.707  -5.270  23.804  1.00  0.00     0.186 C 
HETATM    8  O   UNL     1       5.572  -4.366  21.332  1.00  0.00    -0.206 OA
HETATM    9  O   UNL     1       6.758  -6.393  21.677  1.00  0.00    -0.206 OA
ENDBRANCH   4   6
ENDBRANCH   2   3
ENDBRANCH   1   2
BRANCH   1  10
HETATM   10  C   UNL     1       8.658  -0.852  22.633  1.00  0.00    -0.071 C 
BRANCH  10  11
HETATM   11  C   UNL     1       8.241  -0.375  21.503  1.00  0.00     0.289 C 
HETATM   12  O   UNL     1       9.081   0.047  20.857  1.00  0.00    -0.259 OA
HETATM   13  N   UNL     1       6.915  -0.500  21.349  1.00  0.00    -0.315 N 
ATOM     14  HN  UNL     1       6.329  -0.928  22.066  1.00  0.00     0.170 HD
BRANCH  13  15
HETATM   15  C   UNL     1       6.427  -0.058  20.261  1.00  0.00     0.060 A 
HETATM   16  C   UNL     1       6.231  -0.530  19.043  1.00  0.00     0.117 A 
HETATM   17  N   UNL     1       5.830  -0.453  17.903  1.00  0.00    -0.373 N 
HETATM   18  C   UNL     1       5.308   0.825  18.029  1.00  0.00     0.088 A 
ATOM     19  HN  UNL     1       5.865  -1.105  17.118  1.00  0.00     0.164 HD
HETATM   20  C   UNL     1       5.316   1.530  18.971  1.00  0.00     0.030 A 
HETATM   21  C   UNL     1       5.801   1.373  20.269  1.00  0.00    -0.016 A 
HETATM   22  C   UNL     1       5.782   2.032  21.094  1.00  0.00     0.026 C 
ENDBRANCH  13  15
ENDBRANCH  10  11
ENDBRANCH   1  10
BRANCH   1  23
HETATM   23  C   UNL     1       9.249  -0.139  24.857  1.00  0.00    -0.006 C 
BRANCH  23  24
HETATM   24  C   UNL     1      10.159   0.280  25.283  1.00  0.00    -0.002 C 
BRANCH  24  25
HETATM   25  C   UNL     1      11.494   0.233  24.706  1.00  0.00    -0.001 C 
HETATM   26  C   UNL     1      11.772   1.364  24.009  1.00  0.00    -0.010 C 
HETATM   27  C   UNL     1      11.261   2.251  23.821  1.00  0.00     0.011 C 
ENDBRANCH  24  25
ENDBRANCH  23  24
ENDBRANCH   1  23
TORSDOF 9
ENDMDL
MODEL 2
REMARK VINA RESULT:    -6.554      3.520      5.881
REMARK INTER + INTRA:         -10.976
REMARK INTER:                  -9.784
REMARK INTRA:                  -1.192
REMARK UNBOUND:                -0.973
REMARK  9 active torsions:
REMARK  status: ('A' for Active; 'I' for Inactive)
REMARK    1  A    between atoms: S_2  and  N_5 
REMARK    2  A    between atoms: C_7  and  C_8 
REMARK    3  A    between atoms: C_8  and  C_9 
REMARK    4  A    between atoms: C_9  and  C_15 
REMARK    5  A    between atoms: C_9  and  C_10 
REMARK    6  A    between atoms: C_10  and  C_11 
REMARK    7  A    between atoms: C_11  and  C_12 
REMARK    8  A    between atoms: C_15  and  C_16 
REMARK       I    between atoms: C_16  and  N_18 
REMARK    9  A    between atoms: N_18  and  C_20 
ROOT
HETATM    1  C   UNL     1      10.063  -0.145  21.785  1.00  0.00     0.109 C 
ENDROOT
BRANCH   1   2
HETATM    2  C   UNL     1       8.964   0.240  21.252  1.00  0.00     0.011 C 
BRANCH   2   3
HETATM    3  C   UNL     1       8.127   0.271  20.385  1.00  0.00     0.097 C 
HETATM    4  N   UNL     1       7.274   0.717  19.640  1.00  0.00    -0.296 N 
ATOM      5  HN  UNL     1       7.459   1.632  19.229  1.00  0.00     0.177 HD
BRANCH   4   6
HETATM    6  S   UNL     1       5.899   0.017  19.242  1.00  0.00     0.226 S 
HETATM    7  C   UNL     1       4.609   1.308  19.467  1.00  0.00     0.186 C 
HETATM    8  O   UNL     1       5.835  -0.385  17.862  1.00  0.00    -0.206 OA
HETATM    9  O   UNL     1       5.571  -1.043  20.127  1.00  0.00    -0.206 OA
ENDBRANCH   4   6
ENDBRANCH   2   3
ENDBRANCH   1   2
BRANCH   1  10
HETATM   10  C   UNL     1      10.218   0.870  22.500  1.00  0.00    -0.071 C 
BRANCH  10  11
HETATM   11  C   UNL     1      10.373   1.890  23.283  1.00  0.00     0.289 C 
HETATM   12  O   UNL     1      10.244   1.634  24.386  1.00  0.00    -0.259 OA
HETATM   13  N   UNL     1      10.664   3.014  22.612  1.00  0.00    -0.315 N 
ATOM     14  HN  UNL     1      10.744   3.027  21.595  1.00  0.00     0.170 HD
BRANCH  13  15
HETATM   15  C   UNL     1      10.836   4.062  23.310  1.00  0.00     0.060 A 
HETATM   16  C   UNL     1      11.870   4.738  23.777  1.00  0.00     0.117 A 
HETATM   17  N   UNL     1      12.384   5.663  24.367  1.00  0.00    -0.373 N 
HETATM   18  C   UNL     1      11.193   6.308  24.668  1.00  0.00     0.088 A 
ATOM     19  HN  UNL     1      13.357   5.889  24.573  1.00  0.00     0.164 HD
HETATM   20  C   UNL     1      10.095   5.978  24.408  1.00  0.00     0.030 A 
HETATM   21  C   UNL     1       9.572   4.887  23.715  1.00  0.00    -0.016 A 
HETATM   22  C   UNL     1       8.571   4.628  23.494  1.00  0.00     0.026 C 
ENDBRANCH  13  15
ENDBRANCH  10  11
ENDBRANCH   1  10
BRANCH   1  23
HETATM   23  C   UNL     1      10.476  -1.526  22.479  1.00  0.00    -0.006 C 
BRANCH  23  24
HETATM   24  C   UNL     1      11.277  -1.732  23.187  1.00  0.00    -0.002 C 
BRANCH  24  25
HETATM   25  C   UNL     1      12.706  -1.725  22.914  1.00  0.00    -0.001 C 
HETATM   26  C   UNL     1      13.368  -0.899  23.763  1.00  0.00    -0.010 C 
HETATM   27  C   UNL     1      13.087  -0.301  24.568  1.00  0.00     0.011 C 
ENDBRANCH  24  25
ENDBRANCH  23  24
ENDBRANCH   1  23
TORSDOF 9
ENDMDL
MODEL 3
REMARK VINA RESULT:    -6.549      2.833      6.112
REMARK INTER + INTRA:         -10.968
REMARK INTER:                  -9.606
REMARK INTRA:                  -1.362
REMARK UNBOUND:                -0.973
REMARK  9 active torsions:
REMARK  status: ('A' for Active; 'I' for Inactive)
REMARK    1  A    between atoms: S_2  and  N_5 
REMARK    2  A    between atoms: C_7  and  C_8 
REMARK    3  A    between atoms: C_8  and  C_9 
REMARK    4  A    between atoms: C_9  and  C_15 
REMARK    5  A    between atoms: C_9  and  C_10 
REMARK    6  A    between atoms: C_10  and  C_11 
REMARK    7  A    between atoms: C_11  and  C_12 
REMARK    8  A    between atoms: C_15  and  C_16 
REMARK       I    between atoms: C_16  and  N_18 
REMARK    9  A    between atoms: N_18  and  C_20 
ROOT
HETATM    1  C   UNL     1       9.937   0.459  24.755  1.00  0.00     0.109 C 
ENDROOT
BRANCH   1   2
HETATM    2  C   UNL     1       9.177   0.843  23.798  1.00  0.00     0.011 C 
BRANCH   2   3
HETATM    3  C   UNL     1       8.787   0.861  22.658  1.00  0.00     0.097 C 
HETATM    4  N   UNL     1       8.171   1.214  21.669  1.00  0.00    -0.296 N 
ATOM      5  HN  UNL     1       8.108   2.219  21.504  1.00  0.00     0.177 HD
BRANCH   4   6
HETATM    6  S   UNL     1       7.454   0.268  20.607  1.00  0.00     0.226 S 
HETATM    7  C   UNL     1       5.878   1.115  20.182  1.00  0.00     0.186 C 
HETATM    8  O   UNL     1       8.183   0.125  19.376  1.00  0.00    -0.206 OA
HETATM    9  O   UNL     1       7.100  -0.986  21.171  1.00  0.00    -0.206 OA
ENDBRANCH   4   6
ENDBRANCH   2   3
ENDBRANCH   1   2
BRANCH   1  10
HETATM   10  C   UNL     1       9.490  -0.709  24.809  1.00  0.00    -0.071 C 
BRANCH  10  11
HETATM   11  C   UNL     1       9.026  -1.913  24.917  1.00  0.00     0.289 C 
HETATM   12  O   UNL     1       9.130  -2.521  23.958  1.00  0.00    -0.259 OA
HETATM   13  N   UNL     1       8.543  -2.171  26.140  1.00  0.00    -0.315 N 
ATOM     14  HN  UNL     1       8.553  -1.469  26.881  1.00  0.00     0.170 HD
BRANCH  13  15
HETATM   15  C   UNL     1       8.072  -3.337  26.329  1.00  0.00     0.060 A 
HETATM   16  C   UNL     1       8.561  -4.524  26.640  1.00  0.00     0.117 A 
HETATM   17  N   UNL     1       8.461  -5.702  26.904  1.00  0.00    -0.373 N 
HETATM   18  C   UNL     1       7.076  -5.739  26.833  1.00  0.00     0.088 A 
ATOM     19  HN  UNL     1       9.156  -6.420  27.108  1.00  0.00     0.164 HD
HETATM   20  C   UNL     1       6.332  -4.865  26.577  1.00  0.00     0.030 A 
HETATM   21  C   UNL     1       6.521  -3.516  26.280  1.00  0.00    -0.016 A 
HETATM   22  C   UNL     1       5.820  -2.755  26.061  1.00  0.00     0.026 C 
ENDBRANCH  13  15
ENDBRANCH  10  11
ENDBRANCH   1  10
BRANCH   1  23
HETATM   23  C   UNL     1      11.517   0.585  24.966  1.00  0.00    -0.006 C 
BRANCH  23  24
HETATM   24  C   UNL     1      12.323   0.468  24.244  1.00  0.00    -0.002 C 
BRANCH  24  25
HETATM   25  C   UNL     1      13.292  -0.616  24.187  1.00  0.00    -0.001 C 
HETATM   26  C   UNL     1      12.960  -1.528  23.238  1.00  0.00    -0.010 C 
HETATM   27  C   UNL     1      12.193  -1.607  22.538  1.00  0.00     0.011 C 
ENDBRANCH  24  25
ENDBRANCH  23  24
ENDBRANCH   1  23
TORSDOF 9
ENDMDL
MODEL 4
REMARK VINA RESULT:    -6.446     14.144     16.214
REMARK INTER + INTRA:         -10.811
REMARK INTER:                  -9.519
REMARK INTRA:                  -1.292
REMARK UNBOUND:                -0.973
REMARK  9 active torsions:
REMARK  status: ('A' for Active; 'I' for Inactive)
REMARK    1  A    between atoms: S_2  and  N_5 
REMARK    2  A    between atoms: C_7  and  C_8 
REMARK    3  A    between atoms: C_8  and  C_9 
REMARK    4  A    between atoms: C_9  and  C_15 
REMARK    5  A    between atoms: C_9  and  C_10 
REMARK    6  A    between atoms: C_10  and  C_11 
REMARK    7  A    between atoms: C_11  and  C_12 
REMARK    8  A    between atoms: C_15  and  C_16 
REMARK       I    between atoms: C_16  and  N_18 
REMARK    9  A    between atoms: N_18  and  C_20 
ROOT
HETATM    1  C   UNL     1      23.952  -1.661  23.776  1.00  0.00     0.109 C 
ENDROOT
BRANCH   1   2
HETATM    2  C   UNL     1      23.689  -2.888  24.028  1.00  0.00     0.011 C 
BRANCH   2   3
HETATM    3  C   UNL     1      23.972  -4.035  24.268  1.00  0.00     0.097 C 
HETATM    4  N   UNL     1      23.863  -5.245  24.337  1.00  0.00    -0.296 N 
ATOM      5  HN  UNL     1      23.457  -5.715  23.528  1.00  0.00     0.177 HD
BRANCH   4   6
HETATM    6  S   UNL     1      24.288  -6.169  25.563  1.00  0.00     0.226 S 
HETATM    7  C   UNL     1      26.127  -6.186  25.550  1.00  0.00     0.186 C 
HETATM    8  O   UNL     1      23.896  -5.645  26.844  1.00  0.00    -0.206 OA
HETATM    9  O   UNL     1      23.869  -7.514  25.381  1.00  0.00    -0.206 OA
ENDBRANCH   4   6
ENDBRANCH   2   3
ENDBRANCH   1   2
BRANCH   1  10
HETATM   10  C   UNL     1      23.589  -1.699  22.578  1.00  0.00    -0.071 C 
BRANCH  10  11
HETATM   11  C   UNL     1      23.164  -1.734  21.356  1.00  0.00     0.289 C 
HETATM   12  O   UNL     1      22.031  -1.834  21.277  1.00  0.00    -0.259 OA
HETATM   13  N   UNL     1      24.157  -1.631  20.462  1.00  0.00    -0.315 N 
ATOM     14  HN  UNL     1      25.132  -1.539  20.750  1.00  0.00     0.170 HD
BRANCH  13  15
HETATM   15  C   UNL     1      23.821  -1.654  19.236  1.00  0.00     0.060 A 
HETATM   16  C   UNL     1      23.251  -0.817  18.388  1.00  0.00     0.117 A 
HETATM   17  N   UNL     1      22.843  -0.491  17.295  1.00  0.00    -0.373 N 
HETATM   18  C   UNL     1      23.225  -1.662  16.655  1.00  0.00     0.088 A 
ATOM     19  HN  UNL     1      22.378   0.353  16.959  1.00  0.00     0.164 HD
HETATM   20  C   UNL     1      23.750  -2.609  17.113  1.00  0.00     0.030 A 
HETATM   21  C   UNL     1      24.197  -2.917  18.397  1.00  0.00    -0.016 A 
HETATM   22  C   UNL     1      24.675  -3.783  18.770  1.00  0.00     0.026 C 
ENDBRANCH  13  15
ENDBRANCH  10  11
ENDBRANCH   1  10
BRANCH   1  23
HETATM   23  C   UNL     1      23.571  -0.315  24.551  1.00  0.00    -0.006 C 
BRANCH  23  24
HETATM   24  C   UNL     1      22.603   0.022  24.917  1.00  0.00    -0.002 C 
BRANCH  24  25
HETATM   25  C   UNL     1      21.911  -0.440  26.110  1.00  0.00    -0.001 C 
HETATM   26  C   UNL     1      20.810  -1.168  25.792  1.00  0.00    -0.010 C 
HETATM   27  C   UNL     1      20.375  -1.484  24.901  1.00  0.00     0.011 C 
ENDBRANCH  24  25
ENDBRANCH  23  24
ENDBRANCH   1  23
TORSDOF 9
ENDMDL
MODEL 5
REMARK VINA RESULT:    -6.419      4.006      6.521
REMARK INTER + INTRA:         -10.769
REMARK INTER:                  -9.780
REMARK INTRA:                  -0.989
REMARK UNBOUND:                -0.973
REMARK  9 active torsions:
REMARK  status: ('A' for Active; 'I' for Inactive)
REMARK    1  A    between atoms: S_2  and  N_5 
REMARK    2  A    between atoms: C_7  and  C_8 
REMARK    3  A    between atoms: C_8  and  C_9 
REMARK    4  A    between atoms: C_9  and  C_15 
REMARK    5  A    between atoms: C_9  and  C_10 
REMARK    6  A    between atoms: C_10  and  C_11 
REMARK    7  A    between atoms: C_11  and  C_12 
REMARK    8  A    between atoms: C_15  and  C_16 
REMARK       I    between atoms: C_16  and  N_18 
REMARK    9  A    between atoms: N_18  and  C_20 
ROOT
HETATM    1  C   UNL     1       7.340  -4.722  24.772  1.00  0.00     0.109 C 
ENDROOT
BRANCH   1   2
HETATM    2  C   UNL     1       7.679  -5.261  25.883  1.00  0.00     0.011 C 
BRANCH   2   3
HETATM    3  C   UNL     1       7.512  -5.581  27.034  1.00  0.00     0.097 C 
HETATM    4  N   UNL     1       7.512  -6.271  28.036  1.00  0.00    -0.296 N 
ATOM      5  HN  UNL     1       8.341  -6.843  28.198  1.00  0.00     0.177 HD
BRANCH   4   6
HETATM    6  S   UNL     1       6.350  -6.372  29.121  1.00  0.00     0.226 S 
HETATM    7  C   UNL     1       4.793  -6.539  28.157  1.00  0.00     0.186 C 
HETATM    8  O   UNL     1       6.439  -7.541  29.955  1.00  0.00    -0.206 OA
HETATM    9  O   UNL     1       6.230  -5.178  29.880  1.00  0.00    -0.206 OA
ENDBRANCH   4   6
ENDBRANCH   2   3
ENDBRANCH   1   2
BRANCH   1  10
HETATM   10  C   UNL     1       7.935  -3.639  24.972  1.00  0.00    -0.071 C 
BRANCH  10  11
HETATM   11  C   UNL     1       8.595  -2.543  25.170  1.00  0.00     0.289 C 
HETATM   12  O   UNL     1       8.618  -2.225  26.265  1.00  0.00    -0.259 OA
HETATM   13  N   UNL     1       9.111  -2.041  24.040  1.00  0.00    -0.315 N 
ATOM     14  HN  UNL     1       8.976  -2.499  23.138  1.00  0.00     0.170 HD
BRANCH  13  15
HETATM   15  C   UNL     1       9.779  -0.965  24.151  1.00  0.00     0.060 A 
HETATM   16  C   UNL     1       9.621   0.197  24.758  1.00  0.00     0.117 A 
HETATM   17  N   UNL     1       9.981   1.306  25.088  1.00  0.00    -0.373 N 
HETATM   18  C   UNL     1      11.223   1.232  24.474  1.00  0.00     0.088 A 
ATOM     19  HN  UNL     1       9.526   2.041  25.629  1.00  0.00     0.164 HD
HETATM   20  C   UNL     1      11.678   0.347  23.847  1.00  0.00     0.030 A 
HETATM   21  C   UNL     1      11.201  -0.917  23.506  1.00  0.00    -0.016 A 
HETATM   22  C   UNL     1      11.649  -1.692  22.943  1.00  0.00     0.026 C 
ENDBRANCH  13  15
ENDBRANCH  10  11
ENDBRANCH   1  10
BRANCH   1  23
HETATM   23  C   UNL     1       7.413  -5.262  23.269  1.00  0.00    -0.006 C 
BRANCH  23  24
HETATM   24  C   UNL     1       7.194  -4.744  22.337  1.00  0.00    -0.002 C 
BRANCH  24  25
HETATM   25  C   UNL     1       5.879  -4.412  21.811  1.00  0.00    -0.001 C 
HETATM   26  C   UNL     1       5.739  -3.073  21.635  1.00  0.00    -0.010 C 
HETATM   27  C   UNL     1       6.364  -2.250  21.766  1.00  0.00     0.011 C 
ENDBRANCH  24  25
ENDBRANCH  23  24
ENDBRANCH   1  23
TORSDOF 9
ENDMDL
MODEL 6
REMARK VINA RESULT:    -6.387      2.635      6.306
REMARK INTER + INTRA:         -10.721
REMARK INTER:                  -9.661
REMARK INTRA:                  -1.060
REMARK UNBOUND:                -0.973
REMARK  9 active torsions:
REMARK  status: ('A' for Active; 'I' for Inactive)
REMARK    1  A    between atoms: S_2  and  N_5 
REMARK    2  A    between atoms: C_7  and  C_8 
REMARK    3  A    between atoms: C_8  and  C_9 
REMARK    4  A    between atoms: C_9  and  C_15 
REMARK    5  A    between atoms: C_9  and  C_10 
REMARK    6  A    between atoms: C_10  and  C_11 
REMARK    7  A    between atoms: C_11  and  C_12 
REMARK    8  A    between atoms: C_15  and  C_16 
REMARK       I    between atoms: C_16  and  N_18 
REMARK    9  A    between atoms: N_18  and  C_20 
ROOT
HETATM    1  C   UNL     1       8.388  -1.575  22.823  1.00  0.00     0.109 C 
ENDROOT
BRANCH   1   2
HETATM    2  C   UNL     1       7.499  -1.518  21.903  1.00  0.00     0.011 C 
BRANCH   2   3
HETATM    3  C   UNL     1       6.808  -0.956  21.090  1.00  0.00     0.097 C 
HETATM    4  N   UNL     1       5.970  -0.798  20.222  1.00  0.00    -0.296 N 
ATOM      5  HN  UNL     1       5.090  -1.301  20.338  1.00  0.00     0.177 HD
BRANCH   4   6
HETATM    6  S   UNL     1       6.106   0.116  18.924  1.00  0.00     0.226 S 
HETATM    7  C   UNL     1       4.962   1.530  19.198  1.00  0.00     0.186 C 
HETATM    8  O   UNL     1       7.417   0.682  18.752  1.00  0.00    -0.206 OA
HETATM    9  O   UNL     1       5.652  -0.553  17.757  1.00  0.00    -0.206 OA
ENDBRANCH   4   6
ENDBRANCH   2   3
ENDBRANCH   1   2
BRANCH   1  10
HETATM   10  C   UNL     1       7.722  -2.298  23.597  1.00  0.00    -0.071 C 
BRANCH  10  11
HETATM   11  C   UNL     1       7.060  -3.027  24.438  1.00  0.00     0.289 C 
HETATM   12  O   UNL     1       6.460  -2.414  25.188  1.00  0.00    -0.259 OA
HETATM   13  N   UNL     1       7.223  -4.340  24.221  1.00  0.00    -0.315 N 
ATOM     14  HN  UNL     1       7.815  -4.690  23.468  1.00  0.00     0.170 HD
BRANCH  13  15
HETATM   15  C   UNL     1       6.601  -5.125  25.004  1.00  0.00     0.060 A 
HETATM   16  C   UNL     1       6.734  -5.527  26.255  1.00  0.00     0.117 A 
HETATM   17  N   UNL     1       6.389  -6.147  27.237  1.00  0.00    -0.373 N 
HETATM   18  C   UNL     1       5.238  -6.672  26.667  1.00  0.00     0.088 A 
ATOM     19  HN  UNL     1       6.802  -6.248  28.164  1.00  0.00     0.164 HD
HETATM   20  C   UNL     1       4.827  -6.521  25.576  1.00  0.00     0.030 A 
HETATM   21  C   UNL     1       5.282  -5.783  24.485  1.00  0.00    -0.016 A 
HETATM   22  C   UNL     1       4.876  -5.666  23.515  1.00  0.00     0.026 C 
ENDBRANCH  13  15
ENDBRANCH  10  11
ENDBRANCH   1  10
BRANCH   1  23
HETATM   23  C   UNL     1       9.950  -1.912  22.765  1.00  0.00    -0.006 C 
BRANCH  23  24
HETATM   24  C   UNL     1      10.804  -1.237  22.738  1.00  0.00    -0.002 C 
BRANCH  24  25
HETATM   25  C   UNL     1      10.782   0.204  22.937  1.00  0.00    -0.001 C 
HETATM   26  C   UNL     1      11.685   0.588  23.875  1.00  0.00    -0.010 C 
HETATM   27  C   UNL     1      12.394   0.091  24.454  1.00  0.00     0.011 C 
ENDBRANCH  24  25
ENDBRANCH  23  24
ENDBRANCH   1  23
TORSDOF 9
ENDMDL
MODEL 7
REMARK VINA RESULT:    -6.223      2.431      2.617
REMARK INTER + INTRA:         -10.469
REMARK INTER:                  -9.350
REMARK INTRA:                  -1.119
REMARK UNBOUND:                -0.973
REMARK  9 active torsions:
REMARK  status: ('A' for Active; 'I' for Inactive)
REMARK    1  A    between atoms: S_2  and  N_5 
REMARK    2  A    between atoms: C_7  and  C_8 
REMARK    3  A    between atoms: C_8  and  C_9 
REMARK    4  A    between atoms: C_9  and  C_15 
REMARK    5  A    between atoms: C_9  and  C_10 
REMARK    6  A    between atoms: C_10  and  C_11 
REMARK    7  A    between atoms: C_11  and  C_12 
REMARK    8  A    between atoms: C_15  and  C_16 
REMARK       I    between atoms: C_16  and  N_18 
REMARK    9  A    between atoms: N_18  and  C_20 
ROOT
HETATM    1  C   UNL     1       9.611  -2.262  23.338  1.00  0.00     0.109 C 
ENDROOT
BRANCH   1   2
HETATM    2  C   UNL     1       9.051  -2.313  24.489  1.00  0.00     0.011 C 
BRANCH   2   3
HETATM    3  C   UNL     1       8.552  -2.873  25.432  1.00  0.00     0.097 C 
HETATM    4  N   UNL     1       8.438  -3.626  26.381  1.00  0.00    -0.296 N 
ATOM      5  HN  UNL     1       9.239  -3.694  27.010  1.00  0.00     0.177 HD
BRANCH   4   6
HETATM    6  S   UNL     1       7.167  -4.517  26.742  1.00  0.00     0.226 S 
HETATM    7  C   UNL     1       5.733  -3.368  26.690  1.00  0.00     0.186 C 
HETATM    8  O   UNL     1       6.895  -5.551  25.779  1.00  0.00    -0.206 OA
HETATM    9  O   UNL     1       7.235  -5.021  28.068  1.00  0.00    -0.206 OA
ENDBRANCH   4   6
ENDBRANCH   2   3
ENDBRANCH   1   2
BRANCH   1  10
HETATM   10  C   UNL     1       8.596  -1.863  22.723  1.00  0.00    -0.071 C 
BRANCH  10  11
HETATM   11  C   UNL     1       7.577  -1.439  22.046  1.00  0.00     0.289 C 
HETATM   12  O   UNL     1       6.613  -1.996  22.290  1.00  0.00    -0.259 OA
HETATM   13  N   UNL     1       7.890  -0.429  21.222  1.00  0.00    -0.315 N 
ATOM     14  HN  UNL     1       8.841  -0.062  21.160  1.00  0.00     0.170 HD
BRANCH  13  15
HETATM   15  C   UNL     1       6.941   0.048  20.524  1.00  0.00     0.060 A 
HETATM   16  C   UNL     1       6.203  -0.365  19.510  1.00  0.00     0.117 A 
HETATM   17  N   UNL     1       5.311  -0.246  18.699  1.00  0.00    -0.373 N 
HETATM   18  C   UNL     1       4.889   0.998  19.145  1.00  0.00     0.088 A 
ATOM     19  HN  UNL     1       4.984  -0.851  17.945  1.00  0.00     0.164 HD
HETATM   20  C   UNL     1       5.327   1.649  20.021  1.00  0.00     0.030 A 
HETATM   21  C   UNL     1       6.368   1.445  20.925  1.00  0.00    -0.016 A 
HETATM   22  C   UNL     1       6.729   2.057  21.708  1.00  0.00     0.026 C 
ENDBRANCH  13  15
ENDBRANCH  10  11
ENDBRANCH   1  10
BRANCH   1  23
HETATM   23  C   UNL     1      10.988  -1.605  22.860  1.00  0.00    -0.006 C 
BRANCH  23  24
HETATM   24  C   UNL     1      11.466  -0.683  23.187  1.00  0.00    -0.002 C 
BRANCH  24  25
HETATM   25  C   UNL     1      11.501  -0.152  24.541  1.00  0.00    -0.001 C 
HETATM   26  C   UNL     1      10.941   1.083  24.603  1.00  0.00    -0.010 C 
HETATM   27  C   UNL     1      10.478   1.710  23.913  1.00  0.00     0.011 C 
ENDBRANCH  24  25
ENDBRANCH  23  24
ENDBRANCH   1  23
TORSDOF 9
ENDMDL
MODEL 8
REMARK VINA RESULT:    -6.171      4.091      6.832
REMARK INTER + INTRA:         -10.391
REMARK INTER:                  -9.041
REMARK INTRA:                  -1.350
REMARK UNBOUND:                -0.973
REMARK  9 active torsions:
REMARK  status: ('A' for Active; 'I' for Inactive)
REMARK    1  A    between atoms: S_2  and  N_5 
REMARK    2  A    between atoms: C_7  and  C_8 
REMARK    3  A    between atoms: C_8  and  C_9 
REMARK    4  A    between atoms: C_9  and  C_15 
REMARK    5  A    between atoms: C_9  and  C_10 
REMARK    6  A    between atoms: C_10  and  C_11 
REMARK    7  A    between atoms: C_11  and  C_12 
REMARK    8  A    between atoms: C_15  and  C_16 
REMARK       I    between atoms: C_16  and  N_18 
REMARK    9  A    between atoms: N_18  and  C_20 
ROOT
HETATM    1  C   UNL     1       5.710  -4.483  25.532  1.00  0.00     0.109 C 
ENDROOT
BRANCH   1   2
HETATM    2  C   UNL     1       6.138  -4.653  26.726  1.00  0.00     0.011 C 
BRANCH   2   3
HETATM    3  C   UNL     1       6.427  -5.309  27.695  1.00  0.00     0.097 C 
HETATM    4  N   UNL     1       6.643  -6.288  28.387  1.00  0.00    -0.296 N 
ATOM      5  HN  UNL     1       7.171  -7.046  27.954  1.00  0.00     0.177 HD
BRANCH   4   6
HETATM    6  S   UNL     1       6.186  -6.505  29.897  1.00  0.00     0.226 S 
HETATM    7  C   UNL     1       4.369  -6.781  29.824  1.00  0.00     0.186 C 
HETATM    8  O   UNL     1       6.751  -7.678  30.508  1.00  0.00    -0.206 OA
HETATM    9  O   UNL     1       6.387  -5.339  30.682  1.00  0.00    -0.206 OA
ENDBRANCH   4   6
ENDBRANCH   2   3
ENDBRANCH   1   2
BRANCH   1  10
HETATM   10  C   UNL     1       6.792  -4.054  25.071  1.00  0.00    -0.071 C 
BRANCH  10  11
HETATM   11  C   UNL     1       7.886  -3.594  24.552  1.00  0.00     0.289 C 
HETATM   12  O   UNL     1       8.691  -4.391  24.424  1.00  0.00    -0.259 OA
HETATM   13  N   UNL     1       7.813  -2.285  24.272  1.00  0.00    -0.315 N 
ATOM     14  HN  UNL     1       6.972  -1.741  24.463  1.00  0.00     0.170 HD
BRANCH  13  15
HETATM   15  C   UNL     1       8.848  -1.758  23.754  1.00  0.00     0.060 A 
HETATM   16  C   UNL     1       9.410  -1.735  22.560  1.00  0.00     0.117 A 
HETATM   17  N   UNL     1      10.253  -1.380  21.765  1.00  0.00    -0.373 N 
HETATM   18  C   UNL     1      10.941  -0.567  22.653  1.00  0.00     0.088 A 
ATOM     19  HN  UNL     1      10.404  -1.604  20.781  1.00  0.00     0.164 HD
HETATM   20  C   UNL     1      10.714  -0.366  23.789  1.00  0.00     0.030 A 
HETATM   21  C   UNL     1       9.713  -0.813  24.649  1.00  0.00    -0.016 A 
HETATM   22  C   UNL     1       9.538  -0.602  25.670  1.00  0.00     0.026 C 
ENDBRANCH  13  15
ENDBRANCH  10  11
ENDBRANCH   1  10
BRANCH   1  23
HETATM   23  C   UNL     1       4.898  -5.449  24.550  1.00  0.00    -0.006 C 
BRANCH  23  24
HETATM   24  C   UNL     1       5.242  -5.988  23.669  1.00  0.00    -0.002 C 
BRANCH  24  25
HETATM   25  C   UNL     1       5.097  -5.576  22.282  1.00  0.00    -0.001 C 
HETATM   26  C   UNL     1       6.256  -5.737  21.594  1.00  0.00    -0.010 C 
HETATM   27  C   UNL     1       7.200  -6.107  21.829  1.00  0.00     0.011 C 
ENDBRANCH  24  25
ENDBRANCH  23  24
ENDBRANCH   1  23
TORSDOF 9
ENDMDL
MODEL 9
REMARK VINA RESULT:    -6.132      4.032      6.009
REMARK INTER + INTRA:         -10.331
REMARK INTER:                  -9.117
REMARK INTRA:                  -1.214
REMARK UNBOUND:                -0.973
REMARK  9 active torsions:
REMARK  status: ('A' for Active; 'I' for Inactive)
REMARK    1  A    between atoms: S_2  and  N_5 
REMARK    2  A    between atoms: C_7  and  C_8 
REMARK    3  A    between atoms: C_8  and  C_9 
REMARK    4  A    between atoms: C_9  and  C_15 
REMARK    5  A    between atoms: C_9  and  C_10 
REMARK    6  A    between atoms: C_10  and  C_11 
REMARK    7  A    between atoms: C_11  and  C_12 
REMARK    8  A    between atoms: C_15  and  C_16 
REMARK       I    between atoms: C_16  and  N_18 
REMARK    9  A    between atoms: N_18  and  C_20 
ROOT
HETATM    1  C   UNL     1       9.219   1.673  24.563  1.00  0.00     0.109 C 
ENDROOT
BRANCH   1   2
HETATM    2  C   UNL     1       9.051   2.937  24.669  1.00  0.00     0.011 C 
BRANCH   2   3
HETATM    3  C   UNL     1       9.129   4.081  24.296  1.00  0.00     0.097 C 
HETATM    4  N   UNL     1       9.449   5.255  24.279  1.00  0.00    -0.296 N 
ATOM      5  HN  UNL     1      10.417   5.469  24.519  1.00  0.00     0.177 HD
BRANCH   4   6
HETATM    6  S   UNL     1       8.510   6.492  23.921  1.00  0.00     0.226 S 
HETATM    7  C   UNL     1       6.882   6.108  24.686  1.00  0.00     0.186 C 
HETATM    8  O   UNL     1       8.948   7.734  24.499  1.00  0.00    -0.206 OA
HETATM    9  O   UNL     1       8.286   6.597  22.523  1.00  0.00    -0.206 OA
ENDBRANCH   4   6
ENDBRANCH   2   3
ENDBRANCH   1   2
BRANCH   1  10
HETATM   10  C   UNL     1       8.868   1.599  23.364  1.00  0.00    -0.071 C 
BRANCH  10  11
HETATM   11  C   UNL     1       8.553   1.536  22.110  1.00  0.00     0.289 C 
HETATM   12  O   UNL     1       9.401   1.854  21.417  1.00  0.00    -0.259 OA
HETATM   13  N   UNL     1       7.302   1.096  21.915  1.00  0.00    -0.315 N 
ATOM     14  HN  UNL     1       6.691   0.849  22.694  1.00  0.00     0.170 HD
BRANCH  13  15
HETATM   15  C   UNL     1       6.917   1.001  20.706  1.00  0.00     0.060 A 
HETATM   16  C   UNL     1       7.300   0.333  19.633  1.00  0.00     0.117 A 
HETATM   17  N   UNL     1       7.198  -0.008  18.475  1.00  0.00    -0.373 N 
HETATM   18  C   UNL     1       6.044   0.718  18.222  1.00  0.00     0.088 A 
ATOM     19  HN  UNL     1       7.767  -0.618  17.888  1.00  0.00     0.164 HD
HETATM   20  C   UNL     1       5.444   1.419  18.952  1.00  0.00     0.030 A 
HETATM   21  C   UNL     1       5.621   1.768  20.290  1.00  0.00    -0.016 A 
HETATM   22  C   UNL     1       5.052   2.401  20.916  1.00  0.00     0.026 C 
ENDBRANCH  13  15
ENDBRANCH  10  11
ENDBRANCH   1  10
BRANCH   1  23
HETATM   23  C   UNL     1      10.449   0.731  24.962  1.00  0.00    -0.006 C 
BRANCH  23  24
HETATM   24  C   UNL     1      10.658  -0.296  24.667  1.00  0.00    -0.002 C 
BRANCH  24  25
HETATM   25  C   UNL     1      11.625  -0.739  23.675  1.00  0.00    -0.001 C 
HETATM   26  C   UNL     1      11.042  -1.518  22.729  1.00  0.00    -0.010 C 
HETATM   27  C   UNL     1      10.069  -1.840  22.546  1.00  0.00     0.011 C 
ENDBRANCH  24  25
ENDBRANCH  23  24
ENDBRANCH   1  23
TORSDOF 9
ENDMDL
