REMARK  9 active torsions:
REMARK  status: ('A' for Active; 'I' for Inactive)
REMARK    1  A    between atoms: S_2  and  N_5 
REMARK    2  A    between atoms: C_7  and  C_8 
REMARK    3  A    between atoms: C_8  and  C_9 
REMARK    4  A    between atoms: C_9  and  C_15 
REMARK    5  A    between atoms: C_9  and  C_10 
REMARK    6  A    between atoms: C_10  and  C_11 
REMARK    7  A    between atoms: C_11  and  C_12 
REMARK    8  A    between atoms: C_15  and  C_16 
REMARK       I    between atoms: C_16  and  N_18 
REMARK    9  A    between atoms: N_18  and  C_20 
ROOT
HETATM    1  C   UNL     1      10.316  -1.058  23.304  1.00  0.00     0.109 C 
ENDROOT
BRANCH   1   2
HETATM    2  C   UNL     1       9.437  -1.962  23.526  1.00  0.00     0.011 C 
BRANCH   2   3
HETATM    3  C   UNL     1       8.946  -2.875  24.141  1.00  0.00     0.097 C 
HETATM    4  N   UNL     1       8.097  -3.556  24.686  1.00  0.00    -0.296 N 
ATOM      5  HN  UNL     1       7.211  -3.665  24.192  1.00  0.00     0.177 HD
BRANCH   4   6
HETATM    6  S   UNL     1       8.228  -4.294  26.092  1.00  0.00     0.226 S 
HETATM    7  C   UNL     1       6.540  -4.912  26.480  1.00  0.00     0.186 C 
HETATM    8  O   UNL     1       9.086  -5.448  26.060  1.00  0.00    -0.206 OA
HETATM    9  O   UNL     1       8.578  -3.392  27.131  1.00  0.00    -0.206 OA
ENDBRANCH   4   6
ENDBRANCH   2   3
ENDBRANCH   1   2
BRANCH   1  10
HETATM   10  C   UNL     1       9.708  -0.524  22.349  1.00  0.00    -0.071 C 
BRANCH  10  11
HETATM   11  C   UNL     1       9.041   0.042  21.394  1.00  0.00     0.289 C 
HETATM   12  O   UNL     1       9.579   0.940  20.942  1.00  0.00    -0.259 OA
HETATM   13  N   UNL     1       7.874  -0.570  21.148  1.00  0.00    -0.315 N 
ATOM     14  HN  UNL     1       7.575  -1.389  21.678  1.00  0.00     0.170 HD
BRANCH  13  15
HETATM   15  C   UNL     1       7.160  -0.076  20.219  1.00  0.00     0.060 A 
HETATM   16  C   UNL     1       7.232   0.007  18.903  1.00  0.00     0.117 A 
HETATM   17  N   UNL     1       6.809   0.320  17.812  1.00  0.00    -0.373 N 
HETATM   18  C   UNL     1       5.616   0.853  18.278  1.00  0.00     0.088 A 
ATOM     19  HN  UNL     1       7.197   0.225  16.873  1.00  0.00     0.164 HD
HETATM   20  C   UNL     1       5.238   0.942  19.388  1.00  0.00     0.030 A 
HETATM   21  C   UNL     1       5.785   0.554  20.610  1.00  0.00    -0.016 A 
HETATM   22  C   UNL     1       5.407   0.646  21.593  1.00  0.00     0.026 C 
ENDBRANCH  13  15
ENDBRANCH  10  11
ENDBRANCH   1  10
BRANCH   1  23
HETATM   23  C   UNL     1      11.054  -0.035  24.287  1.00  0.00    -0.006 C 
BRANCH  23  24
HETATM   24  C   UNL     1      12.095   0.283  24.300  1.00  0.00    -0.002 C 
BRANCH  24  25
HETATM   25  C   UNL     1      13.169  -0.211  23.452  1.00  0.00    -0.001 C 
HETATM   26  C   UNL     1      12.750  -1.239  22.671  1.00  0.00    -0.010 C 
HETATM   27  C   UNL     1      11.840  -1.725  22.529  1.00  0.00     0.011 C 
ENDBRANCH  24  25
ENDBRANCH  23  24
ENDBRANCH   1  23
TORSDOF 9
