MODEL 1
REMARK VINA RESULT:    -4.189      0.000      0.000
REMARK INTER + INTRA:          -4.766
REMARK INTER:                  -4.679
REMARK INTRA:                  -0.088
REMARK UNBOUND:                -0.088
REMARK  2 active torsions:
REMARK  status: ('A' for Active; 'I' for Inactive)
REMARK    1  A    between atoms: C_5  and  C_7 
REMARK    2  A    between atoms: O_8  and  C_9 
ROOT
HETATM    1  C   UNL     1       6.493  -5.315  21.631  1.00  0.00     0.019 C 
HETATM    2  C   UNL     1       7.789  -3.789  23.073  1.00  0.00     0.170 C 
HETATM    3  C   UNL     1       7.190  -5.187  22.984  1.00  0.00     0.067 C 
HETATM    4  C   UNL     1       8.982  -2.477  24.815  1.00  0.00     0.024 C 
HETATM    5  S   UNL     1       7.343  -4.556  25.595  1.00  0.00    -0.126 SA
HETATM    6  C   UNL     1       8.165  -3.505  24.414  1.00  0.00     0.046 C 
HETATM    7  O   UNL     1       7.827  -2.988  22.166  1.00  0.00    -0.291 OA
HETATM    8  C   UNL     1       6.325  -5.323  24.256  1.00  0.00     0.091 C 
ENDROOT
BRANCH   4   9
HETATM    9  C   UNL     1       9.708  -1.545  24.038  1.00  0.00     0.025 C 
HETATM   10  C   UNL     1      10.687  -0.634  24.308  1.00  0.00     0.134 C 
BRANCH  10  11
HETATM   11  O   UNL     1      11.756  -0.636  23.504  1.00  0.00    -0.368 OA
HETATM   12  C   UNL     1      12.982  -0.452  24.198  1.00  0.00     0.208 C 
ENDBRANCH  10  11
ENDBRANCH   4   9
TORSDOF 2
ENDMDL
MODEL 2
REMARK VINA RESULT:    -4.148     22.823     23.744
REMARK INTER + INTRA:          -4.721
REMARK INTER:                  -4.511
REMARK INTRA:                  -0.209
REMARK UNBOUND:                -0.088
REMARK  2 active torsions:
REMARK  status: ('A' for Active; 'I' for Inactive)
REMARK    1  A    between atoms: C_5  and  C_7 
REMARK    2  A    between atoms: O_8  and  C_9 
ROOT
HETATM    1  C   UNL     1      24.948 -19.326  13.557  1.00  0.00     0.019 C 
HETATM    2  C   UNL     1      22.535 -19.591  13.995  1.00  0.00     0.170 C 
HETATM    3  C   UNL     1      23.637 -19.845  12.974  1.00  0.00     0.067 C 
HETATM    4  C   UNL     1      20.068 -19.885  14.055  1.00  0.00     0.024 C 
HETATM    5  S   UNL     1      21.325 -19.636  11.610  1.00  0.00    -0.126 SA
HETATM    6  C   UNL     1      21.261 -19.755  13.388  1.00  0.00     0.046 C 
HETATM    7  O   UNL     1      22.710 -19.186  15.122  1.00  0.00    -0.291 OA
HETATM    8  C   UNL     1      23.120 -19.194  11.671  1.00  0.00     0.091 C 
ENDROOT
BRANCH   4   9
HETATM    9  C   UNL     1      19.815 -19.988  15.442  1.00  0.00     0.025 C 
HETATM   10  C   UNL     1      20.026 -20.955  16.382  1.00  0.00     0.134 C 
BRANCH  10  11
HETATM   11  O   UNL     1      20.609 -20.573  17.524  1.00  0.00    -0.368 OA
HETATM   12  C   UNL     1      21.740 -21.359  17.868  1.00  0.00     0.208 C 
ENDBRANCH  10  11
ENDBRANCH   4   9
TORSDOF 2
ENDMDL
MODEL 3
REMARK VINA RESULT:    -4.106      4.366      4.567
REMARK INTER + INTRA:          -4.674
REMARK INTER:                  -4.470
REMARK INTRA:                  -0.204
REMARK UNBOUND:                -0.088
REMARK  2 active torsions:
REMARK  status: ('A' for Active; 'I' for Inactive)
REMARK    1  A    between atoms: C_5  and  C_7 
REMARK    2  A    between atoms: O_8  and  C_9 
ROOT
HETATM    1  C   UNL     1       7.585   0.078  20.283  1.00  0.00     0.019 C 
HETATM    2  C   UNL     1       9.080   0.621  22.168  1.00  0.00     0.170 C 
HETATM    3  C   UNL     1       7.650   0.251  21.798  1.00  0.00     0.067 C 
HETATM    4  C   UNL     1      10.266   1.254  24.259  1.00  0.00     0.024 C 
HETATM    5  S   UNL     1       7.539   1.645  24.098  1.00  0.00    -0.126 SA
HETATM    6  C   UNL     1       9.129   1.103  23.504  1.00  0.00     0.046 C 
HETATM    7  O   UNL     1      10.019   0.624  21.404  1.00  0.00    -0.291 OA
HETATM    8  C   UNL     1       6.783   1.360  22.434  1.00  0.00     0.091 C 
ENDROOT
BRANCH   4   9
HETATM    9  C   UNL     1      11.602   0.896  23.962  1.00  0.00     0.025 C 
HETATM   10  C   UNL     1      12.537   0.110  24.570  1.00  0.00     0.134 C 
BRANCH  10  11
HETATM   11  O   UNL     1      13.175  -0.779  23.800  1.00  0.00    -0.368 OA
HETATM   12  C   UNL     1      12.300  -1.558  22.998  1.00  0.00     0.208 C 
ENDBRANCH  10  11
ENDBRANCH   4   9
TORSDOF 2
ENDMDL
MODEL 4
REMARK VINA RESULT:    -4.090      1.871      2.216
REMARK INTER + INTRA:          -4.655
REMARK INTER:                  -4.571
REMARK INTRA:                  -0.084
REMARK UNBOUND:                -0.088
REMARK  2 active torsions:
REMARK  status: ('A' for Active; 'I' for Inactive)
REMARK    1  A    between atoms: C_5  and  C_7 
REMARK    2  A    between atoms: O_8  and  C_9 
ROOT
HETATM    1  C   UNL     1       5.909  -5.648  24.976  1.00  0.00     0.019 C 
HETATM    2  C   UNL     1       7.404  -4.027  23.871  1.00  0.00     0.170 C 
HETATM    3  C   UNL     1       5.945  -4.368  24.143  1.00  0.00     0.067 C 
HETATM    4  C   UNL     1       8.606  -2.302  22.545  1.00  0.00     0.024 C 
HETATM    5  S   UNL     1       6.013  -2.952  21.856  1.00  0.00    -0.126 SA
HETATM    6  C   UNL     1       7.492  -3.046  22.847  1.00  0.00     0.046 C 
HETATM    7  O   UNL     1       8.356  -4.593  24.361  1.00  0.00    -0.291 OA
HETATM    8  C   UNL     1       5.284  -4.399  22.748  1.00  0.00     0.091 C 
ENDROOT
BRANCH   4   9
HETATM    9  C   UNL     1       9.858  -2.244  23.199  1.00  0.00     0.025 C 
HETATM   10  C   UNL     1      10.977  -1.477  23.053  1.00  0.00     0.134 C 
BRANCH  10  11
HETATM   11  O   UNL     1      11.489  -0.933  24.163  1.00  0.00    -0.368 OA
HETATM   12  C   UNL     1      12.858  -0.579  24.036  1.00  0.00     0.208 C 
ENDBRANCH  10  11
ENDBRANCH   4   9
TORSDOF 2
ENDMDL
MODEL 5
REMARK VINA RESULT:    -4.029      4.429      6.163
REMARK INTER + INTRA:          -4.588
REMARK INTER:                  -4.457
REMARK INTRA:                  -0.131
REMARK UNBOUND:                -0.088
REMARK  2 active torsions:
REMARK  status: ('A' for Active; 'I' for Inactive)
REMARK    1  A    between atoms: C_5  and  C_7 
REMARK    2  A    between atoms: O_8  and  C_9 
ROOT
HETATM    1  C   UNL     1      13.436  -0.703  24.040  1.00  0.00     0.019 C 
HETATM    2  C   UNL     1      11.399   0.686  23.944  1.00  0.00     0.170 C 
HETATM    3  C   UNL     1      11.910  -0.748  24.007  1.00  0.00     0.067 C 
HETATM    4  C   UNL     1       9.174   1.770  23.718  1.00  0.00     0.024 C 
HETATM    5  S   UNL     1       9.500  -0.816  22.810  1.00  0.00    -0.126 SA
HETATM    6  C   UNL     1      10.023   0.698  23.590  1.00  0.00     0.046 C 
HETATM    7  O   UNL     1      12.087   1.676  24.054  1.00  0.00    -0.291 OA
HETATM    8  C   UNL     1      11.236  -1.455  22.810  1.00  0.00     0.091 C 
ENDROOT
BRANCH   4   9
HETATM    9  C   UNL     1       9.403   3.041  24.295  1.00  0.00     0.025 C 
HETATM   10  C   UNL     1       9.700   4.276  23.797  1.00  0.00     0.134 C 
BRANCH  10  11
HETATM   11  O   UNL     1       8.971   5.302  24.249  1.00  0.00    -0.368 OA
HETATM   12  C   UNL     1       9.512   6.570  23.908  1.00  0.00     0.208 C 
ENDBRANCH  10  11
ENDBRANCH   4   9
TORSDOF 2
ENDMDL
MODEL 6
REMARK VINA RESULT:    -4.004      5.431      6.025
REMARK INTER + INTRA:          -4.560
REMARK INTER:                  -4.380
REMARK INTRA:                  -0.179
REMARK UNBOUND:                -0.088
REMARK  2 active torsions:
REMARK  status: ('A' for Active; 'I' for Inactive)
REMARK    1  A    between atoms: C_5  and  C_7 
REMARK    2  A    between atoms: O_8  and  C_9 
ROOT
HETATM    1  C   UNL     1       4.412   2.779  21.512  1.00  0.00     0.019 C 
HETATM    2  C   UNL     1       6.420   1.417  21.061  1.00  0.00     0.170 C 
HETATM    3  C   UNL     1       5.301   2.216  20.405  1.00  0.00     0.067 C 
HETATM    4  C   UNL     1       8.294  -0.004  20.258  1.00  0.00     0.024 C 
HETATM    5  S   UNL     1       6.095   0.357  18.628  1.00  0.00    -0.126 SA
HETATM    6  C   UNL     1       7.080   0.615  20.091  1.00  0.00     0.046 C 
HETATM    7  O   UNL     1       6.638   1.373  22.251  1.00  0.00    -0.291 OA
HETATM    8  C   UNL     1       4.661   1.236  19.397  1.00  0.00     0.091 C 
ENDROOT
BRANCH   4   9
HETATM    9  C   UNL     1       9.206   0.071  21.336  1.00  0.00     0.025 C 
HETATM   10  C   UNL     1      10.101   1.006  21.766  1.00  0.00     0.134 C 
BRANCH  10  11
HETATM   11  O   UNL     1      10.072   1.320  23.066  1.00  0.00    -0.368 OA
HETATM   12  C   UNL     1      10.940   2.390  23.406  1.00  0.00     0.208 C 
ENDBRANCH  10  11
ENDBRANCH   4   9
TORSDOF 2
ENDMDL
MODEL 7
REMARK VINA RESULT:    -3.953     12.938     15.136
REMARK INTER + INTRA:          -4.503
REMARK INTER:                  -4.383
REMARK INTRA:                  -0.120
REMARK UNBOUND:                -0.088
REMARK  2 active torsions:
REMARK  status: ('A' for Active; 'I' for Inactive)
REMARK    1  A    between atoms: C_5  and  C_7 
REMARK    2  A    between atoms: O_8  and  C_9 
ROOT
HETATM    1  C   UNL     1      20.633  -0.760  24.430  1.00  0.00     0.019 C 
HETATM    2  C   UNL     1      22.220  -2.504  25.156  1.00  0.00     0.170 C 
HETATM    3  C   UNL     1      21.420  -1.295  25.624  1.00  0.00     0.067 C 
HETATM    4  C   UNL     1      23.901  -4.024  26.177  1.00  0.00     0.024 C 
HETATM    5  S   UNL     1      23.567  -1.496  27.234  1.00  0.00    -0.126 SA
HETATM    6  C   UNL     1      23.203  -2.843  26.125  1.00  0.00     0.046 C 
HETATM    7  O   UNL     1      22.122  -3.026  24.068  1.00  0.00    -0.291 OA
HETATM    8  C   UNL     1      22.466  -0.362  26.274  1.00  0.00     0.091 C 
ENDROOT
BRANCH   4   9
HETATM    9  C   UNL     1      23.764  -5.190  25.389  1.00  0.00     0.025 C 
HETATM   10  C   UNL     1      24.594  -5.885  24.559  1.00  0.00     0.134 C 
BRANCH  10  11
HETATM   11  O   UNL     1      24.657  -7.209  24.735  1.00  0.00    -0.368 OA
HETATM   12  C   UNL     1      25.339  -7.883  23.688  1.00  0.00     0.208 C 
ENDBRANCH  10  11
ENDBRANCH   4   9
TORSDOF 2
ENDMDL
MODEL 8
REMARK VINA RESULT:    -3.893      2.556      5.325
REMARK INTER + INTRA:          -4.436
REMARK INTER:                  -4.225
REMARK INTRA:                  -0.210
REMARK UNBOUND:                -0.088
REMARK  2 active torsions:
REMARK  status: ('A' for Active; 'I' for Inactive)
REMARK    1  A    between atoms: C_5  and  C_7 
REMARK    2  A    between atoms: O_8  and  C_9 
ROOT
HETATM    1  C   UNL     1      11.895   0.139  24.172  1.00  0.00     0.019 C 
HETATM    2  C   UNL     1       9.945  -1.295  23.694  1.00  0.00     0.170 C 
HETATM    3  C   UNL     1      11.027  -0.434  23.054  1.00  0.00     0.067 C 
HETATM    4  C   UNL     1       7.965  -2.555  22.877  1.00  0.00     0.024 C 
HETATM    5  S   UNL     1       8.931  -0.457  21.366  1.00  0.00    -0.126 SA
HETATM    6  C   UNL     1       8.930  -1.588  22.743  1.00  0.00     0.046 C 
HETATM    7  O   UNL     1       9.889  -1.584  24.868  1.00  0.00    -0.291 OA
HETATM    8  C   UNL     1      10.256   0.561  22.159  1.00  0.00     0.091 C 
ENDROOT
BRANCH   4   9
HETATM    9  C   UNL     1       7.795  -3.529  23.888  1.00  0.00     0.025 C 
HETATM   10  C   UNL     1       8.048  -4.867  23.977  1.00  0.00     0.134 C 
BRANCH  10  11
HETATM   11  O   UNL     1       8.704  -5.289  25.064  1.00  0.00    -0.368 OA
HETATM   12  C   UNL     1       8.319  -4.612  26.251  1.00  0.00     0.208 C 
ENDBRANCH  10  11
ENDBRANCH   4   9
TORSDOF 2
ENDMDL
MODEL 9
REMARK VINA RESULT:    -3.860      2.630      5.871
REMARK INTER + INTRA:          -4.399
REMARK INTER:                  -4.272
REMARK INTRA:                  -0.126
REMARK UNBOUND:                -0.088
REMARK  2 active torsions:
REMARK  status: ('A' for Active; 'I' for Inactive)
REMARK    1  A    between atoms: C_5  and  C_7 
REMARK    2  A    between atoms: O_8  and  C_9 
ROOT
HETATM    1  C   UNL     1       9.005   2.489  24.714  1.00  0.00     0.019 C 
HETATM    2  C   UNL     1       9.188   0.106  24.105  1.00  0.00     0.170 C 
HETATM    3  C   UNL     1       9.910   1.262  24.784  1.00  0.00     0.067 C 
HETATM    4  C   UNL     1       9.750  -2.245  23.528  1.00  0.00     0.024 C 
HETATM    5  S   UNL     1      11.798  -0.428  23.876  1.00  0.00    -0.126 SA
HETATM    6  C   UNL     1      10.097  -0.958  23.857  1.00  0.00     0.046 C 
HETATM    7  O   UNL     1       8.041   0.132  23.717  1.00  0.00    -0.291 OA
HETATM    8  C   UNL     1      11.281   1.336  24.076  1.00  0.00     0.091 C 
ENDROOT
BRANCH   4   9
HETATM    9  C   UNL     1       8.472  -2.846  23.453  1.00  0.00     0.025 C 
HETATM   10  C   UNL     1       7.716  -3.359  22.440  1.00  0.00     0.134 C 
BRANCH  10  11
HETATM   11  O   UNL     1       7.179  -4.568  22.636  1.00  0.00    -0.368 OA
HETATM   12  C   UNL     1       6.214  -4.921  21.656  1.00  0.00     0.208 C 
ENDBRANCH  10  11
ENDBRANCH   4   9
TORSDOF 2
ENDMDL
