stable:False satoms:20 tatoms:24 sratio:0.8333333333333334
  -OEChem-08052418003D

 25 26  0     0  0  0  0  0  0999 V2000
   -6.6716   -2.1047  -26.2618 C   0  0  0  0  0  0  0  0  0  0  0  0
   -9.2282   -0.7884  -24.1009 N   0  0  0  0  0  0  0  0  0  0  0  0
  -12.8010   -0.1489  -24.7166 C   0  0  0  0  0  0  0  0  0  0  0  0
   -5.2696   -0.8893  -27.2751 H   0  0  0  0  0  0  0  0  0  0  0  0
  -13.5623   -0.9969  -23.8661 C   0  3  0  0  0  0  0  0  0  0  0  0
  -14.6430   -0.9840  -23.9880 H   0  0  0  0  0  0  0  0  0  0  0  0
   -9.5218   -2.6182  -22.6629 H   0  0  0  0  0  0  0  0  0  0  0  0
   -8.5855   -3.5906  -25.0498 Cl  0  0  0  0  0  0  0  0  0  0  0  0
   -8.0651    0.2775  -25.8219 C   0  0  0  0  0  0  0  0  0  0  0  0
  -10.5222   -0.7297  -23.9483 C   0  0  0  0  0  0  0  0  0  0  0  0
   -9.7528   -1.8872  -22.0173 O   0  0  0  0  0  0  0  0  0  0  0  0
   -8.6853    1.1446  -25.7247 H   0  0  0  0  0  0  0  0  0  0  0  0
   -6.1943   -0.8980  -26.7409 C   0  0  0  0  0  0  0  0  0  0  0  0
  -11.4418    0.0744  -24.6807 C   0  0  0  0  0  0  0  0  0  0  0  0
   -7.8210   -2.1330  -25.5263 C   0  0  0  0  0  0  0  0  0  0  0  0
  -10.8489   -1.5941  -22.8212 C   0  0  0  0  0  0  0  0  0  0  0  0
   -6.8851    0.2941  -26.5330 C   0  0  0  0  0  0  0  0  0  0  0  0
  -11.0438    0.9669  -25.1588 H   0  0  0  0  0  0  0  0  0  0  0  0
   -6.1210   -3.0304  -26.4448 H   0  0  0  0  0  0  0  0  0  0  0  0
   -8.4378   -0.8931  -25.1376 C   0  0  0  0  0  0  0  0  0  0  0  0
  -13.3878    0.4078  -25.4523 H   0  0  0  0  0  0  0  0  0  0  0  0
   -6.4993    1.2215  -26.9250 H   0  0  0  0  0  0  0  0  0  0  0  0
  -13.1680   -1.7383  -22.9010 N   0  0  0  0  0  0  0  0  0  0  0  0
  -11.9966   -2.0980  -22.4798 N   0  0  0  0  0  0  0  0  0  0  0  0
   -8.7310   -0.7433  -23.2345 H   0  0  0  0  0  0  0  0  0  0  0  0
  3 21  1  0  0  0  0
  5  6  1  0  0  0  0
  3  5  1  0  0  0  0
  3 14  2  0  0  0  0
  5 23  1  0  0  0  0
 14 18  1  0  0  0  0
 10 14  1  0  0  0  0
 23 24  2  0  0  0  0
  9 12  1  0  0  0  0
 17 22  1  0  0  0  0
  2 10  1  0  0  0  0
 10 16  2  0  0  0  0
  9 17  2  0  0  0  0
  9 20  1  0  0  0  0
 13 17  1  0  0  0  0
 16 24  1  0  0  0  0
  2 20  1  0  0  0  0
 15 20  2  0  0  0  0
 11 16  1  0  0  0  0
  4 13  1  0  0  0  0
  1 13  2  0  0  0  0
  1 15  1  0  0  0  0
  8 15  1  0  0  0  0
  1 19  1  0  0  0  0
  7 11  1  0  0  0  0
  2 25  1  0  0  0  0
M  CHG  1   5   1
M  END
> <Chemgauss4>
-7.512216

$$$$
