stable:False satoms:20 tatoms:24 sratio:0.8333333333333334
  -OEChem-08052418003D

 25 26  0     0  0  0  0  0  0999 V2000
   12.7336    0.4635   24.0336 C   0  0  0  0  0  0  0  0  0  0  0  0
   10.3814   -1.0033   21.7414 N   0  0  0  0  0  0  0  0  0  0  0  0
    7.4153   -3.0965   22.3528 C   0  0  0  0  0  0  0  0  0  0  0  0
   14.6286   -0.3771   24.4480 H   0  0  0  0  0  0  0  0  0  0  0  0
    6.2651   -2.3850   21.9139 C   0  3  0  0  0  0  0  0  0  0  0  0
    5.2957   -2.8407   22.1025 H   0  0  0  0  0  0  0  0  0  0  0  0
    9.2232    0.9214   21.0659 H   0  0  0  0  0  0  0  0  0  0  0  0
   10.2376    1.4078   23.5667 Cl  0  0  0  0  0  0  0  0  0  0  0  0
   12.1462   -2.0161   22.8863 C   0  0  0  0  0  0  0  0  0  0  0  0
    9.1760   -1.4969   21.6734 C   0  0  0  0  0  0  0  0  0  0  0  0
    9.1237    0.3884   20.2230 O   0  0  0  0  0  0  0  0  0  0  0  0
   11.8405   -2.9802   22.5356 H   0  0  0  0  0  0  0  0  0  0  0  0
   13.6667   -0.5574   24.0204 C   0  0  0  0  0  0  0  0  0  0  0  0
    8.7368   -2.7685   22.1410 C   0  0  0  0  0  0  0  0  0  0  0  0
   11.5181    0.2762   23.4417 C   0  0  0  0  0  0  0  0  0  0  0  0
    8.3671   -0.5238   20.9503 C   0  0  0  0  0  0  0  0  0  0  0  0
   13.3813   -1.7996   23.4572 C   0  0  0  0  0  0  0  0  0  0  0  0
    9.4928   -3.5440   22.2434 H   0  0  0  0  0  0  0  0  0  0  0  0
   12.9726    1.4269   24.4900 H   0  0  0  0  0  0  0  0  0  0  0  0
   11.2810   -0.9255   22.6875 C   0  0  0  0  0  0  0  0  0  0  0  0
    7.2023   -4.0269   22.8862 H   0  0  0  0  0  0  0  0  0  0  0  0
   14.1206   -2.5842   23.4679 H   0  0  0  0  0  0  0  0  0  0  0  0
    6.1942   -1.2964   21.2458 N   0  0  0  0  0  0  0  0  0  0  0  0
    7.0740   -0.4127   20.8935 N   0  0  0  0  0  0  0  0  0  0  0  0
   10.6844   -0.5944   20.8807 H   0  0  0  0  0  0  0  0  0  0  0  0
  3 21  1  0  0  0  0
  5  6  1  0  0  0  0
  3  5  1  0  0  0  0
  3 14  2  0  0  0  0
  5 23  1  0  0  0  0
 14 18  1  0  0  0  0
 10 14  1  0  0  0  0
 23 24  2  0  0  0  0
  9 12  1  0  0  0  0
 17 22  1  0  0  0  0
  2 10  1  0  0  0  0
 10 16  2  0  0  0  0
  9 17  2  0  0  0  0
  9 20  1  0  0  0  0
 13 17  1  0  0  0  0
 16 24  1  0  0  0  0
  2 20  1  0  0  0  0
 15 20  2  0  0  0  0
 11 16  1  0  0  0  0
  4 13  1  0  0  0  0
  1 13  2  0  0  0  0
  1 15  1  0  0  0  0
  8 15  1  0  0  0  0
  1 19  1  0  0  0  0
  7 11  1  0  0  0  0
  2 25  1  0  0  0  0
M  CHG  1   5   1
M  END
> <Chemgauss4>
-7.444078

$$$$
