stable:False satoms:9 tatoms:24 sratio:0.375
  -OEChem-07092417423D

 24 25  0     1  0  0  0  0  0999 V2000
    6.4448   -5.0241   26.5223 Cl  0  0  0  0  0  0  0  0  0  0  0  0
    8.2434   -4.3903   26.1474 S   0  0  0  0  0  0  0  0  0  0  0  0
    9.1267   -5.4986   26.0765 O   0  0  0  0  0  0  0  0  0  0  0  0
    8.5126   -3.5104   27.2178 O   0  0  0  0  0  0  0  0  0  0  0  0
    8.0093   -3.7441   24.6833 N   0  0  0  0  0  0  0  0  0  0  0  0
    8.7716   -2.9552   24.2182 C   0  0  0  0  0  0  0  0  0  0  0  0
    9.3373   -2.1272   23.6948 C   0  0  0  0  0  0  0  0  0  0  0  0
   10.3112   -1.3024   23.1276 C   0  0  1  0  0  0  0  0  0  0  0  0
   11.6539    0.0899   24.0327 C   0  0  0  0  0  0  0  0  0  0  0  0
   12.5802    0.2913   24.3744 N   0  3  0  0  0  0  0  0  0  0  0  0
   12.5295   -0.5216   23.4642 C   0  0  1  0  0  0  0  0  0  0  0  0
   13.2649   -0.8107   22.7852 H   0  0  0  0  0  0  0  0  0  0  0  0
   11.4882   -1.6695   23.0840 C   0  0  0  0  0  0  0  0  0  0  0  0
    9.8091   -0.3830   22.3390 C   0  0  0  0  0  0  0  0  0  0  0  0
    9.0496    0.1547   21.3772 C   0  0  0  0  0  0  0  0  0  0  0  0
    9.4428    1.1118   20.8544 O   0  0  0  0  0  0  0  0  0  0  0  0
    7.8705   -0.5084   21.1210 N   0  0  0  0  0  0  0  0  0  0  0  0
    6.9699    0.0627   20.3472 C   0  0  0  0  0  0  0  0  0  0  0  0
    6.9178    0.1914   18.8754 C   0  0  0  0  0  0  0  0  0  0  0  0
    6.9447    0.2023   17.6113 N   0  0  0  0  0  0  0  0  0  0  0  0
    5.9824    0.6297   18.2662 C   0  0  0  0  0  0  0  0  0  0  0  0
    5.0349    1.0345   18.5278 H   0  0  0  0  0  0  0  0  0  0  0  0
    5.9582    0.5432   20.8968 C   0  5  0  0  0  0  0  0  0  0  0  0
    5.3307    0.8436   21.6520 H   0  0  0  0  0  0  0  0  0  0  0  0
 20 21  1  0  0  0  0
 19 20  1  0  0  0  0
 21 22  1  0  0  0  0
 19 21  2  0  0  0  0
 18 19  1  0  0  0  0
 18 23  2  0  0  0  0
 17 18  1  0  0  0  0
 15 16  2  0  0  0  0
 23 24  1  0  0  0  0
 15 17  1  0  0  0  0
 14 15  1  0  0  0  0
  8 14  1  0  0  0  0
 11 12  1  0  0  0  0
  8 13  1  0  0  0  0
 11 13  1  0  0  0  0
  7  8  1  0  0  0  0
  9 11  1  0  0  0  0
 10 11  1  0  0  0  0
  6  7  3  0  0  0  0
  9 10  1  0  0  0  0
  5  6  1  0  0  0  0
  2  5  1  0  0  0  0
  2  3  2  0  0  0  0
  1  2  1  0  0  0  0
  2  4  2  0  0  0  0
M  CHG  2  10   1  23  -1
M  END
> <Shapegauss>
-252.684845

$$$$
