MODEL 1
REMARK VINA RESULT:    -6.162      0.000      0.000
REMARK INTER + INTRA:         -10.410
REMARK INTER:                  -9.765
REMARK INTRA:                  -0.645
REMARK UNBOUND:                -0.645
REMARK  10 active torsions:
REMARK  status: ('A' for Active; 'I' for Inactive)
REMARK    1  A    between atoms: S_2  and  N_5 
REMARK    2  A    between atoms: N_5  and  C_7 
REMARK    3  A    between atoms: C_7  and  C_8 
REMARK    4  A    between atoms: C_8  and  C_9 
REMARK    5  A    between atoms: C_9  and  C_15 
REMARK    6  A    between atoms: C_9  and  C_14 
REMARK    7  A    between atoms: C_13  and  C_14 
REMARK    8  A    between atoms: C_15  and  C_16 
REMARK       I    between atoms: C_16  and  N_18 
REMARK    9  A    between atoms: N_18  and  C_20 
REMARK   10  A    between atoms: C_20  and  C_21 
ROOT
HETATM    1  C   UNL     1       7.607  -0.061  20.584  1.00  0.00     0.005 C 
ENDROOT
BRANCH   1   2
HETATM    2  C   UNL     1       8.922   0.012  21.050  1.00  0.00    -0.047 C 
BRANCH   2   3
HETATM    3  C   UNL     1       9.864   0.008  21.674  1.00  0.00     0.026 C 
BRANCH   3   4
HETATM    4  N   UNL     1      10.930   0.137  22.193  1.00  0.00    -0.229 N 
ATOM      5  HN  UNL     1      11.490   0.962  21.980  1.00  0.00     0.190 HD
BRANCH   4   6
HETATM    6  S   UNL     1      11.509  -0.963  23.227  1.00  0.00     0.327 S 
HETATM    7 CL   UNL     1      12.560   0.190  24.385  1.00  0.00     0.042 Cl
HETATM    8  O   UNL     1      10.460  -1.554  23.980  1.00  0.00    -0.188 OA
HETATM    9  O   UNL     1      12.455  -1.891  22.738  1.00  0.00    -0.188 OA
ENDBRANCH   4   6
ENDBRANCH   3   4
ENDBRANCH   2   3
ENDBRANCH   1   2
BRANCH   1  10
HETATM   10  C   UNL     1       6.864  -0.894  21.271  1.00  0.00     0.090 C 
BRANCH  10  11
HETATM   11  C   UNL     1       6.555  -1.852  22.152  1.00  0.00     0.246 C 
HETATM   12  O   UNL     1       7.079  -1.822  23.186  1.00  0.00    -0.268 OA
HETATM   13  N   UNL     1       5.632  -2.777  21.714  1.00  0.00    -0.322 N 
ATOM     14  HN  UNL     1       5.115  -2.621  20.850  1.00  0.00     0.169 HD
BRANCH  13  15
HETATM   15  C   UNL     1       5.429  -3.865  22.428  1.00  0.00     0.053 C 
HETATM   16  C   UNL     1       4.738  -3.756  23.461  1.00  0.00     0.045 C 
BRANCH  15  17
HETATM   17  C   UNL     1       5.942  -5.240  22.244  1.00  0.00     0.073 A 
HETATM   18  N   UNL     1       6.271  -6.454  22.119  1.00  0.00    -0.361 N 
HETATM   19  C   UNL     1       6.780  -5.548  21.441  1.00  0.00     0.120 A 
ATOM     20  HN  UNL     1       6.185  -7.436  22.379  1.00  0.00     0.165 HD
ENDBRANCH  15  17
ENDBRANCH  13  15
ENDBRANCH  10  11
ENDBRANCH   1  10
BRANCH   1  21
HETATM   21  C   UNL     1       7.330   0.317  19.442  1.00  0.00     0.078 C 
BRANCH  21  22
HETATM   22  C   UNL     1       6.065  -0.425  18.813  1.00  0.00     0.123 A 
HETATM   23  C   UNL     1       5.961   0.451  17.983  1.00  0.00     0.081 A 
HETATM   24  N   UNL     1       5.576  -0.434  17.694  1.00  0.00    -0.391 N 
ATOM     25  HN  UNL     1       5.102  -0.969  16.967  1.00  0.00     0.159 HD
ENDBRANCH  21  22
ENDBRANCH   1  21
TORSDOF 10
ENDMDL
MODEL 2
REMARK VINA RESULT:    -5.945      3.457      6.085
REMARK INTER + INTRA:         -10.065
REMARK INTER:                  -9.252
REMARK INTRA:                  -0.812
REMARK UNBOUND:                -0.645
REMARK  10 active torsions:
REMARK  status: ('A' for Active; 'I' for Inactive)
REMARK    1  A    between atoms: S_2  and  N_5 
REMARK    2  A    between atoms: N_5  and  C_7 
REMARK    3  A    between atoms: C_7  and  C_8 
REMARK    4  A    between atoms: C_8  and  C_9 
REMARK    5  A    between atoms: C_9  and  C_15 
REMARK    6  A    between atoms: C_9  and  C_14 
REMARK    7  A    between atoms: C_13  and  C_14 
REMARK    8  A    between atoms: C_15  and  C_16 
REMARK       I    between atoms: C_16  and  N_18 
REMARK    9  A    between atoms: N_18  and  C_20 
REMARK   10  A    between atoms: C_20  and  C_21 
ROOT
HETATM    1  C   UNL     1       9.517  -1.134  23.675  1.00  0.00     0.005 C 
ENDROOT
BRANCH   1   2
HETATM    2  C   UNL     1       8.936  -2.336  24.085  1.00  0.00    -0.047 C 
BRANCH   2   3
HETATM    3  C   UNL     1       8.492  -3.374  24.144  1.00  0.00     0.026 C 
BRANCH   3   4
HETATM    4  N   UNL     1       8.169  -4.519  24.068  1.00  0.00    -0.229 N 
ATOM      5  HN  UNL     1       8.827  -5.241  24.360  1.00  0.00     0.190 HD
BRANCH   4   6
HETATM    6  S   UNL     1       6.713  -4.956  23.516  1.00  0.00     0.327 S 
HETATM    7 CL   UNL     1       7.247  -6.133  22.065  1.00  0.00     0.042 Cl
HETATM    8  O   UNL     1       6.004  -5.704  24.492  1.00  0.00    -0.188 OA
HETATM    9  O   UNL     1       5.932  -3.971  22.871  1.00  0.00    -0.188 OA
ENDBRANCH   4   6
ENDBRANCH   3   4
ENDBRANCH   2   3
ENDBRANCH   1   2
BRANCH   1  10
HETATM   10  C   UNL     1       9.271  -0.847  22.419  1.00  0.00     0.090 C 
BRANCH  10  11
HETATM   11  C   UNL     1       8.685  -0.268  21.364  1.00  0.00     0.246 C 
HETATM   12  O   UNL     1       9.331   0.441  20.713  1.00  0.00    -0.268 OA
HETATM   13  N   UNL     1       7.359  -0.591  21.179  1.00  0.00    -0.322 N 
ATOM     14  HN  UNL     1       6.932  -1.347  21.713  1.00  0.00     0.169 HD
BRANCH  13  15
HETATM   15  C   UNL     1       6.652   0.089  20.300  1.00  0.00     0.053 C 
HETATM   16  C   UNL     1       6.218   1.205  20.650  1.00  0.00     0.045 C 
BRANCH  15  17
HETATM   17  C   UNL     1       6.214  -0.276  18.936  1.00  0.00     0.073 A 
HETATM   18  N   UNL     1       5.841  -0.704  17.806  1.00  0.00    -0.361 N 
HETATM   19  C   UNL     1       5.530   0.418  18.236  1.00  0.00     0.120 A 
ATOM     20  HN  UNL     1       5.816  -1.425  17.086  1.00  0.00     0.165 HD
ENDBRANCH  15  17
ENDBRANCH  13  15
ENDBRANCH  10  11
ENDBRANCH   1  10
BRANCH   1  21
HETATM   21  C   UNL     1      10.451  -0.645  24.315  1.00  0.00     0.078 C 
BRANCH  21  22
HETATM   22  C   UNL     1      11.869  -0.807  23.602  1.00  0.00     0.123 A 
HETATM   23  C   UNL     1      12.366  -0.054  24.410  1.00  0.00     0.081 A 
HETATM   24  N   UNL     1      13.019  -0.701  23.999  1.00  0.00    -0.391 N 
ATOM     25  HN  UNL     1      13.981  -1.037  23.948  1.00  0.00     0.159 HD
ENDBRANCH  21  22
ENDBRANCH   1  21
TORSDOF 10
ENDMDL
MODEL 3
REMARK VINA RESULT:    -5.714      4.522      7.212
REMARK INTER + INTRA:          -9.699
REMARK INTER:                  -8.924
REMARK INTRA:                  -0.775
REMARK UNBOUND:                -0.645
REMARK  10 active torsions:
REMARK  status: ('A' for Active; 'I' for Inactive)
REMARK    1  A    between atoms: S_2  and  N_5 
REMARK    2  A    between atoms: N_5  and  C_7 
REMARK    3  A    between atoms: C_7  and  C_8 
REMARK    4  A    between atoms: C_8  and  C_9 
REMARK    5  A    between atoms: C_9  and  C_15 
REMARK    6  A    between atoms: C_9  and  C_14 
REMARK    7  A    between atoms: C_13  and  C_14 
REMARK    8  A    between atoms: C_15  and  C_16 
REMARK       I    between atoms: C_16  and  N_18 
REMARK    9  A    between atoms: N_18  and  C_20 
REMARK   10  A    between atoms: C_20  and  C_21 
ROOT
HETATM    1  C   UNL     1       7.746  -4.339  24.489  1.00  0.00     0.005 C 
ENDROOT
BRANCH   1   2
HETATM    2  C   UNL     1       7.916  -4.808  25.793  1.00  0.00    -0.047 C 
BRANCH   2   3
HETATM    3  C   UNL     1       7.841  -5.359  26.777  1.00  0.00     0.026 C 
BRANCH   3   4
HETATM    4  N   UNL     1       7.640  -6.071  27.712  1.00  0.00    -0.229 N 
ATOM      5  HN  UNL     1       8.415  -6.600  28.111  1.00  0.00     0.190 HD
BRANCH   4   6
HETATM    6  S   UNL     1       6.167  -6.217  28.366  1.00  0.00     0.327 S 
HETATM    7 CL   UNL     1       6.649  -6.893  30.122  1.00  0.00     0.042 Cl
HETATM    8  O   UNL     1       5.547  -4.947  28.505  1.00  0.00    -0.188 OA
HETATM    9  O   UNL     1       5.315  -7.217  27.849  1.00  0.00    -0.188 OA
ENDBRANCH   4   6
ENDBRANCH   3   4
ENDBRANCH   2   3
ENDBRANCH   1   2
BRANCH   1  10
HETATM   10  C   UNL     1       8.309  -3.172  24.286  1.00  0.00     0.090 C 
BRANCH  10  11
HETATM   11  C   UNL     1       9.283  -2.266  24.145  1.00  0.00     0.246 C 
HETATM   12  O   UNL     1       9.437  -1.503  25.004  1.00  0.00    -0.268 OA
HETATM   13  N   UNL     1       9.999  -2.351  22.971  1.00  0.00    -0.322 N 
ATOM     14  HN  UNL     1       9.888  -3.157  22.356  1.00  0.00     0.169 HD
BRANCH  13  15
HETATM   15  C   UNL     1      10.828  -1.378  22.654  1.00  0.00     0.053 C 
HETATM   16  C   UNL     1      12.049  -1.592  22.798  1.00  0.00     0.045 C 
BRANCH  15  17
HETATM   17  C   UNL     1      10.554  -0.001  22.193  1.00  0.00     0.073 A 
HETATM   18  N   UNL     1      10.439   1.198  21.809  1.00  0.00    -0.361 N 
HETATM   19  C   UNL     1       9.673   0.297  21.434  1.00  0.00     0.120 A 
ATOM     20  HN  UNL     1      10.744   2.171  21.808  1.00  0.00     0.165 HD
ENDBRANCH  15  17
ENDBRANCH  13  15
ENDBRANCH  10  11
ENDBRANCH   1  10
BRANCH   1  21
HETATM   21  C   UNL     1       6.850  -4.796  23.775  1.00  0.00     0.078 C 
BRANCH  21  22
HETATM   22  C   UNL     1       7.387  -5.517  22.457  1.00  0.00     0.123 A 
HETATM   23  C   UNL     1       6.296  -6.012  22.279  1.00  0.00     0.081 A 
HETATM   24  N   UNL     1       6.839  -5.906  21.437  1.00  0.00    -0.391 N 
ATOM     25  HN  UNL     1       6.893  -6.035  20.427  1.00  0.00     0.159 HD
ENDBRANCH  21  22
ENDBRANCH   1  21
TORSDOF 10
ENDMDL
MODEL 4
REMARK VINA RESULT:    -5.665      3.381      5.841
REMARK INTER + INTRA:          -9.622
REMARK INTER:                  -8.870
REMARK INTRA:                  -0.752
REMARK UNBOUND:                -0.645
REMARK  10 active torsions:
REMARK  status: ('A' for Active; 'I' for Inactive)
REMARK    1  A    between atoms: S_2  and  N_5 
REMARK    2  A    between atoms: N_5  and  C_7 
REMARK    3  A    between atoms: C_7  and  C_8 
REMARK    4  A    between atoms: C_8  and  C_9 
REMARK    5  A    between atoms: C_9  and  C_15 
REMARK    6  A    between atoms: C_9  and  C_14 
REMARK    7  A    between atoms: C_13  and  C_14 
REMARK    8  A    between atoms: C_15  and  C_16 
REMARK       I    between atoms: C_16  and  N_18 
REMARK    9  A    between atoms: N_18  and  C_20 
REMARK   10  A    between atoms: C_20  and  C_21 
ROOT
HETATM    1  C   UNL     1       9.661  -1.650  23.309  1.00  0.00     0.005 C 
ENDROOT
BRANCH   1   2
HETATM    2  C   UNL     1       9.213  -2.869  23.821  1.00  0.00    -0.047 C 
BRANCH   2   3
HETATM    3  C   UNL     1       8.596  -3.740  24.194  1.00  0.00     0.026 C 
BRANCH   3   4
HETATM    4  N   UNL     1       8.111  -4.703  24.702  1.00  0.00    -0.229 N 
ATOM      5  HN  UNL     1       7.799  -5.473  24.111  1.00  0.00     0.190 HD
BRANCH   4   6
HETATM    6  S   UNL     1       7.937  -4.821  26.306  1.00  0.00     0.327 S 
HETATM    7 CL   UNL     1       6.808  -3.273  26.631  1.00  0.00     0.042 Cl
HETATM    8  O   UNL     1       7.228  -6.001  26.653  1.00  0.00    -0.188 OA
HETATM    9  O   UNL     1       9.072  -4.577  27.110  1.00  0.00    -0.188 OA
ENDBRANCH   4   6
ENDBRANCH   3   4
ENDBRANCH   2   3
ENDBRANCH   1   2
BRANCH   1  10
HETATM   10  C   UNL     1       8.875  -1.163  22.379  1.00  0.00     0.090 C 
BRANCH  10  11
HETATM   11  C   UNL     1       7.766  -0.669  21.818  1.00  0.00     0.246 C 
HETATM   12  O   UNL     1       6.751  -0.928  22.314  1.00  0.00    -0.268 OA
HETATM   13  N   UNL     1       7.970   0.105  20.696  1.00  0.00    -0.322 N 
ATOM     14  HN  UNL     1       8.910   0.402  20.438  1.00  0.00     0.169 HD
BRANCH  13  15
HETATM   15  C   UNL     1       6.933   0.454  19.963  1.00  0.00     0.053 C 
HETATM   16  C   UNL     1       6.293   1.466  20.315  1.00  0.00     0.045 C 
BRANCH  15  17
HETATM   17  C   UNL     1       6.336  -0.200  18.779  1.00  0.00     0.073 A 
HETATM   18  N   UNL     1       5.839  -0.865  17.825  1.00  0.00    -0.361 N 
HETATM   19  C   UNL     1       5.515   0.308  18.067  1.00  0.00     0.120 A 
ATOM     20  HN  UNL     1       5.762  -1.719  17.274  1.00  0.00     0.165 HD
ENDBRANCH  15  17
ENDBRANCH  13  15
ENDBRANCH  10  11
ENDBRANCH   1  10
BRANCH   1  21
HETATM   21  C   UNL     1      10.839  -1.311  23.452  1.00  0.00     0.078 C 
BRANCH  21  22
HETATM   22  C   UNL     1      11.040   0.268  23.570  1.00  0.00     0.123 A 
HETATM   23  C   UNL     1      11.673   0.114  24.591  1.00  0.00     0.081 A 
HETATM   24  N   UNL     1      11.896   0.962  24.096  1.00  0.00    -0.391 N 
ATOM     25  HN  UNL     1      12.454   1.815  24.058  1.00  0.00     0.159 HD
ENDBRANCH  21  22
ENDBRANCH   1  21
TORSDOF 10
ENDMDL
MODEL 5
REMARK VINA RESULT:    -5.622      4.253      7.483
REMARK INTER + INTRA:          -9.554
REMARK INTER:                  -8.818
REMARK INTRA:                  -0.735
REMARK UNBOUND:                -0.645
REMARK  10 active torsions:
REMARK  status: ('A' for Active; 'I' for Inactive)
REMARK    1  A    between atoms: S_2  and  N_5 
REMARK    2  A    between atoms: N_5  and  C_7 
REMARK    3  A    between atoms: C_7  and  C_8 
REMARK    4  A    between atoms: C_8  and  C_9 
REMARK    5  A    between atoms: C_9  and  C_15 
REMARK    6  A    between atoms: C_9  and  C_14 
REMARK    7  A    between atoms: C_13  and  C_14 
REMARK    8  A    between atoms: C_15  and  C_16 
REMARK       I    between atoms: C_16  and  N_18 
REMARK    9  A    between atoms: N_18  and  C_20 
REMARK   10  A    between atoms: C_20  and  C_21 
ROOT
HETATM    1  C   UNL     1       8.360  -2.946  25.354  1.00  0.00     0.005 C 
ENDROOT
BRANCH   1   2
HETATM    2  C   UNL     1       8.205  -3.601  24.130  1.00  0.00    -0.047 C 
BRANCH   2   3
HETATM    3  C   UNL     1       7.867  -3.948  23.108  1.00  0.00     0.026 C 
BRANCH   3   4
HETATM    4  N   UNL     1       7.541  -4.504  22.105  1.00  0.00    -0.229 N 
ATOM      5  HN  UNL     1       8.248  -4.711  21.399  1.00  0.00     0.190 HD
BRANCH   4   6
HETATM    6  S   UNL     1       6.007  -4.940  21.836  1.00  0.00     0.327 S 
HETATM    7 CL   UNL     1       5.720  -6.107  23.363  1.00  0.00     0.042 Cl
HETATM    8  O   UNL     1       5.139  -3.820  21.930  1.00  0.00    -0.188 OA
HETATM    9  O   UNL     1       5.747  -5.776  20.728  1.00  0.00    -0.188 OA
ENDBRANCH   4   6
ENDBRANCH   3   4
ENDBRANCH   2   3
ENDBRANCH   1   2
BRANCH   1  10
HETATM   10  C   UNL     1       8.673  -1.679  25.221  1.00  0.00     0.090 C 
BRANCH  10  11
HETATM   11  C   UNL     1       9.433  -0.599  25.010  1.00  0.00     0.246 C 
HETATM   12  O   UNL     1       9.094   0.400  25.490  1.00  0.00    -0.268 OA
HETATM   13  N   UNL     1      10.549  -0.810  24.230  1.00  0.00    -0.322 N 
ATOM     14  HN  UNL     1      10.841  -1.757  23.991  1.00  0.00     0.169 HD
BRANCH  13  15
HETATM   15  C   UNL     1      11.233   0.229  23.797  1.00  0.00     0.053 C 
HETATM   16  C   UNL     1      12.396   0.372  24.226  1.00  0.00     0.045 C 
BRANCH  15  17
HETATM   17  C   UNL     1      10.830   1.332  22.899  1.00  0.00     0.073 A 
HETATM   18  N   UNL     1      10.576   2.341  22.181  1.00  0.00    -0.361 N 
HETATM   19  C   UNL     1      10.356   1.178  21.808  1.00  0.00     0.120 A 
ATOM     20  HN  UNL     1      10.561   3.348  22.025  1.00  0.00     0.165 HD
ENDBRANCH  15  17
ENDBRANCH  13  15
ENDBRANCH  10  11
ENDBRANCH   1  10
BRANCH   1  21
HETATM   21  C   UNL     1       8.560  -3.593  26.385  1.00  0.00     0.078 C 
BRANCH  21  22
HETATM   22  C   UNL     1       7.514  -4.777  26.609  1.00  0.00     0.123 A 
HETATM   23  C   UNL     1       8.420  -5.527  26.896  1.00  0.00     0.081 A 
HETATM   24  N   UNL     1       7.533  -5.787  27.295  1.00  0.00    -0.391 N 
ATOM     25  HN  UNL     1       7.009  -6.443  27.875  1.00  0.00     0.159 HD
ENDBRANCH  21  22
ENDBRANCH   1  21
TORSDOF 10
ENDMDL
MODEL 6
REMARK VINA RESULT:    -5.517      3.594      6.273
REMARK INTER + INTRA:          -9.387
REMARK INTER:                  -8.457
REMARK INTRA:                  -0.930
REMARK UNBOUND:                -0.645
REMARK  10 active torsions:
REMARK  status: ('A' for Active; 'I' for Inactive)
REMARK    1  A    between atoms: S_2  and  N_5 
REMARK    2  A    between atoms: N_5  and  C_7 
REMARK    3  A    between atoms: C_7  and  C_8 
REMARK    4  A    between atoms: C_8  and  C_9 
REMARK    5  A    between atoms: C_9  and  C_15 
REMARK    6  A    between atoms: C_9  and  C_14 
REMARK    7  A    between atoms: C_13  and  C_14 
REMARK    8  A    between atoms: C_15  and  C_16 
REMARK       I    between atoms: C_16  and  N_18 
REMARK    9  A    between atoms: N_18  and  C_20 
REMARK   10  A    between atoms: C_20  and  C_21 
ROOT
HETATM    1  C   UNL     1       8.966  -1.004  23.392  1.00  0.00     0.005 C 
ENDROOT
BRANCH   1   2
HETATM    2  C   UNL     1       8.201  -2.133  23.090  1.00  0.00    -0.047 C 
BRANCH   2   3
HETATM    3  C   UNL     1       7.812  -3.120  22.697  1.00  0.00     0.026 C 
BRANCH   3   4
HETATM    4  N   UNL     1       7.601  -4.211  22.266  1.00  0.00    -0.229 N 
ATOM      5  HN  UNL     1       8.384  -4.848  22.119  1.00  0.00     0.190 HD
BRANCH   4   6
HETATM    6  S   UNL     1       6.104  -4.707  21.907  1.00  0.00     0.327 S 
HETATM    7 CL   UNL     1       5.201  -4.269  23.572  1.00  0.00     0.042 Cl
HETATM    8  O   UNL     1       5.551  -3.930  20.855  1.00  0.00    -0.188 OA
HETATM    9  O   UNL     1       5.887  -6.095  21.769  1.00  0.00    -0.188 OA
ENDBRANCH   4   6
ENDBRANCH   3   4
ENDBRANCH   2   3
ENDBRANCH   1   2
BRANCH   1  10
HETATM   10  C   UNL     1       8.614   0.054  22.702  1.00  0.00     0.090 C 
BRANCH  10  11
HETATM   11  C   UNL     1       7.997   0.781  21.764  1.00  0.00     0.246 C 
HETATM   12  O   UNL     1       8.654   1.273  20.945  1.00  0.00    -0.268 OA
HETATM   13  N   UNL     1       6.627   0.859  21.888  1.00  0.00    -0.322 N 
ATOM     14  HN  UNL     1       6.133   0.259  22.549  1.00  0.00     0.169 HD
BRANCH  13  15
HETATM   15  C   UNL     1       5.964   1.718  21.142  1.00  0.00     0.053 C 
HETATM   16  C   UNL     1       5.742   2.848  21.623  1.00  0.00     0.045 C 
BRANCH  15  17
HETATM   17  C   UNL     1       5.363   1.556  19.801  1.00  0.00     0.073 A 
HETATM   18  N   UNL     1       4.935   1.333  18.632  1.00  0.00    -0.361 N 
HETATM   19  C   UNL     1       4.195   1.691  19.562  1.00  0.00     0.120 A 
ATOM     20  HN  UNL     1       5.085   1.064  17.661  1.00  0.00     0.165 HD
ENDBRANCH  15  17
ENDBRANCH  13  15
ENDBRANCH  10  11
ENDBRANCH   1  10
BRANCH   1  21
HETATM   21  C   UNL     1      10.064  -1.126  23.941  1.00  0.00     0.078 C 
BRANCH  21  22
HETATM   22  C   UNL     1      11.244  -1.499  22.934  1.00  0.00     0.123 A 
HETATM   23  C   UNL     1      12.036  -0.916  23.641  1.00  0.00     0.081 A 
HETATM   24  N   UNL     1      12.448  -1.642  23.078  1.00  0.00    -0.391 N 
ATOM     25  HN  UNL     1      13.292  -2.149  22.810  1.00  0.00     0.159 HD
ENDBRANCH  21  22
ENDBRANCH   1  21
TORSDOF 10
ENDMDL
MODEL 7
REMARK VINA RESULT:    -5.502      2.289      2.501
REMARK INTER + INTRA:          -9.364
REMARK INTER:                  -8.111
REMARK INTRA:                  -1.252
REMARK UNBOUND:                -0.645
REMARK  10 active torsions:
REMARK  status: ('A' for Active; 'I' for Inactive)
REMARK    1  A    between atoms: S_2  and  N_5 
REMARK    2  A    between atoms: N_5  and  C_7 
REMARK    3  A    between atoms: C_7  and  C_8 
REMARK    4  A    between atoms: C_8  and  C_9 
REMARK    5  A    between atoms: C_9  and  C_15 
REMARK    6  A    between atoms: C_9  and  C_14 
REMARK    7  A    between atoms: C_13  and  C_14 
REMARK    8  A    between atoms: C_15  and  C_16 
REMARK       I    between atoms: C_16  and  N_18 
REMARK    9  A    between atoms: N_18  and  C_20 
REMARK   10  A    between atoms: C_20  and  C_21 
ROOT
HETATM    1  C   UNL     1       7.953  -0.092  20.963  1.00  0.00     0.005 C 
ENDROOT
BRANCH   1   2
HETATM    2  C   UNL     1       9.137   0.490  21.420  1.00  0.00    -0.047 C 
BRANCH   2   3
HETATM    3  C   UNL     1      10.085   0.752  21.978  1.00  0.00     0.026 C 
BRANCH   3   4
HETATM    4  N   UNL     1      11.095   0.826  22.607  1.00  0.00    -0.229 N 
ATOM      5  HN  UNL     1      11.746   1.587  22.415  1.00  0.00     0.190 HD
BRANCH   4   6
HETATM    6  S   UNL     1      11.457  -0.249  23.759  1.00  0.00     0.327 S 
HETATM    7 CL   UNL     1      10.324   0.406  25.195  1.00  0.00     0.042 Cl
HETATM    8  O   UNL     1      11.036  -1.553  23.386  1.00  0.00    -0.188 OA
HETATM    9  O   UNL     1      12.755  -0.204  24.316  1.00  0.00    -0.188 OA
ENDBRANCH   4   6
ENDBRANCH   3   4
ENDBRANCH   2   3
ENDBRANCH   1   2
BRANCH   1  10
HETATM   10  C   UNL     1       7.749  -1.291  21.453  1.00  0.00     0.090 C 
BRANCH  10  11
HETATM   11  C   UNL     1       7.350  -2.235  22.315  1.00  0.00     0.246 C 
HETATM   12  O   UNL     1       6.236  -2.235  22.634  1.00  0.00    -0.268 OA
HETATM   13  N   UNL     1       8.333  -3.108  22.725  1.00  0.00    -0.322 N 
ATOM     14  HN  UNL     1       9.241  -3.118  22.261  1.00  0.00     0.169 HD
BRANCH  13  15
HETATM   15  C   UNL     1       8.084  -3.929  23.725  1.00  0.00     0.053 C 
HETATM   16  C   UNL     1       7.737  -5.093  23.441  1.00  0.00     0.045 C 
BRANCH  15  17
HETATM   17  C   UNL     1       8.087  -3.688  25.183  1.00  0.00     0.073 A 
HETATM   18  N   UNL     1       8.087  -3.603  26.445  1.00  0.00    -0.361 N 
HETATM   19  C   UNL     1       8.624  -2.755  25.715  1.00  0.00     0.120 A 
ATOM     20  HN  UNL     1       7.836  -3.960  27.366  1.00  0.00     0.165 HD
ENDBRANCH  15  17
ENDBRANCH  13  15
ENDBRANCH  10  11
ENDBRANCH   1  10
BRANCH   1  21
HETATM   21  C   UNL     1       7.408   0.327  19.939  1.00  0.00     0.078 C 
BRANCH  21  22
HETATM   22  C   UNL     1       5.930   0.877  20.180  1.00  0.00     0.123 A 
HETATM   23  C   UNL     1       5.649   0.636  19.027  1.00  0.00     0.081 A 
HETATM   24  N   UNL     1       4.856   0.642  19.648  1.00  0.00    -0.391 N 
ATOM     25  HN  UNL     1       3.848   0.530  19.757  1.00  0.00     0.159 HD
ENDBRANCH  21  22
ENDBRANCH   1  21
TORSDOF 10
ENDMDL
MODEL 8
REMARK VINA RESULT:    -5.376     22.163     24.706
REMARK INTER + INTRA:          -9.163
REMARK INTER:                  -8.339
REMARK INTRA:                  -0.824
REMARK UNBOUND:                -0.645
REMARK  10 active torsions:
REMARK  status: ('A' for Active; 'I' for Inactive)
REMARK    1  A    between atoms: S_2  and  N_5 
REMARK    2  A    between atoms: N_5  and  C_7 
REMARK    3  A    between atoms: C_7  and  C_8 
REMARK    4  A    between atoms: C_8  and  C_9 
REMARK    5  A    between atoms: C_9  and  C_15 
REMARK    6  A    between atoms: C_9  and  C_14 
REMARK    7  A    between atoms: C_13  and  C_14 
REMARK    8  A    between atoms: C_15  and  C_16 
REMARK       I    between atoms: C_16  and  N_18 
REMARK    9  A    between atoms: N_18  and  C_20 
REMARK   10  A    between atoms: C_20  and  C_21 
ROOT
HETATM    1  C   UNL     1       8.587  14.247   3.200  1.00  0.00     0.005 C 
ENDROOT
BRANCH   1   2
HETATM    2  C   UNL     1       8.177  15.087   2.162  1.00  0.00    -0.047 C 
BRANCH   2   3
HETATM    3  C   UNL     1       7.936  15.969   1.498  1.00  0.00     0.026 C 
BRANCH   3   4
HETATM    4  N   UNL     1       7.576  16.970   0.960  1.00  0.00    -0.229 N 
ATOM      5  HN  UNL     1       6.601  17.058   0.674  1.00  0.00     0.190 HD
BRANCH   4   6
HETATM    6  S   UNL     1       8.595  18.193   0.672  1.00  0.00     0.327 S 
HETATM    7 CL   UNL     1       9.357  18.415   2.445  1.00  0.00     0.042 Cl
HETATM    8  O   UNL     1       9.616  17.799  -0.232  1.00  0.00    -0.188 OA
HETATM    9  O   UNL     1       8.038  19.460   0.390  1.00  0.00    -0.188 OA
ENDBRANCH   4   6
ENDBRANCH   3   4
ENDBRANCH   2   3
ENDBRANCH   1   2
BRANCH   1  10
HETATM   10  C   UNL     1       7.856  13.163   3.302  1.00  0.00     0.090 C 
BRANCH  10  11
HETATM   11  C   UNL     1       7.542  11.893   3.581  1.00  0.00     0.246 C 
HETATM   12  O   UNL     1       8.364  11.228   4.057  1.00  0.00    -0.268 OA
HETATM   13  N   UNL     1       6.253  11.523   3.264  1.00  0.00    -0.322 N 
ATOM     14  HN  UNL     1       5.564  12.226   2.999  1.00  0.00     0.169 HD
BRANCH  13  15
HETATM   15  C   UNL     1       5.925  10.248   3.307  1.00  0.00     0.053 C 
HETATM   16  C   UNL     1       5.609   9.698   2.233  1.00  0.00     0.045 C 
BRANCH  15  17
HETATM   17  C   UNL     1       5.803   9.331   4.460  1.00  0.00     0.073 A 
HETATM   18  N   UNL     1       5.732   8.640   5.517  1.00  0.00    -0.361 N 
HETATM   19  C   UNL     1       5.032   8.414   4.518  1.00  0.00     0.120 A 
ATOM     20  HN  UNL     1       6.027   8.428   6.469  1.00  0.00     0.165 HD
ENDBRANCH  15  17
ENDBRANCH  13  15
ENDBRANCH  10  11
ENDBRANCH   1  10
BRANCH   1  21
HETATM   21  C   UNL     1       9.285  14.686   4.117  1.00  0.00     0.078 C 
BRANCH  21  22
HETATM   22  C   UNL     1      10.785  15.009   3.680  1.00  0.00     0.123 A 
HETATM   23  C   UNL     1      11.031  15.399   4.800  1.00  0.00     0.081 A 
HETATM   24  N   UNL     1      11.838  15.070   4.296  1.00  0.00    -0.391 N 
ATOM     25  HN  UNL     1      12.844  14.902   4.298  1.00  0.00     0.159 HD
ENDBRANCH  21  22
ENDBRANCH   1  21
TORSDOF 10
ENDMDL
MODEL 9
REMARK VINA RESULT:    -5.374     24.665     27.217
REMARK INTER + INTRA:          -9.161
REMARK INTER:                  -8.301
REMARK INTRA:                  -0.859
REMARK UNBOUND:                -0.645
REMARK  10 active torsions:
REMARK  status: ('A' for Active; 'I' for Inactive)
REMARK    1  A    between atoms: S_2  and  N_5 
REMARK    2  A    between atoms: N_5  and  C_7 
REMARK    3  A    between atoms: C_7  and  C_8 
REMARK    4  A    between atoms: C_8  and  C_9 
REMARK    5  A    between atoms: C_9  and  C_15 
REMARK    6  A    between atoms: C_9  and  C_14 
REMARK    7  A    between atoms: C_13  and  C_14 
REMARK    8  A    between atoms: C_15  and  C_16 
REMARK       I    between atoms: C_16  and  N_18 
REMARK    9  A    between atoms: N_18  and  C_20 
REMARK   10  A    between atoms: C_20  and  C_21 
ROOT
HETATM    1  C   UNL     1       8.689  15.514   2.248  1.00  0.00     0.005 C 
ENDROOT
BRANCH   1   2
HETATM    2  C   UNL     1       8.085  14.455   1.566  1.00  0.00    -0.047 C 
BRANCH   2   3
HETATM    3  C   UNL     1       7.485  13.544   1.268  1.00  0.00     0.026 C 
BRANCH   3   4
HETATM    4  N   UNL     1       7.027  12.480   0.989  1.00  0.00    -0.229 N 
ATOM      5  HN  UNL     1       7.078  12.155   0.023  1.00  0.00     0.190 HD
BRANCH   4   6
HETATM    6  S   UNL     1       6.327  11.538   2.101  1.00  0.00     0.327 S 
HETATM    7 CL   UNL     1       7.793  11.369   3.365  1.00  0.00     0.042 Cl
HETATM    8  O   UNL     1       5.243  12.211   2.726  1.00  0.00    -0.188 OA
HETATM    9  O   UNL     1       6.042  10.201   1.745  1.00  0.00    -0.188 OA
ENDBRANCH   4   6
ENDBRANCH   3   4
ENDBRANCH   2   3
ENDBRANCH   1   2
BRANCH   1  10
HETATM   10  C   UNL     1       9.019  16.509   1.461  1.00  0.00     0.090 C 
BRANCH  10  11
HETATM   11  C   UNL     1       9.282  17.766   1.084  1.00  0.00     0.246 C 
HETATM   12  O   UNL     1       9.838  17.921   0.078  1.00  0.00    -0.268 OA
HETATM   13  N   UNL     1       8.853  18.742   1.956  1.00  0.00    -0.322 N 
ATOM     14  HN  UNL     1       8.234  18.506   2.732  1.00  0.00     0.169 HD
BRANCH  13  15
HETATM   15  C   UNL     1       9.252  19.984   1.773  1.00  0.00     0.053 C 
HETATM   16  C   UNL     1       8.442  20.779   1.255  1.00  0.00     0.045 C 
BRANCH  15  17
HETATM   17  C   UNL     1      10.564  20.614   2.033  1.00  0.00     0.073 A 
HETATM   18  N   UNL     1      11.633  21.260   2.228  1.00  0.00    -0.361 N 
HETATM   19  C   UNL     1      11.368  20.205   2.824  1.00  0.00     0.120 A 
ATOM     20  HN  UNL     1      12.249  22.050   2.039  1.00  0.00     0.165 HD
ENDBRANCH  15  17
ENDBRANCH  13  15
ENDBRANCH  10  11
ENDBRANCH   1  10
BRANCH   1  21
HETATM   21  C   UNL     1       9.186  15.333   3.362  1.00  0.00     0.078 C 
BRANCH  21  22
HETATM   22  C   UNL     1      10.746  14.999   3.320  1.00  0.00     0.123 A 
HETATM   23  C   UNL     1      10.898  15.556   4.384  1.00  0.00     0.081 A 
HETATM   24  N   UNL     1      11.591  14.852   4.190  1.00  0.00    -0.391 N 
ATOM     25  HN  UNL     1      12.426  14.357   4.503  1.00  0.00     0.159 HD
ENDBRANCH  21  22
ENDBRANCH   1  21
TORSDOF 10
ENDMDL
