REMARK  10 active torsions:
REMARK  status: ('A' for Active; 'I' for Inactive)
REMARK    1  A    between atoms: S_2  and  N_5 
REMARK    2  A    between atoms: N_5  and  C_7 
REMARK    3  A    between atoms: C_7  and  C_8 
REMARK    4  A    between atoms: C_8  and  C_9 
REMARK    5  A    between atoms: C_9  and  C_15 
REMARK    6  A    between atoms: C_9  and  C_14 
REMARK    7  A    between atoms: C_13  and  C_14 
REMARK    8  A    between atoms: C_15  and  C_16 
REMARK       I    between atoms: C_16  and  N_18 
REMARK    9  A    between atoms: N_18  and  C_20 
REMARK   10  A    between atoms: C_20  and  C_21 
ROOT
HETATM    1  C   UNL     1      10.311  -1.302  23.128  1.00  0.00     0.005 C 
ENDROOT
BRANCH   1   2
HETATM    2  C   UNL     1       9.337  -2.127  23.695  1.00  0.00    -0.047 C 
BRANCH   2   3
HETATM    3  C   UNL     1       8.772  -2.955  24.218  1.00  0.00     0.026 C 
BRANCH   3   4
HETATM    4  N   UNL     1       8.009  -3.744  24.683  1.00  0.00    -0.229 N 
ATOM      5  HN  UNL     1       7.188  -4.019  24.144  1.00  0.00     0.190 HD
BRANCH   4   6
HETATM    6  S   UNL     1       8.243  -4.390  26.147  1.00  0.00     0.327 S 
HETATM    7 CL   UNL     1       6.445  -5.024  26.522  1.00  0.00     0.042 Cl
HETATM    8  O   UNL     1       9.127  -5.499  26.076  1.00  0.00    -0.188 OA
HETATM    9  O   UNL     1       8.513  -3.510  27.218  1.00  0.00    -0.188 OA
ENDBRANCH   4   6
ENDBRANCH   3   4
ENDBRANCH   2   3
ENDBRANCH   1   2
BRANCH   1  10
HETATM   10  C   UNL     1       9.809  -0.383  22.339  1.00  0.00     0.090 C 
BRANCH  10  11
HETATM   11  C   UNL     1       9.050   0.155  21.377  1.00  0.00     0.246 C 
HETATM   12  O   UNL     1       9.443   1.112  20.854  1.00  0.00    -0.268 OA
HETATM   13  N   UNL     1       7.870  -0.508  21.121  1.00  0.00    -0.322 N 
ATOM     14  HN  UNL     1       7.696  -1.428  21.525  1.00  0.00     0.169 HD
BRANCH  13  15
HETATM   15  C   UNL     1       6.970   0.063  20.347  1.00  0.00     0.053 C 
HETATM   16  C   UNL     1       5.958   0.543  20.897  1.00  0.00     0.045 C 
BRANCH  15  17
HETATM   17  C   UNL     1       6.918   0.191  18.875  1.00  0.00     0.073 A 
HETATM   18  N   UNL     1       6.945   0.202  17.611  1.00  0.00    -0.361 N 
HETATM   19  C   UNL     1       5.982   0.630  18.266  1.00  0.00     0.120 A 
ATOM     20  HN  UNL     1       7.408   0.007  16.724  1.00  0.00     0.165 HD
ENDBRANCH  15  17
ENDBRANCH  13  15
ENDBRANCH  10  11
ENDBRANCH   1  10
BRANCH   1  21
HETATM   21  C   UNL     1      11.488  -1.669  23.084  1.00  0.00     0.078 C 
BRANCH  21  22
HETATM   22  C   UNL     1      12.530  -0.522  23.464  1.00  0.00     0.123 A 
HETATM   23  C   UNL     1      11.654   0.090  24.033  1.00  0.00     0.081 A 
HETATM   24  N   UNL     1      12.580   0.291  24.374  1.00  0.00    -0.391 N 
ATOM     25  HN  UNL     1      13.161   0.814  25.029  1.00  0.00     0.159 HD
ENDBRANCH  21  22
ENDBRANCH   1  21
TORSDOF 10
