MODEL 1
REMARK VINA RESULT:    -6.353      0.000      0.000
REMARK INTER + INTRA:         -10.058
REMARK INTER:                  -8.953
REMARK INTRA:                  -1.105
REMARK UNBOUND:                -1.105
REMARK  7 active torsions:
REMARK  status: ('A' for Active; 'I' for Inactive)
REMARK    1  A    between atoms: S_2  and  N_5 
REMARK    2  A    between atoms: N_5  and  C_7 
REMARK    3  A    between atoms: C_8  and  C_9 
REMARK    4  A    between atoms: C_9  and  C_13 
REMARK    5  A    between atoms: C_9  and  S_10 
REMARK    6  A    between atoms: S_10  and  C_11 
REMARK    7  A    between atoms: C_13  and  C_14 
REMARK       I    between atoms: C_14  and  N_16 
ROOT
HETATM    1  C   UNL     1       8.894  -1.101  21.944  1.00  0.00    -0.055 C 
ENDROOT
BRANCH   1   2
HETATM    2  C   UNL     1       9.408  -1.668  22.838  1.00  0.00     0.208 C 
BRANCH   2   3
HETATM    3  C   UNL     1       8.597  -2.605  23.100  1.00  0.00    -0.055 C 
HETATM    4  C   UNL     1       7.676  -3.177  23.237  1.00  0.00     0.024 C 
BRANCH   4   5
HETATM    5  N   UNL     1       6.850  -3.894  23.141  1.00  0.00    -0.224 N 
ATOM      6  HN  UNL     1       6.710  -4.432  23.996  1.00  0.00     0.192 HD
BRANCH   5   7
HETATM    7  S   UNL     1       5.798  -4.309  21.979  1.00  0.00     0.216 S 
HETATM    8  O   UNL     1       5.645  -3.035  21.168  1.00  0.00    -0.577 OA
HETATM    9  O   UNL     1       6.390  -5.362  21.180  1.00  0.00    -0.577 OA
HETATM   10  O   UNL     1       4.557  -4.693  22.514  1.00  0.00    -0.577 OA
ENDBRANCH   5   7
ENDBRANCH   4   5
ENDBRANCH   2   3
BRANCH   2  11
HETATM   11  S   UNL     1      10.565  -1.081  24.042  1.00  0.00    -0.113 SA
BRANCH  11  12
HETATM   12  C   UNL     1      11.705  -1.558  23.175  1.00  0.00     0.037 C 
HETATM   13  C   UNL     1      13.002  -1.633  23.092  1.00  0.00     0.018 C 
ENDBRANCH  11  12
ENDBRANCH   2  11
ENDBRANCH   1   2
BRANCH   1  14
HETATM   14  C   UNL     1       8.519  -0.207  21.041  1.00  0.00     0.291 C 
HETATM   15  N   UNL     1       7.338  -0.501  20.469  1.00  0.00    -0.302 N 
HETATM   16  C   UNL     1       6.750   0.248  19.632  1.00  0.00     0.123 A 
ATOM     17  HN  UNL     1       6.888  -1.379  20.724  1.00  0.00     0.171 HD
HETATM   18  N   UNL     1       7.065   0.462  18.390  1.00  0.00    -0.286 N 
HETATM   19  C   UNL     1       5.471   0.921  20.066  1.00  0.00     0.051 A 
HETATM   20  N   UNL     1       6.583   1.061  17.475  1.00  0.00    -0.310 N 
ATOM     21  HN  UNL     1       7.939   0.005  18.132  1.00  0.00     0.188 HD
HETATM   22  C   UNL     1       5.665   1.554  17.925  1.00  0.00     0.107 A 
ATOM     23  HN  UNL     1       6.919   1.117  16.514  1.00  0.00     0.186 HD
HETATM   24  C   UNL     1       5.139   1.511  19.053  1.00  0.00     0.022 A 
HETATM   25  O   UNL     1       9.228   0.694  20.897  1.00  0.00    -0.259 OA
ENDBRANCH   1  14
TORSDOF 7
ENDMDL
MODEL 2
REMARK VINA RESULT:    -6.080      2.375      2.506
REMARK INTER + INTRA:          -9.673
REMARK INTER:                  -8.889
REMARK INTRA:                  -0.784
REMARK UNBOUND:                -1.105
REMARK  7 active torsions:
REMARK  status: ('A' for Active; 'I' for Inactive)
REMARK    1  A    between atoms: S_2  and  N_5 
REMARK    2  A    between atoms: N_5  and  C_7 
REMARK    3  A    between atoms: C_8  and  C_9 
REMARK    4  A    between atoms: C_9  and  C_13 
REMARK    5  A    between atoms: C_9  and  S_10 
REMARK    6  A    between atoms: S_10  and  C_11 
REMARK    7  A    between atoms: C_13  and  C_14 
REMARK       I    between atoms: C_14  and  N_16 
ROOT
HETATM    1  C   UNL     1       9.343  -0.912  22.064  1.00  0.00    -0.055 C 
ENDROOT
BRANCH   1   2
HETATM    2  C   UNL     1      10.043  -1.557  22.755  1.00  0.00     0.208 C 
BRANCH   2   3
HETATM    3  C   UNL     1       9.241  -2.090  23.577  1.00  0.00    -0.055 C 
HETATM    4  C   UNL     1       8.808  -2.760  24.324  1.00  0.00     0.024 C 
BRANCH   4   5
HETATM    5  N   UNL     1       8.403  -3.199  25.245  1.00  0.00    -0.224 N 
ATOM      6  HN  UNL     1       8.079  -2.487  25.899  1.00  0.00     0.192 HD
BRANCH   5   7
HETATM    7  S   UNL     1       8.191  -4.700  25.823  1.00  0.00     0.216 S 
HETATM    8  O   UNL     1       6.726  -4.982  25.549  1.00  0.00    -0.577 OA
HETATM    9  O   UNL     1       9.040  -5.603  25.072  1.00  0.00    -0.577 OA
HETATM   10  O   UNL     1       8.448  -4.767  27.202  1.00  0.00    -0.577 OA
ENDBRANCH   5   7
ENDBRANCH   4   5
ENDBRANCH   2   3
BRANCH   2  11
HETATM   11  S   UNL     1      11.762  -1.360  23.134  1.00  0.00    -0.113 SA
BRANCH  11  12
HETATM   12  C   UNL     1      11.445  -0.100  23.902  1.00  0.00     0.037 C 
HETATM   13  C   UNL     1      11.770   1.152  24.048  1.00  0.00     0.018 C 
ENDBRANCH  11  12
ENDBRANCH   2  11
ENDBRANCH   1   2
BRANCH   1  14
HETATM   14  C   UNL     1       8.853  -0.082  21.155  1.00  0.00     0.291 C 
HETATM   15  N   UNL     1       7.699  -0.513  20.617  1.00  0.00    -0.302 N 
HETATM   16  C   UNL     1       7.014   0.151  19.782  1.00  0.00     0.123 A 
ATOM     17  HN  UNL     1       7.352  -1.430  20.899  1.00  0.00     0.171 HD
HETATM   18  N   UNL     1       7.275   0.373  18.530  1.00  0.00    -0.286 N 
HETATM   19  C   UNL     1       5.679   0.691  20.236  1.00  0.00     0.051 A 
HETATM   20  N   UNL     1       6.711   0.899  17.617  1.00  0.00    -0.310 N 
ATOM     21  HN  UNL     1       8.188   0.009  18.258  1.00  0.00     0.188 HD
HETATM   22  C   UNL     1       5.756   1.299  18.081  1.00  0.00     0.107 A 
ATOM     23  HN  UNL     1       7.017   0.972  16.647  1.00  0.00     0.186 HD
HETATM   24  C   UNL     1       5.263   1.222  19.222  1.00  0.00     0.022 A 
HETATM   25  O   UNL     1       9.457   0.887  20.978  1.00  0.00    -0.259 OA
ENDBRANCH   1  14
TORSDOF 7
ENDMDL
MODEL 3
REMARK VINA RESULT:    -5.954      3.318      6.812
REMARK INTER + INTRA:          -9.496
REMARK INTER:                  -8.802
REMARK INTRA:                  -0.694
REMARK UNBOUND:                -1.105
REMARK  7 active torsions:
REMARK  status: ('A' for Active; 'I' for Inactive)
REMARK    1  A    between atoms: S_2  and  N_5 
REMARK    2  A    between atoms: N_5  and  C_7 
REMARK    3  A    between atoms: C_8  and  C_9 
REMARK    4  A    between atoms: C_9  and  C_13 
REMARK    5  A    between atoms: C_9  and  S_10 
REMARK    6  A    between atoms: S_10  and  C_11 
REMARK    7  A    between atoms: C_13  and  C_14 
REMARK       I    between atoms: C_14  and  N_16 
ROOT
HETATM    1  C   UNL     1       8.800  -3.135  23.733  1.00  0.00    -0.055 C 
ENDROOT
BRANCH   1   2
HETATM    2  C   UNL     1       9.075  -2.130  23.185  1.00  0.00     0.208 C 
BRANCH   2   3
HETATM    3  C   UNL     1       8.008  -1.822  22.577  1.00  0.00    -0.055 C 
HETATM    4  C   UNL     1       7.269  -1.283  21.979  1.00  0.00     0.024 C 
BRANCH   4   5
HETATM    5  N   UNL     1       6.581  -0.954  21.190  1.00  0.00    -0.224 N 
ATOM      6  HN  UNL     1       5.638  -1.317  21.328  1.00  0.00     0.192 HD
BRANCH   5   7
HETATM    7  S   UNL     1       6.691  -0.034  19.859  1.00  0.00     0.216 S 
HETATM    8  O   UNL     1       5.991   1.252  20.257  1.00  0.00    -0.577 OA
HETATM    9  O   UNL     1       8.093   0.206  19.584  1.00  0.00    -0.577 OA
HETATM   10  O   UNL     1       6.036  -0.623  18.764  1.00  0.00    -0.577 OA
ENDBRANCH   5   7
ENDBRANCH   4   5
ENDBRANCH   2   3
BRANCH   2  11
HETATM   11  S   UNL     1      10.651  -1.514  22.663  1.00  0.00    -0.113 SA
BRANCH  11  12
HETATM   12  C   UNL     1      10.898  -0.977  24.052  1.00  0.00     0.037 C 
HETATM   13  C   UNL     1      11.171   0.101  24.728  1.00  0.00     0.018 C 
ENDBRANCH  11  12
ENDBRANCH   2  11
ENDBRANCH   1   2
BRANCH   1  14
HETATM   14  C   UNL     1       8.225  -4.080  24.461  1.00  0.00     0.291 C 
HETATM   15  N   UNL     1       8.112  -3.747  25.759  1.00  0.00    -0.302 N 
HETATM   16  C   UNL     1       7.531  -4.465  26.627  1.00  0.00     0.123 A 
ATOM     17  HN  UNL     1       8.519  -2.863  26.064  1.00  0.00     0.171 HD
HETATM   18  N   UNL     1       7.950  -5.573  27.161  1.00  0.00    -0.286 N 
HETATM   19  C   UNL     1       6.231  -3.959  27.204  1.00  0.00     0.051 A 
HETATM   20  N   UNL     1       7.566  -6.308  28.021  1.00  0.00    -0.310 N 
ATOM     21  HN  UNL     1       8.821  -5.895  26.741  1.00  0.00     0.188 HD
HETATM   22  C   UNL     1       6.577  -5.856  28.345  1.00  0.00     0.107 A 
ATOM     23  HN  UNL     1       8.023  -7.146  28.381  1.00  0.00     0.186 HD
HETATM   24  C   UNL     1       5.961  -4.825  28.018  1.00  0.00     0.022 A 
HETATM   25  O   UNL     1       7.882  -5.023  23.888  1.00  0.00    -0.259 OA
ENDBRANCH   1  14
TORSDOF 7
ENDMDL
MODEL 4
REMARK VINA RESULT:    -5.926      3.272      6.102
REMARK INTER + INTRA:          -9.456
REMARK INTER:                  -8.737
REMARK INTRA:                  -0.719
REMARK UNBOUND:                -1.105
REMARK  7 active torsions:
REMARK  status: ('A' for Active; 'I' for Inactive)
REMARK    1  A    between atoms: S_2  and  N_5 
REMARK    2  A    between atoms: N_5  and  C_7 
REMARK    3  A    between atoms: C_8  and  C_9 
REMARK    4  A    between atoms: C_9  and  C_13 
REMARK    5  A    between atoms: C_9  and  S_10 
REMARK    6  A    between atoms: S_10  and  C_11 
REMARK    7  A    between atoms: C_13  and  C_14 
REMARK       I    between atoms: C_14  and  N_16 
ROOT
HETATM    1  C   UNL     1       7.878  -2.347  22.906  1.00  0.00    -0.055 C 
ENDROOT
BRANCH   1   2
HETATM    2  C   UNL     1       6.873  -2.543  22.325  1.00  0.00     0.208 C 
BRANCH   2   3
HETATM    3  C   UNL     1       6.620  -1.426  21.785  1.00  0.00    -0.055 C 
HETATM    4  C   UNL     1       6.668  -0.550  21.134  1.00  0.00     0.024 C 
BRANCH   4   5
HETATM    5  N   UNL     1       6.473   0.215  20.371  1.00  0.00    -0.224 N 
ATOM      6  HN  UNL     1       6.329   1.137  20.782  1.00  0.00     0.192 HD
BRANCH   5   7
HETATM    7  S   UNL     1       6.356   0.243  18.754  1.00  0.00     0.216 S 
HETATM    8  O   UNL     1       5.392   1.385  18.487  1.00  0.00    -0.577 OA
HETATM    9  O   UNL     1       7.665   0.534  18.206  1.00  0.00    -0.577 OA
HETATM   10  O   UNL     1       5.833  -0.959  18.249  1.00  0.00    -0.577 OA
ENDBRANCH   5   7
ENDBRANCH   4   5
ENDBRANCH   2   3
BRANCH   2  11
HETATM   11  S   UNL     1       5.601  -3.738  22.624  1.00  0.00    -0.113 SA
BRANCH  11  12
HETATM   12  C   UNL     1       6.573  -4.848  22.308  1.00  0.00     0.037 C 
HETATM   13  C   UNL     1       6.749  -5.916  21.584  1.00  0.00     0.018 C 
ENDBRANCH  11  12
ENDBRANCH   2  11
ENDBRANCH   1   2
BRANCH   1  14
HETATM   14  C   UNL     1       9.121  -2.382  23.361  1.00  0.00     0.291 C 
HETATM   15  N   UNL     1       9.839  -1.299  23.014  1.00  0.00    -0.302 N 
HETATM   16  C   UNL     1      11.028  -1.084  23.398  1.00  0.00     0.123 A 
ATOM     17  HN  UNL     1       9.401  -0.609  22.404  1.00  0.00     0.171 HD
HETATM   18  N   UNL     1      12.115  -1.675  23.007  1.00  0.00    -0.286 N 
HETATM   19  C   UNL     1      11.260   0.054  24.362  1.00  0.00     0.051 A 
HETATM   20  N   UNL     1      13.285  -1.540  23.210  1.00  0.00    -0.310 N 
ATOM     21  HN  UNL     1      11.923  -2.446  22.368  1.00  0.00     0.188 HD
HETATM   22  C   UNL     1      13.334  -0.699  23.970  1.00  0.00     0.107 A 
ATOM     23  HN  UNL     1      14.059  -2.060  22.796  1.00  0.00     0.186 HD
HETATM   24  C   UNL     1      12.472   0.031  24.494  1.00  0.00     0.022 A 
HETATM   25  O   UNL     1       9.399  -3.302  24.004  1.00  0.00    -0.259 OA
ENDBRANCH   1  14
TORSDOF 7
ENDMDL
MODEL 5
REMARK VINA RESULT:    -5.862      2.972      4.917
REMARK INTER + INTRA:          -9.366
REMARK INTER:                  -8.524
REMARK INTRA:                  -0.843
REMARK UNBOUND:                -1.105
REMARK  7 active torsions:
REMARK  status: ('A' for Active; 'I' for Inactive)
REMARK    1  A    between atoms: S_2  and  N_5 
REMARK    2  A    between atoms: N_5  and  C_7 
REMARK    3  A    between atoms: C_8  and  C_9 
REMARK    4  A    between atoms: C_9  and  C_13 
REMARK    5  A    between atoms: C_9  and  S_10 
REMARK    6  A    between atoms: S_10  and  C_11 
REMARK    7  A    between atoms: C_13  and  C_14 
REMARK       I    between atoms: C_14  and  N_16 
ROOT
HETATM    1  C   UNL     1       7.711  -1.700  23.962  1.00  0.00    -0.055 C 
ENDROOT
BRANCH   1   2
HETATM    2  C   UNL     1       7.672  -1.662  25.137  1.00  0.00     0.208 C 
BRANCH   2   3
HETATM    3  C   UNL     1       8.649  -0.916  25.443  1.00  0.00    -0.055 C 
HETATM    4  C   UNL     1       9.645  -0.469  25.480  1.00  0.00     0.024 C 
BRANCH   4   5
HETATM    5  N   UNL     1      10.510   0.200  25.388  1.00  0.00    -0.224 N 
ATOM      6  HN  UNL     1      10.595   0.828  26.187  1.00  0.00     0.192 HD
BRANCH   5   7
HETATM    7  S   UNL     1      11.686   0.439  24.297  1.00  0.00     0.216 S 
HETATM    8  O   UNL     1      11.649   1.937  24.056  1.00  0.00    -0.577 OA
HETATM    9  O   UNL     1      12.947   0.043  24.889  1.00  0.00    -0.577 OA
HETATM   10  O   UNL     1      11.431  -0.250  23.099  1.00  0.00    -0.577 OA
ENDBRANCH   5   7
ENDBRANCH   4   5
ENDBRANCH   2   3
BRANCH   2  11
HETATM   11  S   UNL     1       6.995  -2.822  26.291  1.00  0.00    -0.113 SA
BRANCH  11  12
HETATM   12  C   UNL     1       7.970  -3.868  25.805  1.00  0.00     0.037 C 
HETATM   13  C   UNL     1       8.410  -5.074  26.020  1.00  0.00     0.018 C 
ENDBRANCH  11  12
ENDBRANCH   2  11
ENDBRANCH   1   2
BRANCH   1  14
HETATM   14  C   UNL     1       7.432  -1.851  22.676  1.00  0.00     0.291 C 
HETATM   15  N   UNL     1       7.014  -0.715  22.091  1.00  0.00    -0.302 N 
HETATM   16  C   UNL     1       6.761  -0.606  20.854  1.00  0.00     0.123 A 
ATOM     17  HN  UNL     1       6.894   0.110  22.678  1.00  0.00     0.171 HD
HETATM   18  N   UNL     1       5.741  -1.074  20.201  1.00  0.00    -0.286 N 
HETATM   19  C   UNL     1       7.689   0.242  20.017  1.00  0.00     0.051 A 
HETATM   20  N   UNL     1       5.330  -0.995  19.081  1.00  0.00    -0.310 N 
ATOM     21  HN  UNL     1       5.142  -1.652  20.790  1.00  0.00     0.188 HD
HETATM   22  C   UNL     1       6.119  -0.382  18.544  1.00  0.00     0.107 A 
ATOM     23  HN  UNL     1       4.471  -1.388  18.698  1.00  0.00     0.186 HD
HETATM   24  C   UNL     1       7.163   0.185  18.919  1.00  0.00     0.022 A 
HETATM   25  O   UNL     1       7.612  -2.906  22.240  1.00  0.00    -0.259 OA
ENDBRANCH   1  14
TORSDOF 7
ENDMDL
MODEL 6
REMARK VINA RESULT:    -5.746     25.390     28.203
REMARK INTER + INTRA:          -9.202
REMARK INTER:                  -8.123
REMARK INTRA:                  -1.079
REMARK UNBOUND:                -1.105
REMARK  7 active torsions:
REMARK  status: ('A' for Active; 'I' for Inactive)
REMARK    1  A    between atoms: S_2  and  N_5 
REMARK    2  A    between atoms: N_5  and  C_7 
REMARK    3  A    between atoms: C_8  and  C_9 
REMARK    4  A    between atoms: C_9  and  C_13 
REMARK    5  A    between atoms: C_9  and  S_10 
REMARK    6  A    between atoms: S_10  and  C_11 
REMARK    7  A    between atoms: C_13  and  C_14 
REMARK       I    between atoms: C_14  and  N_16 
ROOT
HETATM    1  C   UNL     1       9.644  19.702   0.863  1.00  0.00    -0.055 C 
ENDROOT
BRANCH   1   2
HETATM    2  C   UNL     1      10.087  20.791   0.839  1.00  0.00     0.208 C 
BRANCH   2   3
HETATM    3  C   UNL     1      10.915  20.796   1.798  1.00  0.00    -0.055 C 
HETATM    4  C   UNL     1      11.375  20.638   2.777  1.00  0.00     0.024 C 
BRANCH   4   5
HETATM    5  N   UNL     1      12.004  20.295   3.608  1.00  0.00    -0.224 N 
ATOM      6  HN  UNL     1      12.710  20.985   3.864  1.00  0.00     0.192 HD
BRANCH   5   7
HETATM    7  S   UNL     1      12.088  18.964   4.531  1.00  0.00     0.216 S 
HETATM    8  O   UNL     1      12.489  19.501   5.893  1.00  0.00    -0.577 OA
HETATM    9  O   UNL     1      10.773  18.359   4.582  1.00  0.00    -0.577 OA
HETATM   10  O   UNL     1      13.060  18.065   4.060  1.00  0.00    -0.577 OA
ENDBRANCH   5   7
ENDBRANCH   4   5
ENDBRANCH   2   3
BRANCH   2  11
HETATM   11  S   UNL     1       9.385  22.292   0.214  1.00  0.00    -0.113 SA
BRANCH  11  12
HETATM   12  C   UNL     1       8.173  22.087   1.090  1.00  0.00     0.037 C 
HETATM   13  C   UNL     1       6.877  22.196   1.133  1.00  0.00     0.018 C 
ENDBRANCH  11  12
ENDBRANCH   2  11
ENDBRANCH   1   2
BRANCH   1  14
HETATM   14  C   UNL     1       9.449  18.396   0.755  1.00  0.00     0.291 C 
HETATM   15  N   UNL     1       9.194  17.802   1.934  1.00  0.00    -0.302 N 
HETATM   16  C   UNL     1       8.906  16.575   2.062  1.00  0.00     0.123 A 
ATOM     17  HN  UNL     1       9.234  18.375   2.777  1.00  0.00     0.171 HD
HETATM   18  N   UNL     1       9.697  15.551   1.952  1.00  0.00    -0.286 N 
HETATM   19  C   UNL     1       7.500  16.222   2.482  1.00  0.00     0.051 A 
HETATM   20  N   UNL     1       9.599  14.371   2.114  1.00  0.00    -0.310 N 
ATOM     21  HN  UNL     1      10.634  15.821   1.655  1.00  0.00     0.188 HD
HETATM   22  C   UNL     1       8.506  14.222   2.380  1.00  0.00     0.107 A 
ATOM     23  HN  UNL     1      10.328  13.663   2.031  1.00  0.00     0.186 HD
HETATM   24  C   UNL     1       7.556  15.007   2.560  1.00  0.00     0.022 A 
HETATM   25  O   UNL     1       9.495  17.965  -0.317  1.00  0.00    -0.259 OA
ENDBRANCH   1  14
TORSDOF 7
ENDMDL
MODEL 7
REMARK VINA RESULT:    -5.683      2.641      5.560
REMARK INTER + INTRA:          -9.114
REMARK INTER:                  -8.113
REMARK INTRA:                  -1.001
REMARK UNBOUND:                -1.105
REMARK  7 active torsions:
REMARK  status: ('A' for Active; 'I' for Inactive)
REMARK    1  A    between atoms: S_2  and  N_5 
REMARK    2  A    between atoms: N_5  and  C_7 
REMARK    3  A    between atoms: C_8  and  C_9 
REMARK    4  A    between atoms: C_9  and  C_13 
REMARK    5  A    between atoms: C_9  and  S_10 
REMARK    6  A    between atoms: S_10  and  C_11 
REMARK    7  A    between atoms: C_13  and  C_14 
REMARK       I    between atoms: C_14  and  N_16 
ROOT
HETATM    1  C   UNL     1       7.837  -0.440  20.892  1.00  0.00    -0.055 C 
ENDROOT
BRANCH   1   2
HETATM    2  C   UNL     1       6.735  -0.629  20.525  1.00  0.00     0.208 C 
BRANCH   2   3
HETATM    3  C   UNL     1       6.334  -1.575  21.265  1.00  0.00    -0.055 C 
HETATM    4  C   UNL     1       6.303  -2.495  21.854  1.00  0.00     0.024 C 
BRANCH   4   5
HETATM    5  N   UNL     1       6.259  -3.231  22.667  1.00  0.00    -0.224 N 
ATOM      6  HN  UNL     1       5.374  -3.192  23.171  1.00  0.00     0.192 HD
BRANCH   5   7
HETATM    7  S   UNL     1       7.252  -4.366  23.265  1.00  0.00     0.216 S 
HETATM    8  O   UNL     1       8.540  -3.607  23.528  1.00  0.00    -0.577 OA
HETATM    9  O   UNL     1       6.685  -4.865  24.500  1.00  0.00    -0.577 OA
HETATM   10  O   UNL     1       7.480  -5.398  22.339  1.00  0.00    -0.577 OA
ENDBRANCH   5   7
ENDBRANCH   4   5
ENDBRANCH   2   3
BRANCH   2  11
HETATM   11  S   UNL     1       5.989  -0.302  18.953  1.00  0.00    -0.113 SA
BRANCH  11  12
HETATM   12  C   UNL     1       5.647   1.095  19.408  1.00  0.00     0.037 C 
HETATM   13  C   UNL     1       4.661   1.903  19.673  1.00  0.00     0.018 C 
ENDBRANCH  11  12
ENDBRANCH   2  11
ENDBRANCH   1   2
BRANCH   1  14
HETATM   14  C   UNL     1       8.931   0.041  21.464  1.00  0.00     0.291 C 
HETATM   15  N   UNL     1       9.418  -0.764  22.425  1.00  0.00    -0.302 N 
HETATM   16  C   UNL     1      10.495  -0.542  23.056  1.00  0.00     0.123 A 
ATOM     17  HN  UNL     1       8.890  -1.603  22.661  1.00  0.00     0.171 HD
HETATM   18  N   UNL     1      10.716   0.347  23.976  1.00  0.00    -0.286 N 
HETATM   19  C   UNL     1      11.664  -1.464  22.800  1.00  0.00     0.051 A 
HETATM   20  N   UNL     1      11.626   0.624  24.699  1.00  0.00    -0.310 N 
ATOM     21  HN  UNL     1       9.914   0.961  24.116  1.00  0.00     0.188 HD
HETATM   22  C   UNL     1      12.449  -0.094  24.390  1.00  0.00     0.107 A 
ATOM     23  HN  UNL     1      11.657   1.340  25.425  1.00  0.00     0.186 HD
HETATM   24  C   UNL     1      12.503  -1.029  23.569  1.00  0.00     0.022 A 
HETATM   25  O   UNL     1       9.321   1.045  21.046  1.00  0.00    -0.259 OA
ENDBRANCH   1  14
TORSDOF 7
ENDMDL
MODEL 8
REMARK VINA RESULT:    -5.665      3.084      5.393
REMARK INTER + INTRA:          -9.089
REMARK INTER:                  -8.263
REMARK INTRA:                  -0.826
REMARK UNBOUND:                -1.105
REMARK  7 active torsions:
REMARK  status: ('A' for Active; 'I' for Inactive)
REMARK    1  A    between atoms: S_2  and  N_5 
REMARK    2  A    between atoms: N_5  and  C_7 
REMARK    3  A    between atoms: C_8  and  C_9 
REMARK    4  A    between atoms: C_9  and  C_13 
REMARK    5  A    between atoms: C_9  and  S_10 
REMARK    6  A    between atoms: S_10  and  C_11 
REMARK    7  A    between atoms: C_13  and  C_14 
REMARK       I    between atoms: C_14  and  N_16 
ROOT
HETATM    1  C   UNL     1       8.136  -1.574  22.003  1.00  0.00    -0.055 C 
ENDROOT
BRANCH   1   2
HETATM    2  C   UNL     1       7.070  -1.205  21.669  1.00  0.00     0.208 C 
BRANCH   2   3
HETATM    3  C   UNL     1       6.335  -2.222  21.847  1.00  0.00    -0.055 C 
HETATM    4  C   UNL     1       5.937  -3.238  21.807  1.00  0.00     0.024 C 
BRANCH   4   5
HETATM    5  N   UNL     1       5.619  -4.262  22.045  1.00  0.00    -0.224 N 
ATOM      6  HN  UNL     1       4.715  -4.488  21.629  1.00  0.00     0.192 HD
BRANCH   5   7
HETATM    7  S   UNL     1       6.228  -5.503  22.893  1.00  0.00     0.216 S 
HETATM    8  O   UNL     1       7.144  -6.195  21.901  1.00  0.00    -0.577 OA
HETATM    9  O   UNL     1       6.984  -4.967  24.007  1.00  0.00    -0.577 OA
HETATM   10  O   UNL     1       5.221  -6.385  23.320  1.00  0.00    -0.577 OA
ENDBRANCH   5   7
ENDBRANCH   4   5
ENDBRANCH   2   3
BRANCH   2  11
HETATM   11  S   UNL     1       6.612   0.082  20.543  1.00  0.00    -0.113 SA
BRANCH  11  12
HETATM   12  C   UNL     1       7.073   1.116  21.542  1.00  0.00     0.037 C 
HETATM   13  C   UNL     1       7.900   2.105  21.725  1.00  0.00     0.018 C 
ENDBRANCH  11  12
ENDBRANCH   2  11
ENDBRANCH   1   2
BRANCH   1  14
HETATM   14  C   UNL     1       9.255  -1.821  22.666  1.00  0.00     0.291 C 
HETATM   15  N   UNL     1      10.197  -0.880  22.477  1.00  0.00    -0.302 N 
HETATM   16  C   UNL     1      11.319  -0.870  23.068  1.00  0.00     0.123 A 
ATOM     17  HN  UNL     1       9.996  -0.127  21.820  1.00  0.00     0.171 HD
HETATM   18  N   UNL     1      12.341  -1.642  22.856  1.00  0.00    -0.286 N 
HETATM   19  C   UNL     1      11.569   0.214  24.087  1.00  0.00     0.051 A 
HETATM   20  N   UNL     1      13.463  -1.709  23.262  1.00  0.00    -0.310 N 
ATOM     21  HN  UNL     1      12.136  -2.371  22.173  1.00  0.00     0.188 HD
HETATM   22  C   UNL     1      13.520  -0.886  24.042  1.00  0.00     0.107 A 
ATOM     23  HN  UNL     1      14.198  -2.356  22.976  1.00  0.00     0.186 HD
HETATM   24  C   UNL     1      12.716  -0.017  24.427  1.00  0.00     0.022 A 
HETATM   25  O   UNL     1       9.255  -2.772  23.322  1.00  0.00    -0.259 OA
ENDBRANCH   1  14
TORSDOF 7
ENDMDL
MODEL 9
REMARK VINA RESULT:    -5.564      3.153      6.215
REMARK INTER + INTRA:          -8.946
REMARK INTER:                  -7.849
REMARK INTRA:                  -1.097
REMARK UNBOUND:                -1.105
REMARK  7 active torsions:
REMARK  status: ('A' for Active; 'I' for Inactive)
REMARK    1  A    between atoms: S_2  and  N_5 
REMARK    2  A    between atoms: N_5  and  C_7 
REMARK    3  A    between atoms: C_8  and  C_9 
REMARK    4  A    between atoms: C_9  and  C_13 
REMARK    5  A    between atoms: C_9  and  S_10 
REMARK    6  A    between atoms: S_10  and  C_11 
REMARK    7  A    between atoms: C_13  and  C_14 
REMARK       I    between atoms: C_14  and  N_16 
ROOT
HETATM    1  C   UNL     1       7.180  -0.342  21.669  1.00  0.00    -0.055 C 
ENDROOT
BRANCH   1   2
HETATM    2  C   UNL     1       7.544   0.752  21.430  1.00  0.00     0.208 C 
BRANCH   2   3
HETATM    3  C   UNL     1       8.797   0.693  21.607  1.00  0.00    -0.055 C 
HETATM    4  C   UNL     1       9.779   0.616  22.079  1.00  0.00     0.024 C 
BRANCH   4   5
HETATM    5  N   UNL     1      10.765   0.279  22.424  1.00  0.00    -0.224 N 
ATOM      6  HN  UNL     1      11.518   0.864  22.061  1.00  0.00     0.192 HD
BRANCH   5   7
HETATM    7  S   UNL     1      11.322  -0.918  23.366  1.00  0.00     0.216 S 
HETATM    8  O   UNL     1      10.059  -1.604  23.851  1.00  0.00    -0.577 OA
HETATM    9  O   UNL     1      12.116  -1.812  22.548  1.00  0.00    -0.577 OA
HETATM   10  O   UNL     1      12.053  -0.421  24.459  1.00  0.00    -0.577 OA
ENDBRANCH   5   7
ENDBRANCH   4   5
ENDBRANCH   2   3
BRANCH   2  11
HETATM   11  S   UNL     1       6.666   2.287  21.521  1.00  0.00    -0.113 SA
BRANCH  11  12
HETATM   12  C   UNL     1       5.576   1.712  20.650  1.00  0.00     0.037 C 
HETATM   13  C   UNL     1       4.963   1.844  19.509  1.00  0.00     0.018 C 
ENDBRANCH  11  12
ENDBRANCH   2  11
ENDBRANCH   1   2
BRANCH   1  14
HETATM   14  C   UNL     1       6.816  -1.613  21.599  1.00  0.00     0.291 C 
HETATM   15  N   UNL     1       7.475  -2.397  22.471  1.00  0.00    -0.302 N 
HETATM   16  C   UNL     1       7.240  -3.632  22.632  1.00  0.00     0.123 A 
ATOM     17  HN  UNL     1       8.208  -1.972  23.038  1.00  0.00     0.171 HD
HETATM   18  N   UNL     1       7.541  -4.614  21.839  1.00  0.00    -0.286 N 
HETATM   19  C   UNL     1       6.614  -4.065  23.936  1.00  0.00     0.051 A 
HETATM   20  N   UNL     1       7.459  -5.806  21.880  1.00  0.00    -0.310 N 
ATOM     21  HN  UNL     1       7.949  -4.288  20.963  1.00  0.00     0.188 HD
HETATM   22  C   UNL     1       6.942  -6.009  22.870  1.00  0.00     0.107 A 
ATOM     23  HN  UNL     1       7.779  -6.482  21.187  1.00  0.00     0.186 HD
HETATM   24  C   UNL     1       6.563  -5.276  23.802  1.00  0.00     0.022 A 
HETATM   25  O   UNL     1       5.982  -1.860  20.839  1.00  0.00    -0.259 OA
ENDBRANCH   1  14
TORSDOF 7
ENDMDL
