stable:False satoms:7 tatoms:24 sratio:0.2916666666666667
  -OEChem-07092417433D

 24 24  0     1  0  0  0  0  0999 V2000
    6.7103   -4.7609   26.2578 O   0  0  0  0  0  0  0  0  0  0  0  0
    8.1643   -4.3486   26.1209 S   0  0  0  0  0  0  0  0  0  0  0  0
    9.0273   -5.5115   26.0643 O   0  0  0  0  0  0  0  0  0  0  0  0
    8.5222   -3.4823   27.1674 O   0  5  0  0  0  0  0  0  0  0  0  0
    8.2129   -3.6044   24.6808 N   0  0  0  0  0  0  0  0  0  0  0  0
    8.8839   -2.8900   24.1855 C   0  0  0  0  0  0  0  0  0  0  0  0
    9.3121   -2.0192   23.6843 C   0  0  0  0  0  0  0  0  0  0  0  0
    9.9857   -0.9725   23.4469 C   0  0  2  0  0  0  0  0  0  0  0  0
   10.7242   -0.0310   24.7521 S   0  0  0  0  0  0  0  0  0  0  0  0
   12.0515   -0.0856   24.0367 C   0  0  0  0  0  0  0  0  0  0  0  0
   13.6187   -0.3406   22.9773 H   0  0  0  0  0  0  0  0  0  0  0  0
   12.7004   -0.6637   23.0666 C   0  0  0  0  0  0  0  0  0  0  0  0
   12.2322   -1.4258   22.4797 H   0  0  0  0  0  0  0  0  0  0  0  0
    9.5960   -0.6266   22.3920 C   0  0  0  0  0  0  0  0  0  0  0  0
    9.0288    0.0234   21.3872 C   0  0  0  0  0  0  0  0  0  0  0  0
    9.5820    0.9689   21.0195 O   0  0  0  0  0  0  0  0  0  0  0  0
    7.8691   -0.5303   20.9915 N   0  0  0  0  0  0  0  0  0  0  0  0
    7.1184   -0.0379   20.0963 C   0  0  0  0  0  0  0  0  0  0  0  0
    7.3087   -0.0195   18.8124 N   0  0  0  0  0  0  0  0  0  0  0  0
    6.6797    0.3278   17.8569 N   0  0  0  0  0  0  0  0  0  0  0  0
    5.7323    0.7674   18.3003 C   0  0  0  0  0  0  0  0  0  0  0  0
    5.2978    0.8650   19.4631 C   0  0  0  0  0  0  0  0  0  0  0  0
    5.7850    0.5254   20.5272 C   0  0  0  0  0  0  0  0  0  0  0  0
    5.4406    0.5822   21.5302 H   0  0  0  0  0  0  0  0  0  0  0  0
 20 21  2  0  0  0  0
 19 20  1  0  0  0  0
 21 22  1  0  0  0  0
 18 19  2  0  0  0  0
 22 23  2  0  0  0  0
 18 23  1  0  0  0  0
 17 18  1  0  0  0  0
 23 24  1  0  0  0  0
 15 17  1  0  0  0  0
 15 16  2  0  0  0  0
 14 15  1  0  0  0  0
  8 14  1  0  0  0  0
 12 13  1  0  0  0  0
 11 12  1  0  0  0  0
 10 12  2  0  0  0  0
  7  8  1  0  0  0  0
  8  9  1  0  0  0  0
  6  7  3  0  0  0  0
  9 10  1  0  0  0  0
  5  6  1  0  0  0  0
  2  5  1  0  0  0  0
  2  3  2  0  0  0  0
  1  2  2  0  0  0  0
  2  4  1  0  0  0  0
M  CHG  1   4  -1
M  END
> <Shapegauss>
-264.653625

$$$$
