REMARK  7 active torsions:
REMARK  status: ('A' for Active; 'I' for Inactive)
REMARK    1  A    between atoms: S_2  and  N_5 
REMARK    2  A    between atoms: N_5  and  C_7 
REMARK    3  A    between atoms: C_8  and  C_9 
REMARK    4  A    between atoms: C_9  and  C_13 
REMARK    5  A    between atoms: C_9  and  S_10 
REMARK    6  A    between atoms: S_10  and  C_11 
REMARK    7  A    between atoms: C_13  and  C_14 
REMARK       I    between atoms: C_14  and  N_16 
ROOT
HETATM    1  C   UNL     1       9.596  -0.627  22.392  1.00  0.00    -0.055 C 
ENDROOT
BRANCH   1   2
HETATM    2  C   UNL     1       9.986  -0.973  23.447  1.00  0.00     0.208 C 
BRANCH   2   3
HETATM    3  C   UNL     1       9.312  -2.019  23.684  1.00  0.00    -0.055 C 
HETATM    4  C   UNL     1       8.884  -2.890  24.186  1.00  0.00     0.024 C 
BRANCH   4   5
HETATM    5  N   UNL     1       8.213  -3.604  24.681  1.00  0.00    -0.224 N 
ATOM      6  HN  UNL     1       7.425  -3.863  24.088  1.00  0.00     0.192 HD
BRANCH   5   7
HETATM    7  S   UNL     1       8.164  -4.349  26.121  1.00  0.00     0.216 S 
HETATM    8  O   UNL     1       6.710  -4.761  26.258  1.00  0.00    -0.577 OA
HETATM    9  O   UNL     1       9.027  -5.511  26.064  1.00  0.00    -0.577 OA
HETATM   10  O   UNL     1       8.522  -3.482  27.167  1.00  0.00    -0.577 OA
ENDBRANCH   5   7
ENDBRANCH   4   5
ENDBRANCH   2   3
BRANCH   2  11
HETATM   11  S   UNL     1      10.724  -0.031  24.752  1.00  0.00    -0.113 SA
BRANCH  11  12
HETATM   12  C   UNL     1      12.052  -0.086  24.037  1.00  0.00     0.037 C 
HETATM   13  C   UNL     1      12.700  -0.664  23.067  1.00  0.00     0.018 C 
ENDBRANCH  11  12
ENDBRANCH   2  11
ENDBRANCH   1   2
BRANCH   1  14
HETATM   14  C   UNL     1       9.029   0.023  21.387  1.00  0.00     0.291 C 
HETATM   15  N   UNL     1       7.869  -0.530  20.991  1.00  0.00    -0.302 N 
HETATM   16  C   UNL     1       7.118  -0.038  20.096  1.00  0.00     0.123 A 
ATOM     17  HN  UNL     1       7.575  -1.398  21.438  1.00  0.00     0.171 HD
HETATM   18  N   UNL     1       7.309  -0.019  18.812  1.00  0.00    -0.286 N 
HETATM   19  C   UNL     1       5.785   0.525  20.527  1.00  0.00     0.051 A 
HETATM   20  N   UNL     1       6.680   0.328  17.857  1.00  0.00    -0.310 N 
ATOM     21  HN  UNL     1       8.222  -0.393  18.555  1.00  0.00     0.188 HD
HETATM   22  C   UNL     1       5.732   0.767  18.300  1.00  0.00     0.107 A 
ATOM     23  HN  UNL     1       6.936   0.248  16.873  1.00  0.00     0.186 HD
HETATM   24  C   UNL     1       5.298   0.865  19.463  1.00  0.00     0.022 A 
HETATM   25  O   UNL     1       9.582   0.969  21.020  1.00  0.00    -0.259 OA
ENDBRANCH   1  14
TORSDOF 7
