MODEL 1
REMARK VINA RESULT:    -4.466      0.000      0.000
REMARK INTER + INTRA:          -6.216
REMARK INTER:                  -5.902
REMARK INTRA:                  -0.314
REMARK UNBOUND:                -0.314
REMARK  6 active torsions:
REMARK  status: ('A' for Active; 'I' for Inactive)
REMARK    1  A    between atoms: S_2  and  C_8 
REMARK    2  A    between atoms: C_3  and  N_4 
REMARK    3  A    between atoms: C_5  and  C_8 
REMARK    4  A    between atoms: C_5  and  O_7 
REMARK    5  A    between atoms: C_12  and  S_15 
REMARK    6  A    between atoms: C_14  and  S_15 
ROOT
HETATM    1  N   UNL     1      11.745   2.882  23.856  1.00  0.00    -0.359 N 
HETATM    2  C   UNL     1      11.218   4.106  23.724  1.00  0.00     0.069 C 
HETATM    3  H   UNL     1      12.736   2.965  24.099  1.00  0.00     0.165 HD
ENDROOT
BRANCH   1   4
HETATM    4  C   UNL     1      11.238   1.807  23.533  1.00  0.00     0.129 C 
HETATM    5  C   UNL     1      12.059   0.774  24.079  1.00  0.00     0.133 A 
HETATM    6  O   UNL     1      13.019  -0.016  24.781  1.00  0.00    -0.296 OA
HETATM    7  C   UNL     1      12.013  -0.369  24.093  1.00  0.00     0.152 A 
BRANCH   7   8
HETATM    8  S   UNL     1      11.086  -1.447  23.007  1.00  0.00    -0.075 SA
BRANCH   8   9
HETATM    9  C   UNL     1       9.826  -1.565  24.184  1.00  0.00     0.042 C 
HETATM   10  C   UNL     1       8.571  -1.166  24.092  1.00  0.00     0.019 C 
ENDBRANCH   8   9
ENDBRANCH   7   8
ENDBRANCH   1   4
BRANCH   2  11
HETATM   11  S   UNL     1       9.385   4.086  24.013  1.00  0.00    -0.119 SA
HETATM   12  C   UNL     1       7.619   4.298  24.661  1.00  0.00     0.097 C 
ENDBRANCH   2  11
BRANCH   2  13
HETATM   13  C   UNL     1      12.193   5.124  23.204  1.00  0.00     0.228 C 
BRANCH  13  14
HETATM   14  O   UNL     1      13.486   4.868  23.720  1.00  0.00    -0.394 OA
HETATM   15  H   UNL     1      13.931   5.632  23.356  1.00  0.00     0.209 HD
ENDBRANCH  13  14
ENDBRANCH   2  13
TORSDOF 6
ENDMDL
MODEL 2
REMARK VINA RESULT:    -4.208      4.876      5.655
REMARK INTER + INTRA:          -5.875
REMARK INTER:                  -5.675
REMARK INTRA:                  -0.199
REMARK UNBOUND:                -0.314
REMARK  6 active torsions:
REMARK  status: ('A' for Active; 'I' for Inactive)
REMARK    1  A    between atoms: S_2  and  C_8 
REMARK    2  A    between atoms: C_3  and  N_4 
REMARK    3  A    between atoms: C_5  and  C_8 
REMARK    4  A    between atoms: C_5  and  O_7 
REMARK    5  A    between atoms: C_12  and  S_15 
REMARK    6  A    between atoms: C_14  and  S_15 
ROOT
HETATM    1  N   UNL     1       7.724   0.087  19.814  1.00  0.00    -0.359 N 
HETATM    2  C   UNL     1       6.577   0.714  19.524  1.00  0.00     0.069 C 
HETATM    3  H   UNL     1       8.223  -0.126  18.945  1.00  0.00     0.165 HD
ENDROOT
BRANCH   1   4
HETATM    4  C   UNL     1       8.068  -0.385  20.899  1.00  0.00     0.129 C 
HETATM    5  C   UNL     1       9.294   0.252  21.263  1.00  0.00     0.133 A 
HETATM    6  O   UNL     1      10.450   1.081  21.381  1.00  0.00    -0.296 OA
HETATM    7  C   UNL     1       9.994   0.196  22.166  1.00  0.00     0.152 A 
BRANCH   7   8
HETATM    8  S   UNL     1      10.108  -1.103  23.391  1.00  0.00    -0.075 SA
BRANCH   8   9
HETATM    9  C   UNL     1      11.776  -0.728  23.647  1.00  0.00     0.042 C 
HETATM   10  C   UNL     1      12.301   0.265  24.341  1.00  0.00     0.019 C 
ENDBRANCH   8   9
ENDBRANCH   7   8
ENDBRANCH   1   4
BRANCH   2  11
HETATM   11  S   UNL     1       5.995   1.750  20.949  1.00  0.00    -0.119 SA
HETATM   12  C   UNL     1       5.136   2.978  22.105  1.00  0.00     0.097 C 
ENDBRANCH   2  11
BRANCH   2  13
HETATM   13  C   UNL     1       5.973   0.282  18.218  1.00  0.00     0.228 C 
BRANCH  13  14
HETATM   14  O   UNL     1       5.995   1.352  17.293  1.00  0.00    -0.394 OA
HETATM   15  H   UNL     1       5.475   1.978  17.796  1.00  0.00     0.209 HD
ENDBRANCH  13  14
ENDBRANCH   2  13
TORSDOF 6
ENDMDL
MODEL 3
REMARK VINA RESULT:    -4.187      4.210      5.792
REMARK INTER + INTRA:          -5.847
REMARK INTER:                  -5.579
REMARK INTRA:                  -0.268
REMARK UNBOUND:                -0.314
REMARK  6 active torsions:
REMARK  status: ('A' for Active; 'I' for Inactive)
REMARK    1  A    between atoms: S_2  and  C_8 
REMARK    2  A    between atoms: C_3  and  N_4 
REMARK    3  A    between atoms: C_5  and  C_8 
REMARK    4  A    between atoms: C_5  and  O_7 
REMARK    5  A    between atoms: C_12  and  S_15 
REMARK    6  A    between atoms: C_14  and  S_15 
ROOT
HETATM    1  N   UNL     1       6.792   1.313  21.234  1.00  0.00    -0.359 N 
HETATM    2  C   UNL     1       6.795   0.205  20.482  1.00  0.00     0.069 C 
HETATM    3  H   UNL     1       6.350   2.075  20.713  1.00  0.00     0.165 HD
ENDROOT
BRANCH   1   4
HETATM    4  C   UNL     1       7.403   1.507  22.287  1.00  0.00     0.129 C 
HETATM    5  C   UNL     1       8.785   1.637  21.952  1.00  0.00     0.133 A 
HETATM    6  O   UNL     1      10.057   1.776  21.317  1.00  0.00    -0.296 OA
HETATM    7  C   UNL     1       9.742   1.851  22.543  1.00  0.00     0.152 A 
BRANCH   7   8
HETATM    8  S   UNL     1      10.011   1.669  24.303  1.00  0.00    -0.075 SA
BRANCH   8   9
HETATM    9  C   UNL     1      11.703   1.451  24.030  1.00  0.00     0.042 C 
HETATM   10  C   UNL     1      12.419   0.346  24.130  1.00  0.00     0.019 C 
ENDBRANCH   8   9
ENDBRANCH   7   8
ENDBRANCH   1   4
BRANCH   2  11
HETATM   11  S   UNL     1       6.879  -1.324  21.531  1.00  0.00    -0.119 SA
HETATM   12  C   UNL     1       6.542  -2.911  22.505  1.00  0.00     0.097 C 
ENDBRANCH   2  11
BRANCH   2  13
HETATM   13  C   UNL     1       6.916   0.482  19.010  1.00  0.00     0.228 C 
BRANCH  13  14
HETATM   14  O   UNL     1       8.145  -0.017  18.520  1.00  0.00    -0.394 OA
HETATM   15  H   UNL     1       8.597   0.818  18.409  1.00  0.00     0.209 HD
ENDBRANCH  13  14
ENDBRANCH   2  13
TORSDOF 6
ENDMDL
MODEL 4
REMARK VINA RESULT:    -4.182     25.883     27.435
REMARK INTER + INTRA:          -5.840
REMARK INTER:                  -5.593
REMARK INTRA:                  -0.247
REMARK UNBOUND:                -0.314
REMARK  6 active torsions:
REMARK  status: ('A' for Active; 'I' for Inactive)
REMARK    1  A    between atoms: S_2  and  C_8 
REMARK    2  A    between atoms: C_3  and  N_4 
REMARK    3  A    between atoms: C_5  and  C_8 
REMARK    4  A    between atoms: C_5  and  O_7 
REMARK    5  A    between atoms: C_12  and  S_15 
REMARK    6  A    between atoms: C_14  and  S_15 
ROOT
HETATM    1  N   UNL     1       1.020 -17.923   9.675  1.00  0.00    -0.359 N 
HETATM    2  C   UNL     1      -0.102 -17.217   9.494  1.00  0.00     0.069 C 
HETATM    3  H   UNL     1       1.753 -17.307  10.037  1.00  0.00     0.165 HD
ENDROOT
BRANCH   1   4
HETATM    4  C   UNL     1       1.261 -19.065   9.279  1.00  0.00     0.129 C 
HETATM    5  C   UNL     1       2.681 -19.210   9.253  1.00  0.00     0.133 A 
HETATM    6  O   UNL     1       4.097 -19.076   9.385  1.00  0.00    -0.296 OA
HETATM    7  C   UNL     1       3.400 -20.063   8.998  1.00  0.00     0.152 A 
BRANCH   7   8
HETATM    8  S   UNL     1       3.063 -21.537   8.042  1.00  0.00    -0.075 SA
BRANCH   8   9
HETATM    9  C   UNL     1       2.585 -22.370   9.479  1.00  0.00     0.042 C 
HETATM   10  C   UNL     1       2.550 -23.670   9.705  1.00  0.00     0.019 C 
ENDBRANCH   8   9
ENDBRANCH   7   8
ENDBRANCH   1   4
BRANCH   2  11
HETATM   11  S   UNL     1      -1.604 -18.306   9.556  1.00  0.00    -0.119 SA
HETATM   12  C   UNL     1      -2.851 -19.728   9.513  1.00  0.00     0.097 C 
ENDBRANCH   2  11
BRANCH   2  13
HETATM   13  C   UNL     1       0.148 -15.786   9.109  1.00  0.00     0.228 C 
BRANCH  13  14
HETATM   14  O   UNL     1       1.504 -15.450   9.334  1.00  0.00    -0.394 OA
HETATM   15  H   UNL     1       1.410 -14.499   9.338  1.00  0.00     0.209 HD
ENDBRANCH  13  14
ENDBRANCH   2  13
TORSDOF 6
ENDMDL
MODEL 5
REMARK VINA RESULT:    -4.174      3.738      6.363
REMARK INTER + INTRA:          -5.831
REMARK INTER:                  -5.618
REMARK INTRA:                  -0.212
REMARK UNBOUND:                -0.314
REMARK  6 active torsions:
REMARK  status: ('A' for Active; 'I' for Inactive)
REMARK    1  A    between atoms: S_2  and  C_8 
REMARK    2  A    between atoms: C_3  and  N_4 
REMARK    3  A    between atoms: C_5  and  C_8 
REMARK    4  A    between atoms: C_5  and  O_7 
REMARK    5  A    between atoms: C_12  and  S_15 
REMARK    6  A    between atoms: C_14  and  S_15 
ROOT
HETATM    1  N   UNL     1       9.044  -3.022  23.286  1.00  0.00    -0.359 N 
HETATM    2  C   UNL     1       7.807  -3.303  22.860  1.00  0.00     0.069 C 
HETATM    3  H   UNL     1       9.570  -3.893  23.398  1.00  0.00     0.165 HD
ENDROOT
BRANCH   1   4
HETATM    4  C   UNL     1       9.466  -1.944  23.708  1.00  0.00     0.129 C 
HETATM    5  C   UNL     1      10.758  -1.746  23.134  1.00  0.00     0.133 A 
HETATM    6  O   UNL     1      11.970  -1.800  22.380  1.00  0.00    -0.296 OA
HETATM    7  C   UNL     1      11.541  -0.912  23.177  1.00  0.00     0.152 A 
BRANCH   7   8
HETATM    8  S   UNL     1      11.698   0.387  24.398  1.00  0.00    -0.075 SA
BRANCH   8   9
HETATM    9  C   UNL     1      10.558   1.353  23.529  1.00  0.00     0.042 C 
HETATM   10  C   UNL     1      10.658   1.851  22.311  1.00  0.00     0.019 C 
ENDBRANCH   8   9
ENDBRANCH   7   8
ENDBRANCH   1   4
BRANCH   2  11
HETATM   11  S   UNL     1       7.059  -1.863  21.959  1.00  0.00    -0.119 SA
HETATM   12  C   UNL     1       6.630  -0.455  20.769  1.00  0.00     0.097 C 
ENDBRANCH   2  11
BRANCH   2  13
HETATM   13  C   UNL     1       7.282  -4.616  23.370  1.00  0.00     0.228 C 
BRANCH  13  14
HETATM   14  O   UNL     1       7.841  -5.684  22.630  1.00  0.00    -0.394 OA
HETATM   15  H   UNL     1       8.042  -6.266  23.362  1.00  0.00     0.209 HD
ENDBRANCH  13  14
ENDBRANCH   2  13
TORSDOF 6
ENDMDL
MODEL 6
REMARK VINA RESULT:    -4.174      3.827      5.326
REMARK INTER + INTRA:          -5.831
REMARK INTER:                  -5.507
REMARK INTRA:                  -0.323
REMARK UNBOUND:                -0.314
REMARK  6 active torsions:
REMARK  status: ('A' for Active; 'I' for Inactive)
REMARK    1  A    between atoms: S_2  and  C_8 
REMARK    2  A    between atoms: C_3  and  N_4 
REMARK    3  A    between atoms: C_5  and  C_8 
REMARK    4  A    between atoms: C_5  and  O_7 
REMARK    5  A    between atoms: C_12  and  S_15 
REMARK    6  A    between atoms: C_14  and  S_15 
ROOT
HETATM    1  N   UNL     1       9.592  -1.017  21.674  1.00  0.00    -0.359 N 
HETATM    2  C   UNL     1      10.237   0.028  22.205  1.00  0.00     0.069 C 
HETATM    3  H   UNL     1       9.108  -0.719  20.822  1.00  0.00     0.165 HD
ENDROOT
BRANCH   1   4
HETATM    4  C   UNL     1       9.388  -2.116  22.192  1.00  0.00     0.129 C 
HETATM    5  C   UNL     1       8.041  -2.113  22.668  1.00  0.00     0.133 A 
HETATM    6  O   UNL     1       6.675  -1.838  22.975  1.00  0.00    -0.296 OA
HETATM    7  C   UNL     1       7.367  -2.879  23.184  1.00  0.00     0.152 A 
BRANCH   7   8
HETATM    8  S   UNL     1       7.856  -4.352  24.074  1.00  0.00    -0.075 SA
BRANCH   8   9
HETATM    9  C   UNL     1       6.872  -5.319  23.033  1.00  0.00     0.042 C 
HETATM   10  C   UNL     1       7.191  -5.874  21.878  1.00  0.00     0.019 C 
ENDBRANCH   8   9
ENDBRANCH   7   8
ENDBRANCH   1   4
BRANCH   2  11
HETATM   11  S   UNL     1      11.666  -0.522  23.254  1.00  0.00    -0.119 SA
HETATM   12  C   UNL     1      13.287  -0.695  24.216  1.00  0.00     0.097 C 
ENDBRANCH   2  11
BRANCH   2  13
HETATM   13  C   UNL     1       9.543   1.340  21.973  1.00  0.00     0.228 C 
BRANCH  13  14
HETATM   14  O   UNL     1      10.440   2.270  21.395  1.00  0.00    -0.394 OA
HETATM   15  H   UNL     1      10.597   2.807  22.170  1.00  0.00     0.209 HD
ENDBRANCH  13  14
ENDBRANCH   2  13
TORSDOF 6
ENDMDL
MODEL 7
REMARK VINA RESULT:    -4.050      5.238      8.174
REMARK INTER + INTRA:          -5.666
REMARK INTER:                  -5.295
REMARK INTRA:                  -0.371
REMARK UNBOUND:                -0.314
REMARK  6 active torsions:
REMARK  status: ('A' for Active; 'I' for Inactive)
REMARK    1  A    between atoms: S_2  and  C_8 
REMARK    2  A    between atoms: C_3  and  N_4 
REMARK    3  A    between atoms: C_5  and  C_8 
REMARK    4  A    between atoms: C_5  and  O_7 
REMARK    5  A    between atoms: C_12  and  S_15 
REMARK    6  A    between atoms: C_14  and  S_15 
ROOT
HETATM    1  N   UNL     1       8.016  -5.160  25.404  1.00  0.00    -0.359 N 
HETATM    2  C   UNL     1       6.827  -5.266  26.012  1.00  0.00     0.069 C 
HETATM    3  H   UNL     1       8.749  -5.501  26.032  1.00  0.00     0.165 HD
ENDROOT
BRANCH   1   4
HETATM    4  C   UNL     1       8.275  -4.556  24.362  1.00  0.00     0.129 C 
HETATM    5  C   UNL     1       8.636  -3.223  24.729  1.00  0.00     0.133 A 
HETATM    6  O   UNL     1       8.997  -2.011  25.392  1.00  0.00    -0.296 OA
HETATM    7  C   UNL     1       8.984  -2.296  24.156  1.00  0.00     0.152 A 
BRANCH   7   8
HETATM    8  S   UNL     1       8.797  -1.946  22.411  1.00  0.00    -0.075 SA
BRANCH   8   9
HETATM    9  C   UNL     1      10.324  -1.137  22.401  1.00  0.00     0.042 C 
HETATM   10  C   UNL     1      11.498  -1.586  22.807  1.00  0.00     0.019 C 
ENDBRANCH   8   9
ENDBRANCH   7   8
ENDBRANCH   1   4
BRANCH   2  11
HETATM   11  S   UNL     1       5.446  -5.381  24.777  1.00  0.00    -0.119 SA
HETATM   12  C   UNL     1       4.331  -5.716  23.285  1.00  0.00     0.097 C 
ENDBRANCH   2  11
BRANCH   2  13
HETATM   13  C   UNL     1       6.898  -5.081  27.501  1.00  0.00     0.228 C 
BRANCH  13  14
HETATM   14  O   UNL     1       7.631  -6.139  28.089  1.00  0.00    -0.394 OA
HETATM   15  H   UNL     1       7.049  -6.858  27.848  1.00  0.00     0.209 HD
ENDBRANCH  13  14
ENDBRANCH   2  13
TORSDOF 6
ENDMDL
MODEL 8
REMARK VINA RESULT:    -4.027     25.010     27.208
REMARK INTER + INTRA:          -5.636
REMARK INTER:                  -5.438
REMARK INTRA:                  -0.197
REMARK UNBOUND:                -0.314
REMARK  6 active torsions:
REMARK  status: ('A' for Active; 'I' for Inactive)
REMARK    1  A    between atoms: S_2  and  C_8 
REMARK    2  A    between atoms: C_3  and  N_4 
REMARK    3  A    between atoms: C_5  and  C_8 
REMARK    4  A    between atoms: C_5  and  O_7 
REMARK    5  A    between atoms: C_12  and  S_15 
REMARK    6  A    between atoms: C_14  and  S_15 
ROOT
HETATM    1  N   UNL     1       9.764  16.197   2.805  1.00  0.00    -0.359 N 
HETATM    2  C   UNL     1       9.684  15.089   3.552  1.00  0.00     0.069 C 
HETATM    3  H   UNL     1      10.735  16.521   2.783  1.00  0.00     0.165 HD
ENDROOT
BRANCH   1   4
HETATM    4  C   UNL     1       8.835  16.885   2.379  1.00  0.00     0.129 C 
HETATM    5  C   UNL     1       9.340  17.637   1.276  1.00  0.00     0.133 A 
HETATM    6  O   UNL     1      10.099  18.196   0.203  1.00  0.00    -0.296 OA
HETATM    7  C   UNL     1       8.889  18.382   0.534  1.00  0.00     0.152 A 
BRANCH   7   8
HETATM    8  S   UNL     1       7.379  19.327   0.705  1.00  0.00    -0.075 SA
BRANCH   8   9
HETATM    9  C   UNL     1       8.285  20.799   0.658  1.00  0.00     0.042 C 
HETATM   10  C   UNL     1       9.018  21.285  -0.327  1.00  0.00     0.019 C 
ENDBRANCH   8   9
ENDBRANCH   7   8
ENDBRANCH   1   4
BRANCH   2  11
HETATM   11  S   UNL     1       8.215  14.059   3.077  1.00  0.00    -0.119 SA
HETATM   12  C   UNL     1       6.899  12.716   2.859  1.00  0.00     0.097 C 
ENDBRANCH   2  11
BRANCH   2  13
HETATM   13  C   UNL     1      10.672  15.058   4.684  1.00  0.00     0.228 C 
BRANCH  13  14
HETATM   14  O   UNL     1      11.992  15.009   4.176  1.00  0.00    -0.394 OA
HETATM   15  H   UNL     1      12.253  15.904   4.389  1.00  0.00     0.209 HD
ENDBRANCH  13  14
ENDBRANCH   2  13
TORSDOF 6
ENDMDL
MODEL 9
REMARK VINA RESULT:    -4.009     27.481     29.439
REMARK INTER + INTRA:          -5.612
REMARK INTER:                  -5.186
REMARK INTRA:                  -0.426
REMARK UNBOUND:                -0.314
REMARK  6 active torsions:
REMARK  status: ('A' for Active; 'I' for Inactive)
REMARK    1  A    between atoms: S_2  and  C_8 
REMARK    2  A    between atoms: C_3  and  N_4 
REMARK    3  A    between atoms: C_5  and  C_8 
REMARK    4  A    between atoms: C_5  and  O_7 
REMARK    5  A    between atoms: C_12  and  S_15 
REMARK    6  A    between atoms: C_14  and  S_15 
ROOT
HETATM    1  N   UNL     1       2.257 -20.475   9.421  1.00  0.00    -0.359 N 
HETATM    2  C   UNL     1       1.423 -19.569   8.897  1.00  0.00     0.069 C 
HETATM    3  H   UNL     1       3.120 -20.011   9.717  1.00  0.00     0.165 HD
ENDROOT
BRANCH   1   4
HETATM    4  C   UNL     1       2.156 -21.702   9.377  1.00  0.00     0.129 C 
HETATM    5  C   UNL     1       2.948 -22.149   8.275  1.00  0.00     0.133 A 
HETATM    6  O   UNL     1       3.845 -22.292   7.173  1.00  0.00    -0.296 OA
HETATM    7  C   UNL     1       3.211 -23.171   7.833  1.00  0.00     0.152 A 
BRANCH   7   8
HETATM    8  S   UNL     1       2.350 -24.722   8.061  1.00  0.00    -0.075 SA
BRANCH   8   9
HETATM    9  C   UNL     1       3.631 -25.296   9.069  1.00  0.00     0.042 C 
HETATM   10  C   UNL     1       3.643 -25.452  10.379  1.00  0.00     0.019 C 
ENDBRANCH   8   9
ENDBRANCH   7   8
ENDBRANCH   1   4
BRANCH   2  11
HETATM   11  S   UNL     1      -0.343 -20.127   9.015  1.00  0.00    -0.119 SA
HETATM   12  C   UNL     1      -1.968 -21.093   9.111  1.00  0.00     0.097 C 
ENDBRANCH   2  11
BRANCH   2  13
HETATM   13  C   UNL     1       2.128 -18.443   8.195  1.00  0.00     0.228 C 
BRANCH  13  14
HETATM   14  O   UNL     1       3.416 -18.254   8.750  1.00  0.00    -0.394 OA
HETATM   15  H   UNL     1       3.931 -18.465   7.972  1.00  0.00     0.209 HD
ENDBRANCH  13  14
ENDBRANCH   2  13
TORSDOF 6
ENDMDL
