REMARK  5 active torsions:
REMARK  status: ('A' for Active; 'I' for Inactive)
REMARK    1  A    between atoms: S_3  and  C_6 
REMARK    2  A    between atoms: S_3  and  N_11 
REMARK       I    between atoms: N_4  and  C_13 
REMARK    3  A    between atoms: C_6  and  O_14 
REMARK    4  A    between atoms: N_8  and  C_16 
REMARK       I    between atoms: N_11  and  C_13 
REMARK    5  A    between atoms: C_16  and  C_17 
ROOT
HETATM    1  O   UNL     1       8.554   0.978  21.047  1.00  0.00    -0.246 OA
HETATM    2  N   UNL     1       6.963  -0.508  20.414  1.00  0.00    -0.351 N 
HETATM    3  N   UNL     1       8.254  -0.918  22.255  1.00  0.00    -0.197 N 
HETATM    4  C   UNL     1       7.969  -0.058  21.185  1.00  0.00     0.333 C 
HETATM    5  H   UNL     1       6.034  -0.222  20.638  1.00  0.00     0.160 HD
HETATM    6  C   UNL     1       7.192  -1.021  23.082  1.00  0.00     0.157 C 
HETATM    7  H   UNL     1       7.189  -1.038  19.614  1.00  0.00     0.160 HD
ENDROOT
BRANCH   3   8
HETATM    8  S   UNL     1       9.742  -1.807  22.099  1.00  0.00     0.267 S 
HETATM    9  O   UNL     1       9.652  -2.429  20.823  1.00  0.00    -0.202 OA
HETATM   10  O   UNL     1      10.248  -2.570  23.176  1.00  0.00    -0.202 OA
BRANCH   8  11
HETATM   11  C   UNL     1      10.992  -0.422  21.935  1.00  0.00     0.257 C 
HETATM   12  C   UNL     1      12.348  -0.886  22.095  1.00  0.00     0.058 C 
BRANCH  11  13
HETATM   13  O   UNL     1      10.779   0.518  22.898  1.00  0.00    -0.379 OA
HETATM   14  H   UNL     1      10.239   0.344  23.645  1.00  0.00     0.211 HD
ENDBRANCH  11  13
ENDBRANCH   8  11
ENDBRANCH   3   8
BRANCH   6  15
HETATM   15  C   UNL     1       7.072  -2.029  24.009  1.00  0.00     0.151 C 
HETATM   16  C   UNL     1       7.768  -3.021  23.983  1.00  0.00    -0.008 C 
BRANCH  15  17
HETATM   17  N   UNL     1       6.064  -1.988  25.102  1.00  0.00    -0.107 N 
HETATM   18  O   UNL     1       6.121  -2.854  25.906  1.00  0.00    -0.531 OA
HETATM   19  O   UNL     1       5.258  -1.122  25.068  1.00  0.00    -0.531 OA
ENDBRANCH  15  17
ENDBRANCH   6  15
TORSDOF 5
