stable:False satoms:19 tatoms:24 sratio:0.7916666666666666
  -OEChem-07092417283D

 24 23  0     1  0  0  0  0  0999 V2000
    8.5536    0.9783   21.0468 O   0  0  0  0  0  0  0  0  0  0  0  0
   10.7890   -0.0330   20.9339 H   0  0  0  0  0  0  0  0  0  0  0  0
   12.3485   -0.8860   22.0953 C   0  5  0  0  0  0  0  0  0  0  0  0
    9.7420   -1.8073   22.0991 S   0  0  0  0  0  0  0  0  0  0  0  0
    6.9631   -0.5081   20.4141 N   0  0  0  0  0  0  0  0  0  0  0  0
   10.2387    0.3437   23.6451 H   0  0  0  0  0  0  0  0  0  0  0  0
   10.9918   -0.4220   21.9346 C   0  0  1  0  0  0  0  0  0  0  0  0
    6.1212   -2.8539   25.9064 O   0  0  0  0  0  0  0  0  0  0  0  0
    6.0644   -1.9877   25.1016 N   0  0  0  0  0  0  0  0  0  0  0  0
    9.6524   -2.4288   20.8230 O   0  0  0  0  0  0  0  0  0  0  0  0
    5.2584   -1.1224   25.0679 O   0  0  0  0  0  0  0  0  0  0  0  0
    8.2541   -0.9177   22.2550 N   0  0  0  0  0  0  0  0  0  0  0  0
    7.7680   -3.0209   23.9830 C   0  0  0  0  0  2  0  0  0  0  0  0
    7.9687   -0.0577   21.1848 C   0  0  0  0  0  0  0  0  0  0  0  0
   10.7786    0.5183   22.8982 O   0  0  0  0  0  0  0  0  0  0  0  0
   12.5579   -1.8915   21.9580 H   0  0  0  0  0  0  0  0  0  0  0  0
    8.3065   -3.8388   24.0929 H   0  0  0  0  0  0  0  0  0  0  0  0
    6.0335   -0.2218   20.6376 H   0  0  0  0  0  0  0  0  0  0  0  0
    7.0719   -2.0287   24.0091 C   0  0  0  0  0  0  0  0  0  0  0  0
    6.4034   -0.2948   22.9652 H   0  0  0  0  0  0  0  0  0  0  0  0
    7.1919   -1.0214   23.0823 C   0  0  0  0  0  0  0  0  0  0  0  0
   13.0895   -0.1804   22.3720 H   0  0  0  0  0  0  0  0  0  0  0  0
    7.1888   -1.0377   19.6144 H   0  0  0  0  0  0  0  0  0  0  0  0
   10.2481   -2.5699   23.1764 O   0  0  0  0  0  0  0  0  0  0  0  0
  5 23  1  0  0  0  0
  5 18  1  0  0  0  0
  5 14  1  0  0  0  0
  4 10  2  0  0  0  0
  2  7  1  0  0  0  0
  1 14  2  0  0  0  0
 12 14  1  0  0  0  0
  3  7  1  0  0  0  0
  4  7  1  0  0  0  0
  7 15  1  0  0  0  0
  3 16  1  0  0  0  0
  3 22  1  0  0  0  0
  4 12  1  0  0  0  0
  4 24  2  0  0  0  0
 12 21  1  0  0  0  0
  6 15  1  0  0  0  0
 20 21  1  0  0  0  0
 19 21  2  0  0  0  0
 13 19  1  0  0  0  0
 13 17  1  0  0  0  0
  9 19  1  0  0  0  0
  9 11  2  0  0  0  0
  8  9  2  0  0  0  0
M  CHG  1   3  -1
M  END
> <Shapegauss>
-126.299271

$$$$
