stable:False satoms:6 tatoms:24 sratio:0.25
  -OEChem-07092417503D

 24 25  0     1  0  0  0  0  0999 V2000
    6.6703   -4.7950   26.4987 C   0  0  0  0  0  0  0  0  0  0  0  0
    8.1517   -4.3164   26.1251 S   0  0  0  0  0  0  0  0  0  0  0  0
    9.0024   -5.4800   26.0006 O   0  0  0  0  0  0  0  0  0  0  0  0
    8.6182   -3.4521   27.1658 O   0  0  0  0  0  0  0  0  0  0  0  0
    8.1457   -3.5120   24.6960 N   0  0  0  0  0  0  0  0  0  0  0  0
    8.9583   -2.9210   24.1629 C   0  0  0  0  0  0  0  0  0  0  0  0
    9.4186   -1.9399   23.4700 C   0  0  0  0  0  0  0  0  0  0  0  0
   10.3632   -1.1969   23.1879 C   0  0  1  0  0  0  0  0  0  0  0  0
   11.0644    0.0541   24.3262 C   0  0  0  0  0  0  0  0  0  0  0  0
   12.0036    0.3089   24.2820 C   0  0  0  0  0  0  0  0  0  0  0  0
   13.1782   -0.2309   23.4615 C   0  0  0  0  0  0  0  0  0  0  0  0
   12.7695   -1.2922   22.6376 C   0  0  0  0  0  0  0  0  0  0  0  0
   11.7663   -1.7234   22.5542 C   0  0  0  0  0  0  0  0  0  0  0  0
    9.7068   -0.5856   22.3619 C   0  0  1  0  0  0  0  0  0  0  0  0
    9.0500    0.0531   21.4020 C   0  0  0  0  0  0  0  0  0  0  0  0
    9.5342    0.9880   20.9721 O   0  0  0  0  0  0  0  0  0  0  0  0
    7.9149   -0.5518   21.0775 N   0  0  0  0  0  0  0  0  0  0  0  0
    7.2147   -0.0931   20.1499 C   0  0  0  0  0  0  0  0  0  0  0  0
    7.2853   -0.0120   18.8466 C   0  0  0  0  0  0  0  0  0  0  0  0
    6.7592    0.3083   17.7816 N   0  0  0  0  0  0  0  0  0  0  0  0
    5.6262    0.8616   18.2280 C   0  0  0  0  0  0  0  0  0  0  0  0
    5.2754    0.9655   19.3792 C   0  0  0  0  0  0  0  0  0  0  0  0
    5.8142    0.5701   20.5110 C   0  0  0  0  0  0  0  0  0  0  0  0
    5.2927    0.7029   22.0183 C   0  0  0  0  0  0  0  0  0  0  0  0
 20 21  2  0  0  0  0
 19 20  1  0  0  0  0
 21 22  1  0  0  0  0
 18 19  2  0  0  0  0
 22 23  2  0  0  0  0
 18 23  1  0  0  0  0
 17 18  1  0  0  0  0
 23 24  1  0  0  0  0
 15 16  2  0  0  0  0
 15 17  1  0  0  0  0
 14 15  1  0  0  0  0
  8 14  1  0  0  0  0
  7 14  1  0  0  0  0
 12 13  2  0  0  0  0
  8 13  1  0  0  0  0
 11 12  1  0  0  0  0
  7  8  1  0  0  0  0
 10 11  1  0  0  0  0
  6  7  2  3  0  0  0
  5  6  1  0  0  0  0
  9 10  2  0  0  0  0
  2  5  1  0  0  0  0
  2  3  2  0  0  0  0
  1  2  1  0  0  0  0
  2  4  2  0  0  0  0
M  END
> <Shapegauss>
-286.937805

$$$$
