stable:False satoms:6 tatoms:24 sratio:0.25
  -OEChem-08062417373D

 45 46  0     1  0  0  0  0  0999 V2000
    6.1840   -5.0974   26.1656 C   0  0  0  0  0  0  0  0  0  0  0  0
    7.7033   -4.6233   25.9914 S   0  0  0  0  0  0  0  0  0  0  0  0
    8.5503   -5.7921   25.8932 O   0  0  0  0  0  0  0  0  0  0  0  0
    8.0574   -3.8305   27.1288 O   0  0  0  0  0  0  0  0  0  0  0  0
    7.8683   -3.7356   24.6224 N   0  0  0  0  0  0  0  0  0  0  0  0
    8.7425   -3.1282   24.2215 C   0  0  0  0  0  0  0  0  0  0  0  0
    9.2889   -2.1159   23.6460 C   0  0  0  0  0  0  0  0  0  0  0  0
   10.2673   -1.3740   23.5181 C   0  0  1  0  0  0  0  0  0  0  0  0
   10.8476   -0.2051   24.8024 C   0  0  0  0  0  0  0  0  0  0  0  0
   11.7883    0.0355   24.8801 C   0  0  0  0  0  0  0  0  0  0  0  0
   13.0429   -0.4750   24.1661 C   0  0  0  0  0  0  0  0  0  0  0  0
   12.7194   -1.4783   23.2383 C   0  0  0  0  0  0  0  0  0  0  0  0
   11.7277   -1.8863   23.0160 C   0  0  0  0  0  0  0  0  0  0  0  0
    9.7156   -0.7035   22.6621 C   0  0  1  0  0  0  0  0  0  0  0  0
    9.1790    0.0023   21.6748 C   0  0  0  0  0  0  0  0  0  0  0  0
    9.7188    0.9525   21.3601 O   0  0  0  0  0  0  0  0  0  0  0  0
    8.0819   -0.5625   21.1880 N   0  0  0  0  0  0  0  0  0  0  0  0
    7.4966   -0.0375   20.2170 C   0  0  0  0  0  0  0  0  0  0  0  0
    7.7158    0.1195   18.9373 C   0  0  0  0  0  0  0  0  0  0  0  0
    7.3177    0.5115   17.8412 N   0  0  0  0  0  0  0  0  0  0  0  0
    6.1472    1.0570   18.1897 C   0  0  0  0  0  0  0  0  0  0  0  0
    5.6688    1.0985   19.2981 C   0  0  0  0  0  0  0  0  0  0  0  0
    6.0712    0.6274   20.4573 C   0  0  0  0  0  0  0  0  0  0  0  0
    5.3830    0.6796   21.9014 C   0  0  0  0  0  0  0  0  0  0  0  0
    6.0879   -5.6911   27.0866 H   0  0  0  0  0  0  0  0  0  0  0  0
    5.5297   -4.2154   26.2280 H   0  0  0  0  0  0  0  0  0  0  0  0
    5.8903   -5.7114   25.3014 H   0  0  0  0  0  0  0  0  0  0  0  0
    7.1230   -3.0713   24.6785 H   0  0  0  0  0  0  0  0  0  0  0  0
    9.5915   -3.7533   24.4559 H   0  0  0  0  0  0  0  0  0  0  0  0
   10.4488   -0.7913   24.4333 H   0  0  0  0  0  0  0  0  0  0  0  0
   10.5416   -0.9690   24.1029 H   0  0  0  0  0  0  0  0  0  0  0  0
   10.1106    0.2920   25.4157 H   0  0  0  0  0  0  0  0  0  0  0  0
   11.9834    0.8092   25.6080 H   0  0  0  0  0  0  0  0  0  0  0  0
   13.7396   -0.8855   24.9119 H   0  0  0  0  0  0  0  0  0  0  0  0
   13.5225    0.3624   23.6382 H   0  0  0  0  0  0  0  0  0  0  0  0
   13.5439   -1.8958   22.6793 H   0  0  0  0  0  0  0  0  0  0  0  0
   11.7177   -2.7527   22.3713 H   0  0  0  0  0  0  0  0  0  0  0  0
    9.2976   -0.0221   23.4177 H   0  0  0  0  0  0  0  0  0  0  0  0
    7.7254   -1.4032   21.5957 H   0  0  0  0  0  0  0  0  0  0  0  0
    8.7037   -0.2797   18.7612 H   0  0  0  0  0  0  0  0  0  0  0  0
    5.5689    1.5077   17.3967 H   0  0  0  0  0  0  0  0  0  0  0  0
    4.7272    1.6253   19.3460 H   0  0  0  0  0  0  0  0  0  0  0  0
    4.7577   -0.2143   22.0427 H   0  0  0  0  0  0  0  0  0  0  0  0
    6.1618    0.7086   22.6777 H   0  0  0  0  0  0  0  0  0  0  0  0
    4.7566    1.5807   21.9765 H   0  0  0  0  0  0  0  0  0  0  0  0
 20 21  2  0  0  0  0
 19 20  1  0  0  0  0
 21 22  1  0  0  0  0
 18 19  2  0  0  0  0
 22 23  2  0  0  0  0
 18 23  1  0  0  0  0
 17 18  1  0  0  0  0
 23 24  1  0  0  0  0
 15 16  2  0  0  0  0
 15 17  1  0  0  0  0
 14 15  1  0  0  0  0
  8 14  1  0  0  0  0
  7 14  1  0  0  0  0
 12 13  2  0  0  0  0
  8 13  1  0  0  0  0
 11 12  1  0  0  0  0
  7  8  1  0  0  0  0
 10 11  1  0  0  0  0
  6  7  2  3  0  0  0
  5  6  1  0  0  0  0
  9 10  2  0  0  0  0
  2  5  1  0  0  0  0
  2  3  2  0  0  0  0
  1  2  1  0  0  0  0
  2  4  2  0  0  0  0
  1 25  1  0  0  0  0
  1 26  1  0  0  0  0
  1 27  1  0  0  0  0
  5 28  1  0  0  0  0
  6 29  1  0  0  0  0
  8 30  1  0  0  0  0
  9 31  1  0  0  0  0
  9 32  1  0  0  0  0
 10 33  1  0  0  0  0
 11 34  1  0  0  0  0
 11 35  1  0  0  0  0
 12 36  1  0  0  0  0
 13 37  1  0  0  0  0
 14 38  1  0  0  0  0
 17 39  1  0  0  0  0
 19 40  1  0  0  0  0
 21 41  1  0  0  0  0
 22 42  1  0  0  0  0
 24 43  1  0  0  0  0
 24 44  1  0  0  0  0
 24 45  1  0  0  0  0
M  END
> <Chemgauss4>
-13.067198

$$$$
