stable:False satoms:6 tatoms:24 sratio:0.25
  -OEChem-08062417373D

 45 46  0     1  0  0  0  0  0999 V2000
   -6.2389   -5.1254  -26.1278 C   0  0  0  0  0  0  0  0  0  0  0  0
   -7.7582   -4.6513  -25.9537 S   0  0  0  0  0  0  0  0  0  0  0  0
   -8.6052   -5.8201  -25.8554 O   0  0  0  0  0  0  0  0  0  0  0  0
   -8.1124   -3.8585  -27.0911 O   0  0  0  0  0  0  0  0  0  0  0  0
   -7.9233   -3.7636  -24.5847 N   0  0  0  0  0  0  0  0  0  0  0  0
   -8.7974   -3.1562  -24.1837 C   0  0  0  0  0  0  0  0  0  0  0  0
   -9.3438   -2.1439  -23.6083 C   0  0  0  0  0  0  0  0  0  0  0  0
  -10.3222   -1.4020  -23.4804 C   0  0  1  0  0  0  0  0  0  0  0  0
  -10.9025   -0.2331  -24.7646 C   0  0  0  0  0  0  0  0  0  0  0  0
  -11.8433    0.0075  -24.8424 C   0  0  0  0  0  0  0  0  0  0  0  0
  -13.0978   -0.5030  -24.1284 C   0  0  0  0  0  0  0  0  0  0  0  0
  -12.7743   -1.5063  -23.2005 C   0  0  0  0  0  0  0  0  0  0  0  0
  -11.7826   -1.9143  -22.9783 C   0  0  0  0  0  0  0  0  0  0  0  0
   -9.7705   -0.7315  -22.6243 C   0  0  1  0  0  0  0  0  0  0  0  0
   -9.2339   -0.0257  -21.6371 C   0  0  0  0  0  0  0  0  0  0  0  0
   -9.7737    0.9245  -21.3223 O   0  0  0  0  0  0  0  0  0  0  0  0
   -8.1368   -0.5904  -21.1503 N   0  0  0  0  0  0  0  0  0  0  0  0
   -7.5515   -0.0654  -20.1792 C   0  0  0  0  0  0  0  0  0  0  0  0
   -7.7707    0.0916  -18.8996 C   0  0  0  0  0  0  0  0  0  0  0  0
   -7.3726    0.4835  -17.8035 N   0  0  0  0  0  0  0  0  0  0  0  0
   -6.2021    1.0290  -18.1520 C   0  0  0  0  0  0  0  0  0  0  0  0
   -5.7237    1.0705  -19.2604 C   0  0  0  0  0  0  0  0  0  0  0  0
   -6.1261    0.5994  -20.4196 C   0  0  0  0  0  0  0  0  0  0  0  0
   -5.4379    0.6516  -21.8636 C   0  0  0  0  0  0  0  0  0  0  0  0
   -6.1428   -5.7190  -27.0489 H   0  0  0  0  0  0  0  0  0  0  0  0
   -5.5846   -4.2434  -26.1902 H   0  0  0  0  0  0  0  0  0  0  0  0
   -5.9452   -5.7394  -25.2637 H   0  0  0  0  0  0  0  0  0  0  0  0
   -7.1779   -3.0992  -24.6407 H   0  0  0  0  0  0  0  0  0  0  0  0
   -9.6464   -3.7813  -24.4181 H   0  0  0  0  0  0  0  0  0  0  0  0
  -10.5037   -0.8193  -24.3956 H   0  0  0  0  0  0  0  0  0  0  0  0
  -10.5965   -0.9969  -24.0651 H   0  0  0  0  0  0  0  0  0  0  0  0
  -10.1655    0.2640  -25.3780 H   0  0  0  0  0  0  0  0  0  0  0  0
  -12.0383    0.7812  -25.5702 H   0  0  0  0  0  0  0  0  0  0  0  0
  -13.7945   -0.9135  -24.8742 H   0  0  0  0  0  0  0  0  0  0  0  0
  -13.5774    0.3344  -23.6005 H   0  0  0  0  0  0  0  0  0  0  0  0
  -13.5988   -1.9238  -22.6416 H   0  0  0  0  0  0  0  0  0  0  0  0
  -11.7726   -2.7807  -22.3336 H   0  0  0  0  0  0  0  0  0  0  0  0
   -9.3525   -0.0500  -23.3799 H   0  0  0  0  0  0  0  0  0  0  0  0
   -7.7803   -1.4311  -21.5579 H   0  0  0  0  0  0  0  0  0  0  0  0
   -8.7586   -0.3077  -18.7235 H   0  0  0  0  0  0  0  0  0  0  0  0
   -5.6238    1.4797  -17.3589 H   0  0  0  0  0  0  0  0  0  0  0  0
   -4.7821    1.5973  -19.3082 H   0  0  0  0  0  0  0  0  0  0  0  0
   -4.8126   -0.2422  -22.0050 H   0  0  0  0  0  0  0  0  0  0  0  0
   -6.2167    0.6806  -22.6400 H   0  0  0  0  0  0  0  0  0  0  0  0
   -4.8116    1.5528  -21.9388 H   0  0  0  0  0  0  0  0  0  0  0  0
 20 21  2  0  0  0  0
 19 20  1  0  0  0  0
 21 22  1  0  0  0  0
 18 19  2  0  0  0  0
 22 23  2  0  0  0  0
 18 23  1  0  0  0  0
 17 18  1  0  0  0  0
 23 24  1  0  0  0  0
 15 16  2  0  0  0  0
 15 17  1  0  0  0  0
 14 15  1  0  0  0  0
  8 14  1  0  0  0  0
  7 14  1  0  0  0  0
 12 13  2  0  0  0  0
  8 13  1  0  0  0  0
 11 12  1  0  0  0  0
  7  8  1  0  0  0  0
 10 11  1  0  0  0  0
  6  7  2  3  0  0  0
  5  6  1  0  0  0  0
  9 10  2  0  0  0  0
  2  5  1  0  0  0  0
  2  3  2  0  0  0  0
  1  2  1  0  0  0  0
  2  4  2  0  0  0  0
  1 25  1  0  0  0  0
  1 26  1  0  0  0  0
  1 27  1  0  0  0  0
  5 28  1  0  0  0  0
  6 29  1  0  0  0  0
  8 30  1  0  0  0  0
  9 31  1  0  0  0  0
  9 32  1  0  0  0  0
 10 33  1  0  0  0  0
 11 34  1  0  0  0  0
 11 35  1  0  0  0  0
 12 36  1  0  0  0  0
 13 37  1  0  0  0  0
 14 38  1  0  0  0  0
 17 39  1  0  0  0  0
 19 40  1  0  0  0  0
 21 41  1  0  0  0  0
 22 42  1  0  0  0  0
 24 43  1  0  0  0  0
 24 44  1  0  0  0  0
 24 45  1  0  0  0  0
M  END
> <Chemgauss4>
-13.116036

$$$$
