stable:False satoms:18 tatoms:24 sratio:0.75
  -OEChem-08052413553D

 25 25  0     0  0  0  0  0  0999 V2000
   -6.2031    0.6729  -18.3544 N   0  0  0  0  0  0  0  0  0  0  0  0
   -9.9630    0.5402  -23.9410 H   0  0  0  0  0  0  0  0  0  0  0  0
   -6.0106    0.6761  -19.8011 C   0  0  0  0  0  0  0  0  0  0  0  0
  -14.4867   -1.2297  -24.0961 H   0  0  0  0  0  0  0  0  0  0  0  0
   -9.9078   -2.3403  -22.9493 S   0  0  0  0  0  0  0  0  0  0  0  0
   -7.3261    0.5668  -17.9070 O   0  0  0  0  0  0  0  0  0  0  0  0
   -5.2118    0.7099  -17.6544 O   0  0  0  0  0  0  0  0  0  0  0  0
  -12.6758   -2.6913  -23.1752 H   0  0  0  0  0  0  0  0  0  0  0  0
  -10.9343    0.0914  -23.9661 C   0  0  0  0  0  0  0  0  0  0  0  0
   -8.5303   -0.2239  -22.0475 C   0  0  0  0  0  0  0  0  0  0  0  0
  -12.0232    0.7988  -24.4732 C   0  0  0  0  0  0  0  0  0  0  0  0
  -12.4669   -1.6864  -23.5363 C   0  0  0  0  0  0  0  0  0  0  0  0
   -4.7657    0.7501  -20.3113 C   0  0  0  0  0  0  0  0  0  0  0  0
   -9.4203    0.3196  -21.7377 H   0  0  0  0  0  0  0  0  0  0  0  0
   -7.2201    0.5088  -20.5081 C   0  0  0  0  0  2  0  0  0  0  0  0
  -11.8778    1.7869  -24.8964 H   0  0  0  0  0  0  0  0  0  0  0  0
   -3.8919    0.8159  -19.6650 H   0  0  0  0  0  0  0  0  0  0  0  0
  -13.4689   -0.8809  -24.0378 C   0  0  0  0  0  0  0  0  0  0  0  0
  -13.2641    0.3507  -24.4806 N   0  0  0  0  0  0  0  0  0  0  0  0
   -8.6377   -1.3709  -22.6289 N   0  3  0  0  0  0  0  0  0  0  0  0
  -11.1622   -1.2072  -23.5211 C   0  0  0  0  0  0  0  0  0  0  0  0
   -4.6028    0.7171  -21.3658 H   0  0  0  0  0  0  0  0  0  0  0  0
   -7.3424    0.3910  -21.8232 N   0  0  0  0  0  0  0  0  0  0  0  0
   -6.6871    0.6959  -22.5143 H   0  0  0  0  0  0  0  0  0  0  0  0
   -7.7644   -1.7396  -22.9475 H   0  0  0  0  0  0  0  0  0  0  0  0
  1  6  2  0  0  0  0
  1  7  2  0  0  0  0
  1  3  1  0  0  0  0
  8 12  1  0  0  0  0
  5 20  1  0  0  0  0
  5 21  1  0  0  0  0
  3 15  1  0  0  0  0
  3 13  2  0  0  0  0
 13 17  1  0  0  0  0
 10 20  2  0  0  0  0
 15 23  1  0  0  0  0
 12 21  2  0  0  0  0
 12 18  1  0  0  0  0
 13 22  1  0  0  0  0
 10 14  1  0  0  0  0
 10 23  1  0  0  0  0
  9 21  1  0  0  0  0
  4 18  1  0  0  0  0
 18 19  2  0  0  0  0
  2  9  1  0  0  0  0
  9 11  2  0  0  0  0
 11 19  1  0  0  0  0
 11 16  1  0  0  0  0
 23 24  1  0  0  0  0
 20 25  1  0  0  0  0
M  CHG  1  20   1
M  END
> <Chemgauss4>
-7.405697

$$$$
