stable:False satoms:18 tatoms:24 sratio:0.75
  -OEChem-08052413553D

 25 25  0     0  0  0  0  0  0999 V2000
    6.0458    0.5199   18.2874 N   0  0  0  0  0  0  0  0  0  0  0  0
    9.8057    0.3872   23.8740 H   0  0  0  0  0  0  0  0  0  0  0  0
    5.8533    0.5231   19.7341 C   0  0  0  0  0  0  0  0  0  0  0  0
   14.3293   -1.3827   24.0291 H   0  0  0  0  0  0  0  0  0  0  0  0
    9.7505   -2.4934   22.8823 S   0  0  0  0  0  0  0  0  0  0  0  0
    7.1687    0.4138   17.8400 O   0  0  0  0  0  0  0  0  0  0  0  0
    5.0544    0.5568   17.5874 O   0  0  0  0  0  0  0  0  0  0  0  0
   12.5184   -2.8443   23.1082 H   0  0  0  0  0  0  0  0  0  0  0  0
   10.7770   -0.0617   23.8991 C   0  0  0  0  0  0  0  0  0  0  0  0
    8.3730   -0.3770   21.9805 C   0  0  0  0  0  0  0  0  0  0  0  0
   11.8659    0.6458   24.4062 C   0  0  0  0  0  0  0  0  0  0  0  0
   12.3096   -1.8394   23.4693 C   0  0  0  0  0  0  0  0  0  0  0  0
    4.6083    0.5970   20.2444 C   0  0  0  0  0  0  0  0  0  0  0  0
    9.2630    0.1666   21.6707 H   0  0  0  0  0  0  0  0  0  0  0  0
    7.0627    0.3558   20.4411 C   0  0  0  0  0  2  0  0  0  0  0  0
   11.7205    1.6339   24.8294 H   0  0  0  0  0  0  0  0  0  0  0  0
    3.7346    0.6629   19.5980 H   0  0  0  0  0  0  0  0  0  0  0  0
   13.3115   -1.0339   23.9708 C   0  0  0  0  0  0  0  0  0  0  0  0
   13.1068    0.1977   24.4136 N   0  0  0  0  0  0  0  0  0  0  0  0
    8.4803   -1.5239   22.5619 N   0  3  0  0  0  0  0  0  0  0  0  0
   11.0049   -1.3603   23.4541 C   0  0  0  0  0  0  0  0  0  0  0  0
    4.4454    0.5640   21.2988 H   0  0  0  0  0  0  0  0  0  0  0  0
    7.1851    0.2380   21.7562 N   0  0  0  0  0  0  0  0  0  0  0  0
    6.5297    0.5429   22.4473 H   0  0  0  0  0  0  0  0  0  0  0  0
    7.6071   -1.8926   22.8805 H   0  0  0  0  0  0  0  0  0  0  0  0
  1  6  2  0  0  0  0
  1  7  2  0  0  0  0
  1  3  1  0  0  0  0
  8 12  1  0  0  0  0
  5 20  1  0  0  0  0
  5 21  1  0  0  0  0
  3 15  1  0  0  0  0
  3 13  2  0  0  0  0
 13 17  1  0  0  0  0
 10 20  2  0  0  0  0
 15 23  1  0  0  0  0
 12 21  2  0  0  0  0
 12 18  1  0  0  0  0
 13 22  1  0  0  0  0
 10 14  1  0  0  0  0
 10 23  1  0  0  0  0
  9 21  1  0  0  0  0
  4 18  1  0  0  0  0
 18 19  2  0  0  0  0
  2  9  1  0  0  0  0
  9 11  2  0  0  0  0
 11 19  1  0  0  0  0
 11 16  1  0  0  0  0
 23 24  1  0  0  0  0
 20 25  1  0  0  0  0
M  CHG  1  20   1
M  END
> <Chemgauss4>
-7.201400

$$$$
