stable:False satoms:8 tatoms:24 sratio:0.3333333333333333
  -OEChem-08062414373D

 43 45  0     1  0  0  0  0  0999 V2000
    6.2662   -5.3947   25.7919 C   0  0  0  0  0  0  0  0  0  0  0  0
    7.9316   -4.8286   25.6862 S   0  0  0  0  0  0  0  0  0  0  0  0
    8.7993   -5.9385   25.5602 O   0  0  0  0  0  0  0  0  0  0  0  0
    8.1999   -4.0207   26.8378 O   0  0  0  0  0  0  0  0  0  0  0  0
    8.0244   -3.8818   24.3236 N   0  0  0  0  0  0  0  0  0  0  0  0
    8.8649   -3.2271   23.9683 C   0  0  0  0  0  0  0  0  0  0  0  0
    9.4165   -2.0877   23.3862 C   0  0  0  0  0  0  0  0  0  0  0  0
   10.3363   -1.2371   23.4519 C   0  0  1  0  0  0  0  0  0  0  0  0
   10.6457   -0.5240   24.4287 C   0  0  0  0  0  0  0  0  0  0  0  0
   12.2744    0.0883   24.7082 C   0  0  0  0  0  0  0  0  0  0  0  0
   12.9088   -0.3629   24.0296 C   0  0  0  0  0  0  0  0  0  0  0  0
   12.7034   -1.3190   23.0093 C   0  0  0  0  0  0  0  0  0  0  0  0
   11.8521   -1.7153   22.7611 C   0  0  0  0  0  0  0  0  0  0  0  0
    9.6032   -0.8789   22.4763 C   0  0  0  0  0  0  0  0  0  0  0  0
    9.1155   -0.0369   21.4594 C   0  0  0  0  0  0  0  0  0  0  0  0
    9.6460    0.9632   21.2077 O   0  0  0  0  0  0  0  0  0  0  0  0
    8.0522   -0.6185   21.0248 N   0  0  0  0  0  0  0  0  0  0  0  0
    7.4213   -0.1058   20.0809 C   0  0  0  0  0  0  0  0  0  0  0  0
    7.5299    0.1248   18.7930 C   0  0  0  0  0  0  0  0  0  0  0  0
    7.2075    0.5084   17.6669 N   0  0  0  0  0  0  0  0  0  0  0  0
    6.0684    1.0286   18.1009 C   0  0  0  0  0  0  0  0  0  0  0  0
    5.5898    1.0298   19.2122 C   0  0  0  0  0  0  0  0  0  0  0  0
    5.9906    0.5158   20.3745 C   0  0  0  0  0  0  0  0  0  0  0  0
    5.4102    0.5013   21.6721 C   0  0  0  0  0  0  0  0  0  0  0  0
    6.1501   -6.0299   26.6824 H   0  0  0  0  0  0  0  0  0  0  0  0
    5.5895   -4.5307   25.8673 H   0  0  0  0  0  0  0  0  0  0  0  0
    6.0190   -5.9767   24.8918 H   0  0  0  0  0  0  0  0  0  0  0  0
    7.2434   -3.2619   24.3996 H   0  0  0  0  0  0  0  0  0  0  0  0
    9.3469   -3.9656   23.3107 H   0  0  0  0  0  0  0  0  0  0  0  0
    9.4110   -3.1736   24.9217 H   0  0  0  0  0  0  0  0  0  0  0  0
    9.8744   -0.2688   25.1402 H   0  0  0  0  0  0  0  0  0  0  0  0
   12.5597    0.8103   25.4590 H   0  0  0  0  0  0  0  0  0  0  0  0
   13.9354   -0.0391   24.1173 H   0  0  0  0  0  0  0  0  0  0  0  0
   13.5732   -1.6384   22.4544 H   0  0  0  0  0  0  0  0  0  0  0  0
   11.7517   -1.5573   21.6772 H   0  0  0  0  0  0  0  0  0  0  0  0
   11.9501   -2.7914   22.9672 H   0  0  0  0  0  0  0  0  0  0  0  0
    7.7364   -1.4716   21.4401 H   0  0  0  0  0  0  0  0  0  0  0  0
    8.5187   -0.2644   18.5996 H   0  0  0  0  0  0  0  0  0  0  0  0
    5.4769    1.5277   17.3475 H   0  0  0  0  0  0  0  0  0  0  0  0
    4.6473    1.5534   19.2748 H   0  0  0  0  0  0  0  0  0  0  0  0
    4.8022   -0.4075   21.7922 H   0  0  0  0  0  0  0  0  0  0  0  0
    6.2072    0.5120   22.4302 H   0  0  0  0  0  0  0  0  0  0  0  0
    4.7723    1.3885   21.7982 H   0  0  0  0  0  0  0  0  0  0  0  0
 20 21  2  0  0  0  0
 19 20  1  0  0  0  0
 21 22  1  0  0  0  0
 18 19  2  0  0  0  0
 22 23  2  0  0  0  0
 18 23  1  0  0  0  0
 17 18  1  0  0  0  0
 23 24  1  0  0  0  0
 15 16  2  0  0  0  0
 15 17  1  0  0  0  0
 14 15  1  0  0  0  0
  8 14  1  0  0  0  0
  7 14  2  0  0  0  0
 12 13  1  0  0  0  0
  8 13  1  0  0  0  0
 11 12  2  0  0  0  0
  7  8  1  0  0  0  0
  8  9  1  0  0  0  0
  6  7  1  0  0  0  0
 10 11  1  0  0  0  0
  5  6  1  0  0  0  0
  9 10  2  0  0  0  0
  2  5  1  0  0  0  0
  2  3  2  0  0  0  0
  1  2  1  0  0  0  0
  2  4  2  0  0  0  0
  1 25  1  0  0  0  0
  1 26  1  0  0  0  0
  1 27  1  0  0  0  0
  5 28  1  0  0  0  0
  6 29  1  0  0  0  0
  6 30  1  0  0  0  0
  9 31  1  0  0  0  0
 10 32  1  0  0  0  0
 11 33  1  0  0  0  0
 12 34  1  0  0  0  0
 13 35  1  0  0  0  0
 13 36  1  0  0  0  0
 17 37  1  0  0  0  0
 19 38  1  0  0  0  0
 21 39  1  0  0  0  0
 22 40  1  0  0  0  0
 24 41  1  0  0  0  0
 24 42  1  0  0  0  0
 24 43  1  0  0  0  0
M  END
> <Chemgauss4>
-13.543070

$$$$
