stable:False satoms:8 tatoms:24 sratio:0.3333333333333333
  -OEChem-08062414373D

 43 45  0     1  0  0  0  0  0999 V2000
   -6.0692   -5.5715  -25.6923 C   0  0  0  0  0  0  0  0  0  0  0  0
   -7.7346   -5.0054  -25.5866 S   0  0  0  0  0  0  0  0  0  0  0  0
   -8.6023   -6.1153  -25.4605 O   0  0  0  0  0  0  0  0  0  0  0  0
   -8.0029   -4.1975  -26.7381 O   0  0  0  0  0  0  0  0  0  0  0  0
   -7.8274   -4.0586  -24.2239 N   0  0  0  0  0  0  0  0  0  0  0  0
   -8.6679   -3.4039  -23.8686 C   0  0  0  0  0  0  0  0  0  0  0  0
   -9.2195   -2.2645  -23.2865 C   0  0  0  0  0  0  0  0  0  0  0  0
  -10.1393   -1.4139  -23.3522 C   0  0  1  0  0  0  0  0  0  0  0  0
  -10.4487   -0.7008  -24.3290 C   0  0  0  0  0  0  0  0  0  0  0  0
  -12.0774   -0.0885  -24.6085 C   0  0  0  0  0  0  0  0  0  0  0  0
  -12.7118   -0.5397  -23.9299 C   0  0  0  0  0  0  0  0  0  0  0  0
  -12.5064   -1.4958  -22.9096 C   0  0  0  0  0  0  0  0  0  0  0  0
  -11.6551   -1.8921  -22.6614 C   0  0  0  0  0  0  0  0  0  0  0  0
   -9.4062   -1.0557  -22.3766 C   0  0  0  0  0  0  0  0  0  0  0  0
   -8.9185   -0.2137  -21.3597 C   0  0  0  0  0  0  0  0  0  0  0  0
   -9.4491    0.7864  -21.1080 O   0  0  0  0  0  0  0  0  0  0  0  0
   -7.8552   -0.7953  -20.9251 N   0  0  0  0  0  0  0  0  0  0  0  0
   -7.2243   -0.2826  -19.9812 C   0  0  0  0  0  0  0  0  0  0  0  0
   -7.3329   -0.0520  -18.6933 C   0  0  0  0  0  0  0  0  0  0  0  0
   -7.0105    0.3316  -17.5672 N   0  0  0  0  0  0  0  0  0  0  0  0
   -5.8714    0.8518  -18.0012 C   0  0  0  0  0  0  0  0  0  0  0  0
   -5.3928    0.8531  -19.1125 C   0  0  0  0  0  0  0  0  0  0  0  0
   -5.7936    0.3390  -20.2748 C   0  0  0  0  0  0  0  0  0  0  0  0
   -5.2132    0.3245  -21.5724 C   0  0  0  0  0  0  0  0  0  0  0  0
   -5.9531   -6.2067  -26.5828 H   0  0  0  0  0  0  0  0  0  0  0  0
   -5.3925   -4.7075  -25.7676 H   0  0  0  0  0  0  0  0  0  0  0  0
   -5.8220   -6.1534  -24.7921 H   0  0  0  0  0  0  0  0  0  0  0  0
   -7.0464   -3.4387  -24.3000 H   0  0  0  0  0  0  0  0  0  0  0  0
   -9.1499   -4.1423  -23.2110 H   0  0  0  0  0  0  0  0  0  0  0  0
   -9.2140   -3.3504  -24.8220 H   0  0  0  0  0  0  0  0  0  0  0  0
   -9.6774   -0.4456  -25.0405 H   0  0  0  0  0  0  0  0  0  0  0  0
  -12.3627    0.6335  -25.3594 H   0  0  0  0  0  0  0  0  0  0  0  0
  -13.7384   -0.2159  -24.0176 H   0  0  0  0  0  0  0  0  0  0  0  0
  -13.3762   -1.8151  -22.3547 H   0  0  0  0  0  0  0  0  0  0  0  0
  -11.5547   -1.7340  -21.5775 H   0  0  0  0  0  0  0  0  0  0  0  0
  -11.7532   -2.9682  -22.8675 H   0  0  0  0  0  0  0  0  0  0  0  0
   -7.5394   -1.6484  -21.3404 H   0  0  0  0  0  0  0  0  0  0  0  0
   -8.3217   -0.4411  -18.4999 H   0  0  0  0  0  0  0  0  0  0  0  0
   -5.2799    1.3509  -17.2479 H   0  0  0  0  0  0  0  0  0  0  0  0
   -4.4503    1.3766  -19.1752 H   0  0  0  0  0  0  0  0  0  0  0  0
   -4.6052   -0.5842  -21.6926 H   0  0  0  0  0  0  0  0  0  0  0  0
   -6.0102    0.3352  -22.3305 H   0  0  0  0  0  0  0  0  0  0  0  0
   -4.5753    1.2117  -21.6985 H   0  0  0  0  0  0  0  0  0  0  0  0
 20 21  2  0  0  0  0
 19 20  1  0  0  0  0
 21 22  1  0  0  0  0
 18 19  2  0  0  0  0
 22 23  2  0  0  0  0
 18 23  1  0  0  0  0
 17 18  1  0  0  0  0
 23 24  1  0  0  0  0
 15 16  2  0  0  0  0
 15 17  1  0  0  0  0
 14 15  1  0  0  0  0
  8 14  1  0  0  0  0
  7 14  2  0  0  0  0
 12 13  1  0  0  0  0
  8 13  1  0  0  0  0
 11 12  2  0  0  0  0
  7  8  1  0  0  0  0
  8  9  1  0  0  0  0
  6  7  1  0  0  0  0
 10 11  1  0  0  0  0
  5  6  1  0  0  0  0
  9 10  2  0  0  0  0
  2  5  1  0  0  0  0
  2  3  2  0  0  0  0
  1  2  1  0  0  0  0
  2  4  2  0  0  0  0
  1 25  1  0  0  0  0
  1 26  1  0  0  0  0
  1 27  1  0  0  0  0
  5 28  1  0  0  0  0
  6 29  1  0  0  0  0
  6 30  1  0  0  0  0
  9 31  1  0  0  0  0
 10 32  1  0  0  0  0
 11 33  1  0  0  0  0
 12 34  1  0  0  0  0
 13 35  1  0  0  0  0
 13 36  1  0  0  0  0
 17 37  1  0  0  0  0
 19 38  1  0  0  0  0
 21 39  1  0  0  0  0
 22 40  1  0  0  0  0
 24 41  1  0  0  0  0
 24 42  1  0  0  0  0
 24 43  1  0  0  0  0
M  END
> <Chemgauss4>
-13.188568

$$$$
