
 OpenBabel07202414163D

 36 38  0  0  0  0  0  0  0  0999 V2000
    2.3336   -0.0874   -0.1461 C   0  0  0  0  0  0  0  0  0  0  0  0
    0.8375   -0.0790   -0.0251 C   0  0  0  0  0  0  0  0  0  0  0  0
    0.1360    1.1056    0.1991 C   0  0  0  0  0  0  0  0  0  0  0  0
   -1.2561    1.0800    0.3033 C   0  0  0  0  0  0  0  0  0  0  0  0
   -1.9636   -0.1289    0.1813 C   0  0  0  0  0  0  0  0  0  0  0  0
   -1.2807   -1.3261   -0.0442 C   0  0  0  0  0  0  0  0  0  0  0  0
    0.1216   -1.2819   -0.1424 C   0  0  0  0  0  0  0  0  0  0  0  0
   -1.8748   -2.6085   -0.1662 N   0  0  0  0  0  0  0  0  0  0  0  0
   -3.2204   -2.9577   -0.1385 C   0  0  0  0  0  0  0  0  0  0  0  0
   -4.1409   -2.1670   -0.1275 O   0  0  0  0  0  0  0  0  0  0  0  0
   -3.4507   -4.5257   -0.0885 C   0  0  0  0  0  0  0  0  0  0  0  0
   -4.1495   -5.1797   -1.2033 N   0  0  0  0  0  0  0  0  0  0  0  0
   -5.4497   -4.7599   -1.5813 C   0  0  0  0  0  0  0  0  0  0  0  0
   -6.3607   -4.1533   -0.7415 C   0  0  0  0  0  0  0  0  0  0  0  0
   -6.9030   -2.9606   -1.2019 C   0  0  0  0  0  0  0  0  0  0  0  0
   -6.5349   -2.4692   -2.4680 C   0  0  0  0  0  0  0  0  0  0  0  0
   -5.8549   -3.2833   -3.3838 C   0  0  0  0  0  0  0  0  0  0  0  0
   -5.4577   -4.5272   -2.9489 C   0  0  0  0  0  0  0  0  0  0  0  0
   -4.4029   -5.3556   -3.5260 C   0  0  0  0  0  0  0  0  0  0  0  0
   -4.3721   -5.8888   -4.6056 O   0  0  0  0  0  0  0  0  0  0  0  0
   -3.4204   -5.5164   -2.3436 C   0  0  0  0  0  0  0  0  0  0  0  0
   -2.2228   -5.6996   -2.4538 O   0  0  0  0  0  0  0  0  0  0  0  0
    2.7554    0.9174   -0.0402 H   0  0  0  0  0  0  0  0  0  0  0  0
    2.6315   -0.4733   -1.1265 H   0  0  0  0  0  0  0  0  0  0  0  0
    2.7701   -0.7179    0.6351 H   0  0  0  0  0  0  0  0  0  0  0  0
    0.6646    2.0535    0.2914 H   0  0  0  0  0  0  0  0  0  0  0  0
   -1.7939    2.0103    0.4788 H   0  0  0  0  0  0  0  0  0  0  0  0
   -3.0455   -0.0954    0.2693 H   0  0  0  0  0  0  0  0  0  0  0  0
    0.6790   -2.1995   -0.3157 H   0  0  0  0  0  0  0  0  0  0  0  0
   -1.2193   -3.3600   -0.3389 H   0  0  0  0  0  0  0  0  0  0  0  0
   -4.0024   -4.7354    0.8323 H   0  0  0  0  0  0  0  0  0  0  0  0
   -2.4735   -5.0077    0.0060 H   0  0  0  0  0  0  0  0  0  0  0  0
   -6.5061   -4.4787    0.2825 H   0  0  0  0  0  0  0  0  0  0  0  0
   -7.4666   -2.3353   -0.5143 H   0  0  0  0  0  0  0  0  0  0  0  0
   -6.7028   -1.4186   -2.6945 H   0  0  0  0  0  0  0  0  0  0  0  0
   -5.4821   -2.8817   -4.3209 H   0  0  0  0  0  0  0  0  0  0  0  0
  1  2  1  0  0  0  0
  1 23  1  0  0  0  0
  1 24  1  0  0  0  0
  1 25  1  0  0  0  0
  2  3  1  0  0  0  0
  2  7  2  0  0  0  0
  3  4  2  0  0  0  0
  3 26  1  0  0  0  0
  4  5  1  0  0  0  0
  4 27  1  0  0  0  0
  5  6  2  0  0  0  0
  5 28  1  0  0  0  0
  6  7  1  0  0  0  0
  6  8  1  0  0  0  0
  7 29  1  0  0  0  0
  8  9  1  0  0  0  0
  8 30  1  0  0  0  0
  9 10  2  0  0  0  0
  9 11  1  0  0  0  0
 11 12  1  0  0  0  0
 11 31  1  0  0  0  0
 11 32  1  0  0  0  0
 12 13  1  0  0  0  0
 12 21  1  0  0  0  0
 13 14  1  0  0  0  0
 13 18  2  0  0  0  0
 14 15  2  0  0  0  0
 14 33  1  0  0  0  0
 15 16  1  0  0  0  0
 15 34  1  0  0  0  0
 16 17  2  0  0  0  0
 16 35  1  0  0  0  0
 17 18  1  0  0  0  0
 17 36  1  0  0  0  0
 18 19  1  0  0  0  0
 19 20  2  0  0  0  0
 19 21  1  0  0  0  0
 21 22  2  0  0  0  0
M  END
$$$$
