stable:False satoms:8 tatoms:24 sratio:0.3333333333333333
  -OEChem-07092417493D

 24 25  0     1  0  0  0  0  0999 V2000
    6.6085   -4.8211   26.5034 C   0  0  0  0  0  0  0  0  0  0  0  0
    8.1817   -4.3119   26.1166 S   0  0  0  0  0  0  0  0  0  0  0  0
    9.0303   -5.4887   26.1012 O   0  0  0  0  0  0  0  0  0  0  0  0
    8.6371   -3.4103   27.1326 O   0  0  0  0  0  0  0  0  0  0  0  0
    8.0690   -3.6228   24.6759 N   0  0  0  0  0  0  0  0  0  0  0  0
    8.9614   -2.9083   24.1163 C   0  0  0  0  0  0  0  0  0  0  0  0
    9.4017   -1.9617   23.4843 C   0  0  0  0  0  0  0  0  0  0  0  0
   10.3177   -1.0727   23.2924 C   0  0  2  0  0  0  0  0  0  0  0  0
   11.0444   -0.0546   24.2838 C   0  0  0  0  0  0  0  0  0  0  0  0
   12.0765    0.2394   24.2302 C   0  0  0  0  0  0  0  0  0  0  0  0
   13.1201   -0.0923   23.5257 C   0  0  0  0  0  0  0  0  0  0  0  0
   12.7149   -1.3420   22.5807 C   0  0  0  0  0  0  0  0  0  0  0  0
   11.8659   -1.7479   22.4642 C   0  0  0  0  0  0  0  0  0  0  0  0
    9.7184   -0.6409   22.3557 C   0  0  2  0  0  0  0  0  0  0  0  0
    9.0596    0.0317   21.3971 C   0  0  0  0  0  0  0  0  0  0  0  0
    9.5030    1.0037   21.0201 O   0  0  0  0  0  0  0  0  0  0  0  0
    7.9339   -0.5633   21.0538 N   0  0  0  0  0  0  0  0  0  0  0  0
    7.2211   -0.1141   20.1555 C   0  0  0  0  0  0  0  0  0  0  0  0
    7.2717    0.0014   18.8576 C   0  0  0  0  0  0  0  0  0  0  0  0
    6.7587    0.3254   17.7748 N   0  0  0  0  0  0  0  0  0  0  0  0
    5.6634    0.9112   18.2232 C   0  0  0  0  0  0  0  0  0  0  0  0
    5.2611    1.0059   19.4267 C   0  0  0  0  0  0  0  0  0  0  0  0
    5.8269    0.5914   20.5289 C   0  0  0  0  0  0  0  0  0  0  0  0
    5.3371    0.7524   21.9961 C   0  0  0  0  0  0  0  0  0  0  0  0
 20 21  2  0  0  0  0
 19 20  1  0  0  0  0
 21 22  1  0  0  0  0
 18 19  2  0  0  0  0
 22 23  2  0  0  0  0
 18 23  1  0  0  0  0
 17 18  1  0  0  0  0
 23 24  1  0  0  0  0
 15 16  2  0  0  0  0
 15 17  1  0  0  0  0
 14 15  1  0  0  0  0
  8 14  1  0  0  0  0
  7 14  1  0  0  0  0
 12 13  2  0  0  0  0
 11 12  1  0  0  0  0
  7  8  1  0  0  0  0
  8  9  1  0  0  0  0
  6  7  2  3  0  0  0
 10 11  1  0  0  0  0
  5  6  1  0  0  0  0
  9 10  2  0  0  0  0
  2  5  1  0  0  0  0
  2  3  2  0  0  0  0
  1  2  1  0  0  0  0
  2  4  2  0  0  0  0
M  END
> <Shapegauss>
-286.268311

$$$$
