stable:False satoms:8 tatoms:24 sratio:0.3333333333333333
  -OEChem-08062416133D

 45 46  0     1  0  0  0  0  0999 V2000
    6.0320   -5.1689   25.9159 C   0  0  0  0  0  0  0  0  0  0  0  0
    7.6471   -4.6657   25.7671 S   0  0  0  0  0  0  0  0  0  0  0  0
    8.4778   -5.8553   25.7763 O   0  0  0  0  0  0  0  0  0  0  0  0
    7.9796   -3.8447   26.8932 O   0  0  0  0  0  0  0  0  0  0  0  0
    7.7260   -3.8779   24.3757 N   0  0  0  0  0  0  0  0  0  0  0  0
    8.6901   -3.1447   23.9845 C   0  0  0  0  0  0  0  0  0  0  0  0
    9.2175   -2.1661   23.4810 C   0  0  0  0  0  0  0  0  0  0  0  0
   10.1602   -1.2844   23.4689 C   0  0  2  0  0  0  0  0  0  0  0  0
   10.7662   -0.3509   24.6130 C   0  0  0  0  0  0  0  0  0  0  0  0
   11.7999   -0.0744   24.7106 C   0  0  0  0  0  0  0  0  0  0  0  0
   12.9209   -0.3779   24.1217 C   0  0  0  0  0  0  0  0  0  0  0  0
   12.6253   -1.5520   23.0479 C   0  0  0  0  0  0  0  0  0  0  0  0
   11.7936   -1.9321   22.7971 C   0  0  0  0  0  0  0  0  0  0  0  0
    9.6896   -0.7779   22.4968 C   0  0  2  0  0  0  0  0  0  0  0  0
    9.1654   -0.0286   21.5124 C   0  0  0  0  0  0  0  0  0  0  0  0
    9.6638    0.9579   21.2634 O   0  0  0  0  0  0  0  0  0  0  0  0
    8.0860   -0.5763   20.9891 N   0  0  0  0  0  0  0  0  0  0  0  0
    7.4981   -0.0529   20.0419 C   0  0  0  0  0  0  0  0  0  0  0  0
    7.7145    0.1499   18.7721 C   0  0  0  0  0  0  0  0  0  0  0  0
    7.3469    0.5571   17.6587 N   0  0  0  0  0  0  0  0  0  0  0  0
    6.2100    1.1325   18.0055 C   0  0  0  0  0  0  0  0  0  0  0  0
    5.6591    1.1528   19.1523 C   0  0  0  0  0  0  0  0  0  0  0  0
    6.0756    0.6530   20.2852 C   0  0  0  0  0  0  0  0  0  0  0  0
    5.4052    0.7232   21.6867 C   0  0  0  0  0  0  0  0  0  0  0  0
    5.9050   -5.7217   26.8584 H   0  0  0  0  0  0  0  0  0  0  0  0
    5.3724   -4.2886   25.9155 H   0  0  0  0  0  0  0  0  0  0  0  0
    5.7722   -5.8221   25.0699 H   0  0  0  0  0  0  0  0  0  0  0  0
    6.9230   -3.2820   24.3660 H   0  0  0  0  0  0  0  0  0  0  0  0
    9.5475   -3.7400   24.2619 H   0  0  0  0  0  0  0  0  0  0  0  0
   11.0513   -1.8306   23.1259 H   0  0  0  0  0  0  0  0  0  0  0  0
   10.0792    0.0355   25.3513 H   0  0  0  0  0  0  0  0  0  0  0  0
   11.9478    0.6425   25.5047 H   0  0  0  0  0  0  0  0  0  0  0  0
   13.6498   -0.7294   24.8668 H   0  0  0  0  0  0  0  0  0  0  0  0
   13.3219    0.5068   23.6055 H   0  0  0  0  0  0  0  0  0  0  0  0
   13.4932   -1.9576   22.5491 H   0  0  0  0  0  0  0  0  0  0  0  0
   11.7602   -2.7177   22.0568 H   0  0  0  0  0  0  0  0  0  0  0  0
   10.8797   -1.5793   23.2518 H   0  0  0  0  0  0  0  0  0  0  0  0
   10.2668   -1.4046   21.8011 H   0  0  0  0  0  0  0  0  0  0  0  0
    7.7380   -1.4335   21.3688 H   0  0  0  0  0  0  0  0  0  0  0  0
    8.7142   -0.2235   18.6060 H   0  0  0  0  0  0  0  0  0  0  0  0
    5.6823    1.6501   17.2180 H   0  0  0  0  0  0  0  0  0  0  0  0
    4.7057    1.6583   19.1956 H   0  0  0  0  0  0  0  0  0  0  0  0
    4.7538   -0.1521   21.8264 H   0  0  0  0  0  0  0  0  0  0  0  0
    6.1825    0.7297   22.4650 H   0  0  0  0  0  0  0  0  0  0  0  0
    4.8050    1.6421   21.7602 H   0  0  0  0  0  0  0  0  0  0  0  0
 20 21  2  0  0  0  0
 19 20  1  0  0  0  0
 21 22  1  0  0  0  0
 18 19  2  0  0  0  0
 22 23  2  0  0  0  0
 18 23  1  0  0  0  0
 17 18  1  0  0  0  0
 23 24  1  0  0  0  0
 15 16  2  0  0  0  0
 15 17  1  0  0  0  0
 14 15  1  0  0  0  0
  8 14  1  0  0  0  0
  7 14  1  0  0  0  0
 12 13  2  0  0  0  0
 11 12  1  0  0  0  0
  7  8  1  0  0  0  0
  8  9  1  0  0  0  0
  6  7  2  3  0  0  0
 10 11  1  0  0  0  0
  5  6  1  0  0  0  0
  9 10  2  0  0  0  0
  2  5  1  0  0  0  0
  2  3  2  0  0  0  0
  1  2  1  0  0  0  0
  2  4  2  0  0  0  0
  1 25  1  0  0  0  0
  1 26  1  0  0  0  0
  1 27  1  0  0  0  0
  5 28  1  0  0  0  0
  6 29  1  0  0  0  0
  8 30  1  0  0  0  0
  9 31  1  0  0  0  0
 10 32  1  0  0  0  0
 11 33  1  0  0  0  0
 11 34  1  0  0  0  0
 12 35  1  0  0  0  0
 13 36  1  0  0  0  0
 13 37  1  0  0  0  0
 14 38  1  0  0  0  0
 17 39  1  0  0  0  0
 19 40  1  0  0  0  0
 21 41  1  0  0  0  0
 22 42  1  0  0  0  0
 24 43  1  0  0  0  0
 24 44  1  0  0  0  0
 24 45  1  0  0  0  0
M  END
> <Chemgauss4>
-12.872894

$$$$
