stable:False satoms:8 tatoms:24 sratio:0.3333333333333333
  -OEChem-08062416133D

 45 46  0     1  0  0  0  0  0999 V2000
   -5.9708   -5.2377  -25.7780 C   0  0  0  0  0  0  0  0  0  0  0  0
   -7.5814   -4.7239  -25.6175 S   0  0  0  0  0  0  0  0  0  0  0  0
   -8.4181   -5.9091  -25.5972 O   0  0  0  0  0  0  0  0  0  0  0  0
   -7.9237   -3.9194  -26.7525 O   0  0  0  0  0  0  0  0  0  0  0  0
   -7.6391   -3.9133  -24.2381 N   0  0  0  0  0  0  0  0  0  0  0  0
   -8.5946   -3.1689  -23.8470 C   0  0  0  0  0  0  0  0  0  0  0  0
   -9.1108   -2.1796  -23.3529 C   0  0  0  0  0  0  0  0  0  0  0  0
  -10.0489   -1.2929  -23.3434 C   0  0  2  0  0  0  0  0  0  0  0  0
  -10.6643   -0.3748  -24.4948 C   0  0  0  0  0  0  0  0  0  0  0  0
  -11.6978   -0.0946  -24.5842 C   0  0  0  0  0  0  0  0  0  0  0  0
  -12.8128   -0.3827  -23.9767 C   0  0  0  0  0  0  0  0  0  0  0  0
  -12.5099   -1.5409  -22.8877 C   0  0  0  0  0  0  0  0  0  0  0  0
  -11.6770   -1.9212  -22.6411 C   0  0  0  0  0  0  0  0  0  0  0  0
   -9.5637   -0.7734  -22.3855 C   0  0  2  0  0  0  0  0  0  0  0  0
   -9.0236   -0.0110  -21.4198 C   0  0  0  0  0  0  0  0  0  0  0  0
   -9.5139    0.9819  -21.1807 O   0  0  0  0  0  0  0  0  0  0  0  0
   -7.9405   -0.5559  -20.9011 N   0  0  0  0  0  0  0  0  0  0  0  0
   -7.3383   -0.0204  -19.9698 C   0  0  0  0  0  0  0  0  0  0  0  0
   -7.5380    0.2039  -18.7008 C   0  0  0  0  0  0  0  0  0  0  0  0
   -7.1545    0.6270  -17.5987 N   0  0  0  0  0  0  0  0  0  0  0  0
   -6.0191    1.1909  -17.9688 C   0  0  0  0  0  0  0  0  0  0  0  0
   -5.4824    1.1899  -19.1225 C   0  0  0  0  0  0  0  0  0  0  0  0
   -5.9155    0.6741  -20.2420 C   0  0  0  0  0  0  0  0  0  0  0  0
   -5.2621    0.7182  -21.6525 C   0  0  0  0  0  0  0  0  0  0  0  0
   -5.8583   -5.8063  -26.7130 H   0  0  0  0  0  0  0  0  0  0  0  0
   -5.3068   -4.3610  -25.8000 H   0  0  0  0  0  0  0  0  0  0  0  0
   -5.7038   -5.8787  -24.9249 H   0  0  0  0  0  0  0  0  0  0  0  0
   -6.8330   -3.3216  -24.2479 H   0  0  0  0  0  0  0  0  0  0  0  0
   -9.4583   -3.7641  -24.1041 H   0  0  0  0  0  0  0  0  0  0  0  0
  -10.9383   -1.8290  -22.9806 H   0  0  0  0  0  0  0  0  0  0  0  0
   -9.9846   -0.0039  -25.2477 H   0  0  0  0  0  0  0  0  0  0  0  0
  -11.8519    0.6102  -25.3879 H   0  0  0  0  0  0  0  0  0  0  0  0
  -13.5527   -0.7424  -24.7069 H   0  0  0  0  0  0  0  0  0  0  0  0
  -13.2030    0.5123  -23.4699 H   0  0  0  0  0  0  0  0  0  0  0  0
  -13.3735   -1.9339  -22.3719 H   0  0  0  0  0  0  0  0  0  0  0  0
  -11.6384   -2.6950  -21.8888 H   0  0  0  0  0  0  0  0  0  0  0  0
  -10.7671   -1.5806  -23.1127 H   0  0  0  0  0  0  0  0  0  0  0  0
  -10.1354   -1.3858  -21.6726 H   0  0  0  0  0  0  0  0  0  0  0  0
   -7.6016   -1.4209  -21.2711 H   0  0  0  0  0  0  0  0  0  0  0  0
   -8.5374   -0.1615  -18.5164 H   0  0  0  0  0  0  0  0  0  0  0  0
   -5.4792    1.7183  -17.1963 H   0  0  0  0  0  0  0  0  0  0  0  0
   -4.5271    1.6897  -19.1857 H   0  0  0  0  0  0  0  0  0  0  0  0
   -4.6169   -0.1626  -21.7861 H   0  0  0  0  0  0  0  0  0  0  0  0
   -6.0489    0.7162  -22.4212 H   0  0  0  0  0  0  0  0  0  0  0  0
   -4.6583    1.6327  -21.7483 H   0  0  0  0  0  0  0  0  0  0  0  0
 20 21  2  0  0  0  0
 19 20  1  0  0  0  0
 21 22  1  0  0  0  0
 18 19  2  0  0  0  0
 22 23  2  0  0  0  0
 18 23  1  0  0  0  0
 17 18  1  0  0  0  0
 23 24  1  0  0  0  0
 15 16  2  0  0  0  0
 15 17  1  0  0  0  0
 14 15  1  0  0  0  0
  8 14  1  0  0  0  0
  7 14  1  0  0  0  0
 12 13  2  0  0  0  0
 11 12  1  0  0  0  0
  7  8  1  0  0  0  0
  8  9  1  0  0  0  0
  6  7  2  3  0  0  0
 10 11  1  0  0  0  0
  5  6  1  0  0  0  0
  9 10  2  0  0  0  0
  2  5  1  0  0  0  0
  2  3  2  0  0  0  0
  1  2  1  0  0  0  0
  2  4  2  0  0  0  0
  1 25  1  0  0  0  0
  1 26  1  0  0  0  0
  1 27  1  0  0  0  0
  5 28  1  0  0  0  0
  6 29  1  0  0  0  0
  8 30  1  0  0  0  0
  9 31  1  0  0  0  0
 10 32  1  0  0  0  0
 11 33  1  0  0  0  0
 11 34  1  0  0  0  0
 12 35  1  0  0  0  0
 13 36  1  0  0  0  0
 13 37  1  0  0  0  0
 14 38  1  0  0  0  0
 17 39  1  0  0  0  0
 19 40  1  0  0  0  0
 21 41  1  0  0  0  0
 22 42  1  0  0  0  0
 24 43  1  0  0  0  0
 24 44  1  0  0  0  0
 24 45  1  0  0  0  0
M  END
> <Chemgauss4>
-12.910088

$$$$
