stable:False satoms:8 tatoms:24 sratio:0.3333333333333333
  -OEChem-08062417043D

 45 46  0     1  0  0  0  0  0999 V2000
   -6.6750   -5.3181  -26.2959 C   0  0  0  0  0  0  0  0  0  0  0  0
   -8.2109   -4.6770  -26.0764 S   0  0  0  0  0  0  0  0  0  0  0  0
   -9.1428   -5.7869  -25.9815 O   0  0  0  0  0  0  0  0  0  0  0  0
   -8.5731   -3.8212  -27.1908 O   0  0  0  0  0  0  0  0  0  0  0  0
   -8.1874   -3.8547  -24.6797 N   0  0  0  0  0  0  0  0  0  0  0  0
   -9.0178   -3.1311  -24.1846 C   0  0  0  0  0  0  0  0  0  0  0  0
   -9.4538   -2.1400  -23.6218 C   0  0  0  0  0  0  0  0  0  0  0  0
  -10.3201   -1.2573  -23.4725 C   0  0  1  0  0  0  0  0  0  0  0  0
  -10.9708   -0.1339  -24.5795 C   0  0  0  0  0  0  0  0  0  0  0  0
  -11.9784    0.2318  -24.5853 C   0  0  0  0  0  0  0  0  0  0  0  0
  -13.1201   -0.1450  -23.8357 C   0  0  0  0  0  0  0  0  0  0  0  0
  -12.7453   -1.3034  -22.8973 C   0  0  0  0  0  0  0  0  0  0  0  0
  -11.8842   -1.7663  -22.7267 C   0  0  0  0  0  0  0  0  0  0  0  0
   -9.7719   -0.6288  -22.5519 C   0  0  0  0  0  0  0  0  0  0  0  0
   -9.1288   -0.0259  -21.5927 C   0  0  0  0  0  0  0  0  0  0  0  0
   -9.5910    0.9740  -21.2974 O   0  0  0  0  0  0  0  0  0  0  0  0
   -8.0698   -0.6815  -21.1973 N   0  0  0  0  0  0  0  0  0  0  0  0
   -7.3287   -0.2160  -20.2402 C   0  0  0  0  0  0  0  0  0  0  0  0
   -7.4567   -0.0814  -18.9435 C   0  0  0  0  0  0  0  0  0  0  0  0
   -7.0236    0.2826  -17.8518 N   0  0  0  0  0  0  0  0  0  0  0  0
   -5.8593    0.7770  -18.2825 C   0  0  0  0  0  0  0  0  0  0  0  0
   -5.4125    0.7847  -19.4167 C   0  0  0  0  0  0  0  0  0  0  0  0
   -5.9478    0.3697  -20.5647 C   0  0  0  0  0  0  0  0  0  0  0  0
   -5.3415    0.3835  -22.0388 C   0  0  0  0  0  0  0  0  0  0  0  0
   -6.6456   -5.8870  -27.2368 H   0  0  0  0  0  0  0  0  0  0  0  0
   -5.9395   -4.5012  -26.3383 H   0  0  0  0  0  0  0  0  0  0  0  0
   -6.4332   -5.9859  -25.4560 H   0  0  0  0  0  0  0  0  0  0  0  0
   -7.3745   -3.2768  -24.7522 H   0  0  0  0  0  0  0  0  0  0  0  0
   -9.9180   -3.7114  -24.3243 H   0  0  0  0  0  0  0  0  0  0  0  0
   -8.7108   -1.9123  -22.8718 H   0  0  0  0  0  0  0  0  0  0  0  0
  -10.3072    0.2430  -25.3437 H   0  0  0  0  0  0  0  0  0  0  0  0
  -12.1551    1.0316  -25.2892 H   0  0  0  0  0  0  0  0  0  0  0  0
  -14.0972    0.3088  -23.9116 H   0  0  0  0  0  0  0  0  0  0  0  0
  -13.5721   -1.6838  -22.3159 H   0  0  0  0  0  0  0  0  0  0  0  0
  -11.7281   -1.7218  -21.6388 H   0  0  0  0  0  0  0  0  0  0  0  0
  -12.0380   -2.8116  -23.0326 H   0  0  0  0  0  0  0  0  0  0  0  0
  -10.6513   -0.7660  -21.9054 H   0  0  0  0  0  0  0  0  0  0  0  0
   -9.8699    0.3149  -23.1086 H   0  0  0  0  0  0  0  0  0  0  0  0
   -7.8293   -1.5476  -21.6355 H   0  0  0  0  0  0  0  0  0  0  0  0
   -8.4281   -0.4987  -18.7231 H   0  0  0  0  0  0  0  0  0  0  0  0
   -5.2326    1.2285  -17.5276 H   0  0  0  0  0  0  0  0  0  0  0  0
   -4.4179    1.1960  -19.5063 H   0  0  0  0  0  0  0  0  0  0  0  0
   -4.7835   -0.5479  -22.2151 H   0  0  0  0  0  0  0  0  0  0  0  0
   -6.1587    0.4654  -22.7706 H   0  0  0  0  0  0  0  0  0  0  0  0
   -4.6638    1.2430  -22.1484 H   0  0  0  0  0  0  0  0  0  0  0  0
 20 21  2  0  0  0  0
 19 20  1  0  0  0  0
 21 22  1  0  0  0  0
 18 19  2  0  0  0  0
 22 23  2  0  0  0  0
 18 23  1  0  0  0  0
 17 18  1  0  0  0  0
 23 24  1  0  0  0  0
 15 16  2  0  0  0  0
 15 17  1  0  0  0  0
 14 15  1  0  0  0  0
  8 14  1  0  0  0  0
 12 13  1  0  0  0  0
  8 13  1  0  0  0  0
 11 12  2  0  0  0  0
  7  8  1  0  0  0  0
  8  9  1  0  0  0  0
 10 11  1  0  0  0  0
  6  7  2  3  0  0  0
  5  6  1  0  0  0  0
  9 10  2  0  0  0  0
  2  5  1  0  0  0  0
  2  3  2  0  0  0  0
  1  2  1  0  0  0  0
  2  4  2  0  0  0  0
  1 25  1  0  0  0  0
  1 26  1  0  0  0  0
  1 27  1  0  0  0  0
  5 28  1  0  0  0  0
  6 29  1  0  0  0  0
  7 30  1  0  0  0  0
  9 31  1  0  0  0  0
 10 32  1  0  0  0  0
 11 33  1  0  0  0  0
 12 34  1  0  0  0  0
 13 35  1  0  0  0  0
 13 36  1  0  0  0  0
 14 37  1  0  0  0  0
 14 38  1  0  0  0  0
 17 39  1  0  0  0  0
 19 40  1  0  0  0  0
 21 41  1  0  0  0  0
 22 42  1  0  0  0  0
 24 43  1  0  0  0  0
 24 44  1  0  0  0  0
 24 45  1  0  0  0  0
M  END
> <Chemgauss4>
-12.958068

$$$$
