stable:False satoms:8 tatoms:24 sratio:0.3333333333333333
  -OEChem-08062417043D

 45 46  0     1  0  0  0  0  0999 V2000
    6.3457   -5.2171   26.2915 C   0  0  0  0  0  0  0  0  0  0  0  0
    7.9011   -4.6185   26.0909 S   0  0  0  0  0  0  0  0  0  0  0  0
    8.8036   -5.7536   26.0095 O   0  0  0  0  0  0  0  0  0  0  0  0
    8.2723   -3.7709   27.2087 O   0  0  0  0  0  0  0  0  0  0  0  0
    7.9179   -3.7983   24.6929 N   0  0  0  0  0  0  0  0  0  0  0  0
    8.7741   -3.0985   24.2075 C   0  0  0  0  0  0  0  0  0  0  0  0
    9.2441   -2.1206   23.6490 C   0  0  0  0  0  0  0  0  0  0  0  0
   10.1360   -1.2620   23.5096 C   0  0  1  0  0  0  0  0  0  0  0  0
   10.8029   -0.1549   24.6232 C   0  0  0  0  0  0  0  0  0  0  0  0
   11.8199    0.1832   24.6415 C   0  0  0  0  0  0  0  0  0  0  0  0
   12.9604   -0.2259   23.9072 C   0  0  0  0  0  0  0  0  0  0  0  0
   12.5662   -1.3752   22.9656 C   0  0  0  0  0  0  0  0  0  0  0  0
   11.6950   -1.8148   22.7846 C   0  0  0  0  0  0  0  0  0  0  0  0
    9.6170   -0.6204   22.5812 C   0  0  0  0  0  0  0  0  0  0  0  0
    9.0029   -0.0019   21.6129 C   0  0  0  0  0  0  0  0  0  0  0  0
    9.4959    0.9846   21.3223 O   0  0  0  0  0  0  0  0  0  0  0  0
    7.9315   -0.6291   21.2049 N   0  0  0  0  0  0  0  0  0  0  0  0
    7.2157   -0.1452   20.2378 C   0  0  0  0  0  0  0  0  0  0  0  0
    7.3639   -0.0163   18.9426 C   0  0  0  0  0  0  0  0  0  0  0  0
    6.9549    0.3574   17.8450 N   0  0  0  0  0  0  0  0  0  0  0  0
    5.7991    0.8841   18.2599 C   0  0  0  0  0  0  0  0  0  0  0  0
    5.3382    0.9060   19.3884 C   0  0  0  0  0  0  0  0  0  0  0  0
    5.8473    0.4785   20.5437 C   0  0  0  0  0  0  0  0  0  0  0  0
    5.2227    0.5114   22.0099 C   0  0  0  0  0  0  0  0  0  0  0  0
    6.2888   -5.7834   27.2328 H   0  0  0  0  0  0  0  0  0  0  0  0
    5.6323   -4.3804   26.3234 H   0  0  0  0  0  0  0  0  0  0  0  0
    6.0965   -5.8796   25.4495 H   0  0  0  0  0  0  0  0  0  0  0  0
    7.1203   -3.1983   24.7541 H   0  0  0  0  0  0  0  0  0  0  0  0
    9.6562   -3.7028   24.3595 H   0  0  0  0  0  0  0  0  0  0  0  0
    8.5173   -1.8740   22.8892 H   0  0  0  0  0  0  0  0  0  0  0  0
   10.1401    0.2413   25.3784 H   0  0  0  0  0  0  0  0  0  0  0  0
   12.0093    0.9791   25.3466 H   0  0  0  0  0  0  0  0  0  0  0  0
   13.9485    0.2012   23.9949 H   0  0  0  0  0  0  0  0  0  0  0  0
   13.3897   -1.7791   22.3954 H   0  0  0  0  0  0  0  0  0  0  0  0
   11.5542   -1.7679   21.6947 H   0  0  0  0  0  0  0  0  0  0  0  0
   11.8163   -2.8634   23.0939 H   0  0  0  0  0  0  0  0  0  0  0  0
   10.5005   -0.7827   21.9462 H   0  0  0  0  0  0  0  0  0  0  0  0
    9.7335    0.3211   23.1378 H   0  0  0  0  0  0  0  0  0  0  0  0
    7.6619   -1.4876   21.6412 H   0  0  0  0  0  0  0  0  0  0  0  0
    8.3263   -0.4604   18.7353 H   0  0  0  0  0  0  0  0  0  0  0  0
    5.1947    1.3512   17.4965 H   0  0  0  0  0  0  0  0  0  0  0  0
    4.3541    1.3444   19.4646 H   0  0  0  0  0  0  0  0  0  0  0  0
    4.6374   -0.4042   22.1803 H   0  0  0  0  0  0  0  0  0  0  0  0
    6.0324    0.5722   22.7520 H   0  0  0  0  0  0  0  0  0  0  0  0
    4.5674    1.3892   22.1096 H   0  0  0  0  0  0  0  0  0  0  0  0
 20 21  2  0  0  0  0
 19 20  1  0  0  0  0
 21 22  1  0  0  0  0
 18 19  2  0  0  0  0
 22 23  2  0  0  0  0
 18 23  1  0  0  0  0
 17 18  1  0  0  0  0
 23 24  1  0  0  0  0
 15 16  2  0  0  0  0
 15 17  1  0  0  0  0
 14 15  1  0  0  0  0
  8 14  1  0  0  0  0
 12 13  1  0  0  0  0
  8 13  1  0  0  0  0
 11 12  2  0  0  0  0
  7  8  1  0  0  0  0
  8  9  1  0  0  0  0
 10 11  1  0  0  0  0
  6  7  2  3  0  0  0
  5  6  1  0  0  0  0
  9 10  2  0  0  0  0
  2  5  1  0  0  0  0
  2  3  2  0  0  0  0
  1  2  1  0  0  0  0
  2  4  2  0  0  0  0
  1 25  1  0  0  0  0
  1 26  1  0  0  0  0
  1 27  1  0  0  0  0
  5 28  1  0  0  0  0
  6 29  1  0  0  0  0
  7 30  1  0  0  0  0
  9 31  1  0  0  0  0
 10 32  1  0  0  0  0
 11 33  1  0  0  0  0
 12 34  1  0  0  0  0
 13 35  1  0  0  0  0
 13 36  1  0  0  0  0
 14 37  1  0  0  0  0
 14 38  1  0  0  0  0
 17 39  1  0  0  0  0
 19 40  1  0  0  0  0
 21 41  1  0  0  0  0
 22 42  1  0  0  0  0
 24 43  1  0  0  0  0
 24 44  1  0  0  0  0
 24 45  1  0  0  0  0
M  END
> <Chemgauss4>
-13.198599

$$$$
