REMARK  8 active torsions:
REMARK  status: ('A' for Active; 'I' for Inactive)
REMARK    1  A    between atoms: N_3  and  N_6 
REMARK    2  A    between atoms: C_5  and  C_8 
REMARK    3  A    between atoms: C_5  and  N_6 
REMARK    4  A    between atoms: C_8  and  C_12 
REMARK    5  A    between atoms: C_8  and  O_9 
REMARK    6  A    between atoms: O_9  and  C_10 
REMARK    7  A    between atoms: C_12  and  C_13 
REMARK       I    between atoms: C_13  and  N_15 
REMARK    8  A    between atoms: C_17  and  C_20 
ROOT
HETATM    1  C   UNL     1      10.190  -1.019  23.556  1.00  0.00     0.143 C 
ENDROOT
BRANCH   1   2
HETATM    2  C   UNL     1       9.077  -1.931  24.007  1.00  0.00     0.012 C 
BRANCH   2   3
HETATM    3  N   UNL     1       8.248  -2.364  24.113  1.00  0.00    -0.265 N 
ATOM      4  HN  UNL     1       7.466  -1.938  23.616  1.00  0.00     0.196 HD
BRANCH   3   5
HETATM    5  N   UNL     1       7.938  -3.497  24.848  1.00  0.00    -0.302 N 
HETATM    6  C   UNL     1       8.093  -4.085  26.057  1.00  0.00     0.362 C 
HETATM    7  F   UNL     1       6.879  -4.505  26.380  1.00  0.00    -0.233 F 
ATOM      8  HN  UNL     1       7.388  -4.120  24.257  1.00  0.00     0.183 HD
ENDBRANCH   3   5
ENDBRANCH   2   3
ENDBRANCH   1   2
BRANCH   1   9
HETATM    9  C   UNL     1      10.171  -0.697  22.440  1.00  0.00     0.122 C 
BRANCH   9  10
HETATM   10  C   UNL     1       9.117  -0.107  21.429  1.00  0.00     0.248 C 
HETATM   11  O   UNL     1       9.469   0.843  20.796  1.00  0.00    -0.268 OA
HETATM   12  N   UNL     1       7.888  -0.668  21.381  1.00  0.00    -0.331 N 
HETATM   13  C   UNL     1       6.810  -0.023  20.846  1.00  0.00     0.132 C 
ATOM     14  HN  UNL     1       7.761  -1.607  21.758  1.00  0.00     0.168 HD
BRANCH  13  15
HETATM   15  C   UNL     1       6.741   0.216  19.520  1.00  0.00     0.122 C 
HETATM   16  F   UNL     1       7.912  -0.113  18.848  1.00  0.00    -0.206 F 
HETATM   17  C   UNL     1       5.771   0.670  18.698  1.00  0.00     0.058 C 
ENDBRANCH  13  15
ENDBRANCH   9  10
ENDBRANCH   1   9
BRANCH   1  18
HETATM   18  O   UNL     1      11.113  -0.503  24.519  1.00  0.00    -0.314 OA
BRANCH  18  19
HETATM   19  C   UNL     1      12.209  -0.497  23.838  1.00  0.00     0.133 C 
HETATM   20  C   UNL     1      11.998  -0.979  22.621  1.00  0.00     0.038 C 
ENDBRANCH  18  19
ENDBRANCH   1  18
TORSDOF 8
