stable:False satoms:8 tatoms:24 sratio:0.3333333333333333
  -OEChem-08062412363D

 43 44  0     1  0  0  0  0  0999 V2000
   -6.2003   -5.3143  -26.2788 C   0  0  0  0  0  0  0  0  0  0  0  0
   -7.9303   -4.6367  -26.0686 S   0  0  0  0  0  0  0  0  0  0  0  0
   -8.7946   -5.8022  -25.9724 O   0  0  0  0  0  0  0  0  0  0  0  0
   -8.2100   -3.8285  -27.1966 O   0  0  0  0  0  0  0  0  0  0  0  0
   -7.8472   -3.8344  -24.6909 N   0  0  0  0  0  0  0  0  0  0  0  0
   -8.7003   -3.1418  -24.2403 C   0  0  0  0  0  0  0  0  0  0  0  0
   -9.2427   -2.2151  -23.7277 C   0  0  0  0  0  0  0  0  0  0  0  0
  -10.1184   -1.2956  -23.5639 C   0  0  1  0  0  0  0  0  0  0  0  0
  -10.7994   -0.2639  -24.5895 C   0  0  0  0  0  0  0  0  0  0  0  0
  -11.8271    0.0737  -24.6449 C   0  0  0  0  0  0  0  0  0  0  0  0
  -12.9168   -0.3204  -23.9572 C   0  0  0  0  0  0  0  0  0  0  0  0
  -12.6161   -1.3631  -23.0455 C   0  0  0  0  0  0  0  0  0  0  0  0
  -11.6944   -1.8067  -22.8367 C   0  0  0  0  0  0  0  0  0  0  0  0
   -9.5629   -0.7775  -22.6044 C   0  0  0  0  0  0  0  0  0  0  0  0
   -8.9534   -0.0967  -21.6608 C   0  0  0  0  0  0  0  0  0  0  0  0
   -9.4139    0.9160  -21.3755 O   0  0  0  0  0  0  0  0  0  0  0  0
   -7.8450   -0.7203  -21.2281 N   0  0  0  0  0  0  0  0  0  0  0  0
   -7.2034   -0.1897  -20.2872 C   0  0  0  0  0  0  0  0  0  0  0  0
   -7.2928    0.0005  -19.0097 C   0  0  0  0  0  0  0  0  0  0  0  0
   -6.9544    0.2804  -17.8492 N   0  0  0  0  0  0  0  0  0  0  0  0
   -5.7893    0.7697  -18.2780 C   0  0  0  0  0  0  0  0  0  0  0  0
   -5.3107    0.8107  -19.4166 C   0  0  0  0  0  0  0  0  0  0  0  0
   -5.7890    0.4188  -20.5966 C   0  0  0  0  0  0  0  0  0  0  0  0
   -5.2438    0.5060  -21.8848 C   0  0  0  0  0  0  0  0  0  0  0  0
   -6.1438   -5.8937  -27.2121 H   0  0  0  0  0  0  0  0  0  0  0  0
   -5.4830   -4.4814  -26.3205 H   0  0  0  0  0  0  0  0  0  0  0  0
   -5.9560   -5.9663  -25.4272 H   0  0  0  0  0  0  0  0  0  0  0  0
   -7.0459   -3.2426  -24.7785 H   0  0  0  0  0  0  0  0  0  0  0  0
  -10.1358    0.1542  -25.3320 H   0  0  0  0  0  0  0  0  0  0  0  0
  -12.0080    0.8536  -25.3698 H   0  0  0  0  0  0  0  0  0  0  0  0
  -13.9004    0.1067  -24.0852 H   0  0  0  0  0  0  0  0  0  0  0  0
  -13.4566   -1.7527  -22.4903 H   0  0  0  0  0  0  0  0  0  0  0  0
  -11.5616   -1.7125  -21.7488 H   0  0  0  0  0  0  0  0  0  0  0  0
  -11.8110   -2.8680  -23.1013 H   0  0  0  0  0  0  0  0  0  0  0  0
   -8.8246   -1.5908  -22.5456 H   0  0  0  0  0  0  0  0  0  0  0  0
  -10.4121   -1.0047  -21.9431 H   0  0  0  0  0  0  0  0  0  0  0  0
   -7.5407   -1.5786  -21.6413 H   0  0  0  0  0  0  0  0  0  0  0  0
   -8.3341   -0.2391  -18.8530 H   0  0  0  0  0  0  0  0  0  0  0  0
   -5.1653    1.1980  -17.5074 H   0  0  0  0  0  0  0  0  0  0  0  0
   -4.3226    1.2440  -19.4638 H   0  0  0  0  0  0  0  0  0  0  0  0
   -4.6642   -0.4037  -22.1006 H   0  0  0  0  0  0  0  0  0  0  0  0
   -6.0556    0.6064  -22.6203 H   0  0  0  0  0  0  0  0  0  0  0  0
   -4.5839    1.3840  -21.9449 H   0  0  0  0  0  0  0  0  0  0  0  0
 20 21  2  0  0  0  0
 19 20  1  0  0  0  0
 21 22  1  0  0  0  0
 18 19  2  0  0  0  0
 22 23  2  0  0  0  0
 18 23  1  0  0  0  0
 17 18  1  0  0  0  0
 23 24  1  0  0  0  0
 15 16  2  0  0  0  0
 15 17  1  0  0  0  0
 14 15  1  0  0  0  0
  8 14  1  0  0  0  0
 12 13  1  0  0  0  0
  8 13  1  0  0  0  0
 11 12  2  0  0  0  0
  7  8  1  0  0  0  0
  8  9  1  0  0  0  0
 10 11  1  0  0  0  0
  6  7  3  0  0  0  0
  5  6  1  0  0  0  0
  9 10  2  0  0  0  0
  2  5  1  0  0  0  0
  2  3  2  0  0  0  0
  1  2  1  0  0  0  0
  2  4  2  0  0  0  0
  1 25  1  0  0  0  0
  1 26  1  0  0  0  0
  1 27  1  0  0  0  0
  5 28  1  0  0  0  0
  9 29  1  0  0  0  0
 10 30  1  0  0  0  0
 11 31  1  0  0  0  0
 12 32  1  0  0  0  0
 13 33  1  0  0  0  0
 13 34  1  0  0  0  0
 14 35  1  0  0  0  0
 14 36  1  0  0  0  0
 17 37  1  0  0  0  0
 19 38  1  0  0  0  0
 21 39  1  0  0  0  0
 22 40  1  0  0  0  0
 24 41  1  0  0  0  0
 24 42  1  0  0  0  0
 24 43  1  0  0  0  0
M  END
> <Chemgauss4>
-13.075446

$$$$
