
 OpenBabel07202414173D

 44 47  0  0  1  0  0  0  0  0999 V2000
    7.7670    2.0482    1.3278 Cl  0  0  0  0  0  0  0  0  0  0  0  0
    7.8666    0.5010    0.5823 C   0  0  0  0  0  0  0  0  0  0  0  0
    9.0567    0.0990   -0.0181 C   0  0  0  0  0  0  0  0  0  0  0  0
    9.1339   -1.1524   -0.6294 C   0  0  0  0  0  0  0  0  0  0  0  0
    8.0154   -1.9979   -0.6354 C   0  0  0  0  0  0  0  0  0  0  0  0
    6.8128   -1.6158   -0.0188 C   0  0  0  0  0  0  0  0  0  0  0  0
    6.7547   -0.3438    0.5862 C   0  0  0  0  0  0  0  0  0  0  0  0
    5.5859   -2.5104    0.0451 C   0  0  3  0  0  0  0  0  0  0  0  0
    5.3218   -3.0032    1.4750 C   0  0  0  0  0  0  0  0  0  0  0  0
    4.5795   -2.3464    2.2037 O   0  0  0  0  0  0  0  0  0  0  0  0
    6.0234   -4.1343    1.8590 N   0  0  0  0  0  0  0  0  0  0  0  0
    5.9323   -4.7885    3.1163 C   0  0  0  0  0  0  0  0  0  0  0  0
    4.9047   -4.5202    4.0257 C   0  0  0  0  0  0  0  0  0  0  0  0
    4.7576   -5.1149    5.2336 N   0  0  0  0  0  0  0  0  0  0  0  0
    5.6843   -6.0274    5.5669 C   0  0  0  0  0  0  0  0  0  0  0  0
    6.7440   -6.4005    4.7449 C   0  0  0  0  0  0  0  0  0  0  0  0
    6.8841   -5.7630    3.4903 C   0  0  0  0  0  0  0  0  0  0  0  0
    8.0280   -6.1630    2.5801 C   0  0  0  0  0  0  0  0  0  0  0  0
    9.1673   -6.8893    3.3000 C   0  0  0  0  0  0  0  0  0  0  0  0
    8.6206   -7.9997    4.1841 C   0  0  0  0  0  0  0  0  0  0  0  0
    7.7341   -7.4061    5.2709 C   0  0  0  0  0  0  0  0  0  0  0  0
    5.5690   -3.6528   -0.9703 C   0  0  0  0  0  0  0  0  0  0  0  0
    6.8316   -4.4358   -0.8902 N   0  0  0  0  0  0  0  0  0  0  0  0
    8.1851   -3.5634   -1.4438 S   0  0  0  0  0  0  0  0  0  0  0  0
    9.3413   -4.2420   -0.9042 O   0  0  0  0  0  0  0  0  0  0  0  0
    7.9838   -3.3590   -2.8586 O   0  0  0  0  0  0  0  0  0  0  0  0
    9.9245    0.7539   -0.0126 H   0  0  0  0  0  0  0  0  0  0  0  0
   10.0645   -1.4637   -1.1012 H   0  0  0  0  0  0  0  0  0  0  0  0
    5.8380   -0.0116    1.0746 H   0  0  0  0  0  0  0  0  0  0  0  0
    4.7158   -1.8868   -0.2111 H   0  0  0  0  0  0  0  0  0  0  0  0
    6.7042   -4.4964    1.1952 H   0  0  0  0  0  0  0  0  0  0  0  0
    4.1099   -3.8139    3.8125 H   0  0  0  0  0  0  0  0  0  0  0  0
    5.5519   -6.4667    6.5525 H   0  0  0  0  0  0  0  0  0  0  0  0
    8.4578   -5.2793    2.0958 H   0  0  0  0  0  0  0  0  0  0  0  0
    7.6251   -6.8161    1.7956 H   0  0  0  0  0  0  0  0  0  0  0  0
    9.7320   -6.1766    3.9150 H   0  0  0  0  0  0  0  0  0  0  0  0
    9.8668   -7.3027    2.5650 H   0  0  0  0  0  0  0  0  0  0  0  0
    9.4418   -8.5601    4.6454 H   0  0  0  0  0  0  0  0  0  0  0  0
    8.0464   -8.7102    3.5764 H   0  0  0  0  0  0  0  0  0  0  0  0
    8.3630   -6.9032    6.0169 H   0  0  0  0  0  0  0  0  0  0  0  0
    7.2067   -8.2208    5.7819 H   0  0  0  0  0  0  0  0  0  0  0  0
    5.4350   -3.2746   -1.9919 H   0  0  0  0  0  0  0  0  0  0  0  0
    4.7324   -4.3348   -0.7768 H   0  0  0  0  0  0  0  0  0  0  0  0
    6.7678   -5.2679   -1.4869 H   0  0  0  0  0  0  0  0  0  0  0  0
  1  2  1  0  0  0  0
  2  3  1  0  0  0  0
  2  7  2  0  0  0  0
  3  4  2  0  0  0  0
  3 27  1  0  0  0  0
  4  5  1  0  0  0  0
  4 28  1  0  0  0  0
  5  6  2  0  0  0  0
  5 24  1  0  0  0  0
  6  7  1  0  0  0  0
  6  8  1  0  0  0  0
  7 29  1  0  0  0  0
  8  9  1  0  0  0  0
  8 22  1  0  0  0  0
  8 30  1  0  0  0  0
  9 10  2  0  0  0  0
  9 11  1  0  0  0  0
 11 12  1  0  0  0  0
 11 31  1  0  0  0  0
 12 13  1  0  0  0  0
 12 17  2  0  0  0  0
 13 14  2  0  0  0  0
 13 32  1  0  0  0  0
 14 15  1  0  0  0  0
 15 16  2  0  0  0  0
 15 33  1  0  0  0  0
 16 17  1  0  0  0  0
 16 21  1  0  0  0  0
 17 18  1  0  0  0  0
 18 19  1  0  0  0  0
 18 34  1  0  0  0  0
 18 35  1  0  0  0  0
 19 20  1  0  0  0  0
 19 36  1  0  0  0  0
 19 37  1  0  0  0  0
 20 21  1  0  0  0  0
 20 38  1  0  0  0  0
 20 39  1  0  0  0  0
 21 40  1  0  0  0  0
 21 41  1  0  0  0  0
 22 23  1  0  0  0  0
 22 42  1  0  0  0  0
 22 43  1  0  0  0  0
 23 24  1  0  0  0  0
 23 44  1  0  0  0  0
 24 25  2  0  0  0  0
 24 26  2  0  0  0  0
M  END
$$$$
