stable:False satoms:16 tatoms:24 sratio:0.6666666666666666
  -OEChem-07092417403D

 24 24  0     0  0  0  0  0  0999 V2000
    7.1390   -4.6242   26.4084 H   0  0  0  0  0  0  0  0  0  0  0  0
    8.1779   -4.3889   26.0713 C   0  0  0  0  0  0  0  0  0  0  0  0
    8.7476   -5.3586   26.0042 H   0  0  0  0  0  0  0  0  0  0  0  0
    8.6655   -3.7204   26.8380 H   0  0  0  0  0  0  0  0  0  0  0  0
    8.1355   -3.8166   24.7587 N   0  0  0  0  0  0  0  0  0  0  0  0
    8.7444   -2.8902   24.3323 C   0  0  0  0  0  0  0  0  0  0  0  0
    9.1369   -1.8601   23.8705 N   0  0  0  0  0  0  0  0  0  0  0  0
   10.2394   -1.4074   23.2350 C   0  0  0  0  0  0  0  0  0  0  0  0
   12.2447   -0.5474   23.5703 C   0  0  0  0  0  0  0  0  0  0  0  0
   11.7618    0.3304   24.0226 H   0  0  0  0  0  0  0  0  0  0  0  0
   13.2293   -0.6292   24.0567 H   0  0  0  0  0  0  0  0  0  0  0  0
   12.4825   -0.4471   22.4968 H   0  0  0  0  0  0  0  0  0  0  0  0
   11.5089   -1.7409   23.6535 O   0  0  0  0  0  0  0  0  0  0  0  0
   10.0008   -0.7386   22.1737 C   0  0  0  0  0  0  0  0  0  0  0  0
    9.1977   -0.0392   21.3090 C   0  0  0  0  0  0  0  0  0  0  0  0
    9.5236    0.9997   20.7469 O   0  0  0  0  0  0  0  0  0  0  0  0
    8.0188   -0.6622   21.2471 N   0  0  0  0  0  0  0  0  0  0  0  0
    6.9829   -0.1550   20.9693 N   0  0  0  0  0  0  0  0  0  0  0  0
    7.2856    0.3885   18.7180 N   0  0  0  0  0  0  0  0  0  0  0  0
    6.5203    0.6938   17.7816 N   0  0  0  0  0  0  0  0  0  0  0  0
    5.4758    0.9881   18.3846 C   0  0  0  0  0  0  0  0  0  0  0  0
    5.3255    0.9116   19.6979 C   0  0  0  0  0  0  0  0  0  0  0  0
    6.5567    0.3646   19.8870 C   0  0  0  0  0  0  0  0  0  0  0  0
    4.4832    1.0593   21.0631 Cl  0  0  0  0  0  0  0  0  0  0  0  0
 20 21  2  0  0  0  0
 19 20  1  0  0  0  0
 21 22  1  0  0  0  0
 19 23  1  0  0  0  0
 22 23  2  0  0  0  0
 22 24  1  0  0  0  0
 18 23  1  0  0  0  0
 15 16  2  0  0  0  0
 17 18  2  3  0  0  0
 15 17  1  0  0  0  0
 14 15  1  0  0  0  0
  8 14  2  0  0  0  0
  9 12  1  0  0  0  0
  8 13  1  0  0  0  0
  7  8  1  0  0  0  0
  9 13  1  0  0  0  0
  9 10  1  0  0  0  0
  9 11  1  0  0  0  0
  6  7  1  0  0  0  0
  5  6  2  3  0  0  0
  2  5  1  0  0  0  0
  2  3  1  0  0  0  0
  1  2  1  0  0  0  0
  2  4  1  0  0  0  0
M  END
> <Shapegauss>
-209.904602

$$$$
