stable:False satoms:16 tatoms:24 sratio:0.6666666666666666
  -OEChem-08062405003D

 30 30  0     0  0  0  0  0  0999 V2000
   -7.3307   -3.4872  -27.2844 H   0  0  0  0  0  0  0  0  0  0  0  0
   -8.3900   -3.3778  -26.9463 C   0  0  0  0  0  0  0  0  0  0  0  0
   -8.8946   -4.3787  -27.0607 H   0  0  0  0  0  0  0  0  0  0  0  0
   -8.9051   -2.6213  -27.6058 H   0  0  0  0  0  0  0  0  0  0  0  0
   -8.4140   -3.0340  -25.5559 N   0  3  0  0  0  0  0  0  0  0  0  0
   -9.0927   -2.2329  -25.0005 C   0  0  0  0  0  0  0  0  0  0  0  0
   -9.5633   -1.3222  -24.3859 N   0  0  0  0  0  0  0  0  0  0  0  0
  -10.7070   -1.0534  -23.7195 C   0  0  0  0  0  0  0  0  0  0  0  0
  -12.7579   -0.2765  -23.9708 C   0  0  0  0  0  0  0  0  0  0  0  0
  -12.3256    0.6936  -24.2542 H   0  0  0  0  0  0  0  0  0  0  0  0
  -13.7243   -0.3365  -24.4955 H   0  0  0  0  0  0  0  0  0  0  0  0
  -13.0247   -0.3741  -22.9039 H   0  0  0  0  0  0  0  0  0  0  0  0
  -11.9420   -1.3903  -24.2286 O   0  0  0  0  0  0  0  0  0  0  0  0
  -10.5364   -0.5598  -22.5542 C   0  0  0  0  0  0  0  0  0  0  0  0
   -9.8007    0.0324  -21.5594 C   0  0  0  0  0  0  0  0  0  0  0  0
  -10.2075    0.9389  -20.8423 O   0  0  0  0  0  0  0  0  0  0  0  0
   -8.5841   -0.5170  -21.5645 N   0  0  0  0  0  0  0  0  0  0  0  0
   -7.5908   -0.0001  -21.1726 N   0  0  0  0  0  0  0  0  0  0  0  0
   -7.9771    0.1353  -18.8731 N   0  0  0  0  0  0  0  0  0  0  0  0
   -7.2541    0.3254  -17.8746 N   0  0  0  0  0  0  0  0  0  0  0  0
   -6.2191    0.7822  -18.3860 C   0  0  0  0  0  0  0  0  0  0  0  0
   -6.0362    0.9382  -19.6880 C   0  0  0  0  0  0  0  0  0  0  0  0
   -7.2236    0.3549  -20.0055 C   0  0  0  0  0  0  0  0  0  0  0  0
   -5.1769    1.3669  -20.9815 Cl  0  0  0  0  0  0  0  0  0  0  0  0
  -10.0358   -2.6974  -25.2480 H   0  0  0  0  0  0  0  0  0  0  0  0
   -8.9366   -0.5435  -24.3570 H   0  0  0  0  0  0  0  0  0  0  0  0
  -11.5106   -0.6692  -22.1011 H   0  0  0  0  0  0  0  0  0  0  0  0
   -8.9407   -0.1314  -18.8547 H   0  0  0  0  0  0  0  0  0  0  0  0
   -5.4152    1.0714  -17.7253 H   0  0  0  0  0  0  0  0  0  0  0  0
   -7.7733   -3.5358  -24.9748 H   0  0  0  0  0  0  0  0  0  0  0  0
 20 21  2  0  0  0  0
 19 20  1  0  0  0  0
 21 22  1  0  0  0  0
 19 23  1  0  0  0  0
 22 23  2  0  0  0  0
 22 24  1  0  0  0  0
 18 23  1  0  0  0  0
 15 16  2  0  0  0  0
 17 18  2  3  0  0  0
 15 17  1  0  0  0  0
 14 15  1  0  0  0  0
  8 14  2  0  0  0  0
  9 12  1  0  0  0  0
  8 13  1  0  0  0  0
  7  8  1  0  0  0  0
  9 13  1  0  0  0  0
  9 10  1  0  0  0  0
  9 11  1  0  0  0  0
  6  7  1  0  0  0  0
  5  6  2  3  0  0  0
  2  5  1  0  0  0  0
  2  3  1  0  0  0  0
  1  2  1  0  0  0  0
  2  4  1  0  0  0  0
  6 25  1  0  0  0  0
  7 26  1  0  0  0  0
 14 27  1  0  0  0  0
 19 28  1  0  0  0  0
 21 29  1  0  0  0  0
  5 30  1  0  0  0  0
M  CHG  1   5   1
M  END
> <Chemgauss4>
-8.262587

$$$$
