stable:False satoms:16 tatoms:24 sratio:0.6666666666666666
  -OEChem-08062405003D

 30 30  0     0  0  0  0  0  0999 V2000
    7.2838   -3.6332   27.3341 H   0  0  0  0  0  0  0  0  0  0  0  0
    8.3430   -3.5237   26.9960 C   0  0  0  0  0  0  0  0  0  0  0  0
    8.8476   -4.5246   27.1104 H   0  0  0  0  0  0  0  0  0  0  0  0
    8.8581   -2.7672   27.6555 H   0  0  0  0  0  0  0  0  0  0  0  0
    8.3671   -3.1799   25.6056 N   0  3  0  0  0  0  0  0  0  0  0  0
    9.0458   -2.3788   25.0502 C   0  0  0  0  0  0  0  0  0  0  0  0
    9.5163   -1.4682   24.4356 N   0  0  0  0  0  0  0  0  0  0  0  0
   10.6600   -1.1993   23.7692 C   0  0  0  0  0  0  0  0  0  0  0  0
   12.7110   -0.4224   24.0205 C   0  0  0  0  0  0  0  0  0  0  0  0
   12.2787    0.5477   24.3039 H   0  0  0  0  0  0  0  0  0  0  0  0
   13.6773   -0.4824   24.5452 H   0  0  0  0  0  0  0  0  0  0  0  0
   12.9777   -0.5200   22.9535 H   0  0  0  0  0  0  0  0  0  0  0  0
   11.8950   -1.5362   24.2783 O   0  0  0  0  0  0  0  0  0  0  0  0
   10.4894   -0.7058   22.6039 C   0  0  0  0  0  0  0  0  0  0  0  0
    9.7537   -0.1135   21.6090 C   0  0  0  0  0  0  0  0  0  0  0  0
   10.1605    0.7930   20.8920 O   0  0  0  0  0  0  0  0  0  0  0  0
    8.5372   -0.6629   21.6142 N   0  0  0  0  0  0  0  0  0  0  0  0
    7.5438   -0.1460   21.2223 N   0  0  0  0  0  0  0  0  0  0  0  0
    7.9301   -0.0106   18.9227 N   0  0  0  0  0  0  0  0  0  0  0  0
    7.2071    0.1795   17.9243 N   0  0  0  0  0  0  0  0  0  0  0  0
    6.1722    0.6363   18.4357 C   0  0  0  0  0  0  0  0  0  0  0  0
    5.9892    0.7923   19.7377 C   0  0  0  0  0  0  0  0  0  0  0  0
    7.1766    0.2090   20.0552 C   0  0  0  0  0  0  0  0  0  0  0  0
    5.1300    1.2210   21.0312 Cl  0  0  0  0  0  0  0  0  0  0  0  0
    9.9888   -2.8433   25.2977 H   0  0  0  0  0  0  0  0  0  0  0  0
    8.8896   -0.6895   24.4067 H   0  0  0  0  0  0  0  0  0  0  0  0
   11.4637   -0.8151   22.1508 H   0  0  0  0  0  0  0  0  0  0  0  0
    8.8937   -0.2773   18.9044 H   0  0  0  0  0  0  0  0  0  0  0  0
    5.3682    0.9254   17.7750 H   0  0  0  0  0  0  0  0  0  0  0  0
    7.7263   -3.6817   25.0245 H   0  0  0  0  0  0  0  0  0  0  0  0
 20 21  2  0  0  0  0
 19 20  1  0  0  0  0
 21 22  1  0  0  0  0
 19 23  1  0  0  0  0
 22 23  2  0  0  0  0
 22 24  1  0  0  0  0
 18 23  1  0  0  0  0
 15 16  2  0  0  0  0
 17 18  2  3  0  0  0
 15 17  1  0  0  0  0
 14 15  1  0  0  0  0
  8 14  2  0  0  0  0
  9 12  1  0  0  0  0
  8 13  1  0  0  0  0
  7  8  1  0  0  0  0
  9 13  1  0  0  0  0
  9 10  1  0  0  0  0
  9 11  1  0  0  0  0
  6  7  1  0  0  0  0
  5  6  2  3  0  0  0
  2  5  1  0  0  0  0
  2  3  1  0  0  0  0
  1  2  1  0  0  0  0
  2  4  1  0  0  0  0
  6 25  1  0  0  0  0
  7 26  1  0  0  0  0
 14 27  1  0  0  0  0
 19 28  1  0  0  0  0
 21 29  1  0  0  0  0
  5 30  1  0  0  0  0
M  CHG  1   5   1
M  END
> <Chemgauss4>
-8.197368

$$$$
