MODEL 1
REMARK VINA RESULT:    -6.212      0.000      0.000
REMARK INTER + INTRA:         -11.402
REMARK INTER:                  -9.843
REMARK INTRA:                  -1.559
REMARK UNBOUND:                -1.559
REMARK  10 active torsions:
REMARK  status: ('A' for Active; 'I' for Inactive)
REMARK    1  A    between atoms: S_2  and  N_5 
REMARK    2  A    between atoms: N_5  and  C_7 
REMARK    3  A    between atoms: C_8  and  C_9 
REMARK    4  A    between atoms: C_9  and  C_15 
REMARK    5  A    between atoms: C_9  and  C_14 
REMARK    6  A    between atoms: C_11  and  C_12 
REMARK    7  A    between atoms: C_12  and  C_13 
REMARK    8  A    between atoms: C_13  and  C_14 
REMARK    9  A    between atoms: C_15  and  C_16 
REMARK       I    between atoms: C_16  and  N_18 
REMARK   10  A    between atoms: N_18  and  C_20 
ROOT
HETATM    1  C   UNL     1       9.876  -1.918  22.534  1.00  0.00     0.108 C 
ENDROOT
BRANCH   1   2
HETATM    2  C   UNL     1       8.888  -1.193  22.260  1.00  0.00     0.011 C 
HETATM    3  C   UNL     1       8.022  -0.781  21.452  1.00  0.00     0.097 C 
BRANCH   3   4
HETATM    4  N   UNL     1       6.974  -0.279  21.169  1.00  0.00    -0.296 N 
ATOM      5  HN  UNL     1       6.343  -0.050  21.938  1.00  0.00     0.177 HD
BRANCH   4   6
HETATM    6  S   UNL     1       6.466   0.075  19.644  1.00  0.00     0.226 S 
HETATM    7  C   UNL     1       5.435   1.456  19.809  1.00  0.00     0.186 C 
HETATM    8  O   UNL     1       7.579   0.458  18.800  1.00  0.00    -0.206 OA
HETATM    9  O   UNL     1       5.721  -1.006  19.056  1.00  0.00    -0.206 OA
ENDBRANCH   4   6
ENDBRANCH   3   4
ENDBRANCH   1   2
BRANCH   1  10
HETATM   10  C   UNL     1       9.359  -2.541  23.481  1.00  0.00    -0.071 C 
BRANCH  10  11
HETATM   11  C   UNL     1       8.740  -3.004  24.517  1.00  0.00     0.289 C 
HETATM   12  O   UNL     1       8.674  -2.286  25.389  1.00  0.00    -0.259 OA
HETATM   13  N   UNL     1       8.293  -4.266  24.352  1.00  0.00    -0.315 N 
ATOM     14  HN  UNL     1       8.450  -4.762  23.474  1.00  0.00     0.170 HD
BRANCH  13  15
HETATM   15  C   UNL     1       7.691  -4.811  25.285  1.00  0.00     0.057 A 
HETATM   16  C   UNL     1       7.990  -5.400  26.472  1.00  0.00     0.117 A 
HETATM   17  N   UNL     1       7.715  -5.947  27.502  1.00  0.00    -0.373 N 
HETATM   18  C   UNL     1       6.381  -5.976  27.310  1.00  0.00     0.088 A 
ATOM     19  HN  UNL     1       8.297  -6.281  28.270  1.00  0.00     0.164 HD
HETATM   20  C   UNL     1       5.721  -5.541  26.321  1.00  0.00     0.026 A 
HETATM   21  C   UNL     1       6.130  -4.946  25.229  1.00  0.00    -0.033 A 
HETATM   22  C   UNL     1       5.284  -4.428  24.026  1.00  0.00     0.050 C 
ENDBRANCH  13  15
ENDBRANCH  10  11
ENDBRANCH   1  10
BRANCH   1  23
HETATM   23  C   UNL     1      11.338  -1.392  22.845  1.00  0.00    -0.010 C 
BRANCH  23  24
HETATM   24  C   UNL     1      11.636  -0.426  23.252  1.00  0.00    -0.025 C 
BRANCH  24  25
HETATM   25  C   UNL     1      11.865   0.036  24.553  1.00  0.00     0.053 C 
BRANCH  25  26
HETATM   26  C   UNL     1      10.549   0.685  25.033  1.00  0.00    -0.033 C 
HETATM   27  C   UNL     1      10.021   1.462  24.737  1.00  0.00     0.007 C 
ENDBRANCH  25  26
ENDBRANCH  24  25
ENDBRANCH  23  24
ENDBRANCH   1  23
TORSDOF 10
ENDMDL
MODEL 2
REMARK VINA RESULT:    -5.982      2.995      7.163
REMARK INTER + INTRA:         -11.039
REMARK INTER:                  -9.734
REMARK INTRA:                  -1.305
REMARK UNBOUND:                -1.559
REMARK  10 active torsions:
REMARK  status: ('A' for Active; 'I' for Inactive)
REMARK    1  A    between atoms: S_2  and  N_5 
REMARK    2  A    between atoms: N_5  and  C_7 
REMARK    3  A    between atoms: C_8  and  C_9 
REMARK    4  A    between atoms: C_9  and  C_15 
REMARK    5  A    between atoms: C_9  and  C_14 
REMARK    6  A    between atoms: C_11  and  C_12 
REMARK    7  A    between atoms: C_12  and  C_13 
REMARK    8  A    between atoms: C_13  and  C_14 
REMARK    9  A    between atoms: C_15  and  C_16 
REMARK       I    between atoms: C_16  and  N_18 
REMARK   10  A    between atoms: N_18  and  C_20 
ROOT
HETATM    1  C   UNL     1       8.170  -3.060  23.153  1.00  0.00     0.108 C 
ENDROOT
BRANCH   1   2
HETATM    2  C   UNL     1       8.873  -2.119  23.597  1.00  0.00     0.011 C 
HETATM    3  C   UNL     1       9.659  -1.649  24.454  1.00  0.00     0.097 C 
BRANCH   3   4
HETATM    4  N   UNL     1      10.496  -0.884  24.834  1.00  0.00    -0.296 N 
ATOM      5  HN  UNL     1      10.423  -0.553  25.796  1.00  0.00     0.177 HD
BRANCH   4   6
HETATM    6  S   UNL     1      11.755  -0.323  23.935  1.00  0.00     0.226 S 
HETATM    7  C   UNL     1      11.125   1.021  23.045  1.00  0.00     0.186 C 
HETATM    8  O   UNL     1      12.820   0.173  24.783  1.00  0.00    -0.206 OA
HETATM    9  O   UNL     1      12.248  -1.312  23.014  1.00  0.00    -0.206 OA
ENDBRANCH   4   6
ENDBRANCH   3   4
ENDBRANCH   1   2
BRANCH   1  10
HETATM   10  C   UNL     1       7.532  -2.397  22.312  1.00  0.00    -0.071 C 
BRANCH  10  11
HETATM   11  C   UNL     1       6.711  -1.837  21.485  1.00  0.00     0.289 C 
HETATM   12  O   UNL     1       5.716  -2.365  21.374  1.00  0.00    -0.259 OA
HETATM   13  N   UNL     1       7.211  -0.724  20.909  1.00  0.00    -0.315 N 
ATOM     14  HN  UNL     1       8.148  -0.395  21.141  1.00  0.00     0.170 HD
BRANCH  13  15
HETATM   15  C   UNL     1       6.510  -0.111  20.094  1.00  0.00     0.057 A 
HETATM   16  C   UNL     1       5.999  -0.310  18.851  1.00  0.00     0.117 A 
HETATM   17  N   UNL     1       5.357   0.002  17.888  1.00  0.00    -0.373 N 
HETATM   18  C   UNL     1       4.982   1.215  18.339  1.00  0.00     0.088 A 
ATOM     19  HN  UNL     1       5.161  -0.488  17.016  1.00  0.00     0.164 HD
HETATM   20  C   UNL     1       5.269   1.766  19.443  1.00  0.00     0.026 A 
HETATM   21  C   UNL     1       5.989   1.326  20.443  1.00  0.00    -0.033 A 
HETATM   22  C   UNL     1       6.327   2.039  21.789  1.00  0.00     0.050 C 
ENDBRANCH  13  15
ENDBRANCH  10  11
ENDBRANCH   1  10
BRANCH   1  23
HETATM   23  C   UNL     1       7.260  -4.015  24.030  1.00  0.00    -0.010 C 
BRANCH  23  24
HETATM   24  C   UNL     1       7.125  -5.093  23.936  1.00  0.00    -0.025 C 
BRANCH  24  25
HETATM   25  C   UNL     1       6.212  -5.887  23.232  1.00  0.00     0.053 C 
BRANCH  25  26
HETATM   26  C   UNL     1       6.652  -5.866  21.753  1.00  0.00    -0.033 C 
HETATM   27  C   UNL     1       6.171  -5.793  20.896  1.00  0.00     0.007 C 
ENDBRANCH  25  26
ENDBRANCH  24  25
ENDBRANCH  23  24
ENDBRANCH   1  23
TORSDOF 10
ENDMDL
MODEL 3
REMARK VINA RESULT:    -5.707      1.182      1.578
REMARK INTER + INTRA:         -10.602
REMARK INTER:                  -9.414
REMARK INTRA:                  -1.188
REMARK UNBOUND:                -1.559
REMARK  10 active torsions:
REMARK  status: ('A' for Active; 'I' for Inactive)
REMARK    1  A    between atoms: S_2  and  N_5 
REMARK    2  A    between atoms: N_5  and  C_7 
REMARK    3  A    between atoms: C_8  and  C_9 
REMARK    4  A    between atoms: C_9  and  C_15 
REMARK    5  A    between atoms: C_9  and  C_14 
REMARK    6  A    between atoms: C_11  and  C_12 
REMARK    7  A    between atoms: C_12  and  C_13 
REMARK    8  A    between atoms: C_13  and  C_14 
REMARK    9  A    between atoms: C_15  and  C_16 
REMARK       I    between atoms: C_16  and  N_18 
REMARK   10  A    between atoms: N_18  and  C_20 
ROOT
HETATM    1  C   UNL     1       8.851  -1.019  23.114  1.00  0.00     0.108 C 
ENDROOT
BRANCH   1   2
HETATM    2  C   UNL     1       7.893  -0.720  22.359  1.00  0.00     0.011 C 
HETATM    3  C   UNL     1       7.237  -0.887  21.304  1.00  0.00     0.097 C 
BRANCH   3   4
HETATM    4  N   UNL     1       6.253  -0.802  20.631  1.00  0.00    -0.296 N 
ATOM      5  HN  UNL     1       5.394  -1.206  21.005  1.00  0.00     0.177 HD
BRANCH   4   6
HETATM    6  S   UNL     1       6.167  -0.088  19.150  1.00  0.00     0.226 S 
HETATM    7  C   UNL     1       4.899   1.084  19.275  1.00  0.00     0.186 C 
HETATM    8  O   UNL     1       7.392   0.623  18.844  1.00  0.00    -0.206 OA
HETATM    9  O   UNL     1       5.843  -1.028  18.112  1.00  0.00    -0.206 OA
ENDBRANCH   4   6
ENDBRANCH   3   4
ENDBRANCH   1   2
BRANCH   1  10
HETATM   10  C   UNL     1       8.407  -2.114  23.509  1.00  0.00    -0.071 C 
BRANCH  10  11
HETATM   11  C   UNL     1       7.997  -3.183  24.109  1.00  0.00     0.289 C 
HETATM   12  O   UNL     1       7.905  -4.093  23.443  1.00  0.00    -0.259 OA
HETATM   13  N   UNL     1       7.754  -2.998  25.423  1.00  0.00    -0.315 N 
ATOM     14  HN  UNL     1       7.901  -2.086  25.855  1.00  0.00     0.170 HD
BRANCH  13  15
HETATM   15  C   UNL     1       7.351  -3.957  26.094  1.00  0.00     0.057 A 
HETATM   16  C   UNL     1       7.882  -4.972  26.823  1.00  0.00     0.117 A 
HETATM   17  N   UNL     1       7.818  -5.942  27.525  1.00  0.00    -0.373 N 
HETATM   18  C   UNL     1       6.474  -6.023  27.555  1.00  0.00     0.088 A 
ATOM     19  HN  UNL     1       8.543  -6.515  27.956  1.00  0.00     0.164 HD
HETATM   20  C   UNL     1       5.629  -5.269  26.987  1.00  0.00     0.026 A 
HETATM   21  C   UNL     1       5.811  -4.217  26.231  1.00  0.00    -0.033 A 
HETATM   22  C   UNL     1       4.741  -3.315  25.541  1.00  0.00     0.050 C 
ENDBRANCH  13  15
ENDBRANCH  10  11
ENDBRANCH   1  10
BRANCH   1  23
HETATM   23  C   UNL     1       9.417  -0.107  24.280  1.00  0.00    -0.010 C 
BRANCH  23  24
HETATM   24  C   UNL     1      10.086   0.750  24.203  1.00  0.00    -0.025 C 
BRANCH  24  25
HETATM   25  C   UNL     1      11.325   0.946  23.584  1.00  0.00     0.053 C 
BRANCH  25  26
HETATM   26  C   UNL     1      12.202  -0.269  23.950  1.00  0.00    -0.033 C 
HETATM   27  C   UNL     1      13.117  -0.373  24.301  1.00  0.00     0.007 C 
ENDBRANCH  25  26
ENDBRANCH  24  25
ENDBRANCH  23  24
ENDBRANCH   1  23
TORSDOF 10
ENDMDL
MODEL 4
REMARK VINA RESULT:    -5.590     14.366     16.514
REMARK INTER + INTRA:         -10.417
REMARK INTER:                  -9.130
REMARK INTRA:                  -1.288
REMARK UNBOUND:                -1.559
REMARK  10 active torsions:
REMARK  status: ('A' for Active; 'I' for Inactive)
REMARK    1  A    between atoms: S_2  and  N_5 
REMARK    2  A    between atoms: N_5  and  C_7 
REMARK    3  A    between atoms: C_8  and  C_9 
REMARK    4  A    between atoms: C_9  and  C_15 
REMARK    5  A    between atoms: C_9  and  C_14 
REMARK    6  A    between atoms: C_11  and  C_12 
REMARK    7  A    between atoms: C_12  and  C_13 
REMARK    8  A    between atoms: C_13  and  C_14 
REMARK    9  A    between atoms: C_15  and  C_16 
REMARK       I    between atoms: C_16  and  N_18 
REMARK   10  A    between atoms: N_18  and  C_20 
ROOT
HETATM    1  C   UNL     1      24.173  -2.235  20.048  1.00  0.00     0.108 C 
ENDROOT
BRANCH   1   2
HETATM    2  C   UNL     1      24.123  -3.467  19.809  1.00  0.00     0.011 C 
HETATM    3  C   UNL     1      24.384  -4.654  20.117  1.00  0.00     0.097 C 
BRANCH   3   4
HETATM    4  N   UNL     1      24.212  -5.836  20.067  1.00  0.00    -0.296 N 
ATOM      5  HN  UNL     1      23.371  -6.166  19.592  1.00  0.00     0.177 HD
BRANCH   4   6
HETATM    6  S   UNL     1      25.219  -6.975  20.698  1.00  0.00     0.226 S 
HETATM    7  C   UNL     1      26.337  -7.356  19.433  1.00  0.00     0.186 C 
HETATM    8  O   UNL     1      25.979  -6.440  21.808  1.00  0.00    -0.206 OA
HETATM    9  O   UNL     1      24.515  -8.169  21.082  1.00  0.00    -0.206 OA
ENDBRANCH   4   6
ENDBRANCH   3   4
ENDBRANCH   1   2
BRANCH   1  10
HETATM   10  C   UNL     1      23.960  -2.303  21.274  1.00  0.00    -0.071 C 
BRANCH  10  11
HETATM   11  C   UNL     1      23.647  -2.189  22.523  1.00  0.00     0.289 C 
HETATM   12  O   UNL     1      24.301  -2.781  23.231  1.00  0.00    -0.259 OA
HETATM   13  N   UNL     1      22.588  -1.381  22.736  1.00  0.00    -0.315 N 
ATOM     14  HN  UNL     1      22.118  -0.923  21.954  1.00  0.00     0.170 HD
BRANCH  13  15
HETATM   15  C   UNL     1      22.198  -1.206  23.897  1.00  0.00     0.057 A 
HETATM   16  C   UNL     1      21.374  -1.817  24.788  1.00  0.00     0.117 A 
HETATM   17  N   UNL     1      20.838  -1.935  25.853  1.00  0.00    -0.373 N 
HETATM   18  C   UNL     1      21.366  -0.830  26.415  1.00  0.00     0.088 A 
ATOM     19  HN  UNL     1      20.195  -2.639  26.215  1.00  0.00     0.164 HD
HETATM   20  C   UNL     1      22.165   0.008  25.900  1.00  0.00     0.026 A 
HETATM   21  C   UNL     1      22.699   0.039  24.706  1.00  0.00    -0.033 A 
HETATM   22  C   UNL     1      23.677   1.095  24.103  1.00  0.00     0.050 C 
ENDBRANCH  13  15
ENDBRANCH  10  11
ENDBRANCH   1  10
BRANCH   1  23
HETATM   23  C   UNL     1      23.310  -1.126  19.316  1.00  0.00    -0.010 C 
BRANCH  23  24
HETATM   24  C   UNL     1      22.803  -1.191  18.353  1.00  0.00    -0.025 C 
BRANCH  24  25
HETATM   25  C   UNL     1      23.147  -0.785  17.059  1.00  0.00     0.053 C 
BRANCH  25  26
HETATM   26  C   UNL     1      23.669  -2.037  16.325  1.00  0.00    -0.033 C 
HETATM   27  C   UNL     1      23.340  -2.961  16.227  1.00  0.00     0.007 C 
ENDBRANCH  25  26
ENDBRANCH  24  25
ENDBRANCH  23  24
ENDBRANCH   1  23
TORSDOF 10
ENDMDL
MODEL 5
REMARK VINA RESULT:    -5.546      3.640      8.003
REMARK INTER + INTRA:         -10.348
REMARK INTER:                  -8.909
REMARK INTRA:                  -1.439
REMARK UNBOUND:                -1.559
REMARK  10 active torsions:
REMARK  status: ('A' for Active; 'I' for Inactive)
REMARK    1  A    between atoms: S_2  and  N_5 
REMARK    2  A    between atoms: N_5  and  C_7 
REMARK    3  A    between atoms: C_8  and  C_9 
REMARK    4  A    between atoms: C_9  and  C_15 
REMARK    5  A    between atoms: C_9  and  C_14 
REMARK    6  A    between atoms: C_11  and  C_12 
REMARK    7  A    between atoms: C_12  and  C_13 
REMARK    8  A    between atoms: C_13  and  C_14 
REMARK    9  A    between atoms: C_15  and  C_16 
REMARK       I    between atoms: C_16  and  N_18 
REMARK   10  A    between atoms: N_18  and  C_20 
ROOT
HETATM    1  C   UNL     1       6.604  -5.138  25.164  1.00  0.00     0.108 C 
ENDROOT
BRANCH   1   2
HETATM    2  C   UNL     1       6.844  -5.315  26.384  1.00  0.00     0.011 C 
HETATM    3  C   UNL     1       6.861  -6.048  27.402  1.00  0.00     0.097 C 
BRANCH   3   4
HETATM    4  N   UNL     1       7.240  -6.356  28.493  1.00  0.00    -0.296 N 
ATOM      5  HN  UNL     1       8.233  -6.563  28.601  1.00  0.00     0.177 HD
BRANCH   4   6
HETATM    6  S   UNL     1       6.295  -6.472  29.835  1.00  0.00     0.226 S 
HETATM    7  C   UNL     1       4.685  -6.710  29.247  1.00  0.00     0.186 C 
HETATM    8  O   UNL     1       6.650  -7.635  30.623  1.00  0.00    -0.206 OA
HETATM    9  O   UNL     1       6.337  -5.276  30.633  1.00  0.00    -0.206 OA
ENDBRANCH   4   6
ENDBRANCH   3   4
ENDBRANCH   1   2
BRANCH   1  10
HETATM   10  C   UNL     1       7.263  -4.090  25.023  1.00  0.00    -0.071 C 
BRANCH  10  11
HETATM   11  C   UNL     1       8.018  -3.091  24.702  1.00  0.00     0.289 C 
HETATM   12  O   UNL     1       8.083  -2.276  25.484  1.00  0.00    -0.259 OA
HETATM   13  N   UNL     1       8.581  -3.217  23.482  1.00  0.00    -0.315 N 
ATOM     14  HN  UNL     1       8.402  -4.043  22.910  1.00  0.00     0.170 HD
BRANCH  13  15
HETATM   15  C   UNL     1       9.319  -2.313  23.072  1.00  0.00     0.057 A 
HETATM   16  C   UNL     1      10.625  -1.953  23.171  1.00  0.00     0.117 A 
HETATM   17  N   UNL     1      11.570  -1.255  22.935  1.00  0.00    -0.373 N 
HETATM   18  C   UNL     1      10.915  -0.360  22.170  1.00  0.00     0.088 A 
ATOM     19  HN  UNL     1      12.547  -1.318  23.220  1.00  0.00     0.164 HD
HETATM   20  C   UNL     1       9.687  -0.344  21.858  1.00  0.00     0.026 A 
HETATM   21  C   UNL     1       8.726  -1.173  22.174  1.00  0.00    -0.033 A 
HETATM   22  C   UNL     1       7.218  -1.115  21.775  1.00  0.00     0.050 C 
ENDBRANCH  13  15
ENDBRANCH  10  11
ENDBRANCH   1  10
BRANCH   1  23
HETATM   23  C   UNL     1       5.159  -5.069  24.517  1.00  0.00    -0.010 C 
BRANCH  23  24
HETATM   24  C   UNL     1       4.895  -4.944  23.467  1.00  0.00    -0.025 C 
BRANCH  24  25
HETATM   25  C   UNL     1       4.907  -5.807  22.365  1.00  0.00     0.053 C 
BRANCH  25  26
HETATM   26  C   UNL     1       6.204  -5.511  21.583  1.00  0.00    -0.033 C 
HETATM   27  C   UNL     1       7.112  -5.892  21.594  1.00  0.00     0.007 C 
ENDBRANCH  25  26
ENDBRANCH  24  25
ENDBRANCH  23  24
ENDBRANCH   1  23
TORSDOF 10
ENDMDL
MODEL 6
REMARK VINA RESULT:    -5.545      1.774      2.359
REMARK INTER + INTRA:         -10.346
REMARK INTER:                  -9.232
REMARK INTRA:                  -1.114
REMARK UNBOUND:                -1.559
REMARK  10 active torsions:
REMARK  status: ('A' for Active; 'I' for Inactive)
REMARK    1  A    between atoms: S_2  and  N_5 
REMARK    2  A    between atoms: N_5  and  C_7 
REMARK    3  A    between atoms: C_8  and  C_9 
REMARK    4  A    between atoms: C_9  and  C_15 
REMARK    5  A    between atoms: C_9  and  C_14 
REMARK    6  A    between atoms: C_11  and  C_12 
REMARK    7  A    between atoms: C_12  and  C_13 
REMARK    8  A    between atoms: C_13  and  C_14 
REMARK    9  A    between atoms: C_15  and  C_16 
REMARK       I    between atoms: C_16  and  N_18 
REMARK   10  A    between atoms: N_18  and  C_20 
ROOT
HETATM    1  C   UNL     1       8.776  -1.928  22.038  1.00  0.00     0.108 C 
ENDROOT
BRANCH   1   2
HETATM    2  C   UNL     1       8.127  -0.938  21.619  1.00  0.00     0.011 C 
HETATM    3  C   UNL     1       7.890  -0.075  20.740  1.00  0.00     0.097 C 
BRANCH   3   4
HETATM    4  N   UNL     1       7.200   0.730  20.189  1.00  0.00    -0.296 N 
ATOM      5  HN  UNL     1       7.499   1.705  20.226  1.00  0.00     0.177 HD
BRANCH   4   6
HETATM    6  S   UNL     1       5.809   0.399  19.375  1.00  0.00     0.226 S 
HETATM    7  C   UNL     1       6.061   0.990  17.768  1.00  0.00     0.186 C 
HETATM    8  O   UNL     1       5.586  -1.030  19.285  1.00  0.00    -0.206 OA
HETATM    9  O   UNL     1       4.671   1.063  19.951  1.00  0.00    -0.206 OA
ENDBRANCH   4   6
ENDBRANCH   3   4
ENDBRANCH   1   2
BRANCH   1  10
HETATM   10  C   UNL     1       7.802  -2.612  22.407  1.00  0.00    -0.071 C 
BRANCH  10  11
HETATM   11  C   UNL     1       6.862  -3.288  22.982  1.00  0.00     0.289 C 
HETATM   12  O   UNL     1       5.865  -2.756  23.043  1.00  0.00    -0.259 OA
HETATM   13  N   UNL     1       7.261  -4.506  23.402  1.00  0.00    -0.315 N 
ATOM     14  HN  UNL     1       8.221  -4.819  23.252  1.00  0.00     0.170 HD
BRANCH  13  15
HETATM   15  C   UNL     1       6.442  -5.236  23.973  1.00  0.00     0.057 A 
HETATM   16  C   UNL     1       5.420  -6.064  23.633  1.00  0.00     0.117 A 
HETATM   17  N   UNL     1       4.537  -6.839  23.871  1.00  0.00    -0.373 N 
HETATM   18  C   UNL     1       4.678  -6.826  25.211  1.00  0.00     0.088 A 
ATOM     19  HN  UNL     1       3.892  -7.341  23.261  1.00  0.00     0.164 HD
HETATM   20  C   UNL     1       5.507  -6.169  25.907  1.00  0.00     0.026 A 
HETATM   21  C   UNL     1       6.448  -5.338  25.537  1.00  0.00    -0.033 A 
HETATM   22  C   UNL     1       7.449  -4.540  26.428  1.00  0.00     0.050 C 
ENDBRANCH  13  15
ENDBRANCH  10  11
ENDBRANCH   1  10
BRANCH   1  23
HETATM   23  C   UNL     1       9.948  -1.870  23.102  1.00  0.00    -0.010 C 
BRANCH  23  24
HETATM   24  C   UNL     1       9.930  -1.441  24.104  1.00  0.00    -0.025 C 
BRANCH  24  25
HETATM   25  C   UNL     1      10.597  -0.365  24.699  1.00  0.00     0.053 C 
BRANCH  25  26
HETATM   26  C   UNL     1      12.074  -0.463  24.263  1.00  0.00    -0.033 C 
HETATM   27  C   UNL     1      12.830   0.170  24.256  1.00  0.00     0.007 C 
ENDBRANCH  25  26
ENDBRANCH  24  25
ENDBRANCH  23  24
ENDBRANCH   1  23
TORSDOF 10
ENDMDL
MODEL 7
REMARK VINA RESULT:    -5.496     25.528     29.306
REMARK INTER + INTRA:         -10.268
REMARK INTER:                  -8.799
REMARK INTRA:                  -1.470
REMARK UNBOUND:                -1.559
REMARK  10 active torsions:
REMARK  status: ('A' for Active; 'I' for Inactive)
REMARK    1  A    between atoms: S_2  and  N_5 
REMARK    2  A    between atoms: N_5  and  C_7 
REMARK    3  A    between atoms: C_8  and  C_9 
REMARK    4  A    between atoms: C_9  and  C_15 
REMARK    5  A    between atoms: C_9  and  C_14 
REMARK    6  A    between atoms: C_11  and  C_12 
REMARK    7  A    between atoms: C_12  and  C_13 
REMARK    8  A    between atoms: C_13  and  C_14 
REMARK    9  A    between atoms: C_15  and  C_16 
REMARK       I    between atoms: C_16  and  N_18 
REMARK   10  A    between atoms: N_18  and  C_20 
ROOT
HETATM    1  C   UNL     1       8.991  17.281   1.170  1.00  0.00     0.108 C 
ENDROOT
BRANCH   1   2
HETATM    2  C   UNL     1       8.983  16.034   1.322  1.00  0.00     0.011 C 
HETATM    3  C   UNL     1       8.573  15.005   1.909  1.00  0.00     0.097 C 
BRANCH   3   4
HETATM    4  N   UNL     1       8.358  13.832   1.989  1.00  0.00    -0.296 N 
ATOM      5  HN  UNL     1       8.246  13.317   1.115  1.00  0.00     0.177 HD
BRANCH   4   6
HETATM    6  S   UNL     1       8.229  12.977   3.390  1.00  0.00     0.226 S 
HETATM    7  C   UNL     1       7.168  13.900   4.399  1.00  0.00     0.186 C 
HETATM    8  O   UNL     1       7.605  11.690   3.160  1.00  0.00    -0.206 OA
HETATM    9  O   UNL     1       9.497  12.824   4.051  1.00  0.00    -0.206 OA
ENDBRANCH   4   6
ENDBRANCH   3   4
ENDBRANCH   1   2
BRANCH   1  10
HETATM   10  C   UNL     1       9.358  17.578   2.324  1.00  0.00    -0.071 C 
BRANCH  10  11
HETATM   11  C   UNL     1       9.853  18.034   3.428  1.00  0.00     0.289 C 
HETATM   12  O   UNL     1       9.279  17.745   4.359  1.00  0.00    -0.259 OA
HETATM   13  N   UNL     1      10.967  18.773   3.248  1.00  0.00    -0.315 N 
ATOM     14  HN  UNL     1      11.345  18.924   2.313  1.00  0.00     0.170 HD
BRANCH  13  15
HETATM   15  C   UNL     1      11.521  19.264   4.240  1.00  0.00     0.057 A 
HETATM   16  C   UNL     1      12.439  18.892   5.170  1.00  0.00     0.117 A 
HETATM   17  N   UNL     1      13.134  19.073   6.129  1.00  0.00    -0.373 N 
HETATM   18  C   UNL     1      12.728  20.334   6.378  1.00  0.00     0.088 A 
ATOM     19  HN  UNL     1      13.808  18.472   6.602  1.00  0.00     0.164 HD
HETATM   20  C   UNL     1      11.875  21.023   5.744  1.00  0.00     0.026 A 
HETATM   21  C   UNL     1      11.163  20.722   4.688  1.00  0.00    -0.033 A 
HETATM   22  C   UNL     1      10.114  21.599   3.937  1.00  0.00     0.050 C 
ENDBRANCH  13  15
ENDBRANCH  10  11
ENDBRANCH   1  10
BRANCH   1  23
HETATM   23  C   UNL     1       7.771  18.147   0.651  1.00  0.00    -0.010 C 
BRANCH  23  24
HETATM   24  C   UNL     1       7.763  18.896  -0.142  1.00  0.00    -0.025 C 
BRANCH  24  25
HETATM   25  C   UNL     1       7.713  20.294  -0.140  1.00  0.00     0.053 C 
BRANCH  25  26
HETATM   26  C   UNL     1       9.163  20.790  -0.326  1.00  0.00    -0.033 C 
HETATM   27  C   UNL     1       9.872  21.082   0.293  1.00  0.00     0.007 C 
ENDBRANCH  25  26
ENDBRANCH  24  25
ENDBRANCH  23  24
ENDBRANCH   1  23
TORSDOF 10
ENDMDL
MODEL 8
REMARK VINA RESULT:    -5.432     26.324     29.341
REMARK INTER + INTRA:         -10.166
REMARK INTER:                  -8.380
REMARK INTRA:                  -1.787
REMARK UNBOUND:                -1.559
REMARK  10 active torsions:
REMARK  status: ('A' for Active; 'I' for Inactive)
REMARK    1  A    between atoms: S_2  and  N_5 
REMARK    2  A    between atoms: N_5  and  C_7 
REMARK    3  A    between atoms: C_8  and  C_9 
REMARK    4  A    between atoms: C_9  and  C_15 
REMARK    5  A    between atoms: C_9  and  C_14 
REMARK    6  A    between atoms: C_11  and  C_12 
REMARK    7  A    between atoms: C_12  and  C_13 
REMARK    8  A    between atoms: C_13  and  C_14 
REMARK    9  A    between atoms: C_15  and  C_16 
REMARK       I    between atoms: C_16  and  N_18 
REMARK   10  A    between atoms: N_18  and  C_20 
ROOT
HETATM    1  C   UNL     1       9.233  17.912   0.467  1.00  0.00     0.108 C 
ENDROOT
BRANCH   1   2
HETATM    2  C   UNL     1       8.998  16.844   1.084  1.00  0.00     0.011 C 
HETATM    3  C   UNL     1       9.174  15.613   1.250  1.00  0.00     0.097 C 
BRANCH   3   4
HETATM    4  N   UNL     1       9.158  14.607   1.895  1.00  0.00    -0.296 N 
ATOM      5  HN  UNL     1       8.753  13.778   1.459  1.00  0.00     0.177 HD
BRANCH   4   6
HETATM    6  S   UNL     1       9.737  14.446   3.427  1.00  0.00     0.226 S 
HETATM    7  C   UNL     1       8.654  15.354   4.428  1.00  0.00     0.186 C 
HETATM    8  O   UNL     1       9.681  13.066   3.863  1.00  0.00    -0.206 OA
HETATM    9  O   UNL     1      11.066  14.977   3.564  1.00  0.00    -0.206 OA
ENDBRANCH   4   6
ENDBRANCH   3   4
ENDBRANCH   1   2
BRANCH   1  10
HETATM   10  C   UNL     1       9.799  18.513   1.402  1.00  0.00    -0.071 C 
BRANCH  10  11
HETATM   11  C   UNL     1      10.201  19.126   2.466  1.00  0.00     0.289 C 
HETATM   12  O   UNL     1      10.225  20.254   2.382  1.00  0.00    -0.259 OA
HETATM   13  N   UNL     1      10.521  18.291   3.475  1.00  0.00    -0.315 N 
ATOM     14  HN  UNL     1      10.431  17.281   3.362  1.00  0.00     0.170 HD
BRANCH  13  15
HETATM   15  C   UNL     1      10.925  18.773   4.541  1.00  0.00     0.057 A 
HETATM   16  C   UNL     1      12.111  19.114   5.108  1.00  0.00     0.117 A 
HETATM   17  N   UNL     1      12.796  19.557   5.986  1.00  0.00    -0.373 N 
HETATM   18  C   UNL     1      11.793  19.828   6.844  1.00  0.00     0.088 A 
ATOM     19  HN  UNL     1      13.805  19.685   6.059  1.00  0.00     0.164 HD
HETATM   20  C   UNL     1      10.551  19.638   6.685  1.00  0.00     0.026 A 
HETATM   21  C   UNL     1       9.898  19.141   5.666  1.00  0.00    -0.033 A 
HETATM   22  C   UNL     1       8.362  18.915   5.510  1.00  0.00     0.050 C 
ENDBRANCH  13  15
ENDBRANCH  10  11
ENDBRANCH   1  10
BRANCH   1  23
HETATM   23  C   UNL     1       8.152  18.790  -0.287  1.00  0.00    -0.010 C 
BRANCH  23  24
HETATM   24  C   UNL     1       7.926  19.848  -0.151  1.00  0.00    -0.025 C 
BRANCH  24  25
HETATM   25  C   UNL     1       6.771  20.541   0.225  1.00  0.00     0.053 C 
BRANCH  25  26
HETATM   26  C   UNL     1       6.695  20.476   1.765  1.00  0.00    -0.033 C 
HETATM   27  C   UNL     1       6.333  19.822   2.407  1.00  0.00     0.007 C 
ENDBRANCH  25  26
ENDBRANCH  24  25
ENDBRANCH  23  24
ENDBRANCH   1  23
TORSDOF 10
ENDMDL
MODEL 9
REMARK VINA RESULT:    -5.401      3.850      7.765
REMARK INTER + INTRA:         -10.117
REMARK INTER:                  -8.293
REMARK INTRA:                  -1.824
REMARK UNBOUND:                -1.559
REMARK  10 active torsions:
REMARK  status: ('A' for Active; 'I' for Inactive)
REMARK    1  A    between atoms: S_2  and  N_5 
REMARK    2  A    between atoms: N_5  and  C_7 
REMARK    3  A    between atoms: C_8  and  C_9 
REMARK    4  A    between atoms: C_9  and  C_15 
REMARK    5  A    between atoms: C_9  and  C_14 
REMARK    6  A    between atoms: C_11  and  C_12 
REMARK    7  A    between atoms: C_12  and  C_13 
REMARK    8  A    between atoms: C_13  and  C_14 
REMARK    9  A    between atoms: C_15  and  C_16 
REMARK       I    between atoms: C_16  and  N_18 
REMARK   10  A    between atoms: N_18  and  C_20 
ROOT
HETATM    1  C   UNL     1       4.670  -6.204  24.000  1.00  0.00     0.108 C 
ENDROOT
BRANCH   1   2
HETATM    2  C   UNL     1       4.861  -6.730  25.124  1.00  0.00     0.011 C 
HETATM    3  C   UNL     1       5.230  -6.654  26.320  1.00  0.00     0.097 C 
BRANCH   3   4
HETATM    4  N   UNL     1       5.256  -7.021  27.457  1.00  0.00    -0.296 N 
ATOM      5  HN  UNL     1       4.675  -7.823  27.703  1.00  0.00     0.177 HD
BRANCH   4   6
HETATM    6  S   UNL     1       6.150  -6.341  28.660  1.00  0.00     0.226 S 
HETATM    7  C   UNL     1       5.274  -4.930  29.147  1.00  0.00     0.186 C 
HETATM    8  O   UNL     1       6.235  -7.222  29.808  1.00  0.00    -0.206 OA
HETATM    9  O   UNL     1       7.460  -5.954  28.210  1.00  0.00    -0.206 OA
ENDBRANCH   4   6
ENDBRANCH   3   4
ENDBRANCH   1   2
BRANCH   1  10
HETATM   10  C   UNL     1       5.741  -5.570  23.937  1.00  0.00    -0.071 C 
BRANCH  10  11
HETATM   11  C   UNL     1       6.874  -5.001  23.685  1.00  0.00     0.289 C 
HETATM   12  O   UNL     1       7.720  -5.715  23.450  1.00  0.00    -0.259 OA
HETATM   13  N   UNL     1       6.824  -3.655  23.756  1.00  0.00    -0.315 N 
ATOM     14  HN  UNL     1       5.951  -3.179  23.984  1.00  0.00     0.170 HD
BRANCH  13  15
HETATM   15  C   UNL     1       7.856  -3.009  23.538  1.00  0.00     0.057 A 
HETATM   16  C   UNL     1       8.552  -2.551  22.465  1.00  0.00     0.117 A 
HETATM   17  N   UNL     1       9.454  -1.963  21.938  1.00  0.00    -0.373 N 
HETATM   18  C   UNL     1      10.085  -1.599  23.071  1.00  0.00     0.088 A 
ATOM     19  HN  UNL     1       9.671  -1.794  20.956  1.00  0.00     0.164 HD
HETATM   20  C   UNL     1       9.755  -1.849  24.268  1.00  0.00     0.026 A 
HETATM   21  C   UNL     1       8.729  -2.510  24.740  1.00  0.00    -0.033 A 
HETATM   22  C   UNL     1       8.359  -2.804  26.227  1.00  0.00     0.050 C 
ENDBRANCH  13  15
ENDBRANCH  10  11
ENDBRANCH   1  10
BRANCH   1  23
HETATM   23  C   UNL     1       3.401  -5.345  23.596  1.00  0.00    -0.010 C 
BRANCH  23  24
HETATM   24  C   UNL     1       3.057  -4.404  24.026  1.00  0.00    -0.025 C 
BRANCH  24  25
HETATM   25  C   UNL     1       2.356  -4.083  25.194  1.00  0.00     0.053 C 
BRANCH  25  26
HETATM   26  C   UNL     1       3.220  -3.064  25.966  1.00  0.00    -0.033 C 
HETATM   27  C   UNL     1       4.189  -2.955  26.106  1.00  0.00     0.007 C 
ENDBRANCH  25  26
ENDBRANCH  24  25
ENDBRANCH  23  24
ENDBRANCH   1  23
TORSDOF 10
ENDMDL
