REMARK  10 active torsions:
REMARK  status: ('A' for Active; 'I' for Inactive)
REMARK    1  A    between atoms: S_2  and  N_5 
REMARK    2  A    between atoms: N_5  and  C_7 
REMARK    3  A    between atoms: C_8  and  C_9 
REMARK    4  A    between atoms: C_9  and  C_15 
REMARK    5  A    between atoms: C_9  and  C_14 
REMARK    6  A    between atoms: C_11  and  C_12 
REMARK    7  A    between atoms: C_12  and  C_13 
REMARK    8  A    between atoms: C_13  and  C_14 
REMARK    9  A    between atoms: C_15  and  C_16 
REMARK       I    between atoms: C_16  and  N_18 
REMARK   10  A    between atoms: N_18  and  C_20 
ROOT
HETATM    1  C   UNL     1      10.367  -1.222  23.132  1.00  0.00     0.108 C 
ENDROOT
BRANCH   1   2
HETATM    2  C   UNL     1       9.424  -1.978  23.472  1.00  0.00     0.011 C 
HETATM    3  C   UNL     1       8.980  -2.945  24.136  1.00  0.00     0.097 C 
BRANCH   3   4
HETATM    4  N   UNL     1       8.108  -3.576  24.656  1.00  0.00    -0.296 N 
ATOM      5  HN  UNL     1       7.230  -3.669  24.145  1.00  0.00     0.177 HD
BRANCH   4   6
HETATM    6  S   UNL     1       8.206  -4.308  26.127  1.00  0.00     0.226 S 
HETATM    7  C   UNL     1       6.603  -4.859  26.477  1.00  0.00     0.186 C 
HETATM    8  O   UNL     1       9.067  -5.472  26.073  1.00  0.00    -0.206 OA
HETATM    9  O   UNL     1       8.631  -3.400  27.158  1.00  0.00    -0.206 OA
ENDBRANCH   4   6
ENDBRANCH   3   4
ENDBRANCH   1   2
BRANCH   1  10
HETATM   10  C   UNL     1       9.724  -0.517  22.330  1.00  0.00    -0.071 C 
BRANCH  10  11
HETATM   11  C   UNL     1       9.060   0.047  21.375  1.00  0.00     0.289 C 
HETATM   12  O   UNL     1       9.542   0.978  20.949  1.00  0.00    -0.259 OA
HETATM   13  N   UNL     1       7.910  -0.591  21.075  1.00  0.00    -0.315 N 
ATOM     14  HN  UNL     1       7.638  -1.436  21.578  1.00  0.00     0.170 HD
BRANCH  13  15
HETATM   15  C   UNL     1       7.192  -0.132  20.178  1.00  0.00     0.057 A 
HETATM   16  C   UNL     1       7.220  -0.013  18.825  1.00  0.00     0.117 A 
HETATM   17  N   UNL     1       6.768   0.310  17.763  1.00  0.00    -0.373 N 
HETATM   18  C   UNL     1       5.629   0.851  18.238  1.00  0.00     0.088 A 
ATOM     19  HN  UNL     1       7.127   0.209  16.814  1.00  0.00     0.164 HD
HETATM   20  C   UNL     1       5.247   0.945  19.442  1.00  0.00     0.026 A 
HETATM   21  C   UNL     1       5.829   0.549  20.545  1.00  0.00    -0.033 A 
HETATM   22  C   UNL     1       5.328   0.689  22.016  1.00  0.00     0.050 C 
ENDBRANCH  13  15
ENDBRANCH  10  11
ENDBRANCH   1  10
BRANCH   1  23
HETATM   23  C   UNL     1      11.768  -1.703  22.570  1.00  0.00    -0.010 C 
BRANCH  23  24
HETATM   24  C   UNL     1      12.742  -1.227  22.686  1.00  0.00    -0.025 C 
BRANCH  24  25
HETATM   25  C   UNL     1      13.195  -0.144  23.447  1.00  0.00     0.053 C 
BRANCH  25  26
HETATM   26  C   UNL     1      11.998   0.336  24.294  1.00  0.00    -0.033 C 
HETATM   27  C   UNL     1      11.044   0.092  24.332  1.00  0.00     0.007 C 
ENDBRANCH  25  26
ENDBRANCH  24  25
ENDBRANCH  23  24
ENDBRANCH   1  23
TORSDOF 10
