stable:False satoms:17 tatoms:24 sratio:0.7083333333333334
  -OEChem-08052423333D

 25 25  0     1  0  0  0  0  0999 V2000
   -5.9182   -0.3845  -18.2800 C   0  0  0  0  0  0  0  0  0  0  0  0
   -5.2532   -1.4793  -17.8263 O   0  5  0  0  0  0  0  0  0  0  0  0
   -6.5591    0.2986  -17.5574 O   0  0  0  0  0  0  0  0  0  0  0  0
   -6.0855   -0.8280  -20.3221 H   0  0  0  0  0  0  0  0  0  0  0  0
   -5.8167    0.0108  -19.7315 C   0  0  0  0  0  0  0  0  0  0  0  0
   -8.1225    0.0433  -21.1427 S   0  0  0  0  0  0  0  0  0  0  0  0
   -5.5205    1.2978  -20.1980 C   0  0  0  0  0  0  0  0  0  0  0  0
   -7.7774    1.6735  -21.9356 C   0  0  0  0  0  0  0  0  0  0  0  0
   -5.0280    1.9905  -19.5405 H   0  0  0  0  0  0  0  0  0  0  0  0
   -4.8250    3.0793  -21.9046 O   0  0  0  0  0  0  0  0  0  0  0  0
   -5.6436    2.4391  -21.3711 C   0  0  0  0  0  0  0  0  0  0  0  0
   -6.8861    2.5708  -21.3271 O   0  0  0  0  0  0  0  0  0  0  0  0
   -8.7102    2.1784  -21.9013 H   0  0  0  0  0  0  0  0  0  0  0  0
   -8.3547   -0.1736  -23.9292 H   0  0  0  0  0  0  0  0  0  0  0  0
   -7.4786    1.4517  -22.9581 H   0  0  0  0  0  0  0  0  0  0  0  0
   -9.2723   -0.0618  -23.5480 N   0  3  0  0  0  0  0  0  0  0  0  0
  -10.6863   -1.1026  -22.5626 C   0  0  0  0  0  0  0  0  0  0  0  0
   -9.3858   -0.4072  -22.4447 C   0  0  3  0  0  0  0  0  0  0  0  0
  -10.9904   -0.9990  -24.8142 H   0  0  0  0  0  0  0  0  0  0  0  0
  -10.4384   -1.3761  -23.9822 C   0  0  0  0  0  0  0  0  0  0  0  0
   -9.9846   -2.3405  -24.1427 H   0  0  0  0  0  0  0  0  0  0  0  0
  -10.8978   -2.0227  -22.0176 H   0  0  0  0  0  0  0  0  0  0  0  0
  -11.5047   -0.4276  -22.2800 H   0  0  0  0  0  0  0  0  0  0  0  0
   -8.8482   -1.3422  -22.6609 H   0  0  0  0  0  0  0  0  0  0  0  0
   -9.5991    0.8653  -23.7320 H   0  0  0  0  0  0  0  0  0  0  0  0
 19 20  1  0  0  0  0
 20 21  1  0  0  0  0
 16 20  1  0  0  0  0
 17 20  1  0  0  0  0
 14 16  1  0  0  0  0
 16 18  1  0  0  0  0
 17 22  1  0  0  0  0
 17 23  1  0  0  0  0
 17 18  1  0  0  0  0
  6 18  1  0  0  0  0
  8 15  1  0  0  0  0
  8 13  1  0  0  0  0
  6  8  1  0  0  0  0
  8 12  1  0  0  0  0
 10 11  2  0  0  0  0
  4  5  1  0  0  0  0
 11 12  1  0  0  0  0
  7 11  1  0  0  0  0
  5  7  2  0  0  0  0
  1  5  1  0  0  0  0
  7  9  1  0  0  0  0
  1  2  1  0  0  0  0
  1  3  2  0  0  0  0
 18 24  1  0  0  0  0
 16 25  1  0  0  0  0
M  CHG  2   2  -1  16   1
M  END
> <Chemgauss4>
-6.316161

$$$$
