stable:False satoms:17 tatoms:24 sratio:0.7083333333333334
  -OEChem-08052423333D

 25 25  0     1  0  0  0  0  0999 V2000
    6.0204   -0.5272   18.3470 C   0  0  0  0  0  0  0  0  0  0  0  0
    5.3554   -1.6220   17.8933 O   0  5  0  0  0  0  0  0  0  0  0  0
    6.6614    0.1559   17.6244 O   0  0  0  0  0  0  0  0  0  0  0  0
    6.1878   -0.9707   20.3891 H   0  0  0  0  0  0  0  0  0  0  0  0
    5.9189   -0.1319   19.7985 C   0  0  0  0  0  0  0  0  0  0  0  0
    8.2247   -0.0994   21.2096 S   0  0  0  0  0  0  0  0  0  0  0  0
    5.6227    1.1551   20.2649 C   0  0  0  0  0  0  0  0  0  0  0  0
    7.8796    1.5308   22.0025 C   0  0  0  0  0  0  0  0  0  0  0  0
    5.1303    1.8478   19.6075 H   0  0  0  0  0  0  0  0  0  0  0  0
    4.9272    2.9366   21.9716 O   0  0  0  0  0  0  0  0  0  0  0  0
    5.7458    2.2964   21.4381 C   0  0  0  0  0  0  0  0  0  0  0  0
    6.9884    2.4281   21.3941 O   0  0  0  0  0  0  0  0  0  0  0  0
    8.8125    2.0357   21.9682 H   0  0  0  0  0  0  0  0  0  0  0  0
    8.4569   -0.3163   23.9962 H   0  0  0  0  0  0  0  0  0  0  0  0
    7.5809    1.3090   23.0251 H   0  0  0  0  0  0  0  0  0  0  0  0
    9.3746   -0.2045   23.6149 N   0  3  0  0  0  0  0  0  0  0  0  0
   10.7885   -1.2453   22.6296 C   0  0  0  0  0  0  0  0  0  0  0  0
    9.4881   -0.5499   22.5117 C   0  0  3  0  0  0  0  0  0  0  0  0
   11.0927   -1.1417   24.8812 H   0  0  0  0  0  0  0  0  0  0  0  0
   10.5407   -1.5188   24.0492 C   0  0  0  0  0  0  0  0  0  0  0  0
   10.0868   -2.4832   24.2097 H   0  0  0  0  0  0  0  0  0  0  0  0
   11.0000   -2.1654   22.0846 H   0  0  0  0  0  0  0  0  0  0  0  0
   11.6069   -0.5703   22.3470 H   0  0  0  0  0  0  0  0  0  0  0  0
    8.9505   -1.4849   22.7279 H   0  0  0  0  0  0  0  0  0  0  0  0
    9.7013    0.7226   23.7990 H   0  0  0  0  0  0  0  0  0  0  0  0
 19 20  1  0  0  0  0
 20 21  1  0  0  0  0
 16 20  1  0  0  0  0
 17 20  1  0  0  0  0
 14 16  1  0  0  0  0
 16 18  1  0  0  0  0
 17 22  1  0  0  0  0
 17 23  1  0  0  0  0
 17 18  1  0  0  0  0
  6 18  1  0  0  0  0
  8 15  1  0  0  0  0
  8 13  1  0  0  0  0
  6  8  1  0  0  0  0
  8 12  1  0  0  0  0
 10 11  2  0  0  0  0
  4  5  1  0  0  0  0
 11 12  1  0  0  0  0
  7 11  1  0  0  0  0
  5  7  2  0  0  0  0
  1  5  1  0  0  0  0
  7  9  1  0  0  0  0
  1  2  1  0  0  0  0
  1  3  2  0  0  0  0
 18 24  1  0  0  0  0
 16 25  1  0  0  0  0
M  CHG  2   2  -1  16   1
M  END
> <Chemgauss4>
-6.484477

$$$$
