stable:False satoms:8 tatoms:24 sratio:0.3333333333333333
  -OEChem-07092417413D

 24 27  0     1  0  0  0  0  0999 V2000
    6.5157   -4.9432   26.4072 Cl  0  0  0  0  0  0  0  0  0  0  0  0
    8.2593   -4.3546   26.0615 S   0  0  0  0  0  0  0  0  0  0  0  0
    9.1044   -5.5055   25.8963 O   0  0  0  0  0  0  0  0  0  0  0  0
    8.6491   -3.4726   27.1213 O   0  0  0  0  0  0  0  0  0  0  0  0
    8.0799   -3.5924   24.6484 N   0  0  0  0  0  0  0  0  0  0  0  0
    8.8095   -2.8526   24.1043 C   0  0  0  0  0  0  0  0  0  0  0  0
    9.2804   -1.9778   23.4897 C   0  0  0  0  0  0  0  0  0  0  0  0
   10.5734   -0.9802   23.1801 C   0  0  1  0  0  0  0  0  0  0  0  0
   10.8799   -0.0352   24.6365 S   0  0  0  0  0  0  0  0  0  0  0  0
   12.2997    0.2051   24.3673 C   0  0  0  0  0  0  0  0  0  0  0  0
   13.0770   -0.2191   23.6956 C   0  0  0  0  0  0  0  0  0  0  0  0
   12.8703   -1.2152   22.7509 C   0  0  0  0  0  0  0  0  0  0  0  0
   11.9068   -1.4277   22.6552 C   0  0  0  0  0  0  0  0  0  0  0  0
    9.5585   -0.9179   22.6016 C   0  0  3  0  0  0  0  0  0  0  0  0
    8.9579    0.0037   21.4136 C   0  0  0  0  0  0  0  0  0  0  0  0
    9.5558    0.9486   21.0422 O   0  0  0  0  0  0  0  0  0  0  0  0
    7.8208   -0.5247   21.1020 N   0  0  0  0  0  0  0  0  0  0  0  0
    7.0930   -0.0146   20.2057 C   0  0  0  0  0  0  0  0  0  0  0  0
    7.0525    0.1662   18.7961 C   0  0  0  0  0  0  0  0  0  0  0  0
    6.8315    0.3848   17.6135 N   0  0  0  0  0  0  0  0  0  0  0  0
    5.9242    0.7608   18.2265 C   0  0  0  0  0  0  0  0  0  0  0  0
    5.2591    0.9240   19.3838 C   0  0  0  0  0  0  0  0  0  0  0  0
    5.7903    0.6071   20.4443 C   0  0  0  0  0  0  0  0  0  0  0  0
    5.4348    0.7430   21.4532 H   0  0  0  0  0  0  0  0  0  0  0  0
 20 21  2  0  0  0  0
 19 20  1  0  0  0  0
 19 21  1  0  0  0  0
 21 22  1  0  0  0  0
 18 19  2  0  0  0  0
 22 23  2  0  0  0  0
 18 23  1  0  0  0  0
 17 18  1  0  0  0  0
 23 24  1  0  0  0  0
 15 16  2  0  0  0  0
 15 17  1  0  0  0  0
 14 15  1  0  0  0  0
  8 14  1  0  0  0  0
  7 14  1  0  0  0  0
 12 13  2  0  0  0  0
  8 13  1  0  0  0  0
 11 12  1  0  0  0  0
  7  8  1  0  0  0  0
  8  9  1  0  0  0  0
  6  7  2  0  0  0  0
 10 11  2  0  0  0  0
  5  6  1  0  0  0  0
  9 10  1  0  0  0  0
  2  5  1  0  0  0  0
  2  3  2  0  0  0  0
  1  2  1  0  0  0  0
  2  4  2  0  0  0  0
M  END
> <Shapegauss>
-291.786865

$$$$
