stable:False satoms:8 tatoms:24 sratio:0.3333333333333333
  -OEChem-08062409013D

 33 36  0     1  0  0  0  0  0999 V2000
    6.6057   -5.5283   26.1888 Cl  0  0  0  0  0  0  0  0  0  0  0  0
    8.3220   -4.8112   25.9732 S   0  0  0  0  0  0  0  0  0  0  0  0
    9.2497   -5.8949   25.7967 O   0  0  0  0  0  0  0  0  0  0  0  0
    8.5951   -3.9661   27.0976 O   0  0  0  0  0  0  0  0  0  0  0  0
    8.1673   -3.9850   24.5936 N   0  0  0  0  0  0  0  0  0  0  0  0
    8.8736   -3.1711   24.1306 C   0  0  0  0  0  0  0  0  0  0  0  0
    9.3169   -2.2353   23.5898 C   0  0  0  0  0  0  0  0  0  0  0  0
   10.5550   -1.1415   23.4059 C   0  0  1  0  0  0  0  0  0  0  0  0
   10.7199   -0.2609   24.9242 S   0  0  0  0  0  0  0  0  0  0  0  0
   12.1327    0.0841   24.7486 C   0  0  0  0  0  0  0  0  0  0  0  0
   12.9712   -0.2517   24.1009 C   0  0  0  0  0  0  0  0  0  0  0  0
   12.8820   -1.2051   23.0957 C   0  0  0  0  0  0  0  0  0  0  0  0
   11.9413   -1.4732   22.9348 C   0  0  0  0  0  0  0  0  0  0  0  0
    9.5703   -1.1123   22.7749 C   0  0  3  0  0  0  0  0  0  0  0  0
    8.9733   -0.1666   21.6041 C   0  0  0  0  0  0  0  0  0  0  0  0
    9.5256    0.8336   21.3165 O   0  0  0  0  0  0  0  0  0  0  0  0
    7.8923   -0.7486   21.2017 N   0  0  0  0  0  0  0  0  0  0  0  0
    7.1806   -0.2372   20.2932 C   0  0  0  0  0  0  0  0  0  0  0  0
    7.2030    0.0184   18.8949 C   0  0  0  0  0  0  0  0  0  0  0  0
    7.0309    0.2875   17.7146 N   0  0  0  0  0  0  0  0  0  0  0  0
    6.0692    0.5702   18.2939 C   0  0  0  0  0  0  0  0  0  0  0  0
    5.3342    0.6263   19.4186 C   0  0  0  0  0  0  0  0  0  0  0  0
    5.8284    0.2858   20.4896 C   0  0  0  0  0  0  0  0  0  0  0  0
    5.4116    0.3426   21.4824 H   0  0  0  0  0  0  0  0  0  0  0  0
    7.2834   -3.5251   24.6790 H   0  0  0  0  0  0  0  0  0  0  0  0
    9.8118   -3.6222   24.4183 H   0  0  0  0  0  0  0  0  0  0  0  0
   12.4393    0.8690   25.4242 H   0  0  0  0  0  0  0  0  0  0  0  0
   13.9370    0.2021   24.2676 H   0  0  0  0  0  0  0  0  0  0  0  0
   13.7293   -1.6040   22.5578 H   0  0  0  0  0  0  0  0  0  0  0  0
   11.9010   -2.2482   22.1837 H   0  0  0  0  0  0  0  0  0  0  0  0
   10.0323   -1.7626   22.0174 H   0  0  0  0  0  0  0  0  0  0  0  0
    7.6156   -1.6159   21.6156 H   0  0  0  0  0  0  0  0  0  0  0  0
    4.3112    0.9702   19.3797 H   0  0  0  0  0  0  0  0  0  0  0  0
 20 21  2  0  0  0  0
 19 20  1  0  0  0  0
 19 21  1  0  0  0  0
 21 22  1  0  0  0  0
 18 19  2  0  0  0  0
 22 23  2  0  0  0  0
 18 23  1  0  0  0  0
 17 18  1  0  0  0  0
 23 24  1  0  0  0  0
 15 16  2  0  0  0  0
 15 17  1  0  0  0  0
 14 15  1  0  0  0  0
  8 14  1  0  0  0  0
  7 14  1  0  0  0  0
 12 13  2  0  0  0  0
  8 13  1  0  0  0  0
 11 12  1  0  0  0  0
  7  8  1  0  0  0  0
  8  9  1  0  0  0  0
  6  7  2  0  0  0  0
 10 11  2  0  0  0  0
  5  6  1  0  0  0  0
  9 10  1  0  0  0  0
  2  5  1  0  0  0  0
  2  3  2  0  0  0  0
  1  2  1  0  0  0  0
  2  4  2  0  0  0  0
  5 25  1  0  0  0  0
  6 26  1  0  0  0  0
 10 27  1  0  0  0  0
 11 28  1  0  0  0  0
 12 29  1  0  0  0  0
 13 30  1  0  0  0  0
 14 31  1  0  0  0  0
 17 32  1  0  0  0  0
 22 33  1  0  0  0  0
M  END
> <Chemgauss4>
-10.166066

$$$$
