stable:False satoms:8 tatoms:24 sratio:0.3333333333333333
  -OEChem-08062409013D

 33 36  0     1  0  0  0  0  0999 V2000
   -6.6962   -5.6260  -26.1649 Cl  0  0  0  0  0  0  0  0  0  0  0  0
   -8.4124   -4.9090  -25.9493 S   0  0  0  0  0  0  0  0  0  0  0  0
   -9.3402   -5.9926  -25.7729 O   0  0  0  0  0  0  0  0  0  0  0  0
   -8.6856   -4.0639  -27.0737 O   0  0  0  0  0  0  0  0  0  0  0  0
   -8.2577   -4.0827  -24.5697 N   0  0  0  0  0  0  0  0  0  0  0  0
   -8.9641   -3.2689  -24.1067 C   0  0  0  0  0  0  0  0  0  0  0  0
   -9.4074   -2.3331  -23.5659 C   0  0  0  0  0  0  0  0  0  0  0  0
  -10.6454   -1.2393  -23.3820 C   0  0  1  0  0  0  0  0  0  0  0  0
  -10.8103   -0.3587  -24.9003 S   0  0  0  0  0  0  0  0  0  0  0  0
  -12.2232   -0.0136  -24.7247 C   0  0  0  0  0  0  0  0  0  0  0  0
  -13.0616   -0.3494  -24.0770 C   0  0  0  0  0  0  0  0  0  0  0  0
  -12.9724   -1.3029  -23.0719 C   0  0  0  0  0  0  0  0  0  0  0  0
  -12.0317   -1.5709  -22.9109 C   0  0  0  0  0  0  0  0  0  0  0  0
   -9.6608   -1.2100  -22.7510 C   0  0  3  0  0  0  0  0  0  0  0  0
   -9.0638   -0.2644  -21.5802 C   0  0  0  0  0  0  0  0  0  0  0  0
   -9.6160    0.7359  -21.2926 O   0  0  0  0  0  0  0  0  0  0  0  0
   -7.9827   -0.8463  -21.1778 N   0  0  0  0  0  0  0  0  0  0  0  0
   -7.2710   -0.3349  -20.2694 C   0  0  0  0  0  0  0  0  0  0  0  0
   -7.2934   -0.0794  -18.8710 C   0  0  0  0  0  0  0  0  0  0  0  0
   -7.1214    0.1898  -17.6907 N   0  0  0  0  0  0  0  0  0  0  0  0
   -6.1597    0.4725  -18.2700 C   0  0  0  0  0  0  0  0  0  0  0  0
   -5.4247    0.5286  -19.3947 C   0  0  0  0  0  0  0  0  0  0  0  0
   -5.9189    0.1881  -20.4657 C   0  0  0  0  0  0  0  0  0  0  0  0
   -5.5020    0.2449  -21.4586 H   0  0  0  0  0  0  0  0  0  0  0  0
   -7.3739   -3.6229  -24.6551 H   0  0  0  0  0  0  0  0  0  0  0  0
   -9.9023   -3.7199  -24.3944 H   0  0  0  0  0  0  0  0  0  0  0  0
  -12.5297    0.7713  -25.4003 H   0  0  0  0  0  0  0  0  0  0  0  0
  -14.0274    0.1043  -24.2437 H   0  0  0  0  0  0  0  0  0  0  0  0
  -13.8198   -1.7017  -22.5339 H   0  0  0  0  0  0  0  0  0  0  0  0
  -11.9915   -2.3459  -22.1598 H   0  0  0  0  0  0  0  0  0  0  0  0
  -10.1228   -1.8603  -21.9936 H   0  0  0  0  0  0  0  0  0  0  0  0
   -7.7060   -1.7136  -21.5917 H   0  0  0  0  0  0  0  0  0  0  0  0
   -4.4016    0.8725  -19.3559 H   0  0  0  0  0  0  0  0  0  0  0  0
 20 21  2  0  0  0  0
 19 20  1  0  0  0  0
 19 21  1  0  0  0  0
 21 22  1  0  0  0  0
 18 19  2  0  0  0  0
 22 23  2  0  0  0  0
 18 23  1  0  0  0  0
 17 18  1  0  0  0  0
 23 24  1  0  0  0  0
 15 16  2  0  0  0  0
 15 17  1  0  0  0  0
 14 15  1  0  0  0  0
  8 14  1  0  0  0  0
  7 14  1  0  0  0  0
 12 13  2  0  0  0  0
  8 13  1  0  0  0  0
 11 12  1  0  0  0  0
  7  8  1  0  0  0  0
  8  9  1  0  0  0  0
  6  7  2  0  0  0  0
 10 11  2  0  0  0  0
  5  6  1  0  0  0  0
  9 10  1  0  0  0  0
  2  5  1  0  0  0  0
  2  3  2  0  0  0  0
  1  2  1  0  0  0  0
  2  4  2  0  0  0  0
  5 25  1  0  0  0  0
  6 26  1  0  0  0  0
 10 27  1  0  0  0  0
 11 28  1  0  0  0  0
 12 29  1  0  0  0  0
 13 30  1  0  0  0  0
 14 31  1  0  0  0  0
 17 32  1  0  0  0  0
 22 33  1  0  0  0  0
M  END
> <Chemgauss4>
-9.957993

$$$$
