stable:False satoms:21 tatoms:24 sratio:0.875
  -OEChem-08052422443D

 26 26  0     1  0  0  0  0  0999 V2000
    8.2191    1.1874   21.9768 H   0  0  0  0  0  0  0  0  0  0  0  0
    8.3268    2.2764   21.9227 C   0  0  0  0  0  0  0  0  0  0  0  0
    8.8514    0.8203   23.9798 H   0  0  0  0  0  0  0  0  0  0  0  0
    8.2784    2.5591   20.8730 H   0  0  0  0  0  0  0  0  0  0  0  0
    7.4602    2.6777   22.4507 H   0  0  0  0  0  0  0  0  0  0  0  0
   10.2842   -1.8319   24.3065 H   0  0  0  0  0  0  0  0  0  0  0  0
   10.5764    4.1137   23.6850 H   0  0  0  0  0  0  0  0  0  0  0  0
    9.7797    3.5929   21.7985 H   0  0  0  0  0  0  0  0  0  0  0  0
    9.5369    2.8740   22.4498 N   0  3  0  0  0  0  0  0  0  0  0  0
   12.2823    1.8717   23.9000 H   0  0  0  0  0  0  0  0  0  0  0  0
    9.8252    2.4811   24.9195 C   0  0  0  0  0  0  0  0  0  0  0  0
    8.8477    4.1594   23.9401 H   0  0  0  0  0  0  0  0  0  0  0  0
    9.6857    3.4772   23.7524 C   0  0  0  0  0  0  0  0  0  0  0  0
   10.7779    2.6423   25.4160 H   0  0  0  0  0  0  0  0  0  0  0  0
   13.8852   -0.0229   24.7591 H   0  0  0  0  0  0  0  0  0  0  0  0
    9.6834    0.9521   24.6950 C   0  0  0  0  0  0  0  0  0  0  0  0
    9.0129    2.6926   25.6016 H   0  0  0  0  0  0  0  0  0  0  0  0
    9.3523    0.4706   25.6225 H   0  0  0  0  0  0  0  0  0  0  0  0
   12.4893   -1.3957   24.1686 C   0  0  0  0  0  0  0  0  0  0  0  0
   12.1431    0.8041   24.0767 C   0  0  0  0  0  0  0  0  0  0  0  0
   11.1393   -1.1586   24.3260 C   0  0  0  0  0  0  0  0  0  0  0  0
   12.9897   -2.3598   24.1636 H   0  0  0  0  0  0  0  0  0  0  0  0
   10.9361    0.2296   24.3645 C   0  0  0  0  0  0  0  0  0  0  0  0
   13.1212   -0.1754   23.9825 C   0  0  3  0  0  0  0  0  0  0  0  0
   13.5952   -0.1424   22.9904 H   0  0  0  0  0  0  0  0  0  0  0  0
   10.2240    2.1482   22.4167 H   0  0  0  0  0  0  0  0  0  0  0  0
 19 22  1  0  0  0  0
 19 24  1  0  0  0  0
 19 21  2  0  0  0  0
 15 24  1  0  0  0  0
 20 24  1  0  0  0  0
  6 21  1  0  0  0  0
 21 23  1  0  0  0  0
 16 18  1  0  0  0  0
 20 23  2  0  0  0  0
 16 23  1  0  0  0  0
 11 14  1  0  0  0  0
 10 20  1  0  0  0  0
 11 16  1  0  0  0  0
  3 16  1  0  0  0  0
 11 17  1  0  0  0  0
 11 13  1  0  0  0  0
  7 13  1  0  0  0  0
 12 13  1  0  0  0  0
  9 13  1  0  0  0  0
  8  9  1  0  0  0  0
  2  9  1  0  0  0  0
  1  2  1  0  0  0  0
  2  5  1  0  0  0  0
  2  4  1  0  0  0  0
 24 25  1  0  0  0  0
  9 26  1  0  0  0  0
M  CHG  1   9   1
M  END
> <Chemgauss4>
-6.038433

$$$$
