stable:False satoms:12 tatoms:24 sratio:0.5
  -OEChem-07092417493D

 24 24  0     1  0  0  0  0  0999 V2000
    6.6046   -4.8748   26.4531 C   0  0  0  0  0  0  0  0  0  0  0  0
    8.2043   -4.3091   26.1101 S   0  0  0  0  0  0  0  0  0  0  0  0
    9.0879   -5.4516   26.0670 O   0  0  0  0  0  0  0  0  0  0  0  0
    8.6194   -3.4182   27.1508 O   0  0  0  0  0  0  0  0  0  0  0  0
    8.1120   -3.5410   24.6862 N   0  0  0  0  0  0  0  0  0  0  0  0
    8.9951   -2.9536   24.1436 C   0  0  0  0  0  0  0  0  0  0  0  0
    9.4373   -1.9768   23.4849 C   0  0  0  0  0  0  0  0  0  0  0  0
   10.3061   -1.0723   23.3126 C   0  0  2  0  0  0  0  0  0  0  0  0
   11.0075   -0.0270   24.3003 C   0  0  0  0  0  0  0  0  0  0  0  0
   12.0655    0.2741   24.2418 C   0  0  0  0  0  0  0  0  0  0  0  0
   13.1695   -0.1501   23.4821 C   0  0  0  0  0  0  0  0  0  0  0  0
   12.6715   -1.2961   22.6153 C   0  0  0  0  0  0  0  0  0  0  0  0
   11.8073   -1.7495   22.4825 C   0  0  0  0  0  0  0  0  0  0  0  0
    9.7236   -0.5466   22.3509 C   0  0  0  0  0  0  0  0  0  0  0  0
    9.0607    0.0266   21.3969 C   0  0  0  0  0  0  0  0  0  0  0  0
    9.5448    0.9736   21.0243 O   0  0  0  0  0  0  0  0  0  0  0  0
    7.9354   -0.5541   21.0711 N   0  0  0  0  0  0  0  0  0  0  0  0
    7.1904   -0.1097   20.1438 C   0  0  0  0  0  0  0  0  0  0  0  0
    7.2475   -0.0335   18.8791 C   0  0  0  0  0  0  0  0  0  0  0  0
    6.7272    0.3439   17.7822 N   0  0  0  0  0  0  0  0  0  0  0  0
    5.6985    0.8831   18.2017 C   0  0  0  0  0  0  0  0  0  0  0  0
    5.2513    0.9886   19.3804 C   0  0  0  0  0  0  0  0  0  0  0  0
    5.8228    0.5609   20.5335 C   0  0  0  0  0  0  0  0  0  0  0  0
    5.2939    0.7231   22.0027 C   0  0  0  0  0  0  0  0  0  0  0  0
 20 21  2  0  0  0  0
 19 20  1  0  0  0  0
 21 22  1  0  0  0  0
 18 19  2  0  0  0  0
 22 23  2  0  0  0  0
 18 23  1  0  0  0  0
 17 18  1  0  0  0  0
 23 24  1  0  0  0  0
 15 16  2  0  0  0  0
 15 17  1  0  0  0  0
 14 15  1  0  0  0  0
  8 14  1  0  0  0  0
 12 13  2  0  0  0  0
 11 12  1  0  0  0  0
  7  8  1  0  0  0  0
  8  9  1  0  0  0  0
 10 11  1  0  0  0  0
  6  7  2  3  0  0  0
  5  6  1  0  0  0  0
  9 10  2  0  0  0  0
  2  5  1  0  0  0  0
  2  3  2  0  0  0  0
  1  2  1  0  0  0  0
  2  4  2  0  0  0  0
M  END
> <Shapegauss>
-286.677612

$$$$
