stable:False satoms:12 tatoms:24 sratio:0.5
  -OEChem-08062416263D

 47 47  0     1  0  0  0  0  0999 V2000
   -6.3169   -5.1939  -26.2389 C   0  0  0  0  0  0  0  0  0  0  0  0
   -7.9233   -4.5832  -26.0305 S   0  0  0  0  0  0  0  0  0  0  0  0
   -8.8325   -5.7058  -25.9972 O   0  0  0  0  0  0  0  0  0  0  0  0
   -8.2482   -3.7328  -27.1352 O   0  0  0  0  0  0  0  0  0  0  0  0
   -7.9098   -3.7532  -24.6388 N   0  0  0  0  0  0  0  0  0  0  0  0
   -8.8142   -3.1252  -24.1838 C   0  0  0  0  0  0  0  0  0  0  0  0
   -9.2780   -2.1114  -23.6002 C   0  0  0  0  0  0  0  0  0  0  0  0
  -10.1365   -1.1838  -23.5273 C   0  0  2  0  0  0  0  0  0  0  0  0
  -10.7472   -0.1714  -24.6053 C   0  0  0  0  0  0  0  0  0  0  0  0
  -11.7999    0.1519  -24.6321 C   0  0  0  0  0  0  0  0  0  0  0  0
  -12.9613   -0.2165  -23.9311 C   0  0  0  0  0  0  0  0  0  0  0  0
  -12.5476   -1.3312  -22.9829 C   0  0  0  0  0  0  0  0  0  0  0  0
  -11.7043   -1.7943  -22.7719 C   0  0  0  0  0  0  0  0  0  0  0  0
   -9.6083   -0.6261  -22.5523 C   0  0  0  0  0  0  0  0  0  0  0  0
   -8.9984   -0.0227  -21.5817 C   0  0  0  0  0  0  0  0  0  0  0  0
   -9.4856    0.9491  -21.2848 O   0  0  0  0  0  0  0  0  0  0  0  0
   -7.9104   -0.6091  -21.1550 N   0  0  0  0  0  0  0  0  0  0  0  0
   -7.2196   -0.1372  -20.1998 C   0  0  0  0  0  0  0  0  0  0  0  0
   -7.3596   -0.0026  -18.9465 C   0  0  0  0  0  0  0  0  0  0  0  0
   -6.9058    0.4143  -17.8345 N   0  0  0  0  0  0  0  0  0  0  0  0
   -5.8398    0.9145  -18.2065 C   0  0  0  0  0  0  0  0  0  0  0  0
   -5.3125    0.9580  -19.3556 C   0  0  0  0  0  0  0  0  0  0  0  0
   -5.8147    0.4892  -20.5249 C   0  0  0  0  0  0  0  0  0  0  0  0
   -5.1852    0.5746  -21.9606 C   0  0  0  0  0  0  0  0  0  0  0  0
   -6.2619   -5.7709  -27.1738 H   0  0  0  0  0  0  0  0  0  0  0  0
   -5.6084   -4.3537  -26.2845 H   0  0  0  0  0  0  0  0  0  0  0  0
   -6.0594   -5.8451  -25.3906 H   0  0  0  0  0  0  0  0  0  0  0  0
   -7.1591   -3.0991  -24.7324 H   0  0  0  0  0  0  0  0  0  0  0  0
   -9.6809   -3.7435  -24.3652 H   0  0  0  0  0  0  0  0  0  0  0  0
   -8.6300   -1.9586  -22.7499 H   0  0  0  0  0  0  0  0  0  0  0  0
  -11.0429   -1.6649  -23.1310 H   0  0  0  0  0  0  0  0  0  0  0  0
  -10.0812    0.2222  -25.3589 H   0  0  0  0  0  0  0  0  0  0  0  0
  -11.9805    0.9272  -25.3619 H   0  0  0  0  0  0  0  0  0  0  0  0
  -13.7308   -0.5762  -24.6300 H   0  0  0  0  0  0  0  0  0  0  0  0
  -13.3529    0.6409  -23.3641 H   0  0  0  0  0  0  0  0  0  0  0  0
  -13.3775   -1.7045  -22.4014 H   0  0  0  0  0  0  0  0  0  0  0  0
  -11.6900   -2.5784  -22.0295 H   0  0  0  0  0  0  0  0  0  0  0  0
  -10.7940   -1.5179  -23.2831 H   0  0  0  0  0  0  0  0  0  0  0  0
   -9.6513   -1.5589  -21.9710 H   0  0  0  0  0  0  0  0  0  0  0  0
  -10.5201   -0.0383  -22.3703 H   0  0  0  0  0  0  0  0  0  0  0  0
   -7.6128   -1.4563  -21.5951 H   0  0  0  0  0  0  0  0  0  0  0  0
   -8.3126   -0.4550  -18.7149 H   0  0  0  0  0  0  0  0  0  0  0  0
   -5.2656    1.3912  -17.4258 H   0  0  0  0  0  0  0  0  0  0  0  0
   -4.3412    1.4268  -19.4126 H   0  0  0  0  0  0  0  0  0  0  0  0
   -4.5763   -0.3221  -22.1484 H   0  0  0  0  0  0  0  0  0  0  0  0
   -5.9882    0.6359  -22.7098 H   0  0  0  0  0  0  0  0  0  0  0  0
   -4.5501    1.4700  -22.0296 H   0  0  0  0  0  0  0  0  0  0  0  0
 20 21  2  0  0  0  0
 19 20  1  0  0  0  0
 21 22  1  0  0  0  0
 18 19  2  0  0  0  0
 22 23  2  0  0  0  0
 18 23  1  0  0  0  0
 17 18  1  0  0  0  0
 23 24  1  0  0  0  0
 15 16  2  0  0  0  0
 15 17  1  0  0  0  0
 14 15  1  0  0  0  0
  8 14  1  0  0  0  0
 12 13  2  0  0  0  0
 11 12  1  0  0  0  0
  7  8  1  0  0  0  0
  8  9  1  0  0  0  0
 10 11  1  0  0  0  0
  6  7  2  3  0  0  0
  5  6  1  0  0  0  0
  9 10  2  0  0  0  0
  2  5  1  0  0  0  0
  2  3  2  0  0  0  0
  1  2  1  0  0  0  0
  2  4  2  0  0  0  0
  1 25  1  0  0  0  0
  1 26  1  0  0  0  0
  1 27  1  0  0  0  0
  5 28  1  0  0  0  0
  6 29  1  0  0  0  0
  7 30  1  0  0  0  0
  8 31  1  0  0  0  0
  9 32  1  0  0  0  0
 10 33  1  0  0  0  0
 11 34  1  0  0  0  0
 11 35  1  0  0  0  0
 12 36  1  0  0  0  0
 13 37  1  0  0  0  0
 13 38  1  0  0  0  0
 14 39  1  0  0  0  0
 14 40  1  0  0  0  0
 17 41  1  0  0  0  0
 19 42  1  0  0  0  0
 21 43  1  0  0  0  0
 22 44  1  0  0  0  0
 24 45  1  0  0  0  0
 24 46  1  0  0  0  0
 24 47  1  0  0  0  0
M  END
> <Chemgauss4>
-13.144346

$$$$
