
 OpenBabel07202414163D

 52 56  0  0  1  0  0  0  0  0999 V2000
    2.2564    1.9896    0.0698 C   0  0  0  0  0  0  0  0  0  0  0  0
    3.0787    0.8230    0.4522 C   0  0  0  0  0  0  0  0  0  0  0  0
    2.7882    0.0450    1.5002 N   0  0  0  0  0  0  0  0  0  0  0  0
    3.7753   -0.8596    1.4508 N   0  0  0  0  0  0  0  0  0  0  0  0
    4.6275   -0.6179    0.4074 C   0  0  0  0  0  0  0  0  0  0  0  0
    5.7920   -1.5086    0.1019 C   0  0  0  0  0  0  0  0  0  0  0  0
    7.1357   -0.8835    0.0748 N   0  0  0  0  0  0  0  0  0  0  0  0
    7.4514   -0.1493    1.3158 C   0  0  0  0  0  0  0  0  0  0  0  0
    8.9097    0.3581    1.3275 C   0  0  3  0  0  0  0  0  0  0  0  0
    9.9633   -0.7337    1.6070 C   0  0  0  0  0  0  0  0  0  0  0  0
   11.0000   -0.4472    2.2040 O   0  0  0  0  0  0  0  0  0  0  0  0
    9.6487   -1.9883    1.1179 N   0  0  0  0  0  0  0  0  0  0  0  0
   10.4367   -3.1717    1.1601 C   0  0  0  0  0  0  0  0  0  0  0  0
   11.7464   -3.1953    1.6453 C   0  0  0  0  0  0  0  0  0  0  0  0
   12.5769   -4.2644    1.5782 N   0  0  0  0  0  0  0  0  0  0  0  0
   12.0685   -5.3872    1.0310 C   0  0  0  0  0  0  0  0  0  0  0  0
   10.7509   -5.5298    0.6015 C   0  0  0  0  0  0  0  0  0  0  0  0
   10.2738   -6.7703    0.1387 C   0  0  0  0  0  0  0  0  0  0  0  0
    8.9463   -6.9222   -0.2501 C   0  0  0  0  0  0  0  0  0  0  0  0
    8.0905   -5.8305   -0.2030 C   0  0  0  0  0  0  0  0  0  0  0  0
    8.5617   -4.5890    0.2366 C   0  0  0  0  0  0  0  0  0  0  0  0
    9.9022   -4.3973    0.6604 C   0  0  0  0  0  0  0  0  0  0  0  0
    9.2200    1.1403    0.0671 C   0  0  0  0  0  0  0  0  0  0  0  0
   10.2292    2.1186    0.0686 C   0  0  0  0  0  0  0  0  0  0  0  0
   10.4820    2.8652   -1.0822 C   0  0  0  0  0  0  0  0  0  0  0  0
   11.6740    4.1079   -1.0523 Cl  0  0  0  0  0  0  0  0  0  0  0  0
    9.7603    2.6313   -2.2488 C   0  0  0  0  0  0  0  0  0  0  0  0
    8.7590    1.6587   -2.2583 C   0  0  0  0  0  0  0  0  0  0  0  0
    8.4762    0.9107   -1.1023 C   0  0  0  0  0  0  0  0  0  0  0  0
    7.2854   -0.0290   -1.1236 C   0  0  0  0  0  0  0  0  0  0  0  0
    4.1973    0.4446   -0.2452 N   0  0  0  0  0  0  0  0  0  0  0  0
    1.4245    2.1413    0.7660 H   0  0  0  0  0  0  0  0  0  0  0  0
    1.8382    1.8491   -0.9317 H   0  0  0  0  0  0  0  0  0  0  0  0
    2.8647    2.8992    0.0655 H   0  0  0  0  0  0  0  0  0  0  0  0
    3.7994   -1.6011    2.1394 H   0  0  0  0  0  0  0  0  0  0  0  0
    5.6055   -1.9987   -0.8625 H   0  0  0  0  0  0  0  0  0  0  0  0
    5.8213   -2.3243    0.8356 H   0  0  0  0  0  0  0  0  0  0  0  0
    7.3015   -0.8107    2.1791 H   0  0  0  0  0  0  0  0  0  0  0  0
    6.7761    0.7072    1.4396 H   0  0  0  0  0  0  0  0  0  0  0  0
    8.9734    1.0493    2.1810 H   0  0  0  0  0  0  0  0  0  0  0  0
    8.7875   -2.0320    0.5813 H   0  0  0  0  0  0  0  0  0  0  0  0
   12.2127   -2.3316    2.1074 H   0  0  0  0  0  0  0  0  0  0  0  0
   12.7777   -6.2083    0.9580 H   0  0  0  0  0  0  0  0  0  0  0  0
   10.9339   -7.6354    0.1017 H   0  0  0  0  0  0  0  0  0  0  0  0
    8.5810   -7.8913   -0.5787 H   0  0  0  0  0  0  0  0  0  0  0  0
    7.0510   -5.9441   -0.5004 H   0  0  0  0  0  0  0  0  0  0  0  0
    7.8446   -3.7766    0.2707 H   0  0  0  0  0  0  0  0  0  0  0  0
   10.8021    2.3121    0.9730 H   0  0  0  0  0  0  0  0  0  0  0  0
    9.9553    3.2179   -3.1427 H   0  0  0  0  0  0  0  0  0  0  0  0
    8.1832    1.5045   -3.1685 H   0  0  0  0  0  0  0  0  0  0  0  0
    7.3940   -0.6907   -1.9921 H   0  0  0  0  0  0  0  0  0  0  0  0
    6.4051    0.5987   -1.2870 H   0  0  0  0  0  0  0  0  0  0  0  0
  1  2  1  0  0  0  0
  1 32  1  0  0  0  0
  1 33  1  0  0  0  0
  1 34  1  0  0  0  0
  2  3  2  0  0  0  0
  2 31  1  0  0  0  0
  3  4  1  0  0  0  0
  4  5  1  0  0  0  0
  4 35  1  0  0  0  0
  5  6  1  0  0  0  0
  5 31  2  0  0  0  0
  6  7  1  0  0  0  0
  6 36  1  0  0  0  0
  6 37  1  0  0  0  0
  7  8  1  0  0  0  0
  7 30  1  0  0  0  0
  8  9  1  0  0  0  0
  8 38  1  0  0  0  0
  8 39  1  0  0  0  0
  9 10  1  0  0  0  0
  9 23  1  0  0  0  0
  9 40  1  0  0  0  0
 10 11  2  0  0  0  0
 10 12  1  0  0  0  0
 12 13  1  0  0  0  0
 12 41  1  0  0  0  0
 13 14  1  0  0  0  0
 13 22  2  0  0  0  0
 14 15  2  0  0  0  0
 14 42  1  0  0  0  0
 15 16  1  0  0  0  0
 16 17  2  0  0  0  0
 16 43  1  0  0  0  0
 17 18  1  0  0  0  0
 17 22  1  0  0  0  0
 18 19  2  0  0  0  0
 18 44  1  0  0  0  0
 19 20  1  0  0  0  0
 19 45  1  0  0  0  0
 20 21  2  0  0  0  0
 20 46  1  0  0  0  0
 21 22  1  0  0  0  0
 21 47  1  0  0  0  0
 23 24  1  0  0  0  0
 23 29  2  0  0  0  0
 24 25  2  0  0  0  0
 24 48  1  0  0  0  0
 25 26  1  0  0  0  0
 25 27  1  0  0  0  0
 27 28  2  0  0  0  0
 27 49  1  0  0  0  0
 28 29  1  0  0  0  0
 28 50  1  0  0  0  0
 29 30  1  0  0  0  0
 30 51  1  0  0  0  0
 30 52  1  0  0  0  0
M  END
$$$$
