stable:False satoms:7 tatoms:24 sratio:0.2916666666666667
  -OEChem-08062414113D

 41 41  0     0  0  0  0  0  0999 V2000
   -6.2608   -5.2416  -26.2097 C   0  0  0  0  0  0  0  0  0  0  0  0
   -7.9485   -4.6305  -26.0157 S   0  0  0  0  0  0  0  0  0  0  0  0
   -8.7749   -5.8107  -25.9896 O   0  0  0  0  0  0  0  0  0  0  0  0
   -8.2677   -3.7911  -27.1161 O   0  0  0  0  0  0  0  0  0  0  0  0
   -7.9006   -3.8832  -24.6232 N   0  0  0  0  0  0  0  0  0  0  0  0
   -8.7439   -3.1918  -24.1856 C   0  0  0  0  0  0  0  0  0  0  0  0
   -9.2193   -2.2382  -23.6742 C   0  0  0  0  0  0  0  0  0  0  0  0
   -9.8754   -1.2143  -23.6024 C   0  0  0  0  0  0  0  0  0  0  0  0
  -10.7914   -0.3262  -24.6007 C   0  0  0  0  0  0  0  0  0  0  0  0
  -11.7583   -0.0135  -24.6090 C   0  0  0  0  0  0  0  0  0  0  0  0
  -12.8943   -0.4561  -23.7739 C   0  0  0  0  0  0  0  0  0  0  0  0
  -12.5826   -1.3417  -23.0285 C   0  0  0  0  0  0  0  0  0  0  0  0
  -11.9732   -1.9707  -22.6008 C   0  0  0  0  0  0  0  0  0  0  0  0
   -9.5709   -0.7562  -22.5461 C   0  0  0  0  0  0  0  0  0  0  0  0
   -8.9968   -0.1288  -21.5434 C   0  0  0  0  0  0  0  0  0  0  0  0
   -9.4947    0.8203  -21.2006 O   0  0  0  0  0  0  0  0  0  0  0  0
   -7.8667   -0.7252  -21.1808 N   0  0  0  0  0  0  0  0  0  0  0  0
   -7.1817   -0.2185  -20.2678 C   0  0  0  0  0  0  0  0  0  0  0  0
   -7.3075   -0.0440  -18.9567 C   0  0  0  0  0  0  0  0  0  0  0  0
   -6.9675    0.2952  -17.8572 N   0  0  0  0  0  0  0  0  0  0  0  0
   -5.7836    0.8207  -18.2796 C   0  0  0  0  0  0  0  0  0  0  0  0
   -5.3283    0.8623  -19.3924 C   0  0  0  0  0  0  0  0  0  0  0  0
   -5.8099    0.4062  -20.5888 C   0  0  0  0  0  0  0  0  0  0  0  0
   -5.3764    0.4590  -21.6121 C   0  0  0  0  0  0  0  0  0  0  0  0
   -6.1750   -5.7875  -27.1608 H   0  0  0  0  0  0  0  0  0  0  0  0
   -5.5614   -4.3926  -26.2100 H   0  0  0  0  0  0  0  0  0  0  0  0
   -6.0174   -5.9169  -25.3762 H   0  0  0  0  0  0  0  0  0  0  0  0
   -7.0826   -3.3091  -24.6606 H   0  0  0  0  0  0  0  0  0  0  0  0
  -10.2425    0.0157  -25.4657 H   0  0  0  0  0  0  0  0  0  0  0  0
  -11.9892    0.7537  -25.3332 H   0  0  0  0  0  0  0  0  0  0  0  0
  -13.7014   -0.8119  -24.4311 H   0  0  0  0  0  0  0  0  0  0  0  0
  -13.2538    0.3978  -23.1810 H   0  0  0  0  0  0  0  0  0  0  0  0
  -11.3104   -2.6548  -22.1357 H   0  0  0  0  0  0  0  0  0  0  0  0
  -10.3912   -1.1756  -21.9827 H   0  0  0  0  0  0  0  0  0  0  0  0
   -7.5690   -1.5666  -21.6319 H   0  0  0  0  0  0  0  0  0  0  0  0
   -8.2954   -0.4398  -18.7726 H   0  0  0  0  0  0  0  0  0  0  0  0
   -5.1686    1.2609  -17.5086 H   0  0  0  0  0  0  0  0  0  0  0  0
   -4.3656    1.3472  -19.4588 H   0  0  0  0  0  0  0  0  0  0  0  0
   -4.7701   -0.4392  -21.8009 H   0  0  0  0  0  0  0  0  0  0  0  0
   -6.1886    0.5151  -22.3519 H   0  0  0  0  0  0  0  0  0  0  0  0
   -4.7420    1.3537  -21.6957 H   0  0  0  0  0  0  0  0  0  0  0  0
 20 21  2  0  0  0  0
 19 20  1  0  0  0  0
 21 22  1  0  0  0  0
 18 19  2  0  0  0  0
 22 23  2  0  0  0  0
 18 23  1  0  0  0  0
 17 18  1  0  0  0  0
 23 24  1  0  0  0  0
 15 16  2  0  0  0  0
 15 17  1  0  0  0  0
 14 15  1  0  0  0  0
 12 13  3  0  0  0  0
  8 14  2  3  0  0  0
 11 12  1  0  0  0  0
 10 11  1  0  0  0  0
  7  8  1  0  0  0  0
  8  9  1  0  0  0  0
  6  7  3  0  0  0  0
  5  6  1  0  0  0  0
  9 10  2  0  0  0  0
  2  5  1  0  0  0  0
  2  3  2  0  0  0  0
  1  2  1  0  0  0  0
  2  4  2  0  0  0  0
  1 25  1  0  0  0  0
  1 26  1  0  0  0  0
  1 27  1  0  0  0  0
  5 28  1  0  0  0  0
  9 29  1  0  0  0  0
 10 30  1  0  0  0  0
 11 31  1  0  0  0  0
 11 32  1  0  0  0  0
 13 33  1  0  0  0  0
 14 34  1  0  0  0  0
 17 35  1  0  0  0  0
 19 36  1  0  0  0  0
 21 37  1  0  0  0  0
 22 38  1  0  0  0  0
 24 39  1  0  0  0  0
 24 40  1  0  0  0  0
 24 41  1  0  0  0  0
M  END
> <Chemgauss4>
-12.809967

$$$$
