REMARK  4 active torsions:
REMARK  status: ('A' for Active; 'I' for Inactive)
REMARK    1  A    between atoms: S_2  and  N_5 
REMARK    2  A    between atoms: N_5  and  C_7 
REMARK    3  A    between atoms: C_15  and  C_16 
REMARK       I    between atoms: C_16  and  N_18 
REMARK    4  A    between atoms: N_18  and  C_20 
ROOT
HETATM    1  C   UNL     1       8.961  -2.941  24.137  1.00  0.00     0.109 C 
HETATM    2  C   UNL     1       9.380  -1.932  23.466  1.00  0.00    -0.008 A 
HETATM    3  C   UNL     1      10.324  -1.129  23.251  1.00  0.00     0.057 A 
HETATM    4  C   UNL     1      11.046   0.035  24.306  1.00  0.00    -0.007 C 
HETATM    5  C   UNL     1      12.112   0.284  24.233  1.00  0.00    -0.025 C 
HETATM    6  C   UNL     1      13.153  -0.151  23.543  1.00  0.00     0.053 C 
HETATM    7  C   UNL     1      12.720  -1.327  22.646  1.00  0.00    -0.025 C 
HETATM    8  C   UNL     1      11.831  -1.738  22.530  1.00  0.00    -0.007 C 
HETATM    9  C   UNL     1       9.720  -0.614  22.410  1.00  0.00     0.040 A 
ENDROOT
BRANCH   9  10
HETATM   10  C   UNL     1       9.066   0.051  21.373  1.00  0.00     0.254 C 
HETATM   11  O   UNL     1       9.536   1.016  20.954  1.00  0.00    -0.268 OA
HETATM   12  N   UNL     1       7.967  -0.566  21.068  1.00  0.00    -0.321 N 
ATOM     13  HN  UNL     1       7.712  -1.419  21.565  1.00  0.00     0.169 HD
BRANCH  12  14
HETATM   14  C   UNL     1       7.212  -0.121  20.163  1.00  0.00     0.056 A 
HETATM   15  C   UNL     1       7.202   0.005  18.863  1.00  0.00     0.117 A 
HETATM   16  N   UNL     1       6.807   0.347  17.789  1.00  0.00    -0.373 N 
HETATM   17  C   UNL     1       5.598   0.912  18.242  1.00  0.00     0.088 A 
ATOM     18  HN  UNL     1       7.210   0.259  16.856  1.00  0.00     0.164 HD
HETATM   19  C   UNL     1       5.251   0.968  19.412  1.00  0.00     0.026 A 
HETATM   20  C   UNL     1       5.807   0.561  20.542  1.00  0.00    -0.033 A 
HETATM   21  C   UNL     1       5.330   0.681  21.986  1.00  0.00     0.050 C 
ENDBRANCH  12  14
ENDBRANCH   9  10
BRANCH   1  22
HETATM   22  N   UNL     1       8.115  -3.583  24.654  1.00  0.00    -0.295 N 
ATOM     23  HN  UNL     1       7.240  -3.689  24.140  1.00  0.00     0.177 HD
BRANCH  22  24
HETATM   24  S   UNL     1       8.206  -4.310  26.093  1.00  0.00     0.226 S 
HETATM   25  C   UNL     1       6.578  -4.855  26.465  1.00  0.00     0.186 C 
HETATM   26  O   UNL     1       9.055  -5.485  26.050  1.00  0.00    -0.206 OA
HETATM   27  O   UNL     1       8.607  -3.400  27.120  1.00  0.00    -0.206 OA
ENDBRANCH  22  24
ENDBRANCH   1  22
TORSDOF 4
