MODEL 1
REMARK VINA RESULT:    -7.885      0.000      0.000
REMARK INTER + INTRA:         -10.583
REMARK INTER:                  -9.728
REMARK INTRA:                  -0.855
REMARK UNBOUND:                -0.855
REMARK  4 active torsions:
REMARK  status: ('A' for Active; 'I' for Inactive)
REMARK    1  A    between atoms: S_2  and  N_5 
REMARK    2  A    between atoms: N_5  and  C_7 
REMARK    3  A    between atoms: C_15  and  C_16 
REMARK       I    between atoms: C_16  and  N_18 
REMARK    4  A    between atoms: N_18  and  C_20 
ROOT
HETATM    1  C   UNL     1       8.798   0.899  22.171  1.00  0.00     0.109 C 
HETATM    2  C   UNL     1       9.254   0.043  23.009  1.00  0.00    -0.008 A 
HETATM    3  C   UNL     1      10.272  -0.505  23.506  1.00  0.00     0.057 A 
HETATM    4  C   UNL     1      11.468  -1.502  22.754  1.00  0.00    -0.007 C 
HETATM    5  C   UNL     1      12.512  -1.488  23.091  1.00  0.00    -0.025 C 
HETATM    6  C   UNL     1      13.231  -0.794  23.957  1.00  0.00     0.053 C 
HETATM    7  C   UNL     1      12.344   0.277  24.620  1.00  0.00    -0.025 C 
HETATM    8  C   UNL     1      11.385   0.470  24.492  1.00  0.00    -0.007 C 
HETATM    9  C   UNL     1       9.611  -1.118  24.231  1.00  0.00     0.040 A 
ENDROOT
BRANCH   9  10
HETATM   10  C   UNL     1       8.889  -1.881  25.149  1.00  0.00     0.254 C 
HETATM   11  O   UNL     1       8.587  -1.398  26.151  1.00  0.00    -0.268 OA
HETATM   12  N   UNL     1       8.700  -3.077  24.685  1.00  0.00    -0.321 N 
ATOM     13  HN  UNL     1       9.055  -3.323  23.762  1.00  0.00     0.169 HD
BRANCH  12  14
HETATM   14  C   UNL     1       8.080  -3.937  25.366  1.00  0.00     0.056 A 
HETATM   15  C   UNL     1       8.330  -4.833  26.283  1.00  0.00     0.117 A 
HETATM   16  N   UNL     1       8.113  -5.738  27.032  1.00  0.00    -0.373 N 
HETATM   17  C   UNL     1       6.733  -5.832  26.764  1.00  0.00     0.088 A 
ATOM     18  HN  UNL     1       8.723  -6.265  27.657  1.00  0.00     0.164 HD
HETATM   19  C   UNL     1       6.130  -5.138  25.960  1.00  0.00     0.026 A 
HETATM   20  C   UNL     1       6.503  -4.158  25.152  1.00  0.00    -0.033 A 
HETATM   21  C   UNL     1       5.701  -3.338  24.146  1.00  0.00     0.050 C 
ENDBRANCH  12  14
ENDBRANCH   9  10
BRANCH   1  22
HETATM   22  N   UNL     1       7.982   1.303  21.419  1.00  0.00    -0.295 N 
ATOM     23  HN  UNL     1       7.783   2.303  21.450  1.00  0.00     0.177 HD
BRANCH  22  24
HETATM   24  S   UNL     1       7.151   0.430  20.344  1.00  0.00     0.226 S 
HETATM   25  C   UNL     1       5.676   1.328  20.026  1.00  0.00     0.186 C 
HETATM   26  O   UNL     1       7.861   0.306  19.086  1.00  0.00    -0.206 OA
HETATM   27  O   UNL     1       6.780  -0.845  20.874  1.00  0.00    -0.206 OA
ENDBRANCH  22  24
ENDBRANCH   1  22
TORSDOF 4
ENDMDL
MODEL 2
REMARK VINA RESULT:    -7.473      3.510      7.497
REMARK INTER + INTRA:         -10.075
REMARK INTER:                  -9.429
REMARK INTRA:                  -0.646
REMARK UNBOUND:                -0.855
REMARK  4 active torsions:
REMARK  status: ('A' for Active; 'I' for Inactive)
REMARK    1  A    between atoms: S_2  and  N_5 
REMARK    2  A    between atoms: N_5  and  C_7 
REMARK    3  A    between atoms: C_15  and  C_16 
REMARK       I    between atoms: C_16  and  N_18 
REMARK    4  A    between atoms: N_18  and  C_20 
ROOT
HETATM    1  C   UNL     1       7.023  -5.621  26.446  1.00  0.00     0.109 C 
HETATM    2  C   UNL     1       7.174  -4.939  25.370  1.00  0.00    -0.008 A 
HETATM    3  C   UNL     1       6.991  -4.879  24.127  1.00  0.00     0.057 A 
HETATM    4  C   UNL     1       7.625  -5.879  22.868  1.00  0.00    -0.007 C 
HETATM    5  C   UNL     1       7.044  -6.086  21.960  1.00  0.00    -0.025 C 
HETATM    6  C   UNL     1       5.823  -5.828  21.524  1.00  0.00     0.053 C 
HETATM    7  C   UNL     1       5.039  -5.065  22.610  1.00  0.00    -0.025 C 
HETATM    8  C   UNL     1       5.330  -4.763  23.502  1.00  0.00    -0.007 C 
HETATM    9  C   UNL     1       7.450  -3.818  24.092  1.00  0.00     0.040 A 
ENDROOT
BRANCH   9  10
HETATM   10  C   UNL     1       7.975  -2.532  23.964  1.00  0.00     0.254 C 
HETATM   11  O   UNL     1       7.298  -1.699  23.545  1.00  0.00    -0.268 OA
HETATM   12  N   UNL     1       9.215  -2.515  24.343  1.00  0.00    -0.321 N 
ATOM     13  HN  UNL     1       9.651  -3.372  24.685  1.00  0.00     0.169 HD
BRANCH  12  14
HETATM   14  C   UNL     1       9.887  -1.451  24.293  1.00  0.00     0.056 A 
HETATM   15  C   UNL     1      10.786  -0.889  23.530  1.00  0.00     0.117 A 
HETATM   16  N   UNL     1      11.591  -0.077  23.186  1.00  0.00    -0.373 N 
HETATM   17  C   UNL     1      11.372   0.820  24.250  1.00  0.00     0.088 A 
ATOM     18  HN  UNL     1      12.225  -0.044  22.387  1.00  0.00     0.164 HD
HETATM   19  C   UNL     1      10.583   0.635  25.165  1.00  0.00     0.026 A 
HETATM   20  C   UNL     1       9.742  -0.346  25.451  1.00  0.00    -0.033 A 
HETATM   21  C   UNL     1       8.791  -0.530  26.630  1.00  0.00     0.050 C 
ENDBRANCH  12  14
ENDBRANCH   9  10
BRANCH   1  22
HETATM   22  N   UNL     1       7.348  -5.965  27.528  1.00  0.00    -0.295 N 
ATOM     23  HN  UNL     1       8.348  -6.078  27.693  1.00  0.00     0.177 HD
BRANCH  22  24
HETATM   24  S   UNL     1       6.366  -6.275  28.772  1.00  0.00     0.226 S 
HETATM   25  C   UNL     1       4.746  -6.372  28.099  1.00  0.00     0.186 C 
HETATM   26  O   UNL     1       6.658  -7.558  29.382  1.00  0.00    -0.206 OA
HETATM   27  O   UNL     1       6.378  -5.214  29.731  1.00  0.00    -0.206 OA
ENDBRANCH  22  24
ENDBRANCH   1  22
TORSDOF 4
ENDMDL
MODEL 3
REMARK VINA RESULT:    -7.175      2.529      5.323
REMARK INTER + INTRA:          -9.707
REMARK INTER:                  -8.974
REMARK INTRA:                  -0.733
REMARK UNBOUND:                -0.855
REMARK  4 active torsions:
REMARK  status: ('A' for Active; 'I' for Inactive)
REMARK    1  A    between atoms: S_2  and  N_5 
REMARK    2  A    between atoms: N_5  and  C_7 
REMARK    3  A    between atoms: C_15  and  C_16 
REMARK       I    between atoms: C_16  and  N_18 
REMARK    4  A    between atoms: N_18  and  C_20 
ROOT
HETATM    1  C   UNL     1       9.431   0.204  21.353  1.00  0.00     0.109 C 
HETATM    2  C   UNL     1       8.224  -0.187  21.170  1.00  0.00    -0.008 A 
HETATM    3  C   UNL     1       7.105   0.058  20.651  1.00  0.00     0.057 A 
HETATM    4  C   UNL     1       6.002   1.352  20.965  1.00  0.00    -0.007 C 
HETATM    5  C   UNL     1       5.370   1.765  20.169  1.00  0.00    -0.025 C 
HETATM    6  C   UNL     1       5.241   1.599  18.864  1.00  0.00     0.053 C 
HETATM    7  C   UNL     1       6.281   0.575  18.371  1.00  0.00    -0.025 C 
HETATM    8  C   UNL     1       6.956   0.066  18.879  1.00  0.00    -0.007 C 
HETATM    9  C   UNL     1       6.686  -0.951  21.030  1.00  0.00     0.040 A 
ENDROOT
BRANCH   9  10
HETATM   10  C   UNL     1       6.109  -2.154  21.436  1.00  0.00     0.254 C 
HETATM   11  O   UNL     1       5.651  -2.843  20.635  1.00  0.00    -0.268 OA
HETATM   12  N   UNL     1       6.178  -2.271  22.726  1.00  0.00    -0.321 N 
ATOM     13  HN  UNL     1       6.625  -1.539  23.276  1.00  0.00     0.169 HD
BRANCH  12  14
HETATM   14  C   UNL     1       5.698  -3.283  23.304  1.00  0.00     0.056 A 
HETATM   15  C   UNL     1       4.530  -3.792  23.588  1.00  0.00     0.117 A 
HETATM   16  N   UNL     1       3.742  -4.548  24.072  1.00  0.00    -0.373 N 
HETATM   17  C   UNL     1       4.693  -5.432  24.619  1.00  0.00     0.088 A 
ATOM     18  HN  UNL     1       2.722  -4.552  24.085  1.00  0.00     0.164 HD
HETATM   19  C   UNL     1       5.903  -5.287  24.544  1.00  0.00     0.026 A 
HETATM   20  C   UNL     1       6.672  -4.366  23.983  1.00  0.00    -0.033 A 
HETATM   21  C   UNL     1       8.190  -4.227  23.942  1.00  0.00     0.050 C 
ENDBRANCH  12  14
ENDBRANCH   9  10
BRANCH   1  22
HETATM   22  N   UNL     1      10.431   0.276  21.979  1.00  0.00    -0.295 N 
ATOM     23  HN  UNL     1      11.047   1.062  21.771  1.00  0.00     0.177 HD
BRANCH  22  24
HETATM   24  S   UNL     1      10.918  -0.746  23.131  1.00  0.00     0.226 S 
HETATM   25  C   UNL     1      12.128   0.119  24.066  1.00  0.00     0.186 C 
HETATM   26  O   UNL     1       9.839  -1.091  24.036  1.00  0.00    -0.206 OA
HETATM   27  O   UNL     1      11.542  -1.907  22.578  1.00  0.00    -0.206 OA
ENDBRANCH  22  24
ENDBRANCH   1  22
TORSDOF 4
ENDMDL
MODEL 4
REMARK VINA RESULT:    -6.945      1.932      2.284
REMARK INTER + INTRA:          -9.423
REMARK INTER:                  -8.846
REMARK INTRA:                  -0.577
REMARK UNBOUND:                -0.855
REMARK  4 active torsions:
REMARK  status: ('A' for Active; 'I' for Inactive)
REMARK    1  A    between atoms: S_2  and  N_5 
REMARK    2  A    between atoms: N_5  and  C_7 
REMARK    3  A    between atoms: C_15  and  C_16 
REMARK       I    between atoms: C_16  and  N_18 
REMARK    4  A    between atoms: N_18  and  C_20 
ROOT
HETATM    1  C   UNL     1       7.105   0.014  22.035  1.00  0.00     0.109 C 
HETATM    2  C   UNL     1       7.775  -0.914  22.614  1.00  0.00    -0.008 A 
HETATM    3  C   UNL     1       8.878  -1.266  23.104  1.00  0.00     0.057 A 
HETATM    4  C   UNL     1      10.415  -1.465  22.336  1.00  0.00    -0.007 C 
HETATM    5  C   UNL     1      11.349  -1.260  22.873  1.00  0.00    -0.025 C 
HETATM    6  C   UNL     1      11.688  -0.774  24.056  1.00  0.00     0.053 C 
HETATM    7  C   UNL     1      10.417  -0.380  24.833  1.00  0.00    -0.025 C 
HETATM    8  C   UNL     1       9.469  -0.461  24.575  1.00  0.00    -0.007 C 
HETATM    9  C   UNL     1       8.434  -2.286  23.420  1.00  0.00     0.040 A 
ENDROOT
BRANCH   9  10
HETATM   10  C   UNL     1       7.972  -3.530  23.850  1.00  0.00     0.254 C 
HETATM   11  O   UNL     1       8.743  -4.328  24.158  1.00  0.00    -0.268 OA
HETATM   12  N   UNL     1       6.677  -3.569  23.797  1.00  0.00    -0.321 N 
ATOM     13  HN  UNL     1       6.159  -2.748  23.486  1.00  0.00     0.169 HD
BRANCH  12  14
HETATM   14  C   UNL     1       6.053  -4.613  24.127  1.00  0.00     0.056 A 
HETATM   15  C   UNL     1       5.550  -5.679  23.565  1.00  0.00     0.117 A 
HETATM   16  N   UNL     1       4.942  -6.704  23.485  1.00  0.00    -0.373 N 
HETATM   17  C   UNL     1       4.647  -6.815  24.858  1.00  0.00     0.088 A 
ATOM     18  HN  UNL     1       4.714  -7.300  22.689  1.00  0.00     0.164 HD
HETATM   19  C   UNL     1       4.970  -6.000  25.708  1.00  0.00     0.026 A 
HETATM   20  C   UNL     1       5.642  -4.860  25.661  1.00  0.00    -0.033 A 
HETATM   21  C   UNL     1       5.998  -3.868  26.764  1.00  0.00     0.050 C 
ENDBRANCH  12  14
ENDBRANCH   9  10
BRANCH   1  22
HETATM   22  N   UNL     1       6.262   0.404  21.305  1.00  0.00    -0.295 N 
ATOM     23  HN  UNL     1       5.498   0.932  21.727  1.00  0.00     0.177 HD
BRANCH  22  24
HETATM   24  S   UNL     1       6.200   0.186  19.706  1.00  0.00     0.226 S 
HETATM   25  C   UNL     1       5.118   1.424  19.089  1.00  0.00     0.186 C 
HETATM   26  O   UNL     1       7.493   0.394  19.084  1.00  0.00    -0.206 OA
HETATM   27  O   UNL     1       5.644  -1.087  19.368  1.00  0.00    -0.206 OA
ENDBRANCH  22  24
ENDBRANCH   1  22
TORSDOF 4
ENDMDL
MODEL 5
REMARK VINA RESULT:    -6.894      3.547      5.300
REMARK INTER + INTRA:          -9.360
REMARK INTER:                  -8.587
REMARK INTRA:                  -0.773
REMARK UNBOUND:                -0.855
REMARK  4 active torsions:
REMARK  status: ('A' for Active; 'I' for Inactive)
REMARK    1  A    between atoms: S_2  and  N_5 
REMARK    2  A    between atoms: N_5  and  C_7 
REMARK    3  A    between atoms: C_15  and  C_16 
REMARK       I    between atoms: C_16  and  N_18 
REMARK    4  A    between atoms: N_18  and  C_20 
ROOT
HETATM    1  C   UNL     1       8.633   2.060  21.760  1.00  0.00     0.109 C 
HETATM    2  C   UNL     1       7.918   1.039  21.457  1.00  0.00    -0.008 A 
HETATM    3  C   UNL     1       7.062   0.547  20.679  1.00  0.00     0.057 A 
HETATM    4  C   UNL     1       5.425   1.024  20.394  1.00  0.00    -0.007 C 
HETATM    5  C   UNL     1       4.963   0.908  19.405  1.00  0.00    -0.025 C 
HETATM    6  C   UNL     1       5.359   0.536  18.200  1.00  0.00     0.053 C 
HETATM    7  C   UNL     1       6.868   0.222  18.229  1.00  0.00    -0.025 C 
HETATM    8  C   UNL     1       7.504   0.249  18.982  1.00  0.00    -0.007 C 
HETATM    9  C   UNL     1       7.112  -0.467  21.234  1.00  0.00     0.040 A 
ENDROOT
BRANCH   9  10
HETATM   10  C   UNL     1       7.124  -1.725  21.836  1.00  0.00     0.254 C 
HETATM   11  O   UNL     1       8.122  -2.129  22.248  1.00  0.00    -0.268 OA
HETATM   12  N   UNL     1       5.940  -2.251  21.799  1.00  0.00    -0.321 N 
ATOM     13  HN  UNL     1       5.169  -1.732  21.379  1.00  0.00     0.169 HD
BRANCH  12  14
HETATM   14  C   UNL     1       5.733  -3.398  22.276  1.00  0.00     0.056 A 
HETATM   15  C   UNL     1       5.731  -4.643  21.882  1.00  0.00     0.117 A 
HETATM   16  N   UNL     1       5.572  -5.825  21.953  1.00  0.00    -0.373 N 
HETATM   17  C   UNL     1       5.209  -5.850  23.314  1.00  0.00     0.088 A 
ATOM     18  HN  UNL     1       5.667  -6.567  21.260  1.00  0.00     0.164 HD
HETATM   19  C   UNL     1       5.112  -4.862  24.028  1.00  0.00     0.026 A 
HETATM   20  C   UNL     1       5.300  -3.570  23.814  1.00  0.00    -0.033 A 
HETATM   21  C   UNL     1       5.140  -2.374  24.748  1.00  0.00     0.050 C 
ENDBRANCH  12  14
ENDBRANCH   9  10
BRANCH   1  22
HETATM   22  N   UNL     1       9.199   2.758  22.525  1.00  0.00    -0.295 N 
ATOM     23  HN  UNL     1       8.908   3.735  22.558  1.00  0.00     0.177 HD
BRANCH  22  24
HETATM   24  S   UNL     1      10.389   2.320  23.526  1.00  0.00     0.226 S 
HETATM   25  C   UNL     1      11.435   3.723  23.680  1.00  0.00     0.186 C 
HETATM   26  O   UNL     1       9.890   2.006  24.851  1.00  0.00    -0.206 OA
HETATM   27  O   UNL     1      11.169   1.251  22.983  1.00  0.00    -0.206 OA
ENDBRANCH  22  24
ENDBRANCH   1  22
TORSDOF 4
ENDMDL
MODEL 6
REMARK VINA RESULT:    -6.870     14.099     16.355
REMARK INTER + INTRA:          -9.331
REMARK INTER:                  -8.530
REMARK INTRA:                  -0.801
REMARK UNBOUND:                -0.855
REMARK  4 active torsions:
REMARK  status: ('A' for Active; 'I' for Inactive)
REMARK    1  A    between atoms: S_2  and  N_5 
REMARK    2  A    between atoms: N_5  and  C_7 
REMARK    3  A    between atoms: C_15  and  C_16 
REMARK       I    between atoms: C_16  and  N_18 
REMARK    4  A    between atoms: N_18  and  C_20 
ROOT
HETATM    1  C   UNL     1      24.301  -3.661  24.227  1.00  0.00     0.109 C 
HETATM    2  C   UNL     1      23.727  -2.726  23.564  1.00  0.00    -0.008 A 
HETATM    3  C   UNL     1      23.256  -1.560  23.582  1.00  0.00     0.057 A 
HETATM    4  C   UNL     1      21.924  -0.919  24.479  1.00  0.00    -0.007 C 
HETATM    5  C   UNL     1      21.920   0.122  24.825  1.00  0.00    -0.025 C 
HETATM    6  C   UNL     1      22.770   1.135  24.825  1.00  0.00     0.053 C 
HETATM    7  C   UNL     1      24.103   0.688  24.195  1.00  0.00    -0.025 C 
HETATM    8  C   UNL     1      24.359  -0.184  23.812  1.00  0.00    -0.007 C 
HETATM    9  C   UNL     1      23.009  -1.622  22.453  1.00  0.00     0.040 A 
ENDROOT
BRANCH   9  10
HETATM   10  C   UNL     1      22.694  -1.609  21.095  1.00  0.00     0.254 C 
HETATM   11  O   UNL     1      21.612  -1.844  20.777  1.00  0.00    -0.268 OA
HETATM   12  N   UNL     1      23.751  -1.341  20.393  1.00  0.00    -0.321 N 
ATOM     13  HN  UNL     1      24.639  -1.165  20.863  1.00  0.00     0.169 HD
BRANCH  12  14
HETATM   14  C   UNL     1      23.691  -1.297  19.135  1.00  0.00     0.056 A 
HETATM   15  C   UNL     1      23.382  -0.446  18.194  1.00  0.00     0.117 A 
HETATM   16  N   UNL     1      23.164  -0.053  17.087  1.00  0.00    -0.373 N 
HETATM   17  C   UNL     1      23.500  -1.254  16.429  1.00  0.00     0.088 A 
ATOM     18  HN  UNL     1      22.844   0.849  16.736  1.00  0.00     0.164 HD
HETATM   19  C   UNL     1      23.852  -2.280  16.989  1.00  0.00     0.026 A 
HETATM   20  C   UNL     1      24.036  -2.600  18.260  1.00  0.00    -0.033 A 
HETATM   21  C   UNL     1      24.460  -3.917  18.904  1.00  0.00     0.050 C 
ENDBRANCH  12  14
ENDBRANCH   9  10
BRANCH   1  22
HETATM   22  N   UNL     1      24.527  -4.796  24.465  1.00  0.00    -0.295 N 
ATOM     23  HN  UNL     1      25.069  -5.312  23.772  1.00  0.00     0.177 HD
BRANCH  22  24
HETATM   24  S   UNL     1      24.062  -5.611  25.780  1.00  0.00     0.226 S 
HETATM   25  C   UNL     1      25.376  -5.458  26.935  1.00  0.00     0.186 C 
HETATM   26  O   UNL     1      22.882  -5.026  26.387  1.00  0.00    -0.206 OA
HETATM   27  O   UNL     1      23.884  -7.002  25.503  1.00  0.00    -0.206 OA
ENDBRANCH  22  24
ENDBRANCH   1  22
TORSDOF 4
ENDMDL
MODEL 7
REMARK VINA RESULT:    -6.742      3.333      7.366
REMARK INTER + INTRA:          -9.173
REMARK INTER:                  -8.388
REMARK INTRA:                  -0.785
REMARK UNBOUND:                -0.855
REMARK  4 active torsions:
REMARK  status: ('A' for Active; 'I' for Inactive)
REMARK    1  A    between atoms: S_2  and  N_5 
REMARK    2  A    between atoms: N_5  and  C_7 
REMARK    3  A    between atoms: C_15  and  C_16 
REMARK       I    between atoms: C_16  and  N_18 
REMARK    4  A    between atoms: N_18  and  C_20 
ROOT
HETATM    1  C   UNL     1       6.989  -4.478  26.268  1.00  0.00     0.109 C 
HETATM    2  C   UNL     1       7.371  -4.060  25.118  1.00  0.00    -0.008 A 
HETATM    3  C   UNL     1       7.259  -4.164  23.869  1.00  0.00     0.057 A 
HETATM    4  C   UNL     1       7.623  -5.501  22.835  1.00  0.00    -0.007 C 
HETATM    5  C   UNL     1       7.041  -5.689  21.924  1.00  0.00    -0.025 C 
HETATM    6  C   UNL     1       5.964  -5.179  21.352  1.00  0.00     0.053 C 
HETATM    7  C   UNL     1       5.395  -4.053  22.239  1.00  0.00    -0.025 C 
HETATM    8  C   UNL     1       5.728  -3.696  23.096  1.00  0.00    -0.007 C 
HETATM    9  C   UNL     1       8.008  -3.296  23.711  1.00  0.00     0.040 A 
ENDROOT
BRANCH   9  10
HETATM   10  C   UNL     1       8.887  -2.250  23.433  1.00  0.00     0.254 C 
HETATM   11  O   UNL     1       9.991  -2.500  23.219  1.00  0.00    -0.268 OA
HETATM   12  N   UNL     1       8.265  -1.114  23.494  1.00  0.00    -0.321 N 
ATOM     13  HN  UNL     1       7.268  -1.095  23.707  1.00  0.00     0.169 HD
BRANCH  12  14
HETATM   14  C   UNL     1       8.881  -0.034  23.291  1.00  0.00     0.056 A 
HETATM   15  C   UNL     1       9.546   0.862  23.970  1.00  0.00     0.117 A 
HETATM   16  N   UNL     1      10.141   1.878  24.172  1.00  0.00    -0.373 N 
HETATM   17  C   UNL     1      10.138   2.327  22.836  1.00  0.00     0.088 A 
ATOM     18  HN  UNL     1      10.523   2.284  25.026  1.00  0.00     0.164 HD
HETATM   19  C   UNL     1       9.613   1.737  21.904  1.00  0.00     0.026 A 
HETATM   20  C   UNL     1       8.946   0.598  21.815  1.00  0.00    -0.033 A 
HETATM   21  C   UNL     1       8.290  -0.080  20.616  1.00  0.00     0.050 C 
ENDBRANCH  12  14
ENDBRANCH   9  10
BRANCH   1  22
HETATM   22  N   UNL     1       7.161  -4.709  27.414  1.00  0.00    -0.295 N 
ATOM     23  HN  UNL     1       7.932  -4.222  27.871  1.00  0.00     0.177 HD
BRANCH  22  24
HETATM   24  S   UNL     1       6.295  -5.720  28.329  1.00  0.00     0.226 S 
HETATM   25  C   UNL     1       5.222  -6.571  27.229  1.00  0.00     0.186 C 
HETATM   26  O   UNL     1       7.132  -6.715  28.971  1.00  0.00    -0.206 OA
HETATM   27  O   UNL     1       5.484  -5.015  29.272  1.00  0.00    -0.206 OA
ENDBRANCH  22  24
ENDBRANCH   1  22
TORSDOF 4
ENDMDL
MODEL 8
REMARK VINA RESULT:    -6.591      2.788      5.265
REMARK INTER + INTRA:          -8.986
REMARK INTER:                  -8.347
REMARK INTRA:                  -0.640
REMARK UNBOUND:                -0.855
REMARK  4 active torsions:
REMARK  status: ('A' for Active; 'I' for Inactive)
REMARK    1  A    between atoms: S_2  and  N_5 
REMARK    2  A    between atoms: N_5  and  C_7 
REMARK    3  A    between atoms: C_15  and  C_16 
REMARK       I    between atoms: C_16  and  N_18 
REMARK    4  A    between atoms: N_18  and  C_20 
ROOT
HETATM    1  C   UNL     1       8.829  -2.036  23.704  1.00  0.00     0.109 C 
HETATM    2  C   UNL     1       8.147  -2.960  24.274  1.00  0.00    -0.008 A 
HETATM    3  C   UNL     1       7.267  -3.850  24.147  1.00  0.00     0.057 A 
HETATM    4  C   UNL     1       5.594  -3.699  23.739  1.00  0.00    -0.007 C 
HETATM    5  C   UNL     1       5.076  -4.479  23.167  1.00  0.00    -0.025 C 
HETATM    6  C   UNL     1       5.412  -5.602  22.555  1.00  0.00     0.053 C 
HETATM    7  C   UNL     1       6.933  -5.820  22.679  1.00  0.00    -0.025 C 
HETATM    8  C   UNL     1       7.614  -5.272  23.137  1.00  0.00    -0.007 C 
HETATM    9  C   UNL     1       7.402  -4.168  25.251  1.00  0.00     0.040 A 
ENDROOT
BRANCH   9  10
HETATM   10  C   UNL     1       7.514  -4.623  26.565  1.00  0.00     0.254 C 
HETATM   11  O   UNL     1       8.534  -4.536  27.093  1.00  0.00    -0.268 OA
HETATM   12  N   UNL     1       6.383  -5.112  26.967  1.00  0.00    -0.321 N 
ATOM     13  HN  UNL     1       5.578  -5.106  26.341  1.00  0.00     0.169 HD
BRANCH  12  14
HETATM   14  C   UNL     1       6.269  -5.595  28.125  1.00  0.00     0.056 A 
HETATM   15  C   UNL     1       6.675  -6.635  28.803  1.00  0.00     0.117 A 
HETATM   16  N   UNL     1       6.758  -7.391  29.724  1.00  0.00    -0.373 N 
HETATM   17  C   UNL     1       5.946  -6.649  30.605  1.00  0.00     0.088 A 
ATOM     18  HN  UNL     1       7.251  -8.277  29.836  1.00  0.00     0.164 HD
HETATM   19  C   UNL     1       5.391  -5.598  30.322  1.00  0.00     0.026 A 
HETATM   20  C   UNL     1       5.361  -4.856  29.227  1.00  0.00    -0.033 A 
HETATM   21  C   UNL     1       4.626  -3.553  28.926  1.00  0.00     0.050 C 
ENDBRANCH  12  14
ENDBRANCH   9  10
BRANCH   1  22
HETATM   22  N   UNL     1       9.409  -1.007  23.699  1.00  0.00    -0.295 N 
ATOM     23  HN  UNL     1       8.941  -0.214  24.139  1.00  0.00     0.177 HD
BRANCH  22  24
HETATM   24  S   UNL     1      10.868  -0.731  23.065  1.00  0.00     0.226 S 
HETATM   25  C   UNL     1      11.849  -0.084  24.370  1.00  0.00     0.186 C 
HETATM   26  O   UNL     1      11.501  -1.956  22.616  1.00  0.00    -0.206 OA
HETATM   27  O   UNL     1      10.815   0.253  22.029  1.00  0.00    -0.206 OA
ENDBRANCH  22  24
ENDBRANCH   1  22
TORSDOF 4
ENDMDL
MODEL 9
REMARK VINA RESULT:    -6.367      3.343      6.968
REMARK INTER + INTRA:          -8.710
REMARK INTER:                  -7.997
REMARK INTRA:                  -0.714
REMARK UNBOUND:                -0.855
REMARK  4 active torsions:
REMARK  status: ('A' for Active; 'I' for Inactive)
REMARK    1  A    between atoms: S_2  and  N_5 
REMARK    2  A    between atoms: N_5  and  C_7 
REMARK    3  A    between atoms: C_15  and  C_16 
REMARK       I    between atoms: C_16  and  N_18 
REMARK    4  A    between atoms: N_18  and  C_20 
ROOT
HETATM    1  C   UNL     1       7.099  -1.515  23.635  1.00  0.00     0.109 C 
HETATM    2  C   UNL     1       7.914  -0.536  23.489  1.00  0.00    -0.008 A 
HETATM    3  C   UNL     1       9.081  -0.101  23.666  1.00  0.00     0.057 A 
HETATM    4  C   UNL     1       9.940   0.189  25.138  1.00  0.00    -0.007 C 
HETATM    5  C   UNL     1      11.028   0.056  25.196  1.00  0.00    -0.025 C 
HETATM    6  C   UNL     1      11.984  -0.387  24.397  1.00  0.00     0.053 C 
HETATM    7  C   UNL     1      11.365  -0.854  23.065  1.00  0.00    -0.025 C 
HETATM    8  C   UNL     1      10.425  -0.841  22.767  1.00  0.00    -0.007 C 
HETATM    9  C   UNL     1       8.813   0.891  23.135  1.00  0.00     0.040 A 
ENDROOT
BRANCH   9  10
HETATM   10  C   UNL     1       8.576   2.107  22.495  1.00  0.00     0.254 C 
HETATM   11  O   UNL     1       8.801   2.190  21.368  1.00  0.00    -0.268 OA
HETATM   12  N   UNL     1       8.141   2.984  23.346  1.00  0.00    -0.321 N 
ATOM     13  HN  UNL     1       8.010   2.719  24.322  1.00  0.00     0.169 HD
BRANCH  12  14
HETATM   14  C   UNL     1       7.880   4.160  22.978  1.00  0.00     0.056 A 
HETATM   15  C   UNL     1       6.986   4.793  22.265  1.00  0.00     0.117 A 
HETATM   16  N   UNL     1       6.469   5.711  21.705  1.00  0.00    -0.373 N 
HETATM   17  C   UNL     1       7.383   6.692  22.139  1.00  0.00     0.088 A 
ATOM     18  HN  UNL     1       5.641   5.767  21.111  1.00  0.00     0.164 HD
HETATM   19  C   UNL     1       8.358   6.473  22.841  1.00  0.00     0.026 A 
HETATM   20  C   UNL     1       8.848   5.374  23.393  1.00  0.00    -0.033 A 
HETATM   21  C   UNL     1      10.092   5.159  24.249  1.00  0.00     0.050 C 
ENDBRANCH  12  14
ENDBRANCH   9  10
BRANCH   1  22
HETATM   22  N   UNL     1       6.024  -1.973  23.802  1.00  0.00    -0.295 N 
ATOM     23  HN  UNL     1       5.315  -1.352  24.193  1.00  0.00     0.177 HD
BRANCH  22  24
HETATM   24  S   UNL     1       5.563  -3.486  23.472  1.00  0.00     0.226 S 
HETATM   25  C   UNL     1       4.322  -3.882  24.650  1.00  0.00     0.186 C 
HETATM   26  O   UNL     1       4.959  -3.590  22.158  1.00  0.00    -0.206 OA
HETATM   27  O   UNL     1       6.637  -4.414  23.641  1.00  0.00    -0.206 OA
ENDBRANCH  22  24
ENDBRANCH   1  22
TORSDOF 4
ENDMDL
