stable:False satoms:13 tatoms:24 sratio:0.5416666666666666
  -OEChem-07092417393D

 24 23  0     1  0  0  0  0  0999 V2000
    6.7216   -4.5858   26.4731 H   0  3  0  0  0  0  0  0  0  0  0  0
    8.0295   -4.2677   26.1064 N   0  0  0  0  0  0  0  0  0  0  0  0
    8.9123   -5.0959   26.4663 O   0  0  0  0  0  0  0  0  0  0  0  0
    8.7027   -3.8324   27.1224 O   0  0  0  0  0  0  0  0  0  0  0  0
    7.8998   -3.5882   24.8542 N   0  0  0  0  0  0  0  0  0  0  0  0
    9.0164   -3.1747   24.3672 N   0  0  0  0  0  0  0  0  0  0  0  0
    9.1746   -2.2791   23.6005 C   0  0  0  0  0  0  0  0  0  0  0  0
   10.5583   -0.9036   22.8847 C   0  0  0  0  0  0  0  0  0  0  0  0
   10.7565    0.0216   23.4364 H   0  0  0  0  0  0  0  0  0  0  0  0
   12.6841    0.4350   24.0345 H   0  0  0  0  0  0  0  0  0  0  0  0
   12.9914   -0.1794   23.3379 C   0  5  0  0  0  0  0  0  0  0  0  0
   12.8035   -0.9581   22.6035 C   0  0  0  0  0  0  0  0  0  0  0  0
   11.7289   -1.7635   22.2014 S   0  0  0  0  0  0  0  0  0  0  0  0
    9.3416   -1.2610   22.7924 C   0  0  0  0  0  0  0  0  0  0  0  0
    8.5032    0.1667   21.1845 C   0  0  0  0  0  0  0  0  0  0  0  0
    9.4283    0.9375   21.0819 O   0  0  0  0  0  0  0  0  0  0  0  0
    8.2478   -0.7722   21.9968 N   0  0  0  0  0  0  0  0  0  0  0  0
    7.2883    0.2868   20.2115 C   0  0  3  0  0  0  0  0  0  0  0  0
    7.4207    0.2637   18.8644 C   0  0  0  0  0  0  0  0  0  0  0  0
    7.3497    0.3226   17.7389 N   0  0  0  0  0  0  0  0  0  0  0  0
    5.2051    1.1211   18.4632 H   0  0  0  0  0  0  0  0  0  0  0  0
    5.3629    0.8889   19.4743 C   0  5  0  0  0  0  0  0  0  0  0  0
    5.9615    0.5234   20.5187 C   0  0  0  0  0  0  0  0  0  0  0  0
    5.4952    0.4044   21.4815 H   0  0  0  0  0  0  0  0  0  0  0  0
 19 20  3  0  0  0  0
 21 22  1  0  0  0  0
 18 19  1  0  0  0  0
 22 23  2  0  0  0  0
 18 23  1  0  0  0  0
 15 18  1  0  0  0  0
 23 24  1  0  0  0  0
 15 16  2  0  0  0  0
 15 17  1  0  0  0  0
 14 17  1  0  0  0  0
 12 13  1  0  0  0  0
  8 13  1  0  0  0  0
 11 12  2  0  0  0  0
  8 14  2  3  0  0  0
  7 14  1  0  0  0  0
  8  9  1  0  0  0  0
 10 11  1  0  0  0  0
  6  7  1  0  0  0  0
  5  6  2  0  0  0  0
  2  5  1  0  0  0  0
  2  3  1  0  0  0  0
  2  4  1  0  0  0  0
  3  4  1  0  0  0  0
M  CHG  3   1   1  11  -1  22  -1
M  END
> <Shapegauss>
-213.443604

$$$$
