stable:False satoms:6 tatoms:24 sratio:0.25
  -OEChem-08062412123D

 32 34  0     1  0  0  0  0  0999 V2000
   -6.3885   -5.4233  -26.2768 Cl  0  0  0  0  0  0  0  0  0  0  0  0
   -8.1338   -4.6976  -25.9523 S   0  0  0  0  0  0  0  0  0  0  0  0
   -9.0197   -5.8157  -25.9258 O   0  0  0  0  0  0  0  0  0  0  0  0
   -8.3827   -3.7451  -26.9849 O   0  0  0  0  0  0  0  0  0  0  0  0
   -8.0152   -3.9704  -24.5025 N   0  0  0  0  0  0  0  0  0  0  0  0
   -8.6766   -3.1031  -24.0827 C   0  0  0  0  0  0  0  0  0  0  0  0
   -9.0850   -2.1366  -23.5033 C   0  0  0  0  0  0  0  0  0  0  0  0
  -10.5710   -1.0507  -23.3955 C   0  0  0  0  0  0  0  0  0  0  0  0
  -10.9046   -0.1769  -24.4847 N   0  0  0  0  0  0  0  0  0  0  0  0
  -11.9675    0.0418  -24.5330 C   0  0  0  0  0  0  0  0  0  0  0  0
  -12.8957   -0.4258  -23.9360 C   0  0  0  0  0  0  0  0  0  0  0  0
  -12.7804   -1.4295  -23.0747 C   0  0  0  0  0  0  0  0  0  0  0  0
  -11.7295   -1.6464  -22.9634 C   0  0  0  0  0  0  0  0  0  0  0  0
   -9.4439   -1.1071  -22.8009 C   0  0  3  0  0  0  0  0  0  0  0  0
   -8.8218   -0.1623  -21.6678 C   0  0  0  0  0  0  0  0  0  0  0  0
   -9.3397    0.8760  -21.3354 O   0  0  0  0  0  0  0  0  0  0  0  0
   -7.7414   -0.7124  -21.2824 N   0  0  0  0  0  0  0  0  0  0  0  0
   -7.0483   -0.1912  -20.3179 C   0  0  0  0  0  0  0  0  0  0  0  0
   -7.1249    0.0266  -19.0134 C   0  0  0  0  0  0  0  0  0  0  0  0
   -6.8082    0.3195  -17.8550 N   0  0  0  0  0  0  0  0  0  0  0  0
   -5.6906    0.7497  -18.3533 C   0  0  0  0  0  0  0  0  0  0  0  0
   -5.1752    0.7488  -19.4231 C   0  0  0  0  0  0  0  0  0  0  0  0
   -5.6241    0.2907  -20.5642 C   0  0  0  0  0  0  0  0  0  0  0  0
   -4.8497    0.2465  -21.9709 Cl  0  0  0  0  0  0  0  0  0  0  0  0
   -7.0806   -3.6161  -24.4710 H   0  0  0  0  0  0  0  0  0  0  0  0
  -12.2337    0.8132  -25.2405 H   0  0  0  0  0  0  0  0  0  0  0  0
  -13.8771   -0.0088  -24.1077 H   0  0  0  0  0  0  0  0  0  0  0  0
  -13.5924   -1.9373  -22.5754 H   0  0  0  0  0  0  0  0  0  0  0  0
  -11.5474   -2.5356  -22.3781 H   0  0  0  0  0  0  0  0  0  0  0  0
   -9.8700   -1.7666  -22.0305 H   0  0  0  0  0  0  0  0  0  0  0  0
   -7.4247   -1.5511  -21.7254 H   0  0  0  0  0  0  0  0  0  0  0  0
   -4.1907    1.1912  -19.4601 H   0  0  0  0  0  0  0  0  0  0  0  0
 20 21  2  0  0  0  0
 19 20  1  0  0  0  0
 19 21  1  0  0  0  0
 21 22  1  0  0  0  0
 18 19  2  0  0  0  0
 22 23  2  0  0  0  0
 18 23  1  0  0  0  0
 17 18  1  0  0  0  0
 23 24  1  0  0  0  0
 15 16  2  0  0  0  0
 15 17  1  0  0  0  0
 14 15  1  0  0  0  0
  8 14  1  0  0  0  0
  7 14  1  0  0  0  0
 12 13  2  0  0  0  0
  8 13  1  0  0  0  0
 11 12  1  0  0  0  0
  8  9  2  0  0  0  0
  6  7  3  0  0  0  0
 10 11  2  0  0  0  0
  5  6  1  0  0  0  0
  9 10  1  0  0  0  0
  2  5  1  0  0  0  0
  2  3  2  0  0  0  0
  1  2  1  0  0  0  0
  2  4  2  0  0  0  0
  5 25  1  0  0  0  0
 10 26  1  0  0  0  0
 11 27  1  0  0  0  0
 12 28  1  0  0  0  0
 13 29  1  0  0  0  0
 14 30  1  0  0  0  0
 17 31  1  0  0  0  0
 22 32  1  0  0  0  0
M  END
> <Chemgauss4>
-8.622558

$$$$
