stable:False satoms:6 tatoms:24 sratio:0.25
  -OEChem-08062412123D

 32 34  0     1  0  0  0  0  0999 V2000
    6.7767   -5.4513   26.3146 Cl  0  0  0  0  0  0  0  0  0  0  0  0
    8.5220   -4.7255   25.9900 S   0  0  0  0  0  0  0  0  0  0  0  0
    9.4079   -5.8436   25.9635 O   0  0  0  0  0  0  0  0  0  0  0  0
    8.7710   -3.7731   27.0227 O   0  0  0  0  0  0  0  0  0  0  0  0
    8.4034   -3.9984   24.5403 N   0  0  0  0  0  0  0  0  0  0  0  0
    9.0649   -3.1311   24.1205 C   0  0  0  0  0  0  0  0  0  0  0  0
    9.4732   -2.1646   23.5411 C   0  0  0  0  0  0  0  0  0  0  0  0
   10.9592   -1.0786   23.4332 C   0  0  0  0  0  0  0  0  0  0  0  0
   11.2929   -0.2048   24.5225 N   0  0  0  0  0  0  0  0  0  0  0  0
   12.3558    0.0139   24.5708 C   0  0  0  0  0  0  0  0  0  0  0  0
   13.2840   -0.4537   23.9738 C   0  0  0  0  0  0  0  0  0  0  0  0
   13.1687   -1.4575   23.1124 C   0  0  0  0  0  0  0  0  0  0  0  0
   12.1177   -1.6744   23.0011 C   0  0  0  0  0  0  0  0  0  0  0  0
    9.8322   -1.1351   22.8387 C   0  0  3  0  0  0  0  0  0  0  0  0
    9.2101   -0.1903   21.7056 C   0  0  0  0  0  0  0  0  0  0  0  0
    9.7279    0.8480   21.3732 O   0  0  0  0  0  0  0  0  0  0  0  0
    8.1296   -0.7404   21.3201 N   0  0  0  0  0  0  0  0  0  0  0  0
    7.4366   -0.2191   20.3556 C   0  0  0  0  0  0  0  0  0  0  0  0
    7.5132   -0.0014   19.0512 C   0  0  0  0  0  0  0  0  0  0  0  0
    7.1965    0.2915   17.8928 N   0  0  0  0  0  0  0  0  0  0  0  0
    6.0788    0.7217   18.3910 C   0  0  0  0  0  0  0  0  0  0  0  0
    5.5635    0.7208   19.4609 C   0  0  0  0  0  0  0  0  0  0  0  0
    6.0124    0.2627   20.6020 C   0  0  0  0  0  0  0  0  0  0  0  0
    5.2379    0.2186   22.0087 Cl  0  0  0  0  0  0  0  0  0  0  0  0
    7.4688   -3.6440   24.5088 H   0  0  0  0  0  0  0  0  0  0  0  0
   12.6219    0.7852   25.2783 H   0  0  0  0  0  0  0  0  0  0  0  0
   14.2653   -0.0368   24.1454 H   0  0  0  0  0  0  0  0  0  0  0  0
   13.9806   -1.9653   22.6132 H   0  0  0  0  0  0  0  0  0  0  0  0
   11.9356   -2.5636   22.4158 H   0  0  0  0  0  0  0  0  0  0  0  0
   10.2582   -1.7946   22.0682 H   0  0  0  0  0  0  0  0  0  0  0  0
    7.8130   -1.5791   21.7631 H   0  0  0  0  0  0  0  0  0  0  0  0
    4.5790    1.1633   19.4978 H   0  0  0  0  0  0  0  0  0  0  0  0
 20 21  2  0  0  0  0
 19 20  1  0  0  0  0
 19 21  1  0  0  0  0
 21 22  1  0  0  0  0
 18 19  2  0  0  0  0
 22 23  2  0  0  0  0
 18 23  1  0  0  0  0
 17 18  1  0  0  0  0
 23 24  1  0  0  0  0
 15 16  2  0  0  0  0
 15 17  1  0  0  0  0
 14 15  1  0  0  0  0
  8 14  1  0  0  0  0
  7 14  1  0  0  0  0
 12 13  2  0  0  0  0
  8 13  1  0  0  0  0
 11 12  1  0  0  0  0
  8  9  2  0  0  0  0
  6  7  3  0  0  0  0
 10 11  2  0  0  0  0
  5  6  1  0  0  0  0
  9 10  1  0  0  0  0
  2  5  1  0  0  0  0
  2  3  2  0  0  0  0
  1  2  1  0  0  0  0
  2  4  2  0  0  0  0
  5 25  1  0  0  0  0
 10 26  1  0  0  0  0
 11 27  1  0  0  0  0
 12 28  1  0  0  0  0
 13 29  1  0  0  0  0
 14 30  1  0  0  0  0
 17 31  1  0  0  0  0
 22 32  1  0  0  0  0
M  END
> <Chemgauss4>
-8.474051

$$$$
