stable:False satoms:21 tatoms:24 sratio:0.875
  -OEChem-07092417303D

 24 21  0     0  0  0  0  0  0999 V2000
    7.1540   -2.7672   23.7277 C   0  0  0  0  0  0  0  0  0  0  0  0
    8.5825   -2.1230   25.1642 H   0  0  0  0  0  0  0  0  0  0  0  0
    8.3451   -3.0240   24.6278 C   0  0  0  0  0  0  0  0  0  0  0  0
    8.1499   -3.7961   25.3598 H   0  0  0  0  0  0  0  0  0  0  0  0
    6.2714   -2.6051   24.3079 H   0  0  0  0  0  0  0  0  0  0  0  0
    9.1788   -3.2915   24.0013 H   0  0  0  0  0  0  0  0  0  0  0  0
   10.4635   -0.8965   21.3656 C   0  0  0  0  0  0  0  0  0  0  0  0
   11.1410   -0.3578   20.6946 H   0  0  0  0  0  0  0  0  0  0  0  0
   12.6274   -0.1235   22.0515 H   0  0  0  0  0  0  0  0  0  0  0  0
    9.4863   -0.7507   23.2818 H   0  0  0  0  0  0  0  0  0  0  0  0
   11.0692   -0.0294   23.2924 H   0  0  0  0  0  0  0  0  0  0  0  0
   12.5474    0.7522   21.9086 O   0  5  0  0  0  0  0  0  0  0  0  0
    7.0915   -3.5224   22.9826 H   0  0  0  0  0  0  0  0  0  0  0  0
    9.7821    0.7741   22.4531 H   0  0  0  0  0  0  0  0  0  0  0  0
    5.1702   -1.2294   22.2871 O   0  0  0  0  0  0  0  0  0  0  0  0
   10.9390   -1.8334   21.5417 H   0  0  0  0  0  0  0  0  0  0  0  0
   10.1862   -0.1926   22.6822 C   0  0  0  0  0  0  0  0  0  0  0  0
    9.2179   -0.8408   20.5521 C   0  0  0  0  0  0  0  0  0  0  0  0
    8.4231   -0.6405   19.8434 N   0  0  0  0  0  0  0  0  0  0  0  0
    6.2909    0.3159   20.6411 H   0  0  0  0  0  0  0  0  0  0  0  0
    7.3573    0.8943   21.7833 H   0  0  0  0  0  0  0  0  0  0  0  0
    7.2539   -1.4978   22.8673 O   0  0  0  0  0  0  0  0  0  0  0  0
    6.5693    0.3363   21.6030 N   0  0  0  0  0  0  0  0  0  0  0  0
    6.2862   -0.8415   22.2765 C   0  0  0  0  0  0  0  0  0  0  0  0
 18 19  3  0  0  0  0
  7 18  1  0  0  0  0
 20 23  1  0  0  0  0
  7  8  1  0  0  0  0
  7 16  1  0  0  0  0
  7 17  1  0  0  0  0
 21 23  1  0  0  0  0
 23 24  1  0  0  0  0
  9 12  1  0  0  0  0
 15 24  2  0  0  0  0
 22 24  1  0  0  0  0
 14 17  1  0  0  0  0
 10 17  1  0  0  0  0
 11 17  1  0  0  0  0
  1 22  1  0  0  0  0
  1 13  1  0  0  0  0
  1  5  1  0  0  0  0
  1  3  1  0  0  0  0
  3  6  1  0  0  0  0
  2  3  1  0  0  0  0
  3  4  1  0  0  0  0
M  CHG  1  12  -1
M  END
> <Shapegauss>
-76.878403

$$$$
