REMARK  0 active torsions:
REMARK  status: ('A' for Active; 'I' for Inactive)
ROOT
HETATM    1  N   UNL     1      11.567  -0.077  23.483  1.00  0.00    -0.384 N 
HETATM    2  C   UNL     1       7.517  -2.553  24.101  1.00  0.00     0.001 C 
HETATM    3  C   UNL     1       6.898  -1.315  24.035  1.00  0.00     0.000 C 
HETATM    4  C   UNL     1      10.290  -0.364  23.209  1.00  0.00     0.128 C 
HETATM    5  N   UNL     1       8.921   0.526  20.709  1.00  0.00    -0.294 N 
ATOM      6  HN  UNL     1       9.560   1.073  20.131  1.00  0.00     0.187 HD
HETATM    7  O   UNL     1       6.831  -1.991  19.403  1.00  0.00    -0.287 OA
HETATM    8  C   UNL     1       9.886  -1.835  23.342  1.00  0.00     0.046 C 
HETATM    9  N   UNL     1       9.587   0.665  22.890  1.00  0.00    -0.271 N 
ATOM     10  HN  UNL     1       9.512   1.343  23.648  1.00  0.00     0.190 HD
HETATM   11  C   UNL     1       6.918  -0.588  22.855  1.00  0.00     0.004 C 
HETATM   12  C   UNL     1       6.688  -1.203  21.624  1.00  0.00     0.056 C 
HETATM   13  O   UNL     1      11.813  -3.131  22.782  1.00  0.00    -0.301 OA
HETATM   14  C   UNL     1       8.437  -0.362  19.956  1.00  0.00     0.163 C 
HETATM   15  C   UNL     1      10.931  -2.502  23.088  1.00  0.00     0.273 C 
HETATM   16  C   UNL     1       7.293  -1.251  20.251  1.00  0.00     0.188 C 
HETATM   17  C   UNL     1       8.837  -2.752  23.695  1.00  0.00     0.018 C 
HETATM   18  N   UNL     1       8.963   1.027  21.840  1.00  0.00    -0.241 N 
ATOM     19  HN  UNL     1       8.403   1.873  21.950  1.00  0.00     0.208 HD
HETATM   20  H   UNL     1      11.914   0.785  23.111  1.00  0.00     0.157 HD
HETATM   21  H   UNL     1      11.963  -0.403  24.361  1.00  0.00     0.157 HD
ENDROOT
TORSDOF 0
