stable:False satoms:10 tatoms:24 sratio:0.4166666666666667
  -OEChem-07092417413D

 24 24  0     0  0  0  0  0  0999 V2000
    6.7897   -4.8347   26.3686 O   0  0  0  0  0  0  0  0  0  0  0  0
    8.2309   -4.3886   26.1747 S   0  0  0  0  0  0  0  0  0  0  0  0
    9.0961   -5.5330   26.0916 O   0  0  0  0  0  0  0  0  0  0  0  0
    8.6031   -3.4721   27.2060 O   0  5  0  0  0  0  0  0  0  0  0  0
    8.2233   -3.6560   24.7345 N   0  0  0  0  0  0  0  0  0  0  0  0
    8.9685   -2.9303   24.2326 C   0  0  0  0  0  0  0  0  0  0  0  0
    9.4389   -2.0628   23.7326 C   0  0  0  0  0  0  0  0  0  0  0  0
   10.1629   -1.0095   23.4298 C   0  0  0  0  0  0  0  0  0  0  0  0
   11.2607   -0.2973   24.2088 C   0  0  0  0  0  0  0  0  0  0  0  0
   12.3754   -0.1713   23.8788 C   0  0  0  0  0  0  0  0  0  0  0  0
   13.2261    0.2973   23.9958 H   0  0  0  0  0  0  0  0  0  0  0  0
   12.5248   -1.1982   22.7795 C   0  0  0  0  0  2  0  0  0  0  0  0
   12.1068   -1.8140   22.2208 H   0  0  0  0  0  0  0  0  0  0  0  0
    9.7209   -0.5512   22.4165 C   0  0  0  0  0  0  0  0  0  0  0  0
    9.0469    0.0755   21.4341 C   0  0  0  0  0  0  0  0  0  0  0  0
    9.4916    1.0361   20.9787 O   0  0  0  0  0  0  0  0  0  0  0  0
    7.8412   -0.4986   21.1752 N   0  0  0  0  0  0  0  0  0  0  0  0
    7.1678    0.0262   20.1897 C   0  0  0  0  0  0  0  0  0  0  0  0
    7.7753    0.0023   18.6457 S   0  0  0  0  0  0  0  0  0  0  0  0
    6.3132    0.3827   17.9293 N   0  0  0  0  0  0  0  0  0  0  0  0
    5.4960    0.7817   18.8061 C   0  3  0  0  0  0  0  0  0  0  0  0
    4.5448    1.1926   18.8070 H   0  0  0  0  0  0  0  0  0  0  0  0
    5.9188    0.5563   20.3383 C   0  0  0  0  0  0  0  0  0  0  0  0
    5.2604    0.7768   21.5220 Cl  0  0  0  0  0  0  0  0  0  0  0  0
 19 20  1  0  0  0  0
 20 21  1  0  0  0  0
 18 19  1  0  0  0  0
 21 22  1  0  0  0  0
 21 23  1  0  0  0  0
 18 23  2  0  0  0  0
 17 18  1  0  0  0  0
 23 24  1  0  0  0  0
 15 16  2  0  0  0  0
 15 17  1  0  0  0  0
 14 15  1  0  0  0  0
 12 13  1  0  0  0  0
  8 14  2  3  0  0  0
 10 12  1  0  0  0  0
  7  8  1  0  0  0  0
  8  9  1  0  0  0  0
  6  7  3  0  0  0  0
 10 11  1  0  0  0  0
  9 10  2  0  0  0  0
  5  6  1  0  0  0  0
  2  5  1  0  0  0  0
  2  3  2  0  0  0  0
  1  2  2  0  0  0  0
  2  4  1  0  0  0  0
M  CHG  2   4  -1  21   1
M  END
> <Shapegauss>
-254.438141

$$$$
