stable:False satoms:10 tatoms:24 sratio:0.4166666666666667
  -OEChem-08062409303D

 29 29  0     0  0  0  0  0  0999 V2000
    5.8926   -3.8492   26.9627 O   0  0  0  0  0  0  0  0  0  0  0  0
    7.2548   -4.0450   26.3149 S   0  0  0  0  0  0  0  0  0  0  0  0
    7.4853   -5.4403   26.0595 O   0  0  0  0  0  0  0  0  0  0  0  0
    8.2708   -3.4419   27.1187 O   0  5  0  0  0  0  0  0  0  0  0  0
    7.1249   -3.2866   24.8940 N   0  0  0  0  0  0  0  0  0  0  0  0
    7.9179   -2.9146   24.1411 C   0  0  0  0  0  0  0  0  0  0  0  0
    8.5364   -2.2981   23.4621 C   0  0  0  0  0  0  0  0  0  0  0  0
    9.5097   -1.6341   22.8814 C   0  0  0  0  0  0  0  0  0  0  0  0
   10.9836   -1.5070   23.2428 C   0  0  0  0  0  0  0  0  0  0  0  0
   11.8905   -1.8446   22.5863 C   0  0  0  0  0  0  0  0  0  0  0  0
   12.8510   -1.7897   22.4093 H   0  0  0  0  0  0  0  0  0  0  0  0
   11.2531   -2.7642   21.5697 C   0  0  0  0  0  2  0  0  0  0  0  0
   10.4673   -3.1069   21.2076 H   0  0  0  0  0  0  0  0  0  0  0  0
    9.0209   -0.9669   22.0165 C   0  0  0  0  0  0  0  0  0  0  0  0
    8.4144   -0.0513   21.2382 C   0  0  0  0  0  0  0  0  0  0  0  0
    9.0638    0.6573   20.6025 O   0  0  0  0  0  0  0  0  0  0  0  0
    7.0631   -0.0416   21.3939 N   0  0  0  0  0  0  0  0  0  0  0  0
    6.4130    0.7819   20.6198 C   0  0  0  0  0  0  0  0  0  0  0  0
    6.4577    0.6028   18.9708 S   0  0  0  0  0  0  0  0  0  0  0  0
    5.1534    1.6131   18.6991 N   0  0  0  0  0  0  0  0  0  0  0  0
    4.8874    2.2632   19.7490 C   0  3  0  0  0  0  0  0  0  0  0  0
    4.2484    3.0377   20.0048 H   0  0  0  0  0  0  0  0  0  0  0  0
    5.6144    1.7809   21.0966 C   0  0  0  0  0  0  0  0  0  0  0  0
    5.5009    2.1825   22.4040 Cl  0  0  0  0  0  0  0  0  0  0  0  0
    6.6055   -2.4611   25.1150 H   0  0  0  0  0  0  0  0  0  0  0  0
   11.2139   -1.0613   24.1993 H   0  0  0  0  0  0  0  0  0  0  0  0
    9.2553   -1.6491   21.2127 H   0  0  0  0  0  0  0  0  0  0  0  0
    6.5989   -0.6275   22.0582 H   0  0  0  0  0  0  0  0  0  0  0  0
    4.6576    1.6910   17.8341 H   0  0  0  0  0  0  0  0  0  0  0  0
 19 20  1  0  0  0  0
 20 21  1  0  0  0  0
 18 19  1  0  0  0  0
 21 22  1  0  0  0  0
 21 23  1  0  0  0  0
 18 23  2  0  0  0  0
 17 18  1  0  0  0  0
 23 24  1  0  0  0  0
 15 16  2  0  0  0  0
 15 17  1  0  0  0  0
 14 15  1  0  0  0  0
 12 13  1  0  0  0  0
  8 14  2  3  0  0  0
 10 12  1  0  0  0  0
  7  8  1  0  0  0  0
  8  9  1  0  0  0  0
  6  7  3  0  0  0  0
 10 11  1  0  0  0  0
  9 10  2  0  0  0  0
  5  6  1  0  0  0  0
  2  5  1  0  0  0  0
  2  3  2  0  0  0  0
  1  2  2  0  0  0  0
  2  4  1  0  0  0  0
  5 25  1  0  0  0  0
  9 26  1  0  0  0  0
 14 27  1  0  0  0  0
 17 28  1  0  0  0  0
 20 29  1  0  0  0  0
M  CHG  2   4  -1  21   1
M  END
> <Chemgauss4>
-6.499934

$$$$
