stable:False satoms:10 tatoms:24 sratio:0.4166666666666667
  -OEChem-08062409303D

 29 29  0     0  0  0  0  0  0999 V2000
   -6.3163    2.2237  -18.2374 O   0  0  0  0  0  0  0  0  0  0  0  0
   -5.7737    0.8730  -18.6787 S   0  0  0  0  0  0  0  0  0  0  0  0
   -5.4530    0.0697  -17.5311 O   0  0  0  0  0  0  0  0  0  0  0  0
   -4.6697    1.0551  -19.5676 O   0  5  0  0  0  0  0  0  0  0  0  0
   -7.0174    0.1834  -19.4459 N   0  0  0  0  0  0  0  0  0  0  0  0
   -7.0756   -0.7074  -20.1786 C   0  0  0  0  0  0  0  0  0  0  0  0
   -7.2624   -1.3564  -21.0549 C   0  0  0  0  0  0  0  0  0  0  0  0
   -7.1491   -2.1298  -22.1105 C   0  0  0  0  0  0  0  0  0  0  0  0
   -5.9174   -2.7056  -22.7965 C   0  0  0  0  0  0  0  0  0  0  0  0
   -5.6603   -3.8392  -22.9232 C   0  0  0  0  0  0  0  0  0  0  0  0
   -5.1329   -4.5227  -23.3834 H   0  0  0  0  0  0  0  0  0  0  0  0
   -6.5725   -4.5108  -21.9222 C   0  0  0  0  0  2  0  0  0  0  0  0
   -7.2787   -4.4212  -21.3228 H   0  0  0  0  0  0  0  0  0  0  0  0
   -8.2380   -2.2338  -22.5959 C   0  0  0  0  0  0  0  0  0  0  0  0
   -9.4087   -2.1191  -23.2505 C   0  0  0  0  0  0  0  0  0  0  0  0
   -9.5668   -2.7234  -24.2189 O   0  0  0  0  0  0  0  0  0  0  0  0
  -10.2353   -1.1952  -22.6906 N   0  0  0  0  0  0  0  0  0  0  0  0
  -11.4109   -1.0832  -23.2434 C   0  0  0  0  0  0  0  0  0  0  0  0
  -12.4643   -2.3652  -23.2528 S   0  0  0  0  0  0  0  0  0  0  0  0
  -13.7921   -1.4341  -23.6599 N   0  0  0  0  0  0  0  0  0  0  0  0
  -13.4142   -0.2911  -24.0429 C   0  3  0  0  0  0  0  0  0  0  0  0
  -13.8663    0.5428  -24.4598 H   0  0  0  0  0  0  0  0  0  0  0  0
  -11.8759    0.0835  -23.7779 C   0  0  0  0  0  0  0  0  0  0  0  0
  -11.1571    1.2360  -23.9740 Cl  0  0  0  0  0  0  0  0  0  0  0  0
   -7.4231    0.9383  -19.9612 H   0  0  0  0  0  0  0  0  0  0  0  0
   -5.2124   -1.9975  -23.2062 H   0  0  0  0  0  0  0  0  0  0  0  0
   -8.4616   -3.1908  -22.1479 H   0  0  0  0  0  0  0  0  0  0  0  0
   -9.9596   -0.6387  -21.9069 H   0  0  0  0  0  0  0  0  0  0  0  0
  -14.7437   -1.7369  -23.6079 H   0  0  0  0  0  0  0  0  0  0  0  0
 19 20  1  0  0  0  0
 20 21  1  0  0  0  0
 18 19  1  0  0  0  0
 21 22  1  0  0  0  0
 21 23  1  0  0  0  0
 18 23  2  0  0  0  0
 17 18  1  0  0  0  0
 23 24  1  0  0  0  0
 15 16  2  0  0  0  0
 15 17  1  0  0  0  0
 14 15  1  0  0  0  0
 12 13  1  0  0  0  0
  8 14  2  3  0  0  0
 10 12  1  0  0  0  0
  7  8  1  0  0  0  0
  8  9  1  0  0  0  0
  6  7  3  0  0  0  0
 10 11  1  0  0  0  0
  9 10  2  0  0  0  0
  5  6  1  0  0  0  0
  2  5  1  0  0  0  0
  2  3  2  0  0  0  0
  1  2  2  0  0  0  0
  2  4  1  0  0  0  0
  5 25  1  0  0  0  0
  9 26  1  0  0  0  0
 14 27  1  0  0  0  0
 17 28  1  0  0  0  0
 20 29  1  0  0  0  0
M  CHG  2   4  -1  21   1
M  END
> <Chemgauss4>
-6.268737

$$$$
