stable:False satoms:16 tatoms:24 sratio:0.6666666666666666
  -OEChem-07092417373D

 24 24  0     1  0  0  0  0  0999 V2000
    7.0095   -4.5404   25.9857 O   0  0  0  0  0  0  0  0  0  0  0  0
    7.8968   -3.7741   25.5711 C   0  0  0  0  0  0  0  0  0  0  0  0
    8.9731   -3.9009   27.0904 H   0  0  0  0  0  0  0  0  0  0  0  0
    8.7841   -3.1610   26.4981 O   0  0  0  0  0  0  0  0  0  0  0  0
    7.8070   -3.6317   23.9689 O   0  0  0  0  0  0  0  0  0  0  0  0
    8.5735   -2.8306   24.2569 C   0  0  3  0  0  0  0  0  0  0  0  0
    9.3966   -1.8670   24.1816 C   0  0  0  0  0  0  0  0  0  0  0  0
   11.1148   -0.4570   23.3158 C   0  0  0  0  0  0  0  0  0  0  0  0
   10.2891   -0.9326   24.3098 C   0  0  0  0  0  0  0  0  0  0  0  0
   10.4115   -0.4906   25.2758 H   0  0  0  0  0  0  0  0  0  0  0  0
   11.9829    0.0956   23.6317 H   0  0  0  0  0  0  0  0  0  0  0  0
   10.7690   -2.0928   20.5939 H   0  0  0  0  0  0  0  0  0  0  0  0
   10.2309   -1.4120   21.2087 C   0  0  0  0  0  0  0  0  0  0  0  0
   11.6840   -0.0637   21.3686 H   0  0  0  0  0  0  0  0  0  0  0  0
   10.9616   -0.6038   21.9426 C   0  0  0  0  0  0  0  0  0  0  0  0
    7.9634    0.1110   21.1888 C   0  3  0  0  0  0  0  0  0  0  0  0
    8.4750   -1.4491   20.9298 S   0  0  0  0  0  0  0  0  0  0  0  0
    8.5082    0.8728   21.6576 H   0  0  0  0  0  0  0  0  0  0  0  0
    6.5850   -0.6375   18.9746 H   0  0  0  0  0  0  0  0  0  0  0  0
    7.4584    0.8394   18.8346 H   0  0  0  0  0  0  0  0  0  0  0  0
    5.7029    0.9032   18.8797 H   0  0  0  0  0  0  0  0  0  0  0  0
    6.5636    0.4003   19.2785 C   0  0  0  0  0  0  0  0  0  0  0  0
    6.6385    0.4904   20.7762 C   0  0  0  0  0  0  0  0  0  0  0  0
    5.8048    0.8420   21.5775 O   0  0  0  0  0  0  0  0  0  0  0  0
 20 22  1  0  0  0  0
 21 22  1  0  0  0  0
 19 22  1  0  0  0  0
 22 23  1  0  0  0  0
 12 13  1  0  0  0  0
 16 23  1  0  0  0  0
 23 24  2  0  0  0  0
 16 17  1  0  0  0  0
 13 17  1  0  0  0  0
 16 18  1  0  0  0  0
 13 15  2  3  0  0  0
 14 15  1  0  0  0  0
  8 15  1  0  0  0  0
  8 11  1  0  0  0  0
  8  9  2  0  0  0  0
  5  6  1  0  0  0  0
  2  5  1  0  0  0  0
  6  7  1  0  0  0  0
  7  9  1  0  0  0  0
  2  6  1  0  0  0  0
  9 10  1  0  0  0  0
  1  2  1  0  0  0  0
  2  4  1  0  0  0  0
  3  4  1  0  0  0  0
M  CHG  1  16   1
M  END
> <Shapegauss>
-152.643967

$$$$
