MODEL 1
REMARK VINA RESULT:    -4.846      0.000      0.000
REMARK INTER + INTRA:          -7.024
REMARK INTER:                  -6.687
REMARK INTRA:                  -0.337
REMARK UNBOUND:                -0.337
REMARK  7 active torsions:
REMARK  status: ('A' for Active; 'I' for Inactive)
REMARK    1  A    between atoms: C_2  and  O_4 
REMARK    2  A    between atoms: C_6  and  C_7 
REMARK    3  A    between atoms: C_7  and  C_9 
REMARK    4  A    between atoms: C_8  and  C_11 
REMARK    5  A    between atoms: C_10  and  S_13 
REMARK    6  A    between atoms: C_12  and  C_15 
REMARK    7  A    between atoms: C_12  and  S_13 
ROOT
HETATM    1  C   UNL     1       7.793  -3.491  23.112  1.00  0.00     0.009 C 
HETATM    2  C   UNL     1       7.842  -4.722  23.727  1.00  0.00     0.059 C 
ENDROOT
BRANCH   1   3
HETATM    3  C   UNL     1       8.312  -2.289  23.577  1.00  0.00     0.008 C 
HETATM    4  C   UNL     1       9.530  -1.905  23.886  1.00  0.00     0.049 C 
BRANCH   4   5
HETATM    5  S   UNL     1      10.933  -1.563  22.848  1.00  0.00    -0.110 SA
BRANCH   5   6
HETATM    6  C   UNL     1      11.048   0.095  22.809  1.00  0.00     0.099 C 
BRANCH   6   7
HETATM    7  C   UNL     1      11.601   0.784  23.944  1.00  0.00     0.151 C 
HETATM    8  C   UNL     1      10.707   1.945  24.275  1.00  0.00     0.096 C 
HETATM    9  O   UNL     1      12.639   0.430  24.452  1.00  0.00    -0.293 OA
ENDBRANCH   6   7
ENDBRANCH   5   6
ENDBRANCH   4   5
ENDBRANCH   1   3
BRANCH   2  10
HETATM   10  C   UNL     1       8.094  -4.942  24.981  1.00  0.00    -0.083 C 
BRANCH  10  11
HETATM   11  C   UNL     1       8.171  -5.035  26.245  1.00  0.00     0.220 A 
HETATM   12  C   UNL     1       7.242  -5.864  27.479  1.00  0.00     0.361 A 
HETATM   13  O   UNL     1       7.168  -6.309  28.638  1.00  0.00    -0.234 OA
HETATM   14  O   UNL     1       8.545  -4.930  27.323  1.00  0.00    -0.242 OA
BRANCH  12  15
HETATM   15  O   UNL     1       6.256  -6.230  26.523  1.00  0.00    -0.312 OA
HETATM   16  H   UNL     1       6.185  -5.415  26.009  1.00  0.00     0.223 HD
ENDBRANCH  12  15
ENDBRANCH  10  11
ENDBRANCH   2  10
TORSDOF 7
ENDMDL
MODEL 2
REMARK VINA RESULT:    -4.745      4.552      6.635
REMARK INTER + INTRA:          -6.885
REMARK INTER:                  -6.134
REMARK INTRA:                  -0.751
REMARK UNBOUND:                -0.337
REMARK  7 active torsions:
REMARK  status: ('A' for Active; 'I' for Inactive)
REMARK    1  A    between atoms: C_2  and  O_4 
REMARK    2  A    between atoms: C_6  and  C_7 
REMARK    3  A    between atoms: C_7  and  C_9 
REMARK    4  A    between atoms: C_8  and  C_11 
REMARK    5  A    between atoms: C_10  and  S_13 
REMARK    6  A    between atoms: C_12  and  C_15 
REMARK    7  A    between atoms: C_12  and  S_13 
ROOT
HETATM    1  C   UNL     1       7.720   0.941  24.152  1.00  0.00     0.009 C 
HETATM    2  C   UNL     1       6.905   0.340  23.219  1.00  0.00     0.059 C 
ENDROOT
BRANCH   1   3
HETATM    3  C   UNL     1       8.726   1.872  23.926  1.00  0.00     0.008 C 
HETATM    4  C   UNL     1       9.974   1.951  24.327  1.00  0.00     0.049 C 
BRANCH   4   5
HETATM    5  S   UNL     1      11.402   1.001  23.855  1.00  0.00    -0.110 SA
BRANCH   5   6
HETATM    6  C   UNL     1      10.868  -0.011  22.649  1.00  0.00     0.099 C 
BRANCH   6   7
HETATM    7  C   UNL     1      11.102  -1.426  22.769  1.00  0.00     0.151 C 
HETATM    8  C   UNL     1       9.801  -2.094  23.109  1.00  0.00     0.096 C 
HETATM    9  O   UNL     1      12.208  -1.895  22.635  1.00  0.00    -0.293 OA
ENDBRANCH   6   7
ENDBRANCH   5   6
ENDBRANCH   4   5
ENDBRANCH   1   3
BRANCH   2  10
HETATM   10  C   UNL     1       7.120   0.281  21.940  1.00  0.00    -0.083 C 
BRANCH  10  11
HETATM   11  C   UNL     1       7.332   0.434  20.697  1.00  0.00     0.220 A 
HETATM   12  C   UNL     1       6.330   0.374  19.260  1.00  0.00     0.361 A 
HETATM   13  O   UNL     1       6.169   0.660  18.061  1.00  0.00    -0.234 OA
HETATM   14  O   UNL     1       7.853   0.659  19.702  1.00  0.00    -0.242 OA
BRANCH  12  15
HETATM   15  O   UNL     1       5.229  -0.108  20.019  1.00  0.00    -0.312 OA
HETATM   16  H   UNL     1       5.648  -0.258  20.877  1.00  0.00     0.223 HD
ENDBRANCH  12  15
ENDBRANCH  10  11
ENDBRANCH   2  10
TORSDOF 7
ENDMDL
MODEL 3
REMARK VINA RESULT:    -4.694      5.111      6.609
REMARK INTER + INTRA:          -6.814
REMARK INTER:                  -6.379
REMARK INTRA:                  -0.435
REMARK UNBOUND:                -0.337
REMARK  7 active torsions:
REMARK  status: ('A' for Active; 'I' for Inactive)
REMARK    1  A    between atoms: C_2  and  O_4 
REMARK    2  A    between atoms: C_6  and  C_7 
REMARK    3  A    between atoms: C_7  and  C_9 
REMARK    4  A    between atoms: C_8  and  C_11 
REMARK    5  A    between atoms: C_10  and  S_13 
REMARK    6  A    between atoms: C_12  and  C_15 
REMARK    7  A    between atoms: C_12  and  S_13 
ROOT
HETATM    1  C   UNL     1       6.943   0.433  23.507  1.00  0.00     0.009 C 
HETATM    2  C   UNL     1       6.829   1.180  22.356  1.00  0.00     0.059 C 
ENDROOT
BRANCH   1   3
HETATM    3  C   UNL     1       7.504  -0.830  23.647  1.00  0.00     0.008 C 
HETATM    4  C   UNL     1       8.288  -1.548  22.875  1.00  0.00     0.049 C 
BRANCH   4   5
HETATM    5  S   UNL     1      10.009  -1.348  22.472  1.00  0.00    -0.110 SA
BRANCH   5   6
HETATM    6  C   UNL     1      10.508  -0.026  23.347  1.00  0.00     0.099 C 
BRANCH   6   7
HETATM    7  C   UNL     1      10.684   1.232  22.673  1.00  0.00     0.151 C 
HETATM    8  C   UNL     1      11.163   2.244  23.675  1.00  0.00     0.096 C 
HETATM    9  O   UNL     1      10.427   1.360  21.499  1.00  0.00    -0.293 OA
ENDBRANCH   6   7
ENDBRANCH   5   6
ENDBRANCH   4   5
ENDBRANCH   1   3
BRANCH   2  10
HETATM   10  C   UNL     1       6.929   0.734  21.141  1.00  0.00    -0.083 C 
BRANCH  10  11
HETATM   11  C   UNL     1       7.019   0.502  19.895  1.00  0.00     0.220 A 
HETATM   12  C   UNL     1       5.951  -0.195  18.693  1.00  0.00     0.361 A 
HETATM   13  O   UNL     1       5.653  -0.352  17.496  1.00  0.00    -0.234 OA
HETATM   14  O   UNL     1       7.413   0.469  18.821  1.00  0.00    -0.242 OA
BRANCH  12  15
HETATM   15  O   UNL     1       5.024  -0.574  19.702  1.00  0.00    -0.312 OA
HETATM   16  H   UNL     1       4.206  -0.197  19.352  1.00  0.00     0.223 HD
ENDBRANCH  12  15
ENDBRANCH  10  11
ENDBRANCH   2  10
TORSDOF 7
ENDMDL
MODEL 4
REMARK VINA RESULT:    -4.693      2.571      2.822
REMARK INTER + INTRA:          -6.813
REMARK INTER:                  -6.472
REMARK INTRA:                  -0.341
REMARK UNBOUND:                -0.337
REMARK  7 active torsions:
REMARK  status: ('A' for Active; 'I' for Inactive)
REMARK    1  A    between atoms: C_2  and  O_4 
REMARK    2  A    between atoms: C_6  and  C_7 
REMARK    3  A    between atoms: C_7  and  C_9 
REMARK    4  A    between atoms: C_8  and  C_11 
REMARK    5  A    between atoms: C_10  and  S_13 
REMARK    6  A    between atoms: C_12  and  C_15 
REMARK    7  A    between atoms: C_12  and  S_13 
ROOT
HETATM    1  C   UNL     1       8.435  -2.707  22.777  1.00  0.00     0.009 C 
HETATM    2  C   UNL     1       7.851  -3.778  23.416  1.00  0.00     0.059 C 
ENDROOT
BRANCH   1   3
HETATM    3  C   UNL     1       9.609  -2.050  23.124  1.00  0.00     0.008 C 
HETATM    4  C   UNL     1      10.430  -1.276  22.451  1.00  0.00     0.049 C 
BRANCH   4   5
HETATM    5  S   UNL     1      10.229   0.392  21.868  1.00  0.00    -0.110 SA
BRANCH   5   6
HETATM    6  C   UNL     1       8.588   0.660  21.880  1.00  0.00     0.099 C 
BRANCH   6   7
HETATM    7  C   UNL     1       7.855   0.565  20.646  1.00  0.00     0.151 C 
HETATM    8  C   UNL     1       6.506   1.194  20.846  1.00  0.00     0.096 C 
HETATM    9  O   UNL     1       8.323   0.017  19.675  1.00  0.00    -0.293 OA
ENDBRANCH   6   7
ENDBRANCH   5   6
ENDBRANCH   4   5
ENDBRANCH   1   3
BRANCH   2  10
HETATM   10  C   UNL     1       8.099  -4.176  24.626  1.00  0.00    -0.083 C 
BRANCH  10  11
HETATM   11  C   UNL     1       8.243  -4.388  25.870  1.00  0.00     0.220 A 
HETATM   12  C   UNL     1       7.440  -5.410  27.046  1.00  0.00     0.361 A 
HETATM   13  O   UNL     1       7.455  -5.974  28.154  1.00  0.00    -0.234 OA
HETATM   14  O   UNL     1       8.657  -4.361  26.937  1.00  0.00    -0.242 OA
BRANCH  12  15
HETATM   15  O   UNL     1       6.441  -5.759  26.095  1.00  0.00    -0.312 OA
HETATM   16  H   UNL     1       6.621  -5.118  25.395  1.00  0.00     0.223 HD
ENDBRANCH  12  15
ENDBRANCH  10  11
ENDBRANCH   2  10
TORSDOF 7
ENDMDL
MODEL 5
REMARK VINA RESULT:    -4.621     24.143     26.638
REMARK INTER + INTRA:          -6.714
REMARK INTER:                  -6.409
REMARK INTRA:                  -0.305
REMARK UNBOUND:                -0.337
REMARK  7 active torsions:
REMARK  status: ('A' for Active; 'I' for Inactive)
REMARK    1  A    between atoms: C_2  and  O_4 
REMARK    2  A    between atoms: C_6  and  C_7 
REMARK    3  A    between atoms: C_7  and  C_9 
REMARK    4  A    between atoms: C_8  and  C_11 
REMARK    5  A    between atoms: C_10  and  S_13 
REMARK    6  A    between atoms: C_12  and  C_15 
REMARK    7  A    between atoms: C_12  and  S_13 
ROOT
HETATM    1  C   UNL     1       3.736 -22.278   7.557  1.00  0.00     0.009 C 
HETATM    2  C   UNL     1       3.571 -20.939   7.831  1.00  0.00     0.059 C 
ENDROOT
BRANCH   1   3
HETATM    3  C   UNL     1       2.788 -23.289   7.659  1.00  0.00     0.008 C 
HETATM    4  C   UNL     1       2.792 -24.458   8.258  1.00  0.00     0.049 C 
BRANCH   4   5
HETATM    5  S   UNL     1       2.726 -24.872   9.986  1.00  0.00    -0.110 SA
BRANCH   5   6
HETATM    6  C   UNL     1       3.085 -26.493  10.057  1.00  0.00     0.099 C 
BRANCH   6   7
HETATM    7  C   UNL     1       4.464 -26.904  10.079  1.00  0.00     0.151 C 
HETATM    8  C   UNL     1       4.899 -27.025  11.511  1.00  0.00     0.096 C 
HETATM    9  O   UNL     1       5.090 -27.063   9.058  1.00  0.00    -0.293 OA
ENDBRANCH   6   7
ENDBRANCH   5   6
ENDBRANCH   4   5
ENDBRANCH   1   3
BRANCH   2  10
HETATM   10  C   UNL     1       2.613 -20.413   8.531  1.00  0.00    -0.083 C 
BRANCH  10  11
HETATM   11  C   UNL     1       1.776 -19.715   9.183  1.00  0.00     0.220 A 
HETATM   12  C   UNL     1       1.385 -18.008   9.253  1.00  0.00     0.361 A 
HETATM   13  O   UNL     1       0.581 -17.111   9.561  1.00  0.00    -0.234 OA
HETATM   14  O   UNL     1       0.916 -19.416   9.878  1.00  0.00    -0.242 OA
BRANCH  12  15
HETATM   15  O   UNL     1       2.506 -17.694   8.436  1.00  0.00    -0.312 OA
HETATM   16  H   UNL     1       3.175 -17.504   9.107  1.00  0.00     0.223 HD
ENDBRANCH  12  15
ENDBRANCH  10  11
ENDBRANCH   2  10
TORSDOF 7
ENDMDL
MODEL 6
REMARK VINA RESULT:    -4.612     27.760     30.103
REMARK INTER + INTRA:          -6.702
REMARK INTER:                  -6.019
REMARK INTRA:                  -0.683
REMARK UNBOUND:                -0.337
REMARK  7 active torsions:
REMARK  status: ('A' for Active; 'I' for Inactive)
REMARK    1  A    between atoms: C_2  and  O_4 
REMARK    2  A    between atoms: C_6  and  C_7 
REMARK    3  A    between atoms: C_7  and  C_9 
REMARK    4  A    between atoms: C_8  and  C_11 
REMARK    5  A    between atoms: C_10  and  S_13 
REMARK    6  A    between atoms: C_12  and  C_15 
REMARK    7  A    between atoms: C_12  and  S_13 
ROOT
HETATM    1  C   UNL     1       8.286  18.475   0.838  1.00  0.00     0.009 C 
HETATM    2  C   UNL     1       7.847  17.205   1.142  1.00  0.00     0.059 C 
ENDROOT
BRANCH   1   3
HETATM    3  C   UNL     1       9.593  18.945   0.846  1.00  0.00     0.008 C 
HETATM    4  C   UNL     1      10.127  20.088   1.212  1.00  0.00     0.049 C 
BRANCH   4   5
HETATM    5  S   UNL     1      10.370  20.786   2.830  1.00  0.00    -0.110 SA
BRANCH   5   6
HETATM    6  C   UNL     1      10.168  19.515   3.883  1.00  0.00     0.099 C 
BRANCH   6   7
HETATM    7  C   UNL     1      11.292  18.668   4.180  1.00  0.00     0.151 C 
HETATM    8  C   UNL     1      10.821  17.546   5.059  1.00  0.00     0.096 C 
HETATM    9  O   UNL     1      12.400  18.925   3.770  1.00  0.00    -0.293 OA
ENDBRANCH   6   7
ENDBRANCH   5   6
ENDBRANCH   4   5
ENDBRANCH   1   3
BRANCH   2  10
HETATM   10  C   UNL     1       8.512  16.301   1.793  1.00  0.00    -0.083 C 
BRANCH  10  11
HETATM   11  C   UNL     1       9.332  15.488   2.323  1.00  0.00     0.220 A 
HETATM   12  C   UNL     1       9.179  14.098   3.381  1.00  0.00     0.361 A 
HETATM   13  O   UNL     1       9.673  13.061   3.855  1.00  0.00    -0.234 OA
HETATM   14  O   UNL     1      10.302  14.944   2.595  1.00  0.00    -0.242 OA
BRANCH  12  15
HETATM   15  O   UNL     1       7.793  14.362   3.564  1.00  0.00    -0.312 OA
HETATM   16  H   UNL     1       7.545  14.670   2.682  1.00  0.00     0.223 HD
ENDBRANCH  12  15
ENDBRANCH  10  11
ENDBRANCH   2  10
TORSDOF 7
ENDMDL
MODEL 7
REMARK VINA RESULT:    -4.587      2.371      3.329
REMARK INTER + INTRA:          -6.667
REMARK INTER:                  -6.203
REMARK INTRA:                  -0.464
REMARK UNBOUND:                -0.337
REMARK  7 active torsions:
REMARK  status: ('A' for Active; 'I' for Inactive)
REMARK    1  A    between atoms: C_2  and  O_4 
REMARK    2  A    between atoms: C_6  and  C_7 
REMARK    3  A    between atoms: C_7  and  C_9 
REMARK    4  A    between atoms: C_8  and  C_11 
REMARK    5  A    between atoms: C_10  and  S_13 
REMARK    6  A    between atoms: C_12  and  C_15 
REMARK    7  A    between atoms: C_12  and  S_13 
ROOT
HETATM    1  C   UNL     1       8.595  -3.311  26.108  1.00  0.00     0.009 C 
HETATM    2  C   UNL     1       7.911  -4.494  25.940  1.00  0.00     0.059 C 
ENDROOT
BRANCH   1   3
HETATM    3  C   UNL     1       8.548  -2.181  25.300  1.00  0.00     0.008 C 
HETATM    4  C   UNL     1       9.483  -1.443  24.745  1.00  0.00     0.049 C 
BRANCH   4   5
HETATM    5  S   UNL     1      10.572  -1.791  23.383  1.00  0.00    -0.110 SA
BRANCH   5   6
HETATM    6  C   UNL     1      11.260  -0.328  22.996  1.00  0.00     0.099 C 
BRANCH   6   7
HETATM    7  C   UNL     1      11.877   0.452  24.035  1.00  0.00     0.151 C 
HETATM    8  C   UNL     1      11.258   1.820  24.033  1.00  0.00     0.096 C 
HETATM    9  O   UNL     1      12.765  -0.001  24.719  1.00  0.00    -0.293 OA
ENDBRANCH   6   7
ENDBRANCH   5   6
ENDBRANCH   4   5
ENDBRANCH   1   3
BRANCH   2  10
HETATM   10  C   UNL     1       7.347  -4.903  24.845  1.00  0.00    -0.083 C 
BRANCH  10  11
HETATM   11  C   UNL     1       6.613  -5.291  23.883  1.00  0.00     0.220 A 
HETATM   12  C   UNL     1       6.736  -5.225  22.136  1.00  0.00     0.361 A 
HETATM   13  O   UNL     1       6.371  -5.648  21.025  1.00  0.00    -0.234 OA
HETATM   14  O   UNL     1       5.762  -5.779  23.292  1.00  0.00    -0.242 OA
BRANCH  12  15
HETATM   15  O   UNL     1       7.887  -4.393  22.225  1.00  0.00    -0.312 OA
HETATM   16  H   UNL     1       7.592  -3.739  22.873  1.00  0.00     0.223 HD
ENDBRANCH  12  15
ENDBRANCH  10  11
ENDBRANCH   2  10
TORSDOF 7
ENDMDL
MODEL 8
REMARK VINA RESULT:    -4.540      3.970      7.144
REMARK INTER + INTRA:          -6.602
REMARK INTER:                  -6.225
REMARK INTRA:                  -0.377
REMARK UNBOUND:                -0.337
REMARK  7 active torsions:
REMARK  status: ('A' for Active; 'I' for Inactive)
REMARK    1  A    between atoms: C_2  and  O_4 
REMARK    2  A    between atoms: C_6  and  C_7 
REMARK    3  A    between atoms: C_7  and  C_9 
REMARK    4  A    between atoms: C_8  and  C_11 
REMARK    5  A    between atoms: C_10  and  S_13 
REMARK    6  A    between atoms: C_12  and  C_15 
REMARK    7  A    between atoms: C_12  and  S_13 
ROOT
HETATM    1  C   UNL     1       8.498  -0.148  21.385  1.00  0.00     0.009 C 
HETATM    2  C   UNL     1       9.233   0.939  21.804  1.00  0.00     0.059 C 
ENDROOT
BRANCH   1   3
HETATM    3  C   UNL     1       8.511  -1.434  21.909  1.00  0.00     0.008 C 
HETATM    4  C   UNL     1       7.708  -2.070  22.732  1.00  0.00     0.049 C 
BRANCH   4   5
HETATM    5  S   UNL     1       6.062  -2.698  22.487  1.00  0.00    -0.110 SA
BRANCH   5   6
HETATM    6  C   UNL     1       6.175  -4.331  22.773  1.00  0.00     0.099 C 
BRANCH   6   7
HETATM    7  C   UNL     1       6.262  -5.233  21.656  1.00  0.00     0.151 C 
HETATM    8  C   UNL     1       7.074  -6.425  22.071  1.00  0.00     0.096 C 
HETATM    9  O   UNL     1       5.759  -4.965  20.590  1.00  0.00    -0.293 OA
ENDBRANCH   6   7
ENDBRANCH   5   6
ENDBRANCH   4   5
ENDBRANCH   1   3
BRANCH   2  10
HETATM   10  C   UNL     1      10.298   0.902  22.546  1.00  0.00    -0.083 C 
BRANCH  10  11
HETATM   11  C   UNL     1      11.241   1.013  23.389  1.00  0.00     0.220 A 
HETATM   12  C   UNL     1      12.370  -0.107  24.128  1.00  0.00     0.361 A 
HETATM   13  O   UNL     1      13.436  -0.296  24.740  1.00  0.00    -0.234 OA
HETATM   14  O   UNL     1      12.010   1.463  24.109  1.00  0.00    -0.242 OA
BRANCH  12  15
HETATM   15  O   UNL     1      11.683  -1.213  23.557  1.00  0.00    -0.312 OA
HETATM   16  H   UNL     1      12.351  -1.907  23.638  1.00  0.00     0.223 HD
ENDBRANCH  12  15
ENDBRANCH  10  11
ENDBRANCH   2  10
TORSDOF 7
ENDMDL
MODEL 9
REMARK VINA RESULT:    -4.528      4.695      7.077
REMARK INTER + INTRA:          -6.585
REMARK INTER:                  -6.141
REMARK INTRA:                  -0.445
REMARK UNBOUND:                -0.337
REMARK  7 active torsions:
REMARK  status: ('A' for Active; 'I' for Inactive)
REMARK    1  A    between atoms: C_2  and  O_4 
REMARK    2  A    between atoms: C_6  and  C_7 
REMARK    3  A    between atoms: C_7  and  C_9 
REMARK    4  A    between atoms: C_8  and  C_11 
REMARK    5  A    between atoms: C_10  and  S_13 
REMARK    6  A    between atoms: C_12  and  C_15 
REMARK    7  A    between atoms: C_12  and  S_13 
ROOT
HETATM    1  C   UNL     1       8.094  -1.661  22.872  1.00  0.00     0.009 C 
HETATM    2  C   UNL     1       8.573  -0.663  22.053  1.00  0.00     0.059 C 
ENDROOT
BRANCH   1   3
HETATM    3  C   UNL     1       7.354  -2.778  22.506  1.00  0.00     0.008 C 
HETATM    4  C   UNL     1       7.485  -4.059  22.768  1.00  0.00     0.049 C 
BRANCH   4   5
HETATM    5  S   UNL     1       7.215  -4.963  24.275  1.00  0.00    -0.110 SA
BRANCH   5   6
HETATM    6  C   UNL     1       7.082  -3.803  25.458  1.00  0.00     0.099 C 
BRANCH   6   7
HETATM    7  C   UNL     1       8.179  -3.601  26.366  1.00  0.00     0.151 C 
HETATM    8  C   UNL     1       8.591  -2.159  26.298  1.00  0.00     0.096 C 
HETATM    9  O   UNL     1       8.643  -4.515  27.006  1.00  0.00    -0.293 OA
ENDBRANCH   6   7
ENDBRANCH   5   6
ENDBRANCH   4   5
ENDBRANCH   1   3
BRANCH   2  10
HETATM   10  C   UNL     1       8.167  -0.401  20.848  1.00  0.00    -0.083 C 
BRANCH  10  11
HETATM   11  C   UNL     1       7.642  -0.001  19.763  1.00  0.00     0.220 A 
HETATM   12  C   UNL     1       6.030  -0.063  19.078  1.00  0.00     0.361 A 
HETATM   13  O   UNL     1       5.205   0.368  18.253  1.00  0.00    -0.234 OA
HETATM   14  O   UNL     1       7.501   0.499  18.742  1.00  0.00    -0.242 OA
BRANCH  12  15
HETATM   15  O   UNL     1       5.589  -0.908  20.133  1.00  0.00    -0.312 OA
HETATM   16  H   UNL     1       6.387  -0.958  20.676  1.00  0.00     0.223 HD
ENDBRANCH  12  15
ENDBRANCH  10  11
ENDBRANCH   2  10
TORSDOF 7
ENDMDL
