MODEL 1
REMARK VINA RESULT:    -4.623      0.000      0.000
REMARK INTER + INTRA:          -6.006
REMARK INTER:                  -5.974
REMARK INTRA:                  -0.032
REMARK UNBOUND:                -0.032
REMARK  5 active torsions:
REMARK  status: ('A' for Active; 'I' for Inactive)
REMARK    1  A    between atoms: O_1  and  C_3 
REMARK    2  A    between atoms: N_4  and  N_12 
REMARK    3  A    between atoms: N_4  and  C_8 
REMARK    4  A    between atoms: N_10  and  C_17 
REMARK    5  A    between atoms: C_13  and  C_17 
ROOT
HETATM    1  H   UNL     1       7.713   0.254  19.905  1.00  0.00     0.208 HD
HETATM    2  N   UNL     1       5.837   0.604  20.650  1.00  0.00    -0.275 N 
ATOM      3  HN  UNL     1       5.286   0.426  21.489  1.00  0.00     0.189 HD
HETATM    4  N   UNL     1       7.077   0.440  20.676  1.00  0.00    -0.242 N 
ENDROOT
BRANCH   4   5
HETATM    5  N   UNL     1       7.756   0.058  21.800  1.00  0.00    -0.287 N 
HETATM    6  C   UNL     1       7.018  -0.249  22.960  1.00  0.00     0.175 C 
BRANCH   5   7
HETATM    7  C   UNL     1       8.885  -0.524  22.047  1.00  0.00     0.278 A 
HETATM    8  C   UNL     1      10.146   0.467  21.703  1.00  0.00     0.160 A 
HETATM    9  N   UNL     1      10.371  -0.577  21.358  1.00  0.00    -0.342 N 
ATOM     10  HN  UNL     1      11.060  -1.177  20.905  1.00  0.00     0.164 HD
BRANCH   8  11
HETATM   11  O   UNL     1      10.490   1.770  21.708  1.00  0.00    -0.341 OA
HETATM   12  C   UNL     1      10.823   2.577  22.759  1.00  0.00     0.211 C 
ENDBRANCH   8  11
ENDBRANCH   5   7
ENDBRANCH   4   5
BRANCH   2  13
HETATM   13  C   UNL     1       5.212   1.024  19.494  1.00  0.00     0.131 C 
HETATM   14  S   UNL     1       3.875   1.988  19.622  1.00  0.00    -0.058 SA
BRANCH  13  15
HETATM   15  C   UNL     1       5.785   0.601  18.255  1.00  0.00     0.124 C 
HETATM   16  N   UNL     1       5.594  -0.541  17.650  1.00  0.00    -0.406 N 
HETATM   17  H   UNL     1       5.365  -0.578  16.679  1.00  0.00     0.155 HD
HETATM   18  H   UNL     1       5.292  -1.354  18.162  1.00  0.00     0.155 HD
ENDBRANCH  13  15
ENDBRANCH   2  13
TORSDOF 5
ENDMDL
MODEL 2
REMARK VINA RESULT:    -4.352     24.316     25.749
REMARK INTER + INTRA:          -5.656
REMARK INTER:                  -5.733
REMARK INTRA:                   0.077
REMARK UNBOUND:                -0.032
REMARK  5 active torsions:
REMARK  status: ('A' for Active; 'I' for Inactive)
REMARK    1  A    between atoms: O_1  and  C_3 
REMARK    2  A    between atoms: N_4  and  N_12 
REMARK    3  A    between atoms: N_4  and  C_8 
REMARK    4  A    between atoms: N_10  and  C_17 
REMARK    5  A    between atoms: C_13  and  C_17 
ROOT
HETATM    1  H   UNL     1       9.641  17.652   2.480  1.00  0.00     0.208 HD
HETATM    2  N   UNL     1       8.853  16.336   1.123  1.00  0.00    -0.275 N 
ATOM      3  HN  UNL     1       8.391  16.336   0.213  1.00  0.00     0.189 HD
HETATM    4  N   UNL     1       9.429  17.369   1.527  1.00  0.00    -0.242 N 
ENDROOT
BRANCH   4   5
HETATM    5  N   UNL     1       9.507  18.517   0.788  1.00  0.00    -0.287 N 
HETATM    6  C   UNL     1       8.503  18.772  -0.169  1.00  0.00     0.175 C 
BRANCH   5   7
HETATM    7  C   UNL     1      10.007  19.698   0.961  1.00  0.00     0.278 A 
HETATM    8  C   UNL     1      10.659  19.848   2.459  1.00  0.00     0.160 A 
HETATM    9  N   UNL     1      10.099  20.782   2.186  1.00  0.00    -0.342 N 
ATOM     10  HN  UNL     1       9.824  21.712   2.501  1.00  0.00     0.164 HD
BRANCH   8  11
HETATM   11  O   UNL     1      11.293  19.128   3.406  1.00  0.00    -0.341 OA
HETATM   12  C   UNL     1      12.472  19.383   4.047  1.00  0.00     0.211 C 
ENDBRANCH   8  11
ENDBRANCH   5   7
ENDBRANCH   4   5
BRANCH   2  13
HETATM   13  C   UNL     1       8.837  15.196   1.901  1.00  0.00     0.131 C 
HETATM   14  S   UNL     1       7.741  14.009   1.544  1.00  0.00    -0.058 SA
BRANCH  13  15
HETATM   15  C   UNL     1       9.791  15.118   2.961  1.00  0.00     0.124 C 
HETATM   16  N   UNL     1      10.931  14.481   2.946  1.00  0.00    -0.406 N 
HETATM   17  H   UNL     1      11.774  14.926   3.247  1.00  0.00     0.155 HD
HETATM   18  H   UNL     1      11.089  13.715   2.312  1.00  0.00     0.155 HD
ENDBRANCH  13  15
ENDBRANCH   2  13
TORSDOF 5
ENDMDL
MODEL 3
REMARK VINA RESULT:    -4.349     22.595     24.086
REMARK INTER + INTRA:          -5.652
REMARK INTER:                  -5.611
REMARK INTRA:                  -0.041
REMARK UNBOUND:                -0.032
REMARK  5 active torsions:
REMARK  status: ('A' for Active; 'I' for Inactive)
REMARK    1  A    between atoms: O_1  and  C_3 
REMARK    2  A    between atoms: N_4  and  N_12 
REMARK    3  A    between atoms: N_4  and  C_8 
REMARK    4  A    between atoms: N_10  and  C_17 
REMARK    5  A    between atoms: C_13  and  C_17 
ROOT
HETATM    1  H   UNL     1       8.897  18.123   3.392  1.00  0.00     0.208 HD
HETATM    2  N   UNL     1      10.721  17.372   3.943  1.00  0.00    -0.275 N 
ATOM      3  HN  UNL     1      11.232  16.489   3.947  1.00  0.00     0.189 HD
HETATM    4  N   UNL     1       9.674  17.480   3.267  1.00  0.00    -0.242 N 
ENDROOT
BRANCH   4   5
HETATM    5  N   UNL     1       9.181  16.470   2.489  1.00  0.00    -0.287 N 
HETATM    6  C   UNL     1       8.374  16.804   1.383  1.00  0.00     0.175 C 
BRANCH   5   7
HETATM    7  C   UNL     1       9.553  15.268   2.185  1.00  0.00     0.278 A 
HETATM    8  C   UNL     1       9.128  14.205   3.361  1.00  0.00     0.160 A 
HETATM    9  N   UNL     1      10.161  13.974   2.986  1.00  0.00    -0.342 N 
ATOM     10  HN  UNL     1      10.965  13.354   3.082  1.00  0.00     0.164 HD
BRANCH   8  11
HETATM   11  O   UNL     1       8.167  13.983   4.280  1.00  0.00    -0.341 OA
HETATM   12  C   UNL     1       7.583  14.855   5.154  1.00  0.00     0.211 C 
ENDBRANCH   8  11
ENDBRANCH   5   7
ENDBRANCH   4   5
BRANCH   2  13
HETATM   13  C   UNL     1      11.187  18.439   4.684  1.00  0.00     0.131 C 
HETATM   14  S   UNL     1      10.204  19.084   5.847  1.00  0.00    -0.058 SA
BRANCH  13  15
HETATM   15  C   UNL     1      12.508  18.901   4.398  1.00  0.00     0.124 C 
HETATM   16  N   UNL     1      12.995  19.212   3.227  1.00  0.00    -0.406 N 
HETATM   17  H   UNL     1      13.488  20.069   3.084  1.00  0.00     0.155 HD
HETATM   18  H   UNL     1      12.593  18.838   2.382  1.00  0.00     0.155 HD
ENDBRANCH  13  15
ENDBRANCH   2  13
TORSDOF 5
ENDMDL
MODEL 4
REMARK VINA RESULT:    -4.342     23.288     24.593
REMARK INTER + INTRA:          -5.643
REMARK INTER:                  -5.702
REMARK INTRA:                   0.060
REMARK UNBOUND:                -0.032
REMARK  5 active torsions:
REMARK  status: ('A' for Active; 'I' for Inactive)
REMARK    1  A    between atoms: O_1  and  C_3 
REMARK    2  A    between atoms: N_4  and  N_12 
REMARK    3  A    between atoms: N_4  and  C_8 
REMARK    4  A    between atoms: N_10  and  C_17 
REMARK    5  A    between atoms: C_13  and  C_17 
ROOT
HETATM    1  H   UNL     1       9.390  17.502   3.582  1.00  0.00     0.208 HD
HETATM    2  N   UNL     1       9.854  17.929   1.634  1.00  0.00    -0.275 N 
ATOM      3  HN  UNL     1      10.251  17.479   0.810  1.00  0.00     0.189 HD
HETATM    4  N   UNL     1       9.490  17.233   2.607  1.00  0.00    -0.242 N 
ENDROOT
BRANCH   4   5
HETATM    5  N   UNL     1       9.566  15.868   2.618  1.00  0.00    -0.287 N 
HETATM    6  C   UNL     1       9.126  15.160   1.482  1.00  0.00     0.175 C 
BRANCH   5   7
HETATM    7  C   UNL     1      10.313  14.986   3.201  1.00  0.00     0.278 A 
HETATM    8  C   UNL     1      10.807  15.515   4.674  1.00  0.00     0.160 A 
HETATM    9  N   UNL     1      11.653  15.000   4.144  1.00  0.00    -0.342 N 
ATOM     10  HN  UNL     1      12.631  14.720   4.209  1.00  0.00     0.164 HD
BRANCH   8  11
HETATM   11  O   UNL     1      10.397  16.273   5.710  1.00  0.00    -0.341 OA
HETATM   12  C   UNL     1      10.337  15.966   7.040  1.00  0.00     0.211 C 
ENDBRANCH   8  11
ENDBRANCH   5   7
ENDBRANCH   4   5
BRANCH   2  13
HETATM   13  C   UNL     1       9.721  19.303   1.669  1.00  0.00     0.131 C 
HETATM   14  S   UNL     1       8.366  19.984   1.007  1.00  0.00    -0.058 SA
BRANCH  13  15
HETATM   15  C   UNL     1      10.769  20.042   2.298  1.00  0.00     0.124 C 
HETATM   16  N   UNL     1      11.994  19.642   2.511  1.00  0.00    -0.406 N 
HETATM   17  H   UNL     1      12.774  20.216   2.266  1.00  0.00     0.155 HD
HETATM   18  H   UNL     1      12.219  18.661   2.553  1.00  0.00     0.155 HD
ENDBRANCH  13  15
ENDBRANCH   2  13
TORSDOF 5
ENDMDL
MODEL 5
REMARK VINA RESULT:    -4.257      2.248      2.382
REMARK INTER + INTRA:          -5.533
REMARK INTER:                  -5.532
REMARK INTRA:                  -0.001
REMARK UNBOUND:                -0.032
REMARK  5 active torsions:
REMARK  status: ('A' for Active; 'I' for Inactive)
REMARK    1  A    between atoms: O_1  and  C_3 
REMARK    2  A    between atoms: N_4  and  N_12 
REMARK    3  A    between atoms: N_4  and  C_8 
REMARK    4  A    between atoms: N_10  and  C_17 
REMARK    5  A    between atoms: C_13  and  C_17 
ROOT
HETATM    1  H   UNL     1       7.654   0.641  21.981  1.00  0.00     0.208 HD
HETATM    2  N   UNL     1       6.251  -0.502  21.023  1.00  0.00    -0.275 N 
ATOM      3  HN  UNL     1       5.859  -1.444  21.051  1.00  0.00     0.189 HD
HETATM    4  N   UNL     1       6.949  -0.091  21.975  1.00  0.00    -0.242 N 
ENDROOT
BRANCH   4   5
HETATM    5  N   UNL     1       7.197  -0.836  23.094  1.00  0.00    -0.287 N 
HETATM    6  C   UNL     1       6.581  -0.461  24.305  1.00  0.00     0.175 C 
BRANCH   5   7
HETATM    7  C   UNL     1       7.516  -2.068  23.336  1.00  0.00     0.278 A 
HETATM    8  C   UNL     1       9.140  -2.283  23.248  1.00  0.00     0.160 A 
HETATM    9  N   UNL     1       8.609  -3.146  22.765  1.00  0.00    -0.342 N 
ATOM     10  HN  UNL     1       8.731  -4.035  22.279  1.00  0.00     0.164 HD
BRANCH   8  11
HETATM   11  O   UNL     1      10.300  -1.637  23.481  1.00  0.00    -0.341 OA
HETATM   12  C   UNL     1      11.411  -1.536  22.693  1.00  0.00     0.211 C 
ENDBRANCH   8  11
ENDBRANCH   5   7
ENDBRANCH   4   5
BRANCH   2  13
HETATM   13  C   UNL     1       6.007   0.310  19.934  1.00  0.00     0.131 C 
HETATM   14  S   UNL     1       5.268   1.769  20.184  1.00  0.00    -0.058 SA
BRANCH  13  15
HETATM   15  C   UNL     1       6.432  -0.169  18.657  1.00  0.00     0.124 C 
HETATM   16  N   UNL     1       5.672  -0.476  17.640  1.00  0.00    -0.406 N 
HETATM   17  H   UNL     1       5.872  -0.131  16.725  1.00  0.00     0.155 HD
HETATM   18  H   UNL     1       4.704  -0.720  17.772  1.00  0.00     0.155 HD
ENDBRANCH  13  15
ENDBRANCH   2  13
TORSDOF 5
ENDMDL
MODEL 6
REMARK VINA RESULT:    -4.254      4.019      4.443
REMARK INTER + INTRA:          -5.530
REMARK INTER:                  -5.521
REMARK INTRA:                  -0.009
REMARK UNBOUND:                -0.032
REMARK  5 active torsions:
REMARK  status: ('A' for Active; 'I' for Inactive)
REMARK    1  A    between atoms: O_1  and  C_3 
REMARK    2  A    between atoms: N_4  and  N_12 
REMARK    3  A    between atoms: N_4  and  C_8 
REMARK    4  A    between atoms: N_10  and  C_17 
REMARK    5  A    between atoms: C_13  and  C_17 
ROOT
HETATM    1  H   UNL     1       7.789  -1.676  22.429  1.00  0.00     0.208 HD
HETATM    2  N   UNL     1       8.174  -3.646  22.835  1.00  0.00    -0.275 N 
ATOM      3  HN  UNL     1       8.935  -4.240  23.165  1.00  0.00     0.189 HD
HETATM    4  N   UNL     1       8.257  -2.404  22.961  1.00  0.00    -0.242 N 
ENDROOT
BRANCH   4   5
HETATM    5  N   UNL     1       9.319  -1.784  23.559  1.00  0.00    -0.287 N 
HETATM    6  C   UNL     1       9.287  -1.590  24.954  1.00  0.00     0.175 C 
BRANCH   5   7
HETATM    7  C   UNL     1      10.583  -1.664  23.308  1.00  0.00     0.278 A 
HETATM    8  C   UNL     1      10.846  -0.549  22.132  1.00  0.00     0.160 A 
HETATM    9  N   UNL     1      11.514  -1.438  21.979  1.00  0.00    -0.342 N 
ATOM     10  HN  UNL     1      12.240  -1.846  21.389  1.00  0.00     0.164 HD
BRANCH   8  11
HETATM   11  O   UNL     1      10.348   0.606  21.649  1.00  0.00    -0.341 OA
HETATM   12  C   UNL     1      10.236   1.825  22.256  1.00  0.00     0.211 C 
ENDBRANCH   8  11
ENDBRANCH   5   7
ENDBRANCH   4   5
BRANCH   2  13
HETATM   13  C   UNL     1       7.061  -4.216  22.252  1.00  0.00     0.131 C 
HETATM   14  S   UNL     1       5.752  -3.255  21.938  1.00  0.00    -0.058 SA
BRANCH  13  15
HETATM   15  C   UNL     1       7.129  -5.609  21.945  1.00  0.00     0.124 C 
HETATM   16  N   UNL     1       6.127  -6.439  21.829  1.00  0.00    -0.406 N 
HETATM   17  H   UNL     1       6.052  -7.050  21.043  1.00  0.00     0.155 HD
HETATM   18  H   UNL     1       5.242  -6.248  22.271  1.00  0.00     0.155 HD
ENDBRANCH  13  15
ENDBRANCH   2  13
TORSDOF 5
ENDMDL
MODEL 7
REMARK VINA RESULT:    -4.223      1.581      1.922
REMARK INTER + INTRA:          -5.489
REMARK INTER:                  -5.493
REMARK INTRA:                   0.004
REMARK UNBOUND:                -0.032
REMARK  5 active torsions:
REMARK  status: ('A' for Active; 'I' for Inactive)
REMARK    1  A    between atoms: O_1  and  C_3 
REMARK    2  A    between atoms: N_4  and  N_12 
REMARK    3  A    between atoms: N_4  and  C_8 
REMARK    4  A    between atoms: N_10  and  C_17 
REMARK    5  A    between atoms: C_13  and  C_17 
ROOT
HETATM    1  H   UNL     1       7.220  -0.465  22.028  1.00  0.00     0.208 HD
HETATM    2  N   UNL     1       7.562   0.540  20.277  1.00  0.00    -0.275 N 
ATOM      3  HN  UNL     1       8.294   1.085  19.821  1.00  0.00     0.189 HD
HETATM    4  N   UNL     1       7.837  -0.144  21.287  1.00  0.00    -0.242 N 
ENDROOT
BRANCH   4   5
HETATM    5  N   UNL     1       9.098  -0.231  21.809  1.00  0.00    -0.287 N 
HETATM    6  C   UNL     1       9.605  -1.505  22.136  1.00  0.00     0.175 C 
BRANCH   5   7
HETATM    7  C   UNL     1      10.183   0.469  21.731  1.00  0.00     0.278 A 
HETATM    8  C   UNL     1      10.104   1.788  22.704  1.00  0.00     0.160 A 
HETATM    9  N   UNL     1      10.573   2.061  21.721  1.00  0.00    -0.342 N 
ATOM     10  HN  UNL     1      10.981   2.817  21.171  1.00  0.00     0.164 HD
BRANCH   8  11
HETATM   11  O   UNL     1       9.583   2.199  23.877  1.00  0.00    -0.341 OA
HETATM   12  C   UNL     1       9.119   1.459  24.927  1.00  0.00     0.211 C 
ENDBRANCH   8  11
ENDBRANCH   5   7
ENDBRANCH   4   5
BRANCH   2  13
HETATM   13  C   UNL     1       6.276   0.562  19.777  1.00  0.00     0.131 C 
HETATM   14  S   UNL     1       5.304   1.847  20.150  1.00  0.00    -0.058 SA
BRANCH  13  15
HETATM   15  C   UNL     1       5.881  -0.534  18.950  1.00  0.00     0.124 C 
HETATM   16  N   UNL     1       5.643  -0.504  17.667  1.00  0.00    -0.406 N 
HETATM   17  H   UNL     1       6.047  -1.179  17.051  1.00  0.00     0.155 HD
HETATM   18  H   UNL     1       5.392   0.356  17.206  1.00  0.00     0.155 HD
ENDBRANCH  13  15
ENDBRANCH   2  13
TORSDOF 5
ENDMDL
MODEL 8
REMARK VINA RESULT:    -4.144      2.390      3.434
REMARK INTER + INTRA:          -5.388
REMARK INTER:                  -5.377
REMARK INTRA:                  -0.011
REMARK UNBOUND:                -0.032
REMARK  5 active torsions:
REMARK  status: ('A' for Active; 'I' for Inactive)
REMARK    1  A    between atoms: O_1  and  C_3 
REMARK    2  A    between atoms: N_4  and  N_12 
REMARK    3  A    between atoms: N_4  and  C_8 
REMARK    4  A    between atoms: N_10  and  C_17 
REMARK    5  A    between atoms: C_13  and  C_17 
ROOT
HETATM    1  H   UNL     1       8.348   0.983  21.646  1.00  0.00     0.208 HD
HETATM    2  N   UNL     1       7.674  -0.120  20.058  1.00  0.00    -0.275 N 
ATOM      3  HN  UNL     1       7.961  -0.909  19.478  1.00  0.00     0.189 HD
HETATM    4  N   UNL     1       8.271   0.110  21.133  1.00  0.00    -0.242 N 
ENDROOT
BRANCH   4   5
HETATM    5  N   UNL     1       9.289  -0.673  21.603  1.00  0.00    -0.287 N 
HETATM    6  C   UNL     1      10.468  -0.046  22.053  1.00  0.00     0.175 C 
BRANCH   5   7
HETATM    7  C   UNL     1       9.380  -1.834  22.167  1.00  0.00     0.278 A 
HETATM    8  C   UNL     1       7.894  -2.470  22.448  1.00  0.00     0.160 A 
HETATM    9  N   UNL     1       8.568  -2.660  23.326  1.00  0.00    -0.342 N 
ATOM     10  HN  UNL     1       8.633  -3.079  24.253  1.00  0.00     0.164 HD
BRANCH   8  11
HETATM   11  O   UNL     1       6.649  -2.500  21.933  1.00  0.00    -0.341 OA
HETATM   12  C   UNL     1       5.636  -3.389  22.159  1.00  0.00     0.211 C 
ENDBRANCH   8  11
ENDBRANCH   5   7
ENDBRANCH   4   5
BRANCH   2  13
HETATM   13  C   UNL     1       6.631   0.687  19.652  1.00  0.00     0.131 C 
HETATM   14  S   UNL     1       5.942   1.706  20.758  1.00  0.00    -0.058 SA
BRANCH  13  15
HETATM   15  C   UNL     1       6.229   0.592  18.285  1.00  0.00     0.124 C 
HETATM   16  N   UNL     1       5.640  -0.420  17.707  1.00  0.00    -0.406 N 
HETATM   17  H   UNL     1       4.828  -0.289  17.140  1.00  0.00     0.155 HD
HETATM   18  H   UNL     1       5.714  -1.350  18.088  1.00  0.00     0.155 HD
ENDBRANCH  13  15
ENDBRANCH   2  13
TORSDOF 5
ENDMDL
MODEL 9
REMARK VINA RESULT:    -4.079      4.650      5.466
REMARK INTER + INTRA:          -5.303
REMARK INTER:                  -5.189
REMARK INTRA:                  -0.114
REMARK UNBOUND:                -0.032
REMARK  5 active torsions:
REMARK  status: ('A' for Active; 'I' for Inactive)
REMARK    1  A    between atoms: O_1  and  C_3 
REMARK    2  A    between atoms: N_4  and  N_12 
REMARK    3  A    between atoms: N_4  and  C_8 
REMARK    4  A    between atoms: N_10  and  C_17 
REMARK    5  A    between atoms: C_13  and  C_17 
ROOT
HETATM    1  H   UNL     1       8.609  -2.133  21.713  1.00  0.00     0.208 HD
HETATM    2  N   UNL     1       8.222  -3.737  22.926  1.00  0.00    -0.275 N 
ATOM      3  HN  UNL     1       8.663  -4.276  23.672  1.00  0.00     0.189 HD
HETATM    4  N   UNL     1       8.698  -2.629  22.596  1.00  0.00    -0.242 N 
ENDROOT
BRANCH   4   5
HETATM    5  N   UNL     1       9.783  -2.070  23.212  1.00  0.00    -0.287 N 
HETATM    6  C   UNL     1      10.836  -1.584  22.412  1.00  0.00     0.175 C 
BRANCH   5   7
HETATM    7  C   UNL     1       9.997  -1.451  24.329  1.00  0.00     0.278 A 
HETATM    8  C   UNL     1       8.610  -1.298  25.192  1.00  0.00     0.160 A 
HETATM    9  N   UNL     1       9.207  -0.348  25.247  1.00  0.00    -0.342 N 
ATOM     10  HN  UNL     1       9.237   0.598  25.626  1.00  0.00     0.164 HD
BRANCH   8  11
HETATM   11  O   UNL     1       7.450  -1.937  25.439  1.00  0.00    -0.341 OA
HETATM   12  C   UNL     1       7.179  -2.929  26.338  1.00  0.00     0.211 C 
ENDBRANCH   8  11
ENDBRANCH   5   7
ENDBRANCH   4   5
BRANCH   2  13
HETATM   13  C   UNL     1       7.103  -4.235  22.288  1.00  0.00     0.131 C 
HETATM   14  S   UNL     1       5.874  -3.192  21.918  1.00  0.00    -0.058 SA
BRANCH  13  15
HETATM   15  C   UNL     1       7.099  -5.629  21.977  1.00  0.00     0.124 C 
HETATM   16  N   UNL     1       6.053  -6.385  21.773  1.00  0.00    -0.406 N 
HETATM   17  H   UNL     1       6.001  -6.988  20.979  1.00  0.00     0.155 HD
HETATM   18  H   UNL     1       5.151  -6.132  22.142  1.00  0.00     0.155 HD
ENDBRANCH  13  15
ENDBRANCH   2  13
TORSDOF 5
ENDMDL
