stable:False satoms:19 tatoms:24 sratio:0.7916666666666666
  -OEChem-07092417353D

 24 26  0     1  0  0  0  0  0999 V2000
    7.3829   -4.5724   26.6215 O   0  0  0  0  0  0  0  0  0  0  0  0
    8.4402   -4.2044   26.0402 C   0  0  0  0  0  0  0  0  0  0  0  0
    9.5299   -4.8412   25.9206 O   0  5  0  0  0  0  0  0  0  0  0  0
    8.4613   -2.9612   25.5211 O   0  0  0  0  0  0  0  0  0  0  0  0
    8.2593   -3.1341   24.1855 N   0  0  0  0  0  0  0  0  0  0  0  0
    8.2462   -2.3874   23.1832 C   0  0  0  0  0  0  0  0  0  0  0  0
    8.8801   -1.1206   22.9741 C   0  0  1  0  0  0  0  0  0  0  0  0
    9.7514   -0.3269   23.8950 C   0  0  0  0  0  0  0  0  0  0  0  0
    9.5702   -0.5314   24.9473 H   0  0  0  0  0  0  0  0  0  0  0  0
   10.1008    0.7195   23.8404 H   0  0  0  0  0  0  0  0  0  0  0  0
   11.3894   -1.4979   23.4296 H   0  0  0  0  0  0  0  0  0  0  0  0
   10.6026   -1.0871   21.5215 C   0  0  0  0  0  0  0  0  0  0  0  0
   11.4089   -1.5436   21.0107 H   0  0  0  0  0  0  0  0  0  0  0  0
   10.4783   -1.1243   22.9436 C   0  0  2  0  0  0  0  0  0  0  0  0
    9.3485   -0.4954   20.8712 C   0  0  0  0  0  0  0  0  0  0  0  0
    7.3530    0.5569   21.1033 C   0  0  0  0  0  0  0  0  0  0  0  0
    7.6163   -2.6896   22.3253 H   0  0  0  0  0  0  0  0  0  0  0  0
    8.7551   -0.0129   19.5042 C   0  0  0  0  0  0  0  0  0  0  0  0
    7.6163    0.6144   19.6875 C   0  0  0  0  0  0  0  0  0  0  0  0
    9.2210   -0.1611   18.5355 H   0  0  0  0  0  0  0  0  0  0  0  0
    6.9632    1.0869   18.9623 H   0  0  0  0  0  0  0  0  0  0  0  0
    5.5580    1.6653   20.8801 O   0  0  0  0  0  0  0  0  0  0  0  0
    8.3871   -0.3150   21.6999 C   0  0  0  0  0  0  0  0  0  0  0  0
    6.2640    1.0734   21.6930 N   0  0  0  0  0  0  0  0  0  0  0  0
 18 20  1  0  0  0  0
 19 21  1  0  0  0  0
 18 19  2  0  0  0  0
 15 18  1  0  0  0  0
 16 19  1  0  0  0  0
 12 15  2  0  0  0  0
 15 23  1  0  0  0  0
 22 24  1  0  0  0  0
 12 13  1  0  0  0  0
 16 24  1  0  0  0  0
 16 23  2  0  0  0  0
 12 14  1  0  0  0  0
  7 23  1  0  0  0  0
  6 17  1  0  0  0  0
  7 14  1  0  0  0  0
 11 14  1  0  0  0  0
  8 14  1  0  0  0  0
  6  7  1  0  0  0  0
  7  8  1  0  0  0  0
  5  6  2  0  0  0  0
  8 10  1  0  0  0  0
  8  9  1  0  0  0  0
  4  5  1  0  0  0  0
  2  4  1  0  0  0  0
  2  3  1  0  0  0  0
  1  2  2  0  0  0  0
M  CHG  1   3  -1
M  END
> <Shapegauss>
-164.813278

$$$$
