stable:False satoms:17 tatoms:24 sratio:0.7083333333333334
  -OEChem-07092417383D

 24 25  0     1  0  0  0  0  0999 V2000
    6.6849   -5.0623   26.6146 Cl  0  0  0  0  0  0  0  0  0  0  0  0
    8.2227   -4.3824   26.2454 C   0  0  0  0  0  0  0  0  0  0  0  0
    9.1256   -5.3607   26.1835 F   0  0  0  0  0  0  0  0  0  0  0  0
    8.6233   -3.5957   27.2988 F   0  0  0  0  0  0  0  0  0  0  0  0
    8.1221   -3.6786   25.0207 N   0  0  0  0  0  0  0  0  0  0  0  0
    8.7519   -2.8433   24.3926 C   0  0  0  0  0  0  0  0  0  0  0  0
    8.9036   -1.9968   23.7514 N   0  0  0  0  0  0  0  0  0  0  0  0
    9.7851   -1.3204   23.5143 C   0  0  0  0  0  0  0  0  0  0  0  0
   10.8517   -0.3342   23.4279 C   0  0  3  0  0  0  0  0  0  0  0  0
   12.0312    0.1529   23.8831 N   0  3  0  0  0  0  0  0  0  0  0  0
   13.7678   -0.3791   23.2512 H   0  0  0  0  0  0  0  0  0  0  0  0
   12.7505   -0.6817   23.1750 C   0  3  0  0  0  0  0  0  0  0  0  0
   12.4959   -1.5801   22.6634 H   0  0  0  0  0  0  0  0  0  0  0  0
    9.7613   -0.3255   22.6157 C   0  0  0  0  0  0  0  0  0  0  0  0
    8.9036   -0.0226   21.6963 C   0  0  3  0  0  0  0  0  0  0  0  0
    8.8873    0.6173   20.3100 O   0  0  0  0  0  0  0  0  0  0  0  0
    7.9433    0.1034   20.9886 N   0  0  0  0  0  0  0  0  0  0  0  0
    6.6248    0.3524   20.8288 C   0  3  0  0  0  0  0  0  0  0  0  0
    7.5624   -0.0031   18.3794 H   0  0  0  0  0  0  0  0  0  0  0  0
    6.5932    0.4220   18.4245 C   0  0  0  0  0  0  0  0  0  0  0  0
    6.0830    0.7055   17.5593 H   0  0  0  0  0  0  0  0  0  0  0  0
    4.9959    0.9370   19.6709 H   0  0  0  0  0  0  0  0  0  0  0  0
    6.0048    0.5903   19.6488 C   0  0  0  0  0  0  0  0  0  0  0  0
    6.1080    0.3953   21.7523 H   0  0  0  0  0  0  0  0  0  0  0  0
 20 21  1  0  0  0  0
 19 20  1  0  0  0  0
 20 23  2  0  0  0  0
 22 23  1  0  0  0  0
 18 23  1  0  0  0  0
 16 17  1  0  0  0  0
 15 16  1  0  0  0  0
 17 18  1  0  0  0  0
 18 24  1  0  0  0  0
 15 17  1  0  0  0  0
 14 15  1  0  0  0  0
  9 14  1  0  0  0  0
  8 14  2  0  0  0  0
 12 13  1  0  0  0  0
 11 12  1  0  0  0  0
 10 12  1  0  0  0  0
  8  9  1  0  0  0  0
  9 10  1  0  0  0  0
  7  8  1  0  0  0  0
  6  7  2  0  0  0  0
  5  6  1  0  0  0  0
  2  5  1  0  0  0  0
  2  3  1  0  0  0  0
  1  2  1  0  0  0  0
  2  4  1  0  0  0  0
M  CHG  3  10   1  12   1  18   1
M  END
> <Shapegauss>
-199.299561

$$$$
