stable:False satoms:17 tatoms:24 sratio:0.7083333333333334
  -OEChem-08062406203D

 28 29  0     1  0  0  0  0  0999 V2000
   -6.4405   -3.7389  -26.7095 Cl  0  0  0  0  0  0  0  0  0  0  0  0
   -8.0092   -3.7014  -26.0017 C   0  0  0  0  0  0  0  0  0  0  0  0
   -8.0942   -4.6647  -25.0847 F   0  0  0  0  0  0  0  0  0  0  0  0
   -8.9351   -4.0402  -26.9593 F   0  0  0  0  0  0  0  0  0  0  0  0
   -8.2200   -2.4184  -25.4406 N   0  0  0  0  0  0  0  0  0  0  0  0
   -9.1505   -1.7379  -25.0405 C   0  0  0  0  0  0  0  0  0  0  0  0
   -9.7158   -0.8435  -24.8638 N   0  0  0  0  0  0  0  0  0  0  0  0
  -10.7899   -0.6213  -24.5675 C   0  0  0  0  0  0  0  0  0  0  0  0
  -12.2179   -0.3737  -24.4358 C   0  0  3  0  0  0  0  0  0  0  0  0
  -13.4890   -0.8426  -24.4352 N   0  3  0  0  0  0  0  0  0  0  0  0
  -13.4428   -1.2213  -23.1823 H   0  0  0  0  0  0  0  0  0  0  0  0
  -13.4428   -1.2213  -23.1823 C   0  0  0  0  0  2  0  0  0  0  0  0
  -11.2803    0.6070  -24.3468 C   0  0  0  0  0  0  0  0  0  0  0  0
  -10.6926    1.7494  -24.1978 C   0  0  3  0  0  0  0  0  0  0  0  0
  -10.9096    3.0605  -23.4457 O   0  0  0  0  0  0  0  0  0  0  0  0
   -9.9413    2.6843  -24.1783 N   0  0  0  0  0  0  0  0  0  0  0  0
   -9.0549    3.4938  -24.7988 C   0  0  0  0  0  2  0  0  0  0  0  0
   -9.2648    4.4543  -22.3415 H   0  0  0  0  0  0  0  0  0  0  0  0
   -8.7831    5.1002  -23.0291 C   0  0  0  0  0  0  0  0  0  0  0  0
   -8.4592    6.0513  -22.7464 H   0  0  0  0  0  0  0  0  0  0  0  0
   -8.0158    5.2906  -24.9643 H   0  0  0  0  0  0  0  0  0  0  0  0
   -8.5796    4.6638  -24.3103 C   0  0  0  0  0  0  0  0  0  0  0  0
   -7.3544   -1.9271  -25.3442 H   0  0  0  0  0  0  0  0  0  0  0  0
   -9.7898   -2.4872  -24.5975 H   0  0  0  0  0  0  0  0  0  0  0  0
  -12.1509   -0.5420  -23.3508 H   0  0  0  0  0  0  0  0  0  0  0  0
  -13.6297   -1.6013  -25.0714 H   0  0  0  0  0  0  0  0  0  0  0  0
  -11.2060    2.1522  -25.0833 H   0  0  0  0  0  0  0  0  0  0  0  0
  -14.1714   -0.1322  -24.6075 H   0  0  0  0  0  0  0  0  0  0  0  0
 19 20  1  0  0  0  0
 18 19  1  0  0  0  0
 19 22  2  0  0  0  0
 21 22  1  0  0  0  0
 17 22  1  0  0  0  0
 15 16  1  0  0  0  0
 14 15  1  0  0  0  0
 16 17  1  0  0  0  0
 14 16  1  0  0  0  0
 13 14  1  0  0  0  0
  9 13  1  0  0  0  0
  8 13  2  0  0  0  0
 11 12  1  0  0  0  0
 10 12  1  0  0  0  0
  8  9  1  0  0  0  0
  9 10  1  0  0  0  0
  7  8  1  0  0  0  0
  6  7  2  0  0  0  0
  5  6  1  0  0  0  0
  2  5  1  0  0  0  0
  2  3  1  0  0  0  0
  1  2  1  0  0  0  0
  2  4  1  0  0  0  0
  5 23  1  0  0  0  0
  6 24  1  0  0  0  0
  9 25  1  0  0  0  0
 10 26  1  0  0  0  0
 14 27  1  0  0  0  0
 10 28  1  0  0  0  0
M  CHG  1  10   1
M  END
> <Chemgauss4>
-6.788182

$$$$
