REMARK  5 active torsions:
REMARK  status: ('A' for Active; 'I' for Inactive)
REMARK    1  A    between atoms: N_1  and  C_2 
REMARK    2  A    between atoms: S_3  and  N_15 
REMARK    3  A    between atoms: S_3  and  C_17 
REMARK    4  A    between atoms: C_7  and  N_15 
REMARK    5  A    between atoms: C_11  and  N_18 
ROOT
HETATM    1  N   UNL     1       9.108  -2.590  22.133  1.00  0.00    -0.322 N 
ATOM      2  HN  UNL     1       8.677  -3.514  22.169  1.00  0.00     0.175 HD
ENDROOT
BRANCH   1   3
HETATM    3  S   UNL     1      10.626  -2.605  21.540  1.00  0.00    -0.014 SA
BRANCH   3   4
HETATM    4  C   UNL     1      11.509  -1.503  22.631  1.00  0.00     0.024 A 
HETATM    5  C   UNL     1      11.079  -1.100  23.892  1.00  0.00     0.037 A 
HETATM    6  C   UNL     1      11.949  -0.315  24.648  1.00  0.00     0.089 A 
HETATM    7  N   UNL     1      13.110   0.137  24.216  1.00  0.00    -0.375 N 
HETATM    8  C   UNL     1      13.499  -0.241  23.007  1.00  0.00     0.089 A 
ATOM      9  HN  UNL     1      13.686   0.753  24.790  1.00  0.00     0.164 HD
HETATM   10  C   UNL     1      12.737  -1.036  22.176  1.00  0.00     0.037 A 
ENDBRANCH   3   4
ENDBRANCH   1   3
BRANCH   1  11
HETATM   11  C   UNL     1       8.341  -1.647  22.566  1.00  0.00     0.187 C 
HETATM   12  N   UNL     1       7.060  -1.850  22.963  1.00  0.00    -0.359 N 
ATOM     13  HN  UNL     1       6.747  -2.439  23.735  1.00  0.00     0.166 HD
BRANCH  12  14
HETATM   14  C   UNL     1       6.294  -1.133  22.152  1.00  0.00     0.124 C 
HETATM   15  C   UNL     1       4.924  -1.354  21.896  1.00  0.00     0.108 C 
HETATM   16  C   UNL     1       4.137  -2.316  22.418  1.00  0.00     0.051 C 
BRANCH  15  17
HETATM   17  N   UNL     1       4.393  -0.454  20.878  1.00  0.00    -0.115 N 
HETATM   18  O   UNL     1       5.122   0.384  20.389  1.00  0.00    -0.532 OA
HETATM   19  O   UNL     1       3.248  -0.629  20.514  1.00  0.00    -0.532 OA
ENDBRANCH  15  17
ENDBRANCH  12  14
ENDBRANCH   1  11
TORSDOF 5
