stable:False satoms:18 tatoms:24 sratio:0.75
  -OEChem-07092417273D

 24 24  0     0  0  0  0  0  0999 V2000
    4.3925   -0.4535   20.8783 N   0  0  0  0  0  0  0  0  0  0  0  0
   10.1264   -1.3845   24.2871 H   0  0  0  0  0  0  0  0  0  0  0  0
    4.9242   -1.3538   21.8965 C   0  0  0  0  0  0  0  0  0  0  0  0
   14.4700    0.1129   22.7025 H   0  0  0  0  0  0  0  0  0  0  0  0
   10.6257   -2.6046   21.5401 S   0  0  0  0  0  0  0  0  0  0  0  0
    5.1222    0.3835   20.3890 O   0  0  0  0  0  0  0  0  0  0  0  0
    3.2476   -0.6288   20.5142 O   0  0  0  0  0  0  0  0  0  0  0  0
   13.0877   -1.3204   21.1864 H   0  0  0  0  0  0  0  0  0  0  0  0
   11.0794   -1.0998   23.8918 C   0  0  0  0  0  0  0  0  0  0  0  0
    8.3406   -1.6472   22.5656 C   0  0  0  0  0  0  0  0  0  0  0  0
   11.9488   -0.3154   24.6482 C   0  0  0  0  0  0  0  0  0  0  0  0
   12.7369   -1.0364   22.1764 C   0  0  0  0  0  0  0  0  0  0  0  0
    4.1374   -2.3157   22.4175 C   0  0  0  0  0  0  0  0  0  0  0  0
    8.7190   -0.6316   22.6593 H   0  0  0  0  0  0  0  0  0  0  0  0
    6.2942   -1.1331   22.1516 C   0  3  0  0  0  0  0  0  0  0  0  0
   11.6846   -0.0383   25.6631 H   0  0  0  0  0  0  0  0  0  0  0  0
    3.1026   -2.4342   22.1002 H   0  0  0  0  0  0  0  0  0  0  0  0
   13.4990   -0.2409   23.0074 C   0  0  0  0  0  0  0  0  0  0  0  0
   13.1104    0.1370   24.2161 N   0  0  0  0  0  0  0  0  0  0  0  0
    6.7390   -0.3354   21.5418 H   0  0  0  0  0  0  0  0  0  0  0  0
    9.1079   -2.5903   22.1333 N   0  0  0  0  0  0  0  0  0  0  0  0
   11.5092   -1.5032   22.6313 C   0  0  0  0  0  0  0  0  0  0  0  0
    4.5192   -3.0063   23.1364 H   0  0  0  0  0  0  0  0  0  0  0  0
    7.0597   -1.8501   22.9629 N   0  0  0  0  0  0  0  0  0  0  0  0
  1  6  2  0  0  0  0
  1  7  2  0  0  0  0
  1  3  1  0  0  0  0
  8 12  1  0  0  0  0
  5 21  1  0  0  0  0
  5 22  1  0  0  0  0
 15 20  1  0  0  0  0
  3 15  1  0  0  0  0
  3 13  2  0  0  0  0
 13 17  1  0  0  0  0
 10 21  2  0  0  0  0
 15 24  1  0  0  0  0
 12 22  2  0  0  0  0
 12 18  1  0  0  0  0
 13 23  1  0  0  0  0
 10 14  1  0  0  0  0
 10 24  1  0  0  0  0
  9 22  1  0  0  0  0
  4 18  1  0  0  0  0
 18 19  2  0  0  0  0
  2  9  1  0  0  0  0
  9 11  2  0  0  0  0
 11 19  1  0  0  0  0
 11 16  1  0  0  0  0
M  CHG  1  15   1
M  END
> <Shapegauss>
-107.942917

$$$$
