stable:False satoms:7 tatoms:24 sratio:0.2916666666666667
  -OEChem-08062415503D

 43 45  0     1  0  0  0  0  0999 V2000
    6.3578   -5.1269   26.2672 C   0  0  0  0  0  0  0  0  0  0  0  0
    7.9842   -4.5419   26.0677 S   0  0  0  0  0  0  0  0  0  0  0  0
    8.8303   -5.7110   26.0646 O   0  0  0  0  0  0  0  0  0  0  0  0
    8.2737   -3.6793   27.1839 O   0  0  0  0  0  0  0  0  0  0  0  0
    7.9641   -3.7729   24.6592 N   0  0  0  0  0  0  0  0  0  0  0  0
    8.8371   -3.0700   24.2235 C   0  0  0  0  0  0  0  0  0  0  0  0
    9.3012   -2.0503   23.6369 C   0  0  0  0  0  0  0  0  0  0  0  0
   10.1935   -1.1820   23.5276 C   0  0  1  0  0  0  0  0  0  0  0  0
   10.8222   -0.1213   24.6174 C   0  0  0  0  0  0  0  0  0  0  0  0
   11.8584    0.1886   24.6664 C   0  0  0  0  0  0  0  0  0  0  0  0
   12.9997   -0.2707   23.8836 C   0  0  0  0  0  0  0  0  0  0  0  0
   12.6585   -1.2697   23.0592 C   0  0  0  0  0  0  0  0  0  0  0  0
   11.7356   -1.7838   22.8303 C   0  0  0  0  0  0  0  0  0  0  0  0
    9.6518   -0.6473   22.5876 C   0  0  2  0  0  0  0  0  0  0  0  0
    9.0387    0.0293   21.5897 C   0  0  0  0  0  0  0  0  0  0  0  0
    9.5372    1.0058   21.2541 O   0  0  0  0  0  0  0  0  0  0  0  0
    7.9557   -0.6050   21.1827 N   0  0  0  0  0  0  0  0  0  0  0  0
    7.2374   -0.1085   20.2480 C   0  0  0  0  0  0  0  0  0  0  0  0
    7.3895    0.0180   18.9150 C   0  0  0  0  0  0  0  0  0  0  0  0
    6.9932    0.4040   17.8645 N   0  0  0  0  0  0  0  0  0  0  0  0
    5.8083    0.9316   18.2755 C   0  0  0  0  0  0  0  0  0  0  0  0
    5.3413    0.9508   19.4396 C   0  0  0  0  0  0  0  0  0  0  0  0
    5.8577    0.4993   20.5727 C   0  0  0  0  0  0  0  0  0  0  0  0
    5.2778    0.5693   22.0250 C   0  0  0  0  0  0  0  0  0  0  0  0
    6.2783   -5.6735   27.2185 H   0  0  0  0  0  0  0  0  0  0  0  0
    5.6605   -4.2762   26.2739 H   0  0  0  0  0  0  0  0  0  0  0  0
    6.1060   -5.8009   25.4351 H   0  0  0  0  0  0  0  0  0  0  0  0
    7.1509   -3.1916   24.6900 H   0  0  0  0  0  0  0  0  0  0  0  0
    9.7304   -3.6221   24.4759 H   0  0  0  0  0  0  0  0  0  0  0  0
   10.1445    0.3011   25.3445 H   0  0  0  0  0  0  0  0  0  0  0  0
   12.0787    0.9481   25.4019 H   0  0  0  0  0  0  0  0  0  0  0  0
   13.9947    0.1426   23.9590 H   0  0  0  0  0  0  0  0  0  0  0  0
   13.4974   -1.6481   22.4939 H   0  0  0  0  0  0  0  0  0  0  0  0
   11.6214   -1.7650   21.7364 H   0  0  0  0  0  0  0  0  0  0  0  0
   11.8558   -2.8235   23.1686 H   0  0  0  0  0  0  0  0  0  0  0  0
   10.1861   -1.2867   21.8695 H   0  0  0  0  0  0  0  0  0  0  0  0
    7.6966   -1.4737   21.6049 H   0  0  0  0  0  0  0  0  0  0  0  0
    8.3287   -0.4681   18.6956 H   0  0  0  0  0  0  0  0  0  0  0  0
    5.1983    1.3874   17.5096 H   0  0  0  0  0  0  0  0  0  0  0  0
    4.3665    1.4064   19.5324 H   0  0  0  0  0  0  0  0  0  0  0  0
    4.6859   -0.3354   22.2280 H   0  0  0  0  0  0  0  0  0  0  0  0
    6.1050    0.6358   22.7471 H   0  0  0  0  0  0  0  0  0  0  0  0
    4.6352    1.4569   22.1207 H   0  0  0  0  0  0  0  0  0  0  0  0
 20 21  2  0  0  0  0
 19 20  1  0  0  0  0
 21 22  1  0  0  0  0
 18 19  2  0  0  0  0
 22 23  2  0  0  0  0
 18 23  1  0  0  0  0
 17 18  1  0  0  0  0
 23 24  1  0  0  0  0
 15 16  2  0  0  0  0
 15 17  1  0  0  0  0
 14 15  1  0  0  0  0
  8 14  1  0  0  0  0
  7 14  1  0  0  0  0
 12 13  1  0  0  0  0
  8 13  1  0  0  0  0
 11 12  2  0  0  0  0
  7  8  1  0  0  0  0
  8  9  1  0  0  0  0
 10 11  1  0  0  0  0
  6  7  2  3  0  0  0
  5  6  1  0  0  0  0
  9 10  2  0  0  0  0
  2  5  1  0  0  0  0
  2  3  2  0  0  0  0
  1  2  1  0  0  0  0
  2  4  2  0  0  0  0
  1 25  1  0  0  0  0
  1 26  1  0  0  0  0
  1 27  1  0  0  0  0
  5 28  1  0  0  0  0
  6 29  1  0  0  0  0
  9 30  1  0  0  0  0
 10 31  1  0  0  0  0
 11 32  1  0  0  0  0
 12 33  1  0  0  0  0
 13 34  1  0  0  0  0
 13 35  1  0  0  0  0
 14 36  1  0  0  0  0
 17 37  1  0  0  0  0
 19 38  1  0  0  0  0
 21 39  1  0  0  0  0
 22 40  1  0  0  0  0
 24 41  1  0  0  0  0
 24 42  1  0  0  0  0
 24 43  1  0  0  0  0
M  END
> <Chemgauss4>
-13.270874

$$$$
