stable:False satoms:7 tatoms:24 sratio:0.2916666666666667
  -OEChem-08062415503D

 43 45  0     1  0  0  0  0  0999 V2000
   -6.6991   -5.3008  -26.2553 C   0  0  0  0  0  0  0  0  0  0  0  0
   -8.3254   -4.7158  -26.0557 S   0  0  0  0  0  0  0  0  0  0  0  0
   -9.1715   -5.8849  -26.0527 O   0  0  0  0  0  0  0  0  0  0  0  0
   -8.6149   -3.8532  -27.1720 O   0  0  0  0  0  0  0  0  0  0  0  0
   -8.3054   -3.9468  -24.6473 N   0  0  0  0  0  0  0  0  0  0  0  0
   -9.1784   -3.2439  -24.2115 C   0  0  0  0  0  0  0  0  0  0  0  0
   -9.6425   -2.2242  -23.6250 C   0  0  0  0  0  0  0  0  0  0  0  0
  -10.5348   -1.3559  -23.5156 C   0  0  1  0  0  0  0  0  0  0  0  0
  -11.1635   -0.2951  -24.6054 C   0  0  0  0  0  0  0  0  0  0  0  0
  -12.1996    0.0147  -24.6544 C   0  0  0  0  0  0  0  0  0  0  0  0
  -13.3410   -0.4445  -23.8716 C   0  0  0  0  0  0  0  0  0  0  0  0
  -12.9998   -1.4435  -23.0473 C   0  0  0  0  0  0  0  0  0  0  0  0
  -12.0769   -1.9577  -22.8184 C   0  0  0  0  0  0  0  0  0  0  0  0
   -9.9931   -0.8212  -22.5757 C   0  0  2  0  0  0  0  0  0  0  0  0
   -9.3800   -0.1446  -21.5778 C   0  0  0  0  0  0  0  0  0  0  0  0
   -9.8785    0.8319  -21.2421 O   0  0  0  0  0  0  0  0  0  0  0  0
   -8.2970   -0.7789  -21.1708 N   0  0  0  0  0  0  0  0  0  0  0  0
   -7.5787   -0.2824  -20.2361 C   0  0  0  0  0  0  0  0  0  0  0  0
   -7.7308   -0.1559  -18.9031 C   0  0  0  0  0  0  0  0  0  0  0  0
   -7.3345    0.2301  -17.8526 N   0  0  0  0  0  0  0  0  0  0  0  0
   -6.1496    0.7577  -18.2636 C   0  0  0  0  0  0  0  0  0  0  0  0
   -5.6825    0.7769  -19.4277 C   0  0  0  0  0  0  0  0  0  0  0  0
   -6.1990    0.3254  -20.5607 C   0  0  0  0  0  0  0  0  0  0  0  0
   -5.6191    0.3954  -22.0131 C   0  0  0  0  0  0  0  0  0  0  0  0
   -6.6196   -5.8474  -27.2066 H   0  0  0  0  0  0  0  0  0  0  0  0
   -6.0017   -4.4501  -26.2620 H   0  0  0  0  0  0  0  0  0  0  0  0
   -6.4473   -5.9748  -25.4232 H   0  0  0  0  0  0  0  0  0  0  0  0
   -7.4922   -3.3655  -24.6780 H   0  0  0  0  0  0  0  0  0  0  0  0
  -10.0717   -3.7960  -24.4639 H   0  0  0  0  0  0  0  0  0  0  0  0
  -10.4857    0.1273  -25.3325 H   0  0  0  0  0  0  0  0  0  0  0  0
  -12.4200    0.7742  -25.3900 H   0  0  0  0  0  0  0  0  0  0  0  0
  -14.3359   -0.0313  -23.9471 H   0  0  0  0  0  0  0  0  0  0  0  0
  -13.8386   -1.8219  -22.4820 H   0  0  0  0  0  0  0  0  0  0  0  0
  -11.9626   -1.9389  -21.7245 H   0  0  0  0  0  0  0  0  0  0  0  0
  -12.1971   -2.9974  -23.1567 H   0  0  0  0  0  0  0  0  0  0  0  0
  -10.5274   -1.4606  -21.8576 H   0  0  0  0  0  0  0  0  0  0  0  0
   -8.0378   -1.6476  -21.5929 H   0  0  0  0  0  0  0  0  0  0  0  0
   -8.6699   -0.6420  -18.6837 H   0  0  0  0  0  0  0  0  0  0  0  0
   -5.5396    1.2135  -17.4977 H   0  0  0  0  0  0  0  0  0  0  0  0
   -4.7077    1.2325  -19.5205 H   0  0  0  0  0  0  0  0  0  0  0  0
   -5.0272   -0.5093  -22.2161 H   0  0  0  0  0  0  0  0  0  0  0  0
   -6.4462    0.4619  -22.7352 H   0  0  0  0  0  0  0  0  0  0  0  0
   -4.9765    1.2830  -22.1088 H   0  0  0  0  0  0  0  0  0  0  0  0
 20 21  2  0  0  0  0
 19 20  1  0  0  0  0
 21 22  1  0  0  0  0
 18 19  2  0  0  0  0
 22 23  2  0  0  0  0
 18 23  1  0  0  0  0
 17 18  1  0  0  0  0
 23 24  1  0  0  0  0
 15 16  2  0  0  0  0
 15 17  1  0  0  0  0
 14 15  1  0  0  0  0
  8 14  1  0  0  0  0
  7 14  1  0  0  0  0
 12 13  1  0  0  0  0
  8 13  1  0  0  0  0
 11 12  2  0  0  0  0
  7  8  1  0  0  0  0
  8  9  1  0  0  0  0
 10 11  1  0  0  0  0
  6  7  2  3  0  0  0
  5  6  1  0  0  0  0
  9 10  2  0  0  0  0
  2  5  1  0  0  0  0
  2  3  2  0  0  0  0
  1  2  1  0  0  0  0
  2  4  2  0  0  0  0
  1 25  1  0  0  0  0
  1 26  1  0  0  0  0
  1 27  1  0  0  0  0
  5 28  1  0  0  0  0
  6 29  1  0  0  0  0
  9 30  1  0  0  0  0
 10 31  1  0  0  0  0
 11 32  1  0  0  0  0
 12 33  1  0  0  0  0
 13 34  1  0  0  0  0
 13 35  1  0  0  0  0
 14 36  1  0  0  0  0
 17 37  1  0  0  0  0
 19 38  1  0  0  0  0
 21 39  1  0  0  0  0
 22 40  1  0  0  0  0
 24 41  1  0  0  0  0
 24 42  1  0  0  0  0
 24 43  1  0  0  0  0
M  END
> <Chemgauss4>
-12.842689

$$$$
