stable:False satoms:22 tatoms:24 sratio:0.9166666666666666
  -OEChem-07092417393D

 24 23  0     1  0  0  0  0  0999 V2000
    7.1112   -4.5724   26.4410 H   0  0  0  0  0  0  0  0  0  0  0  0
    8.1508   -4.2131   26.1720 C   0  0  0  0  0  0  0  0  0  0  0  0
    8.8359   -5.0977   26.1328 H   0  0  0  0  0  0  0  0  0  0  0  0
    8.4987   -3.5508   27.0054 H   0  0  0  0  0  0  0  0  0  0  0  0
    8.1173   -3.5261   24.9517 N   0  0  0  0  0  0  0  0  0  0  0  0
    9.0756   -2.9511   24.3251 N   0  0  0  0  0  0  0  0  0  0  0  0
    9.6319   -2.0535   23.9652 C   0  0  0  0  0  0  0  0  0  0  0  0
   10.4331   -0.9249   23.4200 C   0  0  1  0  0  0  0  0  0  0  0  0
   10.2757   -0.0716   24.0718 H   0  0  0  0  0  0  0  0  0  0  0  0
   12.4766   -0.8582   24.1817 H   0  0  0  0  0  0  0  0  0  0  0  0
   12.4121   -0.1070   22.6436 H   0  0  0  0  0  0  0  0  0  0  0  0
   12.0263   -0.9470   23.1996 C   0  0  0  0  0  0  0  0  0  0  0  0
   12.1779   -1.8644   22.6496 H   0  0  0  0  0  0  0  0  0  0  0  0
    9.8625   -0.9048   22.1740 O   0  0  0  0  0  0  0  0  0  0  0  0
    9.1935    0.0515   21.5413 C   0  0  0  0  0  0  0  0  0  0  0  0
    9.5699    1.1875   21.4199 O   0  0  0  0  0  0  0  0  0  0  0  0
    8.0144   -0.5045   21.1404 N   0  0  0  0  0  0  0  0  0  0  0  0
    7.4547   -0.0130   20.0390 C   0  0  0  0  0  0  0  0  0  0  0  0
    8.0809   -0.1541   19.0273 O   0  0  0  0  0  0  0  0  0  0  0  0
    6.1629    0.4660   17.9713 H   0  0  0  0  0  0  0  0  0  0  0  0
    5.6006    0.7583   18.8678 C   0  0  0  0  0  0  0  0  0  0  0  0
    4.6532    1.2242   18.7801 H   0  0  0  0  0  0  0  0  0  0  0  0
    6.1131    0.5584   20.1053 C   0  0  0  0  0  0  0  0  0  0  0  0
    5.6552    0.7782   21.0708 H   0  0  0  0  0  0  0  0  0  0  0  0
 20 21  1  0  0  0  0
 21 22  1  0  0  0  0
 21 23  2  0  0  0  0
 18 19  2  0  0  0  0
 18 23  1  0  0  0  0
 17 18  1  0  0  0  0
 23 24  1  0  0  0  0
 15 17  1  0  0  0  0
 15 16  2  0  0  0  0
 14 15  1  0  0  0  0
  8 14  1  0  0  0  0
 11 12  1  0  0  0  0
 12 13  1  0  0  0  0
  8 12  1  0  0  0  0
 10 12  1  0  0  0  0
  7  8  1  0  0  0  0
  8  9  1  0  0  0  0
  6  7  1  0  0  0  0
  5  6  2  3  0  0  0
  2  5  1  0  0  0  0
  2  3  1  0  0  0  0
  1  2  1  0  0  0  0
  2  4  1  0  0  0  0
M  END
> <Shapegauss>
-163.903931

$$$$
