stable:False satoms:22 tatoms:24 sratio:0.9166666666666666
  -OEChem-08062404033D

 26 25  0     1  0  0  0  0  0999 V2000
    6.3037   -5.1927   25.1121 H   0  0  0  0  0  0  0  0  0  0  0  0
    7.3370   -4.7360   25.0341 C   0  0  0  0  0  0  0  0  0  0  0  0
    8.0935   -5.5613   25.0322 H   0  0  0  0  0  0  0  0  0  0  0  0
    7.5011   -4.1271   25.9596 H   0  0  0  0  0  0  0  0  0  0  0  0
    7.4241   -3.9473   23.8798 N   0  0  0  0  0  0  0  0  0  0  0  0
    8.4111   -3.2504   23.4537 N   0  0  0  0  0  0  0  0  0  0  0  0
    8.9354   -2.2861   23.2536 C   0  0  0  0  0  0  0  0  0  0  0  0
    9.7084   -1.0580   22.9263 C   0  0  1  0  0  0  0  0  0  0  0  0
    9.3848   -0.2799   23.6102 H   0  0  0  0  0  0  0  0  0  0  0  0
   11.6049   -0.9106   23.9949 H   0  0  0  0  0  0  0  0  0  0  0  0
   11.7025   -0.0320   22.5277 H   0  0  0  0  0  0  0  0  0  0  0  0
   11.3127   -0.9441   22.9515 C   0  0  0  0  0  0  0  0  0  0  0  0
   11.6211   -1.7953   22.3621 H   0  0  0  0  0  0  0  0  0  0  0  0
    9.3269   -0.9685   21.6129 O   0  0  0  0  0  0  0  0  0  0  0  0
    8.6786   -0.0110   20.9609 C   0  0  0  0  0  0  0  0  0  0  0  0
    8.9702    1.1557   20.9866 O   0  0  0  0  0  0  0  0  0  0  0  0
    7.6229   -0.6135   20.3424 N   0  5  0  0  0  0  0  0  0  0  0  0
    7.1907   -0.0679   19.2095 C   0  0  0  0  0  0  0  0  0  0  0  0
    7.9682   -0.0722   18.2978 O   0  0  0  0  0  0  0  0  0  0  0  0
    6.1797    0.4980   17.0115 H   0  0  0  0  0  0  0  0  0  0  0  0
    5.4692    0.6674   17.8311 C   0  0  0  0  0  0  0  0  0  0  0  0
    4.5086    1.0690   17.6355 H   0  0  0  0  0  0  0  0  0  0  0  0
    5.8100    0.3959   19.1133 C   0  0  0  0  0  0  0  0  0  0  0  0
    5.1984    0.4948   20.0113 H   0  0  0  0  0  0  0  0  0  0  0  0
    9.0187   -2.0803   24.3309 H   0  0  0  0  0  0  0  0  0  0  0  0
    8.0100   -1.8361   22.8649 H   0  0  0  0  0  0  0  0  0  0  0  0
 20 21  1  0  0  0  0
 21 22  1  0  0  0  0
 21 23  2  0  0  0  0
 18 19  2  0  0  0  0
 18 23  1  0  0  0  0
 17 18  1  0  0  0  0
 23 24  1  0  0  0  0
 15 17  1  0  0  0  0
 15 16  2  0  0  0  0
 14 15  1  0  0  0  0
  8 14  1  0  0  0  0
 11 12  1  0  0  0  0
 12 13  1  0  0  0  0
  8 12  1  0  0  0  0
 10 12  1  0  0  0  0
  7  8  1  0  0  0  0
  8  9  1  0  0  0  0
  6  7  1  0  0  0  0
  5  6  2  3  0  0  0
  2  5  1  0  0  0  0
  2  3  1  0  0  0  0
  1  2  1  0  0  0  0
  2  4  1  0  0  0  0
  7 25  1  0  0  0  0
  7 26  1  0  0  0  0
M  CHG  1  17  -1
M  END
> <Chemgauss4>
-5.958452

$$$$
