stable:False satoms:22 tatoms:24 sratio:0.9166666666666666
  -OEChem-08062404033D

 26 25  0     1  0  0  0  0  0999 V2000
   -6.7156   -5.3265  -25.1955 H   0  0  0  0  0  0  0  0  0  0  0  0
   -7.7488   -4.8698  -25.1175 C   0  0  0  0  0  0  0  0  0  0  0  0
   -8.5053   -5.6951  -25.1155 H   0  0  0  0  0  0  0  0  0  0  0  0
   -7.9129   -4.2609  -26.0429 H   0  0  0  0  0  0  0  0  0  0  0  0
   -7.8359   -4.0811  -23.9631 N   0  0  0  0  0  0  0  0  0  0  0  0
   -8.8230   -3.3842  -23.5370 N   0  0  0  0  0  0  0  0  0  0  0  0
   -9.3472   -2.4199  -23.3369 C   0  0  0  0  0  0  0  0  0  0  0  0
  -10.1202   -1.1918  -23.0096 C   0  0  1  0  0  0  0  0  0  0  0  0
   -9.7966   -0.4137  -23.6935 H   0  0  0  0  0  0  0  0  0  0  0  0
  -12.0167   -1.0444  -24.0783 H   0  0  0  0  0  0  0  0  0  0  0  0
  -12.1144   -0.1658  -22.6110 H   0  0  0  0  0  0  0  0  0  0  0  0
  -11.7245   -1.0779  -23.0349 C   0  0  0  0  0  0  0  0  0  0  0  0
  -12.0329   -1.9291  -22.4455 H   0  0  0  0  0  0  0  0  0  0  0  0
   -9.7388   -1.1023  -21.6962 O   0  0  0  0  0  0  0  0  0  0  0  0
   -9.0904   -0.1448  -21.0442 C   0  0  0  0  0  0  0  0  0  0  0  0
   -9.3820    1.0219  -21.0699 O   0  0  0  0  0  0  0  0  0  0  0  0
   -8.0347   -0.7473  -20.4257 N   0  5  0  0  0  0  0  0  0  0  0  0
   -7.6025   -0.2017  -19.2928 C   0  0  0  0  0  0  0  0  0  0  0  0
   -8.3800   -0.2060  -18.3812 O   0  0  0  0  0  0  0  0  0  0  0  0
   -6.5915    0.3642  -17.0948 H   0  0  0  0  0  0  0  0  0  0  0  0
   -5.8810    0.5336  -17.9144 C   0  0  0  0  0  0  0  0  0  0  0  0
   -4.9204    0.9352  -17.7188 H   0  0  0  0  0  0  0  0  0  0  0  0
   -6.2218    0.2621  -19.1967 C   0  0  0  0  0  0  0  0  0  0  0  0
   -5.6103    0.3610  -20.0947 H   0  0  0  0  0  0  0  0  0  0  0  0
   -9.4306   -2.2141  -24.4143 H   0  0  0  0  0  0  0  0  0  0  0  0
   -8.4218   -1.9699  -22.9482 H   0  0  0  0  0  0  0  0  0  0  0  0
 20 21  1  0  0  0  0
 21 22  1  0  0  0  0
 21 23  2  0  0  0  0
 18 19  2  0  0  0  0
 18 23  1  0  0  0  0
 17 18  1  0  0  0  0
 23 24  1  0  0  0  0
 15 17  1  0  0  0  0
 15 16  2  0  0  0  0
 14 15  1  0  0  0  0
  8 14  1  0  0  0  0
 11 12  1  0  0  0  0
 12 13  1  0  0  0  0
  8 12  1  0  0  0  0
 10 12  1  0  0  0  0
  7  8  1  0  0  0  0
  8  9  1  0  0  0  0
  6  7  1  0  0  0  0
  5  6  2  3  0  0  0
  2  5  1  0  0  0  0
  2  3  1  0  0  0  0
  1  2  1  0  0  0  0
  2  4  1  0  0  0  0
  7 25  1  0  0  0  0
  7 26  1  0  0  0  0
M  CHG  1  17  -1
M  END
> <Chemgauss4>
-5.865262

$$$$
