REMARK  1 active torsions:
REMARK  status: ('A' for Active; 'I' for Inactive)
REMARK    1  A    between atoms: O_2  and  C_7 
ROOT
HETATM    1  N   UNL     1       9.697  -2.160  22.935  1.00  0.00    -0.263 NA
HETATM    2  C   UNL     1       6.553  -1.676  24.738  1.00  0.00     0.002 C 
HETATM    3  C   UNL     1       7.887  -1.991  24.583  1.00  0.00     0.026 C 
HETATM    4  C   UNL     1       8.452  -1.736  23.325  1.00  0.00     0.044 C 
HETATM    5  C   UNL     1      10.670  -1.180  22.945  1.00  0.00     0.223 C 
HETATM    6  C   UNL     1       5.838  -1.186  23.656  1.00  0.00     0.003 C 
HETATM    7  N   UNL     1      10.259  -0.059  20.624  1.00  0.00     0.110 NA
HETATM    8  C   UNL     1       7.716  -1.079  22.290  1.00  0.00     0.092 C 
HETATM    9  H   UNL     1       9.802  -2.574  22.015  1.00  0.00     0.130 HD
HETATM   10  C   UNL     1      11.125  -0.541  21.658  1.00  0.00     0.319 C 
HETATM   11  O   UNL     1       8.147  -0.437  21.223  1.00  0.00    -0.320 OA
HETATM   12  C   UNL     1       9.062  -0.802  20.269  1.00  0.00     0.444 C 
HETATM   13  H   UNL     1       9.763   0.825  20.637  1.00  0.00     0.318 HD
HETATM   14  C   UNL     1       6.342  -1.002  22.420  1.00  0.00     0.039 C 
ENDROOT
BRANCH   5  15
HETATM   15  O   UNL     1      11.120  -0.929  24.107  1.00  0.00    -0.379 OA
HETATM   16  H   UNL     1      10.638  -1.428  24.753  1.00  0.00     0.211 HD
ENDBRANCH   5  15
TORSDOF 1
