MODEL 1
REMARK VINA RESULT:    -5.912      0.000      0.000
REMARK INTER + INTRA:          -6.085
REMARK INTER:                  -6.085
REMARK INTRA:                   0.000
REMARK UNBOUND:                 0.000
REMARK  1 active torsions:
REMARK  status: ('A' for Active; 'I' for Inactive)
REMARK    1  A    between atoms: O_2  and  C_7 
ROOT
HETATM    1  N   UNL     1       2.206 -19.319   7.542  1.00  0.00    -0.263 NA
HETATM    2  C   UNL     1       3.753 -22.599   8.013  1.00  0.00     0.002 C 
HETATM    3  C   UNL     1       3.686 -21.274   7.635  1.00  0.00     0.026 C 
HETATM    4  C   UNL     1       2.526 -20.574   7.996  1.00  0.00     0.044 C 
HETATM    5  C   UNL     1       2.424 -18.304   8.452  1.00  0.00     0.223 C 
HETATM    6  C   UNL     1       2.675 -23.176   8.667  1.00  0.00     0.003 C 
HETATM    7  N   UNL     1       0.224 -18.423   9.852  1.00  0.00     0.110 NA
HETATM    8  C   UNL     1       1.512 -21.168   8.811  1.00  0.00     0.092 C 
HETATM    9  H   UNL     1       1.257 -19.144   7.229  1.00  0.00     0.130 HD
HETATM   10  C   UNL     1       1.270 -17.690   9.203  1.00  0.00     0.319 C 
HETATM   11  O   UNL     1       0.574 -20.600   9.541  1.00  0.00    -0.320 OA
HETATM   12  C   UNL     1      -0.327 -19.614   9.230  1.00  0.00     0.444 C 
HETATM   13  H   UNL     1       0.296 -18.872  10.758  1.00  0.00     0.318 HD
HETATM   14  C   UNL     1       1.522 -22.543   8.958  1.00  0.00     0.039 C 
ENDROOT
BRANCH   5  15
HETATM   15  O   UNL     1       3.644 -17.960   8.541  1.00  0.00    -0.379 OA
HETATM   16  H   UNL     1       3.976 -18.173   9.403  1.00  0.00     0.211 HD
ENDBRANCH   5  15
TORSDOF 1
ENDMDL
MODEL 2
REMARK VINA RESULT:    -5.397     32.070     34.308
REMARK INTER + INTRA:          -5.555
REMARK INTER:                  -5.555
REMARK INTRA:                   0.000
REMARK UNBOUND:                 0.000
REMARK  1 active torsions:
REMARK  status: ('A' for Active; 'I' for Inactive)
REMARK    1  A    between atoms: O_2  and  C_7 
ROOT
HETATM    1  N   UNL     1       7.506  12.663   4.287  1.00  0.00    -0.263 NA
HETATM    2  C   UNL     1      10.079  14.813   2.827  1.00  0.00     0.002 C 
HETATM    3  C   UNL     1       9.526  13.948   3.749  1.00  0.00     0.026 C 
HETATM    4  C   UNL     1       8.286  13.383   3.418  1.00  0.00     0.044 C 
HETATM    5  C   UNL     1       7.544  11.295   4.098  1.00  0.00     0.223 C 
HETATM    6  C   UNL     1       9.376  15.118   1.672  1.00  0.00     0.003 C 
HETATM    7  N   UNL     1       5.783  11.015   2.192  1.00  0.00     0.110 NA
HETATM    8  C   UNL     1       7.677  13.603   2.143  1.00  0.00     0.092 C 
HETATM    9  H   UNL     1       6.512  12.859   4.323  1.00  0.00     0.130 HD
HETATM   10  C   UNL     1       6.407  10.587   3.408  1.00  0.00     0.319 C 
HETATM   11  O   UNL     1       6.751  12.904   1.517  1.00  0.00    -0.320 OA
HETATM   12  C   UNL     1       5.542  12.428   1.954  1.00  0.00     0.444 C 
HETATM   13  H   UNL     1       6.154  10.874   1.259  1.00  0.00     0.318 HD
HETATM   14  C   UNL     1       8.151  14.644   1.368  1.00  0.00     0.039 C 
ENDROOT
BRANCH   5  15
HETATM   15  O   UNL     1       8.586  10.749   4.580  1.00  0.00    -0.379 OA
HETATM   16  H   UNL     1       8.601  10.861   5.522  1.00  0.00     0.211 HD
ENDBRANCH   5  15
TORSDOF 1
ENDMDL
MODEL 3
REMARK VINA RESULT:    -5.382     25.263     26.749
REMARK INTER + INTRA:          -5.539
REMARK INTER:                  -5.539
REMARK INTRA:                   0.000
REMARK UNBOUND:                 0.000
REMARK  1 active torsions:
REMARK  status: ('A' for Active; 'I' for Inactive)
REMARK    1  A    between atoms: O_2  and  C_7 
ROOT
HETATM    1  N   UNL     1       9.310  -0.248  22.696  1.00  0.00    -0.263 NA
HETATM    2  C   UNL     1      12.693  -1.537  23.208  1.00  0.00     0.002 C 
HETATM    3  C   UNL     1      11.423  -1.495  22.671  1.00  0.00     0.026 C 
HETATM    4  C   UNL     1      10.647  -0.368  22.978  1.00  0.00     0.044 C 
HETATM    5  C   UNL     1       9.020   0.548  21.605  1.00  0.00     0.223 C 
HETATM    6  C   UNL     1      13.112  -0.518  24.048  1.00  0.00     0.003 C 
HETATM    7  N   UNL     1       9.061   2.915  22.703  1.00  0.00     0.110 NA
HETATM    8  C   UNL     1      11.181   0.734  23.716  1.00  0.00     0.092 C 
HETATM    9  H   UNL     1       8.693   0.117  23.413  1.00  0.00     0.130 HD
HETATM   10  C   UNL     1       8.508   1.952  21.798  1.00  0.00     0.319 C 
HETATM   11  O   UNL     1      10.770   1.984  23.787  1.00  0.00    -0.320 OA
HETATM   12  C   UNL     1       9.521   2.502  24.018  1.00  0.00     0.444 C 
HETATM   13  H   UNL     1       9.892   3.471  22.535  1.00  0.00     0.318 HD
HETATM   14  C   UNL     1      12.358   0.537  24.415  1.00  0.00     0.039 C 
ENDROOT
BRANCH   5  15
HETATM   15  O   UNL     1       9.202  -0.037  20.492  1.00  0.00    -0.379 OA
HETATM   16  H   UNL     1       9.377   0.604  19.816  1.00  0.00     0.211 HD
ENDBRANCH   5  15
TORSDOF 1
ENDMDL
MODEL 4
REMARK VINA RESULT:    -5.380     24.053     25.688
REMARK INTER + INTRA:          -5.538
REMARK INTER:                  -5.538
REMARK INTRA:                   0.000
REMARK UNBOUND:                 0.000
REMARK  1 active torsions:
REMARK  status: ('A' for Active; 'I' for Inactive)
REMARK    1  A    between atoms: O_2  and  C_7 
ROOT
HETATM    1  N   UNL     1       7.053   1.814  22.189  1.00  0.00    -0.263 NA
HETATM    2  C   UNL     1       4.693   1.762  19.397  1.00  0.00     0.002 C 
HETATM    3  C   UNL     1       5.249   2.214  20.575  1.00  0.00     0.026 C 
HETATM    4  C   UNL     1       6.462   1.629  20.965  1.00  0.00     0.044 C 
HETATM    5  C   UNL     1       8.123   2.687  22.187  1.00  0.00     0.223 C 
HETATM    6  C   UNL     1       5.315   0.738  18.698  1.00  0.00     0.003 C 
HETATM    7  N   UNL     1      10.050   1.097  21.430  1.00  0.00     0.110 NA
HETATM    8  C   UNL     1       7.147   0.693  20.129  1.00  0.00     0.092 C 
HETATM    9  H   UNL     1       7.422   1.004  22.676  1.00  0.00     0.130 HD
HETATM   10  C   UNL     1       9.536   2.164  22.235  1.00  0.00     0.319 C 
HETATM   11  O   UNL     1       8.414   0.329  20.128  1.00  0.00    -0.320 OA
HETATM   12  C   UNL     1       9.230  -0.070  21.156  1.00  0.00     0.444 C 
HETATM   13  H   UNL     1      10.341   1.178  20.463  1.00  0.00     0.318 HD
HETATM   14  C   UNL     1       6.442   0.112  19.092  1.00  0.00     0.039 C 
ENDROOT
BRANCH   5  15
HETATM   15  O   UNL     1       7.776   3.909  22.171  1.00  0.00    -0.379 OA
HETATM   16  H   UNL     1       8.534   4.461  22.313  1.00  0.00     0.211 HD
ENDBRANCH   5  15
TORSDOF 1
ENDMDL
MODEL 5
REMARK VINA RESULT:    -5.251     23.243     25.282
REMARK INTER + INTRA:          -5.404
REMARK INTER:                  -5.404
REMARK INTRA:                   0.000
REMARK UNBOUND:                 0.000
REMARK  1 active torsions:
REMARK  status: ('A' for Active; 'I' for Inactive)
REMARK    1  A    between atoms: O_2  and  C_7 
ROOT
HETATM    1  N   UNL     1       6.973  -0.084  20.254  1.00  0.00    -0.263 NA
HETATM    2  C   UNL     1       8.806   2.180  22.463  1.00  0.00     0.002 C 
HETATM    3  C   UNL     1       8.630   1.104  21.619  1.00  0.00     0.026 C 
HETATM    4  C   UNL     1       7.391   1.009  20.970  1.00  0.00     0.044 C 
HETATM    5  C   UNL     1       7.046   0.062  18.882  1.00  0.00     0.223 C 
HETATM    6  C   UNL     1       7.759   3.065  22.667  1.00  0.00     0.003 C 
HETATM    7  N   UNL     1       4.802   1.306  18.404  1.00  0.00     0.110 NA
HETATM    8  C   UNL     1       6.401   2.034  21.087  1.00  0.00     0.092 C 
HETATM    9  H   UNL     1       6.029  -0.425  20.396  1.00  0.00     0.130 HD
HETATM   10  C   UNL     1       5.802   0.335  18.076  1.00  0.00     0.319 C 
HETATM   11  O   UNL     1       5.377   2.314  20.306  1.00  0.00    -0.320 OA
HETATM   12  C   UNL     1       4.401   1.503  19.787  1.00  0.00     0.444 C 
HETATM   13  H   UNL     1       4.872   2.303  18.234  1.00  0.00     0.318 HD
HETATM   14  C   UNL     1       6.537   2.953  22.111  1.00  0.00     0.039 C 
ENDROOT
BRANCH   5  15
HETATM   15  O   UNL     1       8.221  -0.086  18.421  1.00  0.00    -0.379 OA
HETATM   16  H   UNL     1       8.329  -0.969  18.095  1.00  0.00     0.211 HD
ENDBRANCH   5  15
TORSDOF 1
ENDMDL
MODEL 6
REMARK VINA RESULT:    -5.225     22.160     23.246
REMARK INTER + INTRA:          -5.378
REMARK INTER:                  -5.378
REMARK INTRA:                   0.000
REMARK UNBOUND:                 0.000
REMARK  1 active torsions:
REMARK  status: ('A' for Active; 'I' for Inactive)
REMARK    1  A    between atoms: O_2  and  C_7 
ROOT
HETATM    1  N   UNL     1       6.012  -0.962  21.341  1.00  0.00    -0.263 NA
HETATM    2  C   UNL     1       6.256  -4.273  22.872  1.00  0.00     0.002 C 
HETATM    3  C   UNL     1       5.665  -3.246  22.166  1.00  0.00     0.026 C 
HETATM    4  C   UNL     1       6.476  -2.143  21.861  1.00  0.00     0.044 C 
HETATM    5  C   UNL     1       6.247  -0.794  19.990  1.00  0.00     0.223 C 
HETATM    6  C   UNL     1       7.573  -4.147  23.285  1.00  0.00     0.003 C 
HETATM    7  N   UNL     1       8.694   0.114  20.029  1.00  0.00     0.110 NA
HETATM    8  C   UNL     1       7.872  -2.130  22.167  1.00  0.00     0.092 C 
HETATM    9  H   UNL     1       6.348  -0.092  21.739  1.00  0.00     0.130 HD
HETATM   10  C   UNL     1       7.358   0.107  19.514  1.00  0.00     0.319 C 
HETATM   11  O   UNL     1       8.842  -1.398  21.658  1.00  0.00    -0.320 OA
HETATM   12  C   UNL     1       8.928  -0.044  21.454  1.00  0.00     0.444 C 
HETATM   13  H   UNL     1       9.420  -0.551  19.789  1.00  0.00     0.318 HD
HETATM   14  C   UNL     1       8.348  -3.066  23.067  1.00  0.00     0.039 C 
ENDROOT
BRANCH   5  15
HETATM   15  O   UNL     1       5.434  -1.436  19.254  1.00  0.00    -0.379 OA
HETATM   16  H   UNL     1       5.396  -1.039  18.394  1.00  0.00     0.211 HD
ENDBRANCH   5  15
TORSDOF 1
ENDMDL
MODEL 7
REMARK VINA RESULT:    -5.185      1.456      4.133
REMARK INTER + INTRA:          -5.336
REMARK INTER:                  -5.336
REMARK INTRA:                   0.000
REMARK UNBOUND:                 0.000
REMARK  1 active torsions:
REMARK  status: ('A' for Active; 'I' for Inactive)
REMARK    1  A    between atoms: O_2  and  C_7 
ROOT
HETATM    1  N   UNL     1       2.116 -18.871  10.039  1.00  0.00    -0.263 NA
HETATM    2  C   UNL     1      -0.611 -16.521   9.400  1.00  0.00     0.002 C 
HETATM    3  C   UNL     1       0.661 -16.915   9.759  1.00  0.00     0.026 C 
HETATM    4  C   UNL     1       0.979 -18.267   9.566  1.00  0.00     0.044 C 
HETATM    5  C   UNL     1       3.094 -19.087   9.088  1.00  0.00     0.223 C 
HETATM    6  C   UNL     1      -1.510 -17.465   8.928  1.00  0.00     0.003 C 
HETATM    7  N   UNL     1       2.269 -21.329   8.039  1.00  0.00     0.110 NA
HETATM    8  C   UNL     1       0.072 -19.168   8.924  1.00  0.00     0.092 C 
HETATM    9  H   UNL     1       2.033 -19.776  10.489  1.00  0.00     0.130 HD
HETATM   10  C   UNL     1       3.307 -20.462   8.509  1.00  0.00     0.319 C 
HETATM   11  O   UNL     1       0.304 -20.323   8.333  1.00  0.00    -0.320 OA
HETATM   12  C   UNL     1       1.010 -21.419   8.759  1.00  0.00     0.444 C 
HETATM   13  H   UNL     1       1.805 -21.258   7.141  1.00  0.00     0.318 HD
HETATM   14  C   UNL     1      -1.249 -18.781   8.803  1.00  0.00     0.039 C 
ENDROOT
BRANCH   5  15
HETATM   15  O   UNL     1       3.764 -18.043   8.810  1.00  0.00    -0.379 OA
HETATM   16  H   UNL     1       4.682 -18.265   8.721  1.00  0.00     0.211 HD
ENDBRANCH   5  15
TORSDOF 1
ENDMDL
MODEL 8
REMARK VINA RESULT:    -5.034     21.535     22.899
REMARK INTER + INTRA:          -5.181
REMARK INTER:                  -5.181
REMARK INTRA:                   0.000
REMARK UNBOUND:                 0.000
REMARK  1 active torsions:
REMARK  status: ('A' for Active; 'I' for Inactive)
REMARK    1  A    between atoms: O_2  and  C_7 
ROOT
HETATM    1  N   UNL     1       6.575  -4.093  25.245  1.00  0.00    -0.263 NA
HETATM    2  C   UNL     1       4.134  -5.995  23.297  1.00  0.00     0.002 C 
HETATM    3  C   UNL     1       5.118  -5.055  23.520  1.00  0.00     0.026 C 
HETATM    4  C   UNL     1       5.724  -5.066  24.785  1.00  0.00     0.044 C 
HETATM    5  C   UNL     1       7.912  -4.438  25.224  1.00  0.00     0.223 C 
HETATM    6  C   UNL     1       3.760  -6.848  24.324  1.00  0.00     0.003 C 
HETATM    7  N   UNL     1       8.113  -5.757  27.467  1.00  0.00     0.110 NA
HETATM    8  C   UNL     1       5.419  -6.071  25.756  1.00  0.00     0.092 C 
HETATM    9  H   UNL     1       6.447  -3.743  26.188  1.00  0.00     0.130 HD
HETATM   10  C   UNL     1       8.619  -4.837  26.493  1.00  0.00     0.319 C 
HETATM   11  O   UNL     1       6.109  -6.470  26.805  1.00  0.00    -0.320 OA
HETATM   12  C   UNL     1       6.701  -5.751  27.812  1.00  0.00     0.444 C 
HETATM   13  H   UNL     1       8.138  -6.768  27.390  1.00  0.00     0.318 HD
HETATM   14  C   UNL     1       4.278  -6.828  25.568  1.00  0.00     0.039 C 
ENDROOT
BRANCH   5  15
HETATM   15  O   UNL     1       8.437  -4.351  24.069  1.00  0.00    -0.379 OA
HETATM   16  H   UNL     1       8.838  -3.499  23.962  1.00  0.00     0.211 HD
ENDBRANCH   5  15
TORSDOF 1
ENDMDL
MODEL 9
REMARK VINA RESULT:    -5.026     21.327     22.883
REMARK INTER + INTRA:          -5.173
REMARK INTER:                  -5.173
REMARK INTRA:                   0.000
REMARK UNBOUND:                 0.000
REMARK  1 active torsions:
REMARK  status: ('A' for Active; 'I' for Inactive)
REMARK    1  A    between atoms: O_2  and  C_7 
ROOT
HETATM    1  N   UNL     1       6.960  -4.452  26.195  1.00  0.00    -0.263 NA
HETATM    2  C   UNL     1       7.393  -5.056  22.615  1.00  0.00     0.002 C 
HETATM    3  C   UNL     1       7.730  -4.593  23.870  1.00  0.00     0.026 C 
HETATM    4  C   UNL     1       6.890  -4.971  24.927  1.00  0.00     0.044 C 
HETATM    5  C   UNL     1       7.565  -5.275  27.124  1.00  0.00     0.223 C 
HETATM    6  C   UNL     1       6.240  -5.809  22.454  1.00  0.00     0.003 C 
HETATM    7  N   UNL     1       5.561  -6.807  27.797  1.00  0.00     0.110 NA
HETATM    8  C   UNL     1       5.806  -5.883  24.736  1.00  0.00     0.092 C 
HETATM    9  H   UNL     1       6.098  -4.184  26.657  1.00  0.00     0.130 HD
HETATM   10  C   UNL     1       6.734  -6.049  28.116  1.00  0.00     0.319 C 
HETATM   11  O   UNL     1       5.162  -6.626  25.613  1.00  0.00    -0.320 OA
HETATM   12  C   UNL     1       4.607  -6.302  26.825  1.00  0.00     0.444 C 
HETATM   13  H   UNL     1       5.554  -7.736  27.392  1.00  0.00     0.318 HD
HETATM   14  C   UNL     1       5.381  -6.123  23.443  1.00  0.00     0.039 C 
ENDROOT
BRANCH   5  15
HETATM   15  O   UNL     1       8.834  -5.269  27.053  1.00  0.00    -0.379 OA
HETATM   16  H   UNL     1       9.140  -6.094  26.701  1.00  0.00     0.211 HD
ENDBRANCH   5  15
TORSDOF 1
ENDMDL
