REMARK  10 active torsions:
REMARK  status: ('A' for Active; 'I' for Inactive)
REMARK    1  A    between atoms: S_2  and  N_5 
REMARK    2  A    between atoms: N_5  and  C_7 
REMARK    3  A    between atoms: C_7  and  C_8 
REMARK    4  A    between atoms: C_9  and  C_15 
REMARK    5  A    between atoms: C_9  and  C_10 
REMARK    6  A    between atoms: C_10  and  C_11 
REMARK    7  A    between atoms: C_11  and  C_12 
REMARK    8  A    between atoms: C_12  and  C_13 
REMARK    9  A    between atoms: C_15  and  C_16 
REMARK       I    between atoms: C_16  and  N_18 
REMARK   10  A    between atoms: N_18  and  C_20 
ROOT
HETATM    1  C   UNL     1       9.400  -2.003  23.561  1.00  0.00     0.038 C 
HETATM    2  C   UNL     1      10.267  -1.076  23.308  1.00  0.00     0.016 C 
ENDROOT
BRANCH   2   3
HETATM    3  C   UNL     1       9.719  -0.567  22.359  1.00  0.00    -0.044 C 
BRANCH   3   4
HETATM    4  C   UNL     1       9.060   0.035  21.373  1.00  0.00     0.293 C 
HETATM    5  O   UNL     1       9.536   0.979  20.913  1.00  0.00    -0.258 OA
HETATM    6  N   UNL     1       7.901  -0.576  21.087  1.00  0.00    -0.317 N 
ATOM      7  HN  UNL     1       7.597  -1.397  21.611  1.00  0.00     0.169 HD
BRANCH   6   8
HETATM    8  C   UNL     1       7.207  -0.113  20.165  1.00  0.00     0.046 A 
HETATM    9  C   UNL     1       7.173   0.007  18.878  1.00  0.00     0.154 A 
HETATM   10  N   UNL     1       6.783   0.285  17.749  1.00  0.00    -0.400 N 
HETATM   11  C   UNL     1       5.686   0.843  18.276  1.00  0.00     0.129 A 
ATOM     12  HN  UNL     1       7.143   0.148  16.805  1.00  0.00     0.154 HD
HETATM   13  C   UNL     1       5.259   0.987  19.383  1.00  0.00     0.012 A 
HETATM   14  C   UNL     1       5.786   0.609  20.558  1.00  0.00    -0.022 A 
HETATM   15  C   UNL     1       5.311   0.731  21.856  1.00  0.00     0.025 C 
ENDBRANCH   6   8
ENDBRANCH   3   4
ENDBRANCH   2   3
BRANCH   2  16
HETATM   16  C   UNL     1      11.049  -0.003  24.308  1.00  0.00     0.020 C 
BRANCH  16  17
HETATM   17  C   UNL     1      12.101   0.287  24.259  1.00  0.00     0.001 C 
BRANCH  17  18
HETATM   18  C   UNL     1      13.195  -0.149  23.479  1.00  0.00    -0.001 C 
BRANCH  18  19
HETATM   19  C   UNL     1      12.727  -1.260  22.709  1.00  0.00    -0.010 C 
HETATM   20  C   UNL     1      11.864  -1.765  22.539  1.00  0.00     0.011 C 
ENDBRANCH  18  19
ENDBRANCH  17  18
ENDBRANCH  16  17
ENDBRANCH   2  16
BRANCH   1  21
HETATM   21  C   UNL     1       8.943  -2.885  24.129  1.00  0.00     0.101 C 
BRANCH  21  22
HETATM   22  N   UNL     1       8.151  -3.546  24.662  1.00  0.00    -0.295 N 
ATOM     23  HN  UNL     1       7.273  -3.668  24.158  1.00  0.00     0.177 HD
BRANCH  22  24
HETATM   24  S   UNL     1       8.245  -4.318  26.123  1.00  0.00     0.226 S 
HETATM   25  C   UNL     1       6.539  -4.836  26.433  1.00  0.00     0.186 C 
HETATM   26  O   UNL     1       9.042  -5.510  26.005  1.00  0.00    -0.206 OA
HETATM   27  O   UNL     1       8.639  -3.445  27.184  1.00  0.00    -0.206 OA
ENDBRANCH  22  24
ENDBRANCH  21  22
ENDBRANCH   1  21
TORSDOF 10
