MODEL 1
REMARK VINA RESULT:    -6.068      0.000      0.000
REMARK INTER + INTRA:         -10.966
REMARK INTER:                  -9.615
REMARK INTRA:                  -1.351
REMARK UNBOUND:                -1.351
REMARK  10 active torsions:
REMARK  status: ('A' for Active; 'I' for Inactive)
REMARK    1  A    between atoms: S_2  and  N_5 
REMARK    2  A    between atoms: N_5  and  C_7 
REMARK    3  A    between atoms: C_7  and  C_8 
REMARK    4  A    between atoms: C_9  and  C_15 
REMARK    5  A    between atoms: C_9  and  C_10 
REMARK    6  A    between atoms: C_10  and  C_11 
REMARK    7  A    between atoms: C_11  and  C_12 
REMARK    8  A    between atoms: C_12  and  C_13 
REMARK    9  A    between atoms: C_15  and  C_16 
REMARK       I    between atoms: C_16  and  N_18 
REMARK   10  A    between atoms: N_18  and  C_20 
ROOT
HETATM    1  C   UNL     1       9.117  -2.447  23.392  1.00  0.00     0.038 C 
HETATM    2  C   UNL     1      10.036  -1.918  22.650  1.00  0.00     0.016 C 
ENDROOT
BRANCH   2   3
HETATM    3  C   UNL     1       9.337  -1.192  21.983  1.00  0.00    -0.044 C 
BRANCH   3   4
HETATM    4  C   UNL     1       8.628  -0.403  21.181  1.00  0.00     0.293 C 
HETATM    5  O   UNL     1       9.191   0.436  20.625  1.00  0.00    -0.258 OA
HETATM    6  N   UNL     1       7.325  -0.722  21.172  1.00  0.00    -0.317 N 
ATOM      7  HN  UNL     1       6.968  -1.484  21.750  1.00  0.00     0.169 HD
BRANCH   6   8
HETATM    8  C   UNL     1       6.566  -0.064  20.440  1.00  0.00     0.046 A 
HETATM    9  C   UNL     1       5.950  -0.115  19.305  1.00  0.00     0.154 A 
HETATM   10  N   UNL     1       5.224   0.190  18.364  1.00  0.00    -0.400 N 
HETATM   11  C   UNL     1       4.940   1.349  18.972  1.00  0.00     0.129 A 
ATOM     12  HN  UNL     1       4.952  -0.253  17.487  1.00  0.00     0.154 HD
HETATM   13  C   UNL     1       5.249   1.858  20.008  1.00  0.00     0.012 A 
HETATM   14  C   UNL     1       6.052   1.399  20.980  1.00  0.00    -0.022 A 
HETATM   15  C   UNL     1       6.411   1.943  22.205  1.00  0.00     0.025 C 
ENDBRANCH   6   8
ENDBRANCH   3   4
ENDBRANCH   2   3
BRANCH   2  16
HETATM   16  C   UNL     1      11.522  -1.280  23.032  1.00  0.00     0.020 C 
BRANCH  16  17
HETATM   17  C   UNL     1      11.762  -0.658  23.897  1.00  0.00     0.001 C 
BRANCH  17  18
HETATM   18  C   UNL     1      11.935   0.733  24.077  1.00  0.00    -0.001 C 
BRANCH  18  19
HETATM   19  C   UNL     1      10.660   1.253  24.464  1.00  0.00    -0.010 C 
HETATM   20  C   UNL     1      10.042   2.022  24.228  1.00  0.00     0.011 C 
ENDBRANCH  18  19
ENDBRANCH  17  18
ENDBRANCH  16  17
ENDBRANCH   2  16
BRANCH   1  21
HETATM   21  C   UNL     1       8.692  -3.109  24.223  1.00  0.00     0.101 C 
BRANCH  21  22
HETATM   22  N   UNL     1       8.172  -3.414  25.215  1.00  0.00    -0.295 N 
ATOM     23  HN  UNL     1       8.561  -2.994  26.059  1.00  0.00     0.177 HD
BRANCH  22  24
HETATM   24  S   UNL     1       6.890  -4.433  25.455  1.00  0.00     0.226 S 
HETATM   25  C   UNL     1       7.350  -5.340  26.952  1.00  0.00     0.186 C 
HETATM   26  O   UNL     1       5.704  -3.677  25.757  1.00  0.00    -0.206 OA
HETATM   27  O   UNL     1       6.734  -5.381  24.397  1.00  0.00    -0.206 OA
ENDBRANCH  22  24
ENDBRANCH  21  22
ENDBRANCH   1  21
TORSDOF 10
ENDMDL
MODEL 2
REMARK VINA RESULT:    -5.963      2.875      6.691
REMARK INTER + INTRA:         -10.800
REMARK INTER:                  -9.634
REMARK INTRA:                  -1.166
REMARK UNBOUND:                -1.351
REMARK  10 active torsions:
REMARK  status: ('A' for Active; 'I' for Inactive)
REMARK    1  A    between atoms: S_2  and  N_5 
REMARK    2  A    between atoms: N_5  and  C_7 
REMARK    3  A    between atoms: C_7  and  C_8 
REMARK    4  A    between atoms: C_9  and  C_15 
REMARK    5  A    between atoms: C_9  and  C_10 
REMARK    6  A    between atoms: C_10  and  C_11 
REMARK    7  A    between atoms: C_11  and  C_12 
REMARK    8  A    between atoms: C_12  and  C_13 
REMARK    9  A    between atoms: C_15  and  C_16 
REMARK       I    between atoms: C_16  and  N_18 
REMARK   10  A    between atoms: N_18  and  C_20 
ROOT
HETATM    1  C   UNL     1       7.276  -1.553  21.859  1.00  0.00     0.038 C 
HETATM    2  C   UNL     1       8.255  -1.827  22.660  1.00  0.00     0.016 C 
ENDROOT
BRANCH   2   3
HETATM    3  C   UNL     1       7.815  -2.840  23.148  1.00  0.00    -0.044 C 
BRANCH   3   4
HETATM    4  C   UNL     1       7.415  -3.979  23.707  1.00  0.00     0.293 C 
HETATM    5  O   UNL     1       7.917  -4.953  23.349  1.00  0.00    -0.258 OA
HETATM    6  N   UNL     1       6.446  -3.789  24.614  1.00  0.00    -0.317 N 
ATOM      7  HN  UNL     1       6.078  -2.856  24.802  1.00  0.00     0.169 HD
BRANCH   6   8
HETATM    8  C   UNL     1       6.007  -4.783  25.219  1.00  0.00     0.046 A 
HETATM    9  C   UNL     1       6.233  -5.528  26.251  1.00  0.00     0.154 A 
HETATM   10  N   UNL     1       6.104  -6.404  27.099  1.00  0.00    -0.400 N 
HETATM   11  C   UNL     1       5.012  -6.846  26.463  1.00  0.00     0.129 A 
ATOM     12  HN  UNL     1       6.614  -6.680  27.938  1.00  0.00     0.154 HD
HETATM   13  C   UNL     1       4.407  -6.510  25.489  1.00  0.00     0.012 A 
HETATM   14  C   UNL     1       4.647  -5.498  24.641  1.00  0.00    -0.022 A 
HETATM   15  C   UNL     1       3.956  -5.058  23.521  1.00  0.00     0.025 C 
ENDBRANCH   6   8
ENDBRANCH   3   4
ENDBRANCH   2   3
BRANCH   2  16
HETATM   16  C   UNL     1       9.900  -1.838  22.418  1.00  0.00     0.020 C 
BRANCH  16  17
HETATM   17  C   UNL     1      10.673  -1.772  23.186  1.00  0.00     0.001 C 
BRANCH  17  18
HETATM   18  C   UNL     1      11.560  -0.749  23.589  1.00  0.00    -0.001 C 
BRANCH  18  19
HETATM   19  C   UNL     1      10.776   0.207  24.310  1.00  0.00    -0.010 C 
HETATM   20  C   UNL     1      10.307   0.293  25.205  1.00  0.00     0.011 C 
ENDBRANCH  18  19
ENDBRANCH  17  18
ENDBRANCH  16  17
ENDBRANCH   2  16
BRANCH   1  21
HETATM   21  C   UNL     1       6.714  -0.971  21.050  1.00  0.00     0.101 C 
BRANCH  21  22
HETATM   22  N   UNL     1       5.908  -0.709  20.256  1.00  0.00    -0.295 N 
ATOM     23  HN  UNL     1       4.977  -1.085  20.438  1.00  0.00     0.177 HD
BRANCH  22  24
HETATM   24  S   UNL     1       6.055   0.187  18.873  1.00  0.00     0.226 S 
HETATM   25  C   UNL     1       4.977   1.609  19.179  1.00  0.00     0.186 C 
HETATM   26  O   UNL     1       7.398   0.686  18.744  1.00  0.00    -0.206 OA
HETATM   27  O   UNL     1       5.563  -0.496  17.718  1.00  0.00    -0.206 OA
ENDBRANCH  22  24
ENDBRANCH  21  22
ENDBRANCH   1  21
TORSDOF 10
ENDMDL
MODEL 3
REMARK VINA RESULT:    -5.884     13.819     15.899
REMARK INTER + INTRA:         -10.674
REMARK INTER:                  -9.205
REMARK INTRA:                  -1.469
REMARK UNBOUND:                -1.351
REMARK  10 active torsions:
REMARK  status: ('A' for Active; 'I' for Inactive)
REMARK    1  A    between atoms: S_2  and  N_5 
REMARK    2  A    between atoms: N_5  and  C_7 
REMARK    3  A    between atoms: C_7  and  C_8 
REMARK    4  A    between atoms: C_9  and  C_15 
REMARK    5  A    between atoms: C_9  and  C_10 
REMARK    6  A    between atoms: C_10  and  C_11 
REMARK    7  A    between atoms: C_11  and  C_12 
REMARK    8  A    between atoms: C_12  and  C_13 
REMARK    9  A    between atoms: C_15  and  C_16 
REMARK       I    between atoms: C_16  and  N_18 
REMARK   10  A    between atoms: N_18  and  C_20 
ROOT
HETATM    1  C   UNL     1      23.687  -3.109  23.830  1.00  0.00     0.038 C 
HETATM    2  C   UNL     1      24.082  -1.902  23.581  1.00  0.00     0.016 C 
ENDROOT
BRANCH   2   3
HETATM    3  C   UNL     1      23.714  -1.822  22.433  1.00  0.00    -0.044 C 
BRANCH   3   4
HETATM    4  C   UNL     1      23.232  -1.775  21.194  1.00  0.00     0.293 C 
HETATM    5  O   UNL     1      22.087  -1.831  21.066  1.00  0.00    -0.258 OA
HETATM    6  N   UNL     1      24.201  -1.686  20.273  1.00  0.00    -0.317 N 
ATOM      7  HN  UNL     1      25.185  -1.677  20.544  1.00  0.00     0.169 HD
BRANCH   6   8
HETATM    8  C   UNL     1      23.868  -1.614  19.077  1.00  0.00     0.046 A 
HETATM    9  C   UNL     1      23.385  -0.792  18.202  1.00  0.00     0.154 A 
HETATM   10  N   UNL     1      22.993  -0.334  17.135  1.00  0.00    -0.400 N 
HETATM   11  C   UNL     1      23.226  -1.516  16.552  1.00  0.00     0.129 A 
ATOM     12  HN  UNL     1      22.639   0.570  16.822  1.00  0.00     0.154 HD
HETATM   13  C   UNL     1      23.657  -2.569  16.919  1.00  0.00     0.012 A 
HETATM   14  C   UNL     1      24.079  -2.942  18.137  1.00  0.00    -0.022 A 
HETATM   15  C   UNL     1      24.611  -4.140  18.594  1.00  0.00     0.025 C 
ENDBRANCH   6   8
ENDBRANCH   3   4
ENDBRANCH   2   3
BRANCH   2  16
HETATM   16  C   UNL     1      23.928  -0.495  24.453  1.00  0.00     0.020 C 
BRANCH  16  17
HETATM   17  C   UNL     1      23.011   0.079  24.608  1.00  0.00     0.001 C 
BRANCH  17  18
HETATM   18  C   UNL     1      21.896  -0.079  25.460  1.00  0.00    -0.001 C 
BRANCH  18  19
HETATM   19  C   UNL     1      20.935  -0.849  24.732  1.00  0.00    -0.010 C 
HETATM   20  C   UNL     1      20.309  -1.632  24.882  1.00  0.00     0.011 C 
ENDBRANCH  18  19
ENDBRANCH  17  18
ENDBRANCH  16  17
ENDBRANCH   2  16
BRANCH   1  21
HETATM   21  C   UNL     1      23.509  -4.044  24.464  1.00  0.00     0.101 C 
BRANCH  21  22
HETATM   22  N   UNL     1      23.546  -5.154  24.806  1.00  0.00    -0.295 N 
ATOM     23  HN  UNL     1      22.959  -5.794  24.273  1.00  0.00     0.177 HD
BRANCH  22  24
HETATM   24  S   UNL     1      24.418  -5.842  26.033  1.00  0.00     0.226 S 
HETATM   25  C   UNL     1      26.125  -5.742  25.441  1.00  0.00     0.186 C 
HETATM   26  O   UNL     1      24.326  -5.035  27.221  1.00  0.00    -0.206 OA
HETATM   27  O   UNL     1      24.101  -7.222  26.229  1.00  0.00    -0.206 OA
ENDBRANCH  22  24
ENDBRANCH  21  22
ENDBRANCH   1  21
TORSDOF 10
ENDMDL
MODEL 4
REMARK VINA RESULT:    -5.838      1.452      1.996
REMARK INTER + INTRA:         -10.601
REMARK INTER:                  -9.150
REMARK INTRA:                  -1.450
REMARK UNBOUND:                -1.351
REMARK  10 active torsions:
REMARK  status: ('A' for Active; 'I' for Inactive)
REMARK    1  A    between atoms: S_2  and  N_5 
REMARK    2  A    between atoms: N_5  and  C_7 
REMARK    3  A    between atoms: C_7  and  C_8 
REMARK    4  A    between atoms: C_9  and  C_15 
REMARK    5  A    between atoms: C_9  and  C_10 
REMARK    6  A    between atoms: C_10  and  C_11 
REMARK    7  A    between atoms: C_11  and  C_12 
REMARK    8  A    between atoms: C_12  and  C_13 
REMARK    9  A    between atoms: C_15  and  C_16 
REMARK       I    between atoms: C_16  and  N_18 
REMARK   10  A    between atoms: N_18  and  C_20 
ROOT
HETATM    1  C   UNL     1       8.928  -2.606  23.051  1.00  0.00     0.038 C 
HETATM    2  C   UNL     1       9.842  -1.969  22.391  1.00  0.00     0.016 C 
ENDROOT
BRANCH   2   3
HETATM    3  C   UNL     1       9.137  -1.157  21.839  1.00  0.00    -0.044 C 
BRANCH   3   4
HETATM    4  C   UNL     1       8.402  -0.287  21.154  1.00  0.00     0.293 C 
HETATM    5  O   UNL     1       8.926   0.314  20.321  1.00  0.00    -0.258 OA
HETATM    6  N   UNL     1       7.131  -0.245  21.581  1.00  0.00    -0.317 N 
ATOM      7  HN  UNL     1       6.820  -0.824  22.361  1.00  0.00     0.169 HD
BRANCH   6   8
HETATM    8  C   UNL     1       6.343   0.520  20.998  1.00  0.00     0.046 A 
HETATM    9  C   UNL     1       5.897   1.734  21.022  1.00  0.00     0.154 A 
HETATM   10  N   UNL     1       5.283   2.750  20.716  1.00  0.00    -0.400 N 
HETATM   11  C   UNL     1       4.704   2.085  19.709  1.00  0.00     0.129 A 
ATOM     12  HN  UNL     1       5.234   3.702  21.077  1.00  0.00     0.154 HD
HETATM   13  C   UNL     1       4.777   0.972  19.278  1.00  0.00     0.012 A 
HETATM   14  C   UNL     1       5.521  -0.061  19.702  1.00  0.00    -0.022 A 
HETATM   15  C   UNL     1       5.655  -1.354  19.214  1.00  0.00     0.025 C 
ENDBRANCH   6   8
ENDBRANCH   3   4
ENDBRANCH   2   3
BRANCH   2  16
HETATM   16  C   UNL     1      11.327  -1.387  22.858  1.00  0.00     0.020 C 
BRANCH  16  17
HETATM   17  C   UNL     1      11.533  -0.416  23.313  1.00  0.00     0.001 C 
BRANCH  17  18
HETATM   18  C   UNL     1      11.684   0.020  24.649  1.00  0.00    -0.001 C 
BRANCH  18  19
HETATM   19  C   UNL     1      10.394   0.465  25.078  1.00  0.00    -0.010 C 
HETATM   20  C   UNL     1       9.573   0.096  25.546  1.00  0.00     0.011 C 
ENDBRANCH  18  19
ENDBRANCH  17  18
ENDBRANCH  16  17
ENDBRANCH   2  16
BRANCH   1  21
HETATM   21  C   UNL     1       8.509  -3.384  23.778  1.00  0.00     0.101 C 
BRANCH  21  22
HETATM   22  N   UNL     1       7.789  -4.169  24.238  1.00  0.00    -0.295 N 
ATOM     23  HN  UNL     1       8.015  -4.467  25.187  1.00  0.00     0.177 HD
BRANCH  22  24
HETATM   24  S   UNL     1       6.447  -4.874  23.573  1.00  0.00     0.226 S 
HETATM   25  C   UNL     1       7.122  -5.861  22.215  1.00  0.00     0.186 C 
HETATM   26  O   UNL     1       5.848  -5.786  24.511  1.00  0.00    -0.206 OA
HETATM   27  O   UNL     1       5.541  -3.919  23.015  1.00  0.00    -0.206 OA
ENDBRANCH  22  24
ENDBRANCH  21  22
ENDBRANCH   1  21
TORSDOF 10
ENDMDL
MODEL 5
REMARK VINA RESULT:    -5.831      2.970      6.749
REMARK INTER + INTRA:         -10.590
REMARK INTER:                  -9.400
REMARK INTRA:                  -1.190
REMARK UNBOUND:                -1.351
REMARK  10 active torsions:
REMARK  status: ('A' for Active; 'I' for Inactive)
REMARK    1  A    between atoms: S_2  and  N_5 
REMARK    2  A    between atoms: N_5  and  C_7 
REMARK    3  A    between atoms: C_7  and  C_8 
REMARK    4  A    between atoms: C_9  and  C_15 
REMARK    5  A    between atoms: C_9  and  C_10 
REMARK    6  A    between atoms: C_10  and  C_11 
REMARK    7  A    between atoms: C_11  and  C_12 
REMARK    8  A    between atoms: C_12  and  C_13 
REMARK    9  A    between atoms: C_15  and  C_16 
REMARK       I    between atoms: C_16  and  N_18 
REMARK   10  A    between atoms: N_18  and  C_20 
ROOT
HETATM    1  C   UNL     1       9.434  -1.786  22.410  1.00  0.00     0.038 C 
HETATM    2  C   UNL     1       8.222  -1.792  21.954  1.00  0.00     0.016 C 
ENDROOT
BRANCH   2   3
HETATM    3  C   UNL     1       7.834  -2.808  22.480  1.00  0.00    -0.044 C 
BRANCH   3   4
HETATM    4  C   UNL     1       7.418  -3.886  23.139  1.00  0.00     0.293 C 
HETATM    5  O   UNL     1       7.615  -4.914  22.656  1.00  0.00    -0.258 OA
HETATM    6  N   UNL     1       6.801  -3.574  24.288  1.00  0.00    -0.317 N 
ATOM      7  HN  UNL     1       6.675  -2.601  24.569  1.00  0.00     0.169 HD
BRANCH   6   8
HETATM    8  C   UNL     1       6.387  -4.504  25.002  1.00  0.00     0.046 A 
HETATM    9  C   UNL     1       6.742  -5.275  25.977  1.00  0.00     0.154 A 
HETATM   10  N   UNL     1       6.697  -6.129  26.856  1.00  0.00    -0.400 N 
HETATM   11  C   UNL     1       5.443  -6.425  26.490  1.00  0.00     0.129 A 
ATOM     12  HN  UNL     1       7.342  -6.470  27.568  1.00  0.00     0.154 HD
HETATM   13  C   UNL     1       4.683  -6.012  25.666  1.00  0.00     0.012 A 
HETATM   14  C   UNL     1       4.853  -5.037  24.759  1.00  0.00    -0.022 A 
HETATM   15  C   UNL     1       3.990  -4.510  23.809  1.00  0.00     0.025 C 
ENDBRANCH   6   8
ENDBRANCH   3   4
ENDBRANCH   2   3
BRANCH   2  16
HETATM   16  C   UNL     1       7.081  -0.587  21.859  1.00  0.00     0.020 C 
BRANCH  16  17
HETATM   17  C   UNL     1       6.884   0.059  21.000  1.00  0.00     0.001 C 
BRANCH  17  18
HETATM   18  C   UNL     1       7.338   0.064  19.662  1.00  0.00    -0.001 C 
BRANCH  18  19
HETATM   19  C   UNL     1       6.183  -0.125  18.841  1.00  0.00    -0.010 C 
HETATM   20  C   UNL     1       5.714   0.326  18.062  1.00  0.00     0.011 C 
ENDBRANCH  18  19
ENDBRANCH  17  18
ENDBRANCH  16  17
ENDBRANCH   2  16
BRANCH   1  21
HETATM   21  C   UNL     1      10.492  -1.381  22.571  1.00  0.00     0.101 C 
BRANCH  21  22
HETATM   22  N   UNL     1      11.472  -1.077  23.114  1.00  0.00    -0.295 N 
ATOM     23  HN  UNL     1      12.312  -1.568  22.807  1.00  0.00     0.177 HD
BRANCH  22  24
HETATM   24  S   UNL     1      11.699   0.039  24.315  1.00  0.00     0.226 S 
HETATM   25  C   UNL     1      11.358   1.614  23.492  1.00  0.00     0.186 C 
HETATM   26  O   UNL     1      10.710  -0.132  25.346  1.00  0.00    -0.206 OA
HETATM   27  O   UNL     1      13.048   0.073  24.788  1.00  0.00    -0.206 OA
ENDBRANCH  22  24
ENDBRANCH  21  22
ENDBRANCH   1  21
TORSDOF 10
ENDMDL
MODEL 6
REMARK VINA RESULT:    -5.820      1.850      2.252
REMARK INTER + INTRA:         -10.573
REMARK INTER:                  -9.664
REMARK INTRA:                  -0.909
REMARK UNBOUND:                -1.351
REMARK  10 active torsions:
REMARK  status: ('A' for Active; 'I' for Inactive)
REMARK    1  A    between atoms: S_2  and  N_5 
REMARK    2  A    between atoms: N_5  and  C_7 
REMARK    3  A    between atoms: C_7  and  C_8 
REMARK    4  A    between atoms: C_9  and  C_15 
REMARK    5  A    between atoms: C_9  and  C_10 
REMARK    6  A    between atoms: C_10  and  C_11 
REMARK    7  A    between atoms: C_11  and  C_12 
REMARK    8  A    between atoms: C_12  and  C_13 
REMARK    9  A    between atoms: C_15  and  C_16 
REMARK       I    between atoms: C_16  and  N_18 
REMARK   10  A    between atoms: N_18  and  C_20 
ROOT
HETATM    1  C   UNL     1       7.369  -3.661  23.971  1.00  0.00     0.038 C 
HETATM    2  C   UNL     1       8.224  -2.909  23.356  1.00  0.00     0.016 C 
ENDROOT
BRANCH   2   3
HETATM    3  C   UNL     1       7.484  -2.428  22.531  1.00  0.00    -0.044 C 
BRANCH   3   4
HETATM    4  C   UNL     1       6.726  -1.929  21.558  1.00  0.00     0.293 C 
HETATM    5  O   UNL     1       5.725  -2.459  21.339  1.00  0.00    -0.258 OA
HETATM    6  N   UNL     1       7.289  -0.865  20.967  1.00  0.00    -0.317 N 
ATOM      7  HN  UNL     1       8.208  -0.529  21.258  1.00  0.00     0.169 HD
BRANCH   6   8
HETATM    8  C   UNL     1       6.661  -0.301  20.055  1.00  0.00     0.046 A 
HETATM    9  C   UNL     1       6.246  -0.479  18.843  1.00  0.00     0.154 A 
HETATM   10  N   UNL     1       5.689  -0.287  17.768  1.00  0.00    -0.400 N 
HETATM   11  C   UNL     1       5.298   0.920  18.198  1.00  0.00     0.129 A 
ATOM     12  HN  UNL     1       5.571  -0.821  16.908  1.00  0.00     0.154 HD
HETATM   13  C   UNL     1       5.424   1.537  19.213  1.00  0.00     0.012 A 
HETATM   14  C   UNL     1       6.053   1.195  20.348  1.00  0.00    -0.022 A 
HETATM   15  C   UNL     1       6.196   1.868  21.554  1.00  0.00     0.025 C 
ENDBRANCH   6   8
ENDBRANCH   3   4
ENDBRANCH   2   3
BRANCH   2  16
HETATM   16  C   UNL     1       9.381  -1.865  23.934  1.00  0.00     0.020 C 
BRANCH  16  17
HETATM   17  C   UNL     1       9.963  -1.148  23.351  1.00  0.00     0.001 C 
BRANCH  17  18
HETATM   18  C   UNL     1      10.804  -0.066  23.696  1.00  0.00    -0.001 C 
BRANCH  18  19
HETATM   19  C   UNL     1      12.121  -0.606  23.839  1.00  0.00    -0.010 C 
HETATM   20  C   UNL     1      12.970  -0.425  24.363  1.00  0.00     0.011 C 
ENDBRANCH  18  19
ENDBRANCH  17  18
ENDBRANCH  16  17
ENDBRANCH   2  16
BRANCH   1  21
HETATM   21  C   UNL     1       7.001  -4.398  24.766  1.00  0.00     0.101 C 
BRANCH  21  22
HETATM   22  N   UNL     1       6.906  -5.374  25.387  1.00  0.00    -0.295 N 
ATOM     23  HN  UNL     1       7.000  -6.240  24.857  1.00  0.00     0.177 HD
BRANCH  22  24
HETATM   24  S   UNL     1       6.641  -5.559  27.010  1.00  0.00     0.226 S 
HETATM   25  C   UNL     1       5.516  -4.198  27.408  1.00  0.00     0.186 C 
HETATM   26  O   UNL     1       5.936  -6.787  27.262  1.00  0.00    -0.206 OA
HETATM   27  O   UNL     1       7.829  -5.388  27.787  1.00  0.00    -0.206 OA
ENDBRANCH  22  24
ENDBRANCH  21  22
ENDBRANCH   1  21
TORSDOF 10
ENDMDL
MODEL 7
REMARK VINA RESULT:    -5.735      2.591      6.116
REMARK INTER + INTRA:         -10.438
REMARK INTER:                  -9.311
REMARK INTRA:                  -1.127
REMARK UNBOUND:                -1.351
REMARK  10 active torsions:
REMARK  status: ('A' for Active; 'I' for Inactive)
REMARK    1  A    between atoms: S_2  and  N_5 
REMARK    2  A    between atoms: N_5  and  C_7 
REMARK    3  A    between atoms: C_7  and  C_8 
REMARK    4  A    between atoms: C_9  and  C_15 
REMARK    5  A    between atoms: C_9  and  C_10 
REMARK    6  A    between atoms: C_10  and  C_11 
REMARK    7  A    between atoms: C_11  and  C_12 
REMARK    8  A    between atoms: C_12  and  C_13 
REMARK    9  A    between atoms: C_15  and  C_16 
REMARK       I    between atoms: C_16  and  N_18 
REMARK   10  A    between atoms: N_18  and  C_20 
ROOT
HETATM    1  C   UNL     1       8.390  -0.644  21.407  1.00  0.00     0.038 C 
HETATM    2  C   UNL     1       9.149  -0.932  22.416  1.00  0.00     0.016 C 
ENDROOT
BRANCH   2   3
HETATM    3  C   UNL     1       8.392  -1.662  23.012  1.00  0.00    -0.044 C 
BRANCH   3   4
HETATM    4  C   UNL     1       7.525  -2.391  23.708  1.00  0.00     0.293 C 
HETATM    5  O   UNL     1       6.669  -1.833  24.243  1.00  0.00    -0.258 OA
HETATM    6  N   UNL     1       7.820  -3.699  23.680  1.00  0.00    -0.317 N 
ATOM      7  HN  UNL     1       8.641  -4.041  23.180  1.00  0.00     0.169 HD
BRANCH   6   8
HETATM    8  C   UNL     1       7.064  -4.482  24.280  1.00  0.00     0.046 A 
HETATM    9  C   UNL     1       6.005  -5.205  24.112  1.00  0.00     0.154 A 
HETATM   10  N   UNL     1       5.094  -5.996  24.332  1.00  0.00    -0.400 N 
HETATM   11  C   UNL     1       5.542  -6.150  25.584  1.00  0.00     0.129 A 
ATOM     12  HN  UNL     1       4.320  -6.377  23.788  1.00  0.00     0.154 HD
HETATM   13  C   UNL     1       6.461  -5.715  26.213  1.00  0.00     0.012 A 
HETATM   14  C   UNL     1       7.420  -4.853  25.840  1.00  0.00    -0.022 A 
HETATM   15  C   UNL     1       8.514  -4.347  26.527  1.00  0.00     0.025 C 
ENDBRANCH   6   8
ENDBRANCH   3   4
ENDBRANCH   2   3
BRANCH   2  16
HETATM   16  C   UNL     1      10.746  -1.387  22.492  1.00  0.00     0.020 C 
BRANCH  16  17
HETATM   17  C   UNL     1      11.534  -0.906  23.077  1.00  0.00     0.001 C 
BRANCH  17  18
HETATM   18  C   UNL     1      11.623  -0.473  24.418  1.00  0.00    -0.001 C 
BRANCH  18  19
HETATM   19  C   UNL     1      11.501   0.952  24.393  1.00  0.00    -0.010 C 
HETATM   20  C   UNL     1      11.450   1.705  23.715  1.00  0.00     0.011 C 
ENDBRANCH  18  19
ENDBRANCH  17  18
ENDBRANCH  16  17
ENDBRANCH   2  16
BRANCH   1  21
HETATM   21  C   UNL     1       8.114  -0.165  20.406  1.00  0.00     0.101 C 
BRANCH  21  22
HETATM   22  N   UNL     1       7.491   0.120  19.468  1.00  0.00    -0.295 N 
ATOM     23  HN  UNL     1       7.968   0.712  18.789  1.00  0.00     0.177 HD
BRANCH  22  24
HETATM   24  S   UNL     1       5.938  -0.300  19.077  1.00  0.00     0.226 S 
HETATM   25  C   UNL     1       4.985   1.177  19.509  1.00  0.00     0.186 C 
HETATM   26  O   UNL     1       5.817  -0.490  17.657  1.00  0.00    -0.206 OA
HETATM   27  O   UNL     1       5.445  -1.386  19.865  1.00  0.00    -0.206 OA
ENDBRANCH  22  24
ENDBRANCH  21  22
ENDBRANCH   1  21
TORSDOF 10
ENDMDL
MODEL 8
REMARK VINA RESULT:    -5.686      3.225      6.030
REMARK INTER + INTRA:         -10.361
REMARK INTER:                  -9.002
REMARK INTRA:                  -1.359
REMARK UNBOUND:                -1.351
REMARK  10 active torsions:
REMARK  status: ('A' for Active; 'I' for Inactive)
REMARK    1  A    between atoms: S_2  and  N_5 
REMARK    2  A    between atoms: N_5  and  C_7 
REMARK    3  A    between atoms: C_7  and  C_8 
REMARK    4  A    between atoms: C_9  and  C_15 
REMARK    5  A    between atoms: C_9  and  C_10 
REMARK    6  A    between atoms: C_10  and  C_11 
REMARK    7  A    between atoms: C_11  and  C_12 
REMARK    8  A    between atoms: C_12  and  C_13 
REMARK    9  A    between atoms: C_15  and  C_16 
REMARK       I    between atoms: C_16  and  N_18 
REMARK   10  A    between atoms: N_18  and  C_20 
ROOT
HETATM    1  C   UNL     1       6.899  -4.607  26.055  1.00  0.00     0.038 C 
HETATM    2  C   UNL     1       6.286  -3.788  25.264  1.00  0.00     0.016 C 
ENDROOT
BRANCH   2   3
HETATM    3  C   UNL     1       7.249  -3.223  24.803  1.00  0.00    -0.044 C 
BRANCH   3   4
HETATM    4  C   UNL     1       8.317  -2.556  24.375  1.00  0.00     0.293 C 
HETATM    5  O   UNL     1       9.015  -3.091  23.629  1.00  0.00    -0.258 OA
HETATM    6  N   UNL     1       8.409  -1.335  24.921  1.00  0.00    -0.317 N 
ATOM      7  HN  UNL     1       7.719  -1.010  25.599  1.00  0.00     0.169 HD
BRANCH   6   8
HETATM    8  C   UNL     1       9.359  -0.610  24.578  1.00  0.00     0.046 A 
HETATM    9  C   UNL     1      10.600  -0.363  24.847  1.00  0.00     0.154 A 
HETATM   10  N   UNL     1      11.726   0.119  24.786  1.00  0.00    -0.400 N 
HETATM   11  C   UNL     1      11.322   0.910  23.784  1.00  0.00     0.129 A 
ATOM     12  HN  UNL     1      12.602  -0.023  25.288  1.00  0.00     0.154 HD
HETATM   13  C   UNL     1      10.298   1.062  23.187  1.00  0.00     0.012 A 
HETATM   14  C   UNL     1       9.119   0.441  23.341  1.00  0.00    -0.022 A 
HETATM   15  C   UNL     1       7.921   0.568  22.652  1.00  0.00     0.025 C 
ENDBRANCH   6   8
ENDBRANCH   3   4
ENDBRANCH   2   3
BRANCH   2  16
HETATM   16  C   UNL     1       5.046  -4.029  24.182  1.00  0.00     0.020 C 
BRANCH  16  17
HETATM   17  C   UNL     1       4.734  -4.982  23.750  1.00  0.00     0.001 C 
BRANCH  17  18
HETATM   18  C   UNL     1       5.436  -6.090  23.227  1.00  0.00    -0.001 C 
BRANCH  18  19
HETATM   19  C   UNL     1       6.245  -5.590  22.158  1.00  0.00    -0.010 C 
HETATM   20  C   UNL     1       7.022  -5.892  21.580  1.00  0.00     0.011 C 
ENDBRANCH  18  19
ENDBRANCH  17  18
ENDBRANCH  16  17
ENDBRANCH   2  16
BRANCH   1  21
HETATM   21  C   UNL     1       6.996  -5.458  26.814  1.00  0.00     0.101 C 
BRANCH  21  22
HETATM   22  N   UNL     1       7.337  -6.046  27.756  1.00  0.00    -0.295 N 
ATOM     23  HN  UNL     1       8.309  -6.355  27.750  1.00  0.00     0.177 HD
BRANCH  22  24
HETATM   24  S   UNL     1       6.470  -6.453  29.106  1.00  0.00     0.226 S 
HETATM   25  C   UNL     1       4.800  -6.723  28.464  1.00  0.00     0.186 C 
HETATM   26  O   UNL     1       6.935  -7.706  29.637  1.00  0.00    -0.206 OA
HETATM   27  O   UNL     1       6.407  -5.392  30.062  1.00  0.00    -0.206 OA
ENDBRANCH  22  24
ENDBRANCH  21  22
ENDBRANCH   1  21
TORSDOF 10
ENDMDL
MODEL 9
REMARK VINA RESULT:    -5.502      2.586      3.479
REMARK INTER + INTRA:         -10.069
REMARK INTER:                  -8.646
REMARK INTRA:                  -1.423
REMARK UNBOUND:                -1.351
REMARK  10 active torsions:
REMARK  status: ('A' for Active; 'I' for Inactive)
REMARK    1  A    between atoms: S_2  and  N_5 
REMARK    2  A    between atoms: N_5  and  C_7 
REMARK    3  A    between atoms: C_7  and  C_8 
REMARK    4  A    between atoms: C_9  and  C_15 
REMARK    5  A    between atoms: C_9  and  C_10 
REMARK    6  A    between atoms: C_10  and  C_11 
REMARK    7  A    between atoms: C_11  and  C_12 
REMARK    8  A    between atoms: C_12  and  C_13 
REMARK    9  A    between atoms: C_15  and  C_16 
REMARK       I    between atoms: C_16  and  N_18 
REMARK   10  A    between atoms: N_18  and  C_20 
ROOT
HETATM    1  C   UNL     1       7.447  -1.867  22.092  1.00  0.00     0.038 C 
HETATM    2  C   UNL     1       8.699  -1.553  22.190  1.00  0.00     0.016 C 
ENDROOT
BRANCH   2   3
HETATM    3  C   UNL     1       8.597  -0.355  22.070  1.00  0.00    -0.044 C 
BRANCH   3   4
HETATM    4  C   UNL     1       8.570   0.965  21.907  1.00  0.00     0.293 C 
HETATM    5  O   UNL     1       9.068   1.394  20.960  1.00  0.00    -0.258 OA
HETATM    6  N   UNL     1       7.959   1.592  22.922  1.00  0.00    -0.317 N 
ATOM      7  HN  UNL     1       7.590   1.069  23.717  1.00  0.00     0.169 HD
BRANCH   6   8
HETATM    8  C   UNL     1       7.855   2.830  22.868  1.00  0.00     0.046 A 
HETATM    9  C   UNL     1       8.481   3.918  23.177  1.00  0.00     0.154 A 
HETATM   10  N   UNL     1       8.754   5.109  23.281  1.00  0.00    -0.400 N 
HETATM   11  C   UNL     1       7.594   5.417  22.687  1.00  0.00     0.129 A 
ATOM     12  HN  UNL     1       9.536   5.642  23.660  1.00  0.00     0.154 HD
HETATM   13  C   UNL     1       6.686   4.790  22.228  1.00  0.00     0.012 A 
HETATM   14  C   UNL     1       6.516   3.460  22.157  1.00  0.00    -0.022 A 
HETATM   15  C   UNL     1       5.496   2.696  21.610  1.00  0.00     0.025 C 
ENDBRANCH   6   8
ENDBRANCH   3   4
ENDBRANCH   2   3
BRANCH   2  16
HETATM   16  C   UNL     1       9.871  -2.040  23.262  1.00  0.00     0.020 C 
BRANCH  16  17
HETATM   17  C   UNL     1      10.497  -1.395  23.883  1.00  0.00     0.001 C 
BRANCH  17  18
HETATM   18  C   UNL     1      11.780  -0.828  23.712  1.00  0.00    -0.001 C 
BRANCH  18  19
HETATM   19  C   UNL     1      11.722   0.484  24.277  1.00  0.00    -0.010 C 
HETATM   20  C   UNL     1      11.638   1.447  23.970  1.00  0.00     0.011 C 
ENDBRANCH  18  19
ENDBRANCH  17  18
ENDBRANCH  16  17
ENDBRANCH   2  16
BRANCH   1  21
HETATM   21  C   UNL     1       6.537  -2.560  22.086  1.00  0.00     0.101 C 
BRANCH  21  22
HETATM   22  N   UNL     1       5.496  -2.996  22.360  1.00  0.00    -0.295 N 
ATOM     23  HN  UNL     1       4.718  -2.340  22.299  1.00  0.00     0.177 HD
BRANCH  22  24
HETATM   24  S   UNL     1       5.096  -4.530  22.835  1.00  0.00     0.226 S 
HETATM   25  C   UNL     1       5.911  -5.575  21.603  1.00  0.00     0.186 C 
HETATM   26  O   UNL     1       5.690  -4.826  24.112  1.00  0.00    -0.206 OA
HETATM   27  O   UNL     1       3.691  -4.781  22.764  1.00  0.00    -0.206 OA
ENDBRANCH  22  24
ENDBRANCH  21  22
ENDBRANCH   1  21
TORSDOF 10
ENDMDL
