stable:False satoms:18 tatoms:24 sratio:0.75
  -OEChem-07092417273D

 24 25  0     1  0  0  0  0  0999 V2000
    8.5084   -5.2283   24.9341 H   0  0  0  0  0  0  0  0  0  0  0  0
    8.7479   -2.0201   22.3371 N   0  0  0  0  0  0  0  0  0  0  0  0
    8.6399   -6.3500   23.6180 H   0  0  0  0  0  0  0  0  0  0  0  0
    7.7480    2.9068   21.5741 C   0  0  0  0  0  0  0  0  0  0  0  0
   10.3147    1.5151   24.6969 H   0  0  0  0  0  0  0  0  0  0  0  0
    8.5565   -2.8654   21.2212 C   0  0  0  0  0  0  0  0  0  0  0  0
    8.7609   -2.4854   23.2286 H   0  0  0  0  0  0  0  0  0  0  0  0
    8.9075   -0.6378   22.5221 C   0  0  0  0  0  0  0  0  0  0  0  0
    9.5422   -0.2191   23.6955 C   0  0  0  0  0  0  0  0  0  0  0  0
    9.9133   -0.9418   24.4074 H   0  0  0  0  0  0  0  0  0  0  0  0
    8.2875    3.3059   20.7299 H   0  0  0  0  0  0  0  0  0  0  0  0
    6.7393    2.6754   21.2914 H   0  0  0  0  0  0  0  0  0  0  0  0
    8.5359   -4.2231   21.6164 C   0  5  3  0  0  0  0  0  0  0  0  0
    8.1638    0.1040   20.6538 H   0  0  0  0  0  0  0  0  0  0  0  0
    7.7341    3.6731   22.3415 H   0  0  0  0  0  0  0  0  0  0  0  0
    9.7129    1.1330   23.8960 C   0  0  0  0  0  0  0  0  0  0  0  0
    8.4369   -2.4200   20.1066 O   0  0  0  0  0  0  0  0  0  0  0  0
    8.4806    0.3482   21.6558 C   0  0  0  0  0  0  0  0  0  0  0  0
    8.2415   -5.0603   21.0336 H   0  0  0  0  0  0  0  0  0  0  0  0
   10.0180   -4.4410   23.6403 O   0  0  0  0  0  0  0  0  0  0  0  0
    8.8989   -5.3135   23.9111 C   0  0  0  0  0  0  0  0  0  0  0  0
    8.4664    1.7037   22.1082 C   0  0  0  0  0  0  0  0  0  0  0  0
    9.0631   -4.5121   22.9294 C   0  0  2  0  0  0  0  0  0  0  0  0
    9.1659    2.0624   23.1477 N   0  0  0  0  0  0  0  0  0  0  0  0
  6 17  2  0  0  0  0
 14 18  1  0  0  0  0
  4 11  1  0  0  0  0
 13 19  1  0  0  0  0
  6 13  1  0  0  0  0
  2  6  1  0  0  0  0
  4 12  1  0  0  0  0
  4 22  1  0  0  0  0
  4 15  1  0  0  0  0
 13 23  1  0  0  0  0
 18 22  2  0  0  0  0
  8 18  1  0  0  0  0
 22 24  1  0  0  0  0
  2  8  1  0  0  0  0
  2  7  1  0  0  0  0
  8  9  2  0  0  0  0
 20 23  1  0  0  0  0
 21 23  1  0  0  0  0
 16 24  2  0  0  0  0
  3 21  1  0  0  0  0
 20 21  1  0  0  0  0
  9 16  1  0  0  0  0
  9 10  1  0  0  0  0
  5 16  1  0  0  0  0
  1 21  1  0  0  0  0
M  CHG  1  13  -1
M  END
> <Shapegauss>
-99.910576

$$$$
