stable:False satoms:18 tatoms:24 sratio:0.75
  -OEChem-08052417573D

 26 27  0     1  0  0  0  0  0999 V2000
   13.6718   -1.3599   24.9961 H   0  0  0  0  0  0  0  0  0  0  0  0
    9.8339   -2.4273   23.8889 N   0  0  0  0  0  0  0  0  0  0  0  0
   13.8403   -0.3640   23.5864 H   0  0  0  0  0  0  0  0  0  0  0  0
    6.0740   -5.8203   24.3433 C   0  0  0  0  0  0  0  0  0  0  0  0
    7.6184   -3.6082   27.6596 H   0  0  0  0  0  0  0  0  0  0  0  0
   10.0194   -1.8858   22.5971 C   0  0  0  0  0  0  0  0  0  0  0  0
   10.6221   -2.3380   24.5071 H   0  0  0  0  0  0  0  0  0  0  0  0
    8.7933   -3.1051   24.5433 C   0  0  0  0  0  0  0  0  0  0  0  0
    8.7830   -3.0636   25.9409 C   0  0  0  0  0  0  0  0  0  0  0  0
    9.5353   -2.5062   26.4796 H   0  0  0  0  0  0  0  0  0  0  0  0
    5.1334   -5.4370   23.9808 H   0  0  0  0  0  0  0  0  0  0  0  0
    6.5278   -6.4475   23.6006 H   0  0  0  0  0  0  0  0  0  0  0  0
   11.2671   -1.2268   22.5024 C   0  0  3  0  0  0  0  0  0  0  0  0
    7.6149   -3.7398   22.8693 H   0  0  0  0  0  0  0  0  0  0  0  0
    5.8635   -6.4129   25.2270 H   0  0  0  0  0  0  0  0  0  0  0  0
    7.7688   -3.7188   26.6038 C   0  0  0  0  0  0  0  0  0  0  0  0
    9.1813   -2.0048   21.7378 O   0  0  0  0  0  0  0  0  0  0  0  0
    7.7857   -3.8228   23.9314 C   0  0  0  0  0  0  0  0  0  0  0  0
   11.9464   -1.8747   21.9291 H   0  0  0  0  0  0  0  0  0  0  0  0
   11.8151   -0.3199   24.7866 O   0  0  0  0  0  0  0  0  0  0  0  0
   13.0783   -0.7911   24.2677 C   0  0  0  0  0  0  0  0  0  0  0  0
    6.9675   -4.6798   24.7303 C   0  0  0  0  0  0  0  0  0  0  0  0
   11.9144   -0.9063   23.7529 C   0  0  2  0  0  0  0  0  0  0  0  0
    6.9115   -4.5256   26.0232 N   0  0  0  0  0  0  0  0  0  0  0  0
   11.1091   -0.2857   21.9553 H   0  0  0  0  0  0  0  0  0  0  0  0
   11.7251   -1.8971   24.1917 H   0  0  0  0  0  0  0  0  0  0  0  0
  6 17  2  0  0  0  0
 14 18  1  0  0  0  0
  4 11  1  0  0  0  0
 13 19  1  0  0  0  0
  6 13  1  0  0  0  0
  2  6  1  0  0  0  0
  4 12  1  0  0  0  0
  4 22  1  0  0  0  0
  4 15  1  0  0  0  0
 13 23  1  0  0  0  0
 18 22  2  0  0  0  0
  8 18  1  0  0  0  0
 22 24  1  0  0  0  0
  2  8  1  0  0  0  0
  2  7  1  0  0  0  0
  8  9  2  0  0  0  0
 20 23  1  0  0  0  0
 21 23  1  0  0  0  0
 16 24  2  0  0  0  0
  3 21  1  0  0  0  0
 20 21  1  0  0  0  0
  9 16  1  0  0  0  0
  9 10  1  0  0  0  0
  5 16  1  0  0  0  0
  1 21  1  0  0  0  0
 13 25  1  0  0  0  0
 23 26  1  0  0  0  0
M  END
> <Chemgauss4>
-5.454670

$$$$
