stable:False satoms:18 tatoms:24 sratio:0.75
  -OEChem-08052417573D

 26 27  0     1  0  0  0  0  0999 V2000
   -6.3846    1.4804  -24.2686 H   0  0  0  0  0  0  0  0  0  0  0  0
   -9.5033   -1.1359  -23.5451 N   0  0  0  0  0  0  0  0  0  0  0  0
   -5.2260    0.1993  -24.1129 H   0  0  0  0  0  0  0  0  0  0  0  0
  -14.3224   -1.6756  -22.0150 C   0  0  0  0  0  0  0  0  0  0  0  0
  -13.2185    0.6329  -25.4398 H   0  0  0  0  0  0  0  0  0  0  0  0
   -8.6066   -2.1395  -23.1151 C   0  0  0  0  0  0  0  0  0  0  0  0
   -9.0732   -0.2753  -23.8381 H   0  0  0  0  0  0  0  0  0  0  0  0
  -10.8990   -1.0266  -23.6479 C   0  0  0  0  0  0  0  0  0  0  0  0
  -11.4015   -0.0837  -24.5498 C   0  0  0  0  0  0  0  0  0  0  0  0
  -10.7316    0.5092  -25.1551 H   0  0  0  0  0  0  0  0  0  0  0  0
  -14.7245   -2.6434  -22.2693 H   0  0  0  0  0  0  0  0  0  0  0  0
  -14.0151   -1.6623  -20.9872 H   0  0  0  0  0  0  0  0  0  0  0  0
   -7.2660   -1.7308  -23.3041 C   0  0  3  0  0  0  0  0  0  0  0  0
  -11.5208   -2.6266  -22.3644 H   0  0  0  0  0  0  0  0  0  0  0  0
  -15.1140   -0.9481  -22.1577 H   0  0  0  0  0  0  0  0  0  0  0  0
  -12.7684    0.0379  -24.6697 C   0  0  0  0  0  0  0  0  0  0  0  0
   -9.0016   -3.1843  -22.6597 O   0  0  0  0  0  0  0  0  0  0  0  0
  -11.8221   -1.7567  -22.9270 C   0  0  0  0  0  0  0  0  0  0  0  0
   -6.8564   -1.4574  -22.3204 H   0  0  0  0  0  0  0  0  0  0  0  0
   -7.2208   -0.1960  -25.2998 O   0  0  0  0  0  0  0  0  0  0  0  0
   -6.2874    0.3907  -24.3662 C   0  0  0  0  0  0  0  0  0  0  0  0
  -13.1896   -1.3418  -22.9392 C   0  0  0  0  0  0  0  0  0  0  0  0
   -7.0609   -0.6116  -24.1934 C   0  0  2  0  0  0  0  0  0  0  0  0
  -13.6316   -0.5445  -23.8706 N   0  0  0  0  0  0  0  0  0  0  0  0
   -6.7074   -2.5878  -23.7085 H   0  0  0  0  0  0  0  0  0  0  0  0
   -7.8748   -0.0162  -23.7539 H   0  0  0  0  0  0  0  0  0  0  0  0
  6 17  2  0  0  0  0
 14 18  1  0  0  0  0
  4 11  1  0  0  0  0
 13 19  1  0  0  0  0
  6 13  1  0  0  0  0
  2  6  1  0  0  0  0
  4 12  1  0  0  0  0
  4 22  1  0  0  0  0
  4 15  1  0  0  0  0
 13 23  1  0  0  0  0
 18 22  2  0  0  0  0
  8 18  1  0  0  0  0
 22 24  1  0  0  0  0
  2  8  1  0  0  0  0
  2  7  1  0  0  0  0
  8  9  2  0  0  0  0
 20 23  1  0  0  0  0
 21 23  1  0  0  0  0
 16 24  2  0  0  0  0
  3 21  1  0  0  0  0
 20 21  1  0  0  0  0
  9 16  1  0  0  0  0
  9 10  1  0  0  0  0
  5 16  1  0  0  0  0
  1 21  1  0  0  0  0
 13 25  1  0  0  0  0
 23 26  1  0  0  0  0
M  END
> <Chemgauss4>
-5.467327

$$$$
