REMARK  2 active torsions:
REMARK  status: ('A' for Active; 'I' for Inactive)
REMARK    1  A    between atoms: C_5  and  O_15 
REMARK    2  A    between atoms: C_7  and  C_8 
ROOT
HETATM    1  C   UNL     1      11.215  -0.907  22.860  1.00  0.00     0.193 A 
HETATM    2  C   UNL     1      11.368  -0.389  21.455  1.00  0.00     0.193 A 
HETATM    3  O   UNL     1      10.728   0.243  22.427  1.00  0.00    -0.387 OA
ENDROOT
TORSDOF 2
