stable:False satoms:6 tatoms:24 sratio:0.25
  -OEChem-08062413303D

 40 41  0     1  0  0  0  0  0999 V2000
    6.2401   -5.4938   25.7889 C   0  0  0  0  0  0  0  0  0  0  0  0
    7.9424   -4.8746   25.7050 S   0  0  0  0  0  0  0  0  0  0  0  0
    8.8007   -6.0293   25.5598 O   0  0  0  0  0  0  0  0  0  0  0  0
    8.2098   -4.1259   26.8993 O   0  0  0  0  0  0  0  0  0  0  0  0
    7.9022   -3.9520   24.3859 N   0  0  0  0  0  0  0  0  0  0  0  0
    8.7953   -3.2031   24.0014 C   0  0  0  0  0  0  0  0  0  0  0  0
    9.3335   -2.2654   23.5489 C   0  0  0  0  0  0  0  0  0  0  0  0
   10.3197   -1.3661   23.4406 C   0  0  1  0  0  0  0  0  0  0  0  0
   10.8169   -0.3498   24.6774 C   0  0  0  0  0  0  0  0  0  0  0  0
   11.8888   -0.0754   24.7786 C   0  0  0  0  0  0  0  0  0  0  0  0
   13.0436   -0.3269   24.1994 C   0  0  0  0  0  0  0  0  0  0  0  0
   12.7590   -1.3646   23.1497 C   0  0  0  0  0  0  0  0  0  0  0  0
   11.8339   -1.8263   22.8684 C   0  0  0  0  0  0  0  0  0  0  0  0
    9.7292   -0.7531   22.5796 C   0  0  0  0  0  0  0  0  0  0  0  0
    9.1641   -0.0199   21.6236 C   0  0  0  0  0  0  0  0  0  0  0  0
    9.7595    0.9118   21.3820 O   0  0  0  0  0  0  0  0  0  0  0  0
    8.0656   -0.5787   21.1649 N   0  0  0  0  0  0  0  0  0  0  0  0
    7.4819   -0.0085   20.2384 C   0  0  0  0  0  0  0  0  0  0  0  0
    7.6358    0.2512   18.9466 C   0  0  0  0  0  0  0  0  0  0  0  0
    7.3498    0.6206   17.8652 N   0  0  0  0  0  0  0  0  0  0  0  0
    6.1545    1.1751   18.2439 C   0  0  0  0  0  0  0  0  0  0  0  0
    5.6343    1.1398   19.3267 C   0  0  0  0  0  0  0  0  0  0  0  0
    6.0487    0.6070   20.4747 C   0  0  0  0  0  0  0  0  0  0  0  0
    5.3664    0.6005   21.8900 Cl  0  0  0  0  0  0  0  0  0  0  0  0
    6.1311   -6.1507   26.6644 H   0  0  0  0  0  0  0  0  0  0  0  0
    5.5456   -4.6455   25.8784 H   0  0  0  0  0  0  0  0  0  0  0  0
    6.0108   -6.0606   24.8745 H   0  0  0  0  0  0  0  0  0  0  0  0
    7.1000   -3.3661   24.5003 H   0  0  0  0  0  0  0  0  0  0  0  0
   10.0931    0.0394   25.3782 H   0  0  0  0  0  0  0  0  0  0  0  0
   12.0247    0.6063   25.6052 H   0  0  0  0  0  0  0  0  0  0  0  0
   13.9990    0.1202   24.4308 H   0  0  0  0  0  0  0  0  0  0  0  0
   13.6220   -1.6967   22.5917 H   0  0  0  0  0  0  0  0  0  0  0  0
   11.7772   -1.7295   21.7741 H   0  0  0  0  0  0  0  0  0  0  0  0
   11.9405   -2.8875   23.1376 H   0  0  0  0  0  0  0  0  0  0  0  0
    8.8878   -0.5581   23.2608 H   0  0  0  0  0  0  0  0  0  0  0  0
    9.5384   -1.6788   22.0168 H   0  0  0  0  0  0  0  0  0  0  0  0
    7.7166   -1.4324   21.5515 H   0  0  0  0  0  0  0  0  0  0  0  0
    8.6509   -0.0821   18.7889 H   0  0  0  0  0  0  0  0  0  0  0  0
    5.6147    1.7086   17.4756 H   0  0  0  0  0  0  0  0  0  0  0  0
    4.6687    1.6209   19.3773 H   0  0  0  0  0  0  0  0  0  0  0  0
 20 21  2  0  0  0  0
 19 20  1  0  0  0  0
 21 22  1  0  0  0  0
 18 19  2  0  0  0  0
 22 23  2  0  0  0  0
 18 23  1  0  0  0  0
 17 18  1  0  0  0  0
 23 24  1  0  0  0  0
 15 16  2  0  0  0  0
 15 17  1  0  0  0  0
 14 15  1  0  0  0  0
  8 14  1  0  0  0  0
 12 13  1  0  0  0  0
  8 13  1  0  0  0  0
 11 12  2  0  0  0  0
  7  8  1  0  0  0  0
  8  9  1  0  0  0  0
  6  7  3  0  0  0  0
 10 11  1  0  0  0  0
  5  6  1  0  0  0  0
  9 10  2  0  0  0  0
  2  5  1  0  0  0  0
  2  3  2  0  0  0  0
  1  2  1  0  0  0  0
  2  4  2  0  0  0  0
  1 25  1  0  0  0  0
  1 26  1  0  0  0  0
  1 27  1  0  0  0  0
  5 28  1  0  0  0  0
  9 29  1  0  0  0  0
 10 30  1  0  0  0  0
 11 31  1  0  0  0  0
 12 32  1  0  0  0  0
 13 33  1  0  0  0  0
 13 34  1  0  0  0  0
 14 35  1  0  0  0  0
 14 36  1  0  0  0  0
 17 37  1  0  0  0  0
 19 38  1  0  0  0  0
 21 39  1  0  0  0  0
 22 40  1  0  0  0  0
M  END
> <Chemgauss4>
-13.069650

$$$$
