stable:False satoms:21 tatoms:24 sratio:0.875
  -OEChem-07092417283D

 24 24  0     0  0  0  0  0  0999 V2000
    8.9167   -1.9155   24.3170 C   0  0  0  0  0  0  0  0  0  0  0  0
    7.6772    0.0312   20.4355 S   0  0  0  0  0  0  0  0  0  0  0  0
   11.7430   -3.7084   23.4634 O   0  0  0  0  0  0  0  0  0  0  0  0
   10.0284   -3.7298   20.1888 H   0  0  0  0  0  0  0  0  0  0  0  0
    8.9720   -1.2364   26.3523 H   0  0  0  0  0  0  0  0  0  0  0  0
    9.4180   -4.8684   21.4098 H   0  0  0  0  0  0  0  0  0  0  0  0
    8.2566   -1.6337   25.6293 C   0  0  0  0  0  0  0  0  0  0  0  0
    8.2058   -0.0572   23.1356 C   0  0  0  0  0  0  0  0  0  0  0  0
    6.1999    1.5490   19.2387 H   0  0  0  0  0  0  0  0  0  0  0  0
    7.8506    0.7541   21.9652 C   0  0  0  0  0  0  0  0  0  0  0  0
    8.1876    0.8365   24.1419 N   0  0  0  0  0  0  0  0  0  0  0  0
    8.5574   -1.3353   23.1727 N   0  0  0  0  0  0  0  0  0  0  0  0
    7.7099    1.9751   22.3402 N   0  0  0  0  0  0  0  0  0  0  0  0
    9.8681   -2.8225   24.3630 N   0  0  0  0  0  0  0  0  0  0  0  0
   10.1890   -4.1302   21.1911 C   0  0  0  0  0  0  0  0  0  0  0  0
   11.1717   -4.6116   21.2560 H   0  0  0  0  0  0  0  0  0  0  0  0
    7.8369    1.4274   18.5695 H   0  0  0  0  0  0  0  0  0  0  0  0
   10.6429   -3.2363   23.3395 C   0  0  0  0  0  0  0  0  0  0  0  0
    7.5190    2.3990   20.0547 H   0  0  0  0  0  0  0  0  0  0  0  0
    7.9593    1.9895   23.6525 N   0  0  0  0  0  0  0  0  0  0  0  0
    7.8417   -2.5406   26.0212 H   0  0  0  0  0  0  0  0  0  0  0  0
   10.0982   -3.0527   22.0988 O   0  0  0  0  0  0  0  0  0  0  0  0
    7.2527    1.5232   19.4743 C   0  0  0  0  0  0  0  0  0  0  0  0
    7.4814   -0.8963   25.4859 H   0  0  0  0  0  0  0  0  0  0  0  0
 17 23  1  0  0  0  0
  9 23  1  0  0  0  0
 19 23  1  0  0  0  0
  2 23  1  0  0  0  0
  4 15  1  0  0  0  0
  2 10  1  0  0  0  0
 15 16  1  0  0  0  0
  6 15  1  0  0  0  0
 15 22  1  0  0  0  0
 10 13  1  0  0  0  0
  8 10  2  0  0  0  0
 18 22  1  0  0  0  0
 13 20  1  0  0  0  0
  8 12  1  0  0  0  0
  8 11  1  0  0  0  0
  1 12  1  0  0  0  0
  3 18  2  0  0  0  0
 14 18  1  0  0  0  0
 11 20  2  0  0  0  0
  1 14  2  0  0  0  0
  1  7  1  0  0  0  0
  7 24  1  0  0  0  0
  7 21  1  0  0  0  0
  5  7  1  0  0  0  0
M  END
> <Shapegauss>
-98.631187

$$$$
