stable:False satoms:21 tatoms:24 sratio:0.875
  -OEChem-08052417143D

 27 27  0     0  0  0  0  0  0999 V2000
  -10.2796   -1.5213  -22.4369 C   0  0  0  0  0  0  0  0  0  0  0  0
   -8.2389   -0.6324  -26.3659 S   0  0  0  0  0  0  0  0  0  0  0  0
   -7.9214   -0.6332  -20.0744 O   0  0  0  0  0  0  0  0  0  0  0  0
   -5.6547   -1.5076  -22.8602 H   0  0  0  0  0  0  0  0  0  0  0  0
  -12.2850   -1.2438  -21.7241 H   0  0  0  0  0  0  0  0  0  0  0  0
   -6.3577   -2.8664  -21.9550 H   0  0  0  0  0  0  0  0  0  0  0  0
  -11.7089   -1.9485  -22.3274 C   0  0  0  0  0  0  0  0  0  0  0  0
  -10.3226   -0.6188  -24.5671 C   0  0  0  0  0  0  0  0  0  0  0  0
   -8.3437   -0.5117  -28.7934 H   0  0  0  0  0  0  0  0  0  0  0  0
   -9.8020   -0.1831  -25.8684 C   0  0  0  0  0  0  0  0  0  0  0  0
  -11.5768   -0.1303  -24.5625 N   0  0  0  0  0  0  0  0  0  0  0  0
   -9.6790   -1.2505  -23.5949 N   0  0  0  0  0  0  0  0  0  0  0  0
  -10.7056    0.5140  -26.4589 N   0  0  0  0  0  0  0  0  0  0  0  0
   -9.6317   -1.4688  -21.2935 N   0  3  0  0  0  0  0  0  0  0  0  0
   -6.2745   -1.7811  -22.0048 C   0  0  0  0  0  0  0  0  0  0  0  0
   -5.8234   -1.4154  -21.0751 H   0  0  0  0  0  0  0  0  0  0  0  0
   -7.2397    0.6533  -28.0409 H   0  0  0  0  0  0  0  0  0  0  0  0
   -8.3534   -1.0828  -21.1039 C   0  0  0  0  0  0  0  0  0  0  0  0
   -9.0218    0.9266  -28.0191 H   0  0  0  0  0  0  0  0  0  0  0  0
  -11.7462    0.5547  -25.6222 N   0  0  0  0  0  0  0  0  0  0  0  0
  -11.7575   -2.9141  -21.8655 H   0  0  0  0  0  0  0  0  0  0  0  0
   -7.5491   -1.2070  -22.2027 O   0  0  0  0  0  0  0  0  0  0  0  0
   -8.2194    0.1985  -27.9905 C   0  0  0  0  0  0  0  0  0  0  0  0
  -12.1467   -1.9804  -23.3135 H   0  0  0  0  0  0  0  0  0  0  0  0
   -8.7282   -1.5280  -23.7331 H   0  0  0  0  0  0  0  0  0  0  0  0
  -10.6426    0.9397  -27.3616 H   0  0  0  0  0  0  0  0  0  0  0  0
  -10.1410   -1.7443  -20.4782 H   0  0  0  0  0  0  0  0  0  0  0  0
 17 23  1  0  0  0  0
  9 23  1  0  0  0  0
 19 23  1  0  0  0  0
  2 23  1  0  0  0  0
  4 15  1  0  0  0  0
  2 10  1  0  0  0  0
 15 16  1  0  0  0  0
  6 15  1  0  0  0  0
 15 22  1  0  0  0  0
 10 13  1  0  0  0  0
  8 10  2  0  0  0  0
 18 22  1  0  0  0  0
 13 20  1  0  0  0  0
  8 12  1  0  0  0  0
  8 11  1  0  0  0  0
  1 12  1  0  0  0  0
  3 18  2  0  0  0  0
 14 18  1  0  0  0  0
 11 20  2  0  0  0  0
  1 14  2  0  0  0  0
  1  7  1  0  0  0  0
  7 24  1  0  0  0  0
  7 21  1  0  0  0  0
  5  7  1  0  0  0  0
 12 25  1  0  0  0  0
 13 26  1  0  0  0  0
 14 27  1  0  0  0  0
M  CHG  1  14   1
M  END
> <Chemgauss4>
-5.701962

$$$$
