stable:False satoms:21 tatoms:24 sratio:0.875
  -OEChem-08052417143D

 27 27  0     0  0  0  0  0  0999 V2000
   10.4463   -1.3503   22.2401 C   0  0  0  0  0  0  0  0  0  0  0  0
    8.4055   -0.4614   26.1691 S   0  0  0  0  0  0  0  0  0  0  0  0
    8.0881   -0.4622   19.8776 O   0  0  0  0  0  0  0  0  0  0  0  0
    5.8213   -1.3366   22.6634 H   0  0  0  0  0  0  0  0  0  0  0  0
   12.4517   -1.0728   21.5272 H   0  0  0  0  0  0  0  0  0  0  0  0
    6.5244   -2.6953   21.7581 H   0  0  0  0  0  0  0  0  0  0  0  0
   11.8756   -1.7775   22.1305 C   0  0  0  0  0  0  0  0  0  0  0  0
   10.4893   -0.4478   24.3703 C   0  0  0  0  0  0  0  0  0  0  0  0
    8.5103   -0.3407   28.5966 H   0  0  0  0  0  0  0  0  0  0  0  0
    9.9686   -0.0121   25.6716 C   0  0  0  0  0  0  0  0  0  0  0  0
   11.7435    0.0407   24.3656 N   0  0  0  0  0  0  0  0  0  0  0  0
    9.8457   -1.0795   23.3981 N   0  0  0  0  0  0  0  0  0  0  0  0
   10.8723    0.6851   26.2621 N   0  0  0  0  0  0  0  0  0  0  0  0
    9.7984   -1.2978   21.0967 N   0  3  0  0  0  0  0  0  0  0  0  0
    6.4412   -1.6101   21.8080 C   0  0  0  0  0  0  0  0  0  0  0  0
    5.9901   -1.2444   20.8783 H   0  0  0  0  0  0  0  0  0  0  0  0
    7.4064    0.8243   27.8441 H   0  0  0  0  0  0  0  0  0  0  0  0
    8.5200   -0.9118   20.9070 C   0  0  0  0  0  0  0  0  0  0  0  0
    9.1884    1.0976   27.8223 H   0  0  0  0  0  0  0  0  0  0  0  0
   11.9129    0.7258   25.4254 N   0  0  0  0  0  0  0  0  0  0  0  0
   11.9242   -2.7431   21.6687 H   0  0  0  0  0  0  0  0  0  0  0  0
    7.7157   -1.0360   22.0059 O   0  0  0  0  0  0  0  0  0  0  0  0
    8.3861    0.3695   27.7937 C   0  0  0  0  0  0  0  0  0  0  0  0
   12.3133   -1.8094   23.1167 H   0  0  0  0  0  0  0  0  0  0  0  0
    8.8949   -1.3569   23.5363 H   0  0  0  0  0  0  0  0  0  0  0  0
   10.8093    1.1107   27.1648 H   0  0  0  0  0  0  0  0  0  0  0  0
   10.3077   -1.5733   20.2814 H   0  0  0  0  0  0  0  0  0  0  0  0
 17 23  1  0  0  0  0
  9 23  1  0  0  0  0
 19 23  1  0  0  0  0
  2 23  1  0  0  0  0
  4 15  1  0  0  0  0
  2 10  1  0  0  0  0
 15 16  1  0  0  0  0
  6 15  1  0  0  0  0
 15 22  1  0  0  0  0
 10 13  1  0  0  0  0
  8 10  2  0  0  0  0
 18 22  1  0  0  0  0
 13 20  1  0  0  0  0
  8 12  1  0  0  0  0
  8 11  1  0  0  0  0
  1 12  1  0  0  0  0
  3 18  2  0  0  0  0
 14 18  1  0  0  0  0
 11 20  2  0  0  0  0
  1 14  2  0  0  0  0
  1  7  1  0  0  0  0
  7 24  1  0  0  0  0
  7 21  1  0  0  0  0
  5  7  1  0  0  0  0
 12 25  1  0  0  0  0
 13 26  1  0  0  0  0
 14 27  1  0  0  0  0
M  CHG  1  14   1
M  END
> <Chemgauss4>
-5.852342

$$$$
