stable:False satoms:21 tatoms:24 sratio:0.875
  -OEChem-07092417303D

 24 25  0     1  0  0  0  0  0999 V2000
   10.6569    0.5702   21.8814 S   0  0  0  0  0  0  0  0  0  0  0  0
    6.8310    0.0112   21.2817 C   0  0  0  0  0  0  0  0  0  0  0  0
   11.4319   -0.4196   25.1731 H   0  0  0  0  0  0  0  0  0  0  0  0
   12.4196    0.5863   23.4191 H   0  0  0  0  0  0  0  0  0  0  0  0
   10.8609   -2.7574   24.8205 H   0  0  0  0  0  0  0  0  0  0  0  0
    5.8236   -3.0011   22.2388 H   0  0  0  0  0  0  0  0  0  0  0  0
    6.5375   -2.3154   22.0541 N   0  0  0  0  0  0  0  0  0  0  0  0
   11.7382   -0.2101   23.1330 C   0  0  0  0  0  0  0  0  0  0  0  0
    7.7339   -2.8024   21.4828 C   0  0  0  0  0  0  0  0  0  0  0  0
    8.2970   -2.2197   24.1686 H   0  0  0  0  0  0  0  0  0  0  0  0
    6.0995   -0.9577   22.1996 C   0  0  0  0  0  0  0  0  0  0  0  0
    8.0905    0.4379   21.6770 N   0  0  0  0  0  0  0  0  0  0  0  0
   11.0471   -0.7331   24.2874 N   0  0  0  0  0  0  0  0  0  0  0  0
   10.3877   -1.9327   24.2937 C   0  0  0  0  0  0  0  0  0  0  0  0
    7.8397   -3.8795   21.6613 H   0  0  0  0  0  0  0  0  0  0  0  0
    5.0210   -0.8852   21.9676 H   0  0  0  0  0  0  0  0  0  0  0  0
    9.3981   -2.0617   21.8960 S   0  3  1  0  0  0  0  0  0  0  0  0
    7.7412   -2.5965   20.4174 H   0  0  0  0  0  0  0  0  0  0  0  0
   12.2875   -1.0003   22.6067 H   0  0  0  0  0  0  0  0  0  0  0  0
    9.2038   -0.2851   21.8123 C   0  0  3  0  0  0  0  0  0  0  0  0
    9.2375   -2.0998   23.6784 C   0  0  0  0  0  0  0  0  0  0  0  0
    6.2398   -0.6456   23.2364 H   0  0  0  0  0  0  0  0  0  0  0  0
    6.3788    0.4609   20.2673 O   0  0  0  0  0  0  0  0  0  0  0  0
    8.2814    1.4465   21.6423 H   0  0  0  0  0  0  0  0  0  0  0  0
  2 23  2  0  0  0  0
  9 18  1  0  0  0  0
  2 12  1  0  0  0  0
  2 11  1  0  0  0  0
  9 15  1  0  0  0  0
  9 17  1  0  0  0  0
  7  9  1  0  0  0  0
 12 24  1  0  0  0  0
 12 20  1  0  0  0  0
  1 20  1  0  0  0  0
 17 20  1  0  0  0  0
  1  8  1  0  0  0  0
 17 21  1  0  0  0  0
 11 16  1  0  0  0  0
  7 11  1  0  0  0  0
  6  7  1  0  0  0  0
 11 22  1  0  0  0  0
  8 19  1  0  0  0  0
  4  8  1  0  0  0  0
  8 13  1  0  0  0  0
 10 21  1  0  0  0  0
 14 21  2  0  0  0  0
 13 14  1  0  0  0  0
  3 13  1  0  0  0  0
  5 14  1  0  0  0  0
M  CHG  1  17   1
M  END
> <Shapegauss>
-131.950089

$$$$
