stable:False satoms:21 tatoms:24 sratio:0.875
  -OEChem-08052415213D

 26 27  0     1  0  0  0  0  0999 V2000
  -12.1328   -1.3973  -23.2159 S   0  0  0  0  0  0  0  0  0  0  0  0
   -8.5816   -2.4571  -21.9609 C   0  0  0  0  0  0  0  0  0  0  0  0
  -12.2813    2.0885  -24.0221 H   0  0  0  0  0  0  0  0  0  0  0  0
  -13.6166    0.3580  -23.6506 H   0  0  0  0  0  0  0  0  0  0  0  0
  -10.5255    2.2019  -25.2690 H   0  0  0  0  0  0  0  0  0  0  0  0
   -6.2747   -1.7680  -23.6826 H   0  0  0  0  0  0  0  0  0  0  0  0
   -7.1126   -1.2436  -23.5310 N   0  0  0  0  0  0  0  0  0  0  0  0
  -12.6285    0.1517  -24.0523 C   0  0  0  0  0  0  0  0  0  0  0  0
   -7.8983   -1.4952  -24.6774 C   0  0  0  0  0  0  0  0  0  0  0  0
   -8.6220    1.0485  -23.7413 H   0  0  0  0  0  0  0  0  0  0  0  0
   -7.4350   -1.4748  -22.1530 C   0  0  0  0  0  0  0  0  0  0  0  0
   -9.8716   -1.9718  -22.1194 N   0  0  0  0  0  0  0  0  0  0  0  0
  -11.7414    1.2688  -23.8311 N   0  3  0  0  0  0  0  0  0  0  0  0
  -10.5575    1.4368  -24.4975 C   0  0  0  0  0  0  0  0  0  0  0  0
   -7.4291   -1.0673  -25.5719 H   0  0  0  0  0  0  0  0  0  0  0  0
   -6.5541   -1.8852  -21.6260 H   0  0  0  0  0  0  0  0  0  0  0  0
   -9.6964   -0.9982  -24.7703 S   0  3  1  0  0  0  0  0  0  0  0  0
   -8.0342   -2.5647  -24.8006 H   0  0  0  0  0  0  0  0  0  0  0  0
  -12.7026   -0.0919  -25.1192 H   0  0  0  0  0  0  0  0  0  0  0  0
  -10.4487   -1.5043  -23.2280 C   0  0  3  0  0  0  0  0  0  0  0  0
   -9.5000    0.6995  -24.2378 C   0  0  0  0  0  0  0  0  0  0  0  0
   -7.6934   -0.5245  -21.6816 H   0  0  0  0  0  0  0  0  0  0  0  0
   -8.4488   -3.6046  -21.6426 O   0  0  0  0  0  0  0  0  0  0  0  0
  -10.5563   -2.1990  -21.3884 H   0  0  0  0  0  0  0  0  0  0  0  0
  -10.3731   -0.4758  -22.8452 H   0  0  0  0  0  0  0  0  0  0  0  0
  -11.5067    1.2431  -22.8593 H   0  0  0  0  0  0  0  0  0  0  0  0
  2 23  2  0  0  0  0
  9 18  1  0  0  0  0
  2 12  1  0  0  0  0
  2 11  1  0  0  0  0
  9 15  1  0  0  0  0
  9 17  1  0  0  0  0
  7  9  1  0  0  0  0
 12 24  1  0  0  0  0
 12 20  1  0  0  0  0
  1 20  1  0  0  0  0
 17 20  1  0  0  0  0
  1  8  1  0  0  0  0
 17 21  1  0  0  0  0
 11 16  1  0  0  0  0
  7 11  1  0  0  0  0
  6  7  1  0  0  0  0
 11 22  1  0  0  0  0
  8 19  1  0  0  0  0
  4  8  1  0  0  0  0
  8 13  1  0  0  0  0
 10 21  1  0  0  0  0
 14 21  2  0  0  0  0
 13 14  1  0  0  0  0
  3 13  1  0  0  0  0
  5 14  1  0  0  0  0
 20 25  1  0  0  0  0
 13 26  1  0  0  0  0
M  CHG  2  13   1  17   1
M  END
> <Chemgauss4>
-5.771403

$$$$
