stable:False satoms:21 tatoms:24 sratio:0.875
  -OEChem-08052415213D

 26 27  0     1  0  0  0  0  0999 V2000
   12.0144   -1.6092   22.7782 S   0  0  0  0  0  0  0  0  0  0  0  0
    8.2872   -2.6448   22.1908 C   0  0  0  0  0  0  0  0  0  0  0  0
   12.2791    1.5841   24.3770 H   0  0  0  0  0  0  0  0  0  0  0  0
   13.5170    0.1147   23.2706 H   0  0  0  0  0  0  0  0  0  0  0  0
   10.8974    1.2442   25.9974 H   0  0  0  0  0  0  0  0  0  0  0  0
    6.4799   -2.5887   24.5343 H   0  0  0  0  0  0  0  0  0  0  0  0
    7.2384   -1.9724   24.3224 N   0  0  0  0  0  0  0  0  0  0  0  0
   12.6693   -0.2666   23.8332 C   0  0  0  0  0  0  0  0  0  0  0  0
    8.2965   -2.4201   25.1440 C   0  0  0  0  0  0  0  0  0  0  0  0
    8.6956    0.3262   24.7337 H   0  0  0  0  0  0  0  0  0  0  0  0
    7.2041   -1.8402   22.8949 C   0  0  0  0  0  0  0  0  0  0  0  0
    9.5627   -2.1008   22.1508 N   0  0  0  0  0  0  0  0  0  0  0  0
   11.7283    0.7895   24.1214 N   0  3  0  0  0  0  0  0  0  0  0  0
   10.7500    0.6904   25.0737 C   0  0  0  0  0  0  0  0  0  0  0  0
    8.0608   -2.2599   26.2032 H   0  0  0  0  0  0  0  0  0  0  0  0
    6.2280   -2.1885   22.5099 H   0  0  0  0  0  0  0  0  0  0  0  0
   10.0462   -1.8050   24.9229 S   0  3  1  0  0  0  0  0  0  0  0  0
    8.4853   -3.4722   24.9570 H   0  0  0  0  0  0  0  0  0  0  0  0
   13.0191   -0.7496   24.7538 H   0  0  0  0  0  0  0  0  0  0  0  0
   10.3922   -1.8621   23.1685 C   0  0  3  0  0  0  0  0  0  0  0  0
    9.6794   -0.0531   24.8993 C   0  0  0  0  0  0  0  0  0  0  0  0
    7.3105   -0.7862   22.6305 H   0  0  0  0  0  0  0  0  0  0  0  0
    8.1054   -3.6908   21.6352 O   0  0  0  0  0  0  0  0  0  0  0  0
   10.0436   -2.0871   21.2433 H   0  0  0  0  0  0  0  0  0  0  0  0
   10.1964   -0.7827   23.0874 H   0  0  0  0  0  0  0  0  0  0  0  0
   11.2542    0.9755   23.2608 H   0  0  0  0  0  0  0  0  0  0  0  0
  2 23  2  0  0  0  0
  9 18  1  0  0  0  0
  2 12  1  0  0  0  0
  2 11  1  0  0  0  0
  9 15  1  0  0  0  0
  9 17  1  0  0  0  0
  7  9  1  0  0  0  0
 12 24  1  0  0  0  0
 12 20  1  0  0  0  0
  1 20  1  0  0  0  0
 17 20  1  0  0  0  0
  1  8  1  0  0  0  0
 17 21  1  0  0  0  0
 11 16  1  0  0  0  0
  7 11  1  0  0  0  0
  6  7  1  0  0  0  0
 11 22  1  0  0  0  0
  8 19  1  0  0  0  0
  4  8  1  0  0  0  0
  8 13  1  0  0  0  0
 10 21  1  0  0  0  0
 14 21  2  0  0  0  0
 13 14  1  0  0  0  0
  3 13  1  0  0  0  0
  5 14  1  0  0  0  0
 20 25  1  0  0  0  0
 13 26  1  0  0  0  0
M  CHG  2  13   1  17   1
M  END
> <Chemgauss4>
-5.960742

$$$$
