stable:False satoms:9 tatoms:24 sratio:0.375
  -OEChem-07092417473D

 24 26  0     1  0  0  0  0  0999 V2000
    6.5934   -4.8310   26.4394 C   0  0  0  0  0  0  0  0  0  0  0  0
    8.2223   -4.2799   26.1017 S   0  0  0  0  0  0  0  0  0  0  0  0
    9.0664   -5.4589   26.0297 O   0  0  0  0  0  0  0  0  0  0  0  0
    8.6077   -3.3827   27.1449 O   0  0  0  0  0  0  0  0  0  0  0  0
    8.1092   -3.5930   24.6719 N   0  0  0  0  0  0  0  0  0  0  0  0
    8.9189   -2.9047   24.1205 C   0  0  0  0  0  0  0  0  0  0  0  0
    9.4121   -1.9853   23.5053 C   0  0  0  0  0  0  0  0  0  0  0  0
   10.3645   -1.0896   23.2738 C   0  0  1  0  0  0  0  0  0  0  0  0
   11.0792   -0.0083   24.2338 C   0  0  0  0  0  0  0  0  0  0  0  0
   12.1613    0.2955   24.2180 C   0  0  0  0  0  0  0  0  0  0  0  0
   13.1542   -0.1421   23.5056 C   0  0  0  0  0  0  0  0  0  0  0  0
   12.7347   -1.2975   22.6238 C   0  0  0  0  0  0  0  0  0  0  0  0
   11.8416   -1.6712   22.5256 C   0  0  0  0  0  0  0  0  0  0  0  0
    9.6612   -0.6427   22.4018 C   0  0  3  0  0  0  0  0  0  0  0  0
    9.0399    0.0199   21.4243 C   0  0  0  0  0  0  0  0  0  0  0  0
    9.5856    0.9231   21.0003 O   0  0  0  0  0  0  0  0  0  0  0  0
    7.8961   -0.5624   21.1229 N   0  0  0  0  0  0  0  0  0  0  0  0
    7.1798   -0.0834   20.1928 C   0  0  0  0  0  0  0  0  0  0  0  0
    7.1863    0.0108   18.9060 C   0  0  0  0  0  0  0  0  0  0  0  0
    6.8096    0.2705   17.7683 N   0  0  0  0  0  0  0  0  0  0  0  0
    5.6866    0.8606   18.2422 C   0  0  0  0  0  0  0  0  0  0  0  0
    5.2625    0.9899   19.3397 C   0  0  0  0  0  0  0  0  0  0  0  0
    5.8027    0.5698   20.5305 C   0  0  0  0  0  0  0  0  0  0  0  0
    5.2081    0.7023   21.9740 Cl  0  0  0  0  0  0  0  0  0  0  0  0
 20 21  2  0  0  0  0
 19 20  1  0  0  0  0
 21 22  1  0  0  0  0
 18 19  2  0  0  0  0
 22 23  2  0  0  0  0
 18 23  1  0  0  0  0
 17 18  1  0  0  0  0
 23 24  1  0  0  0  0
 15 16  2  0  0  0  0
 15 17  1  0  0  0  0
 14 15  1  0  0  0  0
  8 14  1  0  0  0  0
  7 14  1  0  0  0  0
 12 13  1  0  0  0  0
  8 13  1  0  0  0  0
 11 12  2  0  0  0  0
  7  8  1  0  0  0  0
  8  9  1  0  0  0  0
  6  7  2  3  0  0  0
 10 11  1  0  0  0  0
  5  6  1  0  0  0  0
  9 10  2  0  0  0  0
  2  5  1  0  0  0  0
  2  3  2  0  0  0  0
  1  2  1  0  0  0  0
  2  4  2  0  0  0  0
M  END
> <Shapegauss>
-286.638519

$$$$
