stable:False satoms:9 tatoms:24 sratio:0.375
  -OEChem-08062412443D

 40 42  0     1  0  0  0  0  0999 V2000
   -6.6943   -5.2932  -26.2990 C   0  0  0  0  0  0  0  0  0  0  0  0
   -8.3106   -4.6540  -26.0759 S   0  0  0  0  0  0  0  0  0  0  0  0
   -9.2123   -5.7890  -25.9969 O   0  0  0  0  0  0  0  0  0  0  0  0
   -8.5978   -3.7910  -27.1780 O   0  0  0  0  0  0  0  0  0  0  0  0
   -8.2401   -3.9055  -24.6745 N   0  0  0  0  0  0  0  0  0  0  0  0
   -9.0440   -3.1560  -24.1998 C   0  0  0  0  0  0  0  0  0  0  0  0
   -9.5246   -2.1871  -23.6545 C   0  0  0  0  0  0  0  0  0  0  0  0
  -10.4442   -1.2395  -23.5160 C   0  0  1  0  0  0  0  0  0  0  0  0
  -11.0555   -0.1740  -24.5614 C   0  0  0  0  0  0  0  0  0  0  0  0
  -12.1212    0.1785  -24.6184 C   0  0  0  0  0  0  0  0  0  0  0  0
  -13.1698   -0.1795  -23.9421 C   0  0  0  0  0  0  0  0  0  0  0  0
  -12.8524   -1.3093  -22.9875 C   0  0  0  0  0  0  0  0  0  0  0  0
  -11.9844   -1.7177  -22.8240 C   0  0  0  0  0  0  0  0  0  0  0  0
   -9.7671   -0.7836  -22.6280 C   0  0  3  0  0  0  0  0  0  0  0  0
   -9.1671   -0.1039  -21.6490 C   0  0  0  0  0  0  0  0  0  0  0  0
   -9.6908    0.8421  -21.2966 O   0  0  0  0  0  0  0  0  0  0  0  0
   -8.0696   -0.7220  -21.2596 N   0  0  0  0  0  0  0  0  0  0  0  0
   -7.3811   -0.2320  -20.3144 C   0  0  0  0  0  0  0  0  0  0  0  0
   -7.4506   -0.0764  -19.0355 C   0  0  0  0  0  0  0  0  0  0  0  0
   -7.1221    0.2200  -17.8918 N   0  0  0  0  0  0  0  0  0  0  0  0
   -5.9490    0.7357  -18.3299 C   0  0  0  0  0  0  0  0  0  0  0  0
   -5.4624    0.7934  -19.4073 C   0  0  0  0  0  0  0  0  0  0  0  0
   -5.9588    0.3418  -20.6057 C   0  0  0  0  0  0  0  0  0  0  0  0
   -5.2837    0.3785  -22.0191 Cl  0  0  0  0  0  0  0  0  0  0  0  0
   -6.6425   -5.8355  -27.2547 H   0  0  0  0  0  0  0  0  0  0  0  0
   -5.9705   -4.4649  -26.3080 H   0  0  0  0  0  0  0  0  0  0  0  0
   -6.4548   -5.9805  -25.4742 H   0  0  0  0  0  0  0  0  0  0  0  0
   -7.3919   -3.3772  -24.7116 H   0  0  0  0  0  0  0  0  0  0  0  0
   -9.9443   -3.7261  -24.3755 H   0  0  0  0  0  0  0  0  0  0  0  0
  -10.3687    0.2445  -25.2822 H   0  0  0  0  0  0  0  0  0  0  0  0
  -12.3033    0.9428  -25.3594 H   0  0  0  0  0  0  0  0  0  0  0  0
  -14.1452    0.2719  -24.0477 H   0  0  0  0  0  0  0  0  0  0  0  0
  -13.6830   -1.7077  -22.4238 H   0  0  0  0  0  0  0  0  0  0  0  0
  -11.8395   -1.6490  -21.7357 H   0  0  0  0  0  0  0  0  0  0  0  0
  -12.1088   -2.7722  -23.1114 H   0  0  0  0  0  0  0  0  0  0  0  0
  -10.2953   -1.4042  -21.8892 H   0  0  0  0  0  0  0  0  0  0  0  0
   -7.7828   -1.5697  -21.7058 H   0  0  0  0  0  0  0  0  0  0  0  0
   -8.4469   -0.4515  -18.8540 H   0  0  0  0  0  0  0  0  0  0  0  0
   -5.3449    1.1767  -17.5508 H   0  0  0  0  0  0  0  0  0  0  0  0
   -4.4930    1.2671  -19.4547 H   0  0  0  0  0  0  0  0  0  0  0  0
 20 21  2  0  0  0  0
 19 20  1  0  0  0  0
 21 22  1  0  0  0  0
 18 19  2  0  0  0  0
 22 23  2  0  0  0  0
 18 23  1  0  0  0  0
 17 18  1  0  0  0  0
 23 24  1  0  0  0  0
 15 16  2  0  0  0  0
 15 17  1  0  0  0  0
 14 15  1  0  0  0  0
  8 14  1  0  0  0  0
  7 14  1  0  0  0  0
 12 13  1  0  0  0  0
  8 13  1  0  0  0  0
 11 12  2  0  0  0  0
  7  8  1  0  0  0  0
  8  9  1  0  0  0  0
  6  7  2  3  0  0  0
 10 11  1  0  0  0  0
  5  6  1  0  0  0  0
  9 10  2  0  0  0  0
  2  5  1  0  0  0  0
  2  3  2  0  0  0  0
  1  2  1  0  0  0  0
  2  4  2  0  0  0  0
  1 25  1  0  0  0  0
  1 26  1  0  0  0  0
  1 27  1  0  0  0  0
  5 28  1  0  0  0  0
  6 29  1  0  0  0  0
  9 30  1  0  0  0  0
 10 31  1  0  0  0  0
 11 32  1  0  0  0  0
 12 33  1  0  0  0  0
 13 34  1  0  0  0  0
 13 35  1  0  0  0  0
 14 36  1  0  0  0  0
 17 37  1  0  0  0  0
 19 38  1  0  0  0  0
 21 39  1  0  0  0  0
 22 40  1  0  0  0  0
M  END
> <Chemgauss4>
-13.118406

$$$$
