stable:False satoms:9 tatoms:24 sratio:0.375
  -OEChem-08062412443D

 40 42  0     1  0  0  0  0  0999 V2000
    6.2555   -5.4445   25.7864 C   0  0  0  0  0  0  0  0  0  0  0  0
    7.9014   -4.8493   25.6980 S   0  0  0  0  0  0  0  0  0  0  0  0
    8.7697   -6.0075   25.5871 O   0  0  0  0  0  0  0  0  0  0  0  0
    8.1527   -4.0761   26.8731 O   0  0  0  0  0  0  0  0  0  0  0  0
    7.9345   -4.0029   24.3521 N   0  0  0  0  0  0  0  0  0  0  0  0
    8.7875   -3.2512   23.9767 C   0  0  0  0  0  0  0  0  0  0  0  0
    9.3288   -2.2644   23.5293 C   0  0  0  0  0  0  0  0  0  0  0  0
   10.2844   -1.3428   23.5093 C   0  0  1  0  0  0  0  0  0  0  0  0
   10.8687   -0.3754   24.6600 C   0  0  0  0  0  0  0  0  0  0  0  0
   11.9402   -0.0659   24.8001 C   0  0  0  0  0  0  0  0  0  0  0  0
   13.0136   -0.4131   24.1581 C   0  0  0  0  0  0  0  0  0  0  0  0
   12.7153   -1.4615   23.1091 C   0  0  0  0  0  0  0  0  0  0  0  0
   11.8455   -1.8263   22.8697 C   0  0  0  0  0  0  0  0  0  0  0  0
    9.6737   -0.8023   22.6207 C   0  0  3  0  0  0  0  0  0  0  0  0
    9.1523   -0.0349   21.6616 C   0  0  0  0  0  0  0  0  0  0  0  0
    9.7249    0.9140   21.4069 O   0  0  0  0  0  0  0  0  0  0  0  0
    8.0596   -0.5849   21.1698 N   0  0  0  0  0  0  0  0  0  0  0  0
    7.4419   -0.0059   20.2260 C   0  0  0  0  0  0  0  0  0  0  0  0
    7.5888    0.2360   18.9672 C   0  0  0  0  0  0  0  0  0  0  0  0
    7.3355    0.6229   17.8315 N   0  0  0  0  0  0  0  0  0  0  0  0
    6.1564    1.1484   18.2409 C   0  0  0  0  0  0  0  0  0  0  0  0
    5.6113    1.1481   19.2916 C   0  0  0  0  0  0  0  0  0  0  0  0
    6.0242    0.5966   20.4797 C   0  0  0  0  0  0  0  0  0  0  0  0
    5.2713    0.5587   21.8532 Cl  0  0  0  0  0  0  0  0  0  0  0  0
    6.1324   -6.0499   26.6965 H   0  0  0  0  0  0  0  0  0  0  0  0
    5.5591   -4.5935   25.8152 H   0  0  0  0  0  0  0  0  0  0  0  0
    6.0417   -6.0635   24.9026 H   0  0  0  0  0  0  0  0  0  0  0  0
    7.1027   -3.4485   24.3807 H   0  0  0  0  0  0  0  0  0  0  0  0
    9.6578   -3.8639   24.1600 H   0  0  0  0  0  0  0  0  0  0  0  0
   10.1557    0.0160   25.3705 H   0  0  0  0  0  0  0  0  0  0  0  0
   12.1040    0.6378   25.6028 H   0  0  0  0  0  0  0  0  0  0  0  0
   13.9953   -0.0052   24.3487 H   0  0  0  0  0  0  0  0  0  0  0  0
   13.5636   -1.8490   22.5644 H   0  0  0  0  0  0  0  0  0  0  0  0
   11.7650   -1.6767   21.7829 H   0  0  0  0  0  0  0  0  0  0  0  0
   11.9199   -2.9020   23.0872 H   0  0  0  0  0  0  0  0  0  0  0  0
   10.2231   -1.3883   21.8692 H   0  0  0  0  0  0  0  0  0  0  0  0
    7.7211   -1.4509   21.5378 H   0  0  0  0  0  0  0  0  0  0  0  0
    8.5815   -0.1609   18.8138 H   0  0  0  0  0  0  0  0  0  0  0  0
    5.6118    1.6639   17.4636 H   0  0  0  0  0  0  0  0  0  0  0  0
    4.6563    1.6516   19.3199 H   0  0  0  0  0  0  0  0  0  0  0  0
 20 21  2  0  0  0  0
 19 20  1  0  0  0  0
 21 22  1  0  0  0  0
 18 19  2  0  0  0  0
 22 23  2  0  0  0  0
 18 23  1  0  0  0  0
 17 18  1  0  0  0  0
 23 24  1  0  0  0  0
 15 16  2  0  0  0  0
 15 17  1  0  0  0  0
 14 15  1  0  0  0  0
  8 14  1  0  0  0  0
  7 14  1  0  0  0  0
 12 13  1  0  0  0  0
  8 13  1  0  0  0  0
 11 12  2  0  0  0  0
  7  8  1  0  0  0  0
  8  9  1  0  0  0  0
  6  7  2  3  0  0  0
 10 11  1  0  0  0  0
  5  6  1  0  0  0  0
  9 10  2  0  0  0  0
  2  5  1  0  0  0  0
  2  3  2  0  0  0  0
  1  2  1  0  0  0  0
  2  4  2  0  0  0  0
  1 25  1  0  0  0  0
  1 26  1  0  0  0  0
  1 27  1  0  0  0  0
  5 28  1  0  0  0  0
  6 29  1  0  0  0  0
  9 30  1  0  0  0  0
 10 31  1  0  0  0  0
 11 32  1  0  0  0  0
 12 33  1  0  0  0  0
 13 34  1  0  0  0  0
 13 35  1  0  0  0  0
 14 36  1  0  0  0  0
 17 37  1  0  0  0  0
 19 38  1  0  0  0  0
 21 39  1  0  0  0  0
 22 40  1  0  0  0  0
M  END
> <Chemgauss4>
-13.023423

$$$$
