stable:False satoms:19 tatoms:24 sratio:0.7916666666666666
  -OEChem-07092417333D

 24 23  0     1  0  0  0  0  0999 V2000
    8.6387   -2.8298   25.7591 N   0  3  0  0  0  0  0  0  0  0  0  0
    7.8654   -3.7630   21.3343 H   0  0  0  0  0  0  0  0  0  0  0  0
    8.6508   -3.9441   25.3326 O   0  0  0  0  0  0  0  0  0  0  0  0
    9.0226   -1.8943   25.0474 C   0  0  0  0  0  0  0  0  0  0  0  0
    9.2488    0.1547   23.6236 C   0  3  0  0  0  0  0  0  0  0  0  0
    8.7629   -1.0978   24.0639 C   0  5  3  0  0  0  0  0  0  0  0  0
   10.1239   -3.4042   21.8303 H   0  0  0  0  0  0  0  0  0  0  0  0
    7.2301   -1.8782   20.6629 C   0  0  0  0  0  0  0  0  0  0  0  0
   10.3532   -1.3638   21.6363 C   0  0  3  0  0  0  0  0  0  0  0  0
   11.5116   -0.8985   24.1260 H   0  0  0  0  0  0  0  0  0  0  0  0
   11.3964   -1.2228   22.2604 N   0  0  0  0  0  0  0  0  0  0  0  0
   12.1042   -0.9634   23.3554 O   0  0  0  0  0  0  0  0  0  0  0  0
   10.2124    0.3468   23.1180 H   0  0  0  0  0  0  0  0  0  0  0  0
    8.5231    1.2161   23.7124 N   0  3  0  0  0  0  0  0  0  0  0  0
    8.2214   -2.7116   21.1841 C   0  0  0  0  0  0  0  0  0  0  0  0
    9.5665   -2.5219   21.5376 C   0  5  3  0  0  0  0  0  0  0  0  0
    6.5511    0.3280   22.2588 S   0  0  0  0  0  0  0  0  0  0  0  0
    9.8742   -0.0151   20.4138 Br  0  0  0  0  0  0  0  0  0  0  0  0
    6.7758   -2.2776   19.7269 H   0  0  0  0  0  0  0  0  0  0  0  0
    6.5249   -0.7211   20.9528 C   0  3  0  0  0  0  0  0  0  0  0  0
    7.5450    1.5018   22.8842 C   0  3  0  0  0  0  0  0  0  0  0  0
    7.3268    2.5162   22.6296 H   0  0  0  0  0  0  0  0  0  0  0  0
    5.6982   -0.4178   20.3088 H   0  0  0  0  0  0  0  0  0  0  0  0
    7.8564   -1.4287   23.5375 H   0  0  0  0  0  0  0  0  0  0  0  0
  8 19  1  0  0  0  0
 20 23  1  0  0  0  0
  9 18  1  0  0  0  0
  8 20  1  0  0  0  0
  8 15  2  3  0  0  0
 17 20  1  0  0  0  0
  2 15  1  0  0  0  0
 15 16  1  0  0  0  0
  9 16  1  0  0  0  0
  7 16  1  0  0  0  0
  9 11  1  0  0  0  0
 17 21  1  0  0  0  0
 11 12  1  0  0  0  0
 21 22  1  0  0  0  0
 14 21  1  0  0  0  0
  5 13  1  0  0  0  0
 10 12  1  0  0  0  0
  6 24  1  0  0  0  0
  5 14  1  0  0  0  0
  5  6  1  0  0  0  0
  4  6  1  0  0  0  0
  1  4  2  0  0  0  0
  1  3  2  0  0  0  0
M  CHG  7   1   1   5   1   6  -1  14   1  16  -1  20   1  21   1
M  END
> <Shapegauss>
-132.699768

$$$$
