REMARK  8 active torsions:
REMARK  status: ('A' for Active; 'I' for Inactive)
REMARK    1  A    between atoms: N_1  and  O_3 
REMARK    2  A    between atoms: C_5  and  C_7 
REMARK    3  A    between atoms: C_6  and  N_14 
REMARK    4  A    between atoms: C_8  and  C_16 
REMARK    5  A    between atoms: C_9  and  C_17 
REMARK    6  A    between atoms: N_11  and  O_13 
REMARK    7  A    between atoms: S_18  and  C_20 
REMARK    8  A    between atoms: S_18  and  C_21 
ROOT
HETATM    1  S   UNL     1       6.551   0.328  22.259  1.00  0.00    -0.097 SA
ENDROOT
BRANCH   1   2
HETATM    2  C   UNL     1       6.525  -0.721  20.953  1.00  0.00     0.051 C 
HETATM    3  C   UNL     1       7.230  -1.878  20.663  1.00  0.00     0.007 C 
BRANCH   3   4
HETATM    4  C   UNL     1       8.221  -2.712  21.184  1.00  0.00     0.003 C 
HETATM    5  C   UNL     1       9.566  -2.522  21.538  1.00  0.00     0.039 C 
BRANCH   5   6
HETATM    6  C   UNL     1      10.353  -1.364  21.636  1.00  0.00     0.100 C 
HETATM    7 BR   UNL     1       9.874  -0.015  20.414  1.00  0.00    -0.029 Br
HETATM    8  N   UNL     1      11.396  -1.223  22.260  1.00  0.00    -0.262 N 
ATOM      9  HN  UNL     1      12.113  -1.403  21.557  1.00  0.00     0.194 HD
BRANCH   8  10
HETATM   10  O   UNL     1      12.104  -0.963  23.355  1.00  0.00    -0.289 OA
HETATM   11  H   UNL     1      11.512  -0.898  24.126  1.00  0.00     0.244 HD
ENDBRANCH   8  10
ENDBRANCH   5   6
ENDBRANCH   3   4
ENDBRANCH   1   2
BRANCH   1  12
HETATM   12  C   UNL     1       7.545   1.502  22.884  1.00  0.00     0.137 C 
HETATM   13  N   UNL     1       8.523   1.216  23.712  1.00  0.00    -0.369 N 
ATOM     14  HN  UNL     1       8.719   1.871  24.468  1.00  0.00     0.165 HD
BRANCH  13  15
HETATM   15  C   UNL     1       9.249   0.155  23.624  1.00  0.00     0.089 C 
HETATM   16  C   UNL     1       8.763  -1.098  24.064  1.00  0.00     0.036 C 
BRANCH  16  17
HETATM   17  C   UNL     1       9.023  -1.894  25.047  1.00  0.00     0.115 C 
HETATM   18  N   UNL     1       8.639  -2.830  25.759  1.00  0.00    -0.280 N 
ATOM     19  HN  UNL     1       8.313  -2.649  26.708  1.00  0.00     0.193 HD
BRANCH  18  20
HETATM   20  O   UNL     1       8.651  -3.944  25.333  1.00  0.00    -0.290 OA
ATOM     21  HO  UNL     1       8.356  -4.663  25.880  1.00  0.00     0.244 HD
ENDBRANCH  18  20
ENDBRANCH  16  17
ENDBRANCH  13  15
ENDBRANCH   1  12
TORSDOF 8
