MODEL 1
REMARK VINA RESULT:    -5.393      0.000      0.000
REMARK INTER + INTRA:          -8.240
REMARK INTER:                  -7.600
REMARK INTRA:                  -0.640
REMARK UNBOUND:                -0.640
REMARK  8 active torsions:
REMARK  status: ('A' for Active; 'I' for Inactive)
REMARK    1  A    between atoms: N_1  and  O_3 
REMARK    2  A    between atoms: C_5  and  C_7 
REMARK    3  A    between atoms: C_6  and  N_14 
REMARK    4  A    between atoms: C_8  and  C_16 
REMARK    5  A    between atoms: C_9  and  C_17 
REMARK    6  A    between atoms: N_11  and  O_13 
REMARK    7  A    between atoms: S_18  and  C_20 
REMARK    8  A    between atoms: S_18  and  C_21 
ROOT
HETATM    1  S   UNL     1       9.710  -1.451  22.194  1.00  0.00    -0.097 SA
ENDROOT
BRANCH   1   2
HETATM    2  C   UNL     1      11.121  -1.640  23.078  1.00  0.00     0.051 C 
HETATM    3  C   UNL     1      11.934  -0.743  23.753  1.00  0.00     0.007 C 
BRANCH   3   4
HETATM    4  C   UNL     1      12.055   0.617  24.041  1.00  0.00     0.003 C 
HETATM    5  C   UNL     1      11.180   1.712  23.956  1.00  0.00     0.039 C 
BRANCH   5   6
HETATM    6  C   UNL     1       9.804   1.791  23.691  1.00  0.00     0.100 C 
HETATM    7 BR   UNL     1       8.724   1.086  25.063  1.00  0.00    -0.029 Br
HETATM    8  N   UNL     1       9.265   2.069  22.629  1.00  0.00    -0.262 N 
ATOM      9  HN  UNL     1       9.083   1.154  22.215  1.00  0.00     0.194 HD
BRANCH   8  10
HETATM   10  O   UNL     1       8.787   2.913  21.719  1.00  0.00    -0.289 OA
HETATM   11  H   UNL     1       7.849   3.101  21.901  1.00  0.00     0.244 HD
ENDBRANCH   8  10
ENDBRANCH   5   6
ENDBRANCH   3   4
ENDBRANCH   1   2
BRANCH   1  12
HETATM   12  C   UNL     1       8.097  -1.817  22.344  1.00  0.00     0.137 C 
HETATM   13  N   UNL     1       7.158  -1.009  21.910  1.00  0.00    -0.369 N 
ATOM     14  HN  UNL     1       6.301  -0.931  22.455  1.00  0.00     0.165 HD
BRANCH  13  15
HETATM   15  C   UNL     1       7.259  -0.307  20.833  1.00  0.00     0.089 C 
HETATM   16  C   UNL     1       6.160   0.437  20.344  1.00  0.00     0.036 C 
BRANCH  16  17
HETATM   17  C   UNL     1       5.363   0.347  19.332  1.00  0.00     0.115 C 
HETATM   18  N   UNL     1       5.238   0.349  18.102  1.00  0.00    -0.280 N 
ATOM     19  HN  UNL     1       4.864   1.170  17.628  1.00  0.00     0.193 HD
BRANCH  18  20
HETATM   20  O   UNL     1       5.555  -0.613  17.471  1.00  0.00    -0.290 OA
ATOM     21  HO  UNL     1       6.474  -0.840  17.385  1.00  0.00     0.244 HD
ENDBRANCH  18  20
ENDBRANCH  16  17
ENDBRANCH  13  15
ENDBRANCH   1  12
TORSDOF 8
ENDMDL
MODEL 2
REMARK VINA RESULT:    -5.352      1.655      1.885
REMARK INTER + INTRA:          -8.181
REMARK INTER:                  -7.611
REMARK INTRA:                  -0.570
REMARK UNBOUND:                -0.640
REMARK  8 active torsions:
REMARK  status: ('A' for Active; 'I' for Inactive)
REMARK    1  A    between atoms: N_1  and  O_3 
REMARK    2  A    between atoms: C_5  and  C_7 
REMARK    3  A    between atoms: C_6  and  N_14 
REMARK    4  A    between atoms: C_8  and  C_16 
REMARK    5  A    between atoms: C_9  and  C_17 
REMARK    6  A    between atoms: N_11  and  O_13 
REMARK    7  A    between atoms: S_18  and  C_20 
REMARK    8  A    between atoms: S_18  and  C_21 
ROOT
HETATM    1  S   UNL     1      10.700  -1.167  22.639  1.00  0.00    -0.097 SA
ENDROOT
BRANCH   1   2
HETATM    2  C   UNL     1      11.294  -0.432  24.022  1.00  0.00     0.051 C 
HETATM    3  C   UNL     1      10.747   0.478  24.912  1.00  0.00     0.007 C 
BRANCH   3   4
HETATM    4  C   UNL     1       9.582   1.212  25.144  1.00  0.00     0.003 C 
HETATM    5  C   UNL     1       9.067   2.411  24.625  1.00  0.00     0.039 C 
BRANCH   5   6
HETATM    6  C   UNL     1       9.483   3.223  23.558  1.00  0.00     0.100 C 
HETATM    7 BR   UNL     1       9.230   5.063  23.861  1.00  0.00    -0.029 Br
HETATM    8  N   UNL     1       9.786   2.868  22.426  1.00  0.00    -0.262 N 
ATOM      9  HN  UNL     1       8.916   2.983  21.906  1.00  0.00     0.194 HD
BRANCH   8  10
HETATM   10  O   UNL     1      10.632   2.416  21.506  1.00  0.00    -0.289 OA
HETATM   11  H   UNL     1      10.408   1.497  21.271  1.00  0.00     0.244 HD
ENDBRANCH   8  10
ENDBRANCH   5   6
ENDBRANCH   3   4
ENDBRANCH   1   2
BRANCH   1  12
HETATM   12  C   UNL     1       9.315  -1.937  22.144  1.00  0.00     0.137 C 
HETATM   13  N   UNL     1       8.314  -1.285  21.599  1.00  0.00    -0.369 N 
ATOM     14  HN  UNL     1       7.366  -1.588  21.821  1.00  0.00     0.165 HD
BRANCH  13  15
HETATM   15  C   UNL     1       8.461  -0.285  20.800  1.00  0.00     0.089 C 
HETATM   16  C   UNL     1       7.369   0.220  20.057  1.00  0.00     0.036 C 
BRANCH  16  17
HETATM   17  C   UNL     1       7.024   0.223  18.813  1.00  0.00     0.115 C 
HETATM   18  N   UNL     1       6.237  -0.183  17.949  1.00  0.00    -0.280 N 
ATOM     19  HN  UNL     1       6.524  -0.917  17.301  1.00  0.00     0.193 HD
BRANCH  18  20
HETATM   20  O   UNL     1       5.142   0.284  17.875  1.00  0.00    -0.290 OA
ATOM     21  HO  UNL     1       4.889   0.991  18.458  1.00  0.00     0.244 HD
ENDBRANCH  18  20
ENDBRANCH  16  17
ENDBRANCH  13  15
ENDBRANCH   1  12
TORSDOF 8
ENDMDL
MODEL 3
REMARK VINA RESULT:    -5.343     24.705     26.402
REMARK INTER + INTRA:          -8.170
REMARK INTER:                  -6.946
REMARK INTRA:                  -1.224
REMARK UNBOUND:                -0.640
REMARK  8 active torsions:
REMARK  status: ('A' for Active; 'I' for Inactive)
REMARK    1  A    between atoms: N_1  and  O_3 
REMARK    2  A    between atoms: C_5  and  C_7 
REMARK    3  A    between atoms: C_6  and  N_14 
REMARK    4  A    between atoms: C_8  and  C_16 
REMARK    5  A    between atoms: C_9  and  C_17 
REMARK    6  A    between atoms: N_11  and  O_13 
REMARK    7  A    between atoms: S_18  and  C_20 
REMARK    8  A    between atoms: S_18  and  C_21 
ROOT
HETATM    1  S   UNL     1       9.885  19.199   2.197  1.00  0.00    -0.097 SA
ENDROOT
BRANCH   1   2
HETATM    2  C   UNL     1       8.353  18.637   1.821  1.00  0.00     0.051 C 
HETATM    3  C   UNL     1       7.851  17.368   1.579  1.00  0.00     0.007 C 
BRANCH   3   4
HETATM    4  C   UNL     1       8.250  16.032   1.503  1.00  0.00     0.003 C 
HETATM    5  C   UNL     1       9.053  15.209   2.307  1.00  0.00     0.039 C 
BRANCH   5   6
HETATM    6  C   UNL     1       9.621  15.407   3.576  1.00  0.00     0.100 C 
HETATM    7 BR   UNL     1       8.357  15.748   4.928  1.00  0.00    -0.029 Br
HETATM    8  N   UNL     1      10.803  15.576   3.845  1.00  0.00    -0.262 N 
ATOM      9  HN  UNL     1      10.891  16.592   3.873  1.00  0.00     0.194 HD
BRANCH   8  10
HETATM   10  O   UNL     1      12.034  15.157   4.120  1.00  0.00    -0.289 OA
HETATM   11  H   UNL     1      12.575  15.903   4.438  1.00  0.00     0.244 HD
ENDBRANCH   8  10
ENDBRANCH   5   6
ENDBRANCH   3   4
ENDBRANCH   1   2
BRANCH   1  12
HETATM   12  C   UNL     1      10.787  20.575   1.974  1.00  0.00     0.137 C 
HETATM   13  N   UNL     1      10.934  21.471   2.923  1.00  0.00    -0.369 N 
ATOM     14  HN  UNL     1      10.961  22.454   2.655  1.00  0.00     0.165 HD
BRANCH  13  15
HETATM   15  C   UNL     1      11.047  21.178   4.173  1.00  0.00     0.089 C 
HETATM   16  C   UNL     1      12.257  20.663   4.694  1.00  0.00     0.036 C 
BRANCH  16  17
HETATM   17  C   UNL     1      12.652  19.521   5.148  1.00  0.00     0.115 C 
HETATM   18  N   UNL     1      12.580  18.288   5.073  1.00  0.00    -0.280 N 
ATOM     19  HN  UNL     1      12.049  17.765   5.768  1.00  0.00     0.193 HD
BRANCH  18  20
HETATM   20  O   UNL     1      13.133  17.714   4.185  1.00  0.00    -0.290 OA
ATOM     21  HO  UNL     1      13.522  16.861   4.343  1.00  0.00     0.244 HD
ENDBRANCH  18  20
ENDBRANCH  16  17
ENDBRANCH  13  15
ENDBRANCH   1  12
TORSDOF 8
ENDMDL
MODEL 4
REMARK VINA RESULT:    -5.289     20.810     22.636
REMARK INTER + INTRA:          -8.093
REMARK INTER:                  -7.611
REMARK INTRA:                  -0.482
REMARK UNBOUND:                -0.640
REMARK  8 active torsions:
REMARK  status: ('A' for Active; 'I' for Inactive)
REMARK    1  A    between atoms: N_1  and  O_3 
REMARK    2  A    between atoms: C_5  and  C_7 
REMARK    3  A    between atoms: C_6  and  N_14 
REMARK    4  A    between atoms: C_8  and  C_16 
REMARK    5  A    between atoms: C_9  and  C_17 
REMARK    6  A    between atoms: N_11  and  O_13 
REMARK    7  A    between atoms: S_18  and  C_20 
REMARK    8  A    between atoms: S_18  and  C_21 
ROOT
HETATM    1  S   UNL     1       4.133  13.050   3.535  1.00  0.00    -0.097 SA
ENDROOT
BRANCH   1   2
HETATM    2  C   UNL     1       5.322  14.127   4.017  1.00  0.00     0.051 C 
HETATM    3  C   UNL     1       6.702  14.029   4.099  1.00  0.00     0.007 C 
BRANCH   3   4
HETATM    4  C   UNL     1       7.747  13.129   3.881  1.00  0.00     0.003 C 
HETATM    5  C   UNL     1       9.040  13.250   3.349  1.00  0.00     0.039 C 
BRANCH   5   6
HETATM    6  C   UNL     1       9.801  14.371   2.986  1.00  0.00     0.100 C 
HETATM    7 BR   UNL     1       9.012  15.419   1.636  1.00  0.00    -0.029 Br
HETATM    8  N   UNL     1      10.960  14.616   3.292  1.00  0.00    -0.262 N 
ATOM      9  HN  UNL     1      11.491  14.255   2.499  1.00  0.00     0.194 HD
BRANCH   8  10
HETATM   10  O   UNL     1      11.905  15.096   4.095  1.00  0.00    -0.289 OA
HETATM   11  H   UNL     1      12.461  14.368   4.426  1.00  0.00     0.244 HD
ENDBRANCH   8  10
ENDBRANCH   5   6
ENDBRANCH   3   4
ENDBRANCH   1   2
BRANCH   1  12
HETATM   12  C   UNL     1       3.730  12.175   2.182  1.00  0.00     0.137 C 
HETATM   13  N   UNL     1       4.597  11.401   1.572  1.00  0.00    -0.369 N 
ATOM     14  HN  UNL     1       4.561  11.349   0.555  1.00  0.00     0.165 HD
BRANCH  13  15
HETATM   15  C   UNL     1       5.491  10.704   2.185  1.00  0.00     0.089 C 
HETATM   16  C   UNL     1       5.209   9.395   2.639  1.00  0.00     0.036 C 
BRANCH  16  17
HETATM   17  C   UNL     1       5.041   8.835   3.791  1.00  0.00     0.115 C 
HETATM   18  N   UNL     1       5.372   7.930   4.567  1.00  0.00    -0.280 N 
ATOM     19  HN  UNL     1       4.765   7.122   4.697  1.00  0.00     0.193 HD
BRANCH  18  20
HETATM   20  O   UNL     1       6.403   8.006   5.162  1.00  0.00    -0.290 OA
ATOM     21  HO  UNL     1       6.687   7.284   5.711  1.00  0.00     0.244 HD
ENDBRANCH  18  20
ENDBRANCH  16  17
ENDBRANCH  13  15
ENDBRANCH   1  12
TORSDOF 8
ENDMDL
MODEL 5
REMARK VINA RESULT:    -5.209      3.732      5.212
REMARK INTER + INTRA:          -7.980
REMARK INTER:                  -7.451
REMARK INTRA:                  -0.528
REMARK UNBOUND:                -0.640
REMARK  8 active torsions:
REMARK  status: ('A' for Active; 'I' for Inactive)
REMARK    1  A    between atoms: N_1  and  O_3 
REMARK    2  A    between atoms: C_5  and  C_7 
REMARK    3  A    between atoms: C_6  and  N_14 
REMARK    4  A    between atoms: C_8  and  C_16 
REMARK    5  A    between atoms: C_9  and  C_17 
REMARK    6  A    between atoms: N_11  and  O_13 
REMARK    7  A    between atoms: S_18  and  C_20 
REMARK    8  A    between atoms: S_18  and  C_21 
ROOT
HETATM    1  S   UNL     1      10.582  -1.431  22.563  1.00  0.00    -0.097 SA
ENDROOT
BRANCH   1   2
HETATM    2  C   UNL     1      11.294  -0.721  23.903  1.00  0.00     0.051 C 
HETATM    3  C   UNL     1      10.847   0.219  24.817  1.00  0.00     0.007 C 
BRANCH   3   4
HETATM    4  C   UNL     1       9.737   1.012  25.113  1.00  0.00     0.003 C 
HETATM    5  C   UNL     1       9.281   2.258  24.656  1.00  0.00     0.039 C 
BRANCH   5   6
HETATM    6  C   UNL     1       9.714   3.086  23.609  1.00  0.00     0.100 C 
HETATM    7 BR   UNL     1       9.705   4.919  24.036  1.00  0.00    -0.029 Br
HETATM    8  N   UNL     1       9.892   2.775  22.439  1.00  0.00    -0.262 N 
ATOM      9  HN  UNL     1       9.008   3.023  21.996  1.00  0.00     0.194 HD
BRANCH   8  10
HETATM   10  O   UNL     1      10.611   2.290  21.431  1.00  0.00    -0.289 OA
HETATM   11  H   UNL     1      10.787   2.993  20.780  1.00  0.00     0.244 HD
ENDBRANCH   8  10
ENDBRANCH   5   6
ENDBRANCH   3   4
ENDBRANCH   1   2
BRANCH   1  12
HETATM   12  C   UNL     1       9.091  -2.007  22.113  1.00  0.00     0.137 C 
HETATM   13  N   UNL     1       8.450  -2.906  22.823  1.00  0.00    -0.369 N 
ATOM     14  HN  UNL     1       7.910  -3.613  22.327  1.00  0.00     0.165 HD
BRANCH  13  15
HETATM   15  C   UNL     1       8.465  -2.945  24.111  1.00  0.00     0.089 C 
HETATM   16  C   UNL     1       8.742  -4.148  24.800  1.00  0.00     0.036 C 
BRANCH  16  17
HETATM   17  C   UNL     1       8.060  -4.978  25.518  1.00  0.00     0.115 C 
HETATM   18  N   UNL     1       8.059  -5.796  26.445  1.00  0.00    -0.280 N 
ATOM     19  HN  UNL     1       8.030  -6.796  26.244  1.00  0.00     0.193 HD
BRANCH  18  20
HETATM   20  O   UNL     1       8.092  -5.414  27.575  1.00  0.00    -0.290 OA
ATOM     21  HO  UNL     1       8.846  -5.612  28.119  1.00  0.00     0.244 HD
ENDBRANCH  18  20
ENDBRANCH  16  17
ENDBRANCH  13  15
ENDBRANCH   1  12
TORSDOF 8
ENDMDL
MODEL 6
REMARK VINA RESULT:    -5.184     20.378     22.912
REMARK INTER + INTRA:          -7.945
REMARK INTER:                  -7.672
REMARK INTRA:                  -0.273
REMARK UNBOUND:                -0.640
REMARK  8 active torsions:
REMARK  status: ('A' for Active; 'I' for Inactive)
REMARK    1  A    between atoms: N_1  and  O_3 
REMARK    2  A    between atoms: C_5  and  C_7 
REMARK    3  A    between atoms: C_6  and  N_14 
REMARK    4  A    between atoms: C_8  and  C_16 
REMARK    5  A    between atoms: C_9  and  C_17 
REMARK    6  A    between atoms: N_11  and  O_13 
REMARK    7  A    between atoms: S_18  and  C_20 
REMARK    8  A    between atoms: S_18  and  C_21 
ROOT
HETATM    1  S   UNL     1       5.332  12.514   1.864  1.00  0.00    -0.097 SA
ENDROOT
BRANCH   1   2
HETATM    2  C   UNL     1       4.227  11.321   2.268  1.00  0.00     0.051 C 
HETATM    3  C   UNL     1       4.272  10.261   3.159  1.00  0.00     0.007 C 
BRANCH   3   4
HETATM    4  C   UNL     1       5.120   9.647   4.083  1.00  0.00     0.003 C 
HETATM    5  C   UNL     1       5.240   8.337   4.573  1.00  0.00     0.039 C 
BRANCH   5   6
HETATM    6  C   UNL     1       4.636   7.132   4.180  1.00  0.00     0.100 C 
HETATM    7 BR   UNL     1       3.442   6.431   5.455  1.00  0.00    -0.029 Br
HETATM    8  N   UNL     1       4.942   6.419   3.234  1.00  0.00    -0.262 N 
ATOM      9  HN  UNL     1       5.566   5.731   3.654  1.00  0.00     0.194 HD
BRANCH   8  10
HETATM   10  O   UNL     1       4.903   6.053   1.956  1.00  0.00    -0.289 OA
HETATM   11  H   UNL     1       5.806   5.879   1.633  1.00  0.00     0.244 HD
ENDBRANCH   8  10
ENDBRANCH   5   6
ENDBRANCH   3   4
ENDBRANCH   1   2
BRANCH   1  12
HETATM   12  C   UNL     1       6.699  12.671   0.934  1.00  0.00     0.137 C 
HETATM   13  N   UNL     1       7.537  13.669   1.095  1.00  0.00    -0.369 N 
ATOM     14  HN  UNL     1       7.978  14.063   0.265  1.00  0.00     0.165 HD
BRANCH  13  15
HETATM   15  C   UNL     1       7.835  14.177   2.241  1.00  0.00     0.089 C 
HETATM   16  C   UNL     1       9.100  14.765   2.469  1.00  0.00     0.036 C 
BRANCH  16  17
HETATM   17  C   UNL     1      10.148  14.459   3.159  1.00  0.00     0.115 C 
HETATM   18  N   UNL     1      11.331  14.708   3.424  1.00  0.00    -0.280 N 
ATOM     19  HN  UNL     1      12.073  14.114   3.054  1.00  0.00     0.193 HD
BRANCH  18  20
HETATM   20  O   UNL     1      11.601  15.644   4.111  1.00  0.00    -0.290 OA
ATOM     21  HO  UNL     1      11.025  15.889   4.826  1.00  0.00     0.244 HD
ENDBRANCH  18  20
ENDBRANCH  16  17
ENDBRANCH  13  15
ENDBRANCH   1  12
TORSDOF 8
ENDMDL
MODEL 7
REMARK VINA RESULT:    -5.155      2.752      3.036
REMARK INTER + INTRA:          -7.905
REMARK INTER:                  -7.128
REMARK INTRA:                  -0.777
REMARK UNBOUND:                -0.640
REMARK  8 active torsions:
REMARK  status: ('A' for Active; 'I' for Inactive)
REMARK    1  A    between atoms: N_1  and  O_3 
REMARK    2  A    between atoms: C_5  and  C_7 
REMARK    3  A    between atoms: C_6  and  N_14 
REMARK    4  A    between atoms: C_8  and  C_16 
REMARK    5  A    between atoms: C_9  and  C_17 
REMARK    6  A    between atoms: N_11  and  O_13 
REMARK    7  A    between atoms: S_18  and  C_20 
REMARK    8  A    between atoms: S_18  and  C_21 
ROOT
HETATM    1  S   UNL     1       7.531   0.366  23.619  1.00  0.00    -0.097 SA
ENDROOT
BRANCH   1   2
HETATM    2  C   UNL     1       8.261  -0.280  24.981  1.00  0.00     0.051 C 
HETATM    3  C   UNL     1       9.553  -0.212  25.477  1.00  0.00     0.007 C 
BRANCH   3   4
HETATM    4  C   UNL     1      10.807   0.329  25.185  1.00  0.00     0.003 C 
HETATM    5  C   UNL     1      11.825  -0.006  24.279  1.00  0.00     0.039 C 
BRANCH   5   6
HETATM    6  C   UNL     1      11.870  -0.929  23.222  1.00  0.00     0.100 C 
HETATM    7 BR   UNL     1      13.523  -1.815  23.059  1.00  0.00    -0.029 Br
HETATM    8  N   UNL     1      11.059  -1.064  22.316  1.00  0.00    -0.262 N 
ATOM      9  HN  UNL     1      11.454  -0.497  21.565  1.00  0.00     0.194 HD
BRANCH   8  10
HETATM   10  O   UNL     1       9.944  -1.547  21.776  1.00  0.00    -0.289 OA
HETATM   11  H   UNL     1      10.068  -1.679  20.819  1.00  0.00     0.244 HD
ENDBRANCH   8  10
ENDBRANCH   5   6
ENDBRANCH   3   4
ENDBRANCH   1   2
BRANCH   1  12
HETATM   12  C   UNL     1       7.927   1.382  22.366  1.00  0.00     0.137 C 
HETATM   13  N   UNL     1       7.965   0.968  21.121  1.00  0.00    -0.369 N 
ATOM     14  HN  UNL     1       8.687   1.347  20.510  1.00  0.00     0.165 HD
BRANCH  13  15
HETATM   15  C   UNL     1       7.141   0.109  20.626  1.00  0.00     0.089 C 
HETATM   16  C   UNL     1       7.011  -0.053  19.228  1.00  0.00     0.036 C 
BRANCH  16  17
HETATM   17  C   UNL     1       6.106   0.220  18.348  1.00  0.00     0.115 C 
HETATM   18  N   UNL     1       5.272   1.031  17.929  1.00  0.00    -0.280 N 
ATOM     19  HN  UNL     1       4.279   0.879  18.103  1.00  0.00     0.193 HD
BRANCH  18  20
HETATM   20  O   UNL     1       5.631   1.992  17.321  1.00  0.00    -0.290 OA
ATOM     21  HO  UNL     1       6.391   2.481  17.615  1.00  0.00     0.244 HD
ENDBRANCH  18  20
ENDBRANCH  16  17
ENDBRANCH  13  15
ENDBRANCH   1  12
TORSDOF 8
ENDMDL
MODEL 8
REMARK VINA RESULT:    -4.906     13.953     15.051
REMARK INTER + INTRA:          -7.554
REMARK INTER:                  -7.251
REMARK INTRA:                  -0.303
REMARK UNBOUND:                -0.640
REMARK  8 active torsions:
REMARK  status: ('A' for Active; 'I' for Inactive)
REMARK    1  A    between atoms: N_1  and  O_3 
REMARK    2  A    between atoms: C_5  and  C_7 
REMARK    3  A    between atoms: C_6  and  N_14 
REMARK    4  A    between atoms: C_8  and  C_16 
REMARK    5  A    between atoms: C_9  and  C_17 
REMARK    6  A    between atoms: N_11  and  O_13 
REMARK    7  A    between atoms: S_18  and  C_20 
REMARK    8  A    between atoms: S_18  and  C_21 
ROOT
HETATM    1  S   UNL     1      23.656  -1.597  20.311  1.00  0.00    -0.097 SA
ENDROOT
BRANCH   1   2
HETATM    2  C   UNL     1      23.957  -1.785  21.948  1.00  0.00     0.051 C 
HETATM    3  C   UNL     1      23.141  -1.729  23.066  1.00  0.00     0.007 C 
BRANCH   3   4
HETATM    4  C   UNL     1      21.813  -1.509  23.439  1.00  0.00     0.003 C 
HETATM    5  C   UNL     1      21.200  -0.960  24.576  1.00  0.00     0.039 C 
BRANCH   5   6
HETATM    6  C   UNL     1      21.726  -0.288  25.690  1.00  0.00     0.100 C 
HETATM    7 BR   UNL     1      22.586   1.332  25.264  1.00  0.00    -0.029 Br
HETATM    8  N   UNL     1      21.858  -0.720  26.827  1.00  0.00    -0.262 N 
ATOM      9  HN  UNL     1      22.820  -1.060  26.835  1.00  0.00     0.194 HD
BRANCH   8  10
HETATM   10  O   UNL     1      21.431  -0.989  28.057  1.00  0.00    -0.289 OA
HETATM   11  H   UNL     1      21.426  -0.175  28.592  1.00  0.00     0.244 HD
ENDBRANCH   8  10
ENDBRANCH   5   6
ENDBRANCH   3   4
ENDBRANCH   1   2
BRANCH   1  12
HETATM   12  C   UNL     1      22.408  -1.109  19.330  1.00  0.00     0.137 C 
HETATM   13  N   UNL     1      22.583  -0.871  18.051  1.00  0.00    -0.369 N 
ATOM     14  HN  UNL     1      22.063  -0.101  17.631  1.00  0.00     0.165 HD
BRANCH  13  15
HETATM   15  C   UNL     1      23.373  -1.553  17.296  1.00  0.00     0.089 C 
HETATM   16  C   UNL     1      24.320  -0.911  16.464  1.00  0.00     0.036 C 
BRANCH  16  17
HETATM   17  C   UNL     1      24.458  -0.732  15.193  1.00  0.00     0.115 C 
HETATM   18  N   UNL     1      23.938  -0.375  14.128  1.00  0.00    -0.280 N 
ATOM     19  HN  UNL     1      23.644  -1.072  13.444  1.00  0.00     0.193 HD
BRANCH  18  20
HETATM   20  O   UNL     1      23.782   0.786  13.904  1.00  0.00    -0.290 OA
ATOM     21  HO  UNL     1      22.975   1.215  14.168  1.00  0.00     0.244 HD
ENDBRANCH  18  20
ENDBRANCH  16  17
ENDBRANCH  13  15
ENDBRANCH   1  12
TORSDOF 8
ENDMDL
MODEL 9
REMARK VINA RESULT:    -4.876     19.532     21.440
REMARK INTER + INTRA:          -7.510
REMARK INTER:                  -6.900
REMARK INTRA:                  -0.610
REMARK UNBOUND:                -0.640
REMARK  8 active torsions:
REMARK  status: ('A' for Active; 'I' for Inactive)
REMARK    1  A    between atoms: N_1  and  O_3 
REMARK    2  A    between atoms: C_5  and  C_7 
REMARK    3  A    between atoms: C_6  and  N_14 
REMARK    4  A    between atoms: C_8  and  C_16 
REMARK    5  A    between atoms: C_9  and  C_17 
REMARK    6  A    between atoms: N_11  and  O_13 
REMARK    7  A    between atoms: S_18  and  C_20 
REMARK    8  A    between atoms: S_18  and  C_21 
ROOT
HETATM    1  S   UNL     1       2.631   9.985   3.163  1.00  0.00    -0.097 SA
ENDROOT
BRANCH   1   2
HETATM    2  C   UNL     1       2.949  10.235   4.789  1.00  0.00     0.051 C 
HETATM    3  C   UNL     1       3.966   9.804   5.624  1.00  0.00     0.007 C 
BRANCH   3   4
HETATM    4  C   UNL     1       5.126   9.027   5.621  1.00  0.00     0.003 C 
HETATM    5  C   UNL     1       5.417   7.713   5.222  1.00  0.00     0.039 C 
BRANCH   5   6
HETATM    6  C   UNL     1       4.658   6.756   4.531  1.00  0.00     0.100 C 
HETATM    7 BR   UNL     1       3.343   5.923   5.588  1.00  0.00    -0.029 Br
HETATM    8  N   UNL     1       4.884   6.283   3.425  1.00  0.00    -0.262 N 
ATOM      9  HN  UNL     1       5.393   5.425   3.640  1.00  0.00     0.194 HD
BRANCH   8  10
HETATM   10  O   UNL     1       4.828   6.277   2.097  1.00  0.00    -0.289 OA
HETATM   11  H   UNL     1       5.275   5.485   1.748  1.00  0.00     0.244 HD
ENDBRANCH   8  10
ENDBRANCH   5   6
ENDBRANCH   3   4
ENDBRANCH   1   2
BRANCH   1  12
HETATM   12  C   UNL     1       3.229  10.477   1.695  1.00  0.00     0.137 C 
HETATM   13  N   UNL     1       3.876  11.611   1.553  1.00  0.00    -0.369 N 
ATOM     14  HN  UNL     1       3.733  12.141   0.694  1.00  0.00     0.165 HD
BRANCH  13  15
HETATM   15  C   UNL     1       4.681  12.092   2.437  1.00  0.00     0.089 C 
HETATM   16  C   UNL     1       6.080  11.923   2.315  1.00  0.00     0.036 C 
BRANCH  16  17
HETATM   17  C   UNL     1       6.983  11.240   2.935  1.00  0.00     0.115 C 
HETATM   18  N   UNL     1       8.176  11.129   3.244  1.00  0.00    -0.280 N 
ATOM     19  HN  UNL     1       8.765  10.445   2.768  1.00  0.00     0.193 HD
BRANCH  18  20
HETATM   20  O   UNL     1       8.636  11.822   4.099  1.00  0.00    -0.290 OA
ATOM     21  HO  UNL     1       9.205  11.444   4.759  1.00  0.00     0.244 HD
ENDBRANCH  18  20
ENDBRANCH  16  17
ENDBRANCH  13  15
ENDBRANCH   1  12
TORSDOF 8
ENDMDL
