REMARK  10 active torsions:
REMARK  status: ('A' for Active; 'I' for Inactive)
REMARK    1  A    between atoms: S_2  and  N_5 
REMARK    2  A    between atoms: C_7  and  C_8 
REMARK    3  A    between atoms: C_8  and  C_9 
REMARK    4  A    between atoms: C_9  and  C_15 
REMARK    5  A    between atoms: C_9  and  C_10 
REMARK    6  A    between atoms: C_10  and  C_11 
REMARK    7  A    between atoms: C_11  and  C_12 
REMARK    8  A    between atoms: C_12  and  C_13 
REMARK    9  A    between atoms: C_15  and  C_16 
REMARK       I    between atoms: C_16  and  N_18 
REMARK   10  A    between atoms: N_18  and  C_20 
ROOT
HETATM    1  C   UNL     1      10.316  -1.069  23.303  1.00  0.00     0.108 C 
ENDROOT
BRANCH   1   2
HETATM    2  C   UNL     1       9.414  -1.988  23.483  1.00  0.00     0.011 C 
BRANCH   2   3
HETATM    3  C   UNL     1       8.977  -2.931  24.130  1.00  0.00     0.097 C 
HETATM    4  N   UNL     1       8.108  -3.565  24.689  1.00  0.00    -0.296 N 
ATOM      5  HN  UNL     1       7.215  -3.626  24.200  1.00  0.00     0.177 HD
BRANCH   4   6
HETATM    6  S   UNL     1       8.187  -4.328  26.116  1.00  0.00     0.226 S 
HETATM    7  C   UNL     1       6.624  -4.859  26.427  1.00  0.00     0.186 C 
HETATM    8  O   UNL     1       9.044  -5.477  26.063  1.00  0.00    -0.206 OA
HETATM    9  O   UNL     1       8.595  -3.428  27.173  1.00  0.00    -0.206 OA
ENDBRANCH   4   6
ENDBRANCH   2   3
ENDBRANCH   1   2
BRANCH   1  10
HETATM   10  C   UNL     1       9.749  -0.563  22.344  1.00  0.00    -0.071 C 
BRANCH  10  11
HETATM   11  C   UNL     1       9.077   0.049  21.392  1.00  0.00     0.289 C 
HETATM   12  O   UNL     1       9.542   1.000  20.994  1.00  0.00    -0.259 OA
HETATM   13  N   UNL     1       7.953  -0.550  21.078  1.00  0.00    -0.315 N 
ATOM     14  HN  UNL     1       7.666  -1.390  21.581  1.00  0.00     0.170 HD
BRANCH  13  15
HETATM   15  C   UNL     1       7.228  -0.090  20.157  1.00  0.00     0.057 A 
HETATM   16  C   UNL     1       7.254  -0.004  18.892  1.00  0.00     0.117 A 
HETATM   17  N   UNL     1       6.753   0.301  17.795  1.00  0.00    -0.373 N 
HETATM   18  C   UNL     1       5.632   0.875  18.241  1.00  0.00     0.088 A 
ATOM     19  HN  UNL     1       7.094   0.157  16.845  1.00  0.00     0.164 HD
HETATM   20  C   UNL     1       5.236   0.981  19.419  1.00  0.00     0.026 A 
HETATM   21  C   UNL     1       5.813   0.584  20.549  1.00  0.00    -0.033 A 
HETATM   22  C   UNL     1       5.343   0.723  22.001  1.00  0.00     0.050 C 
ENDBRANCH  13  15
ENDBRANCH  10  11
ENDBRANCH   1  10
BRANCH   1  23
HETATM   23  C   UNL     1      10.990  -0.027  24.262  1.00  0.00    -0.010 C 
BRANCH  23  24
HETATM   24  C   UNL     1      12.088   0.271  24.201  1.00  0.00    -0.025 C 
BRANCH  24  25
HETATM   25  C   UNL     1      13.122  -0.112  23.491  1.00  0.00     0.053 C 
BRANCH  25  26
HETATM   26  C   UNL     1      12.717  -1.336  22.610  1.00  0.00    -0.033 C 
HETATM   27  C   UNL     1      11.822  -1.749  22.488  1.00  0.00     0.007 C 
ENDBRANCH  25  26
ENDBRANCH  24  25
ENDBRANCH  23  24
ENDBRANCH   1  23
TORSDOF 10
