stable:False satoms:13 tatoms:24 sratio:0.5416666666666666
  -OEChem-07092417433D

 24 23  0     1  0  0  0  0  0999 V2000
    6.7320   -4.9359   26.4372 C   0  0  0  0  0  0  0  0  0  0  0  0
    8.1705   -4.3938   26.1788 S   0  0  0  0  0  0  0  0  0  0  0  0
    9.0679   -5.5333   26.1121 O   0  0  0  0  0  0  0  0  0  0  0  0
    8.5479   -3.4636   27.1899 O   0  0  0  0  0  0  0  0  0  0  0  0
    8.1178   -3.6833   24.7327 N   0  0  0  0  0  0  0  0  0  0  0  0
    8.9577   -2.9517   24.2421 C   0  0  0  0  0  0  0  0  0  0  0  0
    9.5664   -2.1448   23.6948 C   0  0  0  0  0  0  0  0  0  0  0  0
   10.3618   -1.2422   23.0501 C   0  0  0  0  0  0  0  0  0  0  0  0
   11.4453    0.3091   24.5488 H   0  0  0  0  0  0  0  0  0  0  0  0
   12.2122   -0.1076   23.9335 C   0  0  0  0  0  0  0  0  0  0  0  0
   13.2352    0.1459   23.9553 H   0  0  0  0  0  0  0  0  0  0  0  0
   12.5310   -1.6113   22.4752 H   0  0  0  0  0  0  0  0  0  0  0  0
   11.8079   -1.1149   23.0439 C   0  0  0  0  0  0  0  0  0  0  0  0
    9.7511   -0.4850   22.2771 C   0  0  0  0  0  0  0  0  0  0  0  0
    9.0768    0.0658   21.2512 C   0  0  0  0  0  0  0  0  0  0  0  0
    9.6141    0.9431   20.6062 O   0  0  0  0  0  0  0  0  0  0  0  0
    7.8543   -0.5215   21.0896 N   0  0  0  0  0  0  0  0  0  0  0  0
    7.0509   -0.0128   20.2067 C   0  0  3  0  0  0  0  0  0  0  0  0
    7.0242    0.0693   18.7816 C   0  0  0  0  0  0  0  0  0  0  0  0
    7.1256    0.0647   17.6829 N   0  0  0  0  0  0  0  0  0  0  0  0
    4.8876    1.1615   18.4463 H   0  0  0  0  0  0  0  0  0  0  0  0
    5.3121    0.8922   19.3449 C   0  5  0  0  0  0  0  0  0  0  0  0
    5.7724    0.5750   20.4889 C   0  0  0  0  0  0  0  0  0  0  0  0
    5.3613    0.6851   21.5267 H   0  0  0  0  0  0  0  0  0  0  0  0
 19 20  3  0  0  0  0
 21 22  1  0  0  0  0
 18 19  1  0  0  0  0
 22 23  2  3  0  0  0
 18 23  1  0  0  0  0
 17 18  1  0  0  0  0
 23 24  1  0  0  0  0
 15 16  2  0  0  0  0
 15 17  1  0  0  0  0
 14 15  1  0  0  0  0
  8 14  2  3  0  0  0
 12 13  1  0  0  0  0
  8 13  1  0  0  0  0
 10 13  2  0  0  0  0
  7  8  1  0  0  0  0
  6  7  3  0  0  0  0
 10 11  1  0  0  0  0
  9 10  1  0  0  0  0
  5  6  1  0  0  0  0
  2  5  1  0  0  0  0
  2  3  2  0  0  0  0
  1  2  1  0  0  0  0
  2  4  2  0  0  0  0
M  CHG  1  22  -1
M  END
> <Shapegauss>
-228.009750

$$$$
