stable:False satoms:13 tatoms:24 sratio:0.5416666666666666
  -OEChem-08062410143D

 32 31  0     1  0  0  0  0  0999 V2000
   -6.6586   -5.5770  -25.8850 C   0  0  0  0  0  0  0  0  0  0  0  0
   -8.0962   -4.9997  -25.7118 S   0  0  0  0  0  0  0  0  0  0  0  0
   -9.0054   -6.1189  -25.5411 O   0  0  0  0  0  0  0  0  0  0  0  0
   -8.4472   -4.1792  -26.8224 O   0  0  0  0  0  0  0  0  0  0  0  0
   -8.0619   -4.1402  -24.3484 N   0  0  0  0  0  0  0  0  0  0  0  0
   -8.9032   -3.3544  -23.9534 C   0  0  0  0  0  0  0  0  0  0  0  0
   -9.5137   -2.4894  -23.5059 C   0  0  0  0  0  0  0  0  0  0  0  0
  -10.3116   -1.5175  -22.9751 C   0  0  0  0  0  0  0  0  0  0  0  0
  -11.3542   -0.1258  -24.6492 H   0  0  0  0  0  0  0  0  0  0  0  0
  -12.1356   -0.4691  -24.0074 C   0  0  0  0  0  0  0  0  0  0  0  0
  -13.1556   -0.2116  -24.0746 H   0  0  0  0  0  0  0  0  0  0  0  0
  -12.4939   -1.8071  -22.4041 H   0  0  0  0  0  0  0  0  0  0  0  0
  -11.7563   -1.3794  -23.0088 C   0  0  0  0  0  0  0  0  0  0  0  0
   -9.7073   -0.6872  -22.2756 C   0  0  0  0  0  0  0  0  0  0  0  0
   -9.0457   -0.0358  -21.3017 C   0  0  0  0  0  0  0  0  0  0  0  0
   -9.5858    0.9090  -20.7632 O   0  0  0  0  0  0  0  0  0  0  0  0
   -7.8318   -0.6119  -21.0565 N   0  0  0  0  0  0  0  0  0  0  0  0
   -7.0391   -0.0185  -20.2179 C   0  0  3  0  0  0  0  0  0  0  0  0
   -7.0364    0.2142  -18.8093 C   0  0  0  0  0  0  0  0  0  0  0  0
   -7.1569    0.3269  -17.7183 N   0  0  0  0  0  0  0  0  0  0  0  0
   -4.3360    1.4299  -19.3773 H   0  0  0  0  0  0  0  0  0  0  0  0
   -5.3071    0.9597  -19.4252 C   0  0  0  0  0  0  0  0  0  0  0  0
   -5.7504    0.5264  -20.5374 C   0  0  0  0  0  0  0  0  0  0  0  0
   -5.3203    0.5227  -21.5733 H   0  0  0  0  0  0  0  0  0  0  0  0
   -6.6130   -6.1790  -26.8045 H   0  0  0  0  0  0  0  0  0  0  0  0
   -5.9370   -4.7496  -25.9524 H   0  0  0  0  0  0  0  0  0  0  0  0
   -6.4111   -6.2098  -25.0199 H   0  0  0  0  0  0  0  0  0  0  0  0
   -7.2175   -3.6072  -24.4018 H   0  0  0  0  0  0  0  0  0  0  0  0
   -9.7307    0.1259  -22.9861 H   0  0  0  0  0  0  0  0  0  0  0  0
   -7.5630   -1.4626  -21.5082 H   0  0  0  0  0  0  0  0  0  0  0  0
   -7.5235    0.9516  -20.4031 H   0  0  0  0  0  0  0  0  0  0  0  0
   -5.9021    0.8570  -18.5298 H   0  0  0  0  0  0  0  0  0  0  0  0
 19 20  3  0  0  0  0
 21 22  1  0  0  0  0
 18 19  1  0  0  0  0
 22 23  2  3  0  0  0
 18 23  1  0  0  0  0
 17 18  1  0  0  0  0
 23 24  1  0  0  0  0
 15 16  2  0  0  0  0
 15 17  1  0  0  0  0
 14 15  1  0  0  0  0
  8 14  2  3  0  0  0
 12 13  1  0  0  0  0
  8 13  1  0  0  0  0
 10 13  2  0  0  0  0
  7  8  1  0  0  0  0
  6  7  3  0  0  0  0
 10 11  1  0  0  0  0
  9 10  1  0  0  0  0
  5  6  1  0  0  0  0
  2  5  1  0  0  0  0
  2  3  2  0  0  0  0
  1  2  1  0  0  0  0
  2  4  2  0  0  0  0
  1 25  1  0  0  0  0
  1 26  1  0  0  0  0
  1 27  1  0  0  0  0
  5 28  1  0  0  0  0
 14 29  1  0  0  0  0
 17 30  1  0  0  0  0
 18 31  1  0  0  0  0
 22 32  1  0  0  0  0
M  END
> <Chemgauss4>
-9.360577

$$$$
