stable:False satoms:13 tatoms:24 sratio:0.5416666666666666
  -OEChem-08062410143D

 32 31  0     1  0  0  0  0  0999 V2000
    6.6590   -5.2856   26.0974 C   0  0  0  0  0  0  0  0  0  0  0  0
    8.0954   -4.6922   25.9758 S   0  0  0  0  0  0  0  0  0  0  0  0
    9.0257   -5.8021   25.8718 O   0  0  0  0  0  0  0  0  0  0  0  0
    8.3851   -3.8424   27.0821 O   0  0  0  0  0  0  0  0  0  0  0  0
    8.1117   -3.8639   24.5930 N   0  0  0  0  0  0  0  0  0  0  0  0
    8.9598   -3.0753   24.2184 C   0  0  0  0  0  0  0  0  0  0  0  0
    9.5786   -2.2120   23.7792 C   0  0  0  0  0  0  0  0  0  0  0  0
   10.3870   -1.2411   23.2627 C   0  0  0  0  0  0  0  0  0  0  0  0
   11.3347    0.2019   24.9497 H   0  0  0  0  0  0  0  0  0  0  0  0
   12.1487   -0.1446   24.3517 C   0  0  0  0  0  0  0  0  0  0  0  0
   13.1612    0.1285   24.4587 H   0  0  0  0  0  0  0  0  0  0  0  0
   12.5965   -1.5129   22.7970 H   0  0  0  0  0  0  0  0  0  0  0  0
   11.8268   -1.0821   23.3581 C   0  0  0  0  0  0  0  0  0  0  0  0
    9.8043   -0.4351   22.5180 C   0  0  0  0  0  0  0  0  0  0  0  0
    9.1791    0.1852   21.5007 C   0  0  0  0  0  0  0  0  0  0  0  0
    9.7307    1.1252   20.9655 O   0  0  0  0  0  0  0  0  0  0  0  0
    7.9851   -0.4131   21.2144 N   0  0  0  0  0  0  0  0  0  0  0  0
    7.2235    0.1504   20.3277 C   0  0  3  0  0  0  0  0  0  0  0  0
    7.2815    0.3515   18.9154 C   0  0  0  0  0  0  0  0  0  0  0  0
    7.4497    0.4417   17.8287 N   0  0  0  0  0  0  0  0  0  0  0  0
    4.5426    1.5418   19.3336 H   0  0  0  0  0  0  0  0  0  0  0  0
    5.5165    1.0864   19.4358 C   0  0  0  0  0  0  0  0  0  0  0  0
    5.9147    0.6841   20.5764 C   0  0  0  0  0  0  0  0  0  0  0  0
    5.4383    0.6974   21.5918 H   0  0  0  0  0  0  0  0  0  0  0  0
    6.5796   -5.8676   27.0275 H   0  0  0  0  0  0  0  0  0  0  0  0
    5.9244   -4.4670   26.1134 H   0  0  0  0  0  0  0  0  0  0  0  0
    6.4591   -5.9409   25.2368 H   0  0  0  0  0  0  0  0  0  0  0  0
    7.2589   -3.3416   24.5963 H   0  0  0  0  0  0  0  0  0  0  0  0
    9.7850    0.3938   23.2100 H   0  0  0  0  0  0  0  0  0  0  0  0
    7.7071   -1.2572   21.6728 H   0  0  0  0  0  0  0  0  0  0  0  0
    7.6864    1.1310   20.5122 H   0  0  0  0  0  0  0  0  0  0  0  0
    6.1528    0.9721   18.5706 H   0  0  0  0  0  0  0  0  0  0  0  0
 19 20  3  0  0  0  0
 21 22  1  0  0  0  0
 18 19  1  0  0  0  0
 22 23  2  3  0  0  0
 18 23  1  0  0  0  0
 17 18  1  0  0  0  0
 23 24  1  0  0  0  0
 15 16  2  0  0  0  0
 15 17  1  0  0  0  0
 14 15  1  0  0  0  0
  8 14  2  3  0  0  0
 12 13  1  0  0  0  0
  8 13  1  0  0  0  0
 10 13  2  0  0  0  0
  7  8  1  0  0  0  0
  6  7  3  0  0  0  0
 10 11  1  0  0  0  0
  9 10  1  0  0  0  0
  5  6  1  0  0  0  0
  2  5  1  0  0  0  0
  2  3  2  0  0  0  0
  1  2  1  0  0  0  0
  2  4  2  0  0  0  0
  1 25  1  0  0  0  0
  1 26  1  0  0  0  0
  1 27  1  0  0  0  0
  5 28  1  0  0  0  0
 14 29  1  0  0  0  0
 17 30  1  0  0  0  0
 18 31  1  0  0  0  0
 22 32  1  0  0  0  0
M  END
> <Chemgauss4>
-9.299150

$$$$
