stable:False satoms:11 tatoms:24 sratio:0.4583333333333333
  -OEChem-07092417443D

 24 24  0     0  0  0  0  0  0999 V2000
    6.4237   -4.9697   26.3071 Cl  0  0  0  0  0  0  0  0  0  0  0  0
    8.2097   -4.2459   26.1370 S   0  0  0  0  0  0  0  0  0  0  0  0
    9.0842   -5.3568   26.0358 O   0  0  0  0  0  0  0  0  0  0  0  0
    8.4433   -3.3701   27.2345 O   0  0  0  0  0  0  0  0  0  0  0  0
    8.1185   -3.5011   24.7225 N   0  0  0  0  0  0  0  0  0  0  0  0
    8.9037   -2.7793   24.2430 C   0  0  0  0  0  0  0  0  0  0  0  0
    9.4308   -1.9845   23.7512 C   0  0  0  0  0  0  0  0  0  0  0  0
   10.2641   -0.9470   23.3385 C   0  0  0  0  0  0  0  0  0  0  0  0
   11.5533   -0.3471   23.8335 C   0  0  0  0  0  0  0  0  0  0  0  0
   11.7322    0.4003   24.4928 H   0  0  0  0  0  0  0  0  0  0  0  0
   13.5191   -0.5484   23.2414 H   0  0  0  0  0  0  0  0  0  0  0  0
   12.5924   -0.9755   23.1283 C   0  0  0  0  0  0  0  0  0  0  0  0
   12.3298   -1.8266   22.5175 H   0  0  0  0  0  0  0  0  0  0  0  0
    9.6760   -0.5643   22.4270 C   0  0  0  0  0  0  0  0  0  0  0  0
    9.0099    0.1104   21.4127 C   0  0  0  0  0  0  0  0  0  0  0  0
    9.4442    1.1215   20.9982 O   0  0  0  0  0  0  0  0  0  0  0  0
    7.8634   -0.5438   21.0324 N   0  0  0  0  0  0  0  0  0  0  0  0
    7.1424   -0.0551   20.1266 C   0  0  0  0  0  0  0  0  0  0  0  0
    7.2485   -0.0282   18.7632 C   0  0  0  0  0  0  0  0  0  0  0  0
    6.7293    0.2842   17.7327 N   0  0  0  0  0  0  0  0  0  0  0  0
    5.6858    0.8128   18.1668 C   0  0  0  0  0  0  0  0  0  0  0  0
    5.2837    0.9172   19.2750 C   0  0  0  0  0  0  0  0  0  0  0  0
    5.7876    0.5233   20.4087 C   0  0  0  0  0  0  0  0  0  0  0  0
    5.1083    0.5838   21.9704 Br  0  0  0  0  0  0  0  0  0  0  0  0
 20 21  2  0  0  0  0
 19 20  1  0  0  0  0
 21 22  1  0  0  0  0
 18 19  2  0  0  0  0
 22 23  2  0  0  0  0
 18 23  1  0  0  0  0
 17 18  1  0  0  0  0
 23 24  1  0  0  0  0
 15 16  2  0  0  0  0
 15 17  1  0  0  0  0
 14 15  1  0  0  0  0
  8 14  2  3  0  0  0
 12 13  1  0  0  0  0
 11 12  1  0  0  0  0
  9 12  2  0  0  0  0
  7  8  1  0  0  0  0
  8  9  1  0  0  0  0
  6  7  3  0  0  0  0
  9 10  1  0  0  0  0
  5  6  1  0  0  0  0
  2  5  1  0  0  0  0
  2  3  2  0  0  0  0
  1  2  1  0  0  0  0
  2  4  2  0  0  0  0
M  END
> <Shapegauss>
-250.627060

$$$$
