stable:False satoms:11 tatoms:24 sratio:0.4583333333333333
  -OEChem-08062411143D

 30 30  0     0  0  0  0  0  0999 V2000
    6.1629   -4.6327   26.3871 Cl  0  0  0  0  0  0  0  0  0  0  0  0
    8.0148   -4.1378   26.1264 S   0  0  0  0  0  0  0  0  0  0  0  0
    8.7395   -5.3495   26.0011 O   0  0  0  0  0  0  0  0  0  0  0  0
    8.4059   -3.2889   27.2000 O   0  0  0  0  0  0  0  0  0  0  0  0
    7.9506   -3.3989   24.7073 N   0  0  0  0  0  0  0  0  0  0  0  0
    8.7958   -2.7841   24.1828 C   0  0  0  0  0  0  0  0  0  0  0  0
    9.3937   -2.0650   23.6567 C   0  0  0  0  0  0  0  0  0  0  0  0
   10.3288   -1.1424   23.1924 C   0  0  0  0  0  0  0  0  0  0  0  0
   11.7040   -0.7033   23.6202 C   0  0  0  0  0  0  0  0  0  0  0  0
   12.0045    0.0214   24.2604 H   0  0  0  0  0  0  0  0  0  0  0  0
   13.6000   -1.1520   22.9426 H   0  0  0  0  0  0  0  0  0  0  0  0
   12.6233   -1.4616   22.8775 C   0  0  0  0  0  0  0  0  0  0  0  0
   12.2293   -2.2784   22.2910 H   0  0  0  0  0  0  0  0  0  0  0  0
    9.7507   -0.6970   22.3033 C   0  0  0  0  0  0  0  0  0  0  0  0
    9.1266    0.0470   21.3109 C   0  0  0  0  0  0  0  0  0  0  0  0
    9.6629    0.9929   20.8633 O   0  0  0  0  0  0  0  0  0  0  0  0
    7.8915   -0.4628   20.9920 N   0  0  0  0  0  0  0  0  0  0  0  0
    7.1951    0.1043   20.1131 C   0  0  0  0  0  0  0  0  0  0  0  0
    7.2400    0.1068   18.7460 C   0  0  0  0  0  0  0  0  0  0  0  0
    6.7160    0.4729   17.7359 N   0  0  0  0  0  0  0  0  0  0  0  0
    5.7673    1.1306   18.2094 C   0  0  0  0  0  0  0  0  0  0  0  0
    5.4333    1.2931   19.3331 C   0  0  0  0  0  0  0  0  0  0  0  0
    5.9369    0.8488   20.4482 C   0  0  0  0  0  0  0  0  0  0  0  0
    5.3439    1.0059   22.0381 Br  0  0  0  0  0  0  0  0  0  0  0  0
    7.1840   -2.7616   24.7865 H   0  0  0  0  0  0  0  0  0  0  0  0
    9.4100   -1.6512   21.9293 H   0  0  0  0  0  0  0  0  0  0  0  0
    7.5490   -1.2797   21.4561 H   0  0  0  0  0  0  0  0  0  0  0  0
    8.1146   -0.4583   18.4594 H   0  0  0  0  0  0  0  0  0  0  0  0
    5.1524    1.6318   17.4765 H   0  0  0  0  0  0  0  0  0  0  0  0
    4.5604    1.9174   19.4542 H   0  0  0  0  0  0  0  0  0  0  0  0
 20 21  2  0  0  0  0
 19 20  1  0  0  0  0
 21 22  1  0  0  0  0
 18 19  2  0  0  0  0
 22 23  2  0  0  0  0
 18 23  1  0  0  0  0
 17 18  1  0  0  0  0
 23 24  1  0  0  0  0
 15 16  2  0  0  0  0
 15 17  1  0  0  0  0
 14 15  1  0  0  0  0
  8 14  2  3  0  0  0
 12 13  1  0  0  0  0
 11 12  1  0  0  0  0
  9 12  2  0  0  0  0
  7  8  1  0  0  0  0
  8  9  1  0  0  0  0
  6  7  3  0  0  0  0
  9 10  1  0  0  0  0
  5  6  1  0  0  0  0
  2  5  1  0  0  0  0
  2  3  2  0  0  0  0
  1  2  1  0  0  0  0
  2  4  2  0  0  0  0
  5 25  1  0  0  0  0
 14 26  1  0  0  0  0
 17 27  1  0  0  0  0
 19 28  1  0  0  0  0
 21 29  1  0  0  0  0
 22 30  1  0  0  0  0
M  END
> <Chemgauss4>
-10.402578

$$$$
