stable:False satoms:11 tatoms:24 sratio:0.4583333333333333
  -OEChem-08062411143D

 30 30  0     0  0  0  0  0  0999 V2000
   -6.1139   -5.4949  -25.7686 Cl  0  0  0  0  0  0  0  0  0  0  0  0
   -7.9018   -4.7602  -25.8457 S   0  0  0  0  0  0  0  0  0  0  0  0
   -8.7912   -5.8593  -25.7451 O   0  0  0  0  0  0  0  0  0  0  0  0
   -8.0130   -3.9783  -27.0299 O   0  0  0  0  0  0  0  0  0  0  0  0
   -7.9520   -3.9009  -24.4955 N   0  0  0  0  0  0  0  0  0  0  0  0
   -8.7768   -3.1423  -24.1615 C   0  0  0  0  0  0  0  0  0  0  0  0
   -9.3456   -2.3097  -23.7944 C   0  0  0  0  0  0  0  0  0  0  0  0
  -10.2087   -1.2420  -23.5576 C   0  0  0  0  0  0  0  0  0  0  0  0
  -11.4345   -0.6856  -24.2319 C   0  0  0  0  0  0  0  0  0  0  0  0
  -11.5378    0.0046  -24.9656 H   0  0  0  0  0  0  0  0  0  0  0  0
  -13.4528   -0.8380  -23.8334 H   0  0  0  0  0  0  0  0  0  0  0  0
  -12.5464   -1.2539  -23.5896 C   0  0  0  0  0  0  0  0  0  0  0  0
  -12.3557   -2.0515  -22.8867 H   0  0  0  0  0  0  0  0  0  0  0  0
   -9.7153   -0.7850  -22.6244 C   0  0  0  0  0  0  0  0  0  0  0  0
   -9.1527   -0.0284  -21.6052 C   0  0  0  0  0  0  0  0  0  0  0  0
   -9.6194    1.0133  -21.3228 O   0  0  0  0  0  0  0  0  0  0  0  0
   -8.0573   -0.6485  -21.0549 N   0  0  0  0  0  0  0  0  0  0  0  0
   -7.4303   -0.0862  -20.1222 C   0  0  0  0  0  0  0  0  0  0  0  0
   -7.6773    0.0533  -18.7842 C   0  0  0  0  0  0  0  0  0  0  0  0
   -7.2654    0.4501  -17.7344 N   0  0  0  0  0  0  0  0  0  0  0  0
   -6.1781    0.9414  -18.0994 C   0  0  0  0  0  0  0  0  0  0  0  0
   -5.6622    0.9539  -19.1645 C   0  0  0  0  0  0  0  0  0  0  0  0
   -6.0489    0.4674  -20.3082 C   0  0  0  0  0  0  0  0  0  0  0  0
   -5.2105    0.3988  -21.7903 Br  0  0  0  0  0  0  0  0  0  0  0  0
   -7.1045   -3.3701  -24.5000 H   0  0  0  0  0  0  0  0  0  0  0  0
   -9.5635   -1.7324  -22.1287 H   0  0  0  0  0  0  0  0  0  0  0  0
   -7.7609   -1.5412  -21.3943 H   0  0  0  0  0  0  0  0  0  0  0  0
   -8.6519   -0.3734  -18.5983 H   0  0  0  0  0  0  0  0  0  0  0  0
   -5.6181    1.4341  -17.3184 H   0  0  0  0  0  0  0  0  0  0  0  0
   -4.7061    1.4554  -19.1922 H   0  0  0  0  0  0  0  0  0  0  0  0
 20 21  2  0  0  0  0
 19 20  1  0  0  0  0
 21 22  1  0  0  0  0
 18 19  2  0  0  0  0
 22 23  2  0  0  0  0
 18 23  1  0  0  0  0
 17 18  1  0  0  0  0
 23 24  1  0  0  0  0
 15 16  2  0  0  0  0
 15 17  1  0  0  0  0
 14 15  1  0  0  0  0
  8 14  2  3  0  0  0
 12 13  1  0  0  0  0
 11 12  1  0  0  0  0
  9 12  2  0  0  0  0
  7  8  1  0  0  0  0
  8  9  1  0  0  0  0
  6  7  3  0  0  0  0
  9 10  1  0  0  0  0
  5  6  1  0  0  0  0
  2  5  1  0  0  0  0
  2  3  2  0  0  0  0
  1  2  1  0  0  0  0
  2  4  2  0  0  0  0
  5 25  1  0  0  0  0
 14 26  1  0  0  0  0
 17 27  1  0  0  0  0
 19 28  1  0  0  0  0
 21 29  1  0  0  0  0
 22 30  1  0  0  0  0
M  END
> <Chemgauss4>
-10.502144

$$$$
