stable:False satoms:18 tatoms:24 sratio:0.75
  -OEChem-08062406033D

 30 31  0     1  0  0  0  0  0999 V2000
  -13.1972    0.1475  -23.3058 H   0  0  0  0  0  0  0  0  0  0  0  0
  -12.5122   -0.5476  -23.8771 C   0  0  0  0  0  0  0  0  0  0  0  0
  -12.7160   -0.4345  -24.9954 H   0  0  0  0  0  0  0  0  0  0  0  0
  -12.8066   -1.8285  -23.5901 F   0  0  0  0  0  0  0  0  0  0  0  0
  -11.1630   -0.2531  -23.4908 N   0  0  0  0  0  0  0  0  0  0  0  0
  -10.2419   -1.0675  -23.5745 C   0  0  0  0  0  0  0  0  0  0  0  0
   -9.4556   -1.8314  -23.6489 N   0  3  0  0  0  0  0  0  0  0  0  0
   -7.4621   -2.4614  -22.7134 C   0  0  0  0  0  0  0  0  0  0  0  0
   -7.7655   -4.7532  -23.5511 C   0  0  0  0  0  0  0  0  0  0  0  0
   -7.1287   -5.1870  -22.7661 H   0  0  0  0  0  0  0  0  0  0  0  0
   -7.6421   -5.3265  -24.4817 H   0  0  0  0  0  0  0  0  0  0  0  0
   -6.8744   -3.2516  -24.6859 H   0  0  0  0  0  0  0  0  0  0  0  0
   -7.3903   -3.4076  -23.7723 C   0  0  1  0  0  0  0  0  0  0  0  0
   -8.4989   -2.1188  -23.2148 C   0  0  0  0  0  0  0  0  0  0  0  0
   -6.5256   -1.8882  -21.4306 C   0  0  0  0  0  0  0  0  0  0  0  0
   -5.6311   -2.5974  -21.1031 O   0  0  0  0  0  0  0  0  0  0  0  0
   -6.8514   -0.7239  -20.8661 N   0  0  0  0  0  0  0  0  0  0  0  0
   -6.1463    0.0102  -19.9889 C   0  0  0  0  0  0  0  0  0  0  0  0
   -4.8951    0.5128  -20.1695 N   0  0  0  0  0  0  0  0  0  0  0  0
   -4.4883    1.1871  -19.1633 N   0  0  0  0  0  0  0  0  0  0  0  0
   -5.4744    1.1697  -18.2936 C   0  0  0  0  0  0  0  0  0  0  0  0
   -5.4344    1.5849  -17.3268 H   0  0  0  0  0  0  0  0  0  0  0  0
   -6.6253    0.5012  -18.7802 C   0  0  0  0  0  0  0  0  0  0  0  0
   -7.6297    0.3869  -18.4162 H   0  0  0  0  0  0  0  0  0  0  0  0
  -10.9593    0.6592  -23.1355 H   0  0  0  0  0  0  0  0  0  0  0  0
   -9.5081   -0.2751  -23.5810 H   0  0  0  0  0  0  0  0  0  0  0  0
   -8.8178   -4.7927  -23.2330 H   0  0  0  0  0  0  0  0  0  0  0  0
   -7.7390   -0.3472  -21.1313 H   0  0  0  0  0  0  0  0  0  0  0  0
   -4.3536    0.3702  -20.9981 H   0  0  0  0  0  0  0  0  0  0  0  0
   -9.7038   -2.4892  -24.3599 H   0  0  0  0  0  0  0  0  0  0  0  0
 19 20  1  0  0  0  0
 20 21  2  0  0  0  0
 21 22  1  0  0  0  0
 18 19  1  0  0  0  0
 21 23  1  0  0  0  0
 18 23  2  0  0  0  0
 17 18  1  0  0  0  0
 23 24  1  0  0  0  0
 15 16  2  0  0  0  0
 15 17  1  0  0  0  0
  8 15  1  0  0  0  0
 12 13  1  0  0  0  0
  8 13  1  0  0  0  0
  8 14  2  0  0  0  0
 13 14  1  0  0  0  0
  9 13  1  0  0  0  0
  7 14  1  0  0  0  0
  9 11  1  0  0  0  0
  9 10  1  0  0  0  0
  6  7  2  3  0  0  0
  5  6  1  0  0  0  0
  2  5  1  0  0  0  0
  2  3  1  0  0  0  0
  1  2  1  0  0  0  0
  2  4  1  0  0  0  0
  5 25  1  0  0  0  0
  6 26  1  0  0  0  0
  9 27  1  0  0  0  0
 17 28  1  0  0  0  0
 19 29  1  0  0  0  0
  7 30  1  0  0  0  0
M  CHG  1   7   1
M  END
> <Chemgauss4>
-7.879642

$$$$
