stable:False satoms:18 tatoms:24 sratio:0.75
  -OEChem-08062406033D

 30 31  0     1  0  0  0  0  0999 V2000
   13.4709    0.1779   23.4218 H   0  0  0  0  0  0  0  0  0  0  0  0
   12.7859   -0.5172   23.9931 C   0  0  0  0  0  0  0  0  0  0  0  0
   12.9897   -0.4040   25.1115 H   0  0  0  0  0  0  0  0  0  0  0  0
   13.0802   -1.7981   23.7061 F   0  0  0  0  0  0  0  0  0  0  0  0
   11.4367   -0.2227   23.6068 N   0  0  0  0  0  0  0  0  0  0  0  0
   10.5156   -1.0371   23.6905 C   0  0  0  0  0  0  0  0  0  0  0  0
    9.7292   -1.8009   23.7649 N   0  3  0  0  0  0  0  0  0  0  0  0
    7.7357   -2.4310   22.8294 C   0  0  0  0  0  0  0  0  0  0  0  0
    8.0392   -4.7228   23.6671 C   0  0  0  0  0  0  0  0  0  0  0  0
    7.4023   -5.1566   22.8821 H   0  0  0  0  0  0  0  0  0  0  0  0
    7.9158   -5.2961   24.5977 H   0  0  0  0  0  0  0  0  0  0  0  0
    7.1480   -3.2211   24.8019 H   0  0  0  0  0  0  0  0  0  0  0  0
    7.6639   -3.3772   23.8883 C   0  0  1  0  0  0  0  0  0  0  0  0
    8.7725   -2.0883   23.3308 C   0  0  0  0  0  0  0  0  0  0  0  0
    6.7992   -1.8578   21.5466 C   0  0  0  0  0  0  0  0  0  0  0  0
    5.9047   -2.5670   21.2191 O   0  0  0  0  0  0  0  0  0  0  0  0
    7.1250   -0.6935   20.9821 N   0  0  0  0  0  0  0  0  0  0  0  0
    6.4199    0.0406   20.1049 C   0  0  0  0  0  0  0  0  0  0  0  0
    5.1687    0.5432   20.2855 N   0  0  0  0  0  0  0  0  0  0  0  0
    4.7620    1.2175   19.2794 N   0  0  0  0  0  0  0  0  0  0  0  0
    5.7481    1.2001   18.4096 C   0  0  0  0  0  0  0  0  0  0  0  0
    5.7080    1.6153   17.4428 H   0  0  0  0  0  0  0  0  0  0  0  0
    6.8989    0.5316   18.8962 C   0  0  0  0  0  0  0  0  0  0  0  0
    7.9033    0.4173   18.5322 H   0  0  0  0  0  0  0  0  0  0  0  0
   11.2329    0.6896   23.2515 H   0  0  0  0  0  0  0  0  0  0  0  0
    9.7818   -0.2447   23.6971 H   0  0  0  0  0  0  0  0  0  0  0  0
    9.0915   -4.7623   23.3490 H   0  0  0  0  0  0  0  0  0  0  0  0
    8.0126   -0.3168   21.2473 H   0  0  0  0  0  0  0  0  0  0  0  0
    4.6273    0.4006   21.1141 H   0  0  0  0  0  0  0  0  0  0  0  0
    9.9774   -2.4588   24.4759 H   0  0  0  0  0  0  0  0  0  0  0  0
 19 20  1  0  0  0  0
 20 21  2  0  0  0  0
 21 22  1  0  0  0  0
 18 19  1  0  0  0  0
 21 23  1  0  0  0  0
 18 23  2  0  0  0  0
 17 18  1  0  0  0  0
 23 24  1  0  0  0  0
 15 16  2  0  0  0  0
 15 17  1  0  0  0  0
  8 15  1  0  0  0  0
 12 13  1  0  0  0  0
  8 13  1  0  0  0  0
  8 14  2  0  0  0  0
 13 14  1  0  0  0  0
  9 13  1  0  0  0  0
  7 14  1  0  0  0  0
  9 11  1  0  0  0  0
  9 10  1  0  0  0  0
  6  7  2  3  0  0  0
  5  6  1  0  0  0  0
  2  5  1  0  0  0  0
  2  3  1  0  0  0  0
  1  2  1  0  0  0  0
  2  4  1  0  0  0  0
  5 25  1  0  0  0  0
  6 26  1  0  0  0  0
  9 27  1  0  0  0  0
 17 28  1  0  0  0  0
 19 29  1  0  0  0  0
  7 30  1  0  0  0  0
M  CHG  1   7   1
M  END
> <Chemgauss4>
-8.167658

$$$$
