stable:False satoms:20 tatoms:24 sratio:0.8333333333333334
  -OEChem-07092417293D

 24 25  0     0  0  0  0  0  0999 V2000
    9.1671   -2.8453   20.9052 C   0  0  0  0  0  0  0  0  0  0  0  0
    9.6269   -0.4262   21.2161 H   0  0  0  0  0  0  0  0  0  0  0  0
    5.9666   -4.2599   20.6385 H   0  0  0  0  0  0  0  0  0  0  0  0
    9.4750   -0.1533   23.2906 C   0  0  0  0  0  0  0  0  0  0  0  0
    9.8780    0.2057   26.0443 S   0  0  0  0  0  0  0  0  0  0  0  0
   10.6348   -2.9707   22.5189 H   0  0  0  0  0  0  0  0  0  0  0  0
    7.2631   -2.4584   19.2461 H   0  0  0  0  0  0  0  0  0  0  0  0
    9.6263    2.5786   26.2053 H   0  0  0  0  0  0  0  0  0  0  0  0
    7.3000   -4.4407   21.6810 H   0  0  0  0  0  0  0  0  0  0  0  0
    6.0652   -1.7861   20.3671 H   0  0  0  0  0  0  0  0  0  0  0  0
    8.8468   -2.5177   24.3118 H   0  0  0  0  0  0  0  0  0  0  0  0
    9.4150   -1.9574   24.8989 N   0  5  0  0  0  0  0  0  0  0  0  0
    9.5586   -0.7382   24.5899 C   0  0  0  0  0  0  0  0  0  0  0  0
    6.9051   -2.4726   20.2723 C   0  0  0  0  0  0  0  0  0  0  0  0
    9.9653   -2.3140   21.9996 C   0  0  0  0  0  0  0  0  0  0  0  0
    9.5346   -3.3265   19.8766 O   0  0  0  0  0  0  0  0  0  0  0  0
    6.8421   -3.7213   21.0062 C   0  0  0  0  0  0  0  0  0  0  0  0
    7.8647   -2.5212   21.2762 O   0  3  0  0  0  0  0  0  0  0  0  0
    9.5572    1.8088   25.4561 C   0  3  0  0  0  0  0  0  0  0  0  0
    9.7326   -0.9686   22.1497 C   0  0  0  0  0  0  0  0  0  0  0  0
    9.2971    2.1212   24.1455 C   0  0  0  0  0  0  0  0  0  0  0  0
    8.7516    1.5136   22.1734 H   0  0  0  0  0  0  0  0  0  0  0  0
    9.1672    3.1697   23.8974 H   0  0  0  0  0  0  0  0  0  0  0  0
    9.1432    1.1902   23.1302 C   0  0  0  0  0  0  0  0  0  0  0  0
  7 14  1  0  0  0  0
  1 16  2  0  0  0  0
 10 14  1  0  0  0  0
 14 17  1  0  0  0  0
 14 18  1  0  0  0  0
  3 17  1  0  0  0  0
  1 18  1  0  0  0  0
  1 15  1  0  0  0  0
 17 18  1  0  0  0  0
  9 17  1  0  0  0  0
  2 20  1  0  0  0  0
 15 20  2  3  0  0  0
  6 15  1  0  0  0  0
  4 20  1  0  0  0  0
 22 24  1  0  0  0  0
  4 24  1  0  0  0  0
 21 24  2  0  0  0  0
  4 13  2  0  0  0  0
 21 23  1  0  0  0  0
 19 21  1  0  0  0  0
 11 12  1  0  0  0  0
 12 13  1  0  0  0  0
  5 13  1  0  0  0  0
  5 19  1  0  0  0  0
  8 19  1  0  0  0  0
M  CHG  3  12  -1  18   1  19   1
M  END
> <Shapegauss>
-103.073936

$$$$
