stable:False satoms:20 tatoms:24 sratio:0.8333333333333334
  -OEChem-08052417033D

 25 26  0     0  0  0  0  0  0999 V2000
   -6.8207   -3.3459  -25.7126 C   0  0  0  0  0  0  0  0  0  0  0  0
   -8.9260   -3.7329  -24.4563 H   0  0  0  0  0  0  0  0  0  0  0  0
   -3.8371   -2.1490  -24.3052 H   0  0  0  0  0  0  0  0  0  0  0  0
   -9.8453   -1.8474  -24.4329 C   0  0  0  0  0  0  0  0  0  0  0  0
  -11.4179    0.4401  -24.8434 S   0  0  0  0  0  0  0  0  0  0  0  0
   -8.2266   -2.3755  -27.0747 H   0  0  0  0  0  0  0  0  0  0  0  0
   -5.3263   -4.2564  -23.8510 H   0  0  0  0  0  0  0  0  0  0  0  0
  -13.0144    0.1807  -23.0816 H   0  0  0  0  0  0  0  0  0  0  0  0
   -4.9006   -1.6389  -25.5324 H   0  0  0  0  0  0  0  0  0  0  0  0
   -5.5405   -2.9484  -22.6734 H   0  0  0  0  0  0  0  0  0  0  0  0
   -9.5376    0.8999  -26.0946 H   0  0  0  0  0  0  0  0  0  0  0  0
   -9.1642    0.0151  -25.8157 N   0  0  0  0  0  0  0  0  0  0  0  0
   -9.9906   -0.5723  -25.0577 C   0  0  0  0  0  0  0  0  0  0  0  0
   -5.5095   -3.1914  -23.7344 C   0  0  0  0  0  0  0  0  0  0  0  0
   -8.0951   -2.7461  -26.0775 C   0  0  0  0  0  0  0  0  0  0  0  0
   -6.2912   -4.3130  -26.1698 O   0  0  0  0  0  0  0  0  0  0  0  0
   -4.8764   -2.2399  -24.6264 C   0  0  0  0  0  0  0  0  0  0  0  0
   -6.4323   -2.6105  -24.5958 O   0  3  0  0  0  0  0  0  0  0  0  0
  -12.1342   -0.3157  -23.4525 C   0  3  0  0  0  0  0  0  0  0  0  0
   -8.9706   -2.8075  -25.0208 C   0  0  0  0  0  0  0  0  0  0  0  0
  -11.6880   -1.4810  -22.8817 C   0  0  0  0  0  0  0  0  0  0  0  0
  -10.1628   -2.9541  -22.6372 H   0  0  0  0  0  0  0  0  0  0  0  0
  -12.2570   -1.8795  -22.0479 H   0  0  0  0  0  0  0  0  0  0  0  0
  -10.5393   -2.1556  -23.2649 C   0  0  0  0  0  0  0  0  0  0  0  0
   -8.9978   -0.5467  -26.6261 H   0  0  0  0  0  0  0  0  0  0  0  0
  7 14  1  0  0  0  0
  1 16  2  0  0  0  0
 10 14  1  0  0  0  0
 14 17  1  0  0  0  0
 14 18  1  0  0  0  0
  3 17  1  0  0  0  0
  1 18  1  0  0  0  0
  1 15  1  0  0  0  0
 17 18  1  0  0  0  0
  9 17  1  0  0  0  0
  2 20  1  0  0  0  0
 15 20  2  3  0  0  0
  6 15  1  0  0  0  0
  4 20  1  0  0  0  0
 22 24  1  0  0  0  0
  4 24  1  0  0  0  0
 21 24  2  0  0  0  0
  4 13  2  0  0  0  0
 21 23  1  0  0  0  0
 19 21  1  0  0  0  0
 11 12  1  0  0  0  0
 12 13  1  0  0  0  0
  5 13  1  0  0  0  0
  5 19  1  0  0  0  0
  8 19  1  0  0  0  0
 12 25  1  0  0  0  0
M  CHG  2  18   1  19   1
M  END
> <Chemgauss4>
-5.879910

$$$$
