stable:False satoms:20 tatoms:24 sratio:0.8333333333333334
  -OEChem-08052417033D

 25 26  0     0  0  0  0  0  0999 V2000
   11.0175   -0.2802   23.6431 C   0  0  0  0  0  0  0  0  0  0  0  0
    9.4201   -1.9696   22.7746 H   0  0  0  0  0  0  0  0  0  0  0  0
   14.4095   -0.8845   24.3098 H   0  0  0  0  0  0  0  0  0  0  0  0
    8.7690   -2.9716   24.4989 C   0  0  0  0  0  0  0  0  0  0  0  0
    7.4049   -3.9648   26.7410 S   0  0  0  0  0  0  0  0  0  0  0  0
    9.3520    0.0739   25.0123 H   0  0  0  0  0  0  0  0  0  0  0  0
   12.9381   -1.0586   22.1489 H   0  0  0  0  0  0  0  0  0  0  0  0
    6.4659   -5.9613   25.8177 H   0  0  0  0  0  0  0  0  0  0  0  0
   13.0602   -0.3669   25.2093 H   0  0  0  0  0  0  0  0  0  0  0  0
   13.2690   -2.6157   22.9295 H   0  0  0  0  0  0  0  0  0  0  0  0
    8.8011   -2.3837   27.6702 H   0  0  0  0  0  0  0  0  0  0  0  0
    9.1484   -2.1857   26.7536 N   0  0  0  0  0  0  0  0  0  0  0  0
    8.5625   -2.9263   25.9105 C   0  0  0  0  0  0  0  0  0  0  0  0
   12.9196   -1.5974   23.0927 C   0  0  0  0  0  0  0  0  0  0  0  0
    9.7665   -0.6172   24.3054 C   0  0  0  0  0  0  0  0  0  0  0  0
   11.2579    0.6409   22.9231 O   0  0  0  0  0  0  0  0  0  0  0  0
   13.3190   -0.9353   24.3191 C   0  0  0  0  0  0  0  0  0  0  0  0
   11.8313   -1.3737   23.9273 O   0  3  0  0  0  0  0  0  0  0  0  0
    7.1142   -5.1582   25.5121 C   0  3  0  0  0  0  0  0  0  0  0  0
    9.2903   -1.8191   23.8412 C   0  0  0  0  0  0  0  0  0  0  0  0
    7.5967   -5.0903   24.2293 C   0  0  0  0  0  0  0  0  0  0  0  0
    8.9487   -4.2548   22.8045 H   0  0  0  0  0  0  0  0  0  0  0  0
    7.2974   -5.8734   23.5401 H   0  0  0  0  0  0  0  0  0  0  0  0
    8.4733   -4.1205   23.7686 C   0  0  0  0  0  0  0  0  0  0  0  0
    8.9749   -1.2262   26.5316 H   0  0  0  0  0  0  0  0  0  0  0  0
  7 14  1  0  0  0  0
  1 16  2  0  0  0  0
 10 14  1  0  0  0  0
 14 17  1  0  0  0  0
 14 18  1  0  0  0  0
  3 17  1  0  0  0  0
  1 18  1  0  0  0  0
  1 15  1  0  0  0  0
 17 18  1  0  0  0  0
  9 17  1  0  0  0  0
  2 20  1  0  0  0  0
 15 20  2  3  0  0  0
  6 15  1  0  0  0  0
  4 20  1  0  0  0  0
 22 24  1  0  0  0  0
  4 24  1  0  0  0  0
 21 24  2  0  0  0  0
  4 13  2  0  0  0  0
 21 23  1  0  0  0  0
 19 21  1  0  0  0  0
 11 12  1  0  0  0  0
 12 13  1  0  0  0  0
  5 13  1  0  0  0  0
  5 19  1  0  0  0  0
  8 19  1  0  0  0  0
 12 25  1  0  0  0  0
M  CHG  2  18   1  19   1
M  END
> <Chemgauss4>
-5.872797

$$$$
