MODEL 1
REMARK VINA RESULT:    -7.918      0.000      0.000
REMARK INTER + INTRA:         -10.936
REMARK INTER:                 -10.232
REMARK INTRA:                  -0.704
REMARK UNBOUND:                -0.704
REMARK  5 active torsions:
REMARK  status: ('A' for Active; 'I' for Inactive)
REMARK    1  A    between atoms: S_2  and  N_5 
REMARK    2  A    between atoms: N_5  and  C_7 
REMARK    3  A    between atoms: C_7  and  C_8 
REMARK    4  A    between atoms: C_15  and  C_16 
REMARK       I    between atoms: C_16  and  N_18 
REMARK    5  A    between atoms: N_18  and  C_20 
ROOT
HETATM    1  C   UNL     1       6.755  -2.048  21.802  1.00  0.00     0.040 A 
HETATM    2  C   UNL     1       6.841  -3.121  22.583  1.00  0.00     0.066 A 
HETATM    3  C   UNL     1       5.691  -3.684  23.707  1.00  0.00    -0.003 C 
HETATM    4  C   UNL     1       5.436  -4.757  23.915  1.00  0.00    -0.002 C 
HETATM    5  C   UNL     1       5.889  -5.837  23.311  1.00  0.00    -0.001 C 
HETATM    6  C   UNL     1       6.737  -5.593  22.208  1.00  0.00    -0.002 C 
HETATM    7  C   UNL     1       7.070  -4.695  21.826  1.00  0.00    -0.003 C 
HETATM    8  C   UNL     1       7.865  -2.736  23.017  1.00  0.00     0.049 A 
ENDROOT
BRANCH   8   9
HETATM    9  C   UNL     1       9.024  -2.454  23.647  1.00  0.00     0.255 C 
HETATM   10  O   UNL     1       9.181  -2.898  24.704  1.00  0.00    -0.268 OA
HETATM   11  N   UNL     1       9.773  -1.685  22.888  1.00  0.00    -0.320 N 
ATOM     12  HN  UNL     1       9.436  -1.389  21.972  1.00  0.00     0.169 HD
BRANCH  11  13
HETATM   13  C   UNL     1      10.903  -1.316  23.291  1.00  0.00     0.072 A 
HETATM   14  C   UNL     1      12.153  -1.715  23.094  1.00  0.00     0.119 A 
HETATM   15  N   UNL     1      13.404  -1.595  23.280  1.00  0.00    -0.373 N 
HETATM   16  C   UNL     1      13.282  -0.579  24.040  1.00  0.00     0.089 A 
ATOM     17  HN  UNL     1      14.212  -2.120  22.944  1.00  0.00     0.164 HD
HETATM   18  C   UNL     1      12.378   0.067  24.436  1.00  0.00     0.043 A 
HETATM   19  C   UNL     1      11.079  -0.078  24.192  1.00  0.00     0.063 A 
HETATM   20 CL   UNL     1       9.875   0.781  24.705  1.00  0.00    -0.082 Cl
ENDBRANCH  11  13
ENDBRANCH   8   9
BRANCH   1  21
HETATM   21  C   UNL     1       6.265  -1.354  20.977  1.00  0.00    -0.022 C 
BRANCH  21  22
HETATM   22  N   UNL     1       5.619  -1.015  20.074  1.00  0.00    -0.249 N 
ATOM     23  HN  UNL     1       4.692  -1.435  19.998  1.00  0.00     0.188 HD
BRANCH  22  24
HETATM   24  S   UNL     1       6.026   0.057  18.911  1.00  0.00     0.233 S 
HETATM   25  C   UNL     1       4.998   1.578  19.356  1.00  0.00     0.186 C 
HETATM   26  O   UNL     1       7.393   0.478  19.014  1.00  0.00    -0.205 OA
HETATM   27  O   UNL     1       5.641  -0.353  17.593  1.00  0.00    -0.205 OA
ENDBRANCH  22  24
ENDBRANCH  21  22
ENDBRANCH   1  21
TORSDOF 5
ENDMDL
MODEL 2
REMARK VINA RESULT:    -7.904      2.925      6.409
REMARK INTER + INTRA:         -10.919
REMARK INTER:                 -10.190
REMARK INTRA:                  -0.729
REMARK UNBOUND:                -0.704
REMARK  5 active torsions:
REMARK  status: ('A' for Active; 'I' for Inactive)
REMARK    1  A    between atoms: S_2  and  N_5 
REMARK    2  A    between atoms: N_5  and  C_7 
REMARK    3  A    between atoms: C_7  and  C_8 
REMARK    4  A    between atoms: C_15  and  C_16 
REMARK       I    between atoms: C_16  and  N_18 
REMARK    5  A    between atoms: N_18  and  C_20 
ROOT
HETATM    1  C   UNL     1       8.842  -2.458  23.298  1.00  0.00     0.040 A 
HETATM    2  C   UNL     1       9.598  -1.365  23.350  1.00  0.00     0.066 A 
HETATM    3  C   UNL     1       9.784  -0.289  24.658  1.00  0.00    -0.003 C 
HETATM    4  C   UNL     1      10.734   0.221  24.968  1.00  0.00    -0.002 C 
HETATM    5  C   UNL     1      11.944   0.073  24.466  1.00  0.00    -0.001 C 
HETATM    6  C   UNL     1      12.057  -0.921  23.467  1.00  0.00    -0.002 C 
HETATM    7  C   UNL     1      11.328  -1.525  23.061  1.00  0.00    -0.003 C 
HETATM    8  C   UNL     1       9.072  -0.943  22.385  1.00  0.00     0.049 A 
ENDROOT
BRANCH   8   9
HETATM    9  C   UNL     1       8.575  -0.286  21.317  1.00  0.00     0.255 C 
HETATM   10  O   UNL     1       9.282   0.441  20.759  1.00  0.00    -0.268 OA
HETATM   11  N   UNL     1       7.321  -0.625  21.123  1.00  0.00    -0.320 N 
ATOM     12  HN  UNL     1       6.870  -1.291  21.750  1.00  0.00     0.169 HD
BRANCH  11  13
HETATM   13  C   UNL     1       6.677  -0.128  20.166  1.00  0.00     0.072 A 
HETATM   14  C   UNL     1       6.365  -0.515  18.936  1.00  0.00     0.119 A 
HETATM   15  N   UNL     1       5.784  -0.327  17.821  1.00  0.00    -0.373 N 
HETATM   16  C   UNL     1       5.316   0.809  18.158  1.00  0.00     0.089 A 
ATOM     17  HN  UNL     1       5.717  -0.883  16.968  1.00  0.00     0.164 HD
HETATM   18  C   UNL     1       5.352   1.475  19.131  1.00  0.00     0.043 A 
HETATM   19  C   UNL     1       5.952   1.226  20.291  1.00  0.00     0.063 A 
HETATM   20 CL   UNL     1       5.996   2.098  21.589  1.00  0.00    -0.082 Cl
ENDBRANCH  11  13
ENDBRANCH   8   9
BRANCH   1  21
HETATM   21  C   UNL     1       8.466  -3.524  23.651  1.00  0.00    -0.022 C 
BRANCH  21  22
HETATM   22  N   UNL     1       8.108  -4.628  23.609  1.00  0.00    -0.249 N 
ATOM     23  HN  UNL     1       8.614  -5.291  24.198  1.00  0.00     0.188 HD
BRANCH  22  24
HETATM   24  S   UNL     1       6.886  -5.239  22.716  1.00  0.00     0.233 S 
HETATM   25  C   UNL     1       5.604  -5.718  24.019  1.00  0.00     0.186 C 
HETATM   26  O   UNL     1       6.250  -4.240  21.906  1.00  0.00    -0.205 OA
HETATM   27  O   UNL     1       7.237  -6.429  22.000  1.00  0.00    -0.205 OA
ENDBRANCH  22  24
ENDBRANCH  21  22
ENDBRANCH   1  21
TORSDOF 5
ENDMDL
MODEL 3
REMARK VINA RESULT:    -7.676      2.738      5.498
REMARK INTER + INTRA:         -10.624
REMARK INTER:                  -9.726
REMARK INTRA:                  -0.897
REMARK UNBOUND:                -0.704
REMARK  5 active torsions:
REMARK  status: ('A' for Active; 'I' for Inactive)
REMARK    1  A    between atoms: S_2  and  N_5 
REMARK    2  A    between atoms: N_5  and  C_7 
REMARK    3  A    between atoms: C_7  and  C_8 
REMARK    4  A    between atoms: C_15  and  C_16 
REMARK       I    between atoms: C_16  and  N_18 
REMARK    5  A    between atoms: N_18  and  C_20 
ROOT
HETATM    1  C   UNL     1       9.153   0.021  23.046  1.00  0.00     0.040 A 
HETATM    2  C   UNL     1      10.198  -0.600  23.585  1.00  0.00     0.066 A 
HETATM    3  C   UNL     1      11.375  -1.540  22.787  1.00  0.00    -0.003 C 
HETATM    4  C   UNL     1      12.471  -1.570  23.023  1.00  0.00    -0.002 C 
HETATM    5  C   UNL     1      13.139  -0.852  23.903  1.00  0.00    -0.001 C 
HETATM    6  C   UNL     1      12.377   0.136  24.568  1.00  0.00    -0.002 C 
HETATM    7  C   UNL     1      11.375   0.357  24.479  1.00  0.00    -0.003 C 
HETATM    8  C   UNL     1       9.489  -1.163  24.337  1.00  0.00     0.049 A 
ENDROOT
BRANCH   8   9
HETATM    9  C   UNL     1       8.845  -1.914  25.254  1.00  0.00     0.255 C 
HETATM   10  O   UNL     1       8.609  -1.426  26.276  1.00  0.00    -0.268 OA
HETATM   11  N   UNL     1       8.609  -3.112  24.769  1.00  0.00    -0.320 N 
ATOM     12  HN  UNL     1       8.916  -3.350  23.826  1.00  0.00     0.169 HD
BRANCH  11  13
HETATM   13  C   UNL     1       8.006  -3.964  25.467  1.00  0.00     0.072 A 
HETATM   14  C   UNL     1       8.359  -4.851  26.388  1.00  0.00     0.119 A 
HETATM   15  N   UNL     1       8.073  -5.756  27.233  1.00  0.00    -0.373 N 
HETATM   16  C   UNL     1       6.824  -5.714  26.985  1.00  0.00     0.089 A 
ATOM     17  HN  UNL     1       8.637  -6.314  27.875  1.00  0.00     0.164 HD
HETATM   18  C   UNL     1       6.132  -5.077  26.272  1.00  0.00     0.043 A 
HETATM   19  C   UNL     1       6.473  -4.115  25.420  1.00  0.00     0.063 A 
HETATM   20 CL   UNL     1       5.562  -3.259  24.479  1.00  0.00    -0.082 Cl
ENDBRANCH  11  13
ENDBRANCH   8   9
BRANCH   1  21
HETATM   21  C   UNL     1       8.610   0.772  22.308  1.00  0.00    -0.022 C 
BRANCH  21  22
HETATM   22  N   UNL     1       8.041   1.175  21.380  1.00  0.00    -0.249 N 
ATOM     23  HN  UNL     1       8.071   2.185  21.234  1.00  0.00     0.188 HD
BRANCH  22  24
HETATM   24  S   UNL     1       7.197   0.310  20.282  1.00  0.00     0.233 S 
HETATM   25  C   UNL     1       5.699   1.407  19.935  1.00  0.00     0.186 C 
HETATM   26  O   UNL     1       7.887   0.201  19.028  1.00  0.00    -0.205 OA
HETATM   27  O   UNL     1       6.709  -0.939  20.787  1.00  0.00    -0.205 OA
ENDBRANCH  22  24
ENDBRANCH  21  22
ENDBRANCH   1  21
TORSDOF 5
ENDMDL
MODEL 4
REMARK VINA RESULT:    -7.608      3.653      5.560
REMARK INTER + INTRA:         -10.536
REMARK INTER:                  -9.842
REMARK INTRA:                  -0.694
REMARK UNBOUND:                -0.704
REMARK  5 active torsions:
REMARK  status: ('A' for Active; 'I' for Inactive)
REMARK    1  A    between atoms: S_2  and  N_5 
REMARK    2  A    between atoms: N_5  and  C_7 
REMARK    3  A    between atoms: C_7  and  C_8 
REMARK    4  A    between atoms: C_15  and  C_16 
REMARK       I    between atoms: C_16  and  N_18 
REMARK    5  A    between atoms: N_18  and  C_20 
ROOT
HETATM    1  C   UNL     1       8.004  -4.914  25.066  1.00  0.00     0.040 A 
HETATM    2  C   UNL     1       7.569  -4.726  23.823  1.00  0.00     0.066 A 
HETATM    3  C   UNL     1       7.637  -5.822  22.520  1.00  0.00    -0.003 C 
HETATM    4  C   UNL     1       6.850  -5.967  21.734  1.00  0.00    -0.002 C 
HETATM    5  C   UNL     1       5.663  -5.401  21.650  1.00  0.00    -0.001 C 
HETATM    6  C   UNL     1       5.319  -4.573  22.742  1.00  0.00    -0.002 C 
HETATM    7  C   UNL     1       5.871  -4.331  23.578  1.00  0.00    -0.003 C 
HETATM    8  C   UNL     1       8.222  -3.750  23.732  1.00  0.00     0.049 A 
ENDROOT
BRANCH   8   9
HETATM    9  C   UNL     1       8.912  -2.632  23.429  1.00  0.00     0.255 C 
HETATM   10  O   UNL     1       8.908  -2.283  22.325  1.00  0.00    -0.268 OA
HETATM   11  N   UNL     1       9.481  -2.147  24.509  1.00  0.00    -0.320 N 
ATOM     12  HN  UNL     1       9.367  -2.624  25.403  1.00  0.00     0.169 HD
BRANCH  11  13
HETATM   13  C   UNL     1      10.166  -1.097  24.440  1.00  0.00     0.072 A 
HETATM   14  C   UNL     1      11.422  -0.807  24.126  1.00  0.00     0.119 A 
HETATM   15  N   UNL     1      12.360   0.029  23.938  1.00  0.00    -0.373 N 
HETATM   16  C   UNL     1      11.636   1.038  24.223  1.00  0.00     0.089 A 
ATOM     17  HN  UNL     1      13.336  -0.070  23.660  1.00  0.00     0.164 HD
HETATM   18  C   UNL     1      10.507   1.200  24.528  1.00  0.00     0.043 A 
HETATM   19  C   UNL     1       9.548   0.293  24.687  1.00  0.00     0.063 A 
HETATM   20 CL   UNL     1       8.047   0.500  25.081  1.00  0.00    -0.082 Cl
ENDBRANCH  11  13
ENDBRANCH   8   9
BRANCH   1  21
HETATM   21  C   UNL     1       8.066  -5.466  26.113  1.00  0.00    -0.022 C 
BRANCH  21  22
HETATM   22  N   UNL     1       7.941  -5.678  27.247  1.00  0.00    -0.249 N 
ATOM     23  HN  UNL     1       8.801  -5.760  27.790  1.00  0.00     0.188 HD
BRANCH  22  24
HETATM   24  S   UNL     1       6.544  -5.861  28.072  1.00  0.00     0.233 S 
HETATM   25  C   UNL     1       5.625  -4.249  27.714  1.00  0.00     0.186 C 
HETATM   26  O   UNL     1       5.719  -6.899  27.524  1.00  0.00    -0.205 OA
HETATM   27  O   UNL     1       6.723  -5.948  29.491  1.00  0.00    -0.205 OA
ENDBRANCH  22  24
ENDBRANCH  21  22
ENDBRANCH   1  21
TORSDOF 5
ENDMDL
MODEL 5
REMARK VINA RESULT:    -6.917      2.817      5.332
REMARK INTER + INTRA:          -9.643
REMARK INTER:                  -8.874
REMARK INTRA:                  -0.769
REMARK UNBOUND:                -0.704
REMARK  5 active torsions:
REMARK  status: ('A' for Active; 'I' for Inactive)
REMARK    1  A    between atoms: S_2  and  N_5 
REMARK    2  A    between atoms: N_5  and  C_7 
REMARK    3  A    between atoms: C_7  and  C_8 
REMARK    4  A    between atoms: C_15  and  C_16 
REMARK       I    between atoms: C_16  and  N_18 
REMARK    5  A    between atoms: N_18  and  C_20 
ROOT
HETATM    1  C   UNL     1       8.358   0.500  21.503  1.00  0.00     0.040 A 
HETATM    2  C   UNL     1       9.130   0.966  22.479  1.00  0.00     0.066 A 
HETATM    3  C   UNL     1      10.574   1.859  22.327  1.00  0.00    -0.003 C 
HETATM    4  C   UNL     1      10.902   2.706  22.986  1.00  0.00    -0.002 C 
HETATM    5  C   UNL     1      10.247   3.273  23.978  1.00  0.00    -0.001 C 
HETATM    6  C   UNL     1       8.930   2.798  24.171  1.00  0.00    -0.002 C 
HETATM    7  C   UNL     1       8.421   2.059  23.664  1.00  0.00    -0.003 C 
HETATM    8  C   UNL     1       9.219  -0.114  22.939  1.00  0.00     0.049 A 
ENDROOT
BRANCH   8   9
HETATM    9  C   UNL     1       9.460  -1.268  23.594  1.00  0.00     0.255 C 
HETATM   10  O   UNL     1      10.564  -1.587  23.730  1.00  0.00    -0.268 OA
HETATM   11  N   UNL     1       8.326  -1.824  23.957  1.00  0.00    -0.320 N 
ATOM     12  HN  UNL     1       7.440  -1.376  23.724  1.00  0.00     0.169 HD
BRANCH  11  13
HETATM   13  C   UNL     1       8.334  -2.907  24.592  1.00  0.00     0.072 A 
HETATM   14  C   UNL     1       8.600  -3.269  25.841  1.00  0.00     0.119 A 
HETATM   15  N   UNL     1       8.683  -4.148  26.754  1.00  0.00    -0.373 N 
HETATM   16  C   UNL     1       8.322  -5.101  25.989  1.00  0.00     0.089 A 
ATOM     17  HN  UNL     1       8.944  -4.107  27.739  1.00  0.00     0.164 HD
HETATM   18  C   UNL     1       7.995  -5.191  24.858  1.00  0.00     0.043 A 
HETATM   19  C   UNL     1       7.896  -4.233  23.941  1.00  0.00     0.063 A 
HETATM   20 CL   UNL     1       7.453  -4.341  22.444  1.00  0.00    -0.082 Cl
ENDBRANCH  11  13
ENDBRANCH   8   9
BRANCH   1  21
HETATM   21  C   UNL     1       7.682   0.581  20.533  1.00  0.00    -0.022 C 
BRANCH  21  22
HETATM   22  N   UNL     1       7.278   0.392  19.461  1.00  0.00    -0.249 N 
ATOM     23  HN  UNL     1       7.911   0.618  18.693  1.00  0.00     0.188 HD
BRANCH  22  24
HETATM   24  S   UNL     1       5.812  -0.194  19.044  1.00  0.00     0.233 S 
HETATM   25  C   UNL     1       4.648   1.233  19.464  1.00  0.00     0.186 C 
HETATM   26  O   UNL     1       5.685  -0.384  17.628  1.00  0.00    -0.205 OA
HETATM   27  O   UNL     1       5.404  -1.326  19.822  1.00  0.00    -0.205 OA
ENDBRANCH  22  24
ENDBRANCH  21  22
ENDBRANCH   1  21
TORSDOF 5
ENDMDL
MODEL 6
REMARK VINA RESULT:    -6.861      4.005      6.373
REMARK INTER + INTRA:          -9.571
REMARK INTER:                  -8.759
REMARK INTRA:                  -0.812
REMARK UNBOUND:                -0.704
REMARK  5 active torsions:
REMARK  status: ('A' for Active; 'I' for Inactive)
REMARK    1  A    between atoms: S_2  and  N_5 
REMARK    2  A    between atoms: N_5  and  C_7 
REMARK    3  A    between atoms: C_7  and  C_8 
REMARK    4  A    between atoms: C_15  and  C_16 
REMARK       I    between atoms: C_16  and  N_18 
REMARK    5  A    between atoms: N_18  and  C_20 
ROOT
HETATM    1  C   UNL     1       6.882  -4.969  25.558  1.00  0.00     0.040 A 
HETATM    2  C   UNL     1       6.746  -4.833  24.242  1.00  0.00     0.066 A 
HETATM    3  C   UNL     1       7.613  -5.639  23.017  1.00  0.00    -0.003 C 
HETATM    4  C   UNL     1       7.198  -6.004  22.040  1.00  0.00    -0.002 C 
HETATM    5  C   UNL     1       5.950  -5.975  21.620  1.00  0.00    -0.001 C 
HETATM    6  C   UNL     1       5.013  -5.499  22.565  1.00  0.00    -0.002 C 
HETATM    7  C   UNL     1       5.170  -5.150  23.522  1.00  0.00    -0.003 C 
HETATM    8  C   UNL     1       6.913  -3.671  24.335  1.00  0.00     0.049 A 
ENDROOT
BRANCH   8   9
HETATM    9  C   UNL     1       7.107  -2.340  24.235  1.00  0.00     0.255 C 
HETATM   10  O   UNL     1       6.622  -1.666  25.041  1.00  0.00    -0.268 OA
HETATM   11  N   UNL     1       7.845  -2.070  23.182  1.00  0.00    -0.320 N 
ATOM     12  HN  UNL     1       8.170  -2.827  22.580  1.00  0.00     0.169 HD
BRANCH  11  13
HETATM   13  C   UNL     1       8.149  -0.881  22.917  1.00  0.00     0.072 A 
HETATM   14  C   UNL     1       7.602   0.098  22.209  1.00  0.00     0.119 A 
HETATM   15  N   UNL     1       7.594   1.294  21.779  1.00  0.00    -0.373 N 
HETATM   16  C   UNL     1       8.683   1.604  22.365  1.00  0.00     0.089 A 
ATOM     17  HN  UNL     1       6.952   1.815  21.182  1.00  0.00     0.164 HD
HETATM   18  C   UNL     1       9.441   1.043  23.074  1.00  0.00     0.043 A 
HETATM   19  C   UNL     1       9.395  -0.207  23.523  1.00  0.00     0.063 A 
HETATM   20 CL   UNL     1      10.391  -0.954  24.472  1.00  0.00    -0.082 Cl
ENDBRANCH  11  13
ENDBRANCH   8   9
BRANCH   1  21
HETATM   21  C   UNL     1       6.903  -5.565  26.582  1.00  0.00    -0.022 C 
BRANCH  21  22
HETATM   22  N   UNL     1       7.300  -6.042  27.563  1.00  0.00    -0.249 N 
ATOM     23  HN  UNL     1       8.294  -6.272  27.585  1.00  0.00     0.188 HD
BRANCH  22  24
HETATM   24  S   UNL     1       6.447  -6.386  28.913  1.00  0.00     0.233 S 
HETATM   25  C   UNL     1       4.701  -6.674  28.251  1.00  0.00     0.186 C 
HETATM   26  O   UNL     1       6.841  -7.633  29.503  1.00  0.00    -0.205 OA
HETATM   27  O   UNL     1       6.380  -5.298  29.842  1.00  0.00    -0.205 OA
ENDBRANCH  22  24
ENDBRANCH  21  22
ENDBRANCH   1  21
TORSDOF 5
ENDMDL
MODEL 7
REMARK VINA RESULT:    -6.793     14.663     16.579
REMARK INTER + INTRA:          -9.483
REMARK INTER:                  -8.627
REMARK INTRA:                  -0.856
REMARK UNBOUND:                -0.704
REMARK  5 active torsions:
REMARK  status: ('A' for Active; 'I' for Inactive)
REMARK    1  A    between atoms: S_2  and  N_5 
REMARK    2  A    between atoms: N_5  and  C_7 
REMARK    3  A    between atoms: C_7  and  C_8 
REMARK    4  A    between atoms: C_15  and  C_16 
REMARK       I    between atoms: C_16  and  N_18 
REMARK    5  A    between atoms: N_18  and  C_20 
ROOT
HETATM    1  C   UNL     1      23.385  -3.218  24.048  1.00  0.00     0.040 A 
HETATM    2  C   UNL     1      22.963  -1.962  23.934  1.00  0.00     0.066 A 
HETATM    3  C   UNL     1      21.373  -1.378  24.118  1.00  0.00    -0.003 C 
HETATM    4  C   UNL     1      21.074  -0.406  24.593  1.00  0.00    -0.002 C 
HETATM    5  C   UNL     1      21.842   0.485  25.186  1.00  0.00    -0.001 C 
HETATM    6  C   UNL     1      23.201   0.115  25.307  1.00  0.00    -0.002 C 
HETATM    7  C   UNL     1      23.678  -0.736  24.976  1.00  0.00    -0.003 C 
HETATM    8  C   UNL     1      23.434  -1.892  22.857  1.00  0.00     0.049 A 
ENDROOT
BRANCH   8   9
HETATM    9  C   UNL     1      23.879  -1.627  21.611  1.00  0.00     0.255 C 
HETATM   10  O   UNL     1      24.953  -1.207  21.504  1.00  0.00    -0.268 OA
HETATM   11  N   UNL     1      22.948  -1.914  20.730  1.00  0.00    -0.320 N 
ATOM     12  HN  UNL     1      22.045  -2.272  21.040  1.00  0.00     0.169 HD
BRANCH  11  13
HETATM   13  C   UNL     1      23.170  -1.747  19.505  1.00  0.00     0.072 A 
HETATM   14  C   UNL     1      22.923  -0.787  18.623  1.00  0.00     0.119 A 
HETATM   15  N   UNL     1      23.004  -0.301  17.452  1.00  0.00    -0.373 N 
HETATM   16  C   UNL     1      23.639  -1.303  16.986  1.00  0.00     0.089 A 
ATOM     17  HN  UNL     1      22.680   0.572  17.036  1.00  0.00     0.164 HD
HETATM   18  C   UNL     1      24.049  -2.317  17.431  1.00  0.00     0.043 A 
HETATM   19  C   UNL     1      23.965  -2.774  18.677  1.00  0.00     0.063 A 
HETATM   20 CL   UNL     1      24.515  -4.111  19.277  1.00  0.00    -0.082 Cl
ENDBRANCH  11  13
ENDBRANCH   8   9
BRANCH   1  21
HETATM   21  C   UNL     1      23.544  -4.254  24.601  1.00  0.00    -0.022 C 
BRANCH  21  22
HETATM   22  N   UNL     1      23.334  -5.319  25.011  1.00  0.00    -0.249 N 
ATOM     23  HN  UNL     1      22.394  -5.488  25.373  1.00  0.00     0.188 HD
BRANCH  22  24
HETATM   24  S   UNL     1      24.371  -6.579  25.075  1.00  0.00     0.233 S 
HETATM   25  C   UNL     1      26.057  -5.736  25.198  1.00  0.00     0.186 C 
HETATM   26  O   UNL     1      24.235  -7.336  26.286  1.00  0.00    -0.205 OA
HETATM   27  O   UNL     1      24.376  -7.379  23.887  1.00  0.00    -0.205 OA
ENDBRANCH  22  24
ENDBRANCH  21  22
ENDBRANCH   1  21
TORSDOF 5
ENDMDL
MODEL 8
REMARK VINA RESULT:    -6.746      2.931      5.477
REMARK INTER + INTRA:          -9.422
REMARK INTER:                  -8.578
REMARK INTRA:                  -0.845
REMARK UNBOUND:                -0.704
REMARK  5 active torsions:
REMARK  status: ('A' for Active; 'I' for Inactive)
REMARK    1  A    between atoms: S_2  and  N_5 
REMARK    2  A    between atoms: N_5  and  C_7 
REMARK    3  A    between atoms: C_7  and  C_8 
REMARK    4  A    between atoms: C_15  and  C_16 
REMARK       I    between atoms: C_16  and  N_18 
REMARK    5  A    between atoms: N_18  and  C_20 
ROOT
HETATM    1  C   UNL     1       7.858  -1.623  22.277  1.00  0.00     0.040 A 
HETATM    2  C   UNL     1       8.843  -1.724  23.165  1.00  0.00     0.066 A 
HETATM    3  C   UNL     1      10.519  -1.755  22.860  1.00  0.00    -0.003 C 
HETATM    4  C   UNL     1      11.316  -1.274  23.486  1.00  0.00    -0.002 C 
HETATM    5  C   UNL     1      11.172  -0.513  24.552  1.00  0.00    -0.001 C 
HETATM    6  C   UNL     1       9.834  -0.205  24.888  1.00  0.00    -0.002 C 
HETATM    7  C   UNL     1       8.960  -0.509  24.434  1.00  0.00    -0.003 C 
HETATM    8  C   UNL     1       8.364  -2.708  23.599  1.00  0.00     0.049 A 
ENDROOT
BRANCH   8   9
HETATM    9  C   UNL     1       7.987  -3.850  24.210  1.00  0.00     0.255 C 
HETATM   10  O   UNL     1       8.210  -4.847  23.667  1.00  0.00    -0.268 OA
HETATM   11  N   UNL     1       7.410  -3.577  25.359  1.00  0.00    -0.320 N 
ATOM     12  HN  UNL     1       7.299  -2.608  25.656  1.00  0.00     0.169 HD
BRANCH  11  13
HETATM   13  C   UNL     1       6.994  -4.509  26.089  1.00  0.00     0.072 A 
HETATM   14  C   UNL     1       7.510  -5.247  27.064  1.00  0.00     0.119 A 
HETATM   15  N   UNL     1       7.409  -6.152  27.950  1.00  0.00    -0.373 N 
HETATM   16  C   UNL     1       6.191  -6.408  27.675  1.00  0.00     0.089 A 
ATOM     17  HN  UNL     1       8.064  -6.535  28.632  1.00  0.00     0.164 HD
HETATM   18  C   UNL     1       5.396  -5.980  26.915  1.00  0.00     0.043 A 
HETATM   19  C   UNL     1       5.537  -5.008  26.020  1.00  0.00     0.063 A 
HETATM   20 CL   UNL     1       4.486  -4.428  25.016  1.00  0.00    -0.082 Cl
ENDBRANCH  11  13
ENDBRANCH   8   9
BRANCH   1  21
HETATM   21  C   UNL     1       7.255  -1.118  21.391  1.00  0.00    -0.022 C 
BRANCH  21  22
HETATM   22  N   UNL     1       6.392  -0.610  20.804  1.00  0.00    -0.249 N 
ATOM     23  HN  UNL     1       5.489  -1.085  20.827  1.00  0.00     0.188 HD
BRANCH  22  24
HETATM   24  S   UNL     1       6.459   0.778  19.946  1.00  0.00     0.233 S 
HETATM   25  C   UNL     1       4.680   0.995  19.348  1.00  0.00     0.186 C 
HETATM   26  O   UNL     1       6.723   1.918  20.776  1.00  0.00    -0.205 OA
HETATM   27  O   UNL     1       7.296   0.696  18.787  1.00  0.00    -0.205 OA
ENDBRANCH  22  24
ENDBRANCH  21  22
ENDBRANCH   1  21
TORSDOF 5
ENDMDL
MODEL 9
REMARK VINA RESULT:    -6.610      4.222      6.628
REMARK INTER + INTRA:          -9.246
REMARK INTER:                  -8.462
REMARK INTRA:                  -0.784
REMARK UNBOUND:                -0.704
REMARK  5 active torsions:
REMARK  status: ('A' for Active; 'I' for Inactive)
REMARK    1  A    between atoms: S_2  and  N_5 
REMARK    2  A    between atoms: N_5  and  C_7 
REMARK    3  A    between atoms: C_7  and  C_8 
REMARK    4  A    between atoms: C_15  and  C_16 
REMARK       I    between atoms: C_16  and  N_18 
REMARK    5  A    between atoms: N_18  and  C_20 
ROOT
HETATM    1  C   UNL     1       8.424  -3.452  24.016  1.00  0.00     0.040 A 
HETATM    2  C   UNL     1       7.364  -4.223  23.789  1.00  0.00     0.066 A 
HETATM    3  C   UNL     1       5.877  -3.768  23.092  1.00  0.00    -0.003 C 
HETATM    4  C   UNL     1       5.258  -4.385  22.388  1.00  0.00    -0.002 C 
HETATM    5  C   UNL     1       5.540  -5.561  21.867  1.00  0.00    -0.001 C 
HETATM    6  C   UNL     1       6.827  -6.058  22.175  1.00  0.00    -0.002 C 
HETATM    7  C   UNL     1       7.562  -5.643  22.767  1.00  0.00    -0.003 C 
HETATM    8  C   UNL     1       7.344  -4.547  24.921  1.00  0.00     0.049 A 
ENDROOT
BRANCH   8   9
HETATM    9  C   UNL     1       7.143  -5.012  26.170  1.00  0.00     0.255 C 
HETATM   10  O   UNL     1       8.072  -5.157  26.844  1.00  0.00    -0.268 OA
HETATM   11  N   UNL     1       5.861  -5.219  26.372  1.00  0.00    -0.320 N 
ATOM     12  HN  UNL     1       5.190  -5.034  25.627  1.00  0.00     0.169 HD
BRANCH  11  13
HETATM   13  C   UNL     1       5.462  -5.645  27.484  1.00  0.00     0.072 A 
HETATM   14  C   UNL     1       5.389  -6.833  28.069  1.00  0.00     0.119 A 
HETATM   15  N   UNL     1       5.108  -7.571  29.065  1.00  0.00    -0.373 N 
HETATM   16  C   UNL     1       4.705  -6.598  29.782  1.00  0.00     0.089 A 
ATOM     17  HN  UNL     1       5.179  -8.575  29.230  1.00  0.00     0.164 HD
HETATM   18  C   UNL     1       4.624  -5.429  29.641  1.00  0.00     0.043 A 
HETATM   19  C   UNL     1       4.958  -4.692  28.586  1.00  0.00     0.063 A 
HETATM   20 CL   UNL     1       4.865  -3.142  28.394  1.00  0.00    -0.082 Cl
ENDBRANCH  11  13
ENDBRANCH   8   9
BRANCH   1  21
HETATM   21  C   UNL     1       9.298  -2.709  23.721  1.00  0.00    -0.022 C 
BRANCH  21  22
HETATM   22  N   UNL     1      10.086  -2.145  23.082  1.00  0.00    -0.249 N 
ATOM     23  HN  UNL     1      10.171  -2.435  22.107  1.00  0.00     0.188 HD
BRANCH  22  24
HETATM   24  S   UNL     1      11.074  -0.938  23.567  1.00  0.00     0.233 S 
HETATM   25  C   UNL     1      10.644   0.467  22.379  1.00  0.00     0.186 C 
HETATM   26  O   UNL     1      10.736  -0.449  24.873  1.00  0.00    -0.205 OA
HETATM   27  O   UNL     1      12.466  -1.234  23.398  1.00  0.00    -0.205 OA
ENDBRANCH  22  24
ENDBRANCH  21  22
ENDBRANCH   1  21
TORSDOF 5
ENDMDL
