REMARK  6 active torsions:
REMARK  status: ('A' for Active; 'I' for Inactive)
REMARK    1  A    between atoms: S_2  and  N_5 
REMARK    2  A    between atoms: N_5  and  C_7 
REMARK    3  A    between atoms: C_7  and  C_8 
REMARK    4  A    between atoms: C_9  and  S_11 
REMARK    5  A    between atoms: C_12  and  C_13 
REMARK       I    between atoms: C_13  and  N_15 
REMARK    6  A    between atoms: N_15  and  C_17 
ROOT
HETATM    1  C   UNL     1       9.303  -1.807  23.487  1.00  0.00     0.037 A 
HETATM    2  C   UNL     1      10.697  -0.960  23.491  1.00  0.00     0.130 A 
HETATM    3  C   UNL     1       9.559  -0.848  22.675  1.00  0.00     0.046 A 
ENDROOT
BRANCH   3   4
HETATM    4  C   UNL     1       9.004  -0.000  21.467  1.00  0.00     0.255 C 
HETATM    5  O   UNL     1       9.623   0.876  20.991  1.00  0.00    -0.268 OA
HETATM    6  N   UNL     1       7.784  -0.453  21.192  1.00  0.00    -0.317 N 
ATOM      7  HN  UNL     1       7.430  -1.236  21.742  1.00  0.00     0.169 HD
BRANCH   6   8
HETATM    8  C   UNL     1       7.023   0.032  20.279  1.00  0.00     0.087 A 
HETATM    9  S   UNL     1       7.380  -0.036  18.645  1.00  0.00    -0.022 SA
HETATM   10  N   UNL     1       6.147   0.727  17.279  1.00  0.00    -0.323 N 
HETATM   11  C   UNL     1       6.000   0.727  18.238  1.00  0.00     0.091 A 
ATOM     12  HN  UNL     1       5.879   0.946  16.320  1.00  0.00     0.174 HD
HETATM   13  C   UNL     1       5.324   0.956  19.417  1.00  0.00     0.041 A 
HETATM   14  C   UNL     1       5.737   0.606  20.528  1.00  0.00     0.041 A 
ENDBRANCH   6   8
ENDBRANCH   3   4
BRANCH   1  15
HETATM   15  C   UNL     1       8.795  -2.762  24.139  1.00  0.00    -0.021 C 
BRANCH  15  16
HETATM   16  N   UNL     1       8.021  -3.446  24.689  1.00  0.00    -0.236 N 
ATOM     17  HN  UNL     1       7.121  -3.551  24.220  1.00  0.00     0.189 HD
BRANCH  16  18
HETATM   18  S   UNL     1       8.171  -4.248  26.084  1.00  0.00     0.327 S 
HETATM   19 CL   UNL     1       6.441  -4.901  26.445  1.00  0.00     0.042 Cl
HETATM   20  O   UNL     1       9.062  -5.367  25.967  1.00  0.00    -0.188 OA
HETATM   21  O   UNL     1       8.411  -3.386  27.214  1.00  0.00    -0.188 OA
ENDBRANCH  16  18
ENDBRANCH  15  16
ENDBRANCH   1  15
BRANCH   2  22
HETATM   22  S   UNL     1      11.864  -2.011  23.002  1.00  0.00    -0.158 SA
HETATM   23  C   UNL     1      12.830  -0.671  23.387  1.00  0.00     0.091 C 
ENDBRANCH   2  22
TORSDOF 6
