MODEL 1
REMARK VINA RESULT:    -5.318      0.000      0.000
REMARK INTER + INTRA:          -7.722
REMARK INTER:                  -8.426
REMARK INTRA:                   0.704
REMARK UNBOUND:                 0.704
REMARK  10 active torsions:
REMARK  status: ('A' for Active; 'I' for Inactive)
REMARK    1  A    between atoms: N_2  and  C_4 
REMARK    2  A    between atoms: C_4  and  C_7 
REMARK    3  A    between atoms: N_5  and  C_12 
REMARK    4  A    between atoms: N_5  and  C_7 
REMARK    5  A    between atoms: C_10  and  S_11 
REMARK    6  A    between atoms: S_11  and  C_12 
REMARK    7  A    between atoms: C_13  and  N_15 
REMARK    8  A    between atoms: N_15  and  C_17 
REMARK    9  A    between atoms: C_17  and  N_24 
REMARK   10  A    between atoms: C_21  and  N_22 
ROOT
HETATM    1  C   UNL     1       7.712  -2.911  23.479  1.00  0.00     0.261 A 
HETATM    2  C   UNL     1       7.956  -3.528  24.507  1.00  0.00     0.199 A 
HETATM    3  O   UNL     1       7.239  -2.593  24.805  1.00  0.00    -0.284 OA
ENDROOT
BRANCH   1   4
HETATM    4  N   UNL     1       8.907  -2.673  22.667  1.00  0.00    -0.351 N 
ATOM      5  HN  UNL     1       9.235  -3.542  22.246  1.00  0.00     0.163 HD
BRANCH   4   6
HETATM    6  C   UNL     1       9.374  -2.068  22.457  1.00  0.00     0.103 C 
BRANCH   6   7
HETATM    7  C   UNL     1      10.726  -1.584  22.790  1.00  0.00     0.099 C 
BRANCH   7   8
HETATM    8  N   UNL     1      11.725  -1.562  23.230  1.00  0.00    -0.402 N 
HETATM    9  C   UNL     1      12.492  -0.593  23.989  1.00  0.00     0.145 C 
ATOM     10  HN  UNL     1      12.240  -2.428  23.068  1.00  0.00     0.158 HD
ENDBRANCH   7   8
ENDBRANCH   6   7
ENDBRANCH   4   6
ENDBRANCH   1   4
BRANCH   1  11
HETATM   11  S   UNL     1       6.408  -3.299  22.168  1.00  0.00    -0.087 SA
BRANCH  11  12
HETATM   12  C   UNL     1       7.079  -4.871  21.970  1.00  0.00     0.097 A 
HETATM   13  C   UNL     1       6.146  -5.598  21.355  1.00  0.00    -0.010 A 
HETATM   14  C   UNL     1       6.561  -6.130  22.040  1.00  0.00    -0.010 A 
ENDBRANCH  11  12
ENDBRANCH   1  11
BRANCH   2  15
HETATM   15  N   UNL     1       8.582  -4.727  24.799  1.00  0.00    -0.285 N 
ATOM     16  HN  UNL     1       9.213  -5.180  24.138  1.00  0.00     0.179 HD
BRANCH  15  17
HETATM   17  C   UNL     1       8.358  -5.168  25.791  1.00  0.00     0.070 C 
BRANCH  17  18
HETATM   18  N   UNL     1       8.535  -5.657  26.985  1.00  0.00    -0.249 N 
HETATM   19  N   UNL     1       7.505  -5.996  27.562  1.00  0.00    -0.276 N 
ATOM     20  HN  UNL     1       7.493  -6.363  28.513  1.00  0.00     0.189 HD
ATOM     21  HN  UNL     1       9.457  -5.751  27.409  1.00  0.00     0.198 HD
BRANCH  19  22
HETATM   22  C   UNL     1       6.438  -5.843  26.844  1.00  0.00     0.136 A 
HETATM   23  N   UNL     1       5.631  -6.133  25.989  1.00  0.00    -0.346 N 
HETATM   24  H   UNL     1       5.715  -6.746  25.207  1.00  0.00     0.167 HD
HETATM   25  C   UNL     1       5.346  -5.210  26.471  1.00  0.00     0.139 A 
ENDBRANCH  19  22
ENDBRANCH  17  18
ENDBRANCH  15  17
ENDBRANCH   2  15
TORSDOF 10
ENDMDL
MODEL 2
REMARK VINA RESULT:    -5.124      4.232      6.355
REMARK INTER + INTRA:          -7.415
REMARK INTER:                  -8.070
REMARK INTRA:                   0.655
REMARK UNBOUND:                 0.704
REMARK  10 active torsions:
REMARK  status: ('A' for Active; 'I' for Inactive)
REMARK    1  A    between atoms: N_2  and  C_4 
REMARK    2  A    between atoms: C_4  and  C_7 
REMARK    3  A    between atoms: N_5  and  C_12 
REMARK    4  A    between atoms: N_5  and  C_7 
REMARK    5  A    between atoms: C_10  and  S_11 
REMARK    6  A    between atoms: S_11  and  C_12 
REMARK    7  A    between atoms: C_13  and  N_15 
REMARK    8  A    between atoms: N_15  and  C_17 
REMARK    9  A    between atoms: C_17  and  N_24 
REMARK   10  A    between atoms: C_21  and  N_22 
ROOT
HETATM    1  C   UNL     1       7.391  -1.387  22.390  1.00  0.00     0.261 A 
HETATM    2  C   UNL     1       6.912  -1.211  21.279  1.00  0.00     0.199 A 
HETATM    3  O   UNL     1       8.031  -0.735  21.273  1.00  0.00    -0.284 OA
ENDROOT
BRANCH   1   4
HETATM    4  N   UNL     1       6.464  -1.035  23.467  1.00  0.00    -0.351 N 
ATOM      5  HN  UNL     1       5.504  -1.259  23.204  1.00  0.00     0.163 HD
BRANCH   4   6
HETATM    6  C   UNL     1       6.487  -0.721  24.194  1.00  0.00     0.103 C 
BRANCH   6   7
HETATM    7  C   UNL     1       7.257   0.324  24.893  1.00  0.00     0.099 C 
BRANCH   7   8
HETATM    8  N   UNL     1       8.110   0.844  25.333  1.00  0.00    -0.402 N 
HETATM    9  C   UNL     1       9.137   1.739  24.833  1.00  0.00     0.145 C 
ATOM     10  HN  UNL     1       8.208   0.658  26.331  1.00  0.00     0.158 HD
ENDBRANCH   7   8
ENDBRANCH   6   7
ENDBRANCH   4   6
ENDBRANCH   1   4
BRANCH   1  11
HETATM   11  S   UNL     1       8.218  -2.945  23.069  1.00  0.00    -0.087 SA
BRANCH  11  12
HETATM   12  C   UNL     1       6.906  -3.892  22.485  1.00  0.00     0.097 A 
HETATM   13  C   UNL     1       7.253  -5.165  22.675  1.00  0.00    -0.010 A 
HETATM   14  C   UNL     1       6.827  -5.079  21.819  1.00  0.00    -0.010 A 
ENDBRANCH  11  12
ENDBRANCH   1  11
BRANCH   2  15
HETATM   15  N   UNL     1       5.762  -1.631  20.635  1.00  0.00    -0.285 N 
ATOM     16  HN  UNL     1       5.120  -2.299  21.060  1.00  0.00     0.179 HD
BRANCH  15  17
HETATM   17  C   UNL     1       5.577  -1.200  19.630  1.00  0.00     0.070 C 
BRANCH  17  18
HETATM   18  N   UNL     1       5.636  -1.021  18.341  1.00  0.00    -0.249 N 
HETATM   19  N   UNL     1       5.273   0.087  17.957  1.00  0.00    -0.276 N 
ATOM     20  HN  UNL     1       5.235   0.353  16.973  1.00  0.00     0.189 HD
ATOM     21  HN  UNL     1       5.958  -1.745  17.700  1.00  0.00     0.198 HD
BRANCH  19  22
HETATM   22  C   UNL     1       4.942   0.885  18.922  1.00  0.00     0.136 A 
HETATM   23  N   UNL     1       4.209   1.358  19.762  1.00  0.00    -0.346 N 
HETATM   24  H   UNL     1       3.215   1.322  19.842  1.00  0.00     0.167 HD
HETATM   25  C   UNL     1       5.165   1.858  19.780  1.00  0.00     0.139 A 
ENDBRANCH  19  22
ENDBRANCH  17  18
ENDBRANCH  15  17
ENDBRANCH   2  15
TORSDOF 10
ENDMDL
MODEL 3
REMARK VINA RESULT:    -5.069      5.874      7.551
REMARK INTER + INTRA:          -7.329
REMARK INTER:                  -8.107
REMARK INTRA:                   0.778
REMARK UNBOUND:                 0.704
REMARK  10 active torsions:
REMARK  status: ('A' for Active; 'I' for Inactive)
REMARK    1  A    between atoms: N_2  and  C_4 
REMARK    2  A    between atoms: C_4  and  C_7 
REMARK    3  A    between atoms: N_5  and  C_12 
REMARK    4  A    between atoms: N_5  and  C_7 
REMARK    5  A    between atoms: C_10  and  S_11 
REMARK    6  A    between atoms: S_11  and  C_12 
REMARK    7  A    between atoms: C_13  and  N_15 
REMARK    8  A    between atoms: N_15  and  C_17 
REMARK    9  A    between atoms: C_17  and  N_24 
REMARK   10  A    between atoms: C_21  and  N_22 
ROOT
HETATM    1  C   UNL     1       8.557   0.762  22.008  1.00  0.00     0.261 A 
HETATM    2  C   UNL     1       7.603   0.997  21.279  1.00  0.00     0.199 A 
HETATM    3  O   UNL     1       8.558   0.759  20.564  1.00  0.00    -0.284 OA
ENDROOT
BRANCH   1   4
HETATM    4  N   UNL     1       8.694   1.737  23.092  1.00  0.00    -0.351 N 
ATOM      5  HN  UNL     1       8.337   1.353  23.967  1.00  0.00     0.163 HD
BRANCH   4   6
HETATM    6  C   UNL     1       8.963   2.474  23.199  1.00  0.00     0.103 C 
BRANCH   6   7
HETATM    7  C   UNL     1      10.271   3.127  23.393  1.00  0.00     0.099 C 
BRANCH   7   8
HETATM    8  N   UNL     1      11.212   3.621  23.149  1.00  0.00    -0.402 N 
HETATM    9  C   UNL     1      11.908   4.801  23.630  1.00  0.00     0.145 C 
ATOM     10  HN  UNL     1      11.725   3.141  22.409  1.00  0.00     0.158 HD
ENDBRANCH   7   8
ENDBRANCH   6   7
ENDBRANCH   4   6
ENDBRANCH   1   4
BRANCH   1  11
HETATM   11  S   UNL     1       8.990  -0.862  22.874  1.00  0.00    -0.087 SA
BRANCH  11  12
HETATM   12  C   UNL     1      10.663  -0.482  22.743  1.00  0.00     0.097 A 
HETATM   13  C   UNL     1      11.312  -1.645  22.797  1.00  0.00    -0.010 A 
HETATM   14  C   UNL     1      11.790  -0.992  23.315  1.00  0.00    -0.010 A 
ENDBRANCH  11  12
ENDBRANCH   1  11
BRANCH   2  15
HETATM   15  N   UNL     1       6.249   1.195  21.479  1.00  0.00    -0.285 N 
ATOM     16  HN  UNL     1       5.787   0.923  22.347  1.00  0.00     0.179 HD
BRANCH  15  17
HETATM   17  C   UNL     1       5.693   1.666  20.643  1.00  0.00     0.070 C 
BRANCH  17  18
HETATM   18  N   UNL     1       4.815   2.385  20.003  1.00  0.00    -0.249 N 
HETATM   19  N   UNL     1       4.733   2.150  18.801  1.00  0.00    -0.276 N 
ATOM     20  HN  UNL     1       4.113   2.660  18.173  1.00  0.00     0.189 HD
ATOM     21  HN  UNL     1       4.240   3.089  20.465  1.00  0.00     0.198 HD
BRANCH  19  22
HETATM   22  C   UNL     1       5.512   1.191  18.408  1.00  0.00     0.136 A 
HETATM   23  N   UNL     1       6.546   0.701  18.013  1.00  0.00    -0.346 N 
HETATM   24  H   UNL     1       7.333   1.127  17.573  1.00  0.00     0.167 HD
HETATM   25  C   UNL     1       5.788  -0.062  18.118  1.00  0.00     0.139 A 
ENDBRANCH  19  22
ENDBRANCH  17  18
ENDBRANCH  15  17
ENDBRANCH   2  15
TORSDOF 10
ENDMDL
MODEL 4
REMARK VINA RESULT:    -5.039      3.866      6.220
REMARK INTER + INTRA:          -7.282
REMARK INTER:                  -8.307
REMARK INTRA:                   1.025
REMARK UNBOUND:                 0.704
REMARK  10 active torsions:
REMARK  status: ('A' for Active; 'I' for Inactive)
REMARK    1  A    between atoms: N_2  and  C_4 
REMARK    2  A    between atoms: C_4  and  C_7 
REMARK    3  A    between atoms: N_5  and  C_12 
REMARK    4  A    between atoms: N_5  and  C_7 
REMARK    5  A    between atoms: C_10  and  S_11 
REMARK    6  A    between atoms: S_11  and  C_12 
REMARK    7  A    between atoms: C_13  and  N_15 
REMARK    8  A    between atoms: N_15  and  C_17 
REMARK    9  A    between atoms: C_17  and  N_24 
REMARK   10  A    between atoms: C_21  and  N_22 
ROOT
HETATM    1  C   UNL     1       6.519  -3.111  22.169  1.00  0.00     0.261 A 
HETATM    2  C   UNL     1       5.818  -2.677  21.266  1.00  0.00     0.199 A 
HETATM    3  O   UNL     1       5.650  -3.881  21.312  1.00  0.00    -0.284 OA
ENDROOT
BRANCH   1   4
HETATM    4  N   UNL     1       7.881  -2.574  22.133  1.00  0.00    -0.351 N 
ATOM      5  HN  UNL     1       8.520  -3.243  21.703  1.00  0.00     0.163 HD
BRANCH   4   6
HETATM    6  C   UNL     1       8.269  -1.918  22.349  1.00  0.00     0.103 C 
BRANCH   6   7
HETATM    7  C   UNL     1       9.561  -1.278  22.042  1.00  0.00     0.099 C 
BRANCH   7   8
HETATM    8  N   UNL     1      10.633  -1.171  21.870  1.00  0.00    -0.402 N 
HETATM    9  C   UNL     1      11.825  -1.313  22.686  1.00  0.00     0.145 C 
ATOM     10  HN  UNL     1      10.849  -0.908  20.908  1.00  0.00     0.158 HD
ENDBRANCH   7   8
ENDBRANCH   6   7
ENDBRANCH   4   6
ENDBRANCH   1   4
BRANCH   1  11
HETATM   11  S   UNL     1       6.149  -3.137  24.022  1.00  0.00    -0.087 SA
BRANCH  11  12
HETATM   12  C   UNL     1       7.082  -4.574  24.185  1.00  0.00     0.097 A 
HETATM   13  C   UNL     1       6.632  -5.186  25.281  1.00  0.00    -0.010 A 
HETATM   14  C   UNL     1       7.591  -5.248  25.255  1.00  0.00    -0.010 A 
ENDBRANCH  11  12
ENDBRANCH   1  11
BRANCH   2  15
HETATM   15  N   UNL     1       5.473  -1.414  20.819  1.00  0.00    -0.285 N 
ATOM     16  HN  UNL     1       5.179  -0.678  21.460  1.00  0.00     0.179 HD
BRANCH  15  17
HETATM   17  C   UNL     1       5.536  -1.247  19.725  1.00  0.00     0.070 C 
BRANCH  17  18
HETATM   18  N   UNL     1       5.638  -1.491  18.450  1.00  0.00    -0.249 N 
HETATM   19  N   UNL     1       5.434  -0.524  17.721  1.00  0.00    -0.276 N 
ATOM     20  HN  UNL     1       5.448  -0.579  16.703  1.00  0.00     0.189 HD
ATOM     21  HN  UNL     1       5.871  -2.414  18.084  1.00  0.00     0.198 HD
BRANCH  19  22
HETATM   22  C   UNL     1       5.198   0.571  18.371  1.00  0.00     0.136 A 
HETATM   23  N   UNL     1       4.510   1.407  18.912  1.00  0.00    -0.346 N 
HETATM   24  H   UNL     1       3.535   1.599  18.817  1.00  0.00     0.167 HD
HETATM   25  C   UNL     1       5.551   1.686  18.974  1.00  0.00     0.139 A 
ENDBRANCH  19  22
ENDBRANCH  17  18
ENDBRANCH  15  17
ENDBRANCH   2  15
TORSDOF 10
ENDMDL
MODEL 5
REMARK VINA RESULT:    -5.024      3.010      5.291
REMARK INTER + INTRA:          -7.257
REMARK INTER:                  -8.091
REMARK INTRA:                   0.834
REMARK UNBOUND:                 0.704
REMARK  10 active torsions:
REMARK  status: ('A' for Active; 'I' for Inactive)
REMARK    1  A    between atoms: N_2  and  C_4 
REMARK    2  A    between atoms: C_4  and  C_7 
REMARK    3  A    between atoms: N_5  and  C_12 
REMARK    4  A    between atoms: N_5  and  C_7 
REMARK    5  A    between atoms: C_10  and  S_11 
REMARK    6  A    between atoms: S_11  and  C_12 
REMARK    7  A    between atoms: C_13  and  N_15 
REMARK    8  A    between atoms: N_15  and  C_17 
REMARK    9  A    between atoms: C_17  and  N_24 
REMARK   10  A    between atoms: C_21  and  N_22 
ROOT
HETATM    1  C   UNL     1       9.224  -1.001  22.270  1.00  0.00     0.261 A 
HETATM    2  C   UNL     1       8.717  -2.105  22.416  1.00  0.00     0.199 A 
HETATM    3  O   UNL     1       9.849  -2.162  22.857  1.00  0.00    -0.284 OA
ENDROOT
BRANCH   1   4
HETATM    4  N   UNL     1       8.998  -0.449  20.933  1.00  0.00    -0.351 N 
ATOM      5  HN  UNL     1       9.768  -0.690  20.310  1.00  0.00     0.163 HD
BRANCH   4   6
HETATM    6  C   UNL     1       8.454  -0.018  20.551  1.00  0.00     0.103 C 
BRANCH   6   7
HETATM    7  C   UNL     1       7.828  -0.010  19.216  1.00  0.00     0.099 C 
BRANCH   7   8
HETATM    8  N   UNL     1       7.050  -0.039  18.451  1.00  0.00    -0.402 N 
HETATM    9  C   UNL     1       5.647   0.326  18.398  1.00  0.00     0.145 C 
ATOM     10  HN  UNL     1       7.390  -0.412  17.564  1.00  0.00     0.158 HD
ENDBRANCH   7   8
ENDBRANCH   6   7
ENDBRANCH   4   6
ENDBRANCH   1   4
BRANCH   1  11
HETATM   11  S   UNL     1       9.031   0.524  23.370  1.00  0.00    -0.087 SA
BRANCH  11  12
HETATM   12  C   UNL     1      10.721   0.825  23.242  1.00  0.00     0.097 A 
HETATM   13  C   UNL     1      11.209   0.732  24.480  1.00  0.00    -0.010 A 
HETATM   14  C   UNL     1      11.622   1.475  24.031  1.00  0.00    -0.010 A 
ENDBRANCH  11  12
ENDBRANCH   1  11
BRANCH   2  15
HETATM   15  N   UNL     1       7.446  -2.625  22.248  1.00  0.00    -0.285 N 
ATOM     16  HN  UNL     1       6.629  -2.025  22.140  1.00  0.00     0.179 HD
BRANCH  15  17
HETATM   17  C   UNL     1       7.366  -3.730  22.237  1.00  0.00     0.070 C 
BRANCH  17  18
HETATM   18  N   UNL     1       7.433  -4.962  21.819  1.00  0.00    -0.249 N 
HETATM   19  N   UNL     1       7.631  -5.796  22.698  1.00  0.00    -0.276 N 
ATOM     20  HN  UNL     1       7.739  -6.792  22.510  1.00  0.00     0.189 HD
ATOM     21  HN  UNL     1       7.328  -5.215  20.837  1.00  0.00     0.198 HD
BRANCH  19  22
HETATM   22  C   UNL     1       7.690  -5.287  23.888  1.00  0.00     0.136 A 
HETATM   23  N   UNL     1       7.249  -4.775  24.893  1.00  0.00    -0.346 N 
HETATM   24  H   UNL     1       6.392  -4.287  25.044  1.00  0.00     0.167 HD
HETATM   25  C   UNL     1       8.316  -4.910  24.982  1.00  0.00     0.139 A 
ENDBRANCH  19  22
ENDBRANCH  17  18
ENDBRANCH  15  17
ENDBRANCH   2  15
TORSDOF 10
ENDMDL
MODEL 6
REMARK VINA RESULT:    -4.949      3.827      7.182
REMARK INTER + INTRA:          -7.139
REMARK INTER:                  -7.676
REMARK INTRA:                   0.537
REMARK UNBOUND:                 0.704
REMARK  10 active torsions:
REMARK  status: ('A' for Active; 'I' for Inactive)
REMARK    1  A    between atoms: N_2  and  C_4 
REMARK    2  A    between atoms: C_4  and  C_7 
REMARK    3  A    between atoms: N_5  and  C_12 
REMARK    4  A    between atoms: N_5  and  C_7 
REMARK    5  A    between atoms: C_10  and  S_11 
REMARK    6  A    between atoms: S_11  and  C_12 
REMARK    7  A    between atoms: C_13  and  N_15 
REMARK    8  A    between atoms: N_15  and  C_17 
REMARK    9  A    between atoms: C_17  and  N_24 
REMARK   10  A    between atoms: C_21  and  N_22 
ROOT
HETATM    1  C   UNL     1       8.120  -0.476  22.854  1.00  0.00     0.261 A 
HETATM    2  C   UNL     1       7.700  -0.107  21.766  1.00  0.00     0.199 A 
HETATM    3  O   UNL     1       6.736  -0.321  22.476  1.00  0.00    -0.284 OA
ENDROOT
BRANCH   1   4
HETATM    4  N   UNL     1       9.170  -1.490  22.739  1.00  0.00    -0.351 N 
ATOM      5  HN  UNL     1       9.796  -1.274  21.963  1.00  0.00     0.163 HD
BRANCH   4   6
HETATM    6  C   UNL     1       9.396  -2.157  23.102  1.00  0.00     0.103 C 
BRANCH   6   7
HETATM    7  C   UNL     1       8.741  -3.290  23.781  1.00  0.00     0.099 C 
BRANCH   7   8
HETATM    8  N   UNL     1       8.037  -4.103  23.966  1.00  0.00    -0.402 N 
HETATM    9  C   UNL     1       7.389  -5.108  23.144  1.00  0.00     0.145 C 
ATOM     10  HN  UNL     1       7.771  -4.172  24.949  1.00  0.00     0.158 HD
ENDBRANCH   7   8
ENDBRANCH   6   7
ENDBRANCH   4   6
ENDBRANCH   1   4
BRANCH   1  11
HETATM   11  S   UNL     1       8.748   0.589  24.284  1.00  0.00    -0.087 SA
BRANCH  11  12
HETATM   12  C   UNL     1       9.929   1.283  23.242  1.00  0.00     0.097 A 
HETATM   13  C   UNL     1      11.046   1.385  23.964  1.00  0.00    -0.010 A 
HETATM   14  C   UNL     1      10.940   2.179  23.432  1.00  0.00    -0.010 A 
ENDBRANCH  11  12
ENDBRANCH   1  11
BRANCH   2  15
HETATM   15  N   UNL     1       8.280   0.402  20.618  1.00  0.00    -0.285 N 
ATOM     16  HN  UNL     1       9.143   0.945  20.646  1.00  0.00     0.179 HD
BRANCH  15  17
HETATM   17  C   UNL     1       7.754   0.188  19.666  1.00  0.00     0.070 C 
BRANCH  17  18
HETATM   18  N   UNL     1       7.554  -0.066  18.404  1.00  0.00    -0.249 N 
HETATM   19  N   UNL     1       6.400   0.103  18.020  1.00  0.00    -0.276 N 
ATOM     20  HN  UNL     1       6.095  -0.090  17.067  1.00  0.00     0.189 HD
ATOM     21  HN  UNL     1       8.299  -0.381  17.783  1.00  0.00     0.198 HD
BRANCH  19  22
HETATM   22  C   UNL     1       5.609   0.549  18.944  1.00  0.00     0.136 A 
HETATM   23  N   UNL     1       4.889   0.469  19.914  1.00  0.00    -0.346 N 
HETATM   24  H   UNL     1       4.425  -0.322  20.308  1.00  0.00     0.167 HD
HETATM   25  C   UNL     1       4.939   1.492  19.571  1.00  0.00     0.139 A 
ENDBRANCH  19  22
ENDBRANCH  17  18
ENDBRANCH  15  17
ENDBRANCH   2  15
TORSDOF 10
ENDMDL
MODEL 7
REMARK VINA RESULT:    -4.921      5.344      7.807
REMARK INTER + INTRA:          -7.094
REMARK INTER:                  -7.821
REMARK INTRA:                   0.727
REMARK UNBOUND:                 0.704
REMARK  10 active torsions:
REMARK  status: ('A' for Active; 'I' for Inactive)
REMARK    1  A    between atoms: N_2  and  C_4 
REMARK    2  A    between atoms: C_4  and  C_7 
REMARK    3  A    between atoms: N_5  and  C_12 
REMARK    4  A    between atoms: N_5  and  C_7 
REMARK    5  A    between atoms: C_10  and  S_11 
REMARK    6  A    between atoms: S_11  and  C_12 
REMARK    7  A    between atoms: C_13  and  N_15 
REMARK    8  A    between atoms: N_15  and  C_17 
REMARK    9  A    between atoms: C_17  and  N_24 
REMARK   10  A    between atoms: C_21  and  N_22 
ROOT
HETATM    1  C   UNL     1      10.517   2.935  23.860  1.00  0.00     0.261 A 
HETATM    2  C   UNL     1      10.748   1.944  23.180  1.00  0.00     0.199 A 
HETATM    3  O   UNL     1      10.941   1.643  24.343  1.00  0.00    -0.284 OA
ENDROOT
BRANCH   1   4
HETATM    4  N   UNL     1      11.133   4.148  23.318  1.00  0.00    -0.351 N 
ATOM      5  HN  UNL     1      10.479   4.645  22.714  1.00  0.00     0.163 HD
BRANCH   4   6
HETATM    6  C   UNL     1      11.825   4.532  23.356  1.00  0.00     0.103 C 
BRANCH   6   7
HETATM    7  C   UNL     1      12.339   5.771  23.969  1.00  0.00     0.099 C 
BRANCH   7   8
HETATM    8  N   UNL     1      12.426   6.608  24.663  1.00  0.00    -0.402 N 
HETATM    9  C   UNL     1      11.986   6.866  26.022  1.00  0.00     0.145 C 
ATOM     10  HN  UNL     1      12.938   7.394  24.262  1.00  0.00     0.158 HD
ENDBRANCH   7   8
ENDBRANCH   6   7
ENDBRANCH   4   6
ENDBRANCH   1   4
BRANCH   1  11
HETATM   11  S   UNL     1       8.841   3.572  24.458  1.00  0.00    -0.087 SA
BRANCH  11  12
HETATM   12  C   UNL     1       8.234   3.476  22.851  1.00  0.00     0.097 A 
HETATM   13  C   UNL     1       7.498   4.573  22.666  1.00  0.00    -0.010 A 
HETATM   14  C   UNL     1       7.049   3.820  22.271  1.00  0.00    -0.010 A 
ENDBRANCH  11  12
ENDBRANCH   1  11
BRANCH   2  15
HETATM   15  N   UNL     1      10.585   1.617  21.846  1.00  0.00    -0.285 N 
ATOM     16  HN  UNL     1      10.810   2.274  21.099  1.00  0.00     0.179 HD
BRANCH  15  17
HETATM   17  C   UNL     1      10.197   0.600  21.635  1.00  0.00     0.070 C 
BRANCH  17  18
HETATM   18  N   UNL     1       9.508  -0.362  21.091  1.00  0.00    -0.249 N 
HETATM   19  N   UNL     1       9.797  -1.489  21.482  1.00  0.00    -0.276 N 
ATOM     20  HN  UNL     1       9.361  -2.336  21.118  1.00  0.00     0.189 HD
ATOM     21  HN  UNL     1       8.783  -0.192  20.393  1.00  0.00     0.198 HD
BRANCH  19  22
HETATM   22  C   UNL     1      10.708  -1.497  22.402  1.00  0.00     0.136 A 
HETATM   23  N   UNL     1      11.144  -1.378  23.526  1.00  0.00    -0.346 N 
HETATM   24  H   UNL     1      10.765  -0.900  24.316  1.00  0.00     0.167 HD
HETATM   25  C   UNL     1      11.938  -1.649  22.846  1.00  0.00     0.139 A 
ENDBRANCH  19  22
ENDBRANCH  17  18
ENDBRANCH  15  17
ENDBRANCH   2  15
TORSDOF 10
ENDMDL
MODEL 8
REMARK VINA RESULT:    -4.904     27.701     29.887
REMARK INTER + INTRA:          -7.067
REMARK INTER:                  -7.816
REMARK INTRA:                   0.749
REMARK UNBOUND:                 0.704
REMARK  10 active torsions:
REMARK  status: ('A' for Active; 'I' for Inactive)
REMARK    1  A    between atoms: N_2  and  C_4 
REMARK    2  A    between atoms: C_4  and  C_7 
REMARK    3  A    between atoms: N_5  and  C_12 
REMARK    4  A    between atoms: N_5  and  C_7 
REMARK    5  A    between atoms: C_10  and  S_11 
REMARK    6  A    between atoms: S_11  and  C_12 
REMARK    7  A    between atoms: C_13  and  N_15 
REMARK    8  A    between atoms: N_15  and  C_17 
REMARK    9  A    between atoms: C_17  and  N_24 
REMARK   10  A    between atoms: C_21  and  N_22 
ROOT
HETATM    1  C   UNL     1       9.268  18.150   3.434  1.00  0.00     0.261 A 
HETATM    2  C   UNL     1       9.101  16.961   3.202  1.00  0.00     0.199 A 
HETATM    3  O   UNL     1       8.257  17.297   4.010  1.00  0.00    -0.284 OA
ENDROOT
BRANCH   1   4
HETATM    4  N   UNL     1      10.672  18.486   3.678  1.00  0.00    -0.351 N 
ATOM      5  HN  UNL     1      11.282  17.961   3.050  1.00  0.00     0.163 HD
BRANCH   4   6
HETATM    6  C   UNL     1      11.099  18.955   4.153  1.00  0.00     0.103 C 
BRANCH   6   7
HETATM    7  C   UNL     1      12.351  18.854   4.925  1.00  0.00     0.099 C 
BRANCH   7   8
HETATM    8  N   UNL     1      13.022  18.675   5.767  1.00  0.00    -0.402 N 
HETATM    9  C   UNL     1      13.382  19.406   6.968  1.00  0.00     0.145 C 
ATOM     10  HN  UNL     1      13.511  17.783   5.692  1.00  0.00     0.158 HD
ENDBRANCH   7   8
ENDBRANCH   6   7
ENDBRANCH   4   6
ENDBRANCH   1   4
BRANCH   1  11
HETATM   11  S   UNL     1       8.674  19.631   2.421  1.00  0.00    -0.087 SA
BRANCH  11  12
HETATM   12  C   UNL     1       9.188  18.846   0.979  1.00  0.00     0.097 A 
HETATM   13  C   UNL     1       8.593  19.491  -0.026  1.00  0.00    -0.010 A 
HETATM   14  C   UNL     1       8.570  18.545  -0.199  1.00  0.00    -0.010 A 
ENDBRANCH  11  12
ENDBRANCH   1  11
BRANCH   2  15
HETATM   15  N   UNL     1       9.633  16.060   2.297  1.00  0.00    -0.285 N 
ATOM     16  HN  UNL     1       9.953  16.350   1.373  1.00  0.00     0.179 HD
BRANCH  15  17
HETATM   17  C   UNL     1       9.692  15.005   2.632  1.00  0.00     0.070 C 
BRANCH  17  18
HETATM   18  N   UNL     1      10.189  13.872   3.038  1.00  0.00    -0.249 N 
HETATM   19  N   UNL     1       9.358  13.037   3.384  1.00  0.00    -0.276 N 
ATOM     20  HN  UNL     1       9.606  12.121   3.755  1.00  0.00     0.189 HD
ATOM     21  HN  UNL     1      11.192  13.691   3.066  1.00  0.00     0.198 HD
BRANCH  19  22
HETATM   22  C   UNL     1       8.134  13.435   3.234  1.00  0.00     0.136 A 
HETATM   23  N   UNL     1       7.128  13.702   2.614  1.00  0.00    -0.346 N 
HETATM   24  H   UNL     1       7.003  13.896   1.644  1.00  0.00     0.167 HD
HETATM   25  C   UNL     1       6.976  13.886   3.667  1.00  0.00     0.139 A 
ENDBRANCH  19  22
ENDBRANCH  17  18
ENDBRANCH  15  17
ENDBRANCH   2  15
TORSDOF 10
ENDMDL
MODEL 9
REMARK VINA RESULT:    -4.687      3.838      6.266
REMARK INTER + INTRA:          -6.723
REMARK INTER:                  -7.451
REMARK INTRA:                   0.728
REMARK UNBOUND:                 0.704
REMARK  10 active torsions:
REMARK  status: ('A' for Active; 'I' for Inactive)
REMARK    1  A    between atoms: N_2  and  C_4 
REMARK    2  A    between atoms: C_4  and  C_7 
REMARK    3  A    between atoms: N_5  and  C_12 
REMARK    4  A    between atoms: N_5  and  C_7 
REMARK    5  A    between atoms: C_10  and  S_11 
REMARK    6  A    between atoms: S_11  and  C_12 
REMARK    7  A    between atoms: C_13  and  N_15 
REMARK    8  A    between atoms: N_15  and  C_17 
REMARK    9  A    between atoms: C_17  and  N_24 
REMARK   10  A    between atoms: C_21  and  N_22 
ROOT
HETATM    1  C   UNL     1       8.020   0.604  21.316  1.00  0.00     0.261 A 
HETATM    2  C   UNL     1       8.801   1.065  22.137  1.00  0.00     0.199 A 
HETATM    3  O   UNL     1       9.207   1.375  21.033  1.00  0.00    -0.284 OA
ENDROOT
BRANCH   1   4
HETATM    4  N   UNL     1       7.672  -0.791  21.590  1.00  0.00    -0.351 N 
ATOM      5  HN  UNL     1       8.285  -1.423  21.075  1.00  0.00     0.163 HD
BRANCH   4   6
HETATM    6  C   UNL     1       7.147  -1.201  22.021  1.00  0.00     0.103 C 
BRANCH   6   7
HETATM    7  C   UNL     1       6.266  -2.366  21.823  1.00  0.00     0.099 C 
BRANCH   7   8
HETATM    8  N   UNL     1       5.474  -3.092  22.012  1.00  0.00    -0.402 N 
HETATM    9  C   UNL     1       4.903  -3.706  23.196  1.00  0.00     0.145 C 
ATOM     10  HN  UNL     1       5.030  -3.416  21.152  1.00  0.00     0.158 HD
ENDBRANCH   7   8
ENDBRANCH   6   7
ENDBRANCH   4   6
ENDBRANCH   1   4
BRANCH   1  11
HETATM   11  S   UNL     1       6.367   1.324  20.747  1.00  0.00    -0.087 SA
BRANCH  11  12
HETATM   12  C   UNL     1       6.619   0.655  19.182  1.00  0.00     0.097 A 
HETATM   13  C   UNL     1       5.467   0.802  18.527  1.00  0.00    -0.010 A 
HETATM   14  C   UNL     1       5.834  -0.064  18.331  1.00  0.00    -0.010 A 
ENDBRANCH  11  12
ENDBRANCH   1  11
BRANCH   2  15
HETATM   15  N   UNL     1       8.816   1.171  23.516  1.00  0.00    -0.285 N 
ATOM     16  HN  UNL     1       8.003   1.491  24.041  1.00  0.00     0.179 HD
BRANCH  15  17
HETATM   17  C   UNL     1       9.763   0.888  24.020  1.00  0.00     0.070 C 
BRANCH  17  18
HETATM   18  N   UNL     1      10.771   0.916  24.844  1.00  0.00    -0.249 N 
HETATM   19  N   UNL     1      11.526  -0.049  24.770  1.00  0.00    -0.276 N 
ATOM     20  HN  UNL     1      12.335  -0.174  25.377  1.00  0.00     0.189 HD
ATOM     21  HN  UNL     1      10.921   1.681  25.502  1.00  0.00     0.198 HD
BRANCH  19  22
HETATM   22  C   UNL     1      11.195  -0.892  23.844  1.00  0.00     0.136 A 
HETATM   23  N   UNL     1      10.566  -1.805  23.356  1.00  0.00    -0.346 N 
HETATM   24  H   UNL     1      10.021  -2.517  23.792  1.00  0.00     0.167 HD
HETATM   25  C   UNL     1      11.299  -1.439  22.652  1.00  0.00     0.139 A 
ENDBRANCH  19  22
ENDBRANCH  17  18
ENDBRANCH  15  17
ENDBRANCH   2  15
TORSDOF 10
ENDMDL
