stable:False satoms:18 tatoms:24 sratio:0.75
  -OEChem-07092417273D

 24 25  0     1  0  0  0  0  0999 V2000
    8.8070    2.0588   23.3162 C   0  0  0  0  0  0  0  0  0  0  0  0
    9.6901   -2.0230   20.8474 C   0  0  0  0  0  0  0  0  0  0  0  0
    6.7593    2.4947   23.7646 H   0  0  0  0  0  0  0  0  0  0  0  0
   11.4430    1.0534   23.3655 Br  0  0  0  0  0  0  0  0  0  0  0  0
    7.5931   -1.8983   22.2757 C   0  0  0  0  0  0  0  0  0  0  0  0
    7.4656    1.7769   23.4044 C   0  0  0  0  0  0  0  0  0  0  0  0
    9.4811   -3.9100   24.7386 O   0  0  0  0  0  0  0  0  0  0  0  0
    5.2073    0.1093   23.0457 Br  0  0  0  0  0  0  0  0  0  0  0  0
    7.9007   -0.4669   22.5706 C   0  0  0  0  0  0  0  0  0  0  0  0
    9.6886   -3.0351   23.5710 S   0  0  0  0  0  0  0  0  0  0  0  0
   10.7536   -2.0538   21.0421 H   0  0  0  0  0  0  0  0  0  0  0  0
    9.2088    3.0447   23.4813 H   0  0  0  0  0  0  0  0  0  0  0  0
    9.4430   -1.0019   20.6061 H   0  0  0  0  0  0  0  0  0  0  0  0
    9.1811   -0.1164   22.5230 N   0  0  0  0  0  0  0  0  0  0  0  0
    9.1076   -3.9733   22.2255 C   0  0  0  0  0  0  0  0  0  0  0  0
   10.6879   -2.0028   23.8978 O   0  0  0  0  0  0  0  0  0  0  0  0
    8.1960   -4.5372   21.9987 H   0  0  0  0  0  0  0  0  0  0  0  0
    9.9248   -4.6615   21.9834 H   0  0  0  0  0  0  0  0  0  0  0  0
    7.0216    0.5107   23.0029 C   0  0  0  0  0  0  0  0  0  0  0  0
    7.0902   -2.3225   23.1405 H   0  0  0  0  0  0  0  0  0  0  0  0
    6.9685   -2.0970   21.3937 H   0  0  0  0  0  0  0  0  0  0  0  0
    8.9669   -2.5724   22.0726 C   0  0  2  0  0  0  0  0  0  0  0  0
    9.6263    0.9780   23.0176 C   0  0  0  0  0  0  0  0  0  0  0  0
    9.3718   -2.6445   20.0119 H   0  0  0  0  0  0  0  0  0  0  0  0
  2 24  1  0  0  0  0
  2 13  1  0  0  0  0
  2 11  1  0  0  0  0
  2 22  1  0  0  0  0
  5 21  1  0  0  0  0
 15 18  1  0  0  0  0
 15 17  1  0  0  0  0
 15 22  1  0  0  0  0
  5 22  1  0  0  0  0
 10 22  1  0  0  0  0
 10 15  1  0  0  0  0
  5  9  1  0  0  0  0
  5 20  1  0  0  0  0
  9 14  2  0  0  0  0
 14 23  1  0  0  0  0
  9 19  1  0  0  0  0
  8 19  1  0  0  0  0
  6 19  2  0  0  0  0
  1 23  2  0  0  0  0
  4 23  1  0  0  0  0
  1  6  1  0  0  0  0
  1 12  1  0  0  0  0
  3  6  1  0  0  0  0
 10 16  2  0  0  0  0
  7 10  2  0  0  0  0
M  END
> <Shapegauss>
-107.700531

$$$$
