stable:False satoms:18 tatoms:24 sratio:0.75
  -OEChem-08052415303D

 24 25  0     1  0  0  0  0  0999 V2000
   12.1561    0.6414   24.2819 C   0  0  0  0  0  0  0  0  0  0  0  0
    7.6161   -0.9306   23.6082 C   0  0  0  0  0  0  0  0  0  0  0  0
   13.7309   -0.7602   23.9083 H   0  0  0  0  0  0  0  0  0  0  0  0
   10.1325    2.5887   24.0084 Br  0  0  0  0  0  0  0  0  0  0  0  0
    9.4899   -2.0346   22.2956 C   0  0  0  0  0  0  0  0  0  0  0  0
   12.6883   -0.5383   23.8217 C   0  0  0  0  0  0  0  0  0  0  0  0
    8.3552    0.0438   19.4549 O   0  0  0  0  0  0  0  0  0  0  0  0
   12.4965   -3.1072   22.6497 Br  0  0  0  0  0  0  0  0  0  0  0  0
   10.4807   -1.2138   23.0540 C   0  0  0  0  0  0  0  0  0  0  0  0
    8.2751   -0.0333   20.9244 S   0  0  0  0  0  0  0  0  0  0  0  0
    7.1492    0.0451   23.6112 H   0  0  0  0  0  0  0  0  0  0  0  0
   12.7224    1.3505   24.8626 H   0  0  0  0  0  0  0  0  0  0  0  0
    8.3347   -0.9388   24.4117 H   0  0  0  0  0  0  0  0  0  0  0  0
   10.0479   -0.0471   23.5190 N   0  0  0  0  0  0  0  0  0  0  0  0
    7.2419   -1.4009   21.2248 C   0  0  0  0  0  0  0  0  0  0  0  0
    8.6499    1.2662   21.5091 O   0  0  0  0  0  0  0  0  0  0  0  0
    7.1997   -2.4412   20.8836 H   0  0  0  0  0  0  0  0  0  0  0  0
    6.2225   -1.0242   21.0871 H   0  0  0  0  0  0  0  0  0  0  0  0
   11.8291   -1.4718   23.2283 C   0  0  0  0  0  0  0  0  0  0  0  0
    9.8839   -2.2053   21.2974 H   0  0  0  0  0  0  0  0  0  0  0  0
    9.2279   -3.0119   22.7244 H   0  0  0  0  0  0  0  0  0  0  0  0
    8.2158   -1.1660   22.2258 C   0  0  2  0  0  0  0  0  0  0  0  0
   10.8331    0.8768   23.9317 C   0  0  0  0  0  0  0  0  0  0  0  0
    6.9257   -1.7556   23.7762 H   0  0  0  0  0  0  0  0  0  0  0  0
  2 24  1  0  0  0  0
  2 13  1  0  0  0  0
  2 11  1  0  0  0  0
  2 22  1  0  0  0  0
  5 21  1  0  0  0  0
 15 18  1  0  0  0  0
 15 17  1  0  0  0  0
 15 22  1  0  0  0  0
  5 22  1  0  0  0  0
 10 22  1  0  0  0  0
 10 15  1  0  0  0  0
  5  9  1  0  0  0  0
  5 20  1  0  0  0  0
  9 14  2  0  0  0  0
 14 23  1  0  0  0  0
  9 19  1  0  0  0  0
  8 19  1  0  0  0  0
  6 19  2  0  0  0  0
  1 23  2  0  0  0  0
  4 23  1  0  0  0  0
  1  6  1  0  0  0  0
  1 12  1  0  0  0  0
  3  6  1  0  0  0  0
 10 16  2  0  0  0  0
  7 10  2  0  0  0  0
M  END
> <Chemgauss4>
-6.220407

$$$$
