stable:False satoms:18 tatoms:24 sratio:0.75
  -OEChem-08052415303D

 24 25  0     1  0  0  0  0  0999 V2000
  -11.4076    1.5762  -24.4415 C   0  0  0  0  0  0  0  0  0  0  0  0
   -8.5073   -2.1130  -25.6718 C   0  0  0  0  0  0  0  0  0  0  0  0
  -13.2619    1.0755  -23.4956 H   0  0  0  0  0  0  0  0  0  0  0  0
   -8.6988    2.1694  -24.9635 Br  0  0  0  0  0  0  0  0  0  0  0  0
  -10.1257   -2.4338  -23.7403 C   0  0  0  0  0  0  0  0  0  0  0  0
  -12.3045    0.7352  -23.8294 C   0  0  0  0  0  0  0  0  0  0  0  0
   -7.1946   -1.8888  -21.5520 O   0  0  0  0  0  0  0  0  0  0  0  0
  -13.1535   -1.7928  -22.8817 Br  0  0  0  0  0  0  0  0  0  0  0  0
  -10.7021   -1.0853  -24.0228 C   0  0  0  0  0  0  0  0  0  0  0  0
   -7.6559   -1.6543  -22.9319 S   0  0  0  0  0  0  0  0  0  0  0  0
   -7.6207   -1.5174  -25.8426 H   0  0  0  0  0  0  0  0  0  0  0  0
  -11.6562    2.5831  -24.7331 H   0  0  0  0  0  0  0  0  0  0  0  0
   -9.3331   -1.5853  -26.1204 H   0  0  0  0  0  0  0  0  0  0  0  0
   -9.8908   -0.2057  -24.5996 N   0  0  0  0  0  0  0  0  0  0  0  0
   -7.6880   -3.2404  -23.6470 C   0  0  0  0  0  0  0  0  0  0  0  0
   -7.4394   -0.2422  -23.2926 O   0  0  0  0  0  0  0  0  0  0  0  0
   -8.1031   -4.2162  -23.3713 H   0  0  0  0  0  0  0  0  0  0  0  0
   -6.6486   -3.4507  -23.9216 H   0  0  0  0  0  0  0  0  0  0  0  0
  -11.9452   -0.6063  -23.6476 C   0  0  0  0  0  0  0  0  0  0  0  0
  -10.1961   -2.6158  -22.6714 H   0  0  0  0  0  0  0  0  0  0  0  0
  -10.5887   -3.2861  -24.2568 H   0  0  0  0  0  0  0  0  0  0  0  0
   -8.6461   -2.3379  -24.1698 C   0  0  2  0  0  0  0  0  0  0  0  0
  -10.1387    1.0501  -24.6457 C   0  0  0  0  0  0  0  0  0  0  0  0
   -8.4701   -3.1056  -26.1179 H   0  0  0  0  0  0  0  0  0  0  0  0
  2 24  1  0  0  0  0
  2 13  1  0  0  0  0
  2 11  1  0  0  0  0
  2 22  1  0  0  0  0
  5 21  1  0  0  0  0
 15 18  1  0  0  0  0
 15 17  1  0  0  0  0
 15 22  1  0  0  0  0
  5 22  1  0  0  0  0
 10 22  1  0  0  0  0
 10 15  1  0  0  0  0
  5  9  1  0  0  0  0
  5 20  1  0  0  0  0
  9 14  2  0  0  0  0
 14 23  1  0  0  0  0
  9 19  1  0  0  0  0
  8 19  1  0  0  0  0
  6 19  2  0  0  0  0
  1 23  2  0  0  0  0
  4 23  1  0  0  0  0
  1  6  1  0  0  0  0
  1 12  1  0  0  0  0
  3  6  1  0  0  0  0
 10 16  2  0  0  0  0
  7 10  2  0  0  0  0
M  END
> <Chemgauss4>
-6.195496

$$$$
