MODEL 1
REMARK VINA RESULT:    -7.477      0.000      0.000
REMARK INTER + INTRA:         -11.111
REMARK INTER:                 -10.099
REMARK INTRA:                  -1.011
REMARK UNBOUND:                -1.011
REMARK  6 active torsions:
REMARK  status: ('A' for Active; 'I' for Inactive)
REMARK    1  A    between atoms: S_2  and  N_5 
REMARK    2  A    between atoms: N_5  and  C_7 
REMARK    3  A    between atoms: C_8  and  C_9 
REMARK    4  A    between atoms: C_9  and  C_15 
REMARK    5  A    between atoms: C_15  and  C_16 
REMARK       I    between atoms: C_16  and  N_18 
REMARK    6  A    between atoms: N_18  and  C_20 
ROOT
HETATM    1  C   UNL     1       9.499  -1.552  23.315  1.00  0.00     0.076 C 
HETATM    2  C   UNL     1       9.140  -0.588  24.745  1.00  0.00     0.003 C 
HETATM    3  C   UNL     1       9.877   0.051  25.145  1.00  0.00    -0.002 C 
HETATM    4  C   UNL     1      11.246   0.289  24.876  1.00  0.00    -0.001 C 
HETATM    5  C   UNL     1      11.723  -0.515  23.856  1.00  0.00    -0.002 C 
HETATM    6  C   UNL     1      11.187  -1.251  23.209  1.00  0.00     0.003 C 
ENDROOT
BRANCH   1   7
HETATM    7  C   UNL     1       9.029  -2.666  23.088  1.00  0.00     0.021 C 
HETATM    8  C   UNL     1       8.057  -3.441  22.969  1.00  0.00     0.098 C 
BRANCH   8   9
HETATM    9  N   UNL     1       7.524  -4.397  22.496  1.00  0.00    -0.296 N 
ATOM     10  HN  UNL     1       8.057  -5.265  22.465  1.00  0.00     0.177 HD
BRANCH   9  11
HETATM   11  S   UNL     1       6.011  -4.422  21.894  1.00  0.00     0.226 S 
HETATM   12  C   UNL     1       4.965  -5.085  23.166  1.00  0.00     0.186 C 
HETATM   13  O   UNL     1       5.469  -3.099  21.634  1.00  0.00    -0.206 OA
HETATM   14  O   UNL     1       5.907  -5.266  20.761  1.00  0.00    -0.206 OA
ENDBRANCH   9  11
ENDBRANCH   8   9
ENDBRANCH   1   7
BRANCH   1  15
HETATM   15  C   UNL     1       9.022  -0.982  22.344  1.00  0.00    -0.061 C 
BRANCH  15  16
HETATM   16  C   UNL     1       8.524  -0.382  21.278  1.00  0.00     0.290 C 
HETATM   17  O   UNL     1       9.232   0.282  20.686  1.00  0.00    -0.259 OA
HETATM   18  N   UNL     1       7.228  -0.663  21.115  1.00  0.00    -0.315 N 
ATOM     19  HN  UNL     1       6.732  -1.214  21.816  1.00  0.00     0.170 HD
BRANCH  18  20
HETATM   20  C   UNL     1       6.630  -0.253  20.112  1.00  0.00     0.057 A 
HETATM   21  C   UNL     1       6.335  -0.563  18.897  1.00  0.00     0.117 A 
HETATM   22  N   UNL     1       5.804  -0.395  17.779  1.00  0.00    -0.373 N 
HETATM   23  C   UNL     1       5.332   0.813  17.976  1.00  0.00     0.088 A 
ATOM     24  HN  UNL     1       5.754  -1.007  16.965  1.00  0.00     0.164 HD
HETATM   25  C   UNL     1       5.385   1.539  19.110  1.00  0.00     0.026 A 
HETATM   26  C   UNL     1       5.904   1.250  20.232  1.00  0.00    -0.033 A 
HETATM   27  C   UNL     1       5.932   2.010  21.449  1.00  0.00     0.050 C 
ENDBRANCH  18  20
ENDBRANCH  15  16
ENDBRANCH   1  15
TORSDOF 6
ENDMDL
MODEL 2
REMARK VINA RESULT:    -7.153      2.630      5.803
REMARK INTER + INTRA:         -10.673
REMARK INTER:                  -9.749
REMARK INTRA:                  -0.924
REMARK UNBOUND:                -1.011
REMARK  6 active torsions:
REMARK  status: ('A' for Active; 'I' for Inactive)
REMARK    1  A    between atoms: S_2  and  N_5 
REMARK    2  A    between atoms: N_5  and  C_7 
REMARK    3  A    between atoms: C_8  and  C_9 
REMARK    4  A    between atoms: C_9  and  C_15 
REMARK    5  A    between atoms: C_15  and  C_16 
REMARK       I    between atoms: C_16  and  N_18 
REMARK    6  A    between atoms: N_18  and  C_20 
ROOT
HETATM    1  C   UNL     1      10.289  -0.813  23.294  1.00  0.00     0.076 C 
HETATM    2  C   UNL     1      11.751  -1.708  22.887  1.00  0.00     0.003 C 
HETATM    3  C   UNL     1      12.673  -1.428  23.314  1.00  0.00    -0.002 C 
HETATM    4  C   UNL     1      13.114  -0.356  24.127  1.00  0.00    -0.001 C 
HETATM    5  C   UNL     1      12.092   0.531  24.416  1.00  0.00    -0.002 C 
HETATM    6  C   UNL     1      11.007   0.490  24.154  1.00  0.00     0.003 C 
ENDROOT
BRANCH   1   7
HETATM    7  C   UNL     1       9.345  -0.634  22.527  1.00  0.00     0.021 C 
HETATM    8  C   UNL     1       8.366  -1.058  21.876  1.00  0.00     0.098 C 
BRANCH   8   9
HETATM    9  N   UNL     1       7.293  -0.918  21.377  1.00  0.00    -0.296 N 
ATOM     10  HN  UNL     1       6.534  -1.504  21.722  1.00  0.00     0.177 HD
BRANCH   9  11
HETATM   11  S   UNL     1       6.945   0.138  20.187  1.00  0.00     0.226 S 
HETATM   12  C   UNL     1       5.566  -0.533  19.294  1.00  0.00     0.186 C 
HETATM   13  O   UNL     1       6.470   1.423  20.674  1.00  0.00    -0.206 OA
HETATM   14  O   UNL     1       8.022   0.285  19.279  1.00  0.00    -0.206 OA
ENDBRANCH   9  11
ENDBRANCH   8   9
ENDBRANCH   1   7
BRANCH   1  15
HETATM   15  C   UNL     1       9.680  -1.447  24.144  1.00  0.00    -0.061 C 
BRANCH  15  16
HETATM   16  C   UNL     1       9.010  -2.147  25.041  1.00  0.00     0.290 C 
HETATM   17  O   UNL     1       8.675  -1.594  25.977  1.00  0.00    -0.259 OA
HETATM   18  N   UNL     1       8.876  -3.423  24.670  1.00  0.00    -0.315 N 
ATOM     19  HN  UNL     1       9.334  -3.760  23.823  1.00  0.00     0.170 HD
BRANCH  18  20
HETATM   20  C   UNL     1       8.194  -4.195  25.355  1.00  0.00     0.057 A 
HETATM   21  C   UNL     1       8.254  -4.998  26.362  1.00  0.00     0.117 A 
HETATM   22  N   UNL     1       7.799  -5.804  27.200  1.00  0.00    -0.373 N 
HETATM   23  C   UNL     1       6.579  -5.900  26.724  1.00  0.00     0.088 A 
ATOM     24  HN  UNL     1       8.239  -6.250  28.005  1.00  0.00     0.164 HD
HETATM   25  C   UNL     1       6.050  -5.226  25.685  1.00  0.00     0.026 A 
HETATM   26  C   UNL     1       6.587  -4.368  24.919  1.00  0.00    -0.033 A 
HETATM   27  C   UNL     1       6.014  -3.626  23.833  1.00  0.00     0.050 C 
ENDBRANCH  18  20
ENDBRANCH  15  16
ENDBRANCH   1  15
TORSDOF 6
ENDMDL
MODEL 3
REMARK VINA RESULT:    -6.879      2.126      5.079
REMARK INTER + INTRA:         -10.303
REMARK INTER:                  -9.415
REMARK INTRA:                  -0.888
REMARK UNBOUND:                -1.011
REMARK  6 active torsions:
REMARK  status: ('A' for Active; 'I' for Inactive)
REMARK    1  A    between atoms: S_2  and  N_5 
REMARK    2  A    between atoms: N_5  and  C_7 
REMARK    3  A    between atoms: C_8  and  C_9 
REMARK    4  A    between atoms: C_9  and  C_15 
REMARK    5  A    between atoms: C_15  and  C_16 
REMARK       I    between atoms: C_16  and  N_18 
REMARK    6  A    between atoms: N_18  and  C_20 
ROOT
HETATM    1  C   UNL     1       9.414  -0.407  22.178  1.00  0.00     0.076 C 
HETATM    2  C   UNL     1      10.948  -1.268  22.274  1.00  0.00     0.003 C 
HETATM    3  C   UNL     1      11.545  -1.181  23.139  1.00  0.00    -0.002 C 
HETATM    4  C   UNL     1      11.488  -0.401  24.318  1.00  0.00    -0.001 C 
HETATM    5  C   UNL     1      10.398   0.451  24.325  1.00  0.00    -0.002 C 
HETATM    6  C   UNL     1       9.566   0.562  23.588  1.00  0.00     0.003 C 
ENDROOT
BRANCH   1   7
HETATM    7  C   UNL     1       8.928   0.040  21.140  1.00  0.00     0.021 C 
HETATM    8  C   UNL     1       8.258  -0.101  20.095  1.00  0.00     0.098 C 
BRANCH   8   9
HETATM    9  N   UNL     1       7.538   0.316  19.242  1.00  0.00    -0.296 N 
ATOM     10  HN  UNL     1       7.921   1.011  18.602  1.00  0.00     0.177 HD
BRANCH   9  11
HETATM   11  S   UNL     1       5.990  -0.137  19.020  1.00  0.00     0.226 S 
HETATM   12  C   UNL     1       4.983   1.273  19.404  1.00  0.00     0.186 C 
HETATM   13  O   UNL     1       5.670  -0.443  17.635  1.00  0.00    -0.206 OA
HETATM   14  O   UNL     1       5.617  -1.190  19.891  1.00  0.00    -0.206 OA
ENDBRANCH   9  11
ENDBRANCH   8   9
ENDBRANCH   1   7
BRANCH   1  15
HETATM   15  C   UNL     1       8.518  -1.198  22.441  1.00  0.00    -0.061 C 
BRANCH  15  16
HETATM   16  C   UNL     1       7.568  -2.062  22.746  1.00  0.00     0.290 C 
HETATM   17  O   UNL     1       6.588  -1.632  23.131  1.00  0.00    -0.259 OA
HETATM   18  N   UNL     1       7.970  -3.322  22.560  1.00  0.00    -0.315 N 
ATOM     19  HN  UNL     1       8.935  -3.516  22.293  1.00  0.00     0.170 HD
BRANCH  18  20
HETATM   20  C   UNL     1       7.169  -4.253  22.713  1.00  0.00     0.057 A 
HETATM   21  C   UNL     1       6.353  -5.018  22.074  1.00  0.00     0.117 A 
HETATM   22  N   UNL     1       5.522  -5.942  21.952  1.00  0.00    -0.373 N 
HETATM   23  C   UNL     1       5.401  -6.252  23.222  1.00  0.00     0.088 A 
ATOM     24  HN  UNL     1       5.075  -6.335  21.124  1.00  0.00     0.164 HD
HETATM   25  C   UNL     1       6.076  -5.727  24.262  1.00  0.00     0.026 A 
HETATM   26  C   UNL     1       6.961  -4.816  24.275  1.00  0.00    -0.033 A 
HETATM   27  C   UNL     1       7.703  -4.279  25.379  1.00  0.00     0.050 C 
ENDBRANCH  18  20
ENDBRANCH  15  16
ENDBRANCH   1  15
TORSDOF 6
ENDMDL
MODEL 4
REMARK VINA RESULT:    -6.599      2.522      6.137
REMARK INTER + INTRA:          -9.925
REMARK INTER:                  -9.191
REMARK INTRA:                  -0.734
REMARK UNBOUND:                -1.011
REMARK  6 active torsions:
REMARK  status: ('A' for Active; 'I' for Inactive)
REMARK    1  A    between atoms: S_2  and  N_5 
REMARK    2  A    between atoms: N_5  and  C_7 
REMARK    3  A    between atoms: C_8  and  C_9 
REMARK    4  A    between atoms: C_9  and  C_15 
REMARK    5  A    between atoms: C_15  and  C_16 
REMARK       I    between atoms: C_16  and  N_18 
REMARK    6  A    between atoms: N_18  and  C_20 
ROOT
HETATM    1  C   UNL     1       7.246  -0.058  20.852  1.00  0.00     0.076 C 
HETATM    2  C   UNL     1       6.463   1.479  21.210  1.00  0.00     0.003 C 
HETATM    3  C   UNL     1       5.614   1.776  20.660  1.00  0.00    -0.002 C 
HETATM    4  C   UNL     1       4.927   1.269  19.531  1.00  0.00    -0.001 C 
HETATM    5  C   UNL     1       5.520   0.122  19.034  1.00  0.00    -0.002 C 
HETATM    6  C   UNL     1       6.392  -0.462  19.416  1.00  0.00     0.003 C 
ENDROOT
BRANCH   1   7
HETATM    7  C   UNL     1       8.452  -0.270  20.963  1.00  0.00     0.021 C 
HETATM    8  C   UNL     1       9.600   0.086  21.305  1.00  0.00     0.098 C 
BRANCH   8   9
HETATM    9  N   UNL     1      10.701  -0.147  21.697  1.00  0.00    -0.296 N 
ATOM     10  HN  UNL     1      11.467   0.397  21.298  1.00  0.00     0.177 HD
BRANCH   9  11
HETATM   11  S   UNL     1      11.079  -1.265  22.818  1.00  0.00     0.226 S 
HETATM   12  C   UNL     1      11.220  -0.410  24.368  1.00  0.00     0.186 C 
HETATM   13  O   UNL     1      10.025  -2.241  23.040  1.00  0.00    -0.206 OA
HETATM   14  O   UNL     1      12.323  -1.886  22.549  1.00  0.00    -0.206 OA
ENDBRANCH   9  11
ENDBRANCH   8   9
ENDBRANCH   1   7
BRANCH   1  15
HETATM   15  C   UNL     1       6.868  -0.877  21.677  1.00  0.00    -0.061 C 
BRANCH  15  16
HETATM   16  C   UNL     1       6.484  -1.776  22.566  1.00  0.00     0.290 C 
HETATM   17  O   UNL     1       6.824  -1.613  23.639  1.00  0.00    -0.259 OA
HETATM   18  N   UNL     1       5.768  -2.752  22.001  1.00  0.00    -0.315 N 
ATOM     19  HN  UNL     1       5.644  -2.775  20.989  1.00  0.00     0.170 HD
BRANCH  18  20
HETATM   20  C   UNL     1       5.254  -3.627  22.709  1.00  0.00     0.057 A 
HETATM   21  C   UNL     1       4.403  -3.808  23.660  1.00  0.00     0.117 A 
HETATM   22  N   UNL     1       3.737  -4.479  24.476  1.00  0.00    -0.373 N 
HETATM   23  C   UNL     1       4.266  -5.654  24.225  1.00  0.00     0.088 A 
ATOM     24  HN  UNL     1       3.009  -4.201  25.132  1.00  0.00     0.164 HD
HETATM   25  C   UNL     1       5.188  -5.956  23.291  1.00  0.00     0.026 A 
HETATM   26  C   UNL     1       5.771  -5.198  22.455  1.00  0.00    -0.033 A 
HETATM   27  C   UNL     1       6.729  -5.525  21.439  1.00  0.00     0.050 C 
ENDBRANCH  18  20
ENDBRANCH  15  16
ENDBRANCH   1  15
TORSDOF 6
ENDMDL
MODEL 5
REMARK VINA RESULT:    -6.427      2.505      6.124
REMARK INTER + INTRA:          -9.693
REMARK INTER:                  -8.480
REMARK INTRA:                  -1.212
REMARK UNBOUND:                -1.011
REMARK  6 active torsions:
REMARK  status: ('A' for Active; 'I' for Inactive)
REMARK    1  A    between atoms: S_2  and  N_5 
REMARK    2  A    between atoms: N_5  and  C_7 
REMARK    3  A    between atoms: C_8  and  C_9 
REMARK    4  A    between atoms: C_9  and  C_15 
REMARK    5  A    between atoms: C_15  and  C_16 
REMARK       I    between atoms: C_16  and  N_18 
REMARK    6  A    between atoms: N_18  and  C_20 
ROOT
HETATM    1  C   UNL     1       7.519   0.327  20.651  1.00  0.00     0.076 C 
HETATM    2  C   UNL     1       6.375   1.599  21.075  1.00  0.00     0.003 C 
HETATM    3  C   UNL     1       5.597   1.847  20.408  1.00  0.00    -0.002 C 
HETATM    4  C   UNL     1       5.251   1.468  19.089  1.00  0.00    -0.001 C 
HETATM    5  C   UNL     1       6.155   0.567  18.554  1.00  0.00    -0.002 C 
HETATM    6  C   UNL     1       7.047   0.080  19.018  1.00  0.00     0.003 C 
ENDROOT
BRANCH   1   7
HETATM    7  C   UNL     1       8.701   0.312  20.988  1.00  0.00     0.021 C 
HETATM    8  C   UNL     1       9.632   0.678  21.737  1.00  0.00     0.098 C 
BRANCH   8   9
HETATM    9  N   UNL     1      10.676   0.499  22.283  1.00  0.00    -0.296 N 
ATOM     10  HN  UNL     1      11.420   1.173  22.107  1.00  0.00     0.177 HD
BRANCH   9  11
HETATM   11  S   UNL     1      11.006  -0.740  23.288  1.00  0.00     0.226 S 
HETATM   12  C   UNL     1      10.077  -0.455  24.774  1.00  0.00     0.186 C 
HETATM   13  O   UNL     1      10.526  -2.023  22.802  1.00  0.00    -0.206 OA
HETATM   14  O   UNL     1      12.379  -0.788  23.634  1.00  0.00    -0.206 OA
ENDBRANCH   9  11
ENDBRANCH   8   9
ENDBRANCH   1   7
BRANCH   1  15
HETATM   15  C   UNL     1       7.179  -0.696  21.230  1.00  0.00    -0.061 C 
BRANCH  15  16
HETATM   16  C   UNL     1       6.790  -1.802  21.837  1.00  0.00     0.290 C 
HETATM   17  O   UNL     1       5.999  -2.425  21.308  1.00  0.00    -0.259 OA
HETATM   18  N   UNL     1       7.405  -1.961  23.012  1.00  0.00    -0.315 N 
ATOM     19  HN  UNL     1       8.026  -1.234  23.366  1.00  0.00     0.170 HD
BRANCH  18  20
HETATM   20  C   UNL     1       7.221  -2.994  23.668  1.00  0.00     0.057 A 
HETATM   21  C   UNL     1       7.641  -4.204  23.815  1.00  0.00     0.117 A 
HETATM   22  N   UNL     1       7.671  -5.340  24.331  1.00  0.00    -0.373 N 
HETATM   23  C   UNL     1       6.652  -5.202  25.147  1.00  0.00     0.088 A 
ATOM     24  HN  UNL     1       8.294  -6.131  24.169  1.00  0.00     0.164 HD
HETATM   25  C   UNL     1       5.911  -4.096  25.351  1.00  0.00     0.026 A 
HETATM   26  C   UNL     1       5.999  -2.951  24.810  1.00  0.00    -0.033 A 
HETATM   27  C   UNL     1       5.230  -1.764  25.052  1.00  0.00     0.050 C 
ENDBRANCH  18  20
ENDBRANCH  15  16
ENDBRANCH   1  15
TORSDOF 6
ENDMDL
MODEL 6
REMARK VINA RESULT:    -6.378     14.795     16.186
REMARK INTER + INTRA:          -9.626
REMARK INTER:                  -8.824
REMARK INTRA:                  -0.803
REMARK UNBOUND:                -1.011
REMARK  6 active torsions:
REMARK  status: ('A' for Active; 'I' for Inactive)
REMARK    1  A    between atoms: S_2  and  N_5 
REMARK    2  A    between atoms: N_5  and  C_7 
REMARK    3  A    between atoms: C_8  and  C_9 
REMARK    4  A    between atoms: C_9  and  C_15 
REMARK    5  A    between atoms: C_15  and  C_16 
REMARK       I    between atoms: C_16  and  N_18 
REMARK    6  A    between atoms: N_18  and  C_20 
ROOT
HETATM    1  C   UNL     1      23.189  -1.585  23.702  1.00  0.00     0.076 C 
HETATM    2  C   UNL     1      21.670  -1.264  24.536  1.00  0.00     0.003 C 
HETATM    3  C   UNL     1      21.458  -0.291  24.882  1.00  0.00    -0.002 C 
HETATM    4  C   UNL     1      22.180   0.923  24.957  1.00  0.00    -0.001 C 
HETATM    5  C   UNL     1      23.468   0.793  24.468  1.00  0.00    -0.002 C 
HETATM    6  C   UNL     1      23.973  -0.083  23.993  1.00  0.00     0.003 C 
ENDROOT
BRANCH   1   7
HETATM    7  C   UNL     1      23.802  -2.649  23.753  1.00  0.00     0.021 C 
HETATM    8  C   UNL     1      23.871  -3.860  24.053  1.00  0.00     0.098 C 
BRANCH   8   9
HETATM    9  N   UNL     1      24.285  -4.965  23.884  1.00  0.00    -0.296 N 
ATOM     10  HN  UNL     1      24.689  -5.181  22.973  1.00  0.00     0.177 HD
BRANCH   9  11
HETATM   11  S   UNL     1      24.256  -6.156  24.994  1.00  0.00     0.226 S 
HETATM   12  C   UNL     1      25.917  -6.339  25.593  1.00  0.00     0.186 C 
HETATM   13  O   UNL     1      23.480  -5.825  26.177  1.00  0.00    -0.206 OA
HETATM   14  O   UNL     1      23.857  -7.393  24.431  1.00  0.00    -0.206 OA
ENDBRANCH   9  11
ENDBRANCH   8   9
ENDBRANCH   1   7
BRANCH   1  15
HETATM   15  C   UNL     1      22.968  -1.590  22.499  1.00  0.00    -0.061 C 
BRANCH  15  16
HETATM   16  C   UNL     1      22.701  -1.605  21.206  1.00  0.00     0.290 C 
HETATM   17  O   UNL     1      21.631  -1.845  20.906  1.00  0.00    -0.259 OA
HETATM   18  N   UNL     1      23.791  -1.351  20.476  1.00  0.00    -0.315 N 
ATOM     19  HN  UNL     1      24.698  -1.251  20.930  1.00  0.00     0.170 HD
BRANCH  18  20
HETATM   20  C   UNL     1      23.696  -1.238  19.248  1.00  0.00     0.057 A 
HETATM   21  C   UNL     1      23.401  -0.398  18.315  1.00  0.00     0.117 A 
HETATM   22  N   UNL     1      23.246  -0.020  17.135  1.00  0.00    -0.373 N 
HETATM   23  C   UNL     1      23.474  -1.168  16.540  1.00  0.00     0.088 A 
ATOM     24  HN  UNL     1      23.015   0.896  16.753  1.00  0.00     0.164 HD
HETATM   25  C   UNL     1      23.838  -2.330  17.114  1.00  0.00     0.026 A 
HETATM   26  C   UNL     1      24.032  -2.603  18.339  1.00  0.00    -0.033 A 
HETATM   27  C   UNL     1      24.452  -3.832  18.946  1.00  0.00     0.050 C 
ENDBRANCH  18  20
ENDBRANCH  15  16
ENDBRANCH   1  15
TORSDOF 6
ENDMDL
MODEL 7
REMARK VINA RESULT:    -6.364      3.915      6.152
REMARK INTER + INTRA:          -9.608
REMARK INTER:                  -9.054
REMARK INTRA:                  -0.554
REMARK UNBOUND:                -1.011
REMARK  6 active torsions:
REMARK  status: ('A' for Active; 'I' for Inactive)
REMARK    1  A    between atoms: S_2  and  N_5 
REMARK    2  A    between atoms: N_5  and  C_7 
REMARK    3  A    between atoms: C_8  and  C_9 
REMARK    4  A    between atoms: C_9  and  C_15 
REMARK    5  A    between atoms: C_15  and  C_16 
REMARK       I    between atoms: C_16  and  N_18 
REMARK    6  A    between atoms: N_18  and  C_20 
ROOT
HETATM    1  C   UNL     1       7.102  -4.287  23.701  1.00  0.00     0.076 C 
HETATM    2  C   UNL     1       7.597  -5.748  22.850  1.00  0.00     0.003 C 
HETATM    3  C   UNL     1       7.131  -6.009  21.942  1.00  0.00    -0.002 C 
HETATM    4  C   UNL     1       6.035  -5.508  21.200  1.00  0.00    -0.001 C 
HETATM    5  C   UNL     1       5.435  -4.429  21.825  1.00  0.00    -0.002 C 
HETATM    6  C   UNL     1       5.718  -3.890  22.762  1.00  0.00     0.003 C 
ENDROOT
BRANCH   1   7
HETATM    7  C   UNL     1       7.108  -4.155  24.923  1.00  0.00     0.021 C 
HETATM    8  C   UNL     1       6.528  -4.174  26.030  1.00  0.00     0.098 C 
BRANCH   8   9
HETATM    9  N   UNL     1       6.518  -4.338  27.210  1.00  0.00    -0.296 N 
ATOM     10  HN  UNL     1       6.713  -3.529  27.800  1.00  0.00     0.177 HD
BRANCH   9  11
HETATM   11  S   UNL     1       6.217  -5.754  27.955  1.00  0.00     0.226 S 
HETATM   12  C   UNL     1       5.051  -5.414  29.250  1.00  0.00     0.186 C 
HETATM   13  O   UNL     1       5.541  -6.722  27.106  1.00  0.00    -0.206 OA
HETATM   14  O   UNL     1       7.382  -6.298  28.549  1.00  0.00    -0.206 OA
ENDBRANCH   9  11
ENDBRANCH   8   9
ENDBRANCH   1   7
BRANCH   1  15
HETATM   15  C   UNL     1       7.911  -3.406  23.446  1.00  0.00    -0.061 C 
BRANCH  15  16
HETATM   16  C   UNL     1       8.790  -2.452  23.198  1.00  0.00     0.290 C 
HETATM   17  O   UNL     1       8.814  -2.040  22.138  1.00  0.00    -0.259 OA
HETATM   18  N   UNL     1       9.523  -2.165  24.278  1.00  0.00    -0.315 N 
ATOM     19  HN  UNL     1       9.416  -2.717  25.129  1.00  0.00     0.170 HD
BRANCH  18  20
HETATM   20  C   UNL     1      10.331  -1.229  24.242  1.00  0.00     0.057 A 
HETATM   21  C   UNL     1      11.555  -0.942  23.960  1.00  0.00     0.117 A 
HETATM   22  N   UNL     1      12.542  -0.190  23.822  1.00  0.00    -0.373 N 
HETATM   23  C   UNL     1      12.000   0.915  24.280  1.00  0.00     0.088 A 
ATOM     24  HN  UNL     1      13.479  -0.375  23.465  1.00  0.00     0.164 HD
HETATM   25  C   UNL     1      10.727   1.099  24.679  1.00  0.00     0.026 A 
HETATM   26  C   UNL     1       9.766   0.270  24.726  1.00  0.00    -0.033 A 
HETATM   27  C   UNL     1       8.402   0.474  25.120  1.00  0.00     0.050 C 
ENDBRANCH  18  20
ENDBRANCH  15  16
ENDBRANCH   1  15
TORSDOF 6
ENDMDL
MODEL 8
REMARK VINA RESULT:    -6.292      3.391      6.222
REMARK INTER + INTRA:          -9.511
REMARK INTER:                  -8.727
REMARK INTRA:                  -0.784
REMARK UNBOUND:                -1.011
REMARK  6 active torsions:
REMARK  status: ('A' for Active; 'I' for Inactive)
REMARK    1  A    between atoms: S_2  and  N_5 
REMARK    2  A    between atoms: N_5  and  C_7 
REMARK    3  A    between atoms: C_8  and  C_9 
REMARK    4  A    between atoms: C_9  and  C_15 
REMARK    5  A    between atoms: C_15  and  C_16 
REMARK       I    between atoms: C_16  and  N_18 
REMARK    6  A    between atoms: N_18  and  C_20 
ROOT
HETATM    1  C   UNL     1       9.924  -0.716  23.505  1.00  0.00     0.076 C 
HETATM    2  C   UNL     1      11.357  -1.579  22.952  1.00  0.00     0.003 C 
HETATM    3  C   UNL     1      12.308  -1.305  23.316  1.00  0.00    -0.002 C 
HETATM    4  C   UNL     1      12.803  -0.260  24.132  1.00  0.00    -0.001 C 
HETATM    5  C   UNL     1      11.800   0.605  24.533  1.00  0.00    -0.002 C 
HETATM    6  C   UNL     1      10.698   0.561  24.356  1.00  0.00     0.003 C 
ENDROOT
BRANCH   1   7
HETATM    7  C   UNL     1       8.921  -0.518  22.822  1.00  0.00     0.021 C 
HETATM    8  C   UNL     1       7.737  -0.139  22.699  1.00  0.00     0.098 C 
BRANCH   8   9
HETATM    9  N   UNL     1       6.843   0.333  22.068  1.00  0.00    -0.296 N 
ATOM     10  HN  UNL     1       6.348  -0.281  21.421  1.00  0.00     0.177 HD
BRANCH   9  11
HETATM   11  S   UNL     1       6.350   1.882  22.159  1.00  0.00     0.226 S 
HETATM   12  C   UNL     1       7.815   2.885  22.195  1.00  0.00     0.186 C 
HETATM   13  O   UNL     1       5.633   2.332  20.977  1.00  0.00    -0.206 OA
HETATM   14  O   UNL     1       5.619   2.135  23.346  1.00  0.00    -0.206 OA
ENDBRANCH   9  11
ENDBRANCH   8   9
ENDBRANCH   1   7
BRANCH   1  15
HETATM   15  C   UNL     1       9.390  -1.388  24.376  1.00  0.00    -0.061 C 
BRANCH  15  16
HETATM   16  C   UNL     1       8.796  -2.127  25.295  1.00  0.00     0.290 C 
HETATM   17  O   UNL     1       8.559  -1.621  26.286  1.00  0.00    -0.259 OA
HETATM   18  N   UNL     1       8.609  -3.381  24.873  1.00  0.00    -0.315 N 
ATOM     19  HN  UNL     1       8.980  -3.677  23.971  1.00  0.00     0.170 HD
BRANCH  18  20
HETATM   20  C   UNL     1       7.983  -4.181  25.580  1.00  0.00     0.057 A 
HETATM   21  C   UNL     1       8.123  -5.023  26.545  1.00  0.00     0.117 A 
HETATM   22  N   UNL     1       7.736  -5.863  27.385  1.00  0.00    -0.373 N 
HETATM   23  C   UNL     1       6.482  -5.942  27.005  1.00  0.00     0.088 A 
ATOM     24  HN  UNL     1       8.238  -6.339  28.133  1.00  0.00     0.164 HD
HETATM   25  C   UNL     1       5.871  -5.229  26.039  1.00  0.00     0.026 A 
HETATM   26  C   UNL     1       6.346  -4.339  25.267  1.00  0.00    -0.033 A 
HETATM   27  C   UNL     1       5.689  -3.557  24.261  1.00  0.00     0.050 C 
ENDBRANCH  18  20
ENDBRANCH  15  16
ENDBRANCH   1  15
TORSDOF 6
ENDMDL
MODEL 9
REMARK VINA RESULT:    -6.120     22.981     26.197
REMARK INTER + INTRA:          -9.278
REMARK INTER:                  -8.425
REMARK INTRA:                  -0.854
REMARK UNBOUND:                -1.011
REMARK  6 active torsions:
REMARK  status: ('A' for Active; 'I' for Inactive)
REMARK    1  A    between atoms: S_2  and  N_5 
REMARK    2  A    between atoms: N_5  and  C_7 
REMARK    3  A    between atoms: C_8  and  C_9 
REMARK    4  A    between atoms: C_9  and  C_15 
REMARK    5  A    between atoms: C_15  and  C_16 
REMARK       I    between atoms: C_16  and  N_18 
REMARK    6  A    between atoms: N_18  and  C_20 
ROOT
HETATM    1  C   UNL     1       8.285  16.905   1.803  1.00  0.00     0.076 C 
HETATM    2  C   UNL     1       9.081  17.626   0.406  1.00  0.00     0.003 C 
HETATM    3  C   UNL     1       8.882  18.628   0.149  1.00  0.00    -0.002 C 
HETATM    4  C   UNL     1       7.980  19.618   0.607  1.00  0.00    -0.001 C 
HETATM    5  C   UNL     1       7.168  19.149   1.624  1.00  0.00    -0.002 C 
HETATM    6  C   UNL     1       7.164  18.161   2.146  1.00  0.00     0.003 C 
ENDROOT
BRANCH   1   7
HETATM    7  C   UNL     1       7.969  15.720   1.892  1.00  0.00     0.021 C 
HETATM    8  C   UNL     1       8.255  14.504   1.853  1.00  0.00     0.098 C 
BRANCH   8   9
HETATM    9  N   UNL     1       8.093  13.373   2.193  1.00  0.00    -0.296 N 
ATOM     10  HN  UNL     1       8.074  12.661   1.464  1.00  0.00     0.177 HD
BRANCH   9  11
HETATM   11  S   UNL     1       7.900  12.878   3.733  1.00  0.00     0.226 S 
HETATM   12  C   UNL     1       6.185  12.459   3.924  1.00  0.00     0.186 C 
HETATM   13  O   UNL     1       8.609  11.647   4.037  1.00  0.00    -0.206 OA
HETATM   14  O   UNL     1       8.204  13.904   4.660  1.00  0.00    -0.206 OA
ENDBRANCH   9  11
ENDBRANCH   8   9
ENDBRANCH   1   7
BRANCH   1  15
HETATM   15  C   UNL     1       9.071  16.927   2.740  1.00  0.00    -0.061 C 
BRANCH  15  16
HETATM   16  C   UNL     1       9.936  16.931   3.738  1.00  0.00     0.290 C 
HETATM   17  O   UNL     1      10.664  16.059   3.789  1.00  0.00    -0.259 OA
HETATM   18  N   UNL     1       9.760  17.987   4.537  1.00  0.00    -0.315 N 
ATOM     19  HN  UNL     1       8.979  18.624   4.378  1.00  0.00     0.170 HD
BRANCH  18  20
HETATM   20  C   UNL     1      10.547  18.191   5.470  1.00  0.00     0.057 A 
HETATM   21  C   UNL     1      10.795  17.867   6.692  1.00  0.00     0.117 A 
HETATM   22  N   UNL     1      11.436  17.882   7.763  1.00  0.00    -0.373 N 
HETATM   23  C   UNL     1      12.323  18.793   7.437  1.00  0.00     0.088 A 
ATOM     24  HN  UNL     1      11.310  17.352   8.625  1.00  0.00     0.164 HD
HETATM   25  C   UNL     1      12.465  19.409   6.248  1.00  0.00     0.026 A 
HETATM   26  C   UNL     1      11.788  19.278   5.182  1.00  0.00    -0.033 A 
HETATM   27  C   UNL     1      11.960  19.910   3.906  1.00  0.00     0.050 C 
ENDBRANCH  18  20
ENDBRANCH  15  16
ENDBRANCH   1  15
TORSDOF 6
ENDMDL
