stable:False satoms:7 tatoms:24 sratio:0.2916666666666667
  -OEChem-07092417513D

 24 24  0     1  0  0  0  0  0999 V2000
    6.6288   -4.8521   26.4324 C   0  0  0  0  0  0  0  0  0  0  0  0
    8.1991   -4.2997   26.1116 S   0  0  0  0  0  0  0  0  0  0  0  0
    9.0640   -5.4472   26.0488 O   0  0  0  0  0  0  0  0  0  0  0  0
    8.5861   -3.4182   27.1669 O   0  0  0  0  0  0  0  0  0  0  0  0
    8.1064   -3.5631   24.6770 N   0  0  0  0  0  0  0  0  0  0  0  0
    8.9390   -2.9367   24.1427 C   0  0  0  0  0  0  0  0  0  0  0  0
    9.4079   -1.9593   23.4839 C   0  0  0  0  0  0  0  0  0  0  0  0
   10.2983   -1.1071   23.2558 C   0  0  2  0  0  0  0  0  0  0  0  0
   11.0171   -0.0268   24.3035 C   0  0  0  0  0  0  0  0  0  0  0  0
   12.0926    0.2743   24.2313 C   0  0  0  0  0  0  0  0  0  0  0  0
   13.1299   -0.1183   23.5123 C   0  0  0  0  0  0  0  0  0  0  0  0
   12.7334   -1.3277   22.6406 C   0  0  0  0  0  0  0  0  0  0  0  0
   11.8211   -1.7722   22.5204 C   0  0  0  0  0  0  0  0  0  0  0  0
    9.7597   -0.5649   22.3440 C   0  0  0  0  0  0  0  0  0  0  0  0
    9.0650    0.0910   21.3726 C   0  0  0  0  0  0  0  0  0  0  0  0
    9.5213    1.0541   20.9693 O   0  0  0  0  0  0  0  0  0  0  0  0
    7.9509   -0.5491   21.0906 N   0  0  0  0  0  0  0  0  0  0  0  0
    7.1984   -0.1144   20.1630 C   0  0  0  0  0  0  0  0  0  0  0  0
    7.2261   -0.0426   18.8612 C   0  0  0  0  0  0  0  0  0  0  0  0
    6.7730    0.2889   17.7741 N   0  0  0  0  0  0  0  0  0  0  0  0
    5.6544    0.8913   18.1917 C   0  0  0  0  0  0  0  0  0  0  0  0
    5.2529    0.9836   19.4312 C   0  0  0  0  0  0  0  0  0  0  0  0
    5.8250    0.5641   20.5432 C   0  0  0  0  0  0  0  0  0  0  0  0
    5.3334    0.6620   22.0286 C   0  0  0  0  0  0  0  0  0  0  0  0
 20 21  2  0  0  0  0
 19 20  1  0  0  0  0
 21 22  1  0  0  0  0
 18 19  2  0  0  0  0
 22 23  2  0  0  0  0
 18 23  1  0  0  0  0
 17 18  1  0  0  0  0
 23 24  1  0  0  0  0
 15 16  2  0  0  0  0
 15 17  1  0  0  0  0
 14 15  1  0  0  0  0
  8 14  1  0  0  0  0
 12 13  2  0  0  0  0
 11 12  1  0  0  0  0
  7  8  1  0  0  0  0
  8  9  1  0  0  0  0
  6  7  2  3  0  0  0
 10 11  1  0  0  0  0
  5  6  1  0  0  0  0
  9 10  2  0  0  0  0
  2  5  1  0  0  0  0
  2  3  2  0  0  0  0
  1  2  1  0  0  0  0
  2  4  2  0  0  0  0
M  END
> <Shapegauss>
-285.488068

$$$$
