REMARK  10 active torsions:
REMARK  status: ('A' for Active; 'I' for Inactive)
REMARK    1  A    between atoms: S_2  and  N_5 
REMARK    2  A    between atoms: N_5  and  C_7 
REMARK    3  A    between atoms: C_8  and  C_9 
REMARK    4  A    between atoms: C_9  and  C_15 
REMARK    5  A    between atoms: C_9  and  C_10 
REMARK    6  A    between atoms: C_10  and  C_11 
REMARK    7  A    between atoms: C_11  and  C_12 
REMARK    8  A    between atoms: C_12  and  C_13 
REMARK    9  A    between atoms: C_15  and  C_16 
REMARK       I    between atoms: C_16  and  N_18 
REMARK   10  A    between atoms: N_18  and  C_20 
ROOT
HETATM    1  C   UNL     1      10.298  -1.107  23.256  1.00  0.00     0.108 C 
ENDROOT
BRANCH   1   2
HETATM    2  C   UNL     1       9.408  -1.959  23.484  1.00  0.00     0.011 C 
HETATM    3  C   UNL     1       8.939  -2.937  24.143  1.00  0.00     0.097 C 
BRANCH   3   4
HETATM    4  N   UNL     1       8.106  -3.563  24.677  1.00  0.00    -0.296 N 
ATOM      5  HN  UNL     1       7.220  -3.653  24.179  1.00  0.00     0.177 HD
BRANCH   4   6
HETATM    6  S   UNL     1       8.199  -4.300  26.112  1.00  0.00     0.226 S 
HETATM    7  C   UNL     1       6.629  -4.852  26.432  1.00  0.00     0.186 C 
HETATM    8  O   UNL     1       9.064  -5.447  26.049  1.00  0.00    -0.206 OA
HETATM    9  O   UNL     1       8.586  -3.418  27.167  1.00  0.00    -0.206 OA
ENDBRANCH   4   6
ENDBRANCH   3   4
ENDBRANCH   1   2
BRANCH   1  10
HETATM   10  C   UNL     1       9.760  -0.565  22.344  1.00  0.00    -0.071 C 
BRANCH  10  11
HETATM   11  C   UNL     1       9.065   0.091  21.373  1.00  0.00     0.289 C 
HETATM   12  O   UNL     1       9.521   1.054  20.969  1.00  0.00    -0.259 OA
HETATM   13  N   UNL     1       7.951  -0.549  21.091  1.00  0.00    -0.315 N 
ATOM     14  HN  UNL     1       7.693  -1.387  21.612  1.00  0.00     0.170 HD
BRANCH  13  15
HETATM   15  C   UNL     1       7.198  -0.114  20.163  1.00  0.00     0.057 A 
HETATM   16  C   UNL     1       7.226  -0.043  18.861  1.00  0.00     0.117 A 
HETATM   17  N   UNL     1       6.773   0.289  17.774  1.00  0.00    -0.373 N 
HETATM   18  C   UNL     1       5.654   0.891  18.192  1.00  0.00     0.088 A 
ATOM     19  HN  UNL     1       7.139   0.149  16.832  1.00  0.00     0.164 HD
HETATM   20  C   UNL     1       5.253   0.984  19.431  1.00  0.00     0.026 A 
HETATM   21  C   UNL     1       5.825   0.564  20.543  1.00  0.00    -0.033 A 
HETATM   22  C   UNL     1       5.333   0.662  22.029  1.00  0.00     0.050 C 
ENDBRANCH  13  15
ENDBRANCH  10  11
ENDBRANCH   1  10
BRANCH   1  23
HETATM   23  C   UNL     1      11.017  -0.027  24.303  1.00  0.00    -0.010 C 
BRANCH  23  24
HETATM   24  C   UNL     1      12.093   0.274  24.231  1.00  0.00    -0.025 C 
BRANCH  24  25
HETATM   25  C   UNL     1      13.130  -0.118  23.512  1.00  0.00     0.053 C 
BRANCH  25  26
HETATM   26  C   UNL     1      12.733  -1.328  22.641  1.00  0.00    -0.033 C 
HETATM   27  C   UNL     1      11.821  -1.772  22.520  1.00  0.00     0.007 C 
ENDBRANCH  25  26
ENDBRANCH  24  25
ENDBRANCH  23  24
ENDBRANCH   1  23
TORSDOF 10
