MODEL 1
REMARK VINA RESULT:    -6.229      0.000      0.000
REMARK INTER + INTRA:         -11.173
REMARK INTER:                  -9.871
REMARK INTRA:                  -1.302
REMARK UNBOUND:                -1.302
REMARK  10 active torsions:
REMARK  status: ('A' for Active; 'I' for Inactive)
REMARK    1  A    between atoms: S_2  and  N_5 
REMARK    2  A    between atoms: N_5  and  C_7 
REMARK    3  A    between atoms: C_8  and  C_9 
REMARK    4  A    between atoms: C_9  and  C_15 
REMARK    5  A    between atoms: C_9  and  C_10 
REMARK    6  A    between atoms: C_10  and  C_11 
REMARK    7  A    between atoms: C_11  and  C_12 
REMARK    8  A    between atoms: C_12  and  C_13 
REMARK    9  A    between atoms: C_15  and  C_16 
REMARK       I    between atoms: C_16  and  N_18 
REMARK   10  A    between atoms: N_18  and  C_20 
ROOT
HETATM    1  C   UNL     1      10.375  -1.759  22.688  1.00  0.00     0.108 C 
ENDROOT
BRANCH   1   2
HETATM    2  C   UNL     1       9.392  -2.224  23.311  1.00  0.00     0.011 C 
HETATM    3  C   UNL     1       8.868  -3.061  24.108  1.00  0.00     0.097 C 
BRANCH   3   4
HETATM    4  N   UNL     1       8.163  -3.414  24.973  1.00  0.00    -0.296 N 
ATOM      5  HN  UNL     1       7.413  -2.773  25.235  1.00  0.00     0.177 HD
BRANCH   4   6
HETATM    6  S   UNL     1       8.241  -4.800  25.801  1.00  0.00     0.226 S 
HETATM    7  C   UNL     1       6.639  -5.341  25.916  1.00  0.00     0.186 C 
HETATM    8  O   UNL     1       8.989  -5.792  25.078  1.00  0.00    -0.206 OA
HETATM    9  O   UNL     1       8.751  -4.630  27.124  1.00  0.00    -0.206 OA
ENDBRANCH   4   6
ENDBRANCH   3   4
ENDBRANCH   1   2
BRANCH   1  10
HETATM   10  C   UNL     1       9.783  -0.941  22.059  1.00  0.00    -0.071 C 
BRANCH  10  11
HETATM   11  C   UNL     1       9.081  -0.086  21.264  1.00  0.00     0.289 C 
HETATM   12  O   UNL     1       9.580   0.904  20.999  1.00  0.00    -0.259 OA
HETATM   13  N   UNL     1       7.911  -0.600  20.953  1.00  0.00    -0.315 N 
ATOM     14  HN  UNL     1       7.625  -1.499  21.341  1.00  0.00     0.170 HD
BRANCH  13  15
HETATM   15  C   UNL     1       7.138   0.034  20.167  1.00  0.00     0.057 A 
HETATM   16  C   UNL     1       6.833   0.009  18.899  1.00  0.00     0.117 A 
HETATM   17  N   UNL     1       6.248   0.423  17.907  1.00  0.00    -0.373 N 
HETATM   18  C   UNL     1       5.576   1.433  18.470  1.00  0.00     0.088 A 
ATOM     19  HN  UNL     1       6.268   0.096  16.941  1.00  0.00     0.164 HD
HETATM   20  C   UNL     1       5.590   1.749  19.737  1.00  0.00     0.026 A 
HETATM   21  C   UNL     1       6.256   1.210  20.739  1.00  0.00    -0.033 A 
HETATM   22  C   UNL     1       6.258   1.580  22.264  1.00  0.00     0.050 C 
ENDBRANCH  13  15
ENDBRANCH  10  11
ENDBRANCH   1  10
BRANCH   1  23
HETATM   23  C   UNL     1      11.822  -1.180  23.281  1.00  0.00    -0.010 C 
BRANCH  23  24
HETATM   24  C   UNL     1      11.890  -0.381  24.061  1.00  0.00    -0.025 C 
BRANCH  24  25
HETATM   25  C   UNL     1      11.848   0.940  24.056  1.00  0.00     0.053 C 
BRANCH  25  26
HETATM   26  C   UNL     1      10.586   1.424  24.801  1.00  0.00    -0.033 C 
HETATM   27  C   UNL     1       9.712   1.796  24.427  1.00  0.00     0.007 C 
ENDBRANCH  25  26
ENDBRANCH  24  25
ENDBRANCH  23  24
ENDBRANCH   1  23
TORSDOF 10
ENDMDL
MODEL 2
REMARK VINA RESULT:    -6.093     13.462     15.434
REMARK INTER + INTRA:         -10.957
REMARK INTER:                  -9.429
REMARK INTRA:                  -1.528
REMARK UNBOUND:                -1.302
REMARK  10 active torsions:
REMARK  status: ('A' for Active; 'I' for Inactive)
REMARK    1  A    between atoms: S_2  and  N_5 
REMARK    2  A    between atoms: N_5  and  C_7 
REMARK    3  A    between atoms: C_8  and  C_9 
REMARK    4  A    between atoms: C_9  and  C_15 
REMARK    5  A    between atoms: C_9  and  C_10 
REMARK    6  A    between atoms: C_10  and  C_11 
REMARK    7  A    between atoms: C_11  and  C_12 
REMARK    8  A    between atoms: C_12  and  C_13 
REMARK    9  A    between atoms: C_15  and  C_16 
REMARK       I    between atoms: C_16  and  N_18 
REMARK   10  A    between atoms: N_18  and  C_20 
ROOT
HETATM    1  C   UNL     1      24.424  -2.005  23.553  1.00  0.00     0.108 C 
ENDROOT
BRANCH   1   2
HETATM    2  C   UNL     1      24.118  -3.206  23.739  1.00  0.00     0.011 C 
HETATM    3  C   UNL     1      24.370  -4.448  23.666  1.00  0.00     0.097 C 
BRANCH   3   4
HETATM    4  N   UNL     1      24.387  -5.557  24.040  1.00  0.00    -0.296 N 
ATOM      5  HN  UNL     1      24.539  -6.271  23.328  1.00  0.00     0.177 HD
BRANCH   4   6
HETATM    6  S   UNL     1      24.197  -6.086  25.555  1.00  0.00     0.226 S 
HETATM    7  C   UNL     1      25.640  -5.689  26.350  1.00  0.00     0.186 C 
HETATM    8  O   UNL     1      23.125  -5.390  26.215  1.00  0.00    -0.206 OA
HETATM    9  O   UNL     1      24.018  -7.501  25.633  1.00  0.00    -0.206 OA
ENDBRANCH   4   6
ENDBRANCH   3   4
ENDBRANCH   1   2
BRANCH   1  10
HETATM   10  C   UNL     1      23.937  -1.889  22.474  1.00  0.00    -0.071 C 
BRANCH  10  11
HETATM   11  C   UNL     1      23.381  -1.869  21.230  1.00  0.00     0.289 C 
HETATM   12  O   UNL     1      22.249  -1.980  21.166  1.00  0.00    -0.259 OA
HETATM   13  N   UNL     1      24.312  -1.727  20.312  1.00  0.00    -0.315 N 
ATOM     14  HN  UNL     1      25.296  -1.695  20.577  1.00  0.00     0.170 HD
BRANCH  13  15
HETATM   15  C   UNL     1      23.973  -1.628  19.090  1.00  0.00     0.057 A 
HETATM   16  C   UNL     1      23.501  -0.706  18.298  1.00  0.00     0.117 A 
HETATM   17  N   UNL     1      23.075  -0.298  17.226  1.00  0.00    -0.373 N 
HETATM   18  C   UNL     1      23.162  -1.434  16.524  1.00  0.00     0.088 A 
ATOM     19  HN  UNL     1      22.751   0.629  16.950  1.00  0.00     0.164 HD
HETATM   20  C   UNL     1      23.633  -2.570  16.963  1.00  0.00     0.026 A 
HETATM   21  C   UNL     1      24.091  -2.895  18.156  1.00  0.00    -0.033 A 
HETATM   22  C   UNL     1      24.671  -4.256  18.677  1.00  0.00     0.050 C 
ENDBRANCH  13  15
ENDBRANCH  10  11
ENDBRANCH   1  10
BRANCH   1  23
HETATM   23  C   UNL     1      24.137  -0.681  24.526  1.00  0.00    -0.010 C 
BRANCH  23  24
HETATM   24  C   UNL     1      23.180  -0.526  25.085  1.00  0.00    -0.025 C 
BRANCH  24  25
HETATM   25  C   UNL     1      22.074   0.167  24.876  1.00  0.00     0.053 C 
BRANCH  25  26
HETATM   26  C   UNL     1      20.960  -0.771  24.366  1.00  0.00    -0.033 C 
HETATM   27  C   UNL     1      20.486  -1.540  24.844  1.00  0.00     0.007 C 
ENDBRANCH  25  26
ENDBRANCH  24  25
ENDBRANCH  23  24
ENDBRANCH   1  23
TORSDOF 10
ENDMDL
MODEL 3
REMARK VINA RESULT:    -6.082      2.059      2.318
REMARK INTER + INTRA:         -10.939
REMARK INTER:                  -9.724
REMARK INTRA:                  -1.216
REMARK UNBOUND:                -1.302
REMARK  10 active torsions:
REMARK  status: ('A' for Active; 'I' for Inactive)
REMARK    1  A    between atoms: S_2  and  N_5 
REMARK    2  A    between atoms: N_5  and  C_7 
REMARK    3  A    between atoms: C_8  and  C_9 
REMARK    4  A    between atoms: C_9  and  C_15 
REMARK    5  A    between atoms: C_9  and  C_10 
REMARK    6  A    between atoms: C_10  and  C_11 
REMARK    7  A    between atoms: C_11  and  C_12 
REMARK    8  A    between atoms: C_12  and  C_13 
REMARK    9  A    between atoms: C_15  and  C_16 
REMARK       I    between atoms: C_16  and  N_18 
REMARK   10  A    between atoms: N_18  and  C_20 
ROOT
HETATM    1  C   UNL     1       9.098  -1.651  23.761  1.00  0.00     0.108 C 
ENDROOT
BRANCH   1   2
HETATM    2  C   UNL     1       8.489  -2.744  23.692  1.00  0.00     0.011 C 
HETATM    3  C   UNL     1       7.934  -3.675  23.031  1.00  0.00     0.097 C 
BRANCH   3   4
HETATM    4  N   UNL     1       7.659  -4.783  22.772  1.00  0.00    -0.296 N 
ATOM      5  HN  UNL     1       8.426  -5.456  22.797  1.00  0.00     0.177 HD
BRANCH   4   6
HETATM    6  S   UNL     1       6.205  -5.369  22.381  1.00  0.00     0.226 S 
HETATM    7  C   UNL     1       5.145  -4.052  22.506  1.00  0.00     0.186 C 
HETATM    8  O   UNL     1       6.181  -5.825  21.017  1.00  0.00    -0.206 OA
HETATM    9  O   UNL     1       5.756  -6.389  23.275  1.00  0.00    -0.206 OA
ENDBRANCH   4   6
ENDBRANCH   3   4
ENDBRANCH   1   2
BRANCH   1  10
HETATM   10  C   UNL     1       8.699  -1.189  22.740  1.00  0.00    -0.071 C 
BRANCH  10  11
HETATM   11  C   UNL     1       8.332  -0.590  21.573  1.00  0.00     0.289 C 
HETATM   12  O   UNL     1       9.150  -0.066  20.978  1.00  0.00    -0.259 OA
HETATM   13  N   UNL     1       7.041  -0.740  21.364  1.00  0.00    -0.315 N 
ATOM     14  HN  UNL     1       6.459  -1.209  22.058  1.00  0.00     0.170 HD
BRANCH  13  15
HETATM   15  C   UNL     1       6.526  -0.294  20.291  1.00  0.00     0.057 A 
HETATM   16  C   UNL     1       6.291  -0.735  19.086  1.00  0.00     0.117 A 
HETATM   17  N   UNL     1       5.903  -0.611  17.932  1.00  0.00    -0.373 N 
HETATM   18  C   UNL     1       5.523   0.671  17.979  1.00  0.00     0.088 A 
ATOM     19  HN  UNL     1       5.877  -1.283  17.165  1.00  0.00     0.164 HD
HETATM   20  C   UNL     1       5.562   1.442  19.032  1.00  0.00     0.026 A 
HETATM   21  C   UNL     1       5.993   1.190  20.254  1.00  0.00    -0.033 A 
HETATM   22  C   UNL     1       6.023   2.113  21.521  1.00  0.00     0.050 C 
ENDBRANCH  13  15
ENDBRANCH  10  11
ENDBRANCH   1  10
BRANCH   1  23
HETATM   23  C   UNL     1       9.122  -0.534  24.998  1.00  0.00    -0.010 C 
BRANCH  23  24
HETATM   24  C   UNL     1       9.948   0.208  25.139  1.00  0.00    -0.025 C 
BRANCH  24  25
HETATM   25  C   UNL     1      11.253   0.211  24.927  1.00  0.00     0.053 C 
BRANCH  25  26
HETATM   26  C   UNL     1      11.603   1.254  23.846  1.00  0.00    -0.033 C 
HETATM   27  C   UNL     1      11.315   2.231  23.766  1.00  0.00     0.007 C 
ENDBRANCH  25  26
ENDBRANCH  24  25
ENDBRANCH  23  24
ENDBRANCH   1  23
TORSDOF 10
ENDMDL
MODEL 4
REMARK VINA RESULT:    -5.976      2.452      2.863
REMARK INTER + INTRA:         -10.772
REMARK INTER:                  -8.729
REMARK INTRA:                  -2.043
REMARK UNBOUND:                -1.302
REMARK  10 active torsions:
REMARK  status: ('A' for Active; 'I' for Inactive)
REMARK    1  A    between atoms: S_2  and  N_5 
REMARK    2  A    between atoms: N_5  and  C_7 
REMARK    3  A    between atoms: C_8  and  C_9 
REMARK    4  A    between atoms: C_9  and  C_15 
REMARK    5  A    between atoms: C_9  and  C_10 
REMARK    6  A    between atoms: C_10  and  C_11 
REMARK    7  A    between atoms: C_11  and  C_12 
REMARK    8  A    between atoms: C_12  and  C_13 
REMARK    9  A    between atoms: C_15  and  C_16 
REMARK       I    between atoms: C_16  and  N_18 
REMARK   10  A    between atoms: N_18  and  C_20 
ROOT
HETATM    1  C   UNL     1       9.545  -1.396  23.347  1.00  0.00     0.108 C 
ENDROOT
BRANCH   1   2
HETATM    2  C   UNL     1       9.128  -2.565  23.183  1.00  0.00     0.011 C 
HETATM    3  C   UNL     1       8.198  -3.429  23.169  1.00  0.00     0.097 C 
BRANCH   3   4
HETATM    4  N   UNL     1       7.607  -4.355  22.764  1.00  0.00    -0.296 N 
ATOM      5  HN  UNL     1       8.098  -5.249  22.786  1.00  0.00     0.177 HD
BRANCH   4   6
HETATM    6  S   UNL     1       6.103  -4.378  22.172  1.00  0.00     0.226 S 
HETATM    7  C   UNL     1       5.155  -5.073  23.393  1.00  0.00     0.186 C 
HETATM    8  O   UNL     1       5.617  -3.044  21.943  1.00  0.00    -0.206 OA
HETATM    9  O   UNL     1       5.979  -5.182  20.998  1.00  0.00    -0.206 OA
ENDBRANCH   4   6
ENDBRANCH   3   4
ENDBRANCH   1   2
BRANCH   1  10
HETATM   10  C   UNL     1       8.999  -0.906  22.411  1.00  0.00    -0.071 C 
BRANCH  10  11
HETATM   11  C   UNL     1       8.475  -0.303  21.307  1.00  0.00     0.289 C 
HETATM   12  O   UNL     1       9.183   0.324  20.672  1.00  0.00    -0.259 OA
HETATM   13  N   UNL     1       7.192  -0.574  21.199  1.00  0.00    -0.315 N 
ATOM     14  HN  UNL     1       6.721  -1.127  21.916  1.00  0.00     0.170 HD
BRANCH  13  15
HETATM   15  C   UNL     1       6.545  -0.143  20.194  1.00  0.00     0.057 A 
HETATM   16  C   UNL     1       6.256  -0.556  18.991  1.00  0.00     0.117 A 
HETATM   17  N   UNL     1       5.761  -0.426  17.880  1.00  0.00    -0.373 N 
HETATM   18  C   UNL     1       5.255   0.804  18.021  1.00  0.00     0.088 A 
ATOM     19  HN  UNL     1       5.740  -1.065  17.084  1.00  0.00     0.164 HD
HETATM   20  C   UNL     1       5.302   1.530  19.105  1.00  0.00     0.026 A 
HETATM   21  C   UNL     1       5.858   1.276  20.274  1.00  0.00    -0.033 A 
HETATM   22  C   UNL     1       5.899   2.143  21.581  1.00  0.00     0.050 C 
ENDBRANCH  13  15
ENDBRANCH  10  11
ENDBRANCH   1  10
BRANCH   1  23
HETATM   23  C   UNL     1       9.470  -0.429  24.704  1.00  0.00    -0.010 C 
BRANCH  23  24
HETATM   24  C   UNL     1       8.960  -0.740  25.651  1.00  0.00    -0.025 C 
BRANCH  24  25
HETATM   25  C   UNL     1       7.800  -0.472  26.223  1.00  0.00     0.053 C 
BRANCH  25  26
HETATM   26  C   UNL     1       6.751  -0.137  25.142  1.00  0.00    -0.033 C 
HETATM   27  C   UNL     1       5.975  -0.701  24.791  1.00  0.00     0.007 C 
ENDBRANCH  25  26
ENDBRANCH  24  25
ENDBRANCH  23  24
ENDBRANCH   1  23
TORSDOF 10
ENDMDL
MODEL 5
REMARK VINA RESULT:    -5.695      3.014      5.855
REMARK INTER + INTRA:         -10.326
REMARK INTER:                  -9.107
REMARK INTRA:                  -1.219
REMARK UNBOUND:                -1.302
REMARK  10 active torsions:
REMARK  status: ('A' for Active; 'I' for Inactive)
REMARK    1  A    between atoms: S_2  and  N_5 
REMARK    2  A    between atoms: N_5  and  C_7 
REMARK    3  A    between atoms: C_8  and  C_9 
REMARK    4  A    between atoms: C_9  and  C_15 
REMARK    5  A    between atoms: C_9  and  C_10 
REMARK    6  A    between atoms: C_10  and  C_11 
REMARK    7  A    between atoms: C_11  and  C_12 
REMARK    8  A    between atoms: C_12  and  C_13 
REMARK    9  A    between atoms: C_15  and  C_16 
REMARK       I    between atoms: C_16  and  N_18 
REMARK   10  A    between atoms: N_18  and  C_20 
ROOT
HETATM    1  C   UNL     1       8.281   0.405  23.969  1.00  0.00     0.108 C 
ENDROOT
BRANCH   1   2
HETATM    2  C   UNL     1       8.058   0.626  22.756  1.00  0.00     0.011 C 
HETATM    3  C   UNL     1       7.270   0.747  21.769  1.00  0.00     0.097 C 
BRANCH   3   4
HETATM    4  N   UNL     1       6.864   1.223  20.779  1.00  0.00    -0.296 N 
ATOM      5  HN  UNL     1       6.603   2.208  20.826  1.00  0.00     0.177 HD
BRANCH   4   6
HETATM    6  S   UNL     1       6.669   0.498  19.348  1.00  0.00     0.226 S 
HETATM    7  C   UNL     1       5.756  -0.892  19.674  1.00  0.00     0.186 C 
HETATM    8  O   UNL     1       5.907   1.324  18.450  1.00  0.00    -0.206 OA
HETATM    9  O   UNL     1       7.904   0.093  18.756  1.00  0.00    -0.206 OA
ENDBRANCH   4   6
ENDBRANCH   3   4
ENDBRANCH   1   2
BRANCH   1  10
HETATM   10  C   UNL     1       8.228  -0.783  23.920  1.00  0.00    -0.071 C 
BRANCH  10  11
HETATM   11  C   UNL     1       8.155  -2.132  23.750  1.00  0.00     0.289 C 
HETATM   12  O   UNL     1       8.952  -2.764  24.264  1.00  0.00    -0.259 OA
HETATM   13  N   UNL     1       7.133  -2.446  22.984  1.00  0.00    -0.315 N 
ATOM     14  HN  UNL     1       6.555  -1.714  22.572  1.00  0.00     0.170 HD
BRANCH  13  15
HETATM   15  C   UNL     1       6.871  -3.671  22.762  1.00  0.00     0.057 A 
HETATM   16  C   UNL     1       7.401  -4.658  22.095  1.00  0.00     0.117 A 
HETATM   17  N   UNL     1       7.422  -5.806  21.671  1.00  0.00    -0.373 N 
HETATM   18  C   UNL     1       6.276  -6.243  22.205  1.00  0.00     0.088 A 
ATOM     19  HN  UNL     1       8.107  -6.285  21.087  1.00  0.00     0.164 HD
HETATM   20  C   UNL     1       5.481  -5.554  22.979  1.00  0.00     0.026 A 
HETATM   21  C   UNL     1       5.571  -4.304  23.393  1.00  0.00    -0.033 A 
HETATM   22  C   UNL     1       4.624  -3.484  24.337  1.00  0.00     0.050 C 
ENDBRANCH  13  15
ENDBRANCH  10  11
ENDBRANCH   1  10
BRANCH   1  23
HETATM   23  C   UNL     1       9.534   0.946  24.927  1.00  0.00    -0.010 C 
BRANCH  23  24
HETATM   24  C   UNL     1      10.493   0.384  25.058  1.00  0.00    -0.025 C 
BRANCH  24  25
HETATM   25  C   UNL     1      11.679   0.403  24.474  1.00  0.00     0.053 C 
BRANCH  25  26
HETATM   26  C   UNL     1      11.855  -0.865  23.612  1.00  0.00    -0.033 C 
HETATM   27  C   UNL     1      12.709  -1.358  23.346  1.00  0.00     0.007 C 
ENDBRANCH  25  26
ENDBRANCH  24  25
ENDBRANCH  23  24
ENDBRANCH   1  23
TORSDOF 10
ENDMDL
MODEL 6
REMARK VINA RESULT:    -5.685     23.638     27.424
REMARK INTER + INTRA:         -10.311
REMARK INTER:                  -8.828
REMARK INTRA:                  -1.483
REMARK UNBOUND:                -1.302
REMARK  10 active torsions:
REMARK  status: ('A' for Active; 'I' for Inactive)
REMARK    1  A    between atoms: S_2  and  N_5 
REMARK    2  A    between atoms: N_5  and  C_7 
REMARK    3  A    between atoms: C_8  and  C_9 
REMARK    4  A    between atoms: C_9  and  C_15 
REMARK    5  A    between atoms: C_9  and  C_10 
REMARK    6  A    between atoms: C_10  and  C_11 
REMARK    7  A    between atoms: C_11  and  C_12 
REMARK    8  A    between atoms: C_12  and  C_13 
REMARK    9  A    between atoms: C_15  and  C_16 
REMARK       I    between atoms: C_16  and  N_18 
REMARK   10  A    between atoms: N_18  and  C_20 
ROOT
HETATM    1  C   UNL     1       8.462  17.043   1.460  1.00  0.00     0.108 C 
ENDROOT
BRANCH   1   2
HETATM    2  C   UNL     1       8.540  15.808   1.658  1.00  0.00     0.011 C 
HETATM    3  C   UNL     1       8.133  14.734   2.199  1.00  0.00     0.097 C 
BRANCH   3   4
HETATM    4  N   UNL     1       7.871  13.594   2.243  1.00  0.00    -0.296 N 
ATOM      5  HN  UNL     1       7.454  13.194   1.402  1.00  0.00     0.177 HD
BRANCH   4   6
HETATM    6  S   UNL     1       8.094  12.583   3.483  1.00  0.00     0.226 S 
HETATM    7  C   UNL     1       6.882  12.974   4.601  1.00  0.00     0.186 C 
HETATM    8  O   UNL     1       7.896  11.217   3.079  1.00  0.00    -0.206 OA
HETATM    9  O   UNL     1       9.361  12.754   4.121  1.00  0.00    -0.206 OA
ENDBRANCH   4   6
ENDBRANCH   3   4
ENDBRANCH   1   2
BRANCH   1  10
HETATM   10  C   UNL     1       8.984  17.392   2.470  1.00  0.00    -0.071 C 
BRANCH  10  11
HETATM   11  C   UNL     1       9.550  17.898   3.601  1.00  0.00     0.289 C 
HETATM   12  O   UNL     1       9.019  17.686   4.587  1.00  0.00    -0.259 OA
HETATM   13  N   UNL     1      10.644  18.568   3.310  1.00  0.00    -0.315 N 
ATOM     14  HN  UNL     1      10.931  18.687   2.339  1.00  0.00     0.170 HD
BRANCH  13  15
HETATM   15  C   UNL     1      11.342  19.065   4.250  1.00  0.00     0.057 A 
HETATM   16  C   UNL     1      12.344  18.694   4.999  1.00  0.00     0.117 A 
HETATM   17  N   UNL     1      13.151  18.855   5.904  1.00  0.00    -0.373 N 
HETATM   18  C   UNL     1      12.766  20.070   6.309  1.00  0.00     0.088 A 
ATOM     19  HN  UNL     1      13.893  18.245   6.247  1.00  0.00     0.164 HD
HETATM   20  C   UNL     1      11.819  20.791   5.773  1.00  0.00     0.026 A 
HETATM   21  C   UNL     1      11.010  20.518   4.767  1.00  0.00    -0.033 A 
HETATM   22  C   UNL     1       9.883  21.392   4.113  1.00  0.00     0.050 C 
ENDBRANCH  13  15
ENDBRANCH  10  11
ENDBRANCH   1  10
BRANCH   1  23
HETATM   23  C   UNL     1       8.964  17.934   0.143  1.00  0.00    -0.010 C 
BRANCH  23  24
HETATM   24  C   UNL     1       8.343  18.738  -0.327  1.00  0.00    -0.025 C 
BRANCH  24  25
HETATM   25  C   UNL     1       8.123  20.017  -0.080  1.00  0.00     0.053 C 
BRANCH  25  26
HETATM   26  C   UNL     1       9.418  20.679   0.436  1.00  0.00    -0.033 C 
HETATM   27  C   UNL     1       9.897  21.518   0.104  1.00  0.00     0.007 C 
ENDBRANCH  25  26
ENDBRANCH  24  25
ENDBRANCH  23  24
ENDBRANCH   1  23
TORSDOF 10
ENDMDL
MODEL 7
REMARK VINA RESULT:    -5.582      3.942      8.398
REMARK INTER + INTRA:         -10.147
REMARK INTER:                  -8.354
REMARK INTRA:                  -1.794
REMARK UNBOUND:                -1.302
REMARK  10 active torsions:
REMARK  status: ('A' for Active; 'I' for Inactive)
REMARK    1  A    between atoms: S_2  and  N_5 
REMARK    2  A    between atoms: N_5  and  C_7 
REMARK    3  A    between atoms: C_8  and  C_9 
REMARK    4  A    between atoms: C_9  and  C_15 
REMARK    5  A    between atoms: C_9  and  C_10 
REMARK    6  A    between atoms: C_10  and  C_11 
REMARK    7  A    between atoms: C_11  and  C_12 
REMARK    8  A    between atoms: C_12  and  C_13 
REMARK    9  A    between atoms: C_15  and  C_16 
REMARK       I    between atoms: C_16  and  N_18 
REMARK   10  A    between atoms: N_18  and  C_20 
ROOT
HETATM    1  C   UNL     1       7.847  -5.140  24.101  1.00  0.00     0.108 C 
ENDROOT
BRANCH   1   2
HETATM    2  C   UNL     1       8.546  -4.101  24.055  1.00  0.00     0.011 C 
HETATM    3  C   UNL     1       8.686  -2.843  24.150  1.00  0.00     0.097 C 
BRANCH   3   4
HETATM    4  N   UNL     1       9.226  -1.849  24.452  1.00  0.00    -0.296 N 
ATOM      5  HN  UNL     1       9.001  -1.475  25.374  1.00  0.00     0.177 HD
BRANCH   4   6
HETATM    6  S   UNL     1      10.286  -1.002  23.575  1.00  0.00     0.226 S 
HETATM    7  C   UNL     1      11.166  -0.088  24.700  1.00  0.00     0.186 C 
HETATM    8  O   UNL     1      11.209  -1.871  22.897  1.00  0.00    -0.206 OA
HETATM    9  O   UNL     1       9.659  -0.101  22.661  1.00  0.00    -0.206 OA
ENDBRANCH   4   6
ENDBRANCH   3   4
ENDBRANCH   1   2
BRANCH   1  10
HETATM   10  C   UNL     1       7.720  -5.186  25.282  1.00  0.00    -0.071 C 
BRANCH  10  11
HETATM   11  C   UNL     1       7.683  -5.267  26.642  1.00  0.00     0.289 C 
HETATM   12  O   UNL     1       8.574  -4.843  27.211  1.00  0.00    -0.259 OA
HETATM   13  N   UNL     1       6.575  -5.854  27.039  1.00  0.00    -0.315 N 
ATOM     14  HN  UNL     1       5.911  -6.216  26.355  1.00  0.00     0.170 HD
BRANCH  13  15
HETATM   15  C   UNL     1       6.339  -5.967  28.284  1.00  0.00     0.057 A 
HETATM   16  C   UNL     1       6.624  -6.806  29.241  1.00  0.00     0.117 A 
HETATM   17  N   UNL     1       6.556  -7.216  30.391  1.00  0.00    -0.373 N 
HETATM   18  C   UNL     1       5.764  -6.267  30.902  1.00  0.00     0.088 A 
ATOM     19  HN  UNL     1       6.978  -8.036  30.829  1.00  0.00     0.164 HD
HETATM   20  C   UNL     1       5.304  -5.227  30.261  1.00  0.00     0.026 A 
HETATM   21  C   UNL     1       5.460  -4.870  29.000  1.00  0.00    -0.033 A 
HETATM   22  C   UNL     1       4.921  -3.611  28.236  1.00  0.00     0.050 C 
ENDBRANCH  13  15
ENDBRANCH  10  11
ENDBRANCH   1  10
BRANCH   1  23
HETATM   23  C   UNL     1       6.432  -5.496  23.294  1.00  0.00    -0.010 C 
BRANCH  23  24
HETATM   24  C   UNL     1       5.430  -5.115  23.616  1.00  0.00    -0.025 C 
BRANCH  24  25
HETATM   25  C   UNL     1       4.709  -4.038  23.356  1.00  0.00     0.053 C 
BRANCH  25  26
HETATM   26  C   UNL     1       4.667  -3.127  24.600  1.00  0.00    -0.033 C 
HETATM   27  C   UNL     1       5.197  -2.277  24.803  1.00  0.00     0.007 C 
ENDBRANCH  25  26
ENDBRANCH  24  25
ENDBRANCH  23  24
ENDBRANCH   1  23
TORSDOF 10
ENDMDL
MODEL 8
REMARK VINA RESULT:    -5.556     20.978     24.355
REMARK INTER + INTRA:         -10.107
REMARK INTER:                  -8.975
REMARK INTRA:                  -1.132
REMARK UNBOUND:                -1.302
REMARK  10 active torsions:
REMARK  status: ('A' for Active; 'I' for Inactive)
REMARK    1  A    between atoms: S_2  and  N_5 
REMARK    2  A    between atoms: N_5  and  C_7 
REMARK    3  A    between atoms: C_8  and  C_9 
REMARK    4  A    between atoms: C_9  and  C_15 
REMARK    5  A    between atoms: C_9  and  C_10 
REMARK    6  A    between atoms: C_10  and  C_11 
REMARK    7  A    between atoms: C_11  and  C_12 
REMARK    8  A    between atoms: C_12  and  C_13 
REMARK    9  A    between atoms: C_15  and  C_16 
REMARK       I    between atoms: C_16  and  N_18 
REMARK   10  A    between atoms: N_18  and  C_20 
ROOT
HETATM    1  C   UNL     1       5.186  12.707   1.981  1.00  0.00     0.108 C 
ENDROOT
BRANCH   1   2
HETATM    2  C   UNL     1       6.423  12.899   1.929  1.00  0.00     0.011 C 
HETATM    3  C   UNL     1       7.433  13.607   1.631  1.00  0.00     0.097 C 
BRANCH   3   4
HETATM    4  N   UNL     1       8.496  14.070   1.790  1.00  0.00    -0.296 N 
ATOM      5  HN  UNL     1       8.944  14.467   0.963  1.00  0.00     0.177 HD
BRANCH   4   6
HETATM    6  S   UNL     1       9.336  14.153   3.168  1.00  0.00     0.226 S 
HETATM    7  C   UNL     1       8.453  15.200   4.166  1.00  0.00     0.186 C 
HETATM    8  O   UNL     1       9.392  12.871   3.816  1.00  0.00    -0.206 OA
HETATM    9  O   UNL     1      10.643  14.701   2.991  1.00  0.00    -0.206 OA
ENDBRANCH   4   6
ENDBRANCH   3   4
ENDBRANCH   1   2
BRANCH   1  10
HETATM   10  C   UNL     1       5.219  11.521   2.071  1.00  0.00    -0.071 C 
BRANCH  10  11
HETATM   11  C   UNL     1       5.216  10.174   2.278  1.00  0.00     0.289 C 
HETATM   12  O   UNL     1       5.673   9.523   1.463  1.00  0.00    -0.259 OA
HETATM   13  N   UNL     1       4.653   9.887   3.431  1.00  0.00    -0.315 N 
ATOM     14  HN  UNL     1       4.252  10.627   4.007  1.00  0.00     0.170 HD
BRANCH  13  15
HETATM   15  C   UNL     1       4.612   8.678   3.823  1.00  0.00     0.057 A 
HETATM   16  C   UNL     1       5.346   7.881   4.549  1.00  0.00     0.117 A 
HETATM   17  N   UNL     1       5.617   6.798   5.050  1.00  0.00    -0.373 N 
HETATM   18  C   UNL     1       4.586   6.088   4.580  1.00  0.00     0.088 A 
ATOM     19  HN  UNL     1       6.397   6.520   5.647  1.00  0.00     0.164 HD
HETATM   20  C   UNL     1       3.610   6.552   3.847  1.00  0.00     0.026 A 
HETATM   21  C   UNL     1       3.406   7.765   3.372  1.00  0.00    -0.033 A 
HETATM   22  C   UNL     1       2.223   8.324   2.506  1.00  0.00     0.050 C 
ENDBRANCH  13  15
ENDBRANCH  10  11
ENDBRANCH   1  10
BRANCH   1  23
HETATM   23  C   UNL     1       4.054  13.389   2.998  1.00  0.00    -0.010 C 
BRANCH  23  24
HETATM   24  C   UNL     1       2.954  13.209   2.900  1.00  0.00    -0.025 C 
BRANCH  24  25
HETATM   25  C   UNL     1       1.862  13.850   3.278  1.00  0.00     0.053 C 
BRANCH  25  26
HETATM   26  C   UNL     1       0.915  14.025   2.072  1.00  0.00    -0.033 C 
HETATM   27  C   UNL     1       1.129  14.291   1.110  1.00  0.00     0.007 C 
ENDBRANCH  25  26
ENDBRANCH  24  25
ENDBRANCH  23  24
ENDBRANCH   1  23
TORSDOF 10
ENDMDL
MODEL 9
REMARK VINA RESULT:    -5.556      3.073      6.057
REMARK INTER + INTRA:         -10.107
REMARK INTER:                  -8.671
REMARK INTRA:                  -1.436
REMARK UNBOUND:                -1.302
REMARK  10 active torsions:
REMARK  status: ('A' for Active; 'I' for Inactive)
REMARK    1  A    between atoms: S_2  and  N_5 
REMARK    2  A    between atoms: N_5  and  C_7 
REMARK    3  A    between atoms: C_8  and  C_9 
REMARK    4  A    between atoms: C_9  and  C_15 
REMARK    5  A    between atoms: C_9  and  C_10 
REMARK    6  A    between atoms: C_10  and  C_11 
REMARK    7  A    between atoms: C_11  and  C_12 
REMARK    8  A    between atoms: C_12  and  C_13 
REMARK    9  A    between atoms: C_15  and  C_16 
REMARK       I    between atoms: C_16  and  N_18 
REMARK   10  A    between atoms: N_18  and  C_20 
ROOT
HETATM    1  C   UNL     1       5.785  -3.583  25.282  1.00  0.00     0.108 C 
ENDROOT
BRANCH   1   2
HETATM    2  C   UNL     1       6.160  -4.309  26.231  1.00  0.00     0.011 C 
HETATM    3  C   UNL     1       6.039  -5.333  26.972  1.00  0.00     0.097 C 
BRANCH   3   4
HETATM    4  N   UNL     1       6.414  -6.254  27.589  1.00  0.00    -0.296 N 
ATOM      5  HN  UNL     1       6.952  -6.953  27.076  1.00  0.00     0.177 HD
BRANCH   4   6
HETATM    6  S   UNL     1       6.177  -6.545  29.161  1.00  0.00     0.226 S 
HETATM    7  C   UNL     1       4.524  -6.886  29.307  1.00  0.00     0.186 C 
HETATM    8  O   UNL     1       6.906  -7.710  29.587  1.00  0.00    -0.206 OA
HETATM    9  O   UNL     1       6.476  -5.418  29.987  1.00  0.00    -0.206 OA
ENDBRANCH   4   6
ENDBRANCH   3   4
ENDBRANCH   1   2
BRANCH   1  10
HETATM   10  C   UNL     1       6.864  -3.299  24.871  1.00  0.00    -0.071 C 
BRANCH  10  11
HETATM   11  C   UNL     1       8.074  -2.866  24.419  1.00  0.00     0.289 C 
HETATM   12  O   UNL     1       8.797  -3.657  24.030  1.00  0.00    -0.259 OA
HETATM   13  N   UNL     1       8.169  -1.559  24.535  1.00  0.00    -0.315 N 
ATOM     14  HN  UNL     1       7.413  -1.025  24.964  1.00  0.00     0.170 HD
BRANCH  13  15
HETATM   15  C   UNL     1       9.210  -0.967  24.108  1.00  0.00     0.057 A 
HETATM   16  C   UNL     1      10.367  -0.600  24.586  1.00  0.00     0.117 A 
HETATM   17  N   UNL     1      11.460  -0.055  24.506  1.00  0.00    -0.373 N 
HETATM   18  C   UNL     1      11.386   0.372  23.241  1.00  0.00     0.088 A 
ATOM     19  HN  UNL     1      12.203   0.044  25.198  1.00  0.00     0.164 HD
HETATM   20  C   UNL     1      10.396   0.157  22.418  1.00  0.00     0.026 A 
HETATM   21  C   UNL     1       9.252  -0.472  22.610  1.00  0.00    -0.033 A 
HETATM   22  C   UNL     1       8.071  -0.744  21.615  1.00  0.00     0.050 C 
ENDBRANCH  13  15
ENDBRANCH  10  11
ENDBRANCH   1  10
BRANCH   1  23
HETATM   23  C   UNL     1       4.707  -3.923  24.057  1.00  0.00    -0.010 C 
BRANCH  23  24
HETATM   24  C   UNL     1       5.001  -4.434  23.105  1.00  0.00    -0.025 C 
BRANCH  24  25
HETATM   25  C   UNL     1       4.965  -5.677  22.658  1.00  0.00     0.053 C 
BRANCH  25  26
HETATM   26  C   UNL     1       6.138  -5.915  21.685  1.00  0.00    -0.033 C 
HETATM   27  C   UNL     1       7.137  -5.747  21.816  1.00  0.00     0.007 C 
ENDBRANCH  25  26
ENDBRANCH  24  25
ENDBRANCH  23  24
ENDBRANCH   1  23
TORSDOF 10
ENDMDL
