stable:False satoms:9 tatoms:24 sratio:0.375
  -OEChem-07092417443D

 24 26  0     1  0  0  0  0  0999 V2000
    6.5928   -4.8280   26.4315 C   0  0  0  0  0  0  0  0  0  0  0  0
    8.1961   -4.3163   26.0998 S   0  0  0  0  0  0  0  0  0  0  0  0
    9.0646   -5.4924   26.0190 O   0  0  0  0  0  0  0  0  0  0  0  0
    8.5908   -3.4285   27.1631 O   0  0  0  0  0  0  0  0  0  0  0  0
    8.1135   -3.5910   24.6730 N   0  0  0  0  0  0  0  0  0  0  0  0
    8.9145   -2.8661   24.1499 C   0  0  0  0  0  0  0  0  0  0  0  0
    9.4312   -1.9652   23.5253 C   0  0  0  0  0  0  0  0  0  0  0  0
   10.4105   -1.1426   23.1757 C   0  0  1  0  0  0  0  0  0  0  0  0
   11.1241    0.0279   24.1715 C   0  0  0  0  0  0  0  0  0  0  0  0
   12.1093    0.3215   24.2159 C   0  0  0  0  0  0  0  0  0  0  0  0
   13.1554   -0.2786   23.3926 C   0  0  0  0  0  0  0  0  0  0  0  0
   12.9323   -1.2107   22.6502 C   0  0  0  0  0  0  0  0  0  0  0  0
   11.7887   -1.6008   22.6096 C   0  0  0  0  0  0  0  0  0  0  0  0
    9.6655   -0.6212   22.3902 C   0  0  1  0  0  0  0  0  0  0  0  0
    9.0278    0.0259   21.3805 C   0  0  0  0  0  0  0  0  0  0  0  0
    9.5496    0.9645   20.9980 O   0  0  0  0  0  0  0  0  0  0  0  0
    7.8921   -0.5812   21.0782 N   0  0  0  0  0  0  0  0  0  0  0  0
    7.1935   -0.1198   20.1947 C   0  0  0  0  0  0  0  0  0  0  0  0
    7.1385   -0.0082   18.8816 C   0  0  0  0  0  0  0  0  0  0  0  0
    6.7124    0.2852   17.8015 N   0  0  0  0  0  0  0  0  0  0  0  0
    5.6026    0.8465   18.3170 C   0  0  0  0  0  0  0  0  0  0  0  0
    5.2402    0.9722   19.4284 C   0  0  0  0  0  0  0  0  0  0  0  0
    5.8064    0.5828   20.5881 C   0  0  0  0  0  0  0  0  0  0  0  0
    5.3318    0.7340   21.9615 C   0  0  0  0  0  0  0  0  0  0  0  0
 20 21  2  0  0  0  0
 19 20  1  0  0  0  0
 21 22  1  0  0  0  0
 18 19  2  0  0  0  0
 22 23  2  0  0  0  0
 18 23  1  0  0  0  0
 17 18  1  0  0  0  0
 23 24  1  0  0  0  0
 15 16  2  0  0  0  0
 15 17  1  0  0  0  0
 14 15  1  0  0  0  0
  8 14  1  0  0  0  0
  7 14  1  0  0  0  0
 12 13  1  0  0  0  0
  8 13  1  0  0  0  0
 11 12  2  0  0  0  0
  7  8  1  0  0  0  0
  8  9  1  0  0  0  0
 10 11  1  0  0  0  0
  6  7  2  0  0  0  0
  5  6  1  0  0  0  0
  9 10  2  0  0  0  0
  2  5  1  0  0  0  0
  2  3  2  0  0  0  0
  1  2  1  0  0  0  0
  2  4  2  0  0  0  0
M  END
> <Shapegauss>
-288.113586

$$$$
