stable:False satoms:9 tatoms:24 sratio:0.375
  -OEChem-08062415143D

 43 45  0     1  0  0  0  0  0999 V2000
    6.4958   -5.3221   25.7677 C   0  0  0  0  0  0  0  0  0  0  0  0
    8.1203   -4.7962   25.6038 S   0  0  0  0  0  0  0  0  0  0  0  0
    8.9899   -5.9674   25.4771 O   0  0  0  0  0  0  0  0  0  0  0  0
    8.4373   -4.0149   26.7715 O   0  0  0  0  0  0  0  0  0  0  0  0
    8.1447   -3.9404   24.2489 N   0  0  0  0  0  0  0  0  0  0  0  0
    8.9837   -3.1772   23.8560 C   0  0  0  0  0  0  0  0  0  0  0  0
    9.5470   -2.2267   23.3580 C   0  0  0  0  0  0  0  0  0  0  0  0
   10.5512   -1.3840   23.1596 C   0  0  1  0  0  0  0  0  0  0  0  0
   11.1918   -0.3178   24.3102 C   0  0  0  0  0  0  0  0  0  0  0  0
   12.1717   -0.0385   24.4539 C   0  0  0  0  0  0  0  0  0  0  0  0
   13.2744   -0.5687   23.6569 C   0  0  0  0  0  0  0  0  0  0  0  0
   13.1047   -1.4256   22.8162 C   0  0  0  0  0  0  0  0  0  0  0  0
   11.9664   -1.7998   22.6556 C   0  0  0  0  0  0  0  0  0  0  0  0
    9.8673   -0.7850   22.3739 C   0  0  1  0  0  0  0  0  0  0  0  0
    9.3072   -0.0409   21.3852 C   0  0  0  0  0  0  0  0  0  0  0  0
    9.8578    0.9245   21.1314 O   0  0  0  0  0  0  0  0  0  0  0  0
    8.1956   -0.6069   20.9450 N   0  0  0  0  0  0  0  0  0  0  0  0
    7.5651   -0.0589   20.0597 C   0  0  0  0  0  0  0  0  0  0  0  0
    7.6074    0.1750   18.7623 C   0  0  0  0  0  0  0  0  0  0  0  0
    7.2628    0.5716   17.6861 N   0  0  0  0  0  0  0  0  0  0  0  0
    6.1192    1.0924   18.1692 C   0  0  0  0  0  0  0  0  0  0  0  0
    5.6760    1.1173   19.2579 C   0  0  0  0  0  0  0  0  0  0  0  0
    6.1543    0.6164   20.4144 C   0  0  0  0  0  0  0  0  0  0  0  0
    5.5799    0.6433   21.7575 C   0  0  0  0  0  0  0  0  0  0  0  0
    6.3950   -5.9226   26.6838 H   0  0  0  0  0  0  0  0  0  0  0  0
    5.8316   -4.4473   25.8280 H   0  0  0  0  0  0  0  0  0  0  0  0
    6.2187   -5.9335   24.8963 H   0  0  0  0  0  0  0  0  0  0  0  0
    7.3076   -3.3945   24.2836 H   0  0  0  0  0  0  0  0  0  0  0  0
    9.8570   -3.7307   24.1679 H   0  0  0  0  0  0  0  0  0  0  0  0
   10.4751    0.1288   24.9834 H   0  0  0  0  0  0  0  0  0  0  0  0
   12.3947    0.6793   25.2294 H   0  0  0  0  0  0  0  0  0  0  0  0
   14.2709   -0.1861   23.8213 H   0  0  0  0  0  0  0  0  0  0  0  0
   13.9247   -1.8319   22.2427 H   0  0  0  0  0  0  0  0  0  0  0  0
   11.8525   -1.7394   21.5632 H   0  0  0  0  0  0  0  0  0  0  0  0
   12.0223   -2.8552   22.9606 H   0  0  0  0  0  0  0  0  0  0  0  0
    9.4664   -0.1232   23.1558 H   0  0  0  0  0  0  0  0  0  0  0  0
    7.8781   -1.4719   21.3336 H   0  0  0  0  0  0  0  0  0  0  0  0
    8.5540   -0.2801   18.5108 H   0  0  0  0  0  0  0  0  0  0  0  0
    5.4997    1.5718   17.4256 H   0  0  0  0  0  0  0  0  0  0  0  0
    4.7276    1.6263   19.3461 H   0  0  0  0  0  0  0  0  0  0  0  0
    4.9550   -0.2494   21.9075 H   0  0  0  0  0  0  0  0  0  0  0  0
    6.3895    0.6535   22.5022 H   0  0  0  0  0  0  0  0  0  0  0  0
    4.9629    1.5465   21.8743 H   0  0  0  0  0  0  0  0  0  0  0  0
 20 21  2  0  0  0  0
 19 20  1  0  0  0  0
 21 22  1  0  0  0  0
 18 19  2  0  0  0  0
 22 23  2  0  0  0  0
 18 23  1  0  0  0  0
 17 18  1  0  0  0  0
 23 24  1  0  0  0  0
 15 16  2  0  0  0  0
 15 17  1  0  0  0  0
 14 15  1  0  0  0  0
  8 14  1  0  0  0  0
  7 14  1  0  0  0  0
 12 13  1  0  0  0  0
  8 13  1  0  0  0  0
 11 12  2  0  0  0  0
  7  8  1  0  0  0  0
  8  9  1  0  0  0  0
 10 11  1  0  0  0  0
  6  7  2  0  0  0  0
  5  6  1  0  0  0  0
  9 10  2  0  0  0  0
  2  5  1  0  0  0  0
  2  3  2  0  0  0  0
  1  2  1  0  0  0  0
  2  4  2  0  0  0  0
  1 25  1  0  0  0  0
  1 26  1  0  0  0  0
  1 27  1  0  0  0  0
  5 28  1  0  0  0  0
  6 29  1  0  0  0  0
  9 30  1  0  0  0  0
 10 31  1  0  0  0  0
 11 32  1  0  0  0  0
 12 33  1  0  0  0  0
 13 34  1  0  0  0  0
 13 35  1  0  0  0  0
 14 36  1  0  0  0  0
 17 37  1  0  0  0  0
 19 38  1  0  0  0  0
 21 39  1  0  0  0  0
 22 40  1  0  0  0  0
 24 41  1  0  0  0  0
 24 42  1  0  0  0  0
 24 43  1  0  0  0  0
M  END
> <Chemgauss4>
-13.344596

$$$$
