stable:False satoms:9 tatoms:24 sratio:0.375
  -OEChem-08062415133D

 43 45  0     1  0  0  0  0  0999 V2000
   -6.2248   -5.4530  -25.8184 C   0  0  0  0  0  0  0  0  0  0  0  0
   -7.8493   -4.9271  -25.6544 S   0  0  0  0  0  0  0  0  0  0  0  0
   -8.7189   -6.0983  -25.5278 O   0  0  0  0  0  0  0  0  0  0  0  0
   -8.1663   -4.1458  -26.8222 O   0  0  0  0  0  0  0  0  0  0  0  0
   -7.8738   -4.0713  -24.2995 N   0  0  0  0  0  0  0  0  0  0  0  0
   -8.7127   -3.3081  -23.9067 C   0  0  0  0  0  0  0  0  0  0  0  0
   -9.2760   -2.3576  -23.4086 C   0  0  0  0  0  0  0  0  0  0  0  0
  -10.2802   -1.5149  -23.2102 C   0  0  1  0  0  0  0  0  0  0  0  0
  -10.9208   -0.4487  -24.3608 C   0  0  0  0  0  0  0  0  0  0  0  0
  -11.9007   -0.1694  -24.5046 C   0  0  0  0  0  0  0  0  0  0  0  0
  -13.0034   -0.6996  -23.7076 C   0  0  0  0  0  0  0  0  0  0  0  0
  -12.8337   -1.5565  -22.8669 C   0  0  0  0  0  0  0  0  0  0  0  0
  -11.6954   -1.9308  -22.7063 C   0  0  0  0  0  0  0  0  0  0  0  0
   -9.5963   -0.9159  -22.4245 C   0  0  1  0  0  0  0  0  0  0  0  0
   -9.0362   -0.1718  -21.4358 C   0  0  0  0  0  0  0  0  0  0  0  0
   -9.5868    0.7936  -21.1821 O   0  0  0  0  0  0  0  0  0  0  0  0
   -7.9246   -0.7378  -20.9956 N   0  0  0  0  0  0  0  0  0  0  0  0
   -7.2941   -0.1898  -20.1104 C   0  0  0  0  0  0  0  0  0  0  0  0
   -7.3364    0.0441  -18.8130 C   0  0  0  0  0  0  0  0  0  0  0  0
   -6.9918    0.4407  -17.7368 N   0  0  0  0  0  0  0  0  0  0  0  0
   -5.8482    0.9615  -18.2198 C   0  0  0  0  0  0  0  0  0  0  0  0
   -5.4050    0.9864  -19.3086 C   0  0  0  0  0  0  0  0  0  0  0  0
   -5.8833    0.4855  -20.4651 C   0  0  0  0  0  0  0  0  0  0  0  0
   -5.3089    0.5124  -21.8081 C   0  0  0  0  0  0  0  0  0  0  0  0
   -6.1240   -6.0536  -26.7344 H   0  0  0  0  0  0  0  0  0  0  0  0
   -5.5607   -4.5782  -25.8787 H   0  0  0  0  0  0  0  0  0  0  0  0
   -5.9477   -6.0644  -24.9469 H   0  0  0  0  0  0  0  0  0  0  0  0
   -7.0366   -3.5254  -24.3342 H   0  0  0  0  0  0  0  0  0  0  0  0
   -9.5860   -3.8616  -24.2185 H   0  0  0  0  0  0  0  0  0  0  0  0
  -10.2041   -0.0021  -25.0341 H   0  0  0  0  0  0  0  0  0  0  0  0
  -12.1237    0.5484  -25.2800 H   0  0  0  0  0  0  0  0  0  0  0  0
  -13.9999   -0.3171  -23.8720 H   0  0  0  0  0  0  0  0  0  0  0  0
  -13.6537   -1.9628  -22.2934 H   0  0  0  0  0  0  0  0  0  0  0  0
  -11.5815   -1.8703  -21.6139 H   0  0  0  0  0  0  0  0  0  0  0  0
  -11.7513   -2.9862  -23.0113 H   0  0  0  0  0  0  0  0  0  0  0  0
   -9.1954   -0.2541  -23.2064 H   0  0  0  0  0  0  0  0  0  0  0  0
   -7.6071   -1.6028  -21.3842 H   0  0  0  0  0  0  0  0  0  0  0  0
   -8.2830   -0.4111  -18.5614 H   0  0  0  0  0  0  0  0  0  0  0  0
   -5.2287    1.4409  -17.4763 H   0  0  0  0  0  0  0  0  0  0  0  0
   -4.4566    1.4954  -19.3968 H   0  0  0  0  0  0  0  0  0  0  0  0
   -4.6841   -0.3803  -21.9582 H   0  0  0  0  0  0  0  0  0  0  0  0
   -6.1185    0.5226  -22.5528 H   0  0  0  0  0  0  0  0  0  0  0  0
   -4.6919    1.4155  -21.9249 H   0  0  0  0  0  0  0  0  0  0  0  0
 20 21  2  0  0  0  0
 19 20  1  0  0  0  0
 21 22  1  0  0  0  0
 18 19  2  0  0  0  0
 22 23  2  0  0  0  0
 18 23  1  0  0  0  0
 17 18  1  0  0  0  0
 23 24  1  0  0  0  0
 15 16  2  0  0  0  0
 15 17  1  0  0  0  0
 14 15  1  0  0  0  0
  8 14  1  0  0  0  0
  7 14  1  0  0  0  0
 12 13  1  0  0  0  0
  8 13  1  0  0  0  0
 11 12  2  0  0  0  0
  7  8  1  0  0  0  0
  8  9  1  0  0  0  0
 10 11  1  0  0  0  0
  6  7  2  0  0  0  0
  5  6  1  0  0  0  0
  9 10  2  0  0  0  0
  2  5  1  0  0  0  0
  2  3  2  0  0  0  0
  1  2  1  0  0  0  0
  2  4  2  0  0  0  0
  1 25  1  0  0  0  0
  1 26  1  0  0  0  0
  1 27  1  0  0  0  0
  5 28  1  0  0  0  0
  6 29  1  0  0  0  0
  9 30  1  0  0  0  0
 10 31  1  0  0  0  0
 11 32  1  0  0  0  0
 12 33  1  0  0  0  0
 13 34  1  0  0  0  0
 13 35  1  0  0  0  0
 14 36  1  0  0  0  0
 17 37  1  0  0  0  0
 19 38  1  0  0  0  0
 21 39  1  0  0  0  0
 22 40  1  0  0  0  0
 24 41  1  0  0  0  0
 24 42  1  0  0  0  0
 24 43  1  0  0  0  0
M  END
> <Chemgauss4>
-13.474497

$$$$
