stable:False satoms:22 tatoms:24 sratio:0.9166666666666666
  -OEChem-07092417343D

 24 24  0     1  0  0  0  0  0999 V2000
    7.2356   -3.6388   25.6559 H   0  0  0  0  0  0  0  0  0  0  0  0
    8.3503   -4.5312   24.5983 H   0  0  0  0  0  0  0  0  0  0  0  0
    8.9001   -3.9878   26.1768 H   0  0  0  0  0  0  0  0  0  0  0  0
    8.7389   -2.5112   24.8450 O   0  0  0  0  0  0  0  0  0  0  0  0
    8.2710   -3.7325   25.3185 C   0  0  0  0  0  0  0  0  0  0  0  0
   10.8329   -2.3812   22.3296 H   0  0  0  0  0  0  0  0  0  0  0  0
    9.7422   -2.3420   23.9951 O   0  0  0  0  0  0  0  0  0  0  0  0
    9.6317    0.1133   24.6499 H   0  0  0  0  0  0  0  0  0  0  0  0
    9.9597   -0.0903   23.6399 C   0  0  0  0  0  0  0  0  0  0  0  0
   11.5084   -1.3460   24.4558 H   0  0  0  0  0  0  0  0  0  0  0  0
   10.7127    0.6290   23.3465 H   0  0  0  0  0  0  0  0  0  0  0  0
   11.4772   -1.5733   22.4217 O   0  0  0  0  0  0  0  0  0  0  0  0
   10.7472   -1.4355   23.6519 C   0  0  2  0  0  0  0  0  0  0  0  0
    8.6904   -0.1777   22.8024 C   0  0  3  0  0  0  0  0  0  0  0  0
   10.0888    0.5153   21.0909 H   0  0  0  0  0  0  0  0  0  0  0  0
    9.1986    0.8771   20.8638 O   0  0  0  0  0  0  0  0  0  0  0  0
    8.4356   -0.0702   21.5399 N   0  0  3  0  0  0  0  0  0  0  0  0
    6.8304   -0.3286   19.3556 C   0  0  1  0  0  0  0  0  0  0  0  0
    7.2021   -1.4707   20.0117 O   0  0  0  0  0  0  0  0  0  0  0  0
    6.9729   -0.6688   18.3557 H   0  0  0  0  0  0  0  0  0  0  0  0
    5.6117    0.6061   18.5714 H   0  0  0  0  0  0  0  0  0  0  0  0
    6.0204    0.8717   19.3798 O   0  0  0  0  0  0  0  0  0  0  0  0
    7.4983   -0.5462   20.6701 C   0  0  1  0  0  0  0  0  0  0  0  0
    6.9271   -0.0705   23.5704 Br  0  0  0  0  0  0  0  0  0  0  0  0
 18 20  1  0  0  0  0
 21 22  1  0  0  0  0
 18 22  1  0  0  0  0
 18 19  1  0  0  0  0
 18 23  1  0  0  0  0
 19 23  1  0  0  0  0
 17 23  1  0  0  0  0
 15 16  1  0  0  0  0
 16 17  1  0  0  0  0
 14 17  1  0  0  0  0
  6 12  1  0  0  0  0
 12 13  1  0  0  0  0
 14 24  1  0  0  0  0
  9 14  1  0  0  0  0
  9 11  1  0  0  0  0
  9 13  1  0  0  0  0
  8  9  1  0  0  0  0
  7 13  1  0  0  0  0
 10 13  1  0  0  0  0
  4  7  1  0  0  0  0
  2  5  1  0  0  0  0
  4  5  1  0  0  0  0
  1  5  1  0  0  0  0
  3  5  1  0  0  0  0
M  END
> <Shapegauss>
-139.233276

$$$$
