stable:False satoms:22 tatoms:24 sratio:0.9166666666666666
  -OEChem-08062401173D

 25 25  0     1  0  0  0  0  0999 V2000
  -13.6725   -2.8355  -22.9329 H   0  0  0  0  0  0  0  0  0  0  0  0
  -14.0944   -1.2944  -22.1555 H   0  0  0  0  0  0  0  0  0  0  0  0
  -14.6312   -1.6128  -23.7985 H   0  0  0  0  0  0  0  0  0  0  0  0
  -12.6832   -1.2022  -23.6695 O   0  0  0  0  0  0  0  0  0  0  0  0
  -13.8145   -1.7626  -23.0857 C   0  0  0  0  0  0  0  0  0  0  0  0
  -11.7294    1.8345  -22.8966 H   0  0  0  0  0  0  0  0  0  0  0  0
  -12.3300    0.0741  -23.6073 O   0  0  0  0  0  0  0  0  0  0  0  0
  -10.6658   -0.4943  -25.4450 H   0  0  0  0  0  0  0  0  0  0  0  0
  -10.3678    0.2936  -24.7671 C   0  0  0  0  0  0  0  0  0  0  0  0
  -12.1913    1.3298  -25.2589 H   0  0  0  0  0  0  0  0  0  0  0  0
   -9.8075    1.0474  -25.3042 H   0  0  0  0  0  0  0  0  0  0  0  0
  -11.2781    2.3013  -23.7057 O   0  0  0  0  0  0  0  0  0  0  0  0
  -11.6516    1.0601  -24.3264 C   0  0  2  0  0  0  0  0  0  0  0  0
   -9.6871   -0.4035  -23.5962 C   0  0  3  0  0  0  0  0  0  0  0  0
   -7.9152    0.9116  -23.0864 O   0  5  0  0  0  0  0  0  0  0  0  0
   -8.8628   -0.0217  -22.6769 N   0  0  3  0  0  0  0  0  0  0  0  0
   -7.5188   -0.3494  -20.3315 C   0  0  1  0  0  0  0  0  0  0  0  0
   -8.8841   -0.2703  -20.2778 O   0  0  0  0  0  0  0  0  0  0  0  0
   -7.2926    0.2804  -19.5020 H   0  0  0  0  0  0  0  0  0  0  0  0
   -6.0510   -1.0926  -19.8150 H   0  0  0  0  0  0  0  0  0  0  0  0
   -6.3665   -1.1439  -20.7032 O   0  0  0  0  0  0  0  0  0  0  0  0
   -8.5587   -0.3888  -21.3985 C   0  0  1  0  0  0  0  0  0  0  0  0
   -9.5913   -2.3209  -23.4393 Br  0  0  0  0  0  0  0  0  0  0  0  0
  -10.5734   -0.3375  -22.9481 H   0  0  0  0  0  0  0  0  0  0  0  0
   -8.6264   -1.4808  -21.5122 H   0  0  0  0  0  0  0  0  0  0  0  0
 17 19  1  0  0  0  0
 20 21  1  0  0  0  0
 17 21  1  0  0  0  0
 17 18  1  0  0  0  0
 17 22  1  0  0  0  0
 18 22  1  0  0  0  0
 16 22  1  0  0  0  0
 15 16  1  0  0  0  0
 14 16  1  0  0  0  0
  6 12  1  0  0  0  0
 12 13  1  0  0  0  0
 14 23  1  0  0  0  0
  9 14  1  0  0  0  0
  9 11  1  0  0  0  0
  9 13  1  0  0  0  0
  8  9  1  0  0  0  0
  7 13  1  0  0  0  0
 10 13  1  0  0  0  0
  4  7  1  0  0  0  0
  2  5  1  0  0  0  0
  4  5  1  0  0  0  0
  1  5  1  0  0  0  0
  3  5  1  0  0  0  0
 14 24  1  0  0  0  0
 22 25  1  0  0  0  0
M  CHG  1  15  -1
M  END
> <Chemgauss4>
-4.541409

$$$$
