stable:False satoms:22 tatoms:24 sratio:0.9166666666666666
  -OEChem-08062401173D

 25 25  0     1  0  0  0  0  0999 V2000
   13.5036   -2.7001   23.1159 H   0  0  0  0  0  0  0  0  0  0  0  0
   13.9255   -1.1590   22.3385 H   0  0  0  0  0  0  0  0  0  0  0  0
   14.4623   -1.4774   23.9816 H   0  0  0  0  0  0  0  0  0  0  0  0
   12.5143   -1.0668   23.8525 O   0  0  0  0  0  0  0  0  0  0  0  0
   13.6456   -1.6272   23.2687 C   0  0  0  0  0  0  0  0  0  0  0  0
   11.5605    1.9700   23.0796 H   0  0  0  0  0  0  0  0  0  0  0  0
   12.1611    0.2095   23.7903 O   0  0  0  0  0  0  0  0  0  0  0  0
   10.4969   -0.3589   25.6280 H   0  0  0  0  0  0  0  0  0  0  0  0
   10.1989    0.4290   24.9501 C   0  0  0  0  0  0  0  0  0  0  0  0
   12.0225    1.4652   25.4419 H   0  0  0  0  0  0  0  0  0  0  0  0
    9.6387    1.1828   25.4872 H   0  0  0  0  0  0  0  0  0  0  0  0
   11.1092    2.4367   23.8887 O   0  0  0  0  0  0  0  0  0  0  0  0
   11.4827    1.1955   24.5094 C   0  0  2  0  0  0  0  0  0  0  0  0
    9.5182   -0.2680   23.7793 C   0  0  3  0  0  0  0  0  0  0  0  0
    7.7463    1.0471   23.2694 O   0  5  0  0  0  0  0  0  0  0  0  0
    8.6939    0.1137   22.8600 N   0  0  3  0  0  0  0  0  0  0  0  0
    7.3499   -0.2139   20.5145 C   0  0  1  0  0  0  0  0  0  0  0  0
    8.7152   -0.1349   20.4608 O   0  0  0  0  0  0  0  0  0  0  0  0
    7.1237    0.4158   19.6850 H   0  0  0  0  0  0  0  0  0  0  0  0
    5.8821   -0.9572   19.9980 H   0  0  0  0  0  0  0  0  0  0  0  0
    6.1976   -1.0084   20.8863 O   0  0  0  0  0  0  0  0  0  0  0  0
    8.3898   -0.2534   21.5815 C   0  0  1  0  0  0  0  0  0  0  0  0
    9.4224   -2.1855   23.6223 Br  0  0  0  0  0  0  0  0  0  0  0  0
   10.4045   -0.2021   23.1311 H   0  0  0  0  0  0  0  0  0  0  0  0
    8.4575   -1.3454   21.6953 H   0  0  0  0  0  0  0  0  0  0  0  0
 17 19  1  0  0  0  0
 20 21  1  0  0  0  0
 17 21  1  0  0  0  0
 17 18  1  0  0  0  0
 17 22  1  0  0  0  0
 18 22  1  0  0  0  0
 16 22  1  0  0  0  0
 15 16  1  0  0  0  0
 14 16  1  0  0  0  0
  6 12  1  0  0  0  0
 12 13  1  0  0  0  0
 14 23  1  0  0  0  0
  9 14  1  0  0  0  0
  9 11  1  0  0  0  0
  9 13  1  0  0  0  0
  8  9  1  0  0  0  0
  7 13  1  0  0  0  0
 10 13  1  0  0  0  0
  4  7  1  0  0  0  0
  2  5  1  0  0  0  0
  4  5  1  0  0  0  0
  1  5  1  0  0  0  0
  3  5  1  0  0  0  0
 14 24  1  0  0  0  0
 22 25  1  0  0  0  0
M  CHG  1  15  -1
M  END
> <Chemgauss4>
-4.733195

$$$$
