stable:False satoms:9 tatoms:24 sratio:0.375
  -OEChem-07092417443D

 24 25  0     1  0  0  0  0  0999 V2000
    6.5469   -4.8942   26.4223 C   0  0  0  0  0  0  0  0  0  0  0  0
    8.2440   -4.2836   26.0956 S   0  0  0  0  0  0  0  0  0  0  0  0
    9.0872   -5.4392   26.0601 O   0  0  0  0  0  0  0  0  0  0  0  0
    8.5653   -3.3977   27.1690 O   0  0  0  0  0  0  0  0  0  0  0  0
    8.0897   -3.5874   24.6418 N   0  0  0  0  0  0  0  0  0  0  0  0
    8.9302   -2.9328   24.1357 C   0  0  0  0  0  0  0  0  0  0  0  0
    9.4390   -1.9835   23.5052 C   0  0  0  0  0  0  0  0  0  0  0  0
   10.3649   -1.1255   23.2297 C   0  0  1  0  0  0  0  0  0  0  0  0
   11.0179   -0.0442   24.2873 C   0  0  0  0  0  0  0  0  0  0  0  0
   12.1127    0.2655   24.2866 C   0  0  0  0  0  0  0  0  0  0  0  0
   13.1109   -0.2650   23.4706 C   0  0  0  0  0  0  0  0  0  0  0  0
   12.7640   -1.2328   22.7244 C   0  0  0  0  0  0  0  0  0  0  0  0
   11.7288   -1.7262   22.5716 C   0  0  0  0  0  0  0  0  0  0  0  0
    9.7107   -0.5551   22.3481 C   0  0  0  0  0  0  0  0  0  0  0  0
    9.0526    0.0612   21.3872 C   0  0  0  0  0  0  0  0  0  0  0  0
    9.5189    1.0037   20.9583 O   0  0  0  0  0  0  0  0  0  0  0  0
    7.8954   -0.5850   21.1245 N   0  0  0  0  0  0  0  0  0  0  0  0
    7.2012   -0.0847   20.2310 C   0  0  0  0  0  0  0  0  0  0  0  0
    7.2172    0.0127   18.9400 C   0  0  0  0  0  0  0  0  0  0  0  0
    6.7626    0.3511   17.8099 N   0  0  0  0  0  0  0  0  0  0  0  0
    5.7132    0.8986   18.2883 C   0  0  0  0  0  0  0  0  0  0  0  0
    5.2582    0.9911   19.4394 C   0  0  0  0  0  0  0  0  0  0  0  0
    5.7996    0.5758   20.5888 C   0  0  0  0  0  0  0  0  0  0  0  0
    5.4531    0.6871   21.5811 C   0  0  0  0  0  0  0  0  0  0  0  0
 20 21  2  0  0  0  0
 19 20  1  0  0  0  0
 21 22  1  0  0  0  0
 18 19  2  0  0  0  0
 22 23  2  0  0  0  0
 18 23  1  0  0  0  0
 17 18  1  0  0  0  0
 23 24  1  0  0  0  0
 15 16  2  0  0  0  0
 15 17  1  0  0  0  0
 14 15  1  0  0  0  0
  8 14  1  0  0  0  0
 12 13  1  0  0  0  0
  8 13  1  0  0  0  0
 11 12  2  0  0  0  0
  7  8  1  0  0  0  0
  8  9  1  0  0  0  0
 10 11  1  0  0  0  0
  6  7  2  3  0  0  0
  5  6  1  0  0  0  0
  9 10  2  0  0  0  0
  2  5  1  0  0  0  0
  2  3  2  0  0  0  0
  1  2  1  0  0  0  0
  2  4  2  0  0  0  0
M  END
> <Shapegauss>
-288.997925

$$$$
