stable:False satoms:9 tatoms:24 sratio:0.375
  -OEChem-08062414203D

 45 46  0     1  0  0  0  0  0999 V2000
    6.4401   -5.1924   26.1130 C   0  0  0  0  0  0  0  0  0  0  0  0
    8.1431   -4.5408   25.9266 S   0  0  0  0  0  0  0  0  0  0  0  0
    9.0087   -5.6799   25.8990 O   0  0  0  0  0  0  0  0  0  0  0  0
    8.3757   -3.6971   27.0555 O   0  0  0  0  0  0  0  0  0  0  0  0
    8.0721   -3.7849   24.4964 N   0  0  0  0  0  0  0  0  0  0  0  0
    8.9317   -3.0954   24.0757 C   0  0  0  0  0  0  0  0  0  0  0  0
    9.4629   -2.1116   23.5212 C   0  0  0  0  0  0  0  0  0  0  0  0
   10.3885   -1.2275   23.3447 C   0  0  1  0  0  0  0  0  0  0  0  0
   10.9493   -0.1826   24.4883 C   0  0  0  0  0  0  0  0  0  0  0  0
   12.0356    0.1446   24.5739 C   0  0  0  0  0  0  0  0  0  0  0  0
   13.0956   -0.3339   23.8049 C   0  0  0  0  0  0  0  0  0  0  0  0
   12.8174   -1.2739   22.9971 C   0  0  0  0  0  0  0  0  0  0  0  0
   11.8041   -1.7770   22.7547 C   0  0  0  0  0  0  0  0  0  0  0  0
    9.7833   -0.6302   22.4461 C   0  0  0  0  0  0  0  0  0  0  0  0
    9.1786    0.0164   21.4701 C   0  0  0  0  0  0  0  0  0  0  0  0
    9.6542    0.9840   21.1135 O   0  0  0  0  0  0  0  0  0  0  0  0
    8.0539   -0.6365   21.1036 N   0  0  0  0  0  0  0  0  0  0  0  0
    7.4109   -0.1093   20.1875 C   0  0  0  0  0  0  0  0  0  0  0  0
    7.5104    0.0441   18.9057 C   0  0  0  0  0  0  0  0  0  0  0  0
    7.1253    0.4237   17.7630 N   0  0  0  0  0  0  0  0  0  0  0  0
    6.0363    0.9329   18.1927 C   0  0  0  0  0  0  0  0  0  0  0  0
    5.5044    0.9681   19.3136 C   0  0  0  0  0  0  0  0  0  0  0  0
    5.9764    0.5123   20.4782 C   0  0  0  0  0  0  0  0  0  0  0  0
    5.5629    0.5748   21.4489 C   0  0  0  0  0  0  0  0  0  0  0  0
    6.3576   -5.7374   27.0649 H   0  0  0  0  0  0  0  0  0  0  0  0
    5.7250   -4.3565   26.1060 H   0  0  0  0  0  0  0  0  0  0  0  0
    6.2153   -5.8742   25.2796 H   0  0  0  0  0  0  0  0  0  0  0  0
    7.2552   -3.2093   24.5331 H   0  0  0  0  0  0  0  0  0  0  0  0
    9.8032   -3.6813   24.3276 H   0  0  0  0  0  0  0  0  0  0  0  0
    8.7426   -1.8537   22.7590 H   0  0  0  0  0  0  0  0  0  0  0  0
   10.2422    0.2164   25.2005 H   0  0  0  0  0  0  0  0  0  0  0  0
   12.2664    0.8929   25.3177 H   0  0  0  0  0  0  0  0  0  0  0  0
   14.0933    0.0705   23.8909 H   0  0  0  0  0  0  0  0  0  0  0  0
   13.6613   -1.6661   22.4491 H   0  0  0  0  0  0  0  0  0  0  0  0
   11.7071   -1.7552   21.6592 H   0  0  0  0  0  0  0  0  0  0  0  0
   11.8921   -2.8195   23.0943 H   0  0  0  0  0  0  0  0  0  0  0  0
    9.2565   -0.0179   23.1929 H   0  0  0  0  0  0  0  0  0  0  0  0
    9.1926   -1.5324   22.2291 H   0  0  0  0  0  0  0  0  0  0  0  0
    7.7616   -1.4864   21.5421 H   0  0  0  0  0  0  0  0  0  0  0  0
    8.4659   -0.4109   18.6902 H   0  0  0  0  0  0  0  0  0  0  0  0
    5.4625    1.4337   17.4270 H   0  0  0  0  0  0  0  0  0  0  0  0
    4.5286    1.4292   19.3534 H   0  0  0  0  0  0  0  0  0  0  0  0
    4.9612   -0.3237   21.6503 H   0  0  0  0  0  0  0  0  0  0  0  0
    6.3737    0.6465   22.1887 H   0  0  0  0  0  0  0  0  0  0  0  0
    4.9235    1.4672   21.5181 H   0  0  0  0  0  0  0  0  0  0  0  0
 20 21  2  0  0  0  0
 19 20  1  0  0  0  0
 21 22  1  0  0  0  0
 18 19  2  0  0  0  0
 22 23  2  0  0  0  0
 18 23  1  0  0  0  0
 17 18  1  0  0  0  0
 23 24  1  0  0  0  0
 15 16  2  0  0  0  0
 15 17  1  0  0  0  0
 14 15  1  0  0  0  0
  8 14  1  0  0  0  0
 12 13  1  0  0  0  0
  8 13  1  0  0  0  0
 11 12  2  0  0  0  0
  7  8  1  0  0  0  0
  8  9  1  0  0  0  0
 10 11  1  0  0  0  0
  6  7  2  3  0  0  0
  5  6  1  0  0  0  0
  9 10  2  0  0  0  0
  2  5  1  0  0  0  0
  2  3  2  0  0  0  0
  1  2  1  0  0  0  0
  2  4  2  0  0  0  0
  1 25  1  0  0  0  0
  1 26  1  0  0  0  0
  1 27  1  0  0  0  0
  5 28  1  0  0  0  0
  6 29  1  0  0  0  0
  7 30  1  0  0  0  0
  9 31  1  0  0  0  0
 10 32  1  0  0  0  0
 11 33  1  0  0  0  0
 12 34  1  0  0  0  0
 13 35  1  0  0  0  0
 13 36  1  0  0  0  0
 14 37  1  0  0  0  0
 14 38  1  0  0  0  0
 17 39  1  0  0  0  0
 19 40  1  0  0  0  0
 21 41  1  0  0  0  0
 22 42  1  0  0  0  0
 24 43  1  0  0  0  0
 24 44  1  0  0  0  0
 24 45  1  0  0  0  0
M  END
> <Chemgauss4>
-13.641603

$$$$
