
 OpenBabel07202414153D

 42 45  0  0  1  0  0  0  0  0999 V2000
    2.8031    0.1802   -1.6659 C   0  0  0  0  0  0  0  0  0  0  0  0
    2.7189    0.2144   -0.1419 C   0  0  1  0  0  0  0  0  0  0  0  0
    3.2497   -1.0291    0.5709 C   0  0  0  0  0  0  0  0  0  0  0  0
    4.7771   -1.1437    0.4689 C   0  0  2  0  0  0  0  0  0  0  0  0
    5.3978    0.2036    0.7542 C   0  0  0  0  0  0  0  0  0  0  0  0
    6.7459    0.2913    1.1499 C   0  0  0  0  0  0  0  0  0  0  0  0
    7.3452    1.5341    1.3392 C   0  0  0  0  0  0  0  0  0  0  0  0
    6.6035    2.6998    1.2041 C   0  0  0  0  0  0  0  0  0  0  0  0
    5.2516    2.6214    0.8689 C   0  0  0  0  0  0  0  0  0  0  0  0
    4.6522    1.3804    0.6350 C   0  0  0  0  0  0  0  0  0  0  0  0
    3.3233    1.4253    0.3275 O   0  0  0  0  0  0  0  0  0  0  0  0
    9.0249    1.6155    1.6964 Cl  0  0  0  0  0  0  0  0  0  0  0  0
    5.1963   -1.8302   -0.8487 C   0  0  0  0  0  0  0  0  0  0  0  0
    4.4912   -2.7258   -1.3131 O   0  0  0  0  0  0  0  0  0  0  0  0
    6.4044   -1.4282   -1.4050 N   0  0  0  0  0  0  0  0  0  0  0  0
    7.0087   -1.9569   -2.5796 C   0  0  0  0  0  0  0  0  0  0  0  0
    6.5771   -3.1471   -3.1695 C   0  0  0  0  0  0  0  0  0  0  0  0
    6.9982   -3.6078   -4.3673 N   0  0  0  0  0  0  0  0  0  0  0  0
    7.8990   -2.8482   -5.0178 C   0  0  0  0  0  0  0  0  0  0  0  0
    8.4764   -1.6891   -4.5034 C   0  0  0  0  0  0  0  0  0  0  0  0
    8.0659   -1.2430   -3.2229 C   0  0  0  0  0  0  0  0  0  0  0  0
    8.7492   -0.1150   -2.6963 C   0  0  0  0  0  0  0  0  0  0  0  0
    9.7445    0.5527   -3.4213 C   0  0  0  0  0  0  0  0  0  0  0  0
   10.0738    0.1313   -4.7028 C   0  0  0  0  0  0  0  0  0  0  0  0
    9.4441   -0.9859   -5.2403 C   0  0  0  0  0  0  0  0  0  0  0  0
    2.3359   -0.7213   -2.0712 H   0  0  0  0  0  0  0  0  0  0  0  0
    3.8359    0.2404   -2.0202 H   0  0  0  0  0  0  0  0  0  0  0  0
    2.2911    1.0536   -2.0860 H   0  0  0  0  0  0  0  0  0  0  0  0
    1.6562    0.2978    0.1124 H   0  0  0  0  0  0  0  0  0  0  0  0
    2.7392   -1.9268    0.2022 H   0  0  0  0  0  0  0  0  0  0  0  0
    2.9887   -0.9402    1.6350 H   0  0  0  0  0  0  0  0  0  0  0  0
    5.0977   -1.8364    1.2593 H   0  0  0  0  0  0  0  0  0  0  0  0
    7.3334   -0.6138    1.2799 H   0  0  0  0  0  0  0  0  0  0  0  0
    7.0646    3.6717    1.3524 H   0  0  0  0  0  0  0  0  0  0  0  0
    4.6597    3.5287    0.7834 H   0  0  0  0  0  0  0  0  0  0  0  0
    6.7656   -0.5388   -1.1045 H   0  0  0  0  0  0  0  0  0  0  0  0
    5.8619   -3.8062   -2.6899 H   0  0  0  0  0  0  0  0  0  0  0  0
    8.1670   -3.2231   -6.0019 H   0  0  0  0  0  0  0  0  0  0  0  0
    8.5497    0.2471   -1.6919 H   0  0  0  0  0  0  0  0  0  0  0  0
   10.2634    1.4016   -2.9815 H   0  0  0  0  0  0  0  0  0  0  0  0
   10.8312    0.6595   -5.2771 H   0  0  0  0  0  0  0  0  0  0  0  0
    9.7201   -1.3135   -6.2413 H   0  0  0  0  0  0  0  0  0  0  0  0
  1 26  1  0  0  0  0
  1 27  1  0  0  0  0
  1 28  1  0  0  0  0
  2  3  1  0  0  0  0
  2 11  1  0  0  0  0
  2  1  1  0  0  0  0
  2 29  1  1  0  0  0
  3  4  1  0  0  0  0
  3 30  1  0  0  0  0
  3 31  1  0  0  0  0
  4  5  1  0  0  0  0
  4 13  1  0  0  0  0
  4 32  1  1  0  0  0
  5  6  1  0  0  0  0
  5 10  2  0  0  0  0
  6  7  2  0  0  0  0
  6 33  1  0  0  0  0
  7  8  1  0  0  0  0
  7 12  1  0  0  0  0
  8  9  2  0  0  0  0
  8 34  1  0  0  0  0
  9 10  1  0  0  0  0
  9 35  1  0  0  0  0
 10 11  1  0  0  0  0
 13 14  2  0  0  0  0
 13 15  1  0  0  0  0
 15 16  1  0  0  0  0
 15 36  1  0  0  0  0
 16 17  1  0  0  0  0
 16 21  2  0  0  0  0
 17 18  2  0  0  0  0
 17 37  1  0  0  0  0
 18 19  1  0  0  0  0
 19 20  2  0  0  0  0
 19 38  1  0  0  0  0
 20 21  1  0  0  0  0
 20 25  1  0  0  0  0
 21 22  1  0  0  0  0
 22 23  2  0  0  0  0
 22 39  1  0  0  0  0
 23 24  1  0  0  0  0
 23 40  1  0  0  0  0
 24 25  2  0  0  0  0
 24 41  1  0  0  0  0
 25 42  1  0  0  0  0
M  END
$$$$
