stable:False satoms:19 tatoms:24 sratio:0.7916666666666666
  -OEChem-08052415353D

 22 23  0     1  0  0  0  0  0999 V2000
  -10.1021   -0.3795  -24.8352 C   0  0  0  0  0  0  0  0  0  0  0  0
   -8.5428   -2.0896  -22.2339 C   0  0  0  0  0  0  0  0  0  0  0  0
   -9.1974   -0.1466  -25.3580 H   0  0  0  0  0  0  0  0  0  0  0  0
  -11.2692    0.2580  -25.1027 C   0  0  0  0  0  0  0  0  0  0  0  0
   -5.7196   -2.2547  -24.5463 C   0  0  0  0  0  2  0  0  0  0  0  0
   -5.7196   -2.2547  -24.5463 H   0  0  0  0  0  0  0  0  0  0  0  0
   -6.8041   -2.7368  -23.9942 N   0  0  3  0  0  0  0  0  0  0  0  0
  -13.3036    0.5357  -24.5369 H   0  0  0  0  0  0  0  0  0  0  0  0
  -11.3195    1.0233  -25.8607 H   0  0  0  0  0  0  0  0  0  0  0  0
   -7.1637   -4.0058  -23.8804 C   0  0  0  0  0  2  0  0  0  0  0  0
  -12.3969   -1.0415  -23.4182 C   0  0  0  0  0  0  0  0  0  0  0  0
   -8.1595   -2.9463  -21.6812 H   0  0  0  0  0  0  0  0  0  0  0  0
  -13.2844   -1.2589  -22.8511 H   0  0  0  0  0  0  0  0  0  0  0  0
   -8.6152   -4.5974  -24.4576 Cl  0  0  0  0  0  0  0  0  0  0  0  0
  -11.2390   -2.6075  -22.5080 H   0  0  0  0  0  0  0  0  0  0  0  0
   -7.3776   -0.6944  -23.5629 H   0  0  0  0  0  0  0  0  0  0  0  0
  -11.2539   -1.7706  -23.1908 C   0  0  0  0  0  0  0  0  0  0  0  0
   -7.7745   -1.7002  -23.4170 C   0  0  1  0  0  0  0  0  0  0  0  0
   -9.0049   -2.1220  -23.5707 N   0  0  2  0  0  0  0  0  0  0  0  0
  -10.0955   -1.3937  -23.8565 C   0  0  0  0  0  0  0  0  0  0  0  0
  -12.4113   -0.0372  -24.3640 C   0  0  0  0  0  0  0  0  0  0  0  0
   -9.0961   -1.4676  -21.5377 H   0  0  0  0  0  0  0  0  0  0  0  0
 11 13  1  0  0  0  0
 15 17  1  0  0  0  0
 11 17  2  0  0  0  0
 11 21  1  0  0  0  0
 17 20  1  0  0  0  0
  2 22  1  0  0  0  0
  2 12  1  0  0  0  0
  2 19  1  0  0  0  0
  2 18  1  0  0  0  0
  8 21  1  0  0  0  0
  4 21  2  0  0  0  0
 19 20  1  0  0  0  0
  1 20  2  0  0  0  0
 18 19  1  0  0  0  0
 10 14  1  0  0  0  0
  7 10  1  0  0  0  0
  7 18  1  0  0  0  0
 16 18  1  0  0  0  0
  1  4  1  0  0  0  0
  4  9  1  0  0  0  0
  1  3  1  0  0  0  0
  5  7  1  0  0  0  0
  5  6  1  0  0  0  0
M  END
> <Chemgauss4>
-6.661685

$$$$
