stable:False satoms:19 tatoms:24 sratio:0.7916666666666666
  -OEChem-08052415353D

 22 23  0     1  0  0  0  0  0999 V2000
   11.1615   -0.2752   24.5019 C   0  0  0  0  0  0  0  0  0  0  0  0
    9.2766   -1.6179   21.9006 C   0  0  0  0  0  0  0  0  0  0  0  0
   10.3264    0.1432   25.0247 H   0  0  0  0  0  0  0  0  0  0  0  0
   12.4369    0.1017   24.7693 C   0  0  0  0  0  0  0  0  0  0  0  0
    6.4821   -1.1837   24.2130 C   0  0  0  0  0  2  0  0  0  0  0  0
    6.4821   -1.1837   24.2130 H   0  0  0  0  0  0  0  0  0  0  0  0
    7.4405   -1.8837   23.6609 N   0  0  3  0  0  0  0  0  0  0  0  0
   14.4841   -0.0560   24.2035 H   0  0  0  0  0  0  0  0  0  0  0  0
   12.6475    0.8392   25.5274 H   0  0  0  0  0  0  0  0  0  0  0  0
    7.5243   -3.2000   23.5471 C   0  0  0  0  0  2  0  0  0  0  0  0
   13.2651   -1.4064   23.0849 C   0  0  0  0  0  0  0  0  0  0  0  0
    8.7211   -2.3744   21.3478 H   0  0  0  0  0  0  0  0  0  0  0  0
   14.0867   -1.8062   22.5177 H   0  0  0  0  0  0  0  0  0  0  0  0
    8.8183   -4.0845   24.1243 Cl  0  0  0  0  0  0  0  0  0  0  0  0
   11.8029   -2.6929   22.1747 H   0  0  0  0  0  0  0  0  0  0  0  0
    8.4319   -0.0083   23.2295 H   0  0  0  0  0  0  0  0  0  0  0  0
   11.9939   -1.8780   22.8575 C   0  0  0  0  0  0  0  0  0  0  0  0
    8.6077   -1.0752   23.0837 C   0  0  1  0  0  0  0  0  0  0  0  0
    9.7214   -1.7471   23.2374 N   0  0  2  0  0  0  0  0  0  0  0  0
   10.9412   -1.2652   23.5231 C   0  0  0  0  0  0  0  0  0  0  0  0
   13.4910   -0.4278   24.0307 C   0  0  0  0  0  0  0  0  0  0  0  0
    9.9486   -1.1266   21.2044 H   0  0  0  0  0  0  0  0  0  0  0  0
 11 13  1  0  0  0  0
 15 17  1  0  0  0  0
 11 17  2  0  0  0  0
 11 21  1  0  0  0  0
 17 20  1  0  0  0  0
  2 22  1  0  0  0  0
  2 12  1  0  0  0  0
  2 19  1  0  0  0  0
  2 18  1  0  0  0  0
  8 21  1  0  0  0  0
  4 21  2  0  0  0  0
 19 20  1  0  0  0  0
  1 20  2  0  0  0  0
 18 19  1  0  0  0  0
 10 14  1  0  0  0  0
  7 10  1  0  0  0  0
  7 18  1  0  0  0  0
 16 18  1  0  0  0  0
  1  4  1  0  0  0  0
  4  9  1  0  0  0  0
  1  3  1  0  0  0  0
  5  7  1  0  0  0  0
  5  6  1  0  0  0  0
M  END
> <Chemgauss4>
-6.787062

$$$$
