stable:False satoms:17 tatoms:24 sratio:0.7083333333333334
  -OEChem-07092417313D

 24 22  0     1  0  0  0  0  0999 V2000
    6.7691   -1.4706   23.3634 C   0  0  0  0  0  0  0  0  0  0  0  0
    8.8098   -2.5808   24.0313 H   0  0  0  0  0  0  0  0  0  0  0  0
    9.9827   -3.7897   23.8700 H   0  0  0  0  0  0  0  0  0  0  0  0
    8.9225   -0.0178   24.8408 O   0  0  0  0  0  0  0  0  0  0  0  0
    8.9512   -3.3386   22.1671 N   0  0  0  0  0  0  0  0  0  0  0  0
    6.8948   -1.5410   24.4225 H   0  0  0  0  0  0  0  0  0  0  0  0
    7.9887   -1.0452   22.7679 N   0  0  0  0  0  0  0  0  0  0  0  0
   10.5664   -1.1516   21.9310 C   0  0  0  0  0  0  0  0  0  0  0  0
    8.6727    0.0547   22.5465 C   0  0  2  0  0  0  0  0  0  0  0  0
    9.5825   -2.9305   23.3481 C   0  0  0  0  0  0  0  0  0  0  0  0
   10.2278    1.3965   21.1495 O   0  0  0  0  0  0  0  0  0  0  0  0
   11.6188   -2.4585   22.8123 H   0  0  0  0  0  0  0  0  0  0  0  0
   10.8628   -1.2529   23.8513 H   0  0  0  0  0  0  0  0  0  0  0  0
   10.7337   -1.8991   23.0106 C   0  0  0  0  0  0  0  0  0  0  0  0
    9.4454    0.9127   21.6678 C   0  0  0  0  0  0  0  0  0  0  0  0
    9.3953   -0.9085   20.5713 H   0  0  0  0  0  0  0  0  0  0  0  0
    8.5947   -0.2119   23.6085 C   0  0  0  0  0  0  0  0  0  0  0  0
    7.3258    0.6682   20.5351 H   0  0  0  0  0  0  0  0  0  0  0  0
   10.3067   -1.0853   20.7085 O   0  0  0  0  0  0  0  0  0  0  0  0
    8.4387   -2.7223   21.2716 O   0  0  0  0  0  0  0  0  0  0  0  0
    6.5185    0.4842   20.9487 O   0  0  0  0  0  0  0  0  0  0  0  0
    6.5969   -2.3904   22.8711 H   0  0  0  0  0  0  0  0  0  0  0  0
    6.4320    0.8053   21.8587 H   0  0  0  0  0  0  0  0  0  0  0  0
    5.9466   -0.8172   23.1431 H   0  0  0  0  0  0  0  0  0  0  0  0
 18 21  1  0  0  0  0
 16 19  1  0  0  0  0
  8 19  1  0  0  0  0
 21 23  1  0  0  0  0
 11 15  1  0  0  0  0
  5 20  2  0  0  0  0
  9 15  1  0  0  0  0
  8 14  1  0  0  0  0
  5 10  1  0  0  0  0
  7  9  1  0  0  0  0
  9 17  1  0  0  0  0
  1  7  1  0  0  0  0
  7 17  1  0  0  0  0
 12 14  1  0  0  0  0
  1 22  1  0  0  0  0
 10 14  1  0  0  0  0
 13 14  1  0  0  0  0
  1 24  1  0  0  0  0
  3 10  1  0  0  0  0
  2 10  1  0  0  0  0
  1  6  1  0  0  0  0
  4 17  2  0  0  0  0
M  END
> <Shapegauss>
-105.101105

$$$$
