REMARK  3 active torsions:
REMARK  status: ('A' for Active; 'I' for Inactive)
REMARK    1  A    between atoms: C_3  and  C_5 
REMARK    2  A    between atoms: C_4  and  O_8 
REMARK    3  A    between atoms: C_4  and  C_5 
ROOT
HETATM    1  N   UNL     2       9.751  -1.198  23.096  1.00  0.00     0.075 N 
HETATM    2  C   UNL     2       9.044   0.080  23.296  1.00  0.00     0.308 C 
HETATM    3  C   UNL     2      10.994  -0.742  22.473  1.00  0.00     0.308 C 
HETATM    4  C   UNL     2       9.797  -2.077  24.215  1.00  0.00     0.308 C 
ENDROOT
TORSDOF 3
