stable:False satoms:23 tatoms:24 sratio:0.9583333333333334
  -OEChem-07092417323D

 24 23  0     1  0  0  0  0  0999 V2000
    6.3549   -3.2174   23.5361 N   0  0  0  0  0  0  0  0  0  0  0  0
    9.7508   -1.1979   23.0962 N   0  3  0  0  0  0  0  0  0  0  0  0
    9.9202   -3.1134   23.9179 H   0  0  0  0  0  0  0  0  0  0  0  0
   10.6025   -1.8050   24.9051 H   0  0  0  0  0  0  0  0  0  0  0  0
    8.8750   -2.0550   24.8047 H   0  0  0  0  0  0  0  0  0  0  0  0
    7.1076   -2.2041   23.9472 O   0  0  0  0  0  0  0  0  0  0  0  0
    7.9816   -0.1121   23.4076 H   0  0  0  0  0  0  0  0  0  0  0  0
    9.4316    0.5862   24.1793 H   0  0  0  0  0  0  0  0  0  0  0  0
    9.0442    0.0802   23.2963 C   0  0  0  0  0  0  0  0  0  0  0  0
   11.8091   -1.4327   22.6835 H   0  0  0  0  0  0  0  0  0  0  0  0
   10.9936   -0.7416   22.4731 C   0  0  0  0  0  0  0  0  0  0  0  0
   11.3597    0.2338   22.7669 H   0  0  0  0  0  0  0  0  0  0  0  0
    7.4099   -2.4342   22.7115 C   0  0  2  0  0  0  0  0  0  0  0  0
    7.8961   -0.6669   20.6536 C   0  0  0  0  0  0  0  0  0  0  0  0
    8.3039   -2.9529   22.3879 H   0  0  0  0  0  0  0  0  0  0  0  0
    6.9985   -1.5577   21.4616 C   0  0  0  0  0  0  0  0  0  0  0  0
    9.7969   -2.0766   24.2146 C   0  0  0  0  0  0  0  0  0  0  0  0
    8.6130   -1.0349   19.7717 O   0  0  0  0  0  0  0  0  0  0  0  0
    6.6625   -2.2687   20.7149 H   0  0  0  0  0  0  0  0  0  0  0  0
    7.0261    0.9175   20.0248 H   0  0  0  0  0  0  0  0  0  0  0  0
    7.6246    0.6478   20.7258 O   0  0  0  0  0  0  0  0  0  0  0  0
   10.7186   -0.6863   21.3996 H   0  0  0  0  0  0  0  0  0  0  0  0
    6.1477   -0.9529   21.7714 H   0  0  0  0  0  0  0  0  0  0  0  0
    9.1556    0.7546   22.4454 H   0  0  0  0  0  0  0  0  0  0  0  0
 14 18  2  0  0  0  0
 20 21  1  0  0  0  0
 14 21  1  0  0  0  0
 14 16  1  0  0  0  0
 16 19  1  0  0  0  0
 11 22  1  0  0  0  0
 16 23  1  0  0  0  0
 13 16  1  0  0  0  0
 13 15  1  0  0  0  0
  9 24  1  0  0  0  0
 10 11  1  0  0  0  0
 11 12  1  0  0  0  0
  2 11  1  0  0  0  0
  1 13  1  0  0  0  0
  6 13  1  0  0  0  0
  2  9  1  0  0  0  0
  2 17  1  0  0  0  0
  7  9  1  0  0  0  0
  8  9  1  0  0  0  0
  1  6  1  0  0  0  0
  3 17  1  0  0  0  0
  5 17  1  0  0  0  0
  4 17  1  0  0  0  0
M  CHG  1   2   1
M  END
> <Shapegauss>
-95.630592

$$$$
