stable:False satoms:8 tatoms:24 sratio:0.3333333333333333
  -OEChem-08062417483D

 45 46  0     1  0  0  0  0  0999 V2000
   -6.3668   -4.8507  -26.3107 C   0  0  0  0  0  0  0  0  0  0  0  0
   -7.9617   -4.3441  -26.1015 S   0  0  0  0  0  0  0  0  0  0  0  0
   -8.8112   -5.5333  -26.1308 O   0  0  0  0  0  0  0  0  0  0  0  0
   -8.3084   -3.4937  -27.2063 O   0  0  0  0  0  0  0  0  0  0  0  0
   -8.0138   -3.5862  -24.6666 N   0  0  0  0  0  0  0  0  0  0  0  0
   -8.9537   -2.9202  -24.2349 C   0  0  0  0  0  0  0  0  0  0  0  0
   -9.4090   -1.9267  -23.6929 C   0  0  0  0  0  0  0  0  0  0  0  0
  -10.3140   -1.0308  -23.5620 C   0  0  2  0  0  0  0  0  0  0  0  0
  -10.9995    0.0042  -24.6462 C   0  0  0  0  0  0  0  0  0  0  0  0
  -12.0479    0.2945  -24.6803 C   0  0  0  0  0  0  0  0  0  0  0  0
  -13.1279   -0.1327  -23.9963 C   0  0  0  0  0  0  0  0  0  0  0  0
  -12.7693   -1.3163  -23.0566 C   0  0  0  0  0  0  0  0  0  0  0  0
  -11.9043   -1.6948  -22.8579 C   0  0  0  0  0  0  0  0  0  0  0  0
   -9.7995   -0.5550  -22.6137 C   0  0  2  0  0  0  0  0  0  0  0  0
   -9.2460    0.1499  -21.6007 C   0  0  0  0  0  0  0  0  0  0  0  0
   -9.7779    1.1238  -21.2528 O   0  0  0  0  0  0  0  0  0  0  0  0
   -8.1502   -0.4212  -21.1612 N   0  0  0  0  0  0  0  0  0  0  0  0
   -7.5120    0.0394  -20.1810 C   0  0  0  0  0  0  0  0  0  0  0  0
   -7.6688    0.1444  -18.9034 C   0  0  0  0  0  0  0  0  0  0  0  0
   -7.2545    0.5048  -17.7176 N   0  0  0  0  0  0  0  0  0  0  0  0
   -6.1551    1.0358  -18.1826 C   0  0  0  0  0  0  0  0  0  0  0  0
   -5.6327    1.1082  -19.3003 C   0  0  0  0  0  0  0  0  0  0  0  0
   -6.0837    0.7052  -20.4681 C   0  0  0  0  0  0  0  0  0  0  0  0
   -5.4699    0.7591  -21.8714 C   0  0  0  0  0  0  0  0  0  0  0  0
   -6.2711   -5.3743  -27.2733 H   0  0  0  0  0  0  0  0  0  0  0  0
   -5.7001   -3.9758  -26.3015 H   0  0  0  0  0  0  0  0  0  0  0  0
   -6.0885   -5.5323  -25.4934 H   0  0  0  0  0  0  0  0  0  0  0  0
   -7.2311   -2.9637  -24.6702 H   0  0  0  0  0  0  0  0  0  0  0  0
   -9.8225   -3.5273  -24.4424 H   0  0  0  0  0  0  0  0  0  0  0  0
  -11.1957   -1.5738  -23.1909 H   0  0  0  0  0  0  0  0  0  0  0  0
  -10.3477    0.4343  -25.3922 H   0  0  0  0  0  0  0  0  0  0  0  0
  -12.2636    1.0721  -25.3980 H   0  0  0  0  0  0  0  0  0  0  0  0
  -13.8968   -0.4626  -24.7105 H   0  0  0  0  0  0  0  0  0  0  0  0
  -13.5211    0.6981  -23.3921 H   0  0  0  0  0  0  0  0  0  0  0  0
  -13.6055   -1.7808  -22.5553 H   0  0  0  0  0  0  0  0  0  0  0  0
  -11.8231   -2.5268  -22.1741 H   0  0  0  0  0  0  0  0  0  0  0  0
  -11.0173   -1.2865  -23.3192 H   0  0  0  0  0  0  0  0  0  0  0  0
  -10.3478   -1.2101  -21.9208 H   0  0  0  0  0  0  0  0  0  0  0  0
   -7.8135   -1.2446  -21.6178 H   0  0  0  0  0  0  0  0  0  0  0  0
   -8.6420   -0.2872  -18.7217 H   0  0  0  0  0  0  0  0  0  0  0  0
   -5.5699    1.5220  -17.4161 H   0  0  0  0  0  0  0  0  0  0  0  0
   -4.6579    1.5727  -19.3212 H   0  0  0  0  0  0  0  0  0  0  0  0
   -4.8743   -0.1489  -22.0467 H   0  0  0  0  0  0  0  0  0  0  0  0
   -6.2730    0.8211  -22.6205 H   0  0  0  0  0  0  0  0  0  0  0  0
   -4.8220    1.6442  -21.9543 H   0  0  0  0  0  0  0  0  0  0  0  0
 20 21  2  0  0  0  0
 19 20  1  0  0  0  0
 21 22  1  0  0  0  0
 18 19  2  0  0  0  0
 22 23  2  0  0  0  0
 18 23  1  0  0  0  0
 17 18  1  0  0  0  0
 23 24  1  0  0  0  0
 15 16  2  0  0  0  0
 15 17  1  0  0  0  0
 14 15  1  0  0  0  0
  8 14  1  0  0  0  0
  7 14  1  0  0  0  0
 12 13  2  0  0  0  0
 11 12  1  0  0  0  0
  7  8  1  0  0  0  0
  8  9  1  0  0  0  0
 10 11  1  0  0  0  0
  6  7  2  3  0  0  0
  5  6  1  0  0  0  0
  9 10  2  0  0  0  0
  2  5  1  0  0  0  0
  2  3  2  0  0  0  0
  1  2  1  0  0  0  0
  2  4  2  0  0  0  0
  1 25  1  0  0  0  0
  1 26  1  0  0  0  0
  1 27  1  0  0  0  0
  5 28  1  0  0  0  0
  6 29  1  0  0  0  0
  8 30  1  0  0  0  0
  9 31  1  0  0  0  0
 10 32  1  0  0  0  0
 11 33  1  0  0  0  0
 11 34  1  0  0  0  0
 12 35  1  0  0  0  0
 13 36  1  0  0  0  0
 13 37  1  0  0  0  0
 14 38  1  0  0  0  0
 17 39  1  0  0  0  0
 19 40  1  0  0  0  0
 21 41  1  0  0  0  0
 22 42  1  0  0  0  0
 24 43  1  0  0  0  0
 24 44  1  0  0  0  0
 24 45  1  0  0  0  0
M  END
> <Chemgauss4>
-13.132340

$$$$
