stable:False satoms:8 tatoms:24 sratio:0.3333333333333333
  -OEChem-08062417493D

 45 46  0     1  0  0  0  0  0999 V2000
    6.4297   -5.0526   26.3365 C   0  0  0  0  0  0  0  0  0  0  0  0
    8.0245   -4.5460   26.1273 S   0  0  0  0  0  0  0  0  0  0  0  0
    8.8740   -5.7351   26.1566 O   0  0  0  0  0  0  0  0  0  0  0  0
    8.3712   -3.6955   27.2322 O   0  0  0  0  0  0  0  0  0  0  0  0
    8.0766   -3.7881   24.6924 N   0  0  0  0  0  0  0  0  0  0  0  0
    9.0165   -3.1221   24.2607 C   0  0  0  0  0  0  0  0  0  0  0  0
    9.4719   -2.1285   23.7187 C   0  0  0  0  0  0  0  0  0  0  0  0
   10.3769   -1.2326   23.5879 C   0  0  2  0  0  0  0  0  0  0  0  0
   11.0624   -0.1977   24.6720 C   0  0  0  0  0  0  0  0  0  0  0  0
   12.1107    0.0926   24.7061 C   0  0  0  0  0  0  0  0  0  0  0  0
   13.1908   -0.3346   24.0222 C   0  0  0  0  0  0  0  0  0  0  0  0
   12.8321   -1.5182   23.0824 C   0  0  0  0  0  0  0  0  0  0  0  0
   11.9672   -1.8967   22.8837 C   0  0  0  0  0  0  0  0  0  0  0  0
    9.8623   -0.7569   22.6395 C   0  0  2  0  0  0  0  0  0  0  0  0
    9.3089   -0.0519   21.6266 C   0  0  0  0  0  0  0  0  0  0  0  0
    9.8407    0.9220   21.2786 O   0  0  0  0  0  0  0  0  0  0  0  0
    8.2131   -0.6230   21.1870 N   0  0  0  0  0  0  0  0  0  0  0  0
    7.5748   -0.1625   20.2068 C   0  0  0  0  0  0  0  0  0  0  0  0
    7.7316   -0.0575   18.9292 C   0  0  0  0  0  0  0  0  0  0  0  0
    7.3173    0.3029   17.7434 N   0  0  0  0  0  0  0  0  0  0  0  0
    6.2180    0.8339   18.2084 C   0  0  0  0  0  0  0  0  0  0  0  0
    5.6955    0.9063   19.3261 C   0  0  0  0  0  0  0  0  0  0  0  0
    6.1466    0.5033   20.4939 C   0  0  0  0  0  0  0  0  0  0  0  0
    5.5328    0.5572   21.8972 C   0  0  0  0  0  0  0  0  0  0  0  0
    6.3340   -5.5762   27.2992 H   0  0  0  0  0  0  0  0  0  0  0  0
    5.7630   -4.1777   26.3273 H   0  0  0  0  0  0  0  0  0  0  0  0
    6.1514   -5.7342   25.5192 H   0  0  0  0  0  0  0  0  0  0  0  0
    7.2940   -3.1656   24.6960 H   0  0  0  0  0  0  0  0  0  0  0  0
    9.8853   -3.7292   24.4682 H   0  0  0  0  0  0  0  0  0  0  0  0
   11.2586   -1.7756   23.2167 H   0  0  0  0  0  0  0  0  0  0  0  0
   10.4106    0.2324   25.4180 H   0  0  0  0  0  0  0  0  0  0  0  0
   12.3265    0.8702   25.4238 H   0  0  0  0  0  0  0  0  0  0  0  0
   13.9597   -0.6644   24.7363 H   0  0  0  0  0  0  0  0  0  0  0  0
   13.5839    0.4962   23.4179 H   0  0  0  0  0  0  0  0  0  0  0  0
   13.6684   -1.9827   22.5811 H   0  0  0  0  0  0  0  0  0  0  0  0
   11.8860   -2.7287   22.1999 H   0  0  0  0  0  0  0  0  0  0  0  0
   11.0801   -1.4883   23.3450 H   0  0  0  0  0  0  0  0  0  0  0  0
   10.4106   -1.4120   21.9466 H   0  0  0  0  0  0  0  0  0  0  0  0
    7.8764   -1.4465   21.6437 H   0  0  0  0  0  0  0  0  0  0  0  0
    8.7048   -0.4891   18.7475 H   0  0  0  0  0  0  0  0  0  0  0  0
    5.6327    1.3201   17.4419 H   0  0  0  0  0  0  0  0  0  0  0  0
    4.7208    1.3709   19.3470 H   0  0  0  0  0  0  0  0  0  0  0  0
    4.9372   -0.3508   22.0725 H   0  0  0  0  0  0  0  0  0  0  0  0
    6.3358    0.6192   22.6464 H   0  0  0  0  0  0  0  0  0  0  0  0
    4.8849    1.4423   21.9801 H   0  0  0  0  0  0  0  0  0  0  0  0
 20 21  2  0  0  0  0
 19 20  1  0  0  0  0
 21 22  1  0  0  0  0
 18 19  2  0  0  0  0
 22 23  2  0  0  0  0
 18 23  1  0  0  0  0
 17 18  1  0  0  0  0
 23 24  1  0  0  0  0
 15 16  2  0  0  0  0
 15 17  1  0  0  0  0
 14 15  1  0  0  0  0
  8 14  1  0  0  0  0
  7 14  1  0  0  0  0
 12 13  2  0  0  0  0
 11 12  1  0  0  0  0
  7  8  1  0  0  0  0
  8  9  1  0  0  0  0
 10 11  1  0  0  0  0
  6  7  2  3  0  0  0
  5  6  1  0  0  0  0
  9 10  2  0  0  0  0
  2  5  1  0  0  0  0
  2  3  2  0  0  0  0
  1  2  1  0  0  0  0
  2  4  2  0  0  0  0
  1 25  1  0  0  0  0
  1 26  1  0  0  0  0
  1 27  1  0  0  0  0
  5 28  1  0  0  0  0
  6 29  1  0  0  0  0
  8 30  1  0  0  0  0
  9 31  1  0  0  0  0
 10 32  1  0  0  0  0
 11 33  1  0  0  0  0
 11 34  1  0  0  0  0
 12 35  1  0  0  0  0
 13 36  1  0  0  0  0
 13 37  1  0  0  0  0
 14 38  1  0  0  0  0
 17 39  1  0  0  0  0
 19 40  1  0  0  0  0
 21 41  1  0  0  0  0
 22 42  1  0  0  0  0
 24 43  1  0  0  0  0
 24 44  1  0  0  0  0
 24 45  1  0  0  0  0
M  END
> <Chemgauss4>
-13.146016

$$$$
