MODEL 1
REMARK VINA RESULT:    -4.736      0.000      0.000
REMARK INTER + INTRA:          -7.317
REMARK INTER:                  -6.812
REMARK INTRA:                  -0.505
REMARK UNBOUND:                -0.505
REMARK  8 active torsions:
REMARK  status: ('A' for Active; 'I' for Inactive)
REMARK    1  A    between atoms: O_2  and  C_3 
REMARK    2  A    between atoms: C_3  and  N_4 
REMARK    3  A    between atoms: N_4  and  C_5 
REMARK    4  A    between atoms: C_5  and  C_6 
REMARK    5  A    between atoms: C_6  and  O_8 
REMARK    6  A    between atoms: O_8  and  N_9 
REMARK    7  A    between atoms: N_11  and  C_13 
REMARK    8  A    between atoms: C_14  and  N_15 
ROOT
HETATM    1  N   UNL     1      10.928  14.580   3.033  1.00  0.00    -0.207 N 
ATOM      2  HN  UNL     1      11.554  13.775   3.050  1.00  0.00     0.216 HD
HETATM    3  N   UNL     1      10.021  14.450   2.179  1.00  0.00    -0.277 N 
ATOM      4  HN  UNL     1      10.015  13.610   1.599  1.00  0.00     0.189 HD
ENDROOT
BRANCH   1   5
HETATM    5  O   UNL     1      11.264  15.460   3.879  1.00  0.00    -0.263 OA
BRANCH   5   6
HETATM    6  C   UNL     1      10.628  15.459   5.109  1.00  0.00     0.222 C 
BRANCH   6   7
HETATM    7  C   UNL     1      10.291  16.939   5.257  1.00  0.00     0.144 C 
BRANCH   7   8
HETATM    8  N   UNL     1      11.436  17.775   5.613  1.00  0.00    -0.399 N 
HETATM    9  H   UNL     1      11.572  17.513   6.592  1.00  0.00     0.155 HD
BRANCH   8  10
HETATM   10  C   UNL     1      12.287  18.638   4.895  1.00  0.00     0.282 C 
BRANCH  10  11
HETATM   11  O   UNL     1      13.428  18.119   4.177  1.00  0.00    -0.383 OA
HETATM   12  H   UNL     1      14.042  18.354   4.789  1.00  0.00     0.211 HD
ENDBRANCH  10  11
ENDBRANCH   8  10
ENDBRANCH   7   8
ENDBRANCH   6   7
ENDBRANCH   5   6
ENDBRANCH   1   5
BRANCH   3  13
HETATM   13  C   UNL     1       9.088  15.332   1.998  1.00  0.00     0.199 C 
HETATM   14  N   UNL     1       9.518  16.389   1.397  1.00  0.00    -0.362 N 
ATOM     15  HN  UNL     1      10.374  16.287   0.852  1.00  0.00     0.166 HD
BRANCH  14  16
HETATM   16  C   UNL     1       8.970  17.590   1.414  1.00  0.00     0.078 C 
HETATM   17  C   UNL     1       8.972  18.337   0.272  1.00  0.00     0.029 C 
ENDBRANCH  14  16
ENDBRANCH   3  13
TORSDOF 8
ENDMDL
MODEL 2
REMARK VINA RESULT:    -4.679      2.153      3.028
REMARK INTER + INTRA:          -7.234
REMARK INTER:                  -6.601
REMARK INTRA:                  -0.633
REMARK UNBOUND:                -0.505
REMARK  8 active torsions:
REMARK  status: ('A' for Active; 'I' for Inactive)
REMARK    1  A    between atoms: O_2  and  C_3 
REMARK    2  A    between atoms: C_3  and  N_4 
REMARK    3  A    between atoms: N_4  and  C_5 
REMARK    4  A    between atoms: C_5  and  C_6 
REMARK    5  A    between atoms: C_6  and  O_8 
REMARK    6  A    between atoms: O_8  and  N_9 
REMARK    7  A    between atoms: N_11  and  C_13 
REMARK    8  A    between atoms: C_14  and  N_15 
ROOT
HETATM    1  N   UNL     1      11.629  16.159   4.214  1.00  0.00    -0.207 N 
ATOM      2  HN  UNL     1      12.539  16.299   4.653  1.00  0.00     0.216 HD
HETATM    3  N   UNL     1      11.432  14.958   3.916  1.00  0.00    -0.277 N 
ATOM      4  HN  UNL     1      12.172  14.282   4.106  1.00  0.00     0.189 HD
ENDROOT
BRANCH   1   5
HETATM    5  O   UNL     1      10.983  17.243   4.107  1.00  0.00    -0.263 OA
BRANCH   5   6
HETATM    6  C   UNL     1      11.485  18.366   4.741  1.00  0.00     0.222 C 
BRANCH   6   7
HETATM    7  C   UNL     1      10.808  19.473   3.939  1.00  0.00     0.144 C 
BRANCH   7   8
HETATM    8  N   UNL     1      10.898  19.296   2.490  1.00  0.00    -0.399 N 
HETATM    9  H   UNL     1      11.891  19.077   2.383  1.00  0.00     0.155 HD
BRANCH   8  10
HETATM   10  C   UNL     1       9.961  19.273   1.441  1.00  0.00     0.282 C 
BRANCH  10  11
HETATM   11  O   UNL     1      10.044  18.275   0.399  1.00  0.00    -0.383 OA
HETATM   12  H   UNL     1      10.529  17.685   0.870  1.00  0.00     0.211 HD
ENDBRANCH  10  11
ENDBRANCH   8  10
ENDBRANCH   7   8
ENDBRANCH   6   7
ENDBRANCH   5   6
ENDBRANCH   1   5
BRANCH   3  13
HETATM   13  C   UNL     1      10.331  14.535   3.377  1.00  0.00     0.199 C 
HETATM   14  N   UNL     1      10.179  14.958   2.169  1.00  0.00    -0.362 N 
ATOM     15  HN  UNL     1      11.024  15.249   1.678  1.00  0.00     0.166 HD
BRANCH  14  16
HETATM   16  C   UNL     1       9.045  15.054   1.498  1.00  0.00     0.078 C 
HETATM   17  C   UNL     1       8.058  15.866   1.975  1.00  0.00     0.029 C 
ENDBRANCH  14  16
ENDBRANCH   3  13
TORSDOF 8
ENDMDL
MODEL 3
REMARK VINA RESULT:    -4.535      2.190      3.571
REMARK INTER + INTRA:          -7.028
REMARK INTER:                  -6.564
REMARK INTRA:                  -0.463
REMARK UNBOUND:                -0.505
REMARK  8 active torsions:
REMARK  status: ('A' for Active; 'I' for Inactive)
REMARK    1  A    between atoms: O_2  and  C_3 
REMARK    2  A    between atoms: C_3  and  N_4 
REMARK    3  A    between atoms: N_4  and  C_5 
REMARK    4  A    between atoms: C_5  and  C_6 
REMARK    5  A    between atoms: C_6  and  O_8 
REMARK    6  A    between atoms: O_8  and  N_9 
REMARK    7  A    between atoms: N_11  and  C_13 
REMARK    8  A    between atoms: C_14  and  N_15 
ROOT
HETATM    1  N   UNL     1       9.791  18.024   0.407  1.00  0.00    -0.207 N 
ATOM      2  HN  UNL     1       9.883  18.391  -0.541  1.00  0.00     0.216 HD
HETATM    3  N   UNL     1       9.035  17.027   0.452  1.00  0.00    -0.277 N 
ATOM      4  HN  UNL     1       8.588  16.715  -0.410  1.00  0.00     0.189 HD
ENDROOT
BRANCH   1   5
HETATM    5  O   UNL     1      10.472  18.691   1.241  1.00  0.00    -0.263 OA
BRANCH   5   6
HETATM    6  C   UNL     1      10.199  20.042   1.372  1.00  0.00     0.222 C 
BRANCH   6   7
HETATM    7  C   UNL     1      10.719  20.302   2.783  1.00  0.00     0.144 C 
BRANCH   7   8
HETATM    8  N   UNL     1      12.050  19.753   3.035  1.00  0.00    -0.399 N 
HETATM    9  H   UNL     1      12.506  19.929   2.138  1.00  0.00     0.155 HD
BRANCH   8  10
HETATM   10  C   UNL     1      12.699  19.224   4.167  1.00  0.00     0.282 C 
BRANCH  10  11
HETATM   11  O   UNL     1      13.171  17.858   4.176  1.00  0.00    -0.383 OA
HETATM   12  H   UNL     1      12.411  17.496   4.491  1.00  0.00     0.211 HD
ENDBRANCH  10  11
ENDBRANCH   8  10
ENDBRANCH   7   8
ENDBRANCH   6   7
ENDBRANCH   5   6
ENDBRANCH   1   5
BRANCH   3  13
HETATM   13  C   UNL     1       8.794  16.372   1.545  1.00  0.00     0.199 C 
HETATM   14  N   UNL     1       9.811  15.689   1.946  1.00  0.00    -0.362 N 
ATOM     15  HN  UNL     1      10.724  15.988   1.605  1.00  0.00     0.166 HD
BRANCH  14  16
HETATM   16  C   UNL     1       9.797  14.643   2.752  1.00  0.00     0.078 C 
HETATM   17  C   UNL     1       8.722  14.447   3.569  1.00  0.00     0.029 C 
ENDBRANCH  14  16
ENDBRANCH   3  13
TORSDOF 8
ENDMDL
MODEL 4
REMARK VINA RESULT:    -4.432     23.946     25.853
REMARK INTER + INTRA:          -6.880
REMARK INTER:                  -6.296
REMARK INTRA:                  -0.584
REMARK UNBOUND:                -0.505
REMARK  8 active torsions:
REMARK  status: ('A' for Active; 'I' for Inactive)
REMARK    1  A    between atoms: O_2  and  C_3 
REMARK    2  A    between atoms: C_3  and  N_4 
REMARK    3  A    between atoms: N_4  and  C_5 
REMARK    4  A    between atoms: C_5  and  C_6 
REMARK    5  A    between atoms: C_6  and  O_8 
REMARK    6  A    between atoms: O_8  and  N_9 
REMARK    7  A    between atoms: N_11  and  C_13 
REMARK    8  A    between atoms: C_14  and  N_15 
ROOT
HETATM    1  N   UNL     1      10.076  -0.389  21.259  1.00  0.00    -0.207 N 
ATOM      2  HN  UNL     1      10.568   0.030  20.469  1.00  0.00     0.216 HD
HETATM    3  N   UNL     1      10.799  -1.200  21.883  1.00  0.00    -0.277 N 
ATOM      4  HN  UNL     1      11.746  -1.371  21.542  1.00  0.00     0.189 HD
ENDROOT
BRANCH   1   5
HETATM    5  O   UNL     1       8.890   0.040  21.361  1.00  0.00    -0.263 OA
BRANCH   5   6
HETATM    6  C   UNL     1       8.071  -0.034  20.248  1.00  0.00     0.222 C 
BRANCH   6   7
HETATM    7  C   UNL     1       6.768  -0.509  20.883  1.00  0.00     0.144 C 
BRANCH   7   8
HETATM    8  N   UNL     1       5.587  -0.289  20.050  1.00  0.00    -0.399 N 
HETATM    9  H   UNL     1       4.840  -0.549  20.698  1.00  0.00     0.155 HD
BRANCH   8  10
HETATM   10  C   UNL     1       5.374   0.243  18.763  1.00  0.00     0.282 C 
BRANCH  10  11
HETATM   11  O   UNL     1       5.651  -0.546  17.585  1.00  0.00    -0.383 OA
HETATM   12  H   UNL     1       4.915  -0.303  17.131  1.00  0.00     0.211 HD
ENDBRANCH  10  11
ENDBRANCH   8  10
ENDBRANCH   7   8
ENDBRANCH   6   7
ENDBRANCH   5   6
ENDBRANCH   1   5
BRANCH   3  13
HETATM   13  C   UNL     1      10.401  -1.831  22.943  1.00  0.00     0.199 C 
HETATM   14  N   UNL     1       9.350  -2.546  22.727  1.00  0.00    -0.362 N 
ATOM     15  HN  UNL     1       9.169  -2.808  21.758  1.00  0.00     0.166 HD
BRANCH  14  16
HETATM   16  C   UNL     1       8.482  -2.974  23.625  1.00  0.00     0.078 C 
HETATM   17  C   UNL     1       7.843  -4.162  23.418  1.00  0.00     0.029 C 
ENDBRANCH  14  16
ENDBRANCH   3  13
TORSDOF 8
ENDMDL
MODEL 5
REMARK VINA RESULT:    -4.380     35.533     37.118
REMARK INTER + INTRA:          -6.806
REMARK INTER:                  -6.025
REMARK INTRA:                  -0.781
REMARK UNBOUND:                -0.505
REMARK  8 active torsions:
REMARK  status: ('A' for Active; 'I' for Inactive)
REMARK    1  A    between atoms: O_2  and  C_3 
REMARK    2  A    between atoms: C_3  and  N_4 
REMARK    3  A    between atoms: N_4  and  C_5 
REMARK    4  A    between atoms: C_5  and  C_6 
REMARK    5  A    between atoms: C_6  and  O_8 
REMARK    6  A    between atoms: O_8  and  N_9 
REMARK    7  A    between atoms: N_11  and  C_13 
REMARK    8  A    between atoms: C_14  and  N_15 
ROOT
HETATM    1  N   UNL     1       2.199 -18.199   9.287  1.00  0.00    -0.207 N 
ATOM      2  HN  UNL     1       2.031 -17.208   9.110  1.00  0.00     0.216 HD
HETATM    3  N   UNL     1       3.299 -18.577   8.822  1.00  0.00    -0.277 N 
ATOM      4  HN  UNL     1       3.873 -17.902   8.317  1.00  0.00     0.189 HD
ENDROOT
BRANCH   1   5
HETATM    5  O   UNL     1       1.244 -18.736   9.921  1.00  0.00    -0.263 OA
BRANCH   5   6
HETATM    6  C   UNL     1       0.090 -19.046   9.222  1.00  0.00     0.222 C 
BRANCH   6   7
HETATM    7  C   UNL     1      -0.857 -17.969   9.742  1.00  0.00     0.144 C 
BRANCH   7   8
HETATM    8  N   UNL     1      -0.811 -16.721   8.980  1.00  0.00    -0.399 N 
HETATM    9  H   UNL     1      -1.465 -16.931   8.223  1.00  0.00     0.155 HD
BRANCH   8  10
HETATM   10  C   UNL     1      -0.196 -15.470   9.176  1.00  0.00     0.282 C 
BRANCH  10  11
HETATM   11  O   UNL     1       1.239 -15.367   9.312  1.00  0.00    -0.383 OA
HETATM   12  H   UNL     1       1.236 -15.110  10.172  1.00  0.00     0.211 HD
ENDBRANCH  10  11
ENDBRANCH   8  10
ENDBRANCH   7   8
ENDBRANCH   6   7
ENDBRANCH   5   6
ENDBRANCH   1   5
BRANCH   3  13
HETATM   13  C   UNL     1       3.743 -19.789   8.954  1.00  0.00     0.199 C 
HETATM   14  N   UNL     1       3.082 -20.637   8.244  1.00  0.00    -0.362 N 
ATOM     15  HN  UNL     1       2.565 -20.261   7.449  1.00  0.00     0.166 HD
BRANCH  14  16
HETATM   16  C   UNL     1       3.001 -21.941   8.436  1.00  0.00     0.078 C 
HETATM   17  C   UNL     1       3.569 -22.783   7.525  1.00  0.00     0.029 C 
ENDBRANCH  14  16
ENDBRANCH   3  13
TORSDOF 8
ENDMDL
MODEL 6
REMARK VINA RESULT:    -4.267     25.813     27.595
REMARK INTER + INTRA:          -6.643
REMARK INTER:                  -6.138
REMARK INTRA:                  -0.504
REMARK UNBOUND:                -0.505
REMARK  8 active torsions:
REMARK  status: ('A' for Active; 'I' for Inactive)
REMARK    1  A    between atoms: O_2  and  C_3 
REMARK    2  A    between atoms: C_3  and  N_4 
REMARK    3  A    between atoms: N_4  and  C_5 
REMARK    4  A    between atoms: C_5  and  C_6 
REMARK    5  A    between atoms: C_6  and  O_8 
REMARK    6  A    between atoms: O_8  and  N_9 
REMARK    7  A    between atoms: N_11  and  C_13 
REMARK    8  A    between atoms: C_14  and  N_15 
ROOT
HETATM    1  N   UNL     1       8.827  -2.910  23.060  1.00  0.00    -0.207 N 
ATOM      2  HN  UNL     1       9.646  -2.318  23.201  1.00  0.00     0.216 HD
HETATM    3  N   UNL     1       8.832  -3.906  23.819  1.00  0.00    -0.277 N 
ATOM      4  HN  UNL     1       9.624  -4.035  24.449  1.00  0.00     0.189 HD
ENDROOT
BRANCH   1   5
HETATM    5  O   UNL     1       8.062  -2.451  22.161  1.00  0.00    -0.263 OA
BRANCH   5   6
HETATM    6  C   UNL     1       8.311  -1.178  21.679  1.00  0.00     0.222 C 
BRANCH   6   7
HETATM    7  C   UNL     1       6.891  -0.630  21.574  1.00  0.00     0.144 C 
BRANCH   7   8
HETATM    8  N   UNL     1       5.995  -1.456  20.767  1.00  0.00    -0.399 N 
HETATM    9  H   UNL     1       5.677  -2.135  21.462  1.00  0.00     0.155 HD
BRANCH   8  10
HETATM   10  C   UNL     1       5.512  -1.385  19.446  1.00  0.00     0.282 C 
BRANCH  10  11
HETATM   11  O   UNL     1       5.185  -2.587  18.715  1.00  0.00    -0.383 OA
HETATM   12  H   UNL     1       5.825  -2.497  18.091  1.00  0.00     0.211 HD
ENDBRANCH  10  11
ENDBRANCH   8  10
ENDBRANCH   7   8
ENDBRANCH   6   7
ENDBRANCH   5   6
ENDBRANCH   1   5
BRANCH   3  13
HETATM   13  C   UNL     1       7.875  -4.781  23.842  1.00  0.00     0.199 C 
HETATM   14  N   UNL     1       7.626  -5.271  22.676  1.00  0.00    -0.362 N 
ATOM     15  HN  UNL     1       8.372  -5.202  21.984  1.00  0.00     0.166 HD
BRANCH  14  16
HETATM   16  C   UNL     1       6.507  -5.851  22.281  1.00  0.00     0.078 C 
HETATM   17  C   UNL     1       6.111  -5.717  20.982  1.00  0.00     0.029 C 
ENDBRANCH  14  16
ENDBRANCH   3  13
TORSDOF 8
ENDMDL
MODEL 7
REMARK VINA RESULT:    -4.235      4.338      5.970
REMARK INTER + INTRA:          -6.597
REMARK INTER:                  -6.459
REMARK INTRA:                  -0.138
REMARK UNBOUND:                -0.505
REMARK  8 active torsions:
REMARK  status: ('A' for Active; 'I' for Inactive)
REMARK    1  A    between atoms: O_2  and  C_3 
REMARK    2  A    between atoms: C_3  and  N_4 
REMARK    3  A    between atoms: N_4  and  C_5 
REMARK    4  A    between atoms: C_5  and  C_6 
REMARK    5  A    between atoms: C_6  and  O_8 
REMARK    6  A    between atoms: O_8  and  N_9 
REMARK    7  A    between atoms: N_11  and  C_13 
REMARK    8  A    between atoms: C_14  and  N_15 
ROOT
HETATM    1  N   UNL     1       9.175  12.648   3.386  1.00  0.00    -0.207 N 
ATOM      2  HN  UNL     1      10.190  12.587   3.475  1.00  0.00     0.216 HD
HETATM    3  N   UNL     1       8.624  11.535   3.547  1.00  0.00    -0.277 N 
ATOM      4  HN  UNL     1       9.213  10.718   3.713  1.00  0.00     0.189 HD
ENDROOT
BRANCH   1   5
HETATM    5  O   UNL     1       8.791  13.829   3.142  1.00  0.00    -0.263 OA
BRANCH   5   6
HETATM    6  C   UNL     1       9.697  14.704   2.567  1.00  0.00     0.222 C 
BRANCH   6   7
HETATM    7  C   UNL     1       8.767  15.831   2.129  1.00  0.00     0.144 C 
BRANCH   7   8
HETATM    8  N   UNL     1       9.459  16.978   1.545  1.00  0.00    -0.399 N 
HETATM    9  H   UNL     1      10.341  16.958   2.062  1.00  0.00     0.155 HD
BRANCH   8  10
HETATM   10  C   UNL     1       9.177  17.865   0.488  1.00  0.00     0.282 C 
BRANCH  10  11
HETATM   11  O   UNL     1       7.874  17.879  -0.136  1.00  0.00    -0.383 OA
HETATM   12  H   UNL     1       7.493  17.290   0.426  1.00  0.00     0.211 HD
ENDBRANCH  10  11
ENDBRANCH   8  10
ENDBRANCH   7   8
ENDBRANCH   6   7
ENDBRANCH   5   6
ENDBRANCH   1   5
BRANCH   3  13
HETATM   13  C   UNL     1       7.338  11.372   3.511  1.00  0.00     0.199 C 
HETATM   14  N   UNL     1       6.929  10.480   4.349  1.00  0.00    -0.362 N 
ATOM     15  HN  UNL     1       7.548  10.275   5.133  1.00  0.00     0.166 HD
BRANCH  14  16
HETATM   16  C   UNL     1       5.797   9.804   4.299  1.00  0.00     0.078 C 
HETATM   17  C   UNL     1       5.680   8.649   5.017  1.00  0.00     0.029 C 
ENDBRANCH  14  16
ENDBRANCH   3  13
TORSDOF 8
ENDMDL
MODEL 8
REMARK VINA RESULT:    -4.198     36.520     38.092
REMARK INTER + INTRA:          -6.543
REMARK INTER:                  -6.046
REMARK INTRA:                  -0.498
REMARK UNBOUND:                -0.505
REMARK  8 active torsions:
REMARK  status: ('A' for Active; 'I' for Inactive)
REMARK    1  A    between atoms: O_2  and  C_3 
REMARK    2  A    between atoms: C_3  and  N_4 
REMARK    3  A    between atoms: N_4  and  C_5 
REMARK    4  A    between atoms: C_5  and  C_6 
REMARK    5  A    between atoms: C_6  and  O_8 
REMARK    6  A    between atoms: O_8  and  N_9 
REMARK    7  A    between atoms: N_11  and  C_13 
REMARK    8  A    between atoms: C_14  and  N_15 
ROOT
HETATM    1  N   UNL     1       3.060 -19.934   7.582  1.00  0.00    -0.207 N 
ATOM      2  HN  UNL     1       3.455 -18.993   7.581  1.00  0.00     0.216 HD
HETATM    3  N   UNL     1       3.950 -20.816   7.570  1.00  0.00    -0.277 N 
ATOM      4  HN  UNL     1       4.927 -20.521   7.534  1.00  0.00     0.189 HD
ENDROOT
BRANCH   1   5
HETATM    5  O   UNL     1       1.794 -19.917   7.595  1.00  0.00    -0.263 OA
BRANCH   5   6
HETATM    6  C   UNL     1       1.161 -18.732   7.929  1.00  0.00     0.222 C 
BRANCH   6   7
HETATM    7  C   UNL     1       1.505 -18.633   9.412  1.00  0.00     0.144 C 
BRANCH   7   8
HETATM    8  N   UNL     1       0.944 -17.456  10.074  1.00  0.00    -0.399 N 
HETATM    9  H   UNL     1       1.147 -17.669  11.054  1.00  0.00     0.155 HD
BRANCH   8  10
HETATM   10  C   UNL     1       0.378 -16.249   9.623  1.00  0.00     0.282 C 
BRANCH  10  11
HETATM   11  O   UNL     1       1.218 -15.138   9.240  1.00  0.00    -0.383 OA
HETATM   12  H   UNL     1       0.556 -14.624   8.916  1.00  0.00     0.211 HD
ENDBRANCH  10  11
ENDBRANCH   8  10
ENDBRANCH   7   8
ENDBRANCH   6   7
ENDBRANCH   5   6
ENDBRANCH   1   5
BRANCH   3  13
HETATM   13  C   UNL     1       3.688 -22.085   7.601  1.00  0.00     0.199 C 
HETATM   14  N   UNL     1       2.972 -22.417   8.621  1.00  0.00    -0.362 N 
ATOM     15  HN  UNL     1       2.429 -21.672   9.058  1.00  0.00     0.166 HD
BRANCH  14  16
HETATM   16  C   UNL     1       2.866 -23.617   9.160  1.00  0.00     0.078 C 
HETATM   17  C   UNL     1       2.698 -24.699   8.345  1.00  0.00     0.029 C 
ENDBRANCH  14  16
ENDBRANCH   3  13
TORSDOF 8
ENDMDL
MODEL 9
REMARK VINA RESULT:    -4.102     35.182     36.533
REMARK INTER + INTRA:          -6.405
REMARK INTER:                  -5.739
REMARK INTRA:                  -0.666
REMARK UNBOUND:                -0.505
REMARK  8 active torsions:
REMARK  status: ('A' for Active; 'I' for Inactive)
REMARK    1  A    between atoms: O_2  and  C_3 
REMARK    2  A    between atoms: C_3  and  N_4 
REMARK    3  A    between atoms: N_4  and  C_5 
REMARK    4  A    between atoms: C_5  and  C_6 
REMARK    5  A    between atoms: C_6  and  O_8 
REMARK    6  A    between atoms: O_8  and  N_9 
REMARK    7  A    between atoms: N_11  and  C_13 
REMARK    8  A    between atoms: C_14  and  N_15 
ROOT
HETATM    1  N   UNL     1      -0.724 -16.060  12.177  1.00  0.00    -0.207 N 
ATOM      2  HN  UNL     1      -0.171 -15.408  11.620  1.00  0.00     0.216 HD
HETATM    3  N   UNL     1      -0.559 -15.883  13.406  1.00  0.00    -0.277 N 
ATOM      4  HN  UNL     1       0.096 -15.162  13.710  1.00  0.00     0.189 HD
ENDROOT
BRANCH   1   5
HETATM    5  O   UNL     1      -1.403 -16.845  11.451  1.00  0.00    -0.263 OA
BRANCH   5   6
HETATM    6  C   UNL     1      -1.856 -16.377  10.230  1.00  0.00     0.222 C 
BRANCH   6   7
HETATM    7  C   UNL     1      -0.636 -15.595   9.753  1.00  0.00     0.144 C 
BRANCH   7   8
HETATM    8  N   UNL     1       0.301 -16.385   8.957  1.00  0.00    -0.399 N 
HETATM    9  H   UNL     1       0.371 -15.812   8.113  1.00  0.00     0.155 HD
BRANCH   8  10
HETATM   10  C   UNL     1       1.063 -17.545   9.196  1.00  0.00     0.282 C 
BRANCH  10  11
HETATM   11  O   UNL     1       1.278 -18.021  10.543  1.00  0.00    -0.383 OA
HETATM   12  H   UNL     1       1.094 -17.242  10.951  1.00  0.00     0.211 HD
ENDBRANCH  10  11
ENDBRANCH   8  10
ENDBRANCH   7   8
ENDBRANCH   6   7
ENDBRANCH   5   6
ENDBRANCH   1   5
BRANCH   3  13
HETATM   13  C   UNL     1      -1.184 -16.573  14.309  1.00  0.00     0.199 C 
HETATM   14  N   UNL     1      -1.880 -15.832  15.102  1.00  0.00    -0.362 N 
ATOM     15  HN  UNL     1      -2.139 -14.909  14.753  1.00  0.00     0.166 HD
BRANCH  14  16
HETATM   16  C   UNL     1      -2.294 -16.141  16.317  1.00  0.00     0.078 C 
HETATM   17  C   UNL     1      -2.979 -17.305  16.511  1.00  0.00     0.029 C 
ENDBRANCH  14  16
ENDBRANCH   3  13
TORSDOF 8
ENDMDL
