REMARK  9 active torsions:
REMARK  status: ('A' for Active; 'I' for Inactive)
REMARK    1  A    between atoms: S_2  and  N_5 
REMARK    2  A    between atoms: C_7  and  C_8 
REMARK    3  A    between atoms: C_8  and  C_9 
REMARK    4  A    between atoms: C_9  and  C_15 
REMARK    5  A    between atoms: C_9  and  C_14 
REMARK    6  A    between atoms: C_11  and  C_12 
REMARK    7  A    between atoms: C_13  and  C_14 
REMARK    8  A    between atoms: C_15  and  C_16 
REMARK       I    between atoms: C_16  and  N_18 
REMARK    9  A    between atoms: N_18  and  C_20 
ROOT
HETATM    1  C   UNL     1      10.338  -1.216  23.169  1.00  0.00     0.109 C 
ENDROOT
BRANCH   1   2
HETATM    2  C   UNL     1       9.414  -2.026  23.518  1.00  0.00     0.011 C 
BRANCH   2   3
HETATM    3  C   UNL     1       8.939  -2.891  24.142  1.00  0.00     0.097 C 
HETATM    4  N   UNL     1       8.083  -3.546  24.726  1.00  0.00    -0.296 N 
ATOM      5  HN  UNL     1       7.172  -3.613  24.272  1.00  0.00     0.177 HD
BRANCH   4   6
HETATM    6  S   UNL     1       8.240  -4.301  26.114  1.00  0.00     0.226 S 
HETATM    7  C   UNL     1       6.539  -4.909  26.482  1.00  0.00     0.186 C 
HETATM    8  O   UNL     1       9.102  -5.465  26.044  1.00  0.00    -0.206 OA
HETATM    9  O   UNL     1       8.624  -3.442  27.174  1.00  0.00    -0.206 OA
ENDBRANCH   4   6
ENDBRANCH   2   3
ENDBRANCH   1   2
BRANCH   1  10
HETATM   10  C   UNL     1       9.703  -0.592  22.351  1.00  0.00    -0.071 C 
BRANCH  10  11
HETATM   11  C   UNL     1       9.043   0.038  21.383  1.00  0.00     0.289 C 
HETATM   12  O   UNL     1       9.529   1.019  21.040  1.00  0.00    -0.259 OA
HETATM   13  N   UNL     1       7.912  -0.575  21.049  1.00  0.00    -0.315 N 
ATOM     14  HN  UNL     1       7.632  -1.442  21.507  1.00  0.00     0.170 HD
BRANCH  13  15
HETATM   15  C   UNL     1       7.192  -0.057  20.150  1.00  0.00     0.068 A 
HETATM   16  C   UNL     1       7.260   0.072  18.831  1.00  0.00     0.118 A 
HETATM   17  N   UNL     1       6.816   0.359  17.744  1.00  0.00    -0.373 N 
HETATM   18  C   UNL     1       5.640   0.894  18.242  1.00  0.00     0.089 A 
ATOM     19  HN  UNL     1       7.178   0.247  16.797  1.00  0.00     0.164 HD
HETATM   20  C   UNL     1       5.285   0.976  19.358  1.00  0.00     0.038 A 
HETATM   21  C   UNL     1       5.814   0.581  20.505  1.00  0.00     0.040 A 
HETATM   22 BR   UNL     1       5.213   0.693  22.083  1.00  0.00    -0.049 Br
ENDBRANCH  13  15
ENDBRANCH  10  11
ENDBRANCH   1  10
BRANCH   1  23
HETATM   23  C   UNL     1      11.763  -1.719  22.553  1.00  0.00    -0.006 C 
BRANCH  23  24
HETATM   24  C   UNL     1      12.763  -1.280  22.670  1.00  0.00    -0.002 C 
HETATM   25  C   UNL     1      13.213  -0.211  23.424  1.00  0.00    -0.001 C 
BRANCH  25  26
HETATM   26  C   UNL     1      12.054   0.290  24.257  1.00  0.00    -0.010 C 
HETATM   27  C   UNL     1      11.106   0.015  24.286  1.00  0.00     0.011 C 
ENDBRANCH  25  26
ENDBRANCH  23  24
ENDBRANCH   1  23
TORSDOF 9
