
 OpenBabel07202414153D

 15 15  0  0  0  0  0  0  0  0999 V2000
    1.4452   -0.9781   -0.2128 C   0  0  0  0  0  0  0  0  0  0  0  0
    2.5198   -0.0778    0.0423 O   0  0  0  0  0  0  0  0  0  0  0  0
    3.1411   -0.2060    1.2444 C   0  0  0  0  0  0  0  0  0  0  0  0
    2.8297   -1.0766    2.2682 C   0  0  0  0  0  0  0  0  0  0  0  0
    3.5042   -1.1435    3.4387 N   0  0  0  0  0  0  0  0  0  0  0  0
    4.5367   -0.2874    3.5713 C   0  0  0  0  0  0  0  0  0  0  0  0
    4.9345    0.6082    2.6476 N   0  0  0  0  0  0  0  0  0  0  0  0
    4.2167    0.6217    1.5016 C   0  0  0  0  0  0  0  0  0  0  0  0
    5.2779   -0.3415    4.8055 C   0  0  0  0  0  0  0  0  0  0  0  0
    5.8732   -0.3912    5.8040 N   0  0  0  0  0  0  0  0  0  0  0  0
    1.0682   -0.7781   -1.2203 H   0  0  0  0  0  0  0  0  0  0  0  0
    0.6225   -0.8162    0.4917 H   0  0  0  0  0  0  0  0  0  0  0  0
    1.7880   -2.0180   -0.1844 H   0  0  0  0  0  0  0  0  0  0  0  0
    2.0061   -1.7798    2.2012 H   0  0  0  0  0  0  0  0  0  0  0  0
    4.5467    1.3475    0.7617 H   0  0  0  0  0  0  0  0  0  0  0  0
  1  2  1  0  0  0  0
  1 11  1  0  0  0  0
  1 12  1  0  0  0  0
  1 13  1  0  0  0  0
  2  3  1  0  0  0  0
  3  4  1  0  0  0  0
  3  8  2  0  0  0  0
  4  5  2  0  0  0  0
  4 14  1  0  0  0  0
  5  6  1  0  0  0  0
  6  7  2  0  0  0  0
  6  9  1  0  0  0  0
  7  8  1  0  0  0  0
  8 15  1  0  0  0  0
  9 10  3  0  0  0  0
M  END
$$$$
