
 OpenBabel07202414173D

 54 58  0  0  1  0  0  0  0  0999 V2000
    1.0577   -0.1237   -0.1188 Cl  0  0  0  0  0  0  0  0  0  0  0  0
    2.7736   -0.1288   -0.0042 C   0  0  0  0  0  0  0  0  0  0  0  0
    3.4740    1.0671   -0.1374 C   0  0  0  0  0  0  0  0  0  0  0  0
    4.8641    1.0607   -0.0764 C   0  0  0  0  0  0  0  0  0  0  0  0
    5.5662   -0.1381    0.1317 C   0  0  0  0  0  0  0  0  0  0  0  0
    4.8564   -1.3414    0.2970 C   0  0  0  0  0  0  0  0  0  0  0  0
    3.4535   -1.3267    0.2133 C   0  0  0  0  0  0  0  0  0  0  0  0
    5.5980   -2.6425    0.5909 C   0  0  3  0  0  0  0  0  0  0  0  0
    5.4714   -3.0513    2.0896 C   0  0  0  0  0  0  0  0  0  0  0  0
    4.4908   -2.7203    2.7509 O   0  0  0  0  0  0  0  0  0  0  0  0
    6.4580   -3.8998    2.5633 N   0  0  0  0  0  0  0  0  0  0  0  0
    6.6073   -4.4098    3.8776 C   0  0  0  0  0  0  0  0  0  0  0  0
    5.7579   -4.0838    4.9350 C   0  0  0  0  0  0  0  0  0  0  0  0
    6.0657   -4.2882    6.2379 N   0  0  0  0  0  0  0  0  0  0  0  0
    7.2058   -4.9614    6.4900 C   0  0  0  0  0  0  0  0  0  0  0  0
    7.9903   -5.5688    5.5118 C   0  0  0  0  0  0  0  0  0  0  0  0
    8.9985   -6.4886    5.8508 C   0  0  0  0  0  0  0  0  0  0  0  0
    9.7660   -7.0864    4.8565 C   0  0  0  0  0  0  0  0  0  0  0  0
   10.9081   -8.3047    5.2671 Cl  0  0  0  0  0  0  0  0  0  0  0  0
    9.5862   -6.7292    3.5286 C   0  0  0  0  0  0  0  0  0  0  0  0
    8.5799   -5.8220    3.1865 C   0  0  0  0  0  0  0  0  0  0  0  0
    7.7241   -5.2476    4.1626 C   0  0  0  0  0  0  0  0  0  0  0  0
    7.0209   -2.5463    0.0126 C   0  0  0  0  0  0  0  0  0  0  0  0
    7.7479   -1.3411    0.5369 N   0  0  0  0  0  0  0  0  0  0  0  0
    9.4265   -1.3823    0.1952 S   0  0  0  0  0  0  0  0  0  0  0  0
    9.9031   -2.6064    0.7956 O   0  0  0  0  0  0  0  0  0  0  0  0
    9.5687   -1.1469   -1.2279 O   0  0  0  0  0  0  0  0  0  0  0  0
   10.0742    0.0442    1.0984 C   0  0  0  0  0  0  0  0  0  0  0  0
   11.5471    0.1539    0.8025 C   0  0  0  0  0  0  0  0  0  0  0  0
   12.3690   -0.9693    1.1935 C   0  0  0  0  0  0  0  0  0  0  0  0
   13.0675   -1.8344    1.5262 N   0  0  0  0  0  0  0  0  0  0  0  0
   12.0279    1.0140   -0.3653 C   0  0  0  0  0  0  0  0  0  0  0  0
   12.2061    1.5150    1.0343 C   0  0  0  0  0  0  0  0  0  0  0  0
    7.0740   -0.0959    0.0862 C   0  0  0  0  0  0  0  0  0  0  0  0
    2.9447    2.0028   -0.2936 H   0  0  0  0  0  0  0  0  0  0  0  0
    5.4034    1.9985   -0.2020 H   0  0  0  0  0  0  0  0  0  0  0  0
    2.8880   -2.2487    0.3352 H   0  0  0  0  0  0  0  0  0  0  0  0
    5.0933   -3.4499    0.0407 H   0  0  0  0  0  0  0  0  0  0  0  0
    7.2777   -4.0209    1.9942 H   0  0  0  0  0  0  0  0  0  0  0  0
    4.7920   -3.6120    4.7925 H   0  0  0  0  0  0  0  0  0  0  0  0
    7.4815   -5.0012    7.5418 H   0  0  0  0  0  0  0  0  0  0  0  0
    9.1439   -6.7850    6.8881 H   0  0  0  0  0  0  0  0  0  0  0  0
   10.2045   -7.1678    2.7480 H   0  0  0  0  0  0  0  0  0  0  0  0
    8.4536   -5.6150    2.1256 H   0  0  0  0  0  0  0  0  0  0  0  0
    6.9639   -2.4732   -1.0817 H   0  0  0  0  0  0  0  0  0  0  0  0
    7.5878   -3.4574    0.2205 H   0  0  0  0  0  0  0  0  0  0  0  0
    9.8820   -0.1087    2.1627 H   0  0  0  0  0  0  0  0  0  0  0  0
    9.5523    0.9362    0.7423 H   0  0  0  0  0  0  0  0  0  0  0  0
   11.3009    1.5193   -0.9904 H   0  0  0  0  0  0  0  0  0  0  0  0
   12.9180    0.7069   -0.9099 H   0  0  0  0  0  0  0  0  0  0  0  0
   11.5982    2.3503    1.3604 H   0  0  0  0  0  0  0  0  0  0  0  0
   13.2202    1.5484    1.4295 H   0  0  0  0  0  0  0  0  0  0  0  0
    7.3620    0.1303   -0.9467 H   0  0  0  0  0  0  0  0  0  0  0  0
    7.3978    0.7207    0.7393 H   0  0  0  0  0  0  0  0  0  0  0  0
  1  2  1  0  0  0  0
  2  3  1  0  0  0  0
  2  7  2  0  0  0  0
  3  4  2  0  0  0  0
  3 35  1  0  0  0  0
  4  5  1  0  0  0  0
  4 36  1  0  0  0  0
  5  6  2  0  0  0  0
  5 34  1  0  0  0  0
  6  7  1  0  0  0  0
  6  8  1  0  0  0  0
  7 37  1  0  0  0  0
  8  9  1  0  0  0  0
  8 23  1  0  0  0  0
  8 38  1  0  0  0  0
  9 10  2  0  0  0  0
  9 11  1  0  0  0  0
 11 12  1  0  0  0  0
 11 39  1  0  0  0  0
 12 13  1  0  0  0  0
 12 22  2  0  0  0  0
 13 14  2  0  0  0  0
 13 40  1  0  0  0  0
 14 15  1  0  0  0  0
 15 16  2  0  0  0  0
 15 41  1  0  0  0  0
 16 17  1  0  0  0  0
 16 22  1  0  0  0  0
 17 18  2  0  0  0  0
 17 42  1  0  0  0  0
 18 19  1  0  0  0  0
 18 20  1  0  0  0  0
 20 21  2  0  0  0  0
 20 43  1  0  0  0  0
 21 22  1  0  0  0  0
 21 44  1  0  0  0  0
 23 24  1  0  0  0  0
 23 45  1  0  0  0  0
 23 46  1  0  0  0  0
 24 25  1  0  0  0  0
 24 34  1  0  0  0  0
 25 26  2  0  0  0  0
 25 27  2  0  0  0  0
 25 28  1  0  0  0  0
 28 29  1  0  0  0  0
 28 47  1  0  0  0  0
 28 48  1  0  0  0  0
 29 30  1  0  0  0  0
 29 32  1  0  0  0  0
 29 33  1  0  0  0  0
 30 31  3  0  0  0  0
 32 33  1  0  0  0  0
 32 49  1  0  0  0  0
 32 50  1  0  0  0  0
 33 51  1  0  0  0  0
 33 52  1  0  0  0  0
 34 53  1  0  0  0  0
 34 54  1  0  0  0  0
M  END
$$$$
