
 OpenBabel07202414163D

 67 70  0  0  1  0  0  0  0  0999 V2000
    1.7057   -0.1503    2.9918 C   0  0  0  0  0  0  0  0  0  0  0  0
    0.7793    0.3414    1.9201 C   0  0  0  0  0  0  0  0  0  0  0  0
    0.3117   -0.5115    0.9128 C   0  0  0  0  0  0  0  0  0  0  0  0
   -0.5893   -0.0470   -0.0526 C   0  0  0  0  0  0  0  0  0  0  0  0
   -1.0401    1.2782   -0.0196 C   0  0  0  0  0  0  0  0  0  0  0  0
   -0.5335    2.1381    0.9661 C   0  0  0  0  0  0  0  0  0  0  0  0
    0.3620    1.6753    1.9283 C   0  0  0  0  0  0  0  0  0  0  0  0
   -2.0486    1.8050   -1.0187 C   0  0  0  0  0  0  0  0  0  0  0  0
   -3.1951    2.4280   -0.3442 N   0  0  0  0  0  0  0  0  0  0  0  0
   -4.1591    1.4603    0.1890 C   0  0  0  0  0  0  0  0  0  0  0  0
   -5.4895    1.7839   -0.4710 C   0  0  0  0  0  0  0  0  0  0  0  0
   -5.3816    3.2588   -0.8363 C   0  0  3  0  0  0  0  0  0  0  0  0
   -3.9019    3.3981   -1.1835 C   0  0  0  0  0  0  0  0  0  0  0  0
   -5.8055    4.1668    0.3262 C   0  0  0  0  0  0  0  0  0  0  0  0
   -5.8233    5.5692   -0.0642 N   0  0  0  0  0  0  0  0  0  0  0  0
   -6.9346    6.0844   -0.6930 C   0  0  0  0  0  0  0  0  0  0  0  0
   -7.9130    5.3959   -0.9650 O   0  0  0  0  0  0  0  0  0  0  0  0
   -6.7823    7.4228   -1.0043 N   0  0  0  0  0  0  0  0  0  0  0  0
   -7.7731    8.2297   -1.5407 C   0  0  0  0  0  0  0  0  0  0  0  0
   -9.0755    7.9926   -1.3179 C   0  0  0  0  0  0  0  0  0  0  0  0
  -10.1129    8.7443   -1.8316 N   0  0  0  0  0  0  0  0  0  0  0  0
   -9.8813    9.8328   -2.6733 C   0  0  0  0  0  0  0  0  0  0  0  0
  -10.7741   10.5249   -3.1563 O   0  0  0  0  0  0  0  0  0  0  0  0
   -8.4594   10.1609   -2.9597 C   0  0  0  0  0  0  0  0  0  0  0  0
   -7.4216    9.4087   -2.3750 C   0  0  0  0  0  0  0  0  0  0  0  0
   -6.1001    9.8054   -2.6499 C   0  0  0  0  0  0  0  0  0  0  0  0
   -5.8268   10.9022   -3.4789 C   0  0  0  0  0  0  0  0  0  0  0  0
   -6.8670   11.6192   -4.0623 C   0  0  0  0  0  0  0  0  0  0  0  0
   -8.1825   11.2492   -3.8052 C   0  0  0  0  0  0  0  0  0  0  0  0
  -11.4846    8.4403   -1.4181 C   0  0  0  0  0  0  0  0  0  0  0  0
  -12.2472    7.4024   -2.2666 C   0  0  0  0  0  0  0  0  0  0  0  0
  -12.4502    7.8437   -3.7142 C   0  0  0  0  0  0  0  0  0  0  0  0
  -11.6244    6.0075   -2.2166 C   0  0  0  0  0  0  0  0  0  0  0  0
    1.9075   -1.2212    2.8902 H   0  0  0  0  0  0  0  0  0  0  0  0
    1.2554    0.0115    3.9772 H   0  0  0  0  0  0  0  0  0  0  0  0
    2.6600    0.3832    2.9421 H   0  0  0  0  0  0  0  0  0  0  0  0
    0.6362   -1.5492    0.8800 H   0  0  0  0  0  0  0  0  0  0  0  0
   -0.9440   -0.7332   -0.8180 H   0  0  0  0  0  0  0  0  0  0  0  0
   -0.8643    3.1740    0.9969 H   0  0  0  0  0  0  0  0  0  0  0  0
    0.7178    2.3605    2.6934 H   0  0  0  0  0  0  0  0  0  0  0  0
   -2.3755    1.0151   -1.7090 H   0  0  0  0  0  0  0  0  0  0  0  0
   -1.5180    2.5462   -1.6317 H   0  0  0  0  0  0  0  0  0  0  0  0
   -4.2356    1.6216    1.2707 H   0  0  0  0  0  0  0  0  0  0  0  0
   -3.8902    0.4090    0.0364 H   0  0  0  0  0  0  0  0  0  0  0  0
   -6.3411    1.5599    0.1792 H   0  0  0  0  0  0  0  0  0  0  0  0
   -5.5987    1.1885   -1.3863 H   0  0  0  0  0  0  0  0  0  0  0  0
   -6.0009    3.4741   -1.7151 H   0  0  0  0  0  0  0  0  0  0  0  0
   -3.5199    4.4052   -0.9830 H   0  0  0  0  0  0  0  0  0  0  0  0
   -3.7606    3.1938   -2.2514 H   0  0  0  0  0  0  0  0  0  0  0  0
   -5.1385    4.0700    1.1888 H   0  0  0  0  0  0  0  0  0  0  0  0
   -6.8137    3.8902    0.6617 H   0  0  0  0  0  0  0  0  0  0  0  0
   -5.2869    6.2096    0.5032 H   0  0  0  0  0  0  0  0  0  0  0  0
   -5.8229    7.7160   -1.0913 H   0  0  0  0  0  0  0  0  0  0  0  0
   -9.3910    7.1723   -0.6752 H   0  0  0  0  0  0  0  0  0  0  0  0
   -5.2463    9.2797   -2.2346 H   0  0  0  0  0  0  0  0  0  0  0  0
   -4.7978   11.1946   -3.6738 H   0  0  0  0  0  0  0  0  0  0  0  0
   -6.6565   12.4644   -4.7120 H   0  0  0  0  0  0  0  0  0  0  0  0
   -8.9971   11.8099   -4.2598 H   0  0  0  0  0  0  0  0  0  0  0  0
  -12.0574    9.3759   -1.4125 H   0  0  0  0  0  0  0  0  0  0  0  0
  -11.4574    8.1061   -0.3723 H   0  0  0  0  0  0  0  0  0  0  0  0
  -13.2460    7.3185   -1.8161 H   0  0  0  0  0  0  0  0  0  0  0  0
  -11.5075    7.8561   -4.2699 H   0  0  0  0  0  0  0  0  0  0  0  0
  -12.8947    8.8431   -3.7598 H   0  0  0  0  0  0  0  0  0  0  0  0
  -13.1319    7.1580   -4.2298 H   0  0  0  0  0  0  0  0  0  0  0  0
  -10.6564    5.9755   -2.7261 H   0  0  0  0  0  0  0  0  0  0  0  0
  -12.2796    5.2790   -2.7074 H   0  0  0  0  0  0  0  0  0  0  0  0
  -11.4832    5.6786   -1.1819 H   0  0  0  0  0  0  0  0  0  0  0  0
  1  2  1  0  0  0  0
  1 34  1  0  0  0  0
  1 35  1  0  0  0  0
  1 36  1  0  0  0  0
  2  3  1  0  0  0  0
  2  7  2  0  0  0  0
  3  4  2  0  0  0  0
  3 37  1  0  0  0  0
  4  5  1  0  0  0  0
  4 38  1  0  0  0  0
  5  6  2  0  0  0  0
  5  8  1  0  0  0  0
  6  7  1  0  0  0  0
  6 39  1  0  0  0  0
  7 40  1  0  0  0  0
  8  9  1  0  0  0  0
  8 41  1  0  0  0  0
  8 42  1  0  0  0  0
  9 10  1  0  0  0  0
  9 13  1  0  0  0  0
 10 11  1  0  0  0  0
 10 43  1  0  0  0  0
 10 44  1  0  0  0  0
 11 12  1  0  0  0  0
 11 45  1  0  0  0  0
 11 46  1  0  0  0  0
 12 13  1  0  0  0  0
 12 14  1  0  0  0  0
 12 47  1  0  0  0  0
 13 48  1  0  0  0  0
 13 49  1  0  0  0  0
 14 15  1  0  0  0  0
 14 50  1  0  0  0  0
 14 51  1  0  0  0  0
 15 16  1  0  0  0  0
 15 52  1  0  0  0  0
 16 17  2  0  0  0  0
 16 18  1  0  0  0  0
 18 19  1  0  0  0  0
 18 53  1  0  0  0  0
 19 20  2  0  0  0  0
 19 25  1  0  0  0  0
 20 21  1  0  0  0  0
 20 54  1  0  0  0  0
 21 22  1  0  0  0  0
 21 30  1  0  0  0  0
 22 23  2  0  0  0  0
 22 24  1  0  0  0  0
 24 25  1  0  0  0  0
 24 29  2  0  0  0  0
 25 26  2  0  0  0  0
 26 27  1  0  0  0  0
 26 55  1  0  0  0  0
 27 28  2  0  0  0  0
 27 56  1  0  0  0  0
 28 29  1  0  0  0  0
 28 57  1  0  0  0  0
 29 58  1  0  0  0  0
 30 31  1  0  0  0  0
 30 59  1  0  0  0  0
 30 60  1  0  0  0  0
 31 32  1  0  0  0  0
 31 33  1  0  0  0  0
 31 61  1  0  0  0  0
 32 62  1  0  0  0  0
 32 63  1  0  0  0  0
 32 64  1  0  0  0  0
 33 65  1  0  0  0  0
 33 66  1  0  0  0  0
 33 67  1  0  0  0  0
M  END
$$$$
