stable:False satoms:21 tatoms:24 sratio:0.875
  -OEChem-08052423063D

 23 23  0     1  0  0  0  0  0999 V2000
    7.9450   -2.3776   24.3339 H   0  0  0  0  0  0  0  0  0  0  0  0
    9.4017   -3.3839   24.4403 H   0  0  0  0  0  0  0  0  0  0  0  0
    9.1789   -2.3716   22.5796 O   0  0  2  0  0  0  0  0  0  0  0  0
    9.8562   -1.2672   24.5149 C   0  0  0  0  0  0  0  0  0  0  0  0
    9.0012   -2.4431   24.0457 C   0  0  0  0  0  0  0  0  0  0  0  0
   11.6005   -2.2335   23.6904 H   0  0  0  0  0  0  0  0  0  0  0  0
   10.6988    0.5415   21.4454 H   0  0  0  0  0  0  0  0  0  0  0  0
   11.6127   -0.4418   23.5303 H   0  0  0  0  0  0  0  0  0  0  0  0
    9.2266    0.4339   22.4338 H   0  0  0  0  0  0  0  0  0  0  0  0
    9.8450   -0.0764   21.6910 C   0  0  0  0  0  0  0  0  0  0  0  0
   10.9427   -1.9079   21.4222 H   0  0  0  0  0  0  0  0  0  0  0  0
    9.6863   -0.6868   19.8306 H   0  0  0  0  0  0  0  0  0  0  0  0
   10.1597   -1.3667   25.5540 H   0  0  0  0  0  0  0  0  0  0  0  0
    8.9933   -0.3085   20.4894 N   0  0  0  0  0  0  0  0  0  0  0  0
    9.3184   -0.3191   24.3723 H   0  0  0  0  0  0  0  0  0  0  0  0
    7.7232   -0.2961   19.7310 C   0  0  0  0  0  0  0  0  0  0  0  0
   10.2803   -1.4753   22.1745 C   0  0  1  0  0  0  0  0  0  0  0  0
    5.8097   -0.9674   20.8724 H   0  0  0  0  0  0  0  0  0  0  0  0
    5.6970    0.5854   19.9636 H   0  0  0  0  0  0  0  0  0  0  0  0
    5.6604   -0.9491   19.0959 H   0  0  0  0  0  0  0  0  0  0  0  0
    6.0352   -0.4328   19.9751 C   0  0  0  0  0  0  0  0  0  0  0  0
    7.8406   -0.0772   18.6176 O   0  0  0  0  0  0  0  0  0  0  0  0
   10.9972   -1.3354   23.5146 C   0  0  0  0  0  0  0  0  0  0  0  0
 16 22  2  0  0  0  0
 20 21  1  0  0  0  0
 19 21  1  0  0  0  0
 16 21  1  0  0  0  0
 18 21  1  0  0  0  0
 14 16  1  0  0  0  0
 12 14  1  0  0  0  0
 10 14  1  0  0  0  0
  7 10  1  0  0  0  0
  9 10  1  0  0  0  0
 10 17  1  0  0  0  0
 11 17  1  0  0  0  0
  3 17  1  0  0  0  0
 17 23  1  0  0  0  0
  3  5  1  0  0  0  0
  8 23  1  0  0  0  0
  6 23  1  0  0  0  0
  4 23  1  0  0  0  0
  1  5  1  0  0  0  0
  2  5  1  0  0  0  0
  4  5  1  0  0  0  0
  4 15  1  0  0  0  0
  4 13  1  0  0  0  0
M  END
> <Chemgauss4>
-6.438697

$$$$
