stable:False satoms:21 tatoms:24 sratio:0.875
  -OEChem-08052423063D

 23 23  0     1  0  0  0  0  0999 V2000
   -8.0314   -2.4167  -24.5676 H   0  0  0  0  0  0  0  0  0  0  0  0
   -9.4881   -3.4230  -24.6739 H   0  0  0  0  0  0  0  0  0  0  0  0
   -9.2653   -2.4107  -22.8133 O   0  0  2  0  0  0  0  0  0  0  0  0
   -9.9426   -1.3063  -24.7485 C   0  0  0  0  0  0  0  0  0  0  0  0
   -9.0876   -2.4822  -24.2793 C   0  0  0  0  0  0  0  0  0  0  0  0
  -11.6869   -2.2726  -23.9241 H   0  0  0  0  0  0  0  0  0  0  0  0
  -10.7852    0.5024  -21.6791 H   0  0  0  0  0  0  0  0  0  0  0  0
  -11.6991   -0.4809  -23.7639 H   0  0  0  0  0  0  0  0  0  0  0  0
   -9.3130    0.3948  -22.6675 H   0  0  0  0  0  0  0  0  0  0  0  0
   -9.9314   -0.1155  -21.9247 C   0  0  0  0  0  0  0  0  0  0  0  0
  -11.0291   -1.9470  -21.6559 H   0  0  0  0  0  0  0  0  0  0  0  0
   -9.7727   -0.7259  -20.0642 H   0  0  0  0  0  0  0  0  0  0  0  0
  -10.2461   -1.4058  -25.7876 H   0  0  0  0  0  0  0  0  0  0  0  0
   -9.0797   -0.3476  -20.7230 N   0  0  0  0  0  0  0  0  0  0  0  0
   -9.4048   -0.3582  -24.6059 H   0  0  0  0  0  0  0  0  0  0  0  0
   -7.8096   -0.3352  -19.9647 C   0  0  0  0  0  0  0  0  0  0  0  0
  -10.3667   -1.5145  -22.4081 C   0  0  1  0  0  0  0  0  0  0  0  0
   -5.8961   -1.0065  -21.1061 H   0  0  0  0  0  0  0  0  0  0  0  0
   -5.7834    0.5462  -20.1972 H   0  0  0  0  0  0  0  0  0  0  0  0
   -5.7468   -0.9882  -19.3295 H   0  0  0  0  0  0  0  0  0  0  0  0
   -6.1216   -0.4719  -20.2087 C   0  0  0  0  0  0  0  0  0  0  0  0
   -7.9270   -0.1163  -18.8512 O   0  0  0  0  0  0  0  0  0  0  0  0
  -11.0836   -1.3745  -23.7483 C   0  0  0  0  0  0  0  0  0  0  0  0
 16 22  2  0  0  0  0
 20 21  1  0  0  0  0
 19 21  1  0  0  0  0
 16 21  1  0  0  0  0
 18 21  1  0  0  0  0
 14 16  1  0  0  0  0
 12 14  1  0  0  0  0
 10 14  1  0  0  0  0
  7 10  1  0  0  0  0
  9 10  1  0  0  0  0
 10 17  1  0  0  0  0
 11 17  1  0  0  0  0
  3 17  1  0  0  0  0
 17 23  1  0  0  0  0
  3  5  1  0  0  0  0
  8 23  1  0  0  0  0
  6 23  1  0  0  0  0
  4 23  1  0  0  0  0
  1  5  1  0  0  0  0
  2  5  1  0  0  0  0
  4  5  1  0  0  0  0
  4 15  1  0  0  0  0
  4 13  1  0  0  0  0
M  END
> <Chemgauss4>
-6.193714

$$$$
