REMARK  9 active torsions:
REMARK  status: ('A' for Active; 'I' for Inactive)
REMARK    1  A    between atoms: S_2  and  N_5 
REMARK    2  A    between atoms: C_7  and  C_8 
REMARK    3  A    between atoms: C_9  and  C_15 
REMARK    4  A    between atoms: C_9  and  C_10 
REMARK    5  A    between atoms: C_10  and  C_11 
REMARK    6  A    between atoms: C_11  and  C_12 
REMARK    7  A    between atoms: C_12  and  C_13 
REMARK    8  A    between atoms: C_15  and  C_16 
REMARK       I    between atoms: C_16  and  N_18 
REMARK    9  A    between atoms: N_18  and  C_20 
ROOT
HETATM    1  C   UNL     1       9.397  -1.963  23.532  1.00  0.00     0.038 C 
HETATM    2  C   UNL     1      10.261  -1.069  23.302  1.00  0.00     0.016 C 
ENDROOT
BRANCH   2   3
HETATM    3  C   UNL     1       9.748  -0.548  22.294  1.00  0.00    -0.044 C 
BRANCH   3   4
HETATM    4  C   UNL     1       9.072   0.053  21.367  1.00  0.00     0.294 C 
HETATM    5  O   UNL     1       9.545   1.008  20.956  1.00  0.00    -0.258 OA
HETATM    6  N   UNL     1       7.937  -0.569  21.085  1.00  0.00    -0.315 N 
ATOM      7  HN  UNL     1       7.672  -1.419  21.584  1.00  0.00     0.170 HD
BRANCH   6   8
HETATM    8  C   UNL     1       7.189  -0.091  20.188  1.00  0.00     0.057 A 
HETATM    9  C   UNL     1       7.262  -0.008  18.886  1.00  0.00     0.117 A 
HETATM   10  N   UNL     1       6.758   0.319  17.811  1.00  0.00    -0.373 N 
HETATM   11  C   UNL     1       5.638   0.910  18.269  1.00  0.00     0.088 A 
ATOM     12  HN  UNL     1       7.090   0.183  16.856  1.00  0.00     0.164 HD
HETATM   13  C   UNL     1       5.240   1.007  19.394  1.00  0.00     0.026 A 
HETATM   14  C   UNL     1       5.812   0.573  20.552  1.00  0.00    -0.033 A 
HETATM   15  C   UNL     1       5.259   0.662  22.023  1.00  0.00     0.050 C 
ENDBRANCH   6   8
ENDBRANCH   3   4
ENDBRANCH   2   3
BRANCH   2  16
HETATM   16  C   UNL     1      10.996  -0.041  24.278  1.00  0.00     0.016 C 
BRANCH  16  17
HETATM   17  C   UNL     1      12.116   0.264  24.207  1.00  0.00    -0.021 C 
BRANCH  17  18
HETATM   18  C   UNL     1      13.133  -0.071  23.543  1.00  0.00     0.053 C 
BRANCH  18  19
HETATM   19  C   UNL     1      12.690  -1.370  22.616  1.00  0.00    -0.033 C 
HETATM   20  C   UNL     1      11.856  -1.754  22.492  1.00  0.00     0.007 C 
ENDBRANCH  18  19
ENDBRANCH  17  18
ENDBRANCH  16  17
ENDBRANCH   2  16
BRANCH   1  21
HETATM   21  C   UNL     1       8.972  -2.918  24.157  1.00  0.00     0.101 C 
HETATM   22  N   UNL     1       8.115  -3.573  24.659  1.00  0.00    -0.295 N 
ATOM     23  HN  UNL     1       7.245  -3.663  24.134  1.00  0.00     0.177 HD
BRANCH  22  24
HETATM   24  S   UNL     1       8.181  -4.341  26.093  1.00  0.00     0.226 S 
HETATM   25  C   UNL     1       6.682  -4.840  26.443  1.00  0.00     0.186 C 
HETATM   26  O   UNL     1       9.094  -5.481  26.006  1.00  0.00    -0.206 OA
HETATM   27  O   UNL     1       8.630  -3.447  27.145  1.00  0.00    -0.206 OA
ENDBRANCH  22  24
ENDBRANCH   1  21
TORSDOF 9
