stable:False satoms:6 tatoms:24 sratio:0.25
  -OEChem-07092417513D

 24 24  0     1  0  0  0  0  0999 V2000
    6.6818   -4.8400   26.4429 C   0  0  0  0  0  0  0  0  0  0  0  0
    8.1814   -4.3406   26.0930 S   0  0  0  0  0  0  0  0  0  0  0  0
    9.0940   -5.4807   26.0057 O   0  0  0  0  0  0  0  0  0  0  0  0
    8.6299   -3.4473   27.1448 O   0  0  0  0  0  0  0  0  0  0  0  0
    8.1153   -3.5730   24.6589 N   0  0  0  0  0  0  0  0  0  0  0  0
    8.9717   -2.9184   24.1575 C   0  0  0  0  0  0  0  0  0  0  0  0
    9.3970   -1.9626   23.5321 C   0  0  0  0  0  0  0  0  0  0  0  0
   10.2612   -1.0693   23.3018 C   0  0  2  0  0  0  0  0  0  0  0  0
   10.9965   -0.0409   24.2780 C   0  0  0  0  0  0  0  0  0  0  0  0
   12.1162    0.2636   24.2070 C   0  0  0  0  0  0  0  0  0  0  0  0
   13.1329   -0.0711   23.5426 C   0  0  0  0  0  0  0  0  0  0  0  0
   12.6899   -1.3702   22.6164 C   0  0  0  0  0  0  0  0  0  0  0  0
   11.8560   -1.7540   22.4921 C   0  0  0  0  0  0  0  0  0  0  0  0
    9.7485   -0.5484   22.2937 C   0  0  0  0  0  0  0  0  0  0  0  0
    9.0719    0.0526   21.3672 C   0  0  0  0  0  0  0  0  0  0  0  0
    9.5454    1.0075   20.9559 O   0  0  0  0  0  0  0  0  0  0  0  0
    7.9373   -0.5689   21.0850 N   0  0  0  0  0  0  0  0  0  0  0  0
    7.1885   -0.0908   20.1878 C   0  0  0  0  0  0  0  0  0  0  0  0
    7.2616   -0.0081   18.8857 C   0  0  0  0  0  0  0  0  0  0  0  0
    6.7580    0.3185   17.8107 N   0  0  0  0  0  0  0  0  0  0  0  0
    5.6381    0.9103   18.2686 C   0  0  0  0  0  0  0  0  0  0  0  0
    5.2396    1.0066   19.3941 C   0  0  0  0  0  0  0  0  0  0  0  0
    5.8123    0.5730   20.5517 C   0  0  0  0  0  0  0  0  0  0  0  0
    5.2592    0.6619   22.0233 C   0  0  0  0  0  0  0  0  0  0  0  0
 20 21  2  0  0  0  0
 19 20  1  0  0  0  0
 21 22  1  0  0  0  0
 18 19  2  0  0  0  0
 22 23  2  0  0  0  0
 18 23  1  0  0  0  0
 17 18  1  0  0  0  0
 23 24  1  0  0  0  0
 15 16  2  0  0  0  0
 15 17  1  0  0  0  0
 14 15  1  0  0  0  0
  8 14  1  0  0  0  0
 12 13  2  0  0  0  0
 11 12  1  0  0  0  0
  7  8  1  0  0  0  0
  8  9  1  0  0  0  0
  6  7  2  3  0  0  0
 10 11  1  0  0  0  0
  5  6  1  0  0  0  0
  9 10  2  0  0  0  0
  2  5  1  0  0  0  0
  2  3  2  0  0  0  0
  1  2  1  0  0  0  0
  2  4  2  0  0  0  0
M  END
> <Shapegauss>
-285.134277

$$$$
