stable:False satoms:13 tatoms:24 sratio:0.5416666666666666
  -OEChem-08062406093D

 26 27  0     0  0  0  0  0  0999 V2000
    6.5356   -4.8763   25.5394 H   0  0  0  0  0  0  0  0  0  0  0  0
    7.7932   -4.7310   25.6011 C   0  0  0  0  0  0  0  0  0  0  0  0
    8.5598   -5.6814   26.0806 O   0  0  0  0  0  0  0  0  0  0  0  0
    8.4307   -4.3917   26.6970 O   0  0  0  0  0  0  0  0  0  0  0  0
    8.1010   -4.0742   24.2825 N   0  0  0  0  0  0  0  0  0  0  0  0
    9.1619   -3.4440   24.2915 N   0  0  0  0  0  0  0  0  0  0  0  0
    9.1882   -2.2305   23.8638 N   0  0  0  0  0  0  0  0  0  0  0  0
   10.0595   -1.6135   23.3965 C   0  0  0  0  0  0  0  0  0  0  0  0
   12.4706   -0.7726   24.1724 C   0  0  0  0  0  0  0  0  0  0  0  0
   11.8489   -0.6143   24.9913 H   0  0  0  0  0  0  0  0  0  0  0  0
   13.5355   -0.7203   24.3509 H   0  0  0  0  0  0  0  0  0  0  0  0
   12.7928   -1.1244   22.1891 H   0  0  0  0  0  0  0  0  0  0  0  0
   12.0125   -1.0041   22.9369 C   0  0  0  0  0  0  0  0  0  0  0  0
   10.6591   -0.9313   22.5862 C   0  0  0  0  0  0  0  0  0  0  0  0
    9.8758   -0.2929   21.5234 C   0  0  0  0  0  2  0  0  0  0  0  0
    8.6218   -0.5295   21.4098 N   0  0  0  0  0  0  0  0  0  0  0  0
    7.8126    0.0274   20.5422 C   0  0  0  0  0  0  0  0  0  0  0  0
    8.0225    0.2079   19.2793 N   0  0  0  0  0  0  0  0  0  0  0  0
    6.9621    0.8514   17.6439 H   0  0  0  0  0  0  0  0  0  0  0  0
    6.9385    0.7498   18.7078 C   0  0  0  0  0  0  0  0  0  0  0  0
    5.1149    1.6509   19.3244 H   0  0  0  0  0  0  0  0  0  0  0  0
    5.9544    1.0741   19.6047 C   0  0  0  0  0  0  0  0  0  0  0  0
    6.1923    0.5617   21.1793 S   0  0  0  0  0  0  0  0  0  0  0  0
    8.3218   -1.7378   23.9455 H   0  0  0  0  0  0  0  0  0  0  0  0
   10.8060   -1.7042   24.1717 H   0  0  0  0  0  0  0  0  0  0  0  0
    8.2319   -0.3186   22.3062 H   0  0  0  0  0  0  0  0  0  0  0  0
 19 20  1  0  0  0  0
 18 20  1  0  0  0  0
 20 22  2  0  0  0  0
 17 18  2  0  0  0  0
 21 22  1  0  0  0  0
 22 23  1  0  0  0  0
 17 23  1  0  0  0  0
 16 17  1  0  0  0  0
 15 16  1  0  0  0  0
 14 15  1  0  0  0  0
 12 13  1  0  0  0  0
 13 14  1  0  0  0  0
  8 14  2  0  0  0  0
  9 13  2  0  0  0  0
  7  8  1  0  0  0  0
  9 11  1  0  0  0  0
  9 10  1  0  0  0  0
  6  7  1  0  0  0  0
  5  6  2  3  0  0  0
  2  5  1  0  0  0  0
  1  2  1  0  0  0  0
  2  3  1  0  0  0  0
  2  4  1  0  0  0  0
  3  4  1  0  0  0  0
  7 24  1  0  0  0  0
  8 25  1  0  0  0  0
 16 26  1  0  0  0  0
M  END
> <Chemgauss4>
-6.808415

$$$$
