stable:False satoms:13 tatoms:24 sratio:0.5416666666666666
  -OEChem-08062406093D

 26 27  0     0  0  0  0  0  0999 V2000
   -6.3706    3.3100  -20.6982 H   0  0  0  0  0  0  0  0  0  0  0  0
   -5.6890    2.2415  -20.7173 C   0  0  0  0  0  0  0  0  0  0  0  0
   -4.6524    2.0878  -19.9282 O   0  0  0  0  0  0  0  0  0  0  0  0
   -4.5510    2.1191  -21.3595 O   0  0  0  0  0  0  0  0  0  0  0  0
   -6.7577    1.1861  -20.8124 N   0  0  0  0  0  0  0  0  0  0  0  0
   -6.3466    0.1219  -21.2824 N   0  0  0  0  0  0  0  0  0  0  0  0
   -6.9867   -0.4405  -22.2470 N   0  0  0  0  0  0  0  0  0  0  0  0
   -7.0578   -1.5629  -22.5527 C   0  0  0  0  0  0  0  0  0  0  0  0
   -5.3628   -3.4646  -23.3484 C   0  0  0  0  0  0  0  0  0  0  0  0
   -5.0720   -2.6070  -23.8604 H   0  0  0  0  0  0  0  0  0  0  0  0
   -4.6657   -4.2908  -23.3450 H   0  0  0  0  0  0  0  0  0  0  0  0
   -6.7044   -4.5564  -22.2671 H   0  0  0  0  0  0  0  0  0  0  0  0
   -6.5457   -3.5879  -22.7356 C   0  0  0  0  0  0  0  0  0  0  0  0
   -7.5670   -2.6346  -22.8238 C   0  0  0  0  0  0  0  0  0  0  0  0
   -9.0045   -2.6497  -23.1143 C   0  0  0  0  0  2  0  0  0  0  0  0
   -9.7028   -1.5826  -22.9914 N   0  0  0  0  0  0  0  0  0  0  0  0
  -10.9756   -1.4625  -23.2801 C   0  0  0  0  0  0  0  0  0  0  0  0
  -11.9302   -2.2757  -22.9654 N   0  0  0  0  0  0  0  0  0  0  0  0
  -13.9787   -2.3253  -23.0829 H   0  0  0  0  0  0  0  0  0  0  0  0
  -13.1060   -1.7831  -23.3780 C   0  0  0  0  0  0  0  0  0  0  0  0
  -13.8064   -0.2192  -24.6355 H   0  0  0  0  0  0  0  0  0  0  0  0
  -12.9870   -0.6318  -24.1116 C   0  0  0  0  0  0  0  0  0  0  0  0
  -11.4581    0.0435  -24.1835 S   0  0  0  0  0  0  0  0  0  0  0  0
   -7.5065    0.1863  -22.8274 H   0  0  0  0  0  0  0  0  0  0  0  0
   -6.0115   -1.8045  -22.6686 H   0  0  0  0  0  0  0  0  0  0  0  0
   -9.2395   -0.8986  -23.5549 H   0  0  0  0  0  0  0  0  0  0  0  0
 19 20  1  0  0  0  0
 18 20  1  0  0  0  0
 20 22  2  0  0  0  0
 17 18  2  0  0  0  0
 21 22  1  0  0  0  0
 22 23  1  0  0  0  0
 17 23  1  0  0  0  0
 16 17  1  0  0  0  0
 15 16  1  0  0  0  0
 14 15  1  0  0  0  0
 12 13  1  0  0  0  0
 13 14  1  0  0  0  0
  8 14  2  0  0  0  0
  9 13  2  0  0  0  0
  7  8  1  0  0  0  0
  9 11  1  0  0  0  0
  9 10  1  0  0  0  0
  6  7  1  0  0  0  0
  5  6  2  3  0  0  0
  2  5  1  0  0  0  0
  1  2  1  0  0  0  0
  2  3  1  0  0  0  0
  2  4  1  0  0  0  0
  3  4  1  0  0  0  0
  7 24  1  0  0  0  0
  8 25  1  0  0  0  0
 16 26  1  0  0  0  0
M  END
> <Chemgauss4>
-6.909511

$$$$
