stable:False satoms:15 tatoms:24 sratio:0.625
  -OEChem-07092417353D

 24 26  0     1  0  0  0  0  0999 V2000
    7.1524   -3.8701   25.3236 H   0  0  0  0  0  0  0  0  0  0  0  0
    7.8029   -2.2344   25.2409 H   0  0  0  0  0  0  0  0  0  0  0  0
    9.1210   -3.8313   24.8407 O   0  0  0  0  0  0  0  0  0  0  0  0
    8.2496   -3.2576   26.5888 H   0  0  0  0  0  0  0  0  0  0  0  0
    8.0273   -3.2486   25.5200 C   0  0  0  0  0  0  0  0  0  0  0  0
    9.9237   -2.6892   24.6823 C   0  0  3  0  0  0  0  0  0  0  0  0
   10.2257   -1.7950   25.2545 O   0  0  0  0  0  0  0  0  0  0  0  0
   10.9725   -1.8579   24.0795 C   0  0  2  0  0  0  0  0  0  0  0  0
   10.9656   -0.4188   23.6463 C   0  0  0  0  0  0  0  0  0  0  0  0
   11.9100   -0.0195   23.2773 H   0  0  0  0  0  0  0  0  0  0  0  0
   10.8424    0.1465   24.5639 H   0  0  0  0  0  0  0  0  0  0  0  0
   11.8191   -2.3422   23.5907 H   0  0  0  0  0  0  0  0  0  0  0  0
   10.4293   -1.2428   21.7865 H   0  0  0  0  0  0  0  0  0  0  0  0
    9.9432   -0.6471   22.5357 C   0  3  0  0  0  0  0  0  0  0  0  0
    8.3363   -0.3297   21.5646 C   0  0  1  0  0  0  0  0  0  0  0  0
    8.3644    1.5693   20.4796 H   0  0  0  0  0  0  0  0  0  0  0  0
    7.8311    0.7672   20.7251 N   0  3  1  0  0  0  0  0  0  0  0  0
    8.6093   -0.4628   22.5391 N   0  3  0  0  0  0  0  0  0  0  0  0
    7.6341   -0.9840   20.4224 O   0  3  2  0  0  0  0  0  0  0  0  0
    6.6621   -1.3539   18.2210 H   0  0  0  0  0  0  0  0  0  0  0  0
    5.9807   -0.6817   18.2510 O   0  0  0  0  0  0  0  0  0  0  0  0
    5.6903    1.1867   18.8906 H   0  0  0  0  0  0  0  0  0  0  0  0
    6.0964    0.2518   19.0875 C   0  3  0  0  0  0  0  0  0  0  0  0
    6.9945    0.0549   20.1851 C   0  0  2  0  0  0  0  0  0  0  0  0
 20 21  1  0  0  0  0
 21 23  1  0  0  0  0
 22 23  1  0  0  0  0
 23 24  1  0  0  0  0
 19 24  1  0  0  0  0
 17 24  1  0  0  0  0
 17 19  1  0  0  0  0
 15 19  1  0  0  0  0
 16 17  1  0  0  0  0
 15 17  1  0  0  0  0
 15 18  1  0  0  0  0
 13 14  1  0  0  0  0
 14 18  1  0  0  0  0
  9 14  1  0  0  0  0
  9 10  1  0  0  0  0
  8 12  1  0  0  0  0
  8  9  1  0  0  0  0
  9 11  1  0  0  0  0
  6  8  1  0  0  0  0
  7  8  1  0  0  0  0
  3  6  1  0  0  0  0
  6  7  1  0  0  0  0
  3  5  1  0  0  0  0
  2  5  1  0  0  0  0
  1  5  1  0  0  0  0
  4  5  1  0  0  0  0
M  CHG  5  14   1  17   1  18   1  19   1  23   1
M  END
> <Shapegauss>
-149.017212

$$$$
