stable:False satoms:15 tatoms:24 sratio:0.625
  -OEChem-08062403043D

 25 27  0     1  0  0  0  0  0999 V2000
    7.6859   -1.8094   22.5230 H   0  0  0  0  0  0  0  0  0  0  0  0
    8.8569   -1.4270   23.7832 H   0  0  0  0  0  0  0  0  0  0  0  0
    9.6044   -2.0104   21.8995 O   0  0  0  0  0  0  0  0  0  0  0  0
    8.6285   -3.0984   23.3166 H   0  0  0  0  0  0  0  0  0  0  0  0
    8.6567   -2.0719   22.9460 C   0  0  0  0  0  0  0  0  0  0  0  0
   10.7626   -1.7677   22.6568 C   0  0  3  0  0  0  0  0  0  0  0  0
   11.2216   -2.0906   23.6072 O   0  0  0  0  0  0  0  0  0  0  0  0
   12.1351   -1.3091   22.9022 C   0  0  2  0  0  0  0  0  0  0  0  0
   12.7123   -0.4628   24.0019 C   0  0  0  0  0  0  0  0  0  0  0  0
   13.7919   -0.3157   23.9841 H   0  0  0  0  0  0  0  0  0  0  0  0
   12.5960   -1.0589   24.9008 H   0  0  0  0  0  0  0  0  0  0  0  0
   12.8495   -1.3050   22.0777 H   0  0  0  0  0  0  0  0  0  0  0  0
   11.9361    0.7867   23.5929 C   0  0  0  0  0  2  0  0  0  0  0  0
   10.7812    2.2768   23.8603 C   0  0  1  0  0  0  0  0  0  0  0  0
   10.8724    3.5384   24.6108 N   0  0  1  0  0  0  0  0  0  0  0  0
   10.7772    1.2781   24.0711 N   0  0  0  0  0  0  0  0  0  0  0  0
   10.1596    3.3141   22.9864 O   0  3  2  0  0  0  0  0  0  0  0  0
    9.6146    5.4725   22.0006 H   0  0  0  0  0  0  0  0  0  0  0  0
    9.2137    5.8826   22.7675 O   0  0  0  0  0  0  0  0  0  0  0  0
    9.4591    5.3980   23.9030 C   0  0  0  0  0  2  0  0  0  0  0  0
    9.9792    4.0652   23.9600 C   0  0  2  0  0  0  0  0  0  0  0  0
   10.3331   -0.8602   23.1062 H   0  0  0  0  0  0  0  0  0  0  0  0
   11.7834    2.3418   23.4115 H   0  0  0  0  0  0  0  0  0  0  0  0
   10.7209    1.1330   25.0590 H   0  0  0  0  0  0  0  0  0  0  0  0
    9.1053    3.5728   24.4115 H   0  0  0  0  0  0  0  0  0  0  0  0
 18 19  1  0  0  0  0
 19 20  1  0  0  0  0
 20 21  1  0  0  0  0
 17 21  1  0  0  0  0
 15 21  1  0  0  0  0
 15 17  1  0  0  0  0
 14 17  1  0  0  0  0
 14 15  1  0  0  0  0
 14 16  1  0  0  0  0
 13 16  1  0  0  0  0
  9 13  1  0  0  0  0
  9 10  1  0  0  0  0
  8 12  1  0  0  0  0
  8  9  1  0  0  0  0
  9 11  1  0  0  0  0
  6  8  1  0  0  0  0
  7  8  1  0  0  0  0
  3  6  1  0  0  0  0
  6  7  1  0  0  0  0
  3  5  1  0  0  0  0
  2  5  1  0  0  0  0
  1  5  1  0  0  0  0
  4  5  1  0  0  0  0
  6 22  1  0  0  0  0
 14 23  1  0  0  0  0
 16 24  1  0  0  0  0
 21 25  1  0  0  0  0
M  CHG  1  17   1
M  END
> <Chemgauss4>
-5.576161

$$$$
