stable:False satoms:16 tatoms:24 sratio:0.6666666666666666
  -OEChem-07092417403D

 24 23  0     1  0  0  0  0  0999 V2000
    6.4884   -4.9702   26.5080 Br  0  0  0  0  0  0  0  0  0  0  0  0
    8.3363   -4.4037   26.0974 S   0  0  0  0  0  0  0  0  0  0  0  0
    9.0669   -5.6421   25.9604 O   0  0  0  0  0  0  0  0  0  0  0  0
    8.7962   -3.5698   27.1641 O   0  0  0  0  0  0  0  0  0  0  0  0
    8.1986   -3.6599   24.7277 N   0  0  0  0  0  0  0  0  0  0  0  0
    8.9163   -2.9176   24.1405 C   0  0  0  0  0  0  0  0  0  0  0  0
    9.3932   -2.0941   23.5853 C   0  0  0  0  0  0  0  0  0  0  0  0
   10.3478   -1.2183   23.0182 C   0  0  0  0  0  0  0  0  0  0  0  0
   11.4294    0.3593   24.4820 H   0  0  0  0  0  0  0  0  0  0  0  0
   12.2159   -0.0571   23.8880 C   0  0  0  0  0  0  0  0  0  0  0  0
   13.2006    0.2687   23.8789 H   0  0  0  0  0  0  0  0  0  0  0  0
   12.5549   -1.6536   22.5659 H   0  0  0  0  0  0  0  0  0  0  0  0
   11.8600   -1.1029   23.0859 C   0  0  0  0  0  0  0  0  0  0  0  0
    9.6666   -0.6185   22.3626 C   0  0  0  0  0  0  0  0  0  0  0  0
    8.9621    0.0913   21.3628 C   0  0  0  0  0  0  0  0  0  0  0  0
    9.4372    1.0879   20.9304 O   0  0  0  0  0  0  0  0  0  0  0  0
    7.8435   -0.5354   21.0266 N   0  0  0  0  0  0  0  0  0  0  0  0
    7.0321   -0.0144   20.1392 C   0  0  3  0  0  0  0  0  0  0  0  0
    7.1768    0.0334   18.7323 C   0  0  0  0  0  0  0  0  0  0  0  0
    7.1453    0.1328   17.6090 N   0  0  0  0  0  0  0  0  0  0  0  0
    5.0473    1.1185   18.4764 H   0  0  0  0  0  0  0  0  0  0  0  0
    5.1892    0.9316   19.4520 C   0  5  0  0  0  0  0  0  0  0  0  0
    5.7964    0.5343   20.5274 C   0  0  0  0  0  0  0  0  0  0  0  0
    5.4831    0.6097   21.5758 H   0  0  0  0  0  0  0  0  0  0  0  0
 19 20  3  0  0  0  0
 21 22  1  0  0  0  0
 18 19  1  0  0  0  0
 22 23  2  0  0  0  0
 18 23  1  0  0  0  0
 17 18  1  0  0  0  0
 23 24  1  0  0  0  0
 15 16  2  0  0  0  0
 15 17  1  0  0  0  0
 14 15  1  0  0  0  0
  8 14  2  3  0  0  0
 12 13  1  0  0  0  0
  8 13  1  0  0  0  0
  7  8  1  0  0  0  0
 10 13  2  0  0  0  0
  6  7  3  0  0  0  0
 10 11  1  0  0  0  0
  9 10  1  0  0  0  0
  5  6  1  0  0  0  0
  2  5  1  0  0  0  0
  2  3  2  0  0  0  0
  1  2  1  0  0  0  0
  2  4  2  0  0  0  0
M  CHG  1  22  -1
M  END
> <Shapegauss>
-225.876617

$$$$
