stable:False satoms:16 tatoms:24 sratio:0.6666666666666666
  -OEChem-08062411123D

 29 28  0     1  0  0  0  0  0999 V2000
   -6.3848   -4.5899  -26.8044 Br  0  0  0  0  0  0  0  0  0  0  0  0
   -8.2853   -4.2864  -26.3569 S   0  0  0  0  0  0  0  0  0  0  0  0
   -8.8318   -5.6144  -26.2023 O   0  0  0  0  0  0  0  0  0  0  0  0
   -8.8792   -3.5306  -27.4156 O   0  0  0  0  0  0  0  0  0  0  0  0
   -8.2259   -3.5238  -24.9919 N   0  0  0  0  0  0  0  0  0  0  0  0
   -9.0287   -2.8867  -24.3916 C   0  0  0  0  0  0  0  0  0  0  0  0
   -9.6053   -2.1356  -23.8284 C   0  0  0  0  0  0  0  0  0  0  0  0
  -10.6618   -1.3997  -23.2435 C   0  0  0  0  0  0  0  0  0  0  0  0
  -11.9835    0.0032  -24.6879 H   0  0  0  0  0  0  0  0  0  0  0  0
  -12.6916   -0.5166  -24.0770 C   0  0  0  0  0  0  0  0  0  0  0  0
  -13.7119   -0.3322  -24.0482 H   0  0  0  0  0  0  0  0  0  0  0  0
  -12.7763   -2.1382  -22.7448 H   0  0  0  0  0  0  0  0  0  0  0  0
  -12.1763   -1.4980  -23.2802 C   0  0  0  0  0  0  0  0  0  0  0  0
  -10.0585   -0.7069  -22.6034 C   0  0  0  0  0  0  0  0  0  0  0  0
   -9.4407    0.0997  -21.6198 C   0  0  0  0  0  0  0  0  0  0  0  0
  -10.0423    1.0219  -21.1798 O   0  0  0  0  0  0  0  0  0  0  0  0
   -8.2386   -0.3621  -21.3055 N   0  0  0  0  0  0  0  0  0  0  0  0
   -7.4907    0.2721  -20.4361 C   0  0  3  0  0  0  0  0  0  0  0  0
   -7.6123    0.3061  -19.0266 C   0  0  0  0  0  0  0  0  0  0  0  0
   -7.5724    0.4145  -17.9044 N   0  0  0  0  0  0  0  0  0  0  0  0
   -4.9030    2.0866  -19.8812 H   0  0  0  0  0  0  0  0  0  0  0  0
   -5.7855    1.4708  -19.7891 C   0  0  0  0  0  0  0  0  0  0  0  0
   -6.3524    0.9869  -20.8509 C   0  0  0  0  0  0  0  0  0  0  0  0
   -6.0740    1.1003  -21.9057 H   0  0  0  0  0  0  0  0  0  0  0  0
   -7.4676   -2.8839  -25.1164 H   0  0  0  0  0  0  0  0  0  0  0  0
   -9.4013   -0.3954  -23.4017 H   0  0  0  0  0  0  0  0  0  0  0  0
   -7.9003   -1.1997  -21.7345 H   0  0  0  0  0  0  0  0  0  0  0  0
   -8.1133    1.1741  -20.5295 H   0  0  0  0  0  0  0  0  0  0  0  0
   -6.1960    1.2579  -18.8131 H   0  0  0  0  0  0  0  0  0  0  0  0
 19 20  3  0  0  0  0
 21 22  1  0  0  0  0
 18 19  1  0  0  0  0
 22 23  2  0  0  0  0
 18 23  1  0  0  0  0
 17 18  1  0  0  0  0
 23 24  1  0  0  0  0
 15 16  2  0  0  0  0
 15 17  1  0  0  0  0
 14 15  1  0  0  0  0
  8 14  2  3  0  0  0
 12 13  1  0  0  0  0
  8 13  1  0  0  0  0
  7  8  1  0  0  0  0
 10 13  2  0  0  0  0
  6  7  3  0  0  0  0
 10 11  1  0  0  0  0
  9 10  1  0  0  0  0
  5  6  1  0  0  0  0
  2  5  1  0  0  0  0
  2  3  2  0  0  0  0
  1  2  1  0  0  0  0
  2  4  2  0  0  0  0
  5 25  1  0  0  0  0
 14 26  1  0  0  0  0
 17 27  1  0  0  0  0
 18 28  1  0  0  0  0
 22 29  1  0  0  0  0
M  END
> <Chemgauss4>
-8.552855

$$$$
