stable:False satoms:16 tatoms:24 sratio:0.6666666666666666
  -OEChem-08062411123D

 29 28  0     1  0  0  0  0  0999 V2000
    6.4158   -4.7083   26.4830 Br  0  0  0  0  0  0  0  0  0  0  0  0
    8.3163   -4.4048   26.0355 S   0  0  0  0  0  0  0  0  0  0  0  0
    8.8628   -5.7328   25.8809 O   0  0  0  0  0  0  0  0  0  0  0  0
    8.9101   -3.6490   27.0943 O   0  0  0  0  0  0  0  0  0  0  0  0
    8.2568   -3.6422   24.6705 N   0  0  0  0  0  0  0  0  0  0  0  0
    9.0597   -3.0051   24.0702 C   0  0  0  0  0  0  0  0  0  0  0  0
    9.6362   -2.2539   23.5070 C   0  0  0  0  0  0  0  0  0  0  0  0
   10.6927   -1.5180   22.9221 C   0  0  0  0  0  0  0  0  0  0  0  0
   12.0145   -0.1152   24.3665 H   0  0  0  0  0  0  0  0  0  0  0  0
   12.7226   -0.6349   23.7556 C   0  0  0  0  0  0  0  0  0  0  0  0
   13.7429   -0.4505   23.7268 H   0  0  0  0  0  0  0  0  0  0  0  0
   12.8073   -2.2566   22.4234 H   0  0  0  0  0  0  0  0  0  0  0  0
   12.2072   -1.6164   22.9588 C   0  0  0  0  0  0  0  0  0  0  0  0
   10.0895   -0.8253   22.2820 C   0  0  0  0  0  0  0  0  0  0  0  0
    9.4716   -0.0187   21.2984 C   0  0  0  0  0  0  0  0  0  0  0  0
   10.0732    0.9035   20.8584 O   0  0  0  0  0  0  0  0  0  0  0  0
    8.2696   -0.4804   20.9841 N   0  0  0  0  0  0  0  0  0  0  0  0
    7.5217    0.1537   20.1147 C   0  0  3  0  0  0  0  0  0  0  0  0
    7.6432    0.1877   18.7052 C   0  0  0  0  0  0  0  0  0  0  0  0
    7.6034    0.2961   17.5830 N   0  0  0  0  0  0  0  0  0  0  0  0
    4.9340    1.9682   19.5598 H   0  0  0  0  0  0  0  0  0  0  0  0
    5.8164    1.3525   19.4677 C   0  0  0  0  0  0  0  0  0  0  0  0
    6.3834    0.8685   20.5295 C   0  0  0  0  0  0  0  0  0  0  0  0
    6.1049    0.9819   21.5843 H   0  0  0  0  0  0  0  0  0  0  0  0
    7.4985   -3.0022   24.7950 H   0  0  0  0  0  0  0  0  0  0  0  0
    9.4322   -0.5138   23.0803 H   0  0  0  0  0  0  0  0  0  0  0  0
    7.9313   -1.3180   21.4131 H   0  0  0  0  0  0  0  0  0  0  0  0
    8.1443    1.0557   20.2081 H   0  0  0  0  0  0  0  0  0  0  0  0
    6.2269    1.1396   18.4917 H   0  0  0  0  0  0  0  0  0  0  0  0
 19 20  3  0  0  0  0
 21 22  1  0  0  0  0
 18 19  1  0  0  0  0
 22 23  2  0  0  0  0
 18 23  1  0  0  0  0
 17 18  1  0  0  0  0
 23 24  1  0  0  0  0
 15 16  2  0  0  0  0
 15 17  1  0  0  0  0
 14 15  1  0  0  0  0
  8 14  2  3  0  0  0
 12 13  1  0  0  0  0
  8 13  1  0  0  0  0
  7  8  1  0  0  0  0
 10 13  2  0  0  0  0
  6  7  3  0  0  0  0
 10 11  1  0  0  0  0
  9 10  1  0  0  0  0
  5  6  1  0  0  0  0
  2  5  1  0  0  0  0
  2  3  2  0  0  0  0
  1  2  1  0  0  0  0
  2  4  2  0  0  0  0
  5 25  1  0  0  0  0
 14 26  1  0  0  0  0
 17 27  1  0  0  0  0
 18 28  1  0  0  0  0
 22 29  1  0  0  0  0
M  END
> <Chemgauss4>
-8.399412

$$$$
