stable:False satoms:6 tatoms:24 sratio:0.25
  -OEChem-08062416103D

 43 45  0     1  0  0  0  0  0999 V2000
   -6.3501   -5.2026  -26.3082 C   0  0  0  0  0  0  0  0  0  0  0  0
   -8.0073   -4.5914  -26.0662 S   0  0  0  0  0  0  0  0  0  0  0  0
   -8.9186   -5.7179  -26.0027 O   0  0  0  0  0  0  0  0  0  0  0  0
   -8.2762   -3.7567  -27.1972 O   0  0  0  0  0  0  0  0  0  0  0  0
   -7.9676   -3.7910  -24.6449 N   0  0  0  0  0  0  0  0  0  0  0  0
   -8.8429   -3.0878  -24.2244 C   0  0  0  0  0  0  0  0  0  0  0  0
   -9.3124   -2.0576  -23.6358 C   0  0  0  0  0  0  0  0  0  0  0  0
  -10.2162   -1.2480  -23.4754 C   0  0  1  0  0  0  0  0  0  0  0  0
  -10.8301   -0.1191  -24.6711 C   0  0  0  0  0  0  0  0  0  0  0  0
  -11.8411    0.2318  -24.7157 C   0  0  0  0  0  0  0  0  0  0  0  0
  -13.0548   -0.2098  -23.9067 C   0  0  0  0  0  0  0  0  0  0  0  0
  -12.6617   -1.2226  -23.0770 C   0  0  0  0  0  0  0  0  0  0  0  0
  -11.7526   -1.7458  -22.8674 C   0  0  0  0  0  0  0  0  0  0  0  0
   -9.6742   -0.6274  -22.5928 C   0  0  1  0  0  0  0  0  0  0  0  0
   -9.0713    0.0254  -21.5957 C   0  0  0  0  0  0  0  0  0  0  0  0
   -9.5537    0.9974  -21.2472 O   0  0  0  0  0  0  0  0  0  0  0  0
   -7.9765   -0.6213  -21.2030 N   0  0  0  0  0  0  0  0  0  0  0  0
   -7.2791   -0.1219  -20.2629 C   0  0  0  0  0  0  0  0  0  0  0  0
   -7.3870    0.0158  -18.9425 C   0  0  0  0  0  0  0  0  0  0  0  0
   -7.0568    0.3411  -17.8562 N   0  0  0  0  0  0  0  0  0  0  0  0
   -5.8338    0.9471  -18.2528 C   0  0  0  0  0  0  0  0  0  0  0  0
   -5.4004    0.9786  -19.4054 C   0  0  0  0  0  0  0  0  0  0  0  0
   -5.8915    0.5138  -20.5635 C   0  0  0  0  0  0  0  0  0  0  0  0
   -5.2781    0.5577  -21.9900 C   0  0  0  0  0  0  0  0  0  0  0  0
   -6.2985   -5.7586  -27.2559 H   0  0  0  0  0  0  0  0  0  0  0  0
   -5.6484   -4.3561  -26.3411 H   0  0  0  0  0  0  0  0  0  0  0  0
   -6.0805   -5.8701  -25.4765 H   0  0  0  0  0  0  0  0  0  0  0  0
   -7.1567   -3.2077  -24.6906 H   0  0  0  0  0  0  0  0  0  0  0  0
   -9.7352   -3.6319  -24.4969 H   0  0  0  0  0  0  0  0  0  0  0  0
  -10.1388    0.2481  -25.4152 H   0  0  0  0  0  0  0  0  0  0  0  0
  -12.0275    1.0119  -25.4390 H   0  0  0  0  0  0  0  0  0  0  0  0
  -14.0498    0.2043  -23.9766 H   0  0  0  0  0  0  0  0  0  0  0  0
  -13.4818   -1.5899  -22.4779 H   0  0  0  0  0  0  0  0  0  0  0  0
  -11.6554   -1.7559  -21.7717 H   0  0  0  0  0  0  0  0  0  0  0  0
  -11.9037   -2.7726  -23.2316 H   0  0  0  0  0  0  0  0  0  0  0  0
   -9.2063    0.0410  -23.3306 H   0  0  0  0  0  0  0  0  0  0  0  0
   -7.7076   -1.4810  -21.6373 H   0  0  0  0  0  0  0  0  0  0  0  0
   -8.3465   -0.4420  -18.7520 H   0  0  0  0  0  0  0  0  0  0  0  0
   -5.2382    1.4164  -17.4838 H   0  0  0  0  0  0  0  0  0  0  0  0
   -4.4453    1.4736  -19.5013 H   0  0  0  0  0  0  0  0  0  0  0  0
   -4.6746   -0.3464  -22.1582 H   0  0  0  0  0  0  0  0  0  0  0  0
   -6.0860    0.6030  -22.7351 H   0  0  0  0  0  0  0  0  0  0  0  0
   -4.6394    1.4480  -22.0871 H   0  0  0  0  0  0  0  0  0  0  0  0
 20 21  2  0  0  0  0
 19 20  1  0  0  0  0
 21 22  1  0  0  0  0
 18 19  2  0  0  0  0
 22 23  2  0  0  0  0
 18 23  1  0  0  0  0
 17 18  1  0  0  0  0
 23 24  1  0  0  0  0
 15 16  2  0  0  0  0
 15 17  1  0  0  0  0
 14 15  1  0  0  0  0
  8 14  1  0  0  0  0
  7 14  1  0  0  0  0
 12 13  1  0  0  0  0
  8 13  1  0  0  0  0
 11 12  2  0  0  0  0
  7  8  1  0  0  0  0
  8  9  1  0  0  0  0
 10 11  1  0  0  0  0
  6  7  2  3  0  0  0
  5  6  1  0  0  0  0
  9 10  2  0  0  0  0
  2  5  1  0  0  0  0
  2  3  2  0  0  0  0
  1  2  1  0  0  0  0
  2  4  2  0  0  0  0
  1 25  1  0  0  0  0
  1 26  1  0  0  0  0
  1 27  1  0  0  0  0
  5 28  1  0  0  0  0
  6 29  1  0  0  0  0
  9 30  1  0  0  0  0
 10 31  1  0  0  0  0
 11 32  1  0  0  0  0
 12 33  1  0  0  0  0
 13 34  1  0  0  0  0
 13 35  1  0  0  0  0
 14 36  1  0  0  0  0
 17 37  1  0  0  0  0
 19 38  1  0  0  0  0
 21 39  1  0  0  0  0
 22 40  1  0  0  0  0
 24 41  1  0  0  0  0
 24 42  1  0  0  0  0
 24 43  1  0  0  0  0
M  END
> <Chemgauss4>
-13.284388

$$$$
