REMARK  7 active torsions:
REMARK  status: ('A' for Active; 'I' for Inactive)
REMARK    1  A    between atoms: S_2  and  N_5 
REMARK    2  A    between atoms: N_5  and  C_7 
REMARK    3  A    between atoms: C_8  and  C_9 
REMARK    4  A    between atoms: C_9  and  C_12 
REMARK    5  A    between atoms: C_11  and  C_12 
REMARK    6  A    between atoms: C_13  and  C_14 
REMARK       I    between atoms: C_14  and  N_16 
REMARK    7  A    between atoms: C_18  and  C_22 
ROOT
HETATM    1  C   UNL     1       9.101   0.121  21.334  1.00  0.00     0.247 C 
HETATM    2  O   UNL     1       9.530   1.099  20.811  1.00  0.00    -0.268 OA
HETATM    3  N   UNL     1       7.938  -0.579  20.989  1.00  0.00    -0.314 N 
ATOM      4  HN  UNL     1       7.737  -1.486  21.410  1.00  0.00     0.170 HD
HETATM    5  C   UNL     1       7.110  -0.051  20.116  1.00  0.00     0.123 C 
HETATM    6  C   UNL     1       7.124   0.020  18.671  1.00  0.00     0.118 C 
HETATM    7  N   UNL     1       7.130   0.061  17.507  1.00  0.00    -0.190 NA
ENDROOT
BRANCH   5   8
HETATM    8  C   UNL     1       5.848   0.560  20.425  1.00  0.00     0.080 C 
HETATM    9  C   UNL     1       5.334   0.903  19.316  1.00  0.00    -0.044 C 
ENDBRANCH   5   8
BRANCH   1  10
HETATM   10  C   UNL     1       9.812  -0.461  22.314  1.00  0.00     0.094 C 
HETATM   11  C   UNL     1      10.286  -1.430  22.983  1.00  0.00     0.021 C 
BRANCH  11  12
HETATM   12  C   UNL     1       9.403  -2.163  23.657  1.00  0.00    -0.043 C 
HETATM   13  C   UNL     1       8.826  -2.886  24.288  1.00  0.00     0.026 C 
BRANCH  13  14
HETATM   14  N   UNL     1       7.960  -3.506  24.844  1.00  0.00    -0.243 N 
ATOM     15  HN  UNL     1       7.026  -3.502  24.435  1.00  0.00     0.189 HD
BRANCH  14  16
HETATM   16  S   UNL     1       8.195  -4.349  26.209  1.00  0.00     0.233 S 
HETATM   17  C   UNL     1       6.476  -4.926  26.576  1.00  0.00     0.186 C 
HETATM   18  O   UNL     1       8.983  -5.530  26.037  1.00  0.00    -0.205 OA
HETATM   19  O   UNL     1       8.653  -3.493  27.261  1.00  0.00    -0.205 OA
ENDBRANCH  14  16
ENDBRANCH  13  14
ENDBRANCH  11  12
BRANCH  11  20
HETATM   20  C   UNL     1      11.579  -1.800  22.771  1.00  0.00    -0.006 C 
BRANCH  20  21
HETATM   21  C   UNL     1      12.658  -1.137  22.854  1.00  0.00     0.024 C 
HETATM   22  C   UNL     1      12.387  -0.065  23.969  1.00  0.00     0.009 C 
ENDBRANCH  20  21
ENDBRANCH  11  20
ENDBRANCH   1  10
TORSDOF 7
