
 OpenBabel07202414153D

 46 49  0  0  1  0  0  0  0  0999 V2000
    1.2037   -0.6263    0.4674 C   0  0  0  0  0  0  0  0  0  0  0  0
    2.8305    0.1151    0.0733 S   0  0  0  0  0  0  0  0  0  0  0  0
    2.6069    1.5159   -0.2318 O   0  0  0  0  0  0  0  0  0  0  0  0
    3.7532   -0.2518    1.1254 O   0  0  0  0  0  0  0  0  0  0  0  0
    3.3523   -0.6807   -1.3679 N   0  0  0  0  0  0  0  0  0  0  0  0
    3.6175   -2.1510   -1.1724 C   0  0  0  0  0  0  0  0  0  0  0  0
    3.6886   -2.8930   -2.4760 C   0  0  3  0  0  0  0  0  0  0  0  0
    2.3523   -2.9356   -3.1899 C   0  0  0  0  0  0  0  0  0  0  0  0
    1.8540   -4.0563   -3.4221 O   0  0  0  0  0  0  0  0  0  0  0  0
    1.5345   -1.9944   -3.6292 N   0  0  0  0  0  0  0  0  0  0  0  0
    0.0337   -2.3355   -4.3944 C   0  0  0  0  0  0  0  0  0  0  0  0
   -0.9462   -3.6050   -4.8738 C   0  0  0  0  0  0  0  0  0  0  0  0
   -1.6036   -2.5619   -5.2232 N   0  0  0  0  0  0  0  0  0  0  0  0
   -2.2812   -1.5599   -5.5890 C   0  0  0  0  0  0  0  0  0  0  0  0
   -1.4438   -0.5327   -5.2344 C   0  0  0  0  0  0  0  0  0  0  0  0
   -1.9221    0.7562   -5.3767 C   0  0  0  0  0  0  0  0  0  0  0  0
   -1.4438    1.9078   -4.6842 C   0  0  0  0  0  0  0  0  0  0  0  0
   -0.1343    1.9324   -4.2739 C   0  0  0  0  0  0  0  0  0  0  0  0
    0.4973    0.6627   -4.2356 C   0  0  0  0  0  0  0  0  0  0  0  0
    1.8051    0.7266   -3.8589 F   0  0  0  0  0  0  0  0  0  0  0  0
   -0.2226   -0.7470   -4.5729 C   0  0  0  0  0  0  0  0  0  0  0  0
    4.7202   -2.1895   -3.4121 C   0  0  0  0  0  0  0  0  0  0  0  0
    5.2237   -2.8776   -4.5359 C   0  0  0  0  0  0  0  0  0  0  0  0
    6.0869   -2.2672   -5.4343 C   0  0  0  0  0  0  0  0  0  0  0  0
    6.6883   -3.1471   -6.7844 Cl  0  0  0  0  0  0  0  0  0  0  0  0
    6.4662   -0.9538   -5.2133 C   0  0  0  0  0  0  0  0  0  0  0  0
    5.9766   -0.2553   -4.1048 C   0  0  0  0  0  0  0  0  0  0  0  0
    5.0819   -0.8513   -3.2081 C   0  0  0  0  0  0  0  0  0  0  0  0
    4.5636   -0.0607   -2.0216 C   0  0  0  0  0  0  0  0  0  0  0  0
    0.8349   -0.1580    1.3944 H   0  0  0  0  0  0  0  0  0  0  0  0
    1.2877   -1.7013    0.6444 H   0  0  0  0  0  0  0  0  0  0  0  0
    0.4733   -0.4304   -0.3215 H   0  0  0  0  0  0  0  0  0  0  0  0
    2.8355   -2.6053   -0.5759 H   0  0  0  0  0  0  0  0  0  0  0  0
    4.5720   -2.2653   -0.6337 H   0  0  0  0  0  0  0  0  0  0  0  0
    4.0917   -3.9013   -2.3465 H   0  0  0  0  0  0  0  0  0  0  0  0
    1.8966   -0.9951   -3.4373 H   0  0  0  0  0  0  0  0  0  0  0  0
   -1.9837   -4.2995   -5.3384 H   0  0  0  0  0  0  0  0  0  0  0  0
   -3.2671   -1.6818   -6.0122 H   0  0  0  0  0  0  0  0  0  0  0  0
   -2.7147    0.9064   -6.0832 H   0  0  0  0  0  0  0  0  0  0  0  0
   -2.1142    2.7414   -4.4455 H   0  0  0  0  0  0  0  0  0  0  0  0
    0.3709    2.8733   -4.0079 H   0  0  0  0  0  0  0  0  0  0  0  0
    4.9028   -3.8952   -4.7080 H   0  0  0  0  0  0  0  0  0  0  0  0
    7.1409   -0.4567   -5.8971 H   0  0  0  0  0  0  0  0  0  0  0  0
    6.2806    0.7742   -3.9454 H   0  0  0  0  0  0  0  0  0  0  0  0
    4.3386    0.9516   -2.3748 H   0  0  0  0  0  0  0  0  0  0  0  0
    5.3809   -0.0135   -1.2925 H   0  0  0  0  0  0  0  0  0  0  0  0
  1  2  1  0  0  0  0
  1 30  1  0  0  0  0
  1 31  1  0  0  0  0
  1 32  1  0  0  0  0
  2  3  2  0  0  0  0
  2  4  2  0  0  0  0
  2  5  1  0  0  0  0
  5  6  1  0  0  0  0
  5 29  1  0  0  0  0
  6  7  1  0  0  0  0
  6 33  1  0  0  0  0
  6 34  1  0  0  0  0
  7  8  1  0  0  0  0
  7 22  1  0  0  0  0
  7 35  1  0  0  0  0
  8  9  2  0  0  0  0
  8 10  1  0  0  0  0
 10 11  1  0  0  0  0
 10 36  1  0  0  0  0
 11 12  1  0  0  0  0
 11 21  2  0  0  0  0
 12 13  2  0  0  0  0
 12 37  1  0  0  0  0
 13 14  1  0  0  0  0
 14 15  2  0  0  0  0
 14 38  1  0  0  0  0
 15 16  1  0  0  0  0
 15 21  1  0  0  0  0
 16 17  2  0  0  0  0
 16 39  1  0  0  0  0
 17 18  1  0  0  0  0
 17 40  1  0  0  0  0
 18 19  2  0  0  0  0
 18 41  1  0  0  0  0
 19 20  1  0  0  0  0
 19 21  1  0  0  0  0
 22 23  1  0  0  0  0
 22 28  2  0  0  0  0
 23 24  2  0  0  0  0
 23 42  1  0  0  0  0
 24 25  1  0  0  0  0
 24 26  1  0  0  0  0
 26 27  2  0  0  0  0
 26 43  1  0  0  0  0
 27 28  1  0  0  0  0
 27 44  1  0  0  0  0
 28 29  1  0  0  0  0
 29 45  1  0  0  0  0
 29 46  1  0  0  0  0
M  END
$$$$
