MODEL 1
REMARK VINA RESULT:    -7.862      0.000      0.000
REMARK INTER + INTRA:         -10.560
REMARK INTER:                  -9.701
REMARK INTRA:                  -0.860
REMARK UNBOUND:                -0.860
REMARK  4 active torsions:
REMARK  status: ('A' for Active; 'I' for Inactive)
REMARK    1  A    between atoms: S_2  and  N_5 
REMARK    2  A    between atoms: N_5  and  C_7 
REMARK    3  A    between atoms: C_15  and  C_16 
REMARK       I    between atoms: C_16  and  N_18 
REMARK    4  A    between atoms: N_18  and  C_20 
ROOT
HETATM    1  C   UNL     1       8.587   0.694  22.294  1.00  0.00     0.109 C 
HETATM    2  C   UNL     1       9.165  -0.151  23.064  1.00  0.00    -0.008 A 
HETATM    3  C   UNL     1      10.198  -0.691  23.496  1.00  0.00     0.058 A 
HETATM    4  C   UNL     1      11.359  -1.527  22.723  1.00  0.00    -0.003 C 
HETATM    5  C   UNL     1      12.386  -1.534  22.954  1.00  0.00    -0.002 C 
HETATM    6  C   UNL     1      13.144  -0.764  23.979  1.00  0.00    -0.001 C 
HETATM    7  C   UNL     1      12.301   0.121  24.552  1.00  0.00    -0.002 C 
HETATM    8  C   UNL     1      11.251   0.339  24.512  1.00  0.00    -0.003 C 
HETATM    9  C   UNL     1       9.581  -1.354  24.314  1.00  0.00     0.040 A 
ENDROOT
BRANCH   9  10
HETATM   10  C   UNL     1       8.908  -2.159  25.162  1.00  0.00     0.254 C 
HETATM   11  O   UNL     1       8.625  -1.708  26.164  1.00  0.00    -0.268 OA
HETATM   12  N   UNL     1       8.724  -3.370  24.658  1.00  0.00    -0.321 N 
ATOM     13  HN  UNL     1       9.113  -3.626  23.749  1.00  0.00     0.169 HD
BRANCH  12  14
HETATM   14  C   UNL     1       8.053  -4.197  25.338  1.00  0.00     0.056 A 
HETATM   15  C   UNL     1       8.274  -5.020  26.336  1.00  0.00     0.117 A 
HETATM   16  N   UNL     1       7.842  -5.840  27.133  1.00  0.00    -0.373 N 
HETATM   17  C   UNL     1       6.531  -5.917  26.794  1.00  0.00     0.088 A 
ATOM     18  HN  UNL     1       8.342  -6.339  27.868  1.00  0.00     0.164 HD
HETATM   19  C   UNL     1       6.007  -5.231  25.819  1.00  0.00     0.026 A 
HETATM   20  C   UNL     1       6.513  -4.343  25.027  1.00  0.00    -0.033 A 
HETATM   21  C   UNL     1       5.839  -3.584  23.999  1.00  0.00     0.050 C 
ENDBRANCH  12  14
ENDBRANCH   9  10
BRANCH   1  22
HETATM   22  N   UNL     1       7.730   1.104  21.556  1.00  0.00    -0.295 N 
ATOM     23  HN  UNL     1       7.429   2.063  21.733  1.00  0.00     0.177 HD
BRANCH  22  24
HETATM   24  S   UNL     1       6.991   0.375  20.338  1.00  0.00     0.226 S 
HETATM   25  C   UNL     1       5.702   1.233  19.947  1.00  0.00     0.186 C 
HETATM   26  O   UNL     1       7.870   0.309  19.181  1.00  0.00    -0.206 OA
HETATM   27  O   UNL     1       6.595  -0.954  20.718  1.00  0.00    -0.206 OA
ENDBRANCH  22  24
ENDBRANCH   1  22
TORSDOF 4
ENDMDL
MODEL 2
REMARK VINA RESULT:    -7.761      2.603      6.086
REMARK INTER + INTRA:         -10.436
REMARK INTER:                  -9.766
REMARK INTRA:                  -0.669
REMARK UNBOUND:                -0.860
REMARK  4 active torsions:
REMARK  status: ('A' for Active; 'I' for Inactive)
REMARK    1  A    between atoms: S_2  and  N_5 
REMARK    2  A    between atoms: N_5  and  C_7 
REMARK    3  A    between atoms: C_15  and  C_16 
REMARK       I    between atoms: C_16  and  N_18 
REMARK    4  A    between atoms: N_18  and  C_20 
ROOT
HETATM    1  C   UNL     1       8.622  -3.579  23.773  1.00  0.00     0.109 C 
HETATM    2  C   UNL     1       8.925  -2.405  23.357  1.00  0.00    -0.008 A 
HETATM    3  C   UNL     1       9.577  -1.353  23.468  1.00  0.00     0.058 A 
HETATM    4  C   UNL     1       9.646  -0.273  24.681  1.00  0.00    -0.003 C 
HETATM    5  C   UNL     1      10.491   0.278  24.983  1.00  0.00    -0.002 C 
HETATM    6  C   UNL     1      11.894   0.231  24.486  1.00  0.00    -0.001 C 
HETATM    7  C   UNL     1      11.997  -0.785  23.604  1.00  0.00    -0.002 C 
HETATM    8  C   UNL     1      11.330  -1.481  23.133  1.00  0.00    -0.003 C 
HETATM    9  C   UNL     1       9.126  -0.894  22.431  1.00  0.00     0.040 A 
ENDROOT
BRANCH   9  10
HETATM   10  C   UNL     1       8.571  -0.335  21.336  1.00  0.00     0.254 C 
HETATM   11  O   UNL     1       9.262   0.290  20.687  1.00  0.00    -0.268 OA
HETATM   12  N   UNL     1       7.279  -0.607  21.239  1.00  0.00    -0.321 N 
ATOM     13  HN  UNL     1       6.797  -1.140  21.963  1.00  0.00     0.169 HD
BRANCH  12  14
HETATM   14  C   UNL     1       6.661  -0.184  20.220  1.00  0.00     0.056 A 
HETATM   15  C   UNL     1       6.354  -0.640  19.029  1.00  0.00     0.117 A 
HETATM   16  N   UNL     1       5.795  -0.472  17.955  1.00  0.00    -0.373 N 
HETATM   17  C   UNL     1       5.270   0.771  18.088  1.00  0.00     0.088 A 
ATOM     18  HN  UNL     1       5.738  -1.107  17.159  1.00  0.00     0.164 HD
HETATM   19  C   UNL     1       5.423   1.497  19.159  1.00  0.00     0.026 A 
HETATM   20  C   UNL     1       6.000   1.247  20.288  1.00  0.00    -0.033 A 
HETATM   21  C   UNL     1       6.075   2.097  21.454  1.00  0.00     0.050 C 
ENDBRANCH  12  14
ENDBRANCH   9  10
BRANCH   1  22
HETATM   22  N   UNL     1       7.898  -4.509  24.011  1.00  0.00    -0.295 N 
ATOM     23  HN  UNL     1       8.151  -5.054  24.836  1.00  0.00     0.177 HD
BRANCH  22  24
HETATM   24  S   UNL     1       6.598  -5.023  23.230  1.00  0.00     0.226 S 
HETATM   25  C   UNL     1       7.070  -6.006  22.064  1.00  0.00     0.186 C 
HETATM   26  O   UNL     1       5.728  -5.760  24.131  1.00  0.00    -0.206 OA
HETATM   27  O   UNL     1       5.881  -3.910  22.669  1.00  0.00    -0.206 OA
ENDBRANCH  22  24
ENDBRANCH   1  22
TORSDOF 4
ENDMDL
MODEL 3
REMARK VINA RESULT:    -7.350      3.468      7.558
REMARK INTER + INTRA:          -9.929
REMARK INTER:                  -9.157
REMARK INTRA:                  -0.772
REMARK UNBOUND:                -0.860
REMARK  4 active torsions:
REMARK  status: ('A' for Active; 'I' for Inactive)
REMARK    1  A    between atoms: S_2  and  N_5 
REMARK    2  A    between atoms: N_5  and  C_7 
REMARK    3  A    between atoms: C_15  and  C_16 
REMARK       I    between atoms: C_16  and  N_18 
REMARK    4  A    between atoms: N_18  and  C_20 
ROOT
HETATM    1  C   UNL     1       7.049  -5.717  26.643  1.00  0.00     0.109 C 
HETATM    2  C   UNL     1       7.123  -5.015  25.574  1.00  0.00    -0.008 A 
HETATM    3  C   UNL     1       6.971  -4.894  24.346  1.00  0.00     0.058 A 
HETATM    4  C   UNL     1       7.624  -5.726  23.111  1.00  0.00    -0.003 C 
HETATM    5  C   UNL     1       7.157  -5.962  22.197  1.00  0.00    -0.002 C 
HETATM    6  C   UNL     1       5.766  -5.698  21.735  1.00  0.00    -0.001 C 
HETATM    7  C   UNL     1       5.067  -5.183  22.768  1.00  0.00    -0.002 C 
HETATM    8  C   UNL     1       5.278  -4.855  23.768  1.00  0.00    -0.003 C 
HETATM    9  C   UNL     1       7.288  -3.715  24.363  1.00  0.00     0.040 A 
ENDROOT
BRANCH   9  10
HETATM   10  C   UNL     1       7.722  -2.438  24.349  1.00  0.00     0.254 C 
HETATM   11  O   UNL     1       6.927  -1.637  24.467  1.00  0.00    -0.268 OA
HETATM   12  N   UNL     1       9.032  -2.359  24.166  1.00  0.00    -0.321 N 
ATOM     13  HN  UNL     1       9.593  -3.197  24.009  1.00  0.00     0.169 HD
BRANCH  12  14
HETATM   14  C   UNL     1       9.564  -1.213  24.194  1.00  0.00     0.056 A 
HETATM   15  C   UNL     1      10.087  -0.421  25.099  1.00  0.00     0.117 A 
HETATM   16  N   UNL     1      10.647   0.630  25.374  1.00  0.00    -0.373 N 
HETATM   17  C   UNL     1      10.750   1.233  24.164  1.00  0.00     0.088 A 
ATOM     18  HN  UNL     1      10.958   0.968  26.284  1.00  0.00     0.164 HD
HETATM   19  C   UNL     1      10.299   0.702  23.064  1.00  0.00     0.026 A 
HETATM   20  C   UNL     1       9.743  -0.441  22.829  1.00  0.00    -0.033 A 
HETATM   21  C   UNL     1       9.320  -0.978  21.556  1.00  0.00     0.050 C 
ENDBRANCH  12  14
ENDBRANCH   9  10
BRANCH   1  22
HETATM   22  N   UNL     1       7.398  -6.121  27.720  1.00  0.00    -0.295 N 
ATOM     23  HN  UNL     1       8.407  -6.215  27.841  1.00  0.00     0.177 HD
BRANCH  22  24
HETATM   24  S   UNL     1       6.521  -6.533  28.995  1.00  0.00     0.226 S 
HETATM   25  C   UNL     1       5.031  -6.828  28.504  1.00  0.00     0.186 C 
HETATM   26  O   UNL     1       7.054  -7.741  29.604  1.00  0.00    -0.206 OA
HETATM   27  O   UNL     1       6.514  -5.468  29.961  1.00  0.00    -0.206 OA
ENDBRANCH  22  24
ENDBRANCH   1  22
TORSDOF 4
ENDMDL
MODEL 4
REMARK VINA RESULT:    -7.221      1.319      1.357
REMARK INTER + INTRA:          -9.770
REMARK INTER:                  -8.934
REMARK INTRA:                  -0.836
REMARK UNBOUND:                -0.860
REMARK  4 active torsions:
REMARK  status: ('A' for Active; 'I' for Inactive)
REMARK    1  A    between atoms: S_2  and  N_5 
REMARK    2  A    between atoms: N_5  and  C_7 
REMARK    3  A    between atoms: C_15  and  C_16 
REMARK       I    between atoms: C_16  and  N_18 
REMARK    4  A    between atoms: N_18  and  C_20 
ROOT
HETATM    1  C   UNL     1       8.647   0.786  22.371  1.00  0.00     0.109 C 
HETATM    2  C   UNL     1       9.217  -0.077  23.127  1.00  0.00    -0.008 A 
HETATM    3  C   UNL     1      10.244  -0.638  23.547  1.00  0.00     0.058 A 
HETATM    4  C   UNL     1      11.387  -1.483  22.758  1.00  0.00    -0.003 C 
HETATM    5  C   UNL     1      12.416  -1.507  22.981  1.00  0.00    -0.002 C 
HETATM    6  C   UNL     1      13.191  -0.761  24.011  1.00  0.00    -0.001 C 
HETATM    7  C   UNL     1      12.366   0.130  24.599  1.00  0.00    -0.002 C 
HETATM    8  C   UNL     1      11.319   0.364  24.568  1.00  0.00    -0.003 C 
HETATM    9  C   UNL     1       9.622  -1.301  24.361  1.00  0.00     0.040 A 
ENDROOT
BRANCH   9  10
HETATM   10  C   UNL     1       8.942  -2.105  25.204  1.00  0.00     0.254 C 
HETATM   11  O   UNL     1       8.634  -1.648  26.196  1.00  0.00    -0.268 OA
HETATM   12  N   UNL     1       8.781  -3.323  24.708  1.00  0.00    -0.321 N 
ATOM     13  HN  UNL     1       9.189  -3.583  23.810  1.00  0.00     0.169 HD
BRANCH  12  14
HETATM   14  C   UNL     1       8.106  -4.151  25.383  1.00  0.00     0.056 A 
HETATM   15  C   UNL     1       8.321  -4.974  26.383  1.00  0.00     0.117 A 
HETATM   16  N   UNL     1       7.885  -5.794  27.177  1.00  0.00    -0.373 N 
HETATM   17  C   UNL     1       6.577  -5.873  26.828  1.00  0.00     0.088 A 
ATOM     18  HN  UNL     1       8.380  -6.293  27.915  1.00  0.00     0.164 HD
HETATM   19  C   UNL     1       6.059  -5.188  25.850  1.00  0.00     0.026 A 
HETATM   20  C   UNL     1       6.569  -4.300  25.061  1.00  0.00    -0.033 A 
HETATM   21  C   UNL     1       5.901  -3.541  24.028  1.00  0.00     0.050 C 
ENDBRANCH  12  14
ENDBRANCH   9  10
BRANCH   1  22
HETATM   22  N   UNL     1       7.792   1.217  21.643  1.00  0.00    -0.295 N 
ATOM     23  HN  UNL     1       7.870   0.930  20.667  1.00  0.00     0.177 HD
BRANCH  22  24
HETATM   24  S   UNL     1       6.551   2.173  21.972  1.00  0.00     0.226 S 
HETATM   25  C   UNL     1       7.103   3.655  22.190  1.00  0.00     0.186 C 
HETATM   26  O   UNL     1       5.616   2.187  20.859  1.00  0.00    -0.206 OA
HETATM   27  O   UNL     1       5.877   1.724  23.162  1.00  0.00    -0.206 OA
ENDBRANCH  22  24
ENDBRANCH   1  22
TORSDOF 4
ENDMDL
MODEL 5
REMARK VINA RESULT:    -6.953      2.190      2.731
REMARK INTER + INTRA:          -9.439
REMARK INTER:                  -8.844
REMARK INTRA:                  -0.595
REMARK UNBOUND:                -0.860
REMARK  4 active torsions:
REMARK  status: ('A' for Active; 'I' for Inactive)
REMARK    1  A    between atoms: S_2  and  N_5 
REMARK    2  A    between atoms: N_5  and  C_7 
REMARK    3  A    between atoms: C_15  and  C_16 
REMARK       I    between atoms: C_16  and  N_18 
REMARK    4  A    between atoms: N_18  and  C_20 
ROOT
HETATM    1  C   UNL     1       6.635  -1.043  21.166  1.00  0.00     0.109 C 
HETATM    2  C   UNL     1       7.285  -1.731  22.029  1.00  0.00    -0.008 A 
HETATM    3  C   UNL     1       8.278  -1.891  22.759  1.00  0.00     0.058 A 
HETATM    4  C   UNL     1       9.858  -2.000  22.390  1.00  0.00    -0.003 C 
HETATM    5  C   UNL     1      10.664  -1.644  22.966  1.00  0.00    -0.002 C 
HETATM    6  C   UNL     1      10.663  -0.879  24.244  1.00  0.00    -0.001 C 
HETATM    7  C   UNL     1       9.387  -0.554  24.543  1.00  0.00    -0.002 C 
HETATM    8  C   UNL     1       8.413  -0.774  24.150  1.00  0.00    -0.003 C 
HETATM    9  C   UNL     1       7.822  -2.907  23.259  1.00  0.00     0.040 A 
ENDROOT
BRANCH   9  10
HETATM   10  C   UNL     1       7.375  -4.078  23.756  1.00  0.00     0.254 C 
HETATM   11  O   UNL     1       8.141  -4.910  23.848  1.00  0.00    -0.268 OA
HETATM   12  N   UNL     1       6.078  -4.041  24.026  1.00  0.00    -0.321 N 
ATOM     13  HN  UNL     1       5.520  -3.214  23.814  1.00  0.00     0.169 HD
BRANCH  12  14
HETATM   14  C   UNL     1       5.556  -5.064  24.553  1.00  0.00     0.056 A 
HETATM   15  C   UNL     1       4.977  -6.167  24.138  1.00  0.00     0.117 A 
HETATM   16  N   UNL     1       4.454  -7.239  24.403  1.00  0.00    -0.373 N 
HETATM   17  C   UNL     1       4.499  -7.261  25.758  1.00  0.00     0.088 A 
ATOM     18  HN  UNL     1       4.077  -7.940  23.765  1.00  0.00     0.164 HD
HETATM   19  C   UNL     1       4.999  -6.291  26.469  1.00  0.00     0.026 A 
HETATM   20  C   UNL     1       5.578  -5.187  26.126  1.00  0.00    -0.033 A 
HETATM   21  C   UNL     1       6.158  -4.184  26.988  1.00  0.00     0.050 C 
ENDBRANCH  12  14
ENDBRANCH   9  10
BRANCH   1  22
HETATM   22  N   UNL     1       5.937  -0.862  20.203  1.00  0.00    -0.295 N 
ATOM     23  HN  UNL     1       5.114  -1.462  20.146  1.00  0.00     0.177 HD
BRANCH  22  24
HETATM   24  S   UNL     1       6.102   0.179  18.998  1.00  0.00     0.226 S 
HETATM   25  C   UNL     1       5.260   1.490  19.349  1.00  0.00     0.186 C 
HETATM   26  O   UNL     1       7.498   0.555  18.844  1.00  0.00    -0.206 OA
HETATM   27  O   UNL     1       5.619  -0.396  17.772  1.00  0.00    -0.206 OA
ENDBRANCH  22  24
ENDBRANCH   1  22
TORSDOF 4
ENDMDL
MODEL 6
REMARK VINA RESULT:    -6.858     13.895     16.376
REMARK INTER + INTRA:          -9.321
REMARK INTER:                  -8.636
REMARK INTRA:                  -0.685
REMARK UNBOUND:                -0.860
REMARK  4 active torsions:
REMARK  status: ('A' for Active; 'I' for Inactive)
REMARK    1  A    between atoms: S_2  and  N_5 
REMARK    2  A    between atoms: N_5  and  C_7 
REMARK    3  A    between atoms: C_15  and  C_16 
REMARK       I    between atoms: C_16  and  N_18 
REMARK    4  A    between atoms: N_18  and  C_20 
ROOT
HETATM    1  C   UNL     1      23.617  -4.626  24.705  1.00  0.00     0.109 C 
HETATM    2  C   UNL     1      23.390  -3.500  25.273  1.00  0.00    -0.008 A 
HETATM    3  C   UNL     1      22.885  -2.365  25.261  1.00  0.00     0.058 A 
HETATM    4  C   UNL     1      23.121  -1.111  24.253  1.00  0.00    -0.003 C 
HETATM    5  C   UNL     1      22.398  -0.410  23.944  1.00  0.00    -0.002 C 
HETATM    6  C   UNL     1      20.940  -0.342  24.239  1.00  0.00    -0.001 C 
HETATM    7  C   UNL     1      20.592  -1.459  24.912  1.00  0.00    -0.002 C 
HETATM    8  C   UNL     1      21.098  -2.303  25.340  1.00  0.00    -0.003 C 
HETATM    9  C   UNL     1      23.223  -2.137  26.412  1.00  0.00     0.040 A 
ENDROOT
BRANCH   9  10
HETATM   10  C   UNL     1      23.667  -1.834  27.649  1.00  0.00     0.254 C 
HETATM   11  O   UNL     1      23.978  -0.756  27.821  1.00  0.00    -0.268 OA
HETATM   12  N   UNL     1      23.682  -2.892  28.446  1.00  0.00    -0.321 N 
ATOM     13  HN  UNL     1      23.425  -3.816  28.098  1.00  0.00     0.169 HD
BRANCH  12  14
HETATM   14  C   UNL     1      24.023  -2.720  29.650  1.00  0.00     0.056 A 
HETATM   15  C   UNL     1      23.425  -2.461  30.789  1.00  0.00     0.117 A 
HETATM   16  N   UNL     1      23.500  -2.286  31.996  1.00  0.00    -0.373 N 
HETATM   17  C   UNL     1      24.829  -2.418  32.229  1.00  0.00     0.088 A 
ATOM     18  HN  UNL     1      22.751  -2.091  32.660  1.00  0.00     0.164 HD
HETATM   19  C   UNL     1      25.696  -2.658  31.288  1.00  0.00     0.026 A 
HETATM   20  C   UNL     1      25.549  -2.871  30.022  1.00  0.00    -0.033 A 
HETATM   21  C   UNL     1      26.571  -3.188  29.051  1.00  0.00     0.050 C 
ENDBRANCH  12  14
ENDBRANCH   9  10
BRANCH   1  22
HETATM   22  N   UNL     1      24.259  -5.598  24.406  1.00  0.00    -0.295 N 
ATOM     23  HN  UNL     1      24.696  -5.562  23.485  1.00  0.00     0.177 HD
BRANCH  22  24
HETATM   24  S   UNL     1      24.533  -6.940  25.235  1.00  0.00     0.226 S 
HETATM   25  C   UNL     1      26.111  -7.175  25.303  1.00  0.00     0.186 C 
HETATM   26  O   UNL     1      24.027  -6.807  26.591  1.00  0.00    -0.206 OA
HETATM   27  O   UNL     1      23.900  -8.061  24.592  1.00  0.00    -0.206 OA
ENDBRANCH  22  24
ENDBRANCH   1  22
TORSDOF 4
ENDMDL
MODEL 7
REMARK VINA RESULT:    -6.847     14.012     16.437
REMARK INTER + INTRA:          -9.307
REMARK INTER:                  -8.519
REMARK INTRA:                  -0.788
REMARK UNBOUND:                -0.860
REMARK  4 active torsions:
REMARK  status: ('A' for Active; 'I' for Inactive)
REMARK    1  A    between atoms: S_2  and  N_5 
REMARK    2  A    between atoms: N_5  and  C_7 
REMARK    3  A    between atoms: C_15  and  C_16 
REMARK       I    between atoms: C_16  and  N_18 
REMARK    4  A    between atoms: N_18  and  C_20 
ROOT
HETATM    1  C   UNL     1      24.034  -3.739  24.340  1.00  0.00     0.109 C 
HETATM    2  C   UNL     1      23.501  -2.756  23.714  1.00  0.00    -0.008 A 
HETATM    3  C   UNL     1      22.999  -1.619  23.712  1.00  0.00     0.058 A 
HETATM    4  C   UNL     1      21.693  -1.037  24.487  1.00  0.00    -0.003 C 
HETATM    5  C   UNL     1      21.575  -0.065  24.873  1.00  0.00    -0.002 C 
HETATM    6  C   UNL     1      22.536   1.073  24.918  1.00  0.00    -0.001 C 
HETATM    7  C   UNL     1      23.733   0.633  24.477  1.00  0.00    -0.002 C 
HETATM    8  C   UNL     1      24.123  -0.268  24.044  1.00  0.00    -0.003 C 
HETATM    9  C   UNL     1      22.893  -1.603  22.496  1.00  0.00     0.040 A 
ENDROOT
BRANCH   9  10
HETATM   10  C   UNL     1      22.685  -1.604  21.163  1.00  0.00     0.254 C 
HETATM   11  O   UNL     1      21.627  -1.829  20.820  1.00  0.00    -0.268 OA
HETATM   12  N   UNL     1      23.798  -1.362  20.487  1.00  0.00    -0.321 N 
ATOM     13  HN  UNL     1      24.691  -1.246  20.966  1.00  0.00     0.169 HD
BRANCH  12  14
HETATM   14  C   UNL     1      23.717  -1.279  19.228  1.00  0.00     0.056 A 
HETATM   15  C   UNL     1      23.408  -0.359  18.346  1.00  0.00     0.117 A 
HETATM   16  N   UNL     1      23.285  -0.028  17.176  1.00  0.00    -0.373 N 
HETATM   17  C   UNL     1      23.622  -1.162  16.513  1.00  0.00     0.088 A 
ATOM     18  HN  UNL     1      23.001   0.874  16.794  1.00  0.00     0.164 HD
HETATM   19  C   UNL     1      23.959  -2.265  17.117  1.00  0.00     0.026 A 
HETATM   20  C   UNL     1      24.107  -2.545  18.371  1.00  0.00    -0.033 A 
HETATM   21  C   UNL     1      24.542  -3.792  18.956  1.00  0.00     0.050 C 
ENDBRANCH  12  14
ENDBRANCH   9  10
BRANCH   1  22
HETATM   22  N   UNL     1      24.255  -4.894  24.591  1.00  0.00    -0.295 N 
ATOM     23  HN  UNL     1      24.391  -5.495  23.777  1.00  0.00     0.177 HD
BRANCH  22  24
HETATM   24  S   UNL     1      24.368  -5.633  26.006  1.00  0.00     0.226 S 
HETATM   25  C   UNL     1      25.895  -5.593  26.472  1.00  0.00     0.186 C 
HETATM   26  O   UNL     1      23.564  -4.942  27.001  1.00  0.00    -0.206 OA
HETATM   27  O   UNL     1      23.928  -6.998  25.894  1.00  0.00    -0.206 OA
ENDBRANCH  22  24
ENDBRANCH   1  22
TORSDOF 4
ENDMDL
MODEL 8
REMARK VINA RESULT:    -6.739      2.915      5.344
REMARK INTER + INTRA:          -9.175
REMARK INTER:                  -8.541
REMARK INTRA:                  -0.634
REMARK UNBOUND:                -0.860
REMARK  4 active torsions:
REMARK  status: ('A' for Active; 'I' for Inactive)
REMARK    1  A    between atoms: S_2  and  N_5 
REMARK    2  A    between atoms: N_5  and  C_7 
REMARK    3  A    between atoms: C_15  and  C_16 
REMARK       I    between atoms: C_16  and  N_18 
REMARK    4  A    between atoms: N_18  and  C_20 
ROOT
HETATM    1  C   UNL     1       9.114  -2.628  24.039  1.00  0.00     0.109 C 
HETATM    2  C   UNL     1       8.207  -3.510  24.238  1.00  0.00    -0.008 A 
HETATM    3  C   UNL     1       7.292  -4.236  23.812  1.00  0.00     0.058 A 
HETATM    4  C   UNL     1       5.896  -3.856  23.071  1.00  0.00    -0.003 C 
HETATM    5  C   UNL     1       5.414  -4.410  22.317  1.00  0.00    -0.002 C 
HETATM    6  C   UNL     1       5.841  -5.657  21.623  1.00  0.00    -0.001 C 
HETATM    7  C   UNL     1       7.095  -5.956  22.023  1.00  0.00    -0.002 C 
HETATM    8  C   UNL     1       7.795  -5.582  22.745  1.00  0.00    -0.003 C 
HETATM    9  C   UNL     1       7.139  -4.779  24.894  1.00  0.00     0.040 A 
ENDROOT
BRANCH   9  10
HETATM   10  C   UNL     1       6.894  -5.326  26.103  1.00  0.00     0.254 C 
HETATM   11  O   UNL     1       7.798  -5.710  26.672  1.00  0.00    -0.268 OA
HETATM   12  N   UNL     1       5.602  -5.336  26.393  1.00  0.00    -0.321 N 
ATOM     13  HN  UNL     1       4.909  -5.003  25.721  1.00  0.00     0.169 HD
BRANCH  12  14
HETATM   14  C   UNL     1       5.254  -5.772  27.527  1.00  0.00     0.056 A 
HETATM   15  C   UNL     1       5.186  -6.937  28.126  1.00  0.00     0.117 A 
HETATM   16  N   UNL     1       4.937  -7.584  29.133  1.00  0.00    -0.373 N 
HETATM   17  C   UNL     1       4.543  -6.627  30.008  1.00  0.00     0.088 A 
ATOM     18  HN  UNL     1       5.007  -8.592  29.276  1.00  0.00     0.164 HD
HETATM   19  C   UNL     1       4.483  -5.363  29.700  1.00  0.00     0.026 A 
HETATM   20  C   UNL     1       4.798  -4.729  28.619  1.00  0.00    -0.033 A 
HETATM   21  C   UNL     1       4.751  -3.304  28.380  1.00  0.00     0.050 C 
ENDBRANCH  12  14
ENDBRANCH   9  10
BRANCH   1  22
HETATM   22  N   UNL     1       9.789  -1.666  24.297  1.00  0.00    -0.295 N 
ATOM     23  HN  UNL     1       9.599  -1.234  25.202  1.00  0.00     0.177 HD
BRANCH  22  24
HETATM   24  S   UNL     1      10.940  -0.960  23.437  1.00  0.00     0.226 S 
HETATM   25  C   UNL     1      11.948  -0.240  24.443  1.00  0.00     0.186 C 
HETATM   26  O   UNL     1      11.679  -1.952  22.674  1.00  0.00    -0.206 OA
HETATM   27  O   UNL     1      10.369   0.010  22.541  1.00  0.00    -0.206 OA
ENDBRANCH  22  24
ENDBRANCH   1  22
TORSDOF 4
ENDMDL
MODEL 9
REMARK VINA RESULT:    -6.575     24.688     27.748
REMARK INTER + INTRA:          -8.973
REMARK INTER:                  -8.277
REMARK INTRA:                  -0.695
REMARK UNBOUND:                -0.860
REMARK  4 active torsions:
REMARK  status: ('A' for Active; 'I' for Inactive)
REMARK    1  A    between atoms: S_2  and  N_5 
REMARK    2  A    between atoms: N_5  and  C_7 
REMARK    3  A    between atoms: C_15  and  C_16 
REMARK       I    between atoms: C_16  and  N_18 
REMARK    4  A    between atoms: N_18  and  C_20 
ROOT
HETATM    1  C   UNL     1       7.904  14.180   2.350  1.00  0.00     0.109 C 
HETATM    2  C   UNL     1       8.489  15.305   2.534  1.00  0.00    -0.008 A 
HETATM    3  C   UNL     1       8.668  16.495   2.224  1.00  0.00     0.058 A 
HETATM    4  C   UNL     1       9.167  17.162   0.827  1.00  0.00    -0.003 C 
HETATM    5  C   UNL     1       8.852  18.082   0.423  1.00  0.00    -0.002 C 
HETATM    6  C   UNL     1       7.829  19.045   0.916  1.00  0.00    -0.001 C 
HETATM    7  C   UNL     1       7.202  18.492   1.975  1.00  0.00    -0.002 C 
HETATM    8  C   UNL     1       7.310  17.607   2.573  1.00  0.00    -0.003 C 
HETATM    9  C   UNL     1       9.433  16.686   3.156  1.00  0.00     0.040 A 
ENDROOT
BRANCH   9  10
HETATM   10  C   UNL     1      10.347  16.890   4.126  1.00  0.00     0.254 C 
HETATM   11  O   UNL     1      11.190  16.132   4.189  1.00  0.00    -0.268 OA
HETATM   12  N   UNL     1      10.064  17.955   4.861  1.00  0.00    -0.321 N 
ATOM     13  HN  UNL     1       9.212  18.493   4.701  1.00  0.00     0.169 HD
BRANCH  12  14
HETATM   14  C   UNL     1      10.882  18.283   5.766  1.00  0.00     0.056 A 
HETATM   15  C   UNL     1      11.101  17.967   7.021  1.00  0.00     0.117 A 
HETATM   16  N   UNL     1      11.776  18.096   8.032  1.00  0.00    -0.373 N 
HETATM   17  C   UNL     1      12.714  18.995   7.645  1.00  0.00     0.088 A 
ATOM     18  HN  UNL     1      11.661  17.642   8.938  1.00  0.00     0.164 HD
HETATM   19  C   UNL     1      12.750  19.518   6.453  1.00  0.00     0.026 A 
HETATM   20  C   UNL     1      12.023  19.311   5.405  1.00  0.00    -0.033 A 
HETATM   21  C   UNL     1      12.169  19.900   4.093  1.00  0.00     0.050 C 
ENDBRANCH  12  14
ENDBRANCH   9  10
BRANCH   1  22
HETATM   22  N   UNL     1       7.815  12.982   2.296  1.00  0.00    -0.295 N 
ATOM     23  HN  UNL     1       8.000  12.576   1.379  1.00  0.00     0.177 HD
BRANCH  22  24
HETATM   24  S   UNL     1       7.451  11.927   3.444  1.00  0.00     0.226 S 
HETATM   25  C   UNL     1       6.386  12.601   4.425  1.00  0.00     0.186 C 
HETATM   26  O   UNL     1       6.854  10.736   2.864  1.00  0.00    -0.206 OA
HETATM   27  O   UNL     1       8.632  11.565   4.181  1.00  0.00    -0.206 OA
ENDBRANCH  22  24
ENDBRANCH   1  22
TORSDOF 4
ENDMDL
