REMARK  4 active torsions:
REMARK  status: ('A' for Active; 'I' for Inactive)
REMARK    1  A    between atoms: S_2  and  N_5 
REMARK    2  A    between atoms: N_5  and  C_7 
REMARK    3  A    between atoms: C_15  and  C_16 
REMARK       I    between atoms: C_16  and  N_18 
REMARK    4  A    between atoms: N_18  and  C_20 
ROOT
HETATM    1  C   UNL     1       8.963  -2.932  24.142  1.00  0.00     0.109 C 
HETATM    2  C   UNL     1       9.424  -1.921  23.504  1.00  0.00    -0.008 A 
HETATM    3  C   UNL     1      10.331  -1.099  23.289  1.00  0.00     0.058 A 
HETATM    4  C   UNL     1      11.041  -0.022  24.279  1.00  0.00    -0.003 C 
HETATM    5  C   UNL     1      12.051   0.275  24.262  1.00  0.00    -0.002 C 
HETATM    6  C   UNL     1      13.177  -0.204  23.413  1.00  0.00    -0.001 C 
HETATM    7  C   UNL     1      12.741  -1.252  22.683  1.00  0.00    -0.002 C 
HETATM    8  C   UNL     1      11.805  -1.748  22.510  1.00  0.00    -0.003 C 
HETATM    9  C   UNL     1       9.727  -0.585  22.361  1.00  0.00     0.040 A 
ENDROOT
BRANCH   9  10
HETATM   10  C   UNL     1       9.037   0.052  21.393  1.00  0.00     0.254 C 
HETATM   11  O   UNL     1       9.497   1.011  20.997  1.00  0.00    -0.268 OA
HETATM   12  N   UNL     1       7.904  -0.568  21.099  1.00  0.00    -0.321 N 
ATOM     13  HN  UNL     1       7.611  -1.400  21.612  1.00  0.00     0.169 HD
BRANCH  12  14
HETATM   14  C   UNL     1       7.198  -0.096  20.163  1.00  0.00     0.056 A 
HETATM   15  C   UNL     1       7.266  -0.022  18.855  1.00  0.00     0.117 A 
HETATM   16  N   UNL     1       6.759   0.321  17.797  1.00  0.00    -0.373 N 
HETATM   17  C   UNL     1       5.598   0.894  18.200  1.00  0.00     0.088 A 
ATOM     18  HN  UNL     1       7.119   0.205  16.850  1.00  0.00     0.164 HD
HETATM   19  C   UNL     1       5.251   0.994  19.451  1.00  0.00     0.026 A 
HETATM   20  C   UNL     1       5.819   0.575  20.534  1.00  0.00    -0.033 A 
HETATM   21  C   UNL     1       5.332   0.682  21.890  1.00  0.00     0.050 C 
ENDBRANCH  12  14
ENDBRANCH   9  10
BRANCH   1  22
HETATM   22  N   UNL     1       8.126  -3.598  24.692  1.00  0.00    -0.295 N 
ATOM     23  HN  UNL     1       7.257  -3.717  24.171  1.00  0.00     0.177 HD
BRANCH  22  24
HETATM   24  S   UNL     1       8.168  -4.326  26.117  1.00  0.00     0.226 S 
HETATM   25  C   UNL     1       6.693  -4.827  26.468  1.00  0.00     0.186 C 
HETATM   26  O   UNL     1       9.048  -5.482  26.067  1.00  0.00    -0.206 OA
HETATM   27  O   UNL     1       8.627  -3.414  27.130  1.00  0.00    -0.206 OA
ENDBRANCH  22  24
ENDBRANCH   1  22
TORSDOF 4
