MODEL 1
REMARK VINA RESULT:    -4.838      0.000      0.000
REMARK INTER + INTRA:          -6.110
REMARK INTER:                  -5.828
REMARK INTRA:                  -0.282
REMARK UNBOUND:                -0.282
REMARK  4 active torsions:
REMARK  status: ('A' for Active; 'I' for Inactive)
REMARK    1  A    between atoms: C_5  and  C_8 
REMARK    2  A    between atoms: C_8  and  C_9 
REMARK    3  A    between atoms: C_9  and  C_12 
REMARK    4  A    between atoms: C_12  and  O_14 
ROOT
HETATM    1  C   UNL     1       6.611  14.504   3.204  1.00  0.00    -0.013 C 
HETATM    2  C   UNL     1       5.792  14.733   4.419  1.00  0.00     0.037 C 
HETATM    3  C   UNL     1       7.441  13.504   2.827  1.00  0.00     0.037 C 
ENDROOT
BRANCH   3   4
HETATM    4  C   UNL     1       6.988  12.497   1.931  1.00  0.00     0.068 A 
HETATM    5  N   UNL     1       6.739  11.917   0.822  1.00  0.00    -0.356 N 
HETATM    6  C   UNL     1       6.432  11.201   1.738  1.00  0.00     0.033 A 
ATOM      7  HN  UNL     1       6.776  12.005  -0.194  1.00  0.00     0.166 HD
HETATM    8  C   UNL     1       5.629   9.923   1.800  1.00  0.00     0.070 C 
ENDBRANCH   3   4
BRANCH   3   9
HETATM    9  C   UNL     1       8.820  13.588   3.265  1.00  0.00     0.189 C 
HETATM   10  O   UNL     1       9.347  12.740   3.942  1.00  0.00    -0.289 OA
BRANCH   9  11
HETATM   11  C   UNL     1       9.733  14.942   3.002  1.00  0.00     0.188 C 
HETATM   12  C   UNL     1       9.780  16.180   3.949  1.00  0.00     0.048 C 
BRANCH  11  13
HETATM   13  O   UNL     1      11.005  14.556   2.824  1.00  0.00    -0.388 OA
HETATM   14  H   UNL     1      11.442  15.467   2.733  1.00  0.00     0.210 HD
ENDBRANCH  11  13
ENDBRANCH   9  11
ENDBRANCH   3   9
TORSDOF 4
ENDMDL
MODEL 2
REMARK VINA RESULT:    -4.746      2.360      4.265
REMARK INTER + INTRA:          -5.999
REMARK INTER:                  -5.718
REMARK INTRA:                  -0.281
REMARK UNBOUND:                -0.282
REMARK  4 active torsions:
REMARK  status: ('A' for Active; 'I' for Inactive)
REMARK    1  A    between atoms: C_5  and  C_8 
REMARK    2  A    between atoms: C_8  and  C_9 
REMARK    3  A    between atoms: C_9  and  C_12 
REMARK    4  A    between atoms: C_12  and  O_14 
ROOT
HETATM    1  C   UNL     1       7.573  14.277   2.279  1.00  0.00    -0.013 C 
HETATM    2  C   UNL     1       7.090  13.111   1.498  1.00  0.00     0.037 C 
HETATM    3  C   UNL     1       8.783  14.870   2.396  1.00  0.00     0.037 C 
ENDROOT
BRANCH   3   4
HETATM    4  C   UNL     1       9.074  16.053   1.664  1.00  0.00     0.068 A 
HETATM    5  N   UNL     1       9.432  16.787   0.684  1.00  0.00    -0.356 N 
HETATM    6  C   UNL     1       9.102  17.476   1.613  1.00  0.00     0.033 A 
ATOM      7  HN  UNL     1       9.777  16.789  -0.276  1.00  0.00     0.166 HD
HETATM    8  C   UNL     1       9.262  18.952   1.886  1.00  0.00     0.070 C 
ENDBRANCH   3   4
BRANCH   3   9
HETATM    9  C   UNL     1       9.693  14.327   3.384  1.00  0.00     0.189 C 
HETATM   10  O   UNL     1       9.627  13.191   3.785  1.00  0.00    -0.289 OA
BRANCH   9  11
HETATM   11  C   UNL     1      10.799  15.280   4.163  1.00  0.00     0.188 C 
HETATM   12  C   UNL     1      10.452  16.314   5.278  1.00  0.00     0.048 C 
BRANCH  11  13
HETATM   13  O   UNL     1      11.750  14.482   4.672  1.00  0.00    -0.388 OA
HETATM   14  H   UNL     1      12.507  15.153   4.741  1.00  0.00     0.210 HD
ENDBRANCH  11  13
ENDBRANCH   9  11
ENDBRANCH   3   9
TORSDOF 4
ENDMDL
MODEL 3
REMARK VINA RESULT:    -4.565     21.953     22.938
REMARK INTER + INTRA:          -5.781
REMARK INTER:                  -5.543
REMARK INTRA:                  -0.238
REMARK UNBOUND:                -0.282
REMARK  4 active torsions:
REMARK  status: ('A' for Active; 'I' for Inactive)
REMARK    1  A    between atoms: C_5  and  C_8 
REMARK    2  A    between atoms: C_8  and  C_9 
REMARK    3  A    between atoms: C_9  and  C_12 
REMARK    4  A    between atoms: C_12  and  O_14 
ROOT
HETATM    1  C   UNL     1       8.065   0.813  21.606  1.00  0.00    -0.013 C 
HETATM    2  C   UNL     1       9.509   1.111  21.775  1.00  0.00     0.037 C 
HETATM    3  C   UNL     1       7.399  -0.188  20.986  1.00  0.00     0.037 C 
ENDROOT
BRANCH   3   4
HETATM    4  C   UNL     1       6.878  -1.276  21.739  1.00  0.00     0.068 A 
HETATM    5  N   UNL     1       6.041  -1.960  22.416  1.00  0.00    -0.356 N 
HETATM    6  C   UNL     1       7.060  -2.582  22.274  1.00  0.00     0.033 A 
ATOM      7  HN  UNL     1       5.104  -1.973  22.820  1.00  0.00     0.166 HD
HETATM    8  C   UNL     1       7.575  -3.845  22.923  1.00  0.00     0.070 C 
ENDBRANCH   3   4
BRANCH   3   9
HETATM    9  C   UNL     1       7.131  -0.027  19.571  1.00  0.00     0.189 C 
HETATM   10  O   UNL     1       7.997   0.177  18.757  1.00  0.00    -0.289 OA
BRANCH   9  11
HETATM   11  C   UNL     1       5.586   0.049  18.983  1.00  0.00     0.188 C 
HETATM   12  C   UNL     1       4.673   1.312  19.046  1.00  0.00     0.048 C 
BRANCH  11  13
HETATM   13  O   UNL     1       5.612  -0.332  17.697  1.00  0.00    -0.388 OA
HETATM   14  H   UNL     1       5.390  -1.315  17.814  1.00  0.00     0.210 HD
ENDBRANCH  11  13
ENDBRANCH   9  11
ENDBRANCH   3   9
TORSDOF 4
ENDMDL
MODEL 4
REMARK VINA RESULT:    -4.542     36.486     38.227
REMARK INTER + INTRA:          -5.754
REMARK INTER:                  -5.454
REMARK INTRA:                  -0.299
REMARK UNBOUND:                -0.282
REMARK  4 active torsions:
REMARK  status: ('A' for Active; 'I' for Inactive)
REMARK    1  A    between atoms: C_5  and  C_8 
REMARK    2  A    between atoms: C_8  and  C_9 
REMARK    3  A    between atoms: C_9  and  C_12 
REMARK    4  A    between atoms: C_12  and  O_14 
ROOT
HETATM    1  C   UNL     1      20.922 -22.411  13.448  1.00  0.00    -0.013 C 
HETATM    2  C   UNL     1      21.870 -23.430  13.963  1.00  0.00     0.037 C 
HETATM    3  C   UNL     1      20.728 -21.104  13.739  1.00  0.00     0.037 C 
ENDROOT
BRANCH   3   4
HETATM    4  C   UNL     1      21.270 -20.095  12.897  1.00  0.00     0.068 A 
HETATM    5  N   UNL     1      22.120 -19.265  12.432  1.00  0.00    -0.356 N 
HETATM    6  C   UNL     1      21.116 -19.238  11.771  1.00  0.00     0.033 A 
ATOM      7  HN  UNL     1      23.055 -18.874  12.548  1.00  0.00     0.166 HD
HETATM    8  C   UNL     1      20.628 -18.280  10.710  1.00  0.00     0.070 C 
ENDBRANCH   3   4
BRANCH   3   9
HETATM    9  C   UNL     1      19.845 -20.797  14.846  1.00  0.00     0.189 C 
HETATM   10  O   UNL     1      18.751 -20.311  14.700  1.00  0.00    -0.289 OA
BRANCH   9  11
HETATM   11  C   UNL     1      20.342 -20.942  16.418  1.00  0.00     0.188 C 
HETATM   12  C   UNL     1      21.811 -21.215  16.864  1.00  0.00     0.048 C 
BRANCH  11  13
HETATM   13  O   UNL     1      19.944 -19.847  17.082  1.00  0.00    -0.388 OA
HETATM   14  H   UNL     1      19.530 -19.331  16.312  1.00  0.00     0.210 HD
ENDBRANCH  11  13
ENDBRANCH   9  11
ENDBRANCH   3   9
TORSDOF 4
ENDMDL
MODEL 5
REMARK VINA RESULT:    -4.465     22.081     22.833
REMARK INTER + INTRA:          -5.660
REMARK INTER:                  -5.378
REMARK INTRA:                  -0.283
REMARK UNBOUND:                -0.282
REMARK  4 active torsions:
REMARK  status: ('A' for Active; 'I' for Inactive)
REMARK    1  A    between atoms: C_5  and  C_8 
REMARK    2  A    between atoms: C_8  and  C_9 
REMARK    3  A    between atoms: C_9  and  C_12 
REMARK    4  A    between atoms: C_12  and  O_14 
ROOT
HETATM    1  C   UNL     1       7.441   0.421  22.311  1.00  0.00    -0.013 C 
HETATM    2  C   UNL     1       6.910  -0.558  23.292  1.00  0.00     0.037 C 
HETATM    3  C   UNL     1       8.339   0.320  21.304  1.00  0.00     0.037 C 
ENDROOT
BRANCH   3   4
HETATM    4  C   UNL     1       7.896   0.181  19.960  1.00  0.00     0.068 A 
HETATM    5  N   UNL     1       7.908  -0.175  18.735  1.00  0.00    -0.356 N 
HETATM    6  C   UNL     1       6.887   0.410  18.982  1.00  0.00     0.033 A 
ATOM      7  HN  UNL     1       8.443  -0.652  18.009  1.00  0.00     0.166 HD
HETATM    8  C   UNL     1       5.803   0.974  18.095  1.00  0.00     0.070 C 
ENDBRANCH   3   4
BRANCH   3   9
HETATM    9  C   UNL     1       9.737   0.495  21.644  1.00  0.00     0.189 C 
HETATM   10  O   UNL     1      10.350   1.506  21.404  1.00  0.00    -0.289 OA
BRANCH   9  11
HETATM   11  C   UNL     1      10.646  -0.749  22.247  1.00  0.00     0.188 C 
HETATM   12  C   UNL     1      10.949  -0.977  23.760  1.00  0.00     0.048 C 
BRANCH  11  13
HETATM   13  O   UNL     1      10.131  -1.899  21.789  1.00  0.00    -0.388 OA
HETATM   14  H   UNL     1       9.160  -1.758  22.048  1.00  0.00     0.210 HD
ENDBRANCH  11  13
ENDBRANCH   9  11
ENDBRANCH   3   9
TORSDOF 4
ENDMDL
MODEL 6
REMARK VINA RESULT:    -4.455     21.944     22.835
REMARK INTER + INTRA:          -5.648
REMARK INTER:                  -5.428
REMARK INTRA:                  -0.220
REMARK UNBOUND:                -0.282
REMARK  4 active torsions:
REMARK  status: ('A' for Active; 'I' for Inactive)
REMARK    1  A    between atoms: C_5  and  C_8 
REMARK    2  A    between atoms: C_8  and  C_9 
REMARK    3  A    between atoms: C_9  and  C_12 
REMARK    4  A    between atoms: C_12  and  O_14 
ROOT
HETATM    1  C   UNL     1       7.791   1.231  22.034  1.00  0.00    -0.013 C 
HETATM    2  C   UNL     1       8.200   2.643  22.242  1.00  0.00     0.037 C 
HETATM    3  C   UNL     1       8.209   0.268  21.182  1.00  0.00     0.037 C 
ENDROOT
BRANCH   3   4
HETATM    4  C   UNL     1       9.119  -0.732  21.621  1.00  0.00     0.068 A 
HETATM    5  N   UNL     1       9.627  -1.892  21.774  1.00  0.00    -0.356 N 
HETATM    6  C   UNL     1      10.323  -1.066  22.303  1.00  0.00     0.033 A 
ATOM      7  HN  UNL     1       9.515  -2.887  21.576  1.00  0.00     0.166 HD
HETATM    8  C   UNL     1      11.484  -1.183  23.262  1.00  0.00     0.070 C 
ENDBRANCH   3   4
BRANCH   3   9
HETATM    9  C   UNL     1       7.590   0.230  19.872  1.00  0.00     0.189 C 
HETATM   10  O   UNL     1       8.193  -0.057  18.867  1.00  0.00    -0.289 OA
BRANCH   9  11
HETATM   11  C   UNL     1       6.034   0.740  19.631  1.00  0.00     0.188 C 
HETATM   12  C   UNL     1       5.468   1.256  18.273  1.00  0.00     0.048 C 
BRANCH  11  13
HETATM   13  O   UNL     1       5.210  -0.238  20.035  1.00  0.00    -0.388 OA
HETATM   14  H   UNL     1       5.706  -0.535  20.869  1.00  0.00     0.210 HD
ENDBRANCH  11  13
ENDBRANCH   9  11
ENDBRANCH   3   9
TORSDOF 4
ENDMDL
MODEL 7
REMARK VINA RESULT:    -4.445     21.279     22.317
REMARK INTER + INTRA:          -5.636
REMARK INTER:                  -5.485
REMARK INTRA:                  -0.150
REMARK UNBOUND:                -0.282
REMARK  4 active torsions:
REMARK  status: ('A' for Active; 'I' for Inactive)
REMARK    1  A    between atoms: C_5  and  C_8 
REMARK    2  A    between atoms: C_8  and  C_9 
REMARK    3  A    between atoms: C_9  and  C_12 
REMARK    4  A    between atoms: C_12  and  O_14 
ROOT
HETATM    1  C   UNL     1       7.632  -0.971  21.412  1.00  0.00    -0.013 C 
HETATM    2  C   UNL     1       6.638  -1.732  22.210  1.00  0.00     0.037 C 
HETATM    3  C   UNL     1       7.591   0.233  20.797  1.00  0.00     0.037 C 
ENDROOT
BRANCH   3   4
HETATM    4  C   UNL     1       8.169   1.374  21.416  1.00  0.00     0.068 A 
HETATM    5  N   UNL     1       8.286   2.582  21.811  1.00  0.00    -0.356 N 
HETATM    6  C   UNL     1       9.231   1.936  22.180  1.00  0.00     0.033 A 
ATOM      7  HN  UNL     1       7.853   3.506  21.813  1.00  0.00     0.166 HD
HETATM    8  C   UNL     1      10.560   2.337  22.775  1.00  0.00     0.070 C 
ENDBRANCH   3   4
BRANCH   3   9
HETATM    9  C   UNL     1       7.062   0.269  19.448  1.00  0.00     0.189 C 
HETATM   10  O   UNL     1       7.763   0.336  18.468  1.00  0.00    -0.289 OA
BRANCH   9  11
HETATM   11  C   UNL     1       5.437   0.386  19.155  1.00  0.00     0.188 C 
HETATM   12  C   UNL     1       4.585   1.673  19.377  1.00  0.00     0.048 C 
BRANCH  11  13
HETATM   13  O   UNL     1       5.215   0.001  17.889  1.00  0.00    -0.388 OA
HETATM   14  H   UNL     1       4.307  -0.434  18.008  1.00  0.00     0.210 HD
ENDBRANCH  11  13
ENDBRANCH   9  11
ENDBRANCH   3   9
TORSDOF 4
ENDMDL
MODEL 8
REMARK VINA RESULT:    -4.273     24.543     25.529
REMARK INTER + INTRA:          -5.429
REMARK INTER:                  -5.238
REMARK INTRA:                  -0.192
REMARK UNBOUND:                -0.282
REMARK  4 active torsions:
REMARK  status: ('A' for Active; 'I' for Inactive)
REMARK    1  A    between atoms: C_5  and  C_8 
REMARK    2  A    between atoms: C_8  and  C_9 
REMARK    3  A    between atoms: C_9  and  C_12 
REMARK    4  A    between atoms: C_12  and  O_14 
ROOT
HETATM    1  C   UNL     1      24.370  -0.999  14.236  1.00  0.00    -0.013 C 
HETATM    2  C   UNL     1      25.673  -1.374  13.633  1.00  0.00     0.037 C 
HETATM    3  C   UNL     1      23.990  -0.710  15.502  1.00  0.00     0.037 C 
ENDROOT
BRANCH   3   4
HETATM    4  C   UNL     1      23.844   0.642  15.915  1.00  0.00     0.068 A 
HETATM    5  N   UNL     1      23.278   1.766  16.125  1.00  0.00    -0.356 N 
HETATM    6  C   UNL     1      24.412   1.796  16.525  1.00  0.00     0.033 A 
ATOM      7  HN  UNL     1      22.415   2.300  16.019  1.00  0.00     0.166 HD
HETATM    8  C   UNL     1      25.297   2.934  16.975  1.00  0.00     0.070 C 
ENDBRANCH   3   4
BRANCH   3   9
HETATM    9  C   UNL     1      23.618  -1.825  16.351  1.00  0.00     0.189 C 
HETATM   10  O   UNL     1      23.368  -2.923  15.921  1.00  0.00    -0.289 OA
BRANCH   9  11
HETATM   11  C   UNL     1      23.348  -1.629  17.972  1.00  0.00     0.188 C 
HETATM   12  C   UNL     1      24.442  -1.249  19.015  1.00  0.00     0.048 C 
BRANCH  11  13
HETATM   13  O   UNL     1      22.358  -0.737  18.123  1.00  0.00    -0.388 OA
HETATM   14  H   UNL     1      21.631  -1.356  18.465  1.00  0.00     0.210 HD
ENDBRANCH  11  13
ENDBRANCH   9  11
ENDBRANCH   3   9
TORSDOF 4
ENDMDL
MODEL 9
REMARK VINA RESULT:    -4.269     24.694     25.354
REMARK INTER + INTRA:          -5.424
REMARK INTER:                  -5.066
REMARK INTRA:                  -0.358
REMARK UNBOUND:                -0.282
REMARK  4 active torsions:
REMARK  status: ('A' for Active; 'I' for Inactive)
REMARK    1  A    between atoms: C_5  and  C_8 
REMARK    2  A    between atoms: C_8  and  C_9 
REMARK    3  A    between atoms: C_9  and  C_12 
REMARK    4  A    between atoms: C_12  and  O_14 
ROOT
HETATM    1  C   UNL     1       9.311  -0.517  21.519  1.00  0.00    -0.013 C 
HETATM    2  C   UNL     1       8.666   0.814  21.636  1.00  0.00     0.037 C 
HETATM    3  C   UNL     1       9.753  -1.410  22.434  1.00  0.00     0.037 C 
ENDROOT
BRANCH   3   4
HETATM    4  C   UNL     1       8.957  -2.537  22.776  1.00  0.00     0.068 A 
HETATM    5  N   UNL     1       8.153  -3.516  22.622  1.00  0.00    -0.356 N 
HETATM    6  C   UNL     1       8.531  -3.471  23.763  1.00  0.00     0.033 A 
ATOM      7  HN  UNL     1       7.565  -4.017  21.956  1.00  0.00     0.166 HD
HETATM    8  C   UNL     1       8.059  -4.173  25.014  1.00  0.00     0.070 C 
ENDBRANCH   3   4
BRANCH   3   9
HETATM    9  C   UNL     1      11.102  -1.234  22.933  1.00  0.00     0.189 C 
HETATM   10  O   UNL     1      12.033  -1.905  22.561  1.00  0.00    -0.289 OA
BRANCH   9  11
HETATM   11  C   UNL     1      11.440  -0.199  24.179  1.00  0.00     0.188 C 
HETATM   12  C   UNL     1      11.665   1.336  24.023  1.00  0.00     0.048 C 
BRANCH  11  13
HETATM   13  O   UNL     1      10.487  -0.347  25.111  1.00  0.00    -0.388 OA
HETATM   14  H   UNL     1      10.437   0.609  25.448  1.00  0.00     0.210 HD
ENDBRANCH  11  13
ENDBRANCH   9  11
ENDBRANCH   3   9
TORSDOF 4
ENDMDL
