REMARK  4 active torsions:
REMARK  status: ('A' for Active; 'I' for Inactive)
REMARK    1  A    between atoms: C_5  and  C_8 
REMARK    2  A    between atoms: C_8  and  C_9 
REMARK    3  A    between atoms: C_9  and  C_12 
REMARK    4  A    between atoms: C_12  and  O_14 
ROOT
HETATM    1  C   UNL     1      10.279  -0.388  23.487  1.00  0.00    -0.013 C 
HETATM    2  C   UNL     1      11.756  -0.529  23.509  1.00  0.00     0.037 C 
HETATM    3  C   UNL     1       9.318  -0.890  22.678  1.00  0.00     0.037 C 
ENDROOT
BRANCH   3   4
HETATM    4  C   UNL     1       8.562  -2.024  23.082  1.00  0.00     0.068 A 
HETATM    5  N   UNL     1       7.696  -2.959  23.020  1.00  0.00    -0.356 N 
HETATM    6  C   UNL     1       8.316  -3.041  24.047  1.00  0.00     0.033 A 
ATOM      7  HN  UNL     1       6.952  -3.373  22.458  1.00  0.00     0.166 HD
HETATM    8  C   UNL     1       8.095  -3.853  25.301  1.00  0.00     0.070 C 
ENDBRANCH   3   4
BRANCH   3   9
HETATM    9  C   UNL     1       9.015  -0.147  21.471  1.00  0.00     0.189 C 
HETATM   10  O   UNL     1       9.857   0.418  20.818  1.00  0.00    -0.289 OA
BRANCH   9  11
HETATM   11  C   UNL     1       7.456   0.120  20.984  1.00  0.00     0.188 C 
HETATM   12  C   UNL     1       6.989   0.189  19.498  1.00  0.00     0.048 C 
BRANCH  11  13
HETATM   13  O   UNL     1       6.673  -0.789  21.583  1.00  0.00    -0.388 OA
HETATM   14  H   UNL     1       7.255  -1.611  21.463  1.00  0.00     0.210 HD
ENDBRANCH  11  13
ENDBRANCH   9  11
ENDBRANCH   3   9
TORSDOF 4
