stable:False satoms:21 tatoms:24 sratio:0.875
  -OEChem-07092417353D

 24 24  0     1  0  0  0  0  0999 V2000
    7.0292   -4.0266   25.2692 H   0  0  0  0  0  0  0  0  0  0  0  0
    8.0949   -3.8529   25.3008 C   0  0  0  0  0  0  0  0  0  0  0  0
    8.6069   -4.8045   25.2957 H   0  0  0  0  0  0  0  0  0  0  0  0
    8.3493   -3.3470   26.2258 H   0  0  0  0  0  0  0  0  0  0  0  0
    7.6960   -2.9587   23.0199 N   0  0  0  0  0  0  0  0  0  0  0  0
    8.3155   -3.0412   24.0465 C   0  0  0  0  0  0  0  0  0  0  0  0
    8.5620   -2.0239   23.0819 C   0  0  0  0  0  0  0  0  0  0  0  0
   10.2793   -0.3876   23.4867 C   0  0  0  0  0  0  0  0  0  0  0  0
    9.9381    0.3534   24.1849 H   0  0  0  0  0  0  0  0  0  0  0  0
   12.1988    0.4681   23.5769 H   0  0  0  0  0  0  0  0  0  0  0  0
   12.1656   -1.0592   24.3665 H   0  0  0  0  0  0  0  0  0  0  0  0
   12.1028   -1.0447   22.6172 H   0  0  0  0  0  0  0  0  0  0  0  0
   11.7564   -0.5289   23.5095 C   0  0  0  0  0  0  0  0  0  0  0  0
    9.3182   -0.8904   22.6776 C   0  0  0  0  0  0  0  0  0  0  0  0
    9.0148   -0.1474   21.4713 C   0  0  0  0  0  0  0  0  0  0  0  0
    9.8566    0.4182   20.8182 O   0  0  0  0  0  0  0  0  0  0  0  0
    7.2545   -1.6111   21.4626 H   0  0  0  0  0  0  0  0  0  0  0  0
    7.4559    0.1203   20.9843 C   0  0  1  0  0  0  0  0  0  0  0  0
    6.8228   -0.8252   19.1384 H   0  0  0  0  0  0  0  0  0  0  0  0
    7.7304    0.6289   18.8485 H   0  0  0  0  0  0  0  0  0  0  0  0
    6.0714    0.7658   19.4132 H   0  0  0  0  0  0  0  0  0  0  0  0
    6.9895    0.1889   19.4976 C   0  0  0  0  0  0  0  0  0  0  0  0
    6.6728   -0.7893   21.5832 O   0  0  0  0  0  0  0  0  0  0  0  0
    7.3024    1.1046   21.4204 H   0  0  0  0  0  0  0  0  0  0  0  0
 20 22  1  0  0  0  0
 19 22  1  0  0  0  0
 21 22  1  0  0  0  0
 18 22  1  0  0  0  0
 15 16  2  0  0  0  0
 18 24  1  0  0  0  0
 15 18  1  0  0  0  0
 18 23  1  0  0  0  0
 17 23  1  0  0  0  0
 14 15  1  0  0  0  0
 12 13  1  0  0  0  0
  7 14  1  0  0  0  0
  8 14  2  3  0  0  0
  5  7  1  0  0  0  0
  5  6  1  0  0  0  0
  6  7  2  0  0  0  0
  8 13  1  0  0  0  0
  8  9  1  0  0  0  0
 10 13  1  0  0  0  0
 11 13  1  0  0  0  0
  2  6  1  0  0  0  0
  1  2  1  0  0  0  0
  2  3  1  0  0  0  0
  2  4  1  0  0  0  0
M  END
> <Shapegauss>
-122.223984

$$$$
