stable:False satoms:21 tatoms:24 sratio:0.875
  -OEChem-08052420143D

 28 28  0     1  0  0  0  0  0999 V2000
    6.9367   -5.3851   27.2898 H   0  0  0  0  0  0  0  0  0  0  0  0
    7.2211   -5.0945   26.3762 N   0  3  0  0  0  0  0  0  0  0  0  0
    8.5594   -3.7408   27.1480 H   0  0  0  0  0  0  0  0  0  0  0  0
    9.0069   -2.4091   24.8822 C   0  0  0  0  0  0  0  0  0  0  0  0
    4.1100   -4.5979   24.2796 C   0  0  0  0  0  0  0  0  0  0  0  0
    4.6000   -4.7926   25.2252 H   0  0  0  0  0  0  0  0  0  0  0  0
    6.6282   -5.5856   24.0631 N   0  0  0  0  0  0  0  0  0  0  0  0
    7.8647   -5.3713   22.0697 O   0  5  0  0  0  0  0  0  0  0  0  0
    4.4674   -3.6294   23.9012 H   0  0  0  0  0  0  0  0  0  0  0  0
    9.4995   -2.3240   23.5942 C   0  0  0  0  0  0  0  0  0  0  0  0
   10.2259   -1.6703   23.1438 H   0  0  0  0  0  0  0  0  0  0  0  0
    8.1020   -4.2016   26.2443 C   0  0  0  0  0  0  0  0  0  0  0  0
    8.5322   -3.6766   25.0494 N   0  0  0  0  0  0  0  0  0  0  0  0
    4.4104   -5.6901   23.2659 C   0  0  0  0  0  0  0  0  0  0  0  0
    8.3097   -4.0390   23.7439 C   0  0  3  0  0  0  0  0  0  0  0  0
    8.9351   -3.2774   22.8364 O   0  0  0  0  0  0  0  0  0  0  0  0
    7.5460   -5.0609   23.3788 N   0  0  3  0  0  0  0  0  0  0  0  0
    8.8454   -1.6603   25.6082 H   0  0  0  0  0  0  0  0  0  0  0  0
    5.6133   -7.8061   21.8668 H   0  0  0  0  0  0  0  0  0  0  0  0
    5.8598   -7.0084   22.3496 N   0  0  0  0  0  0  0  0  0  0  0  0
    3.6483   -6.3028   22.6372 N   0  3  0  0  0  0  0  0  0  0  0  0
    3.0318   -4.6055   24.3703 H   0  0  0  0  0  0  0  0  0  0  0  0
    5.6991   -6.0846   23.1994 N   0  3  0  0  0  0  0  0  0  0  0  0
    6.5882   -5.6285   25.0614 H   0  0  0  0  0  0  0  0  0  0  0  0
    7.4368   -3.3708   23.7055 H   0  0  0  0  0  0  0  0  0  0  0  0
    2.6678   -6.1324   22.7352 H   0  0  0  0  0  0  0  0  0  0  0  0
    6.8070   -5.5118   25.5672 H   0  0  0  0  0  0  0  0  0  0  0  0
    3.9733   -7.0003   21.9985 H   0  0  0  0  0  0  0  0  0  0  0  0
 19 20  1  0  0  0  0
 20 23  2  3  0  0  0
 14 21  2  0  0  0  0
 14 23  1  0  0  0  0
  7 23  1  0  0  0  0
  5 14  1  0  0  0  0
  8 17  1  0  0  0  0
  7 17  1  0  0  0  0
  5 22  1  0  0  0  0
 15 17  1  0  0  0  0
  5  6  1  0  0  0  0
  5  9  1  0  0  0  0
 15 16  1  0  0  0  0
 13 15  1  0  0  0  0
 10 16  1  0  0  0  0
  1  2  1  0  0  0  0
  2 12  2  0  0  0  0
 12 13  1  0  0  0  0
  4 13  1  0  0  0  0
  3 12  1  0  0  0  0
 10 11  1  0  0  0  0
  4 10  2  0  0  0  0
  4 18  1  0  0  0  0
  7 24  1  0  0  0  0
 15 25  1  0  0  0  0
 21 26  1  0  0  0  0
  2 27  1  0  0  0  0
 21 28  1  0  0  0  0
M  CHG  4   2   1   8  -1  21   1  23   1
M  END
> <Chemgauss4>
-6.780428

$$$$
