stable:False satoms:21 tatoms:24 sratio:0.875
  -OEChem-08052420143D

 28 28  0     1  0  0  0  0  0999 V2000
   -6.9857   -4.8002  -27.3075 H   0  0  0  0  0  0  0  0  0  0  0  0
   -7.2011   -4.5491  -26.3638 N   0  3  0  0  0  0  0  0  0  0  0  0
   -8.3770   -2.9804  -26.9765 H   0  0  0  0  0  0  0  0  0  0  0  0
   -8.5769   -1.7862  -24.6013 C   0  0  0  0  0  0  0  0  0  0  0  0
   -3.9873   -4.6171  -24.3669 C   0  0  0  0  0  0  0  0  0  0  0  0
   -4.5280   -4.6729  -25.3033 H   0  0  0  0  0  0  0  0  0  0  0  0
   -6.6039   -5.2927  -24.1203 N   0  0  0  0  0  0  0  0  0  0  0  0
   -7.7387   -5.0822  -22.0668 O   0  5  0  0  0  0  0  0  0  0  0  0
   -4.2044   -3.6442  -23.9030 H   0  0  0  0  0  0  0  0  0  0  0  0
   -9.0134   -1.7417  -23.2913 C   0  0  0  0  0  0  0  0  0  0  0  0
   -9.6346   -1.0392  -22.7637 H   0  0  0  0  0  0  0  0  0  0  0  0
   -7.9547   -3.5654  -26.1294 C   0  0  0  0  0  0  0  0  0  0  0  0
   -8.2755   -3.0864  -24.8819 N   0  0  0  0  0  0  0  0  0  0  0  0
   -4.3941   -5.7393  -23.4258 C   0  0  0  0  0  0  0  0  0  0  0  0
   -8.0605   -3.5761  -23.6173 C   0  0  3  0  0  0  0  0  0  0  0  0
   -8.5533   -2.8157  -22.6306 O   0  0  0  0  0  0  0  0  0  0  0  0
   -7.4240   -4.7120  -23.3614 N   0  0  3  0  0  0  0  0  0  0  0  0
   -8.3431   -1.0088  -25.2757 H   0  0  0  0  0  0  0  0  0  0  0  0
   -5.8154   -7.7903  -22.1393 H   0  0  0  0  0  0  0  0  0  0  0  0
   -5.9719   -6.9322  -22.5507 N   0  0  0  0  0  0  0  0  0  0  0  0
   -3.6980   -6.4912  -22.8766 N   0  3  0  0  0  0  0  0  0  0  0  0
   -2.9225   -4.7537  -24.5026 H   0  0  0  0  0  0  0  0  0  0  0  0
   -5.7202   -5.9718  -23.3354 N   0  3  0  0  0  0  0  0  0  0  0  0
   -6.6013   -5.2612  -25.1198 H   0  0  0  0  0  0  0  0  0  0  0  0
   -7.1078   -3.0287  -23.5656 H   0  0  0  0  0  0  0  0  0  0  0  0
   -2.7073   -6.4389  -23.0021 H   0  0  0  0  0  0  0  0  0  0  0  0
   -6.8191   -5.0781  -25.6060 H   0  0  0  0  0  0  0  0  0  0  0  0
   -4.0900   -7.1904  -22.2786 H   0  0  0  0  0  0  0  0  0  0  0  0
 19 20  1  0  0  0  0
 20 23  2  3  0  0  0
 14 21  2  0  0  0  0
 14 23  1  0  0  0  0
  7 23  1  0  0  0  0
  5 14  1  0  0  0  0
  8 17  1  0  0  0  0
  7 17  1  0  0  0  0
  5 22  1  0  0  0  0
 15 17  1  0  0  0  0
  5  6  1  0  0  0  0
  5  9  1  0  0  0  0
 15 16  1  0  0  0  0
 13 15  1  0  0  0  0
 10 16  1  0  0  0  0
  1  2  1  0  0  0  0
  2 12  2  0  0  0  0
 12 13  1  0  0  0  0
  4 13  1  0  0  0  0
  3 12  1  0  0  0  0
 10 11  1  0  0  0  0
  4 10  2  0  0  0  0
  4 18  1  0  0  0  0
  7 24  1  0  0  0  0
 15 25  1  0  0  0  0
 21 26  1  0  0  0  0
  2 27  1  0  0  0  0
 21 28  1  0  0  0  0
M  CHG  4   2   1   8  -1  21   1  23   1
M  END
> <Chemgauss4>
-6.710134

$$$$
