MODEL 1
REMARK VINA RESULT:    -6.768      0.000      0.000
REMARK INTER + INTRA:          -9.002
REMARK INTER:                  -8.152
REMARK INTRA:                  -0.850
REMARK UNBOUND:                -0.850
REMARK  4 active torsions:
REMARK  status: ('A' for Active; 'I' for Inactive)
REMARK    1  A    between atoms: N_15  and  N_18 
REMARK    2  A    between atoms: C_17  and  N_20 
REMARK    3  A    between atoms: N_18  and  C_24 
REMARK    4  A    between atoms: N_20  and  O_22 
ROOT
HETATM    1 CL   UNL     1      10.084   3.586  23.289  1.00  0.00    -0.084 Cl
HETATM    2  C   UNL     1      10.846   0.976  23.043  1.00  0.00     0.050 C 
HETATM    3  C   UNL     1       9.824   1.860  23.017  1.00  0.00     0.038 C 
HETATM    4  C   UNL     1       8.567   1.371  22.595  1.00  0.00     0.058 C 
HETATM    5  C   UNL     1       8.310   0.048  22.185  1.00  0.00     0.088 C 
HETATM    6  C   UNL     1       9.322  -0.918  22.463  1.00  0.00     0.083 C 
HETATM    7  C   UNL     1      10.561  -0.480  22.771  1.00  0.00     0.064 C 
HETATM    8  N   UNL     1       9.148  -2.286  22.457  1.00  0.00    -0.359 N 
ATOM      9  HN  UNL     1       9.908  -2.965  22.487  1.00  0.00     0.165 HD
HETATM   10 CL   UNL     1      11.677  -1.769  22.935  1.00  0.00    -0.082 Cl
HETATM   11  C   UNL     1       7.898  -2.591  22.407  1.00  0.00     0.138 C 
HETATM   12  C   UNL     1       6.934  -1.781  21.676  1.00  0.00     0.136 C 
HETATM   13  N   UNL     1       5.873  -2.217  21.090  1.00  0.00    -0.383 N 
ATOM     14  HN  UNL     1       5.707  -3.223  21.056  1.00  0.00     0.157 HD
HETATM   15  N   UNL     1       7.091  -0.458  21.479  1.00  0.00    -0.235 N 
HETATM   16  H   UNL     1       5.214  -1.608  20.672  1.00  0.00     0.157 HD
ENDROOT
BRANCH  15  17
HETATM   17  N   UNL     1       5.990   0.162  20.906  1.00  0.00    -0.267 N 
ATOM     18  HN  UNL     1       5.209   0.106  21.560  1.00  0.00     0.190 HD
BRANCH  17  19
HETATM   19  C   UNL     1       5.582   0.800  19.817  1.00  0.00     0.219 A 
HETATM   20  C   UNL     1       5.449   0.632  18.682  1.00  0.00     0.223 A 
HETATM   21  O   UNL     1       4.920   1.743  19.224  1.00  0.00    -0.266 OA
BRANCH  20  22
HETATM   22  N   UNL     1       5.640  -0.284  17.660  1.00  0.00    -0.243 N 
ATOM     23  HN  UNL     1       5.828  -0.182  16.663  1.00  0.00     0.196 HD
BRANCH  22  24
HETATM   24  O   UNL     1       5.498  -1.286  18.404  1.00  0.00    -0.288 OA
HETATM   25  H   UNL     1       4.922  -1.954  18.609  1.00  0.00     0.244 HD
ENDBRANCH  22  24
ENDBRANCH  20  22
ENDBRANCH  17  19
ENDBRANCH  15  17
TORSDOF 4
ENDMDL
MODEL 2
REMARK VINA RESULT:    -6.162     22.909     24.680
REMARK INTER + INTRA:          -8.273
REMARK INTER:                  -7.609
REMARK INTRA:                  -0.663
REMARK UNBOUND:                -0.850
REMARK  4 active torsions:
REMARK  status: ('A' for Active; 'I' for Inactive)
REMARK    1  A    between atoms: N_15  and  N_18 
REMARK    2  A    between atoms: C_17  and  N_20 
REMARK    3  A    between atoms: N_18  and  C_24 
REMARK    4  A    between atoms: N_20  and  O_22 
ROOT
HETATM    1 CL   UNL     1      -2.122 -23.079  10.329  1.00  0.00    -0.084 Cl
HETATM    2  C   UNL     1       0.470 -23.698   9.736  1.00  0.00     0.050 C 
HETATM    3  C   UNL     1      -0.469 -22.729   9.813  1.00  0.00     0.038 C 
HETATM    4  C   UNL     1      -0.031 -21.399   9.627  1.00  0.00     0.058 C 
HETATM    5  C   UNL     1       1.303 -21.012   9.390  1.00  0.00     0.088 C 
HETATM    6  C   UNL     1       2.223 -22.050   9.058  1.00  0.00     0.083 C 
HETATM    7  C   UNL     1       1.871 -23.327   9.319  1.00  0.00     0.064 C 
HETATM    8  N   UNL     1       3.460 -21.870   8.475  1.00  0.00    -0.359 N 
ATOM      9  HN  UNL     1       4.174 -22.594   8.400  1.00  0.00     0.165 HD
HETATM   10 CL   UNL     1       3.144 -24.425   8.990  1.00  0.00    -0.082 Cl
HETATM   11  C   UNL     1       3.591 -20.666   8.039  1.00  0.00     0.138 C 
HETATM   12  C   UNL     1       2.989 -19.528   8.719  1.00  0.00     0.136 C 
HETATM   13  N   UNL     1       3.466 -18.332   8.753  1.00  0.00    -0.383 N 
ATOM     14  HN  UNL     1       4.381 -18.153   8.339  1.00  0.00     0.157 HD
HETATM   15  N   UNL     1       1.867 -19.627   9.456  1.00  0.00    -0.235 N 
HETATM   16  H   UNL     1       2.972 -17.581   9.168  1.00  0.00     0.157 HD
ENDROOT
BRANCH  15  17
HETATM   17  N   UNL     1       1.363 -18.407   9.884  1.00  0.00    -0.267 N 
ATOM     18  HN  UNL     1       2.090 -17.922  10.410  1.00  0.00     0.190 HD
BRANCH  17  19
HETATM   19  C   UNL     1       0.280 -17.641   9.858  1.00  0.00     0.219 A 
HETATM   20  C   UNL     1      -0.086 -16.628   9.442  1.00  0.00     0.223 A 
HETATM   21  O   UNL     1      -1.000 -17.465   9.965  1.00  0.00    -0.266 OA
BRANCH  20  22
HETATM   22  N   UNL     1       0.311 -15.502   8.739  1.00  0.00    -0.243 N 
ATOM     23  HN  UNL     1      -0.123 -14.964   7.990  1.00  0.00     0.196 HD
BRANCH  22  24
HETATM   24  O   UNL     1       1.398 -15.383   9.358  1.00  0.00    -0.288 OA
HETATM   25  H   UNL     1       1.857 -15.696  10.074  1.00  0.00     0.244 HD
ENDBRANCH  22  24
ENDBRANCH  20  22
ENDBRANCH  17  19
ENDBRANCH  15  17
TORSDOF 4
ENDMDL
MODEL 3
REMARK VINA RESULT:    -6.024      6.934      9.088
REMARK INTER + INTRA:          -8.106
REMARK INTER:                  -7.521
REMARK INTRA:                  -0.585
REMARK UNBOUND:                -0.850
REMARK  4 active torsions:
REMARK  status: ('A' for Active; 'I' for Inactive)
REMARK    1  A    between atoms: N_15  and  N_18 
REMARK    2  A    between atoms: C_17  and  N_20 
REMARK    3  A    between atoms: N_18  and  C_24 
REMARK    4  A    between atoms: N_20  and  O_22 
ROOT
HETATM    1 CL   UNL     1       1.950  -5.464  24.463  1.00  0.00    -0.084 Cl
HETATM    2  C   UNL     1       4.187  -5.555  22.900  1.00  0.00     0.050 C 
HETATM    3  C   UNL     1       3.685  -5.378  24.142  1.00  0.00     0.038 C 
HETATM    4  C   UNL     1       4.617  -5.289  25.201  1.00  0.00     0.058 C 
HETATM    5  C   UNL     1       6.015  -5.392  25.059  1.00  0.00     0.088 C 
HETATM    6  C   UNL     1       6.532  -5.319  23.731  1.00  0.00     0.083 C 
HETATM    7  C   UNL     1       5.681  -5.501  22.700  1.00  0.00     0.064 C 
HETATM    8  N   UNL     1       7.845  -5.065  23.395  1.00  0.00    -0.359 N 
ATOM      9  HN  UNL     1       8.235  -5.184  22.460  1.00  0.00     0.165 HD
HETATM   10 CL   UNL     1       6.492  -5.521  21.191  1.00  0.00    -0.082 Cl
HETATM   11  C   UNL     1       8.511  -4.658  24.418  1.00  0.00     0.138 C 
HETATM   12  C   UNL     1       8.238  -5.147  25.762  1.00  0.00     0.136 C 
HETATM   13  N   UNL     1       9.104  -5.283  26.706  1.00  0.00    -0.383 N 
ATOM     14  HN  UNL     1      10.088  -5.111  26.501  1.00  0.00     0.157 HD
HETATM   15  N   UNL     1       7.022  -5.578  26.150  1.00  0.00    -0.235 N 
HETATM   16  H   UNL     1       8.845  -5.549  27.624  1.00  0.00     0.157 HD
ENDROOT
BRANCH  15  17
HETATM   17  N   UNL     1       6.925  -5.846  27.508  1.00  0.00    -0.267 N 
ATOM     18  HN  UNL     1       7.637  -6.533  27.754  1.00  0.00     0.190 HD
BRANCH  17  19
HETATM   19  C   UNL     1       6.244  -5.534  28.602  1.00  0.00     0.219 A 
HETATM   20  C   UNL     1       5.648  -6.036  29.455  1.00  0.00     0.223 A 
HETATM   21  O   UNL     1       5.942  -4.729  29.572  1.00  0.00    -0.266 OA
BRANCH  20  22
HETATM   22  N   UNL     1       5.190  -7.255  29.929  1.00  0.00    -0.243 N 
ATOM     23  HN  UNL     1       4.753  -7.538  30.805  1.00  0.00     0.196 HD
BRANCH  22  24
HETATM   24  O   UNL     1       5.506  -7.885  28.889  1.00  0.00    -0.288 OA
HETATM   25  H   UNL     1       5.457  -7.852  27.985  1.00  0.00     0.244 HD
ENDBRANCH  22  24
ENDBRANCH  20  22
ENDBRANCH  17  19
ENDBRANCH  15  17
TORSDOF 4
ENDMDL
MODEL 4
REMARK VINA RESULT:    -5.978     19.647     21.622
REMARK INTER + INTRA:          -8.051
REMARK INTER:                  -7.563
REMARK INTRA:                  -0.488
REMARK UNBOUND:                -0.850
REMARK  4 active torsions:
REMARK  status: ('A' for Active; 'I' for Inactive)
REMARK    1  A    between atoms: N_15  and  N_18 
REMARK    2  A    between atoms: C_17  and  N_20 
REMARK    3  A    between atoms: N_18  and  C_24 
REMARK    4  A    between atoms: N_20  and  O_22 
ROOT
HETATM    1 CL   UNL     1       4.911  11.589   7.884  1.00  0.00    -0.084 Cl
HETATM    2  C   UNL     1       4.805   9.462   6.175  1.00  0.00     0.050 C 
HETATM    3  C   UNL     1       5.060  10.782   6.319  1.00  0.00     0.038 C 
HETATM    4  C   UNL     1       5.612  11.452   5.205  1.00  0.00     0.058 C 
HETATM    5  C   UNL     1       5.933  10.846   3.974  1.00  0.00     0.088 C 
HETATM    6  C   UNL     1       5.424   9.532   3.754  1.00  0.00     0.083 C 
HETATM    7  C   UNL     1       4.982   8.828   4.818  1.00  0.00     0.064 C 
HETATM    8  N   UNL     1       5.331   8.902   2.531  1.00  0.00    -0.359 N 
ATOM      9  HN  UNL     1       5.130   7.910   2.405  1.00  0.00     0.165 HD
HETATM   10 CL   UNL     1       4.542   7.228   4.393  1.00  0.00    -0.082 Cl
HETATM   11  C   UNL     1       5.533   9.733   1.569  1.00  0.00     0.138 C 
HETATM   12  C   UNL     1       6.467  10.844   1.691  1.00  0.00     0.136 C 
HETATM   13  N   UNL     1       7.157  11.357   0.733  1.00  0.00    -0.383 N 
ATOM     14  HN  UNL     1       7.124  10.920  -0.188  1.00  0.00     0.157 HD
HETATM   15  N   UNL     1       6.759  11.427   2.870  1.00  0.00    -0.235 N 
HETATM   16  H   UNL     1       7.720  12.161   0.862  1.00  0.00     0.157 HD
ENDROOT
BRANCH  15  17
HETATM   17  N   UNL     1       7.539  12.569   2.756  1.00  0.00    -0.267 N 
ATOM     18  HN  UNL     1       7.352  13.001   1.851  1.00  0.00     0.190 HD
BRANCH  17  19
HETATM   19  C   UNL     1       8.440  13.303   3.394  1.00  0.00     0.219 A 
HETATM   20  C   UNL     1       9.306  14.037   3.181  1.00  0.00     0.223 A 
HETATM   21  O   UNL     1       8.878  13.915   4.450  1.00  0.00    -0.266 OA
BRANCH  20  22
HETATM   22  N   UNL     1      10.037  14.636   2.168  1.00  0.00    -0.243 N 
ATOM     23  HN  UNL     1       9.800  14.923   1.219  1.00  0.00     0.196 HD
BRANCH  22  24
HETATM   24  O   UNL     1      11.097  14.696   2.839  1.00  0.00    -0.288 OA
HETATM   25  H   UNL     1      11.583  15.248   3.368  1.00  0.00     0.244 HD
ENDBRANCH  22  24
ENDBRANCH  20  22
ENDBRANCH  17  19
ENDBRANCH  15  17
TORSDOF 4
ENDMDL
MODEL 5
REMARK VINA RESULT:    -5.910      5.124      6.729
REMARK INTER + INTRA:          -7.969
REMARK INTER:                  -7.385
REMARK INTRA:                  -0.584
REMARK UNBOUND:                -0.850
REMARK  4 active torsions:
REMARK  status: ('A' for Active; 'I' for Inactive)
REMARK    1  A    between atoms: N_15  and  N_18 
REMARK    2  A    between atoms: C_17  and  N_20 
REMARK    3  A    between atoms: N_18  and  C_24 
REMARK    4  A    between atoms: N_20  and  O_22 
ROOT
HETATM    1 CL   UNL     1      12.791  -0.129  24.407  1.00  0.00    -0.084 Cl
HETATM    2  C   UNL     1      10.803  -0.047  22.538  1.00  0.00     0.050 C 
HETATM    3  C   UNL     1      11.389   0.568  23.590  1.00  0.00     0.038 C 
HETATM    4  C   UNL     1      10.940   1.871  23.900  1.00  0.00     0.058 C 
HETATM    5  C   UNL     1       9.950   2.576  23.188  1.00  0.00     0.088 C 
HETATM    6  C   UNL     1       9.171   1.825  22.257  1.00  0.00     0.083 C 
HETATM    7  C   UNL     1       9.628   0.617  21.865  1.00  0.00     0.064 C 
HETATM    8  N   UNL     1       7.965   2.221  21.717  1.00  0.00    -0.359 N 
ATOM      9  HN  UNL     1       7.505   1.761  20.931  1.00  0.00     0.165 HD
HETATM   10 CL   UNL     1       8.646  -0.078  20.646  1.00  0.00    -0.082 Cl
HETATM   11  C   UNL     1       7.498   3.247  22.337  1.00  0.00     0.138 C 
HETATM   12  C   UNL     1       8.367   4.279  22.886  1.00  0.00     0.136 C 
HETATM   13  N   UNL     1       8.076   5.529  22.997  1.00  0.00    -0.383 N 
ATOM     14  HN  UNL     1       7.197   5.868  22.607  1.00  0.00     0.157 HD
HETATM   15  N   UNL     1       9.627   4.034  23.292  1.00  0.00    -0.235 N 
HETATM   16  H   UNL     1       8.679   6.172  23.449  1.00  0.00     0.157 HD
ENDROOT
BRANCH  15  17
HETATM   17  N   UNL     1      10.232   5.105  23.936  1.00  0.00    -0.267 N 
ATOM     18  HN  UNL     1       9.504   5.746  24.250  1.00  0.00     0.190 HD
BRANCH  17  19
HETATM   19  C   UNL     1      11.411   5.598  24.290  1.00  0.00     0.219 A 
HETATM   20  C   UNL     1      12.470   5.771  23.863  1.00  0.00     0.223 A 
HETATM   21  O   UNL     1      12.161   6.341  25.042  1.00  0.00    -0.266 OA
BRANCH  20  22
HETATM   22  N   UNL     1      13.270   5.571  22.750  1.00  0.00    -0.243 N 
ATOM     23  HN  UNL     1      13.230   5.925  21.795  1.00  0.00     0.196 HD
BRANCH  22  24
HETATM   24  O   UNL     1      14.063   4.797  23.342  1.00  0.00    -0.288 OA
HETATM   25  H   UNL     1      14.343   3.936  23.368  1.00  0.00     0.244 HD
ENDBRANCH  22  24
ENDBRANCH  20  22
ENDBRANCH  17  19
ENDBRANCH  15  17
TORSDOF 4
ENDMDL
MODEL 6
REMARK VINA RESULT:    -5.905     21.358     23.134
REMARK INTER + INTRA:          -7.963
REMARK INTER:                  -7.277
REMARK INTRA:                  -0.686
REMARK UNBOUND:                -0.850
REMARK  4 active torsions:
REMARK  status: ('A' for Active; 'I' for Inactive)
REMARK    1  A    between atoms: N_15  and  N_18 
REMARK    2  A    between atoms: C_17  and  N_20 
REMARK    3  A    between atoms: N_18  and  C_24 
REMARK    4  A    between atoms: N_20  and  O_22 
ROOT
HETATM    1 CL   UNL     1       5.666  13.445   7.347  1.00  0.00    -0.084 Cl
HETATM    2  C   UNL     1       5.866  11.863   5.131  1.00  0.00     0.050 C 
HETATM    3  C   UNL     1       6.076  13.086   5.667  1.00  0.00     0.038 C 
HETATM    4  C   UNL     1       6.794  14.013   4.879  1.00  0.00     0.058 C 
HETATM    5  C   UNL     1       7.317  13.752   3.597  1.00  0.00     0.088 C 
HETATM    6  C   UNL     1       6.868  12.562   2.951  1.00  0.00     0.083 C 
HETATM    7  C   UNL     1       6.268  11.612   3.699  1.00  0.00     0.064 C 
HETATM    8  N   UNL     1       6.982  12.289   1.604  1.00  0.00    -0.359 N 
ATOM      9  HN  UNL     1       6.816  11.375   1.184  1.00  0.00     0.165 HD
HETATM   10 CL   UNL     1       5.923  10.201   2.792  1.00  0.00    -0.082 Cl
HETATM   11  C   UNL     1       7.326  13.342   0.949  1.00  0.00     0.138 C 
HETATM   12  C   UNL     1       8.214  14.348   1.515  1.00  0.00     0.136 C 
HETATM   13  N   UNL     1       9.044  15.078   0.854  1.00  0.00    -0.383 N 
ATOM     14  HN  UNL     1       9.166  14.908  -0.144  1.00  0.00     0.157 HD
HETATM   15  N   UNL     1       8.304  14.583   2.838  1.00  0.00    -0.235 N 
HETATM   16  H   UNL     1       9.568  15.800   1.284  1.00  0.00     0.157 HD
ENDROOT
BRANCH  15  17
HETATM   17  N   UNL     1       9.078  15.688   3.164  1.00  0.00    -0.267 N 
ATOM     18  HN  UNL     1       8.792  16.469   2.574  1.00  0.00     0.190 HD
BRANCH  17  19
HETATM   19  C   UNL     1      10.054  16.097   3.963  1.00  0.00     0.219 A 
HETATM   20  C   UNL     1      10.984  15.692   4.515  1.00  0.00     0.223 A 
HETATM   21  O   UNL     1      10.805  17.025   4.469  1.00  0.00    -0.266 OA
BRANCH  20  22
HETATM   22  N   UNL     1      11.712  14.543   4.779  1.00  0.00    -0.243 N 
ATOM     23  HN  UNL     1      12.712  14.349   4.812  1.00  0.00     0.196 HD
BRANCH  22  24
HETATM   24  O   UNL     1      10.696  13.827   4.961  1.00  0.00    -0.288 OA
HETATM   25  H   UNL     1      10.022  13.411   4.523  1.00  0.00     0.244 HD
ENDBRANCH  22  24
ENDBRANCH  20  22
ENDBRANCH  17  19
ENDBRANCH  15  17
TORSDOF 4
ENDMDL
MODEL 7
REMARK VINA RESULT:    -5.853      6.594      8.427
REMARK INTER + INTRA:          -7.900
REMARK INTER:                  -7.147
REMARK INTRA:                  -0.753
REMARK UNBOUND:                -0.850
REMARK  4 active torsions:
REMARK  status: ('A' for Active; 'I' for Inactive)
REMARK    1  A    between atoms: N_15  and  N_18 
REMARK    2  A    between atoms: C_17  and  N_20 
REMARK    3  A    between atoms: N_18  and  C_24 
REMARK    4  A    between atoms: N_20  and  O_22 
ROOT
HETATM    1 CL   UNL     1       9.388  -2.393  24.411  1.00  0.00    -0.084 Cl
HETATM    2  C   UNL     1       7.696  -3.831  22.823  1.00  0.00     0.050 C 
HETATM    3  C   UNL     1       8.126  -3.584  24.080  1.00  0.00     0.038 C 
HETATM    4  C   UNL     1       7.407  -4.193  25.133  1.00  0.00     0.058 C 
HETATM    5  C   UNL     1       6.274  -5.014  24.969  1.00  0.00     0.088 C 
HETATM    6  C   UNL     1       5.995  -5.468  23.646  1.00  0.00     0.083 C 
HETATM    7  C   UNL     1       6.592  -4.837  22.612  1.00  0.00     0.064 C 
HETATM    8  N   UNL     1       5.165  -6.518  23.316  1.00  0.00    -0.359 N 
ATOM      9  HN  UNL     1       4.840  -6.723  22.371  1.00  0.00     0.165 HD
HETATM   10 CL   UNL     1       6.038  -5.416  21.099  1.00  0.00    -0.082 Cl
HETATM   11  C   UNL     1       4.854  -7.204  24.360  1.00  0.00     0.138 C 
HETATM   12  C   UNL     1       4.679  -6.586  25.666  1.00  0.00     0.136 C 
HETATM   13  N   UNL     1       3.874  -6.986  26.588  1.00  0.00    -0.383 N 
ATOM     14  HN  UNL     1       3.237  -7.757  26.387  1.00  0.00     0.157 HD
HETATM   15  N   UNL     1       5.319  -5.458  26.033  1.00  0.00    -0.235 N 
HETATM   16  H   UNL     1       3.854  -6.570  27.487  1.00  0.00     0.157 HD
ENDROOT
BRANCH  15  17
HETATM   17  N   UNL     1       5.148  -5.121  27.369  1.00  0.00    -0.267 N 
ATOM     18  HN  UNL     1       4.348  -4.495  27.445  1.00  0.00     0.190 HD
BRANCH  17  19
HETATM   19  C   UNL     1       5.647  -5.318  28.582  1.00  0.00     0.219 A 
HETATM   20  C   UNL     1       6.215  -6.115  29.194  1.00  0.00     0.223 A 
HETATM   21  O   UNL     1       6.083  -4.885  29.724  1.00  0.00    -0.266 OA
BRANCH  20  22
HETATM   22  N   UNL     1       6.735  -7.398  29.145  1.00  0.00    -0.243 N 
ATOM     23  HN  UNL     1       7.670  -7.774  29.300  1.00  0.00     0.196 HD
BRANCH  22  24
HETATM   24  O   UNL     1       5.640  -7.932  28.838  1.00  0.00    -0.288 OA
HETATM   25  H   UNL     1       4.976  -8.453  29.168  1.00  0.00     0.244 HD
ENDBRANCH  22  24
ENDBRANCH  20  22
ENDBRANCH  17  19
ENDBRANCH  15  17
TORSDOF 4
ENDMDL
MODEL 8
REMARK VINA RESULT:    -5.815      3.433      4.813
REMARK INTER + INTRA:          -7.855
REMARK INTER:                  -6.970
REMARK INTRA:                  -0.884
REMARK UNBOUND:                -0.850
REMARK  4 active torsions:
REMARK  status: ('A' for Active; 'I' for Inactive)
REMARK    1  A    between atoms: N_15  and  N_18 
REMARK    2  A    between atoms: C_17  and  N_20 
REMARK    3  A    between atoms: N_18  and  C_24 
REMARK    4  A    between atoms: N_20  and  O_22 
ROOT
HETATM    1 CL   UNL     1       6.981   0.383  19.641  1.00  0.00    -0.084 Cl
HETATM    2  C   UNL     1       8.569   0.525  21.858  1.00  0.00     0.050 C 
HETATM    3  C   UNL     1       7.674  -0.205  21.156  1.00  0.00     0.038 C 
HETATM    4  C   UNL     1       7.444  -1.528  21.596  1.00  0.00     0.058 C 
HETATM    5  C   UNL     1       8.089  -2.140  22.689  1.00  0.00     0.088 C 
HETATM    6  C   UNL     1       8.825  -1.285  23.562  1.00  0.00     0.083 C 
HETATM    7  C   UNL     1       9.147  -0.048  23.127  1.00  0.00     0.064 C 
HETATM    8  N   UNL     1       9.239  -1.605  24.837  1.00  0.00    -0.359 N 
ATOM      9  HN  UNL     1       9.905  -1.058  25.383  1.00  0.00     0.165 HD
HETATM   10 CL   UNL     1      10.146   0.786  24.241  1.00  0.00    -0.082 Cl
HETATM   11  C   UNL     1       8.673  -2.686  25.247  1.00  0.00     0.138 C 
HETATM   12  C   UNL     1       8.354  -3.782  24.342  1.00  0.00     0.136 C 
HETATM   13  N   UNL     1       8.337  -5.032  24.650  1.00  0.00    -0.383 N 
ATOM     14  HN  UNL     1       8.641  -5.316  25.581  1.00  0.00     0.157 HD
HETATM   15  N   UNL     1       8.095  -3.597  23.034  1.00  0.00    -0.235 N 
HETATM   16  H   UNL     1       8.038  -5.727  24.010  1.00  0.00     0.157 HD
ENDROOT
BRANCH  15  17
HETATM   17  N   UNL     1       7.653  -4.738  22.379  1.00  0.00    -0.267 N 
ATOM     18  HN  UNL     1       8.386  -5.445  22.428  1.00  0.00     0.190 HD
BRANCH  17  19
HETATM   19  C   UNL     1       6.624  -5.245  21.713  1.00  0.00     0.219 A 
HETATM   20  C   UNL     1       5.587  -5.719  21.900  1.00  0.00     0.223 A 
HETATM   21  O   UNL     1       5.913  -5.384  20.638  1.00  0.00    -0.266 OA
BRANCH  20  22
HETATM   22  N   UNL     1       4.709  -6.127  22.891  1.00  0.00    -0.243 N 
ATOM     23  HN  UNL     1       3.710  -6.331  22.891  1.00  0.00     0.196 HD
BRANCH  22  24
HETATM   24  O   UNL     1       5.588  -6.156  23.789  1.00  0.00    -0.288 OA
HETATM   25  H   UNL     1       5.971  -6.701  24.402  1.00  0.00     0.244 HD
ENDBRANCH  22  24
ENDBRANCH  20  22
ENDBRANCH  17  19
ENDBRANCH  15  17
TORSDOF 4
ENDMDL
MODEL 9
REMARK VINA RESULT:    -5.684      6.435      7.764
REMARK INTER + INTRA:          -7.697
REMARK INTER:                  -7.107
REMARK INTRA:                  -0.590
REMARK UNBOUND:                -0.850
REMARK  4 active torsions:
REMARK  status: ('A' for Active; 'I' for Inactive)
REMARK    1  A    between atoms: N_15  and  N_18 
REMARK    2  A    between atoms: C_17  and  N_20 
REMARK    3  A    between atoms: N_18  and  C_24 
REMARK    4  A    between atoms: N_20  and  O_22 
ROOT
HETATM    1 CL   UNL     1       6.005  -2.850  21.439  1.00  0.00    -0.084 Cl
HETATM    2  C   UNL     1       7.130  -4.046  23.621  1.00  0.00     0.050 C 
HETATM    3  C   UNL     1       6.020  -3.895  22.864  1.00  0.00     0.038 C 
HETATM    4  C   UNL     1       4.925  -4.737  23.160  1.00  0.00     0.058 C 
HETATM    5  C   UNL     1       4.914  -5.726  24.163  1.00  0.00     0.088 C 
HETATM    6  C   UNL     1       5.983  -5.694  25.108  1.00  0.00     0.083 C 
HETATM    7  C   UNL     1       7.086  -4.978  24.805  1.00  0.00     0.064 C 
HETATM    8  N   UNL     1       5.992  -6.332  26.331  1.00  0.00    -0.359 N 
ATOM      9  HN  UNL     1       6.818  -6.444  26.918  1.00  0.00     0.165 HD
HETATM   10 CL   UNL     1       8.317  -5.165  25.981  1.00  0.00    -0.082 Cl
HETATM   11  C   UNL     1       4.818  -6.767  26.631  1.00  0.00     0.138 C 
HETATM   12  C   UNL     1       3.892  -7.254  25.619  1.00  0.00     0.136 C 
HETATM   13  N   UNL     1       3.009  -8.177  25.787  1.00  0.00    -0.383 N 
ATOM     14  HN  UNL     1       2.982  -8.679  26.674  1.00  0.00     0.157 HD
HETATM   15  N   UNL     1       3.906  -6.817  24.345  1.00  0.00    -0.235 N 
HETATM   16  H   UNL     1       2.355  -8.413  25.082  1.00  0.00     0.157 HD
ENDROOT
BRANCH  15  17
HETATM   17  N   UNL     1       2.844  -7.277  23.579  1.00  0.00    -0.267 N 
ATOM     18  HN  UNL     1       2.837  -8.297  23.613  1.00  0.00     0.190 HD
BRANCH  17  19
HETATM   19  C   UNL     1       1.834  -6.875  22.819  1.00  0.00     0.219 A 
HETATM   20  C   UNL     1       1.008  -7.302  22.134  1.00  0.00     0.223 A 
HETATM   21  O   UNL     1       0.945  -6.000  22.467  1.00  0.00    -0.266 OA
BRANCH  20  22
HETATM   22  N   UNL     1       0.505  -8.473  21.590  1.00  0.00    -0.243 N 
ATOM     23  HN  UNL     1      -0.403  -8.932  21.654  1.00  0.00     0.196 HD
BRANCH  22  24
HETATM   24  O   UNL     1       1.570  -8.764  20.991  1.00  0.00    -0.288 OA
HETATM   25  H   UNL     1       2.470  -8.780  21.090  1.00  0.00     0.244 HD
ENDBRANCH  22  24
ENDBRANCH  20  22
ENDBRANCH  17  19
ENDBRANCH  15  17
TORSDOF 4
ENDMDL
