stable:False satoms:7 tatoms:24 sratio:0.2916666666666667
  -OEChem-07092417443D

 24 25  0     1  0  0  0  0  0999 V2000
    6.6472   -4.8596   26.4048 C   0  0  0  0  0  0  0  0  0  0  0  0
    8.1804   -4.3009   26.0734 S   0  0  0  0  0  0  0  0  0  0  0  0
    9.0589   -5.4610   25.9950 O   0  0  0  0  0  0  0  0  0  0  0  0
    8.5877   -3.3835   27.0999 O   0  0  0  0  0  0  0  0  0  0  0  0
    8.0717   -3.5399   24.6331 N   0  0  0  0  0  0  0  0  0  0  0  0
    8.9121   -2.8877   24.1189 C   0  0  0  0  0  0  0  0  0  0  0  0
    9.4211   -2.0071   23.5287 C   0  0  0  0  0  0  0  0  0  0  0  0
   10.3207   -1.1410   23.2679 C   0  0  1  0  0  0  0  0  0  0  0  0
   11.0247   -0.0308   24.3173 C   0  0  0  0  0  0  0  0  0  0  0  0
   12.1295    0.2596   24.2021 C   0  0  0  0  0  0  0  0  0  0  0  0
   13.0288   -0.1467   23.5134 C   0  0  0  0  0  0  0  0  0  0  0  0
   12.7268   -1.3340   22.6679 C   0  0  0  0  0  0  0  0  0  0  0  0
   11.7870   -1.7983   22.5723 C   0  0  0  0  0  0  0  0  0  0  0  0
    9.7194   -0.5649   22.3790 C   0  0  0  0  0  0  0  0  0  0  0  0
    9.0771    0.0617   21.4044 C   0  0  0  0  0  0  0  0  0  0  0  0
    9.5702    0.9963   20.9855 O   0  0  0  0  0  0  0  0  0  0  0  0
    7.9004   -0.5347   21.1347 N   0  0  0  0  0  0  0  0  0  0  0  0
    7.1857   -0.0793   20.2177 C   0  0  0  0  0  0  0  0  0  0  0  0
    7.2104    0.0482   18.9009 C   0  0  0  0  0  0  0  0  0  0  0  0
    6.8472    0.3554   17.7950 N   0  0  0  0  0  0  0  0  0  0  0  0
    5.7191    0.8991   18.2956 C   0  0  0  0  0  0  0  0  0  0  0  0
    5.2817    0.9760   19.4351 C   0  0  0  0  0  0  0  0  0  0  0  0
    5.7820    0.5543   20.6236 C   0  0  0  0  0  0  0  0  0  0  0  0
    5.3944    0.6285   21.7305 C   0  0  0  0  0  0  0  0  0  0  0  0
 20 21  2  0  0  0  0
 19 20  1  0  0  0  0
 21 22  1  0  0  0  0
 18 19  2  0  0  0  0
 22 23  2  0  0  0  0
 18 23  1  0  0  0  0
 17 18  1  0  0  0  0
 23 24  1  0  0  0  0
 15 16  2  0  0  0  0
 15 17  1  0  0  0  0
 14 15  1  0  0  0  0
  8 14  1  0  0  0  0
 12 13  1  0  0  0  0
  8 13  1  0  0  0  0
 11 12  2  0  0  0  0
  7  8  1  0  0  0  0
  8  9  1  0  0  0  0
 10 11  1  0  0  0  0
  6  7  3  0  0  0  0
  5  6  1  0  0  0  0
  9 10  2  0  0  0  0
  2  5  1  0  0  0  0
  2  3  2  0  0  0  0
  1  2  1  0  0  0  0
  2  4  2  0  0  0  0
M  END
> <Shapegauss>
-287.346832

$$$$
