REMARK  6 active torsions:
REMARK  status: ('A' for Active; 'I' for Inactive)
REMARK    1  A    between atoms: S_2  and  N_5 
REMARK    2  A    between atoms: C_7  and  C_8 
REMARK    3  A    between atoms: C_8  and  C_9 
REMARK    4  A    between atoms: C_9  and  C_15 
REMARK    5  A    between atoms: C_15  and  C_16 
REMARK       I    between atoms: C_16  and  N_18 
REMARK    6  A    between atoms: N_18  and  C_20 
ROOT
HETATM    1  C   UNL     1      10.321  -1.141  23.268  1.00  0.00     0.076 C 
HETATM    2  C   UNL     1      11.025  -0.031  24.317  1.00  0.00     0.003 C 
HETATM    3  C   UNL     1      12.130   0.260  24.202  1.00  0.00    -0.002 C 
HETATM    4  C   UNL     1      13.029  -0.147  23.513  1.00  0.00    -0.001 C 
HETATM    5  C   UNL     1      12.727  -1.334  22.668  1.00  0.00    -0.002 C 
HETATM    6  C   UNL     1      11.787  -1.798  22.572  1.00  0.00     0.003 C 
ENDROOT
BRANCH   1   7
HETATM    7  C   UNL     1       9.421  -2.007  23.529  1.00  0.00     0.021 C 
BRANCH   7   8
HETATM    8  C   UNL     1       8.912  -2.888  24.119  1.00  0.00     0.098 C 
HETATM    9  N   UNL     1       8.072  -3.540  24.633  1.00  0.00    -0.296 N 
ATOM     10  HN  UNL     1       7.192  -3.637  24.127  1.00  0.00     0.177 HD
BRANCH   9  11
HETATM   11  S   UNL     1       8.180  -4.301  26.073  1.00  0.00     0.226 S 
HETATM   12  C   UNL     1       6.647  -4.860  26.405  1.00  0.00     0.186 C 
HETATM   13  O   UNL     1       9.059  -5.461  25.995  1.00  0.00    -0.206 OA
HETATM   14  O   UNL     1       8.588  -3.384  27.100  1.00  0.00    -0.206 OA
ENDBRANCH   9  11
ENDBRANCH   7   8
ENDBRANCH   1   7
BRANCH   1  15
HETATM   15  C   UNL     1       9.719  -0.565  22.379  1.00  0.00    -0.061 C 
BRANCH  15  16
HETATM   16  C   UNL     1       9.077   0.062  21.404  1.00  0.00     0.290 C 
HETATM   17  O   UNL     1       9.570   0.996  20.985  1.00  0.00    -0.259 OA
HETATM   18  N   UNL     1       7.900  -0.535  21.135  1.00  0.00    -0.315 N 
ATOM     19  HN  UNL     1       7.597  -1.347  21.672  1.00  0.00     0.170 HD
BRANCH  18  20
HETATM   20  C   UNL     1       7.186  -0.079  20.218  1.00  0.00     0.060 A 
HETATM   21  C   UNL     1       7.210   0.048  18.901  1.00  0.00     0.117 A 
HETATM   22  N   UNL     1       6.847   0.355  17.795  1.00  0.00    -0.373 N 
HETATM   23  C   UNL     1       5.719   0.899  18.296  1.00  0.00     0.088 A 
ATOM     24  HN  UNL     1       7.235   0.247  16.858  1.00  0.00     0.164 HD
HETATM   25  C   UNL     1       5.282   0.976  19.435  1.00  0.00     0.030 A 
HETATM   26  C   UNL     1       5.782   0.554  20.624  1.00  0.00    -0.016 A 
HETATM   27  C   UNL     1       5.394   0.628  21.730  1.00  0.00     0.026 C 
ENDBRANCH  18  20
ENDBRANCH  15  16
ENDBRANCH   1  15
TORSDOF 6
