REMARK  7 active torsions:
REMARK  status: ('A' for Active; 'I' for Inactive)
REMARK    1  A    between atoms: S_2  and  N_5 
REMARK    2  A    between atoms: N_5  and  C_7 
REMARK    3  A    between atoms: C_8  and  C_9 
REMARK    4  A    between atoms: C_9  and  C_12 
REMARK    5  A    between atoms: C_11  and  C_12 
REMARK    6  A    between atoms: C_13  and  C_14 
REMARK       I    between atoms: C_14  and  N_16 
REMARK    7  A    between atoms: N_16  and  C_18 
ROOT
HETATM    1  C   UNL     1      10.250  -1.339  22.981  1.00  0.00     0.024 C 
HETATM    2  C   UNL     1       9.767  -0.367  22.287  1.00  0.00     0.095 C 
ENDROOT
BRANCH   1   3
HETATM    3  C   UNL     1       9.464  -2.166  23.637  1.00  0.00    -0.043 C 
HETATM    4  C   UNL     1       8.927  -2.908  24.222  1.00  0.00     0.028 C 
BRANCH   4   5
HETATM    5  N   UNL     1       8.059  -3.557  24.785  1.00  0.00    -0.223 N 
ATOM      6  HN  UNL     1       7.155  -3.591  24.313  1.00  0.00     0.192 HD
BRANCH   5   7
HETATM    7  S   UNL     1       8.154  -4.378  26.193  1.00  0.00     0.216 S 
HETATM    8  O   UNL     1       6.792  -4.869  26.468  1.00  0.00    -0.577 OA
HETATM    9  O   UNL     1       9.103  -5.463  26.016  1.00  0.00    -0.577 OA
HETATM   10  O   UNL     1       8.600  -3.501  27.234  1.00  0.00    -0.577 OA
ENDBRANCH   5   7
ENDBRANCH   4   5
ENDBRANCH   1   3
BRANCH   1  11
HETATM   11  C   UNL     1      11.631  -1.429  22.896  1.00  0.00     0.020 C 
BRANCH  11  12
HETATM   12  C   UNL     1      12.679  -0.905  23.114  1.00  0.00    -0.009 C 
HETATM   13  C   UNL     1      11.940   0.075  24.174  1.00  0.00     0.011 C 
ENDBRANCH  11  12
ENDBRANCH   1  11
BRANCH   2  14
HETATM   14  C   UNL     1       9.058   0.136  21.264  1.00  0.00     0.247 C 
HETATM   15  O   UNL     1       9.529   1.009  20.581  1.00  0.00    -0.268 OA
HETATM   16  N   UNL     1       7.860  -0.496  21.136  1.00  0.00    -0.322 N 
ATOM     17  HN  UNL     1       7.578  -1.272  21.735  1.00  0.00     0.169 HD
BRANCH  16  18
HETATM   18  C   UNL     1       7.105  -0.028  20.187  1.00  0.00     0.050 C 
HETATM   19  C   UNL     1       7.168   0.042  18.863  1.00  0.00     0.117 C 
HETATM   20  N   UNL     1       6.642   0.300  17.805  1.00  0.00    -0.373 N 
HETATM   21  C   UNL     1       5.607   0.821  18.263  1.00  0.00     0.088 C 
ATOM     22  HN  UNL     1       6.948   0.142  16.845  1.00  0.00     0.164 HD
HETATM   23  C   UNL     1       5.228   0.921  19.439  1.00  0.00     0.019 C 
HETATM   24  C   UNL     1       5.757   0.540  20.555  1.00  0.00     0.032 C 
ENDBRANCH  16  18
ENDBRANCH   2  14
TORSDOF 7
