MODEL 1
REMARK VINA RESULT:    -6.401      0.000      0.000
REMARK INTER + INTRA:          -9.702
REMARK INTER:                  -9.020
REMARK INTRA:                  -0.682
REMARK UNBOUND:                -0.682
REMARK  7 active torsions:
REMARK  status: ('A' for Active; 'I' for Inactive)
REMARK    1  A    between atoms: S_2  and  N_5 
REMARK    2  A    between atoms: N_5  and  C_7 
REMARK    3  A    between atoms: C_8  and  C_9 
REMARK    4  A    between atoms: C_9  and  C_12 
REMARK    5  A    between atoms: C_11  and  C_12 
REMARK    6  A    between atoms: C_13  and  C_14 
REMARK       I    between atoms: C_14  and  N_16 
REMARK    7  A    between atoms: N_16  and  C_18 
ROOT
HETATM    1  C   UNL     1       7.868  -4.812  24.287  1.00  0.00     0.024 C 
HETATM    2  C   UNL     1       8.611  -3.812  23.962  1.00  0.00     0.095 C 
ENDROOT
BRANCH   1   3
HETATM    3  C   UNL     1       7.780  -5.221  25.535  1.00  0.00    -0.043 C 
HETATM    4  C   UNL     1       7.630  -5.451  26.587  1.00  0.00     0.028 C 
BRANCH   4   5
HETATM    5  N   UNL     1       7.630  -5.988  27.684  1.00  0.00    -0.223 N 
ATOM      6  HN  UNL     1       8.536  -6.322  28.014  1.00  0.00     0.192 HD
BRANCH   5   7
HETATM    7  S   UNL     1       6.371  -6.241  28.692  1.00  0.00     0.216 S 
HETATM    8  O   UNL     1       5.157  -6.053  27.879  1.00  0.00    -0.577 OA
HETATM    9  O   UNL     1       6.479  -7.593  29.213  1.00  0.00    -0.577 OA
HETATM   10  O   UNL     1       6.417  -5.296  29.768  1.00  0.00    -0.577 OA
ENDBRANCH   5   7
ENDBRANCH   4   5
ENDBRANCH   1   3
BRANCH   1  11
HETATM   11  C   UNL     1       7.162  -5.332  23.213  1.00  0.00     0.020 C 
BRANCH  11  12
HETATM   12  C   UNL     1       7.216  -5.808  22.121  1.00  0.00    -0.009 C 
HETATM   13  C   UNL     1       5.600  -5.710  22.026  1.00  0.00     0.011 C 
ENDBRANCH  11  12
ENDBRANCH   1  11
BRANCH   2  14
HETATM   14  C   UNL     1       8.945  -2.512  23.986  1.00  0.00     0.247 C 
HETATM   15  O   UNL     1       8.300  -1.740  24.648  1.00  0.00    -0.268 OA
HETATM   16  N   UNL     1      10.058  -2.274  23.240  1.00  0.00    -0.322 N 
ATOM     17  HN  UNL     1      10.571  -3.015  22.762  1.00  0.00     0.169 HD
BRANCH  16  18
HETATM   18  C   UNL     1      10.412  -1.025  23.188  1.00  0.00     0.050 C 
HETATM   19  C   UNL     1      10.038   0.047  22.500  1.00  0.00     0.117 C 
HETATM   20  N   UNL     1      10.098   1.239  22.310  1.00  0.00    -0.373 N 
HETATM   21  C   UNL     1      11.031   1.481  23.100  1.00  0.00     0.088 C 
ATOM     22  HN  UNL     1       9.559   1.852  21.698  1.00  0.00     0.164 HD
HETATM   23  C   UNL     1      11.610   0.723  23.892  1.00  0.00     0.019 C 
HETATM   24  C   UNL     1      11.456  -0.532  24.159  1.00  0.00     0.032 C 
ENDBRANCH  16  18
ENDBRANCH   2  14
TORSDOF 7
ENDMDL
MODEL 2
REMARK VINA RESULT:    -6.372      4.042      5.832
REMARK INTER + INTRA:          -9.661
REMARK INTER:                  -8.879
REMARK INTRA:                  -0.782
REMARK UNBOUND:                -0.682
REMARK  7 active torsions:
REMARK  status: ('A' for Active; 'I' for Inactive)
REMARK    1  A    between atoms: S_2  and  N_5 
REMARK    2  A    between atoms: N_5  and  C_7 
REMARK    3  A    between atoms: C_8  and  C_9 
REMARK    4  A    between atoms: C_9  and  C_12 
REMARK    5  A    between atoms: C_11  and  C_12 
REMARK    6  A    between atoms: C_13  and  C_14 
REMARK       I    between atoms: C_14  and  N_16 
REMARK    7  A    between atoms: N_16  and  C_18 
ROOT
HETATM    1  C   UNL     1       9.520  -1.561  23.196  1.00  0.00     0.024 C 
HETATM    2  C   UNL     1       8.934  -0.646  22.505  1.00  0.00     0.095 C 
ENDROOT
BRANCH   1   3
HETATM    3  C   UNL     1       8.937  -2.717  23.433  1.00  0.00    -0.043 C 
HETATM    4  C   UNL     1       8.411  -3.617  23.742  1.00  0.00     0.028 C 
BRANCH   4   5
HETATM    5  N   UNL     1       7.915  -4.732  23.784  1.00  0.00    -0.223 N 
ATOM      6  HN  UNL     1       8.324  -5.373  24.464  1.00  0.00     0.192 HD
BRANCH   5   7
HETATM    7  S   UNL     1       6.684  -5.332  22.896  1.00  0.00     0.216 S 
HETATM    8  O   UNL     1       5.676  -5.800  23.865  1.00  0.00    -0.577 OA
HETATM    9  O   UNL     1       6.178  -4.264  22.052  1.00  0.00    -0.577 OA
HETATM   10  O   UNL     1       7.155  -6.416  22.087  1.00  0.00    -0.577 OA
ENDBRANCH   5   7
ENDBRANCH   4   5
ENDBRANCH   1   3
BRANCH   1  11
HETATM   11  C   UNL     1      10.804  -1.207  23.582  1.00  0.00     0.020 C 
BRANCH  11  12
HETATM   12  C   UNL     1      11.962  -1.194  23.299  1.00  0.00    -0.009 C 
HETATM   13  C   UNL     1      12.181   0.016  24.357  1.00  0.00     0.011 C 
ENDBRANCH  11  12
ENDBRANCH   1  11
BRANCH   2  14
HETATM   14  C   UNL     1       8.409  -0.155  21.371  1.00  0.00     0.247 C 
HETATM   15  O   UNL     1       9.076   0.551  20.659  1.00  0.00    -0.268 OA
HETATM   16  N   UNL     1       7.137  -0.601  21.183  1.00  0.00    -0.322 N 
ATOM     17  HN  UNL     1       6.679  -1.251  21.822  1.00  0.00     0.169 HD
BRANCH  16  18
HETATM   18  C   UNL     1       6.555  -0.129  20.121  1.00  0.00     0.050 C 
HETATM   19  C   UNL     1       6.310  -0.565  18.892  1.00  0.00     0.117 C 
HETATM   20  N   UNL     1       5.767  -0.420  17.821  1.00  0.00    -0.373 N 
HETATM   21  C   UNL     1       5.345   0.737  18.011  1.00  0.00     0.088 C 
ATOM     22  HN  UNL     1       5.682  -1.044  17.019  1.00  0.00     0.164 HD
HETATM   23  C   UNL     1       5.394   1.437  19.032  1.00  0.00     0.019 C 
HETATM   24  C   UNL     1       5.887   1.221  20.208  1.00  0.00     0.032 C 
ENDBRANCH  16  18
ENDBRANCH   2  14
TORSDOF 7
ENDMDL
MODEL 3
REMARK VINA RESULT:    -6.324      3.583      5.256
REMARK INTER + INTRA:          -9.594
REMARK INTER:                  -8.854
REMARK INTRA:                  -0.740
REMARK UNBOUND:                -0.682
REMARK  7 active torsions:
REMARK  status: ('A' for Active; 'I' for Inactive)
REMARK    1  A    between atoms: S_2  and  N_5 
REMARK    2  A    between atoms: N_5  and  C_7 
REMARK    3  A    between atoms: C_8  and  C_9 
REMARK    4  A    between atoms: C_9  and  C_12 
REMARK    5  A    between atoms: C_11  and  C_12 
REMARK    6  A    between atoms: C_13  and  C_14 
REMARK       I    between atoms: C_14  and  N_16 
REMARK    7  A    between atoms: N_16  and  C_18 
ROOT
HETATM    1  C   UNL     1       9.532  -1.275  23.673  1.00  0.00     0.024 C 
HETATM    2  C   UNL     1       8.932  -0.493  22.844  1.00  0.00     0.095 C 
ENDROOT
BRANCH   1   3
HETATM    3  C   UNL     1       8.993  -2.415  24.049  1.00  0.00    -0.043 C 
HETATM    4  C   UNL     1       8.558  -3.394  24.231  1.00  0.00     0.028 C 
BRANCH   4   5
HETATM    5  N   UNL     1       8.084  -4.390  24.755  1.00  0.00    -0.223 N 
ATOM      6  HN  UNL     1       7.825  -5.145  24.119  1.00  0.00     0.192 HD
BRANCH   5   7
HETATM    7  S   UNL     1       7.810  -4.674  26.339  1.00  0.00     0.216 S 
HETATM    8  O   UNL     1       6.947  -3.575  26.805  1.00  0.00    -0.577 OA
HETATM    9  O   UNL     1       7.162  -5.969  26.457  1.00  0.00    -0.577 OA
HETATM   10  O   UNL     1       9.054  -4.682  27.051  1.00  0.00    -0.577 OA
ENDBRANCH   5   7
ENDBRANCH   4   5
ENDBRANCH   1   3
BRANCH   1  11
HETATM   11  C   UNL     1      10.783  -0.808  24.047  1.00  0.00     0.020 C 
BRANCH  11  12
HETATM   12  C   UNL     1      11.953  -0.803  23.821  1.00  0.00    -0.009 C 
HETATM   13  C   UNL     1      11.996   0.772  24.205  1.00  0.00     0.011 C 
ENDBRANCH  11  12
ENDBRANCH   1  11
BRANCH   2  14
HETATM   14  C   UNL     1       8.429  -0.188  21.637  1.00  0.00     0.247 C 
HETATM   15  O   UNL     1       9.160   0.212  20.767  1.00  0.00    -0.268 OA
HETATM   16  N   UNL     1       7.093  -0.437  21.582  1.00  0.00    -0.322 N 
ATOM     17  HN  UNL     1       6.573  -0.836  22.364  1.00  0.00     0.169 HD
BRANCH  16  18
HETATM   18  C   UNL     1       6.535  -0.124  20.451  1.00  0.00     0.050 C 
HETATM   19  C   UNL     1       6.214  -0.765  19.334  1.00  0.00     0.117 C 
HETATM   20  N   UNL     1       5.661  -0.776  18.258  1.00  0.00    -0.373 N 
HETATM   21  C   UNL     1       5.366   0.433  18.217  1.00  0.00     0.088 C 
ATOM     22  HN  UNL     1       5.491  -1.534  17.597  1.00  0.00     0.164 HD
HETATM   23  C   UNL     1       5.514   1.312  19.079  1.00  0.00     0.019 C 
HETATM   24  C   UNL     1       6.012   1.280  20.271  1.00  0.00     0.032 C 
ENDBRANCH  16  18
ENDBRANCH   2  14
TORSDOF 7
ENDMDL
MODEL 4
REMARK VINA RESULT:    -6.229      4.256      7.921
REMARK INTER + INTRA:          -9.460
REMARK INTER:                  -8.742
REMARK INTRA:                  -0.718
REMARK UNBOUND:                -0.682
REMARK  7 active torsions:
REMARK  status: ('A' for Active; 'I' for Inactive)
REMARK    1  A    between atoms: S_2  and  N_5 
REMARK    2  A    between atoms: N_5  and  C_7 
REMARK    3  A    between atoms: C_8  and  C_9 
REMARK    4  A    between atoms: C_9  and  C_12 
REMARK    5  A    between atoms: C_11  and  C_12 
REMARK    6  A    between atoms: C_13  and  C_14 
REMARK       I    between atoms: C_14  and  N_16 
REMARK    7  A    between atoms: N_16  and  C_18 
ROOT
HETATM    1  C   UNL     1       8.523  -1.959  22.275  1.00  0.00     0.024 C 
HETATM    2  C   UNL     1       8.327  -3.069  22.899  1.00  0.00     0.095 C 
ENDROOT
BRANCH   1   3
HETATM    3  C   UNL     1       7.569  -1.401  21.560  1.00  0.00    -0.043 C 
HETATM    4  C   UNL     1       6.802  -0.831  21.043  1.00  0.00     0.028 C 
BRANCH   4   5
HETATM    5  N   UNL     1       5.932  -0.465  20.268  1.00  0.00    -0.223 N 
ATOM      6  HN  UNL     1       4.971  -0.636  20.568  1.00  0.00     0.192 HD
BRANCH   5   7
HETATM    7  S   UNL     1       6.101   0.264  18.817  1.00  0.00     0.216 S 
HETATM    8  O   UNL     1       7.529   0.607  18.701  1.00  0.00    -0.577 OA
HETATM    9  O   UNL     1       5.676  -0.673  17.793  1.00  0.00    -0.577 OA
HETATM   10  O   UNL     1       5.288   1.443  18.771  1.00  0.00    -0.577 OA
ENDBRANCH   5   7
ENDBRANCH   4   5
ENDBRANCH   1   3
BRANCH   1  11
HETATM   11  C   UNL     1       9.784  -1.429  22.499  1.00  0.00     0.020 C 
BRANCH  11  12
HETATM   12  C   UNL     1      10.556  -0.555  22.252  1.00  0.00    -0.009 C 
HETATM   13  C   UNL     1      11.757  -1.494  22.803  1.00  0.00     0.011 C 
ENDBRANCH  11  12
ENDBRANCH   1  11
BRANCH   2  14
HETATM   14  C   UNL     1       7.736  -3.826  23.837  1.00  0.00     0.247 C 
HETATM   15  O   UNL     1       6.924  -4.655  23.513  1.00  0.00    -0.268 OA
HETATM   16  N   UNL     1       8.215  -3.539  25.078  1.00  0.00    -0.322 N 
ATOM     17  HN  UNL     1       8.953  -2.854  25.240  1.00  0.00     0.169 HD
BRANCH  16  18
HETATM   18  C   UNL     1       7.653  -4.210  26.039  1.00  0.00     0.050 C 
HETATM   19  C   UNL     1       7.901  -5.342  26.685  1.00  0.00     0.117 C 
HETATM   20  N   UNL     1       7.651  -6.104  27.591  1.00  0.00    -0.373 N 
HETATM   21  C   UNL     1       6.615  -5.541  27.992  1.00  0.00     0.088 C 
ATOM     22  HN  UNL     1       8.134  -6.940  27.920  1.00  0.00     0.164 HD
HETATM   23  C   UNL     1       6.101  -4.476  27.621  1.00  0.00     0.019 C 
HETATM   24  C   UNL     1       6.445  -3.616  26.720  1.00  0.00     0.032 C 
ENDBRANCH  16  18
ENDBRANCH   2  14
TORSDOF 7
ENDMDL
MODEL 5
REMARK VINA RESULT:    -5.820     14.908     16.759
REMARK INTER + INTRA:          -8.883
REMARK INTER:                  -8.154
REMARK INTRA:                  -0.730
REMARK UNBOUND:                -0.682
REMARK  7 active torsions:
REMARK  status: ('A' for Active; 'I' for Inactive)
REMARK    1  A    between atoms: S_2  and  N_5 
REMARK    2  A    between atoms: N_5  and  C_7 
REMARK    3  A    between atoms: C_8  and  C_9 
REMARK    4  A    between atoms: C_9  and  C_12 
REMARK    5  A    between atoms: C_11  and  C_12 
REMARK    6  A    between atoms: C_13  and  C_14 
REMARK       I    between atoms: C_14  and  N_16 
REMARK    7  A    between atoms: N_16  and  C_18 
ROOT
HETATM    1  C   UNL     1      24.781  -6.487  25.322  1.00  0.00     0.024 C 
HETATM    2  C   UNL     1      23.890  -5.559  25.252  1.00  0.00     0.095 C 
ENDROOT
BRANCH   1   3
HETATM    3  C   UNL     1      25.052  -7.252  24.286  1.00  0.00    -0.043 C 
HETATM    4  C   UNL     1      25.401  -7.835  23.438  1.00  0.00     0.028 C 
BRANCH   4   5
HETATM    5  N   UNL     1      25.485  -8.623  22.508  1.00  0.00    -0.223 N 
ATOM      6  HN  UNL     1      25.630  -9.599  22.766  1.00  0.00     0.192 HD
BRANCH   5   7
HETATM    7  S   UNL     1      25.394  -8.319  20.906  1.00  0.00     0.216 S 
HETATM    8  O   UNL     1      26.781  -8.108  20.455  1.00  0.00    -0.577 OA
HETATM    9  O   UNL     1      24.778  -9.468  20.267  1.00  0.00    -0.577 OA
HETATM   10  O   UNL     1      24.601  -7.148  20.681  1.00  0.00    -0.577 OA
ENDBRANCH   5   7
ENDBRANCH   4   5
ENDBRANCH   1   3
BRANCH   1  11
HETATM   11  C   UNL     1      25.424  -6.527  26.550  1.00  0.00     0.020 C 
BRANCH  11  12
HETATM   12  C   UNL     1      26.279  -6.067  27.242  1.00  0.00    -0.009 C 
HETATM   13  C   UNL     1      26.941  -7.542  27.361  1.00  0.00     0.011 C 
ENDBRANCH  11  12
ENDBRANCH   1  11
BRANCH   2  14
HETATM   14  C   UNL     1      23.404  -4.400  24.780  1.00  0.00     0.247 C 
HETATM   15  O   UNL     1      23.668  -4.053  23.657  1.00  0.00    -0.268 OA
HETATM   16  N   UNL     1      22.609  -3.788  25.699  1.00  0.00    -0.322 N 
ATOM     17  HN  UNL     1      22.399  -4.198  26.609  1.00  0.00     0.169 HD
BRANCH  16  18
HETATM   18  C   UNL     1      22.138  -2.638  25.319  1.00  0.00     0.050 C 
HETATM   19  C   UNL     1      21.053  -2.212  24.684  1.00  0.00     0.117 C 
HETATM   20  N   UNL     1      20.354  -1.299  24.307  1.00  0.00    -0.373 N 
HETATM   21  C   UNL     1      21.127  -0.370  24.610  1.00  0.00     0.088 C 
ATOM     22  HN  UNL     1      19.429  -1.293  23.878  1.00  0.00     0.164 HD
HETATM   23  C   UNL     1      22.211  -0.409  25.209  1.00  0.00     0.019 C 
HETATM   24  C   UNL     1      22.893  -1.390  25.703  1.00  0.00     0.032 C 
ENDBRANCH  16  18
ENDBRANCH   2  14
TORSDOF 7
ENDMDL
MODEL 6
REMARK VINA RESULT:    -5.784      4.470      8.199
REMARK INTER + INTRA:          -8.833
REMARK INTER:                  -8.207
REMARK INTRA:                  -0.626
REMARK UNBOUND:                -0.682
REMARK  7 active torsions:
REMARK  status: ('A' for Active; 'I' for Inactive)
REMARK    1  A    between atoms: S_2  and  N_5 
REMARK    2  A    between atoms: N_5  and  C_7 
REMARK    3  A    between atoms: C_8  and  C_9 
REMARK    4  A    between atoms: C_9  and  C_12 
REMARK    5  A    between atoms: C_11  and  C_12 
REMARK    6  A    between atoms: C_13  and  C_14 
REMARK       I    between atoms: C_14  and  N_16 
REMARK    7  A    between atoms: N_16  and  C_18 
ROOT
HETATM    1  C   UNL     1       8.408  -1.954  22.485  1.00  0.00     0.024 C 
HETATM    2  C   UNL     1       8.271  -3.186  22.838  1.00  0.00     0.095 C 
ENDROOT
BRANCH   1   3
HETATM    3  C   UNL     1       7.502  -1.351  21.746  1.00  0.00    -0.043 C 
HETATM    4  C   UNL     1       6.669  -0.870  21.240  1.00  0.00     0.028 C 
BRANCH   4   5
HETATM    5  N   UNL     1       5.970  -0.267  20.439  1.00  0.00    -0.223 N 
ATOM      6  HN  UNL     1       5.068   0.052  20.792  1.00  0.00     0.192 HD
BRANCH   5   7
HETATM    7  S   UNL     1       6.290   0.094  18.880  1.00  0.00     0.216 S 
HETATM    8  O   UNL     1       7.740   0.349  18.812  1.00  0.00    -0.577 OA
HETATM    9  O   UNL     1       5.893  -1.041  18.066  1.00  0.00    -0.577 OA
HETATM   10  O   UNL     1       5.549   1.258  18.493  1.00  0.00    -0.577 OA
ENDBRANCH   5   7
ENDBRANCH   4   5
ENDBRANCH   1   3
BRANCH   1  11
HETATM   11  C   UNL     1       9.547  -1.365  23.013  1.00  0.00     0.020 C 
BRANCH  11  12
HETATM   12  C   UNL     1      10.309  -0.450  22.966  1.00  0.00    -0.009 C 
HETATM   13  C   UNL     1      11.531  -1.507  22.834  1.00  0.00     0.011 C 
ENDBRANCH  11  12
ENDBRANCH   1  11
BRANCH   2  14
HETATM   14  C   UNL     1       7.656  -4.180  23.498  1.00  0.00     0.247 C 
HETATM   15  O   UNL     1       8.310  -5.042  24.026  1.00  0.00    -0.268 OA
HETATM   16  N   UNL     1       6.306  -4.014  23.493  1.00  0.00    -0.322 N 
ATOM     17  HN  UNL     1       5.850  -3.209  23.064  1.00  0.00     0.169 HD
BRANCH  16  18
HETATM   18  C   UNL     1       5.646  -4.966  24.082  1.00  0.00     0.050 C 
HETATM   19  C   UNL     1       5.121  -6.130  23.719  1.00  0.00     0.117 C 
HETATM   20  N   UNL     1       4.589  -7.174  24.019  1.00  0.00    -0.373 N 
HETATM   21  C   UNL     1       4.397  -6.917  25.222  1.00  0.00     0.088 C 
ATOM     22  HN  UNL     1       4.368  -8.001  23.463  1.00  0.00     0.164 HD
HETATM   23  C   UNL     1       4.755  -5.933  25.886  1.00  0.00     0.019 C 
HETATM   24  C   UNL     1       5.420  -4.871  25.570  1.00  0.00     0.032 C 
ENDBRANCH  16  18
ENDBRANCH   2  14
TORSDOF 7
ENDMDL
MODEL 7
REMARK VINA RESULT:    -5.721      4.157      7.871
REMARK INTER + INTRA:          -8.743
REMARK INTER:                  -7.987
REMARK INTRA:                  -0.756
REMARK UNBOUND:                -0.682
REMARK  7 active torsions:
REMARK  status: ('A' for Active; 'I' for Inactive)
REMARK    1  A    between atoms: S_2  and  N_5 
REMARK    2  A    between atoms: N_5  and  C_7 
REMARK    3  A    between atoms: C_8  and  C_9 
REMARK    4  A    between atoms: C_9  and  C_12 
REMARK    5  A    between atoms: C_11  and  C_12 
REMARK    6  A    between atoms: C_13  and  C_14 
REMARK       I    between atoms: C_14  and  N_16 
REMARK    7  A    between atoms: N_16  and  C_18 
ROOT
HETATM    1  C   UNL     1      10.424  -0.565  24.175  1.00  0.00     0.024 C 
HETATM    2  C   UNL     1       9.759  -1.655  24.003  1.00  0.00     0.095 C 
ENDROOT
BRANCH   1   3
HETATM    3  C   UNL     1       9.827   0.547  24.548  1.00  0.00    -0.043 C 
HETATM    4  C   UNL     1       9.250   1.444  24.755  1.00  0.00     0.028 C 
BRANCH   4   5
HETATM    5  N   UNL     1       8.805   2.466  25.254  1.00  0.00    -0.223 N 
ATOM      6  HN  UNL     1       8.400   2.365  26.185  1.00  0.00     0.192 HD
BRANCH   5   7
HETATM    7  S   UNL     1       8.774   3.974  24.629  1.00  0.00     0.216 S 
HETATM    8  O   UNL     1      10.127   4.220  24.099  1.00  0.00    -0.577 OA
HETATM    9  O   UNL     1       7.763   4.007  23.588  1.00  0.00    -0.577 OA
HETATM   10  O   UNL     1       8.450   4.917  25.658  1.00  0.00    -0.577 OA
ENDBRANCH   5   7
ENDBRANCH   4   5
ENDBRANCH   1   3
BRANCH   1  11
HETATM   11  C   UNL     1      11.788  -0.729  23.985  1.00  0.00     0.020 C 
BRANCH  11  12
HETATM   12  C   UNL     1      12.884  -0.350  24.257  1.00  0.00    -0.009 C 
HETATM   13  C   UNL     1      13.496  -1.545  23.347  1.00  0.00     0.011 C 
ENDBRANCH  11  12
ENDBRANCH   1  11
BRANCH   2  14
HETATM   14  C   UNL     1       9.008  -2.679  24.437  1.00  0.00     0.247 C 
HETATM   15  O   UNL     1       8.538  -3.455  23.645  1.00  0.00    -0.268 OA
HETATM   16  N   UNL     1       8.933  -2.695  25.795  1.00  0.00    -0.322 N 
ATOM     17  HN  UNL     1       9.422  -2.020  26.384  1.00  0.00     0.169 HD
BRANCH  16  18
HETATM   18  C   UNL     1       8.185  -3.640  26.281  1.00  0.00     0.050 C 
HETATM   19  C   UNL     1       8.371  -4.889  26.693  1.00  0.00     0.117 C 
HETATM   20  N   UNL     1       7.944  -5.886  27.228  1.00  0.00    -0.373 N 
HETATM   21  C   UNL     1       6.755  -5.525  27.315  1.00  0.00     0.088 C 
ATOM     22  HN  UNL     1       8.409  -6.746  27.516  1.00  0.00     0.164 HD
HETATM   23  C   UNL     1       6.238  -4.435  27.031  1.00  0.00     0.019 C 
HETATM   24  C   UNL     1       6.733  -3.338  26.558  1.00  0.00     0.032 C 
ENDBRANCH  16  18
ENDBRANCH   2  14
TORSDOF 7
ENDMDL
MODEL 8
REMARK VINA RESULT:    -5.686      4.332      7.559
REMARK INTER + INTRA:          -8.695
REMARK INTER:                  -7.966
REMARK INTRA:                  -0.728
REMARK UNBOUND:                -0.682
REMARK  7 active torsions:
REMARK  status: ('A' for Active; 'I' for Inactive)
REMARK    1  A    between atoms: S_2  and  N_5 
REMARK    2  A    between atoms: N_5  and  C_7 
REMARK    3  A    between atoms: C_8  and  C_9 
REMARK    4  A    between atoms: C_9  and  C_12 
REMARK    5  A    between atoms: C_11  and  C_12 
REMARK    6  A    between atoms: C_13  and  C_14 
REMARK       I    between atoms: C_14  and  N_16 
REMARK    7  A    between atoms: N_16  and  C_18 
ROOT
HETATM    1  C   UNL     1       7.235  -0.870  21.208  1.00  0.00     0.024 C 
HETATM    2  C   UNL     1       6.561  -1.755  21.858  1.00  0.00     0.095 C 
ENDROOT
BRANCH   1   3
HETATM    3  C   UNL     1       8.468  -0.565  21.550  1.00  0.00    -0.043 C 
HETATM    4  C   UNL     1       9.519  -0.334  21.705  1.00  0.00     0.028 C 
BRANCH   4   5
HETATM    5  N   UNL     1      10.589   0.007  22.185  1.00  0.00    -0.223 N 
ATOM      6  HN  UNL     1      10.992   0.864  21.807  1.00  0.00     0.192 HD
BRANCH   5   7
HETATM    7  S   UNL     1      11.459  -0.729  23.355  1.00  0.00     0.216 S 
HETATM    8  O   UNL     1      12.167  -1.840  22.694  1.00  0.00    -0.577 OA
HETATM    9  O   UNL     1      12.375   0.249  23.914  1.00  0.00    -0.577 OA
HETATM   10  O   UNL     1      10.581  -1.218  24.375  1.00  0.00    -0.577 OA
ENDBRANCH   5   7
ENDBRANCH   4   5
ENDBRANCH   1   3
BRANCH   1  11
HETATM   11  C   UNL     1       6.545  -0.358  20.120  1.00  0.00     0.020 C 
BRANCH  11  12
HETATM   12  C   UNL     1       5.595  -0.456  19.407  1.00  0.00    -0.009 C 
HETATM   13  C   UNL     1       6.245   0.664  18.430  1.00  0.00     0.011 C 
ENDBRANCH  11  12
ENDBRANCH   1  11
BRANCH   2  14
HETATM   14  C   UNL     1       6.325  -3.008  22.280  1.00  0.00     0.247 C 
HETATM   15  O   UNL     1       7.063  -3.900  21.948  1.00  0.00    -0.268 OA
HETATM   16  N   UNL     1       5.241  -3.057  23.100  1.00  0.00    -0.322 N 
ATOM     17  HN  UNL     1       4.714  -2.226  23.369  1.00  0.00     0.169 HD
BRANCH  16  18
HETATM   18  C   UNL     1       4.932  -4.250  23.512  1.00  0.00     0.050 C 
HETATM   19  C   UNL     1       4.179  -5.249  23.068  1.00  0.00     0.117 C 
HETATM   20  N   UNL     1       3.804  -6.395  23.161  1.00  0.00    -0.373 N 
HETATM   21  C   UNL     1       4.348  -6.654  24.251  1.00  0.00     0.088 C 
ATOM     22  HN  UNL     1       3.226  -6.966  22.544  1.00  0.00     0.164 HD
HETATM   23  C   UNL     1       5.115  -5.960  24.935  1.00  0.00     0.019 C 
HETATM   24  C   UNL     1       5.593  -4.772  24.763  1.00  0.00     0.032 C 
ENDBRANCH  16  18
ENDBRANCH   2  14
TORSDOF 7
ENDMDL
MODEL 9
REMARK VINA RESULT:    -5.680      6.673      8.090
REMARK INTER + INTRA:          -8.686
REMARK INTER:                  -7.925
REMARK INTRA:                  -0.761
REMARK UNBOUND:                -0.682
REMARK  7 active torsions:
REMARK  status: ('A' for Active; 'I' for Inactive)
REMARK    1  A    between atoms: S_2  and  N_5 
REMARK    2  A    between atoms: N_5  and  C_7 
REMARK    3  A    between atoms: C_8  and  C_9 
REMARK    4  A    between atoms: C_9  and  C_12 
REMARK    5  A    between atoms: C_11  and  C_12 
REMARK    6  A    between atoms: C_13  and  C_14 
REMARK       I    between atoms: C_14  and  N_16 
REMARK    7  A    between atoms: N_16  and  C_18 
ROOT
HETATM    1  C   UNL     1       7.117   1.321  20.839  1.00  0.00     0.024 C 
HETATM    2  C   UNL     1       8.110   0.728  21.407  1.00  0.00     0.095 C 
ENDROOT
BRANCH   1   3
HETATM    3  C   UNL     1       6.608   2.428  21.336  1.00  0.00    -0.043 C 
HETATM    4  C   UNL     1       6.129   3.265  21.838  1.00  0.00     0.028 C 
BRANCH   4   5
HETATM    5  N   UNL     1       5.774   4.381  22.182  1.00  0.00    -0.223 N 
ATOM      6  HN  UNL     1       4.771   4.561  22.136  1.00  0.00     0.192 HD
BRANCH   5   7
HETATM    7  S   UNL     1       6.693   5.625  22.707  1.00  0.00     0.216 S 
HETATM    8  O   UNL     1       5.806   6.464  23.532  1.00  0.00    -0.577 OA
HETATM    9  O   UNL     1       7.797   5.074  23.473  1.00  0.00    -0.577 OA
HETATM   10  O   UNL     1       7.194   6.362  21.585  1.00  0.00    -0.577 OA
ENDBRANCH   5   7
ENDBRANCH   4   5
ENDBRANCH   1   3
BRANCH   1  11
HETATM   11  C   UNL     1       6.720   0.702  19.663  1.00  0.00     0.020 C 
BRANCH  11  12
HETATM   12  C   UNL     1       6.976  -0.110  18.829  1.00  0.00    -0.009 C 
HETATM   13  C   UNL     1       5.555   0.213  18.116  1.00  0.00     0.011 C 
ENDBRANCH  11  12
ENDBRANCH   1  11
BRANCH   2  14
HETATM   14  C   UNL     1       9.388   0.656  21.811  1.00  0.00     0.247 C 
HETATM   15  O   UNL     1      10.204   1.417  21.357  1.00  0.00    -0.268 OA
HETATM   16  N   UNL     1       9.552  -0.304  22.762  1.00  0.00    -0.322 N 
ATOM     17  HN  UNL     1       8.777  -0.859  23.126  1.00  0.00     0.169 HD
BRANCH  16  18
HETATM   18  C   UNL     1      10.778  -0.454  23.167  1.00  0.00     0.050 C 
HETATM   19  C   UNL     1      11.557   0.112  24.081  1.00  0.00     0.117 C 
HETATM   20  N   UNL     1      12.597   0.130  24.699  1.00  0.00    -0.373 N 
HETATM   21  C   UNL     1      13.182  -0.763  24.057  1.00  0.00     0.088 C 
ATOM     22  HN  UNL     1      12.898   0.696  25.492  1.00  0.00     0.164 HD
HETATM   23  C   UNL     1      12.754  -1.491  23.149  1.00  0.00     0.019 C 
HETATM   24  C   UNL     1      11.600  -1.569  22.573  1.00  0.00     0.032 C 
ENDBRANCH  16  18
ENDBRANCH   2  14
TORSDOF 7
ENDMDL
