
 OpenBabel07202414163D

 53 55  0  0  0  0  0  0  0  0999 V2000
    0.5226    1.9122    1.5930 C   0  0  0  0  0  0  0  0  0  0  0  0
   -0.4149    0.7403    1.5194 C   0  0  0  0  0  0  0  0  0  0  0  0
   -1.7330    0.9549    1.0805 C   0  0  0  0  0  0  0  0  0  0  0  0
   -2.7034   -0.0670    1.0026 C   0  0  0  0  0  0  0  0  0  0  0  0
   -2.3022   -1.3741    1.3406 C   0  0  0  0  0  0  0  0  0  0  0  0
   -0.9743   -1.5886    1.7743 C   0  0  0  0  0  0  0  0  0  0  0  0
   -0.0455   -0.5501    1.8722 C   0  0  0  0  0  0  0  0  0  0  0  0
    1.5462   -0.9185    2.4273 Cl  0  0  0  0  0  0  0  0  0  0  0  0
   -2.9910   -2.5535    1.3609 O   0  0  0  0  0  0  0  0  0  0  0  0
   -4.3582   -2.6397    1.0266 C   0  0  0  0  0  0  0  0  0  0  0  0
   -4.0228    0.2776    0.5803 N   0  0  0  0  0  0  0  0  0  0  0  0
   -4.5581    1.5525    0.5756 C   0  0  0  0  0  0  0  0  0  0  0  0
   -3.9909    2.5762    0.9465 O   0  0  0  0  0  0  0  0  0  0  0  0
   -5.8796    1.5712    0.1274 N   0  0  0  0  0  0  0  0  0  0  0  0
   -6.5579    2.7795    0.0310 C   0  0  0  0  0  0  0  0  0  0  0  0
   -6.0587    3.7811   -0.7087 C   0  0  0  0  0  0  0  0  0  0  0  0
   -6.6726    5.0117   -0.8616 N   0  0  0  0  0  0  0  0  0  0  0  0
   -7.8414    5.3421   -0.1698 C   0  0  0  0  0  0  0  0  0  0  0  0
   -8.4074    6.4256   -0.2608 O   0  0  0  0  0  0  0  0  0  0  0  0
   -8.4317    4.2763    0.6887 C   0  0  0  0  0  0  0  0  0  0  0  0
   -7.8272    3.0053    0.7586 C   0  0  0  0  0  0  0  0  0  0  0  0
   -8.4256    2.0422    1.5877 C   0  0  0  0  0  0  0  0  0  0  0  0
   -9.6029    2.3244    2.2875 C   0  0  0  0  0  0  0  0  0  0  0  0
  -10.1914    3.5832    2.1995 C   0  0  0  0  0  0  0  0  0  0  0  0
   -9.5983    4.5649    1.4108 C   0  0  0  0  0  0  0  0  0  0  0  0
   -6.1301    5.9598   -1.8354 C   0  0  0  0  0  0  0  0  0  0  0  0
   -5.0930    6.9691   -1.3048 C   0  0  0  0  0  0  0  0  0  0  0  0
   -5.6468    7.8938   -0.2233 C   0  0  0  0  0  0  0  0  0  0  0  0
   -3.8208    6.2864   -0.8060 C   0  0  0  0  0  0  0  0  0  0  0  0
    0.0257    2.8415    1.2850 H   0  0  0  0  0  0  0  0  0  0  0  0
    1.3768    1.7659    0.9270 H   0  0  0  0  0  0  0  0  0  0  0  0
    0.8698    2.0622    2.6202 H   0  0  0  0  0  0  0  0  0  0  0  0
   -1.9635    1.9637    0.7609 H   0  0  0  0  0  0  0  0  0  0  0  0
   -0.6717   -2.5954    2.0547 H   0  0  0  0  0  0  0  0  0  0  0  0
   -4.6719   -3.6783    1.1728 H   0  0  0  0  0  0  0  0  0  0  0  0
   -4.5148   -2.4093   -0.0308 H   0  0  0  0  0  0  0  0  0  0  0  0
   -4.9724   -2.0201    1.6864 H   0  0  0  0  0  0  0  0  0  0  0  0
   -4.6355   -0.4580    0.2935 H   0  0  0  0  0  0  0  0  0  0  0  0
   -6.4211    0.7574    0.3637 H   0  0  0  0  0  0  0  0  0  0  0  0
   -5.1255    3.6486   -1.2532 H   0  0  0  0  0  0  0  0  0  0  0  0
   -7.9814    1.0624    1.7279 H   0  0  0  0  0  0  0  0  0  0  0  0
  -10.0574    1.5619    2.9168 H   0  0  0  0  0  0  0  0  0  0  0  0
  -11.1032    3.8037    2.7477 H   0  0  0  0  0  0  0  0  0  0  0  0
  -10.0455    5.5559    1.3586 H   0  0  0  0  0  0  0  0  0  0  0  0
   -6.9699    6.5147   -2.2770 H   0  0  0  0  0  0  0  0  0  0  0  0
   -5.6914    5.3889   -2.6621 H   0  0  0  0  0  0  0  0  0  0  0  0
   -4.8087    7.6011   -2.1575 H   0  0  0  0  0  0  0  0  0  0  0  0
   -5.8577    7.3466    0.7005 H   0  0  0  0  0  0  0  0  0  0  0  0
   -6.5663    8.3862   -0.5556 H   0  0  0  0  0  0  0  0  0  0  0  0
   -4.9216    8.6794    0.0161 H   0  0  0  0  0  0  0  0  0  0  0  0
   -4.0135    5.6886    0.0900 H   0  0  0  0  0  0  0  0  0  0  0  0
   -3.0605    7.0316   -0.5491 H   0  0  0  0  0  0  0  0  0  0  0  0
   -3.4000    5.6319   -1.5760 H   0  0  0  0  0  0  0  0  0  0  0  0
  1  2  1  0  0  0  0
  1 30  1  0  0  0  0
  1 31  1  0  0  0  0
  1 32  1  0  0  0  0
  2  3  1  0  0  0  0
  2  7  2  0  0  0  0
  3  4  2  0  0  0  0
  3 33  1  0  0  0  0
  4  5  1  0  0  0  0
  4 11  1  0  0  0  0
  5  6  2  0  0  0  0
  5  9  1  0  0  0  0
  6  7  1  0  0  0  0
  6 34  1  0  0  0  0
  7  8  1  0  0  0  0
  9 10  1  0  0  0  0
 10 35  1  0  0  0  0
 10 36  1  0  0  0  0
 10 37  1  0  0  0  0
 11 12  1  0  0  0  0
 11 38  1  0  0  0  0
 12 13  2  0  0  0  0
 12 14  1  0  0  0  0
 14 15  1  0  0  0  0
 14 39  1  0  0  0  0
 15 16  2  0  0  0  0
 15 21  1  0  0  0  0
 16 17  1  0  0  0  0
 16 40  1  0  0  0  0
 17 18  1  0  0  0  0
 17 26  1  0  0  0  0
 18 19  2  0  0  0  0
 18 20  1  0  0  0  0
 20 21  1  0  0  0  0
 20 25  2  0  0  0  0
 21 22  2  0  0  0  0
 22 23  1  0  0  0  0
 22 41  1  0  0  0  0
 23 24  2  0  0  0  0
 23 42  1  0  0  0  0
 24 25  1  0  0  0  0
 24 43  1  0  0  0  0
 25 44  1  0  0  0  0
 26 27  1  0  0  0  0
 26 45  1  0  0  0  0
 26 46  1  0  0  0  0
 27 28  1  0  0  0  0
 27 29  1  0  0  0  0
 27 47  1  0  0  0  0
 28 48  1  0  0  0  0
 28 49  1  0  0  0  0
 28 50  1  0  0  0  0
 29 51  1  0  0  0  0
 29 52  1  0  0  0  0
 29 53  1  0  0  0  0
M  END
$$$$
