
 OpenBabel07202414163D

 33 34  0  0  0  0  0  0  0  0999 V2000
    5.2640   -2.1174    0.3862 C   0  0  0  0  0  0  0  0  0  0  0  0
    4.4168   -0.9303    0.0194 C   0  0  0  0  0  0  0  0  0  0  0  0
    5.0401    0.3305   -0.0252 C   0  0  0  0  0  0  0  0  0  0  0  0
    4.2977    1.4624   -0.3254 C   0  0  0  0  0  0  0  0  0  0  0  0
    2.9846    1.4175   -0.5645 N   0  0  0  0  0  0  0  0  0  0  0  0
    2.3896    0.1959   -0.5281 C   0  0  0  0  0  0  0  0  0  0  0  0
    3.0423   -1.0090   -0.2594 C   0  0  0  0  0  0  0  0  0  0  0  0
    2.3762   -2.2633   -0.2552 N   0  0  0  0  0  0  0  0  0  0  0  0
    1.1149   -2.5084   -0.7714 C   0  0  0  0  0  0  0  0  0  0  0  0
    0.4131   -1.6945   -1.3692 O   0  0  0  0  0  0  0  0  0  0  0  0
    0.6216   -3.9305   -0.5566 C   0  0  0  0  0  0  0  0  0  0  0  0
    0.9759   -4.8917   -1.6667 C   0  0  0  0  0  0  0  0  0  0  0  0
    0.6576   -4.6087   -3.0040 C   0  0  0  0  0  0  0  0  0  0  0  0
    0.9182   -5.5409   -4.0133 C   0  0  0  0  0  0  0  0  0  0  0  0
    1.4919   -6.7713   -3.6981 C   0  0  0  0  0  0  0  0  0  0  0  0
    1.8067   -7.0631   -2.3734 C   0  0  0  0  0  0  0  0  0  0  0  0
    1.5511   -6.1352   -1.3619 C   0  0  0  0  0  0  0  0  0  0  0  0
    2.5004   -8.5865   -1.9747 Cl  0  0  0  0  0  0  0  0  0  0  0  0
    4.9078    2.7073   -0.4404 N   0  0  0  0  0  0  0  0  0  0  0  0
    6.3279   -1.9035    0.2392 H   0  0  0  0  0  0  0  0  0  0  0  0
    5.0316   -2.9835   -0.2395 H   0  0  0  0  0  0  0  0  0  0  0  0
    5.1103   -2.3726    1.4405 H   0  0  0  0  0  0  0  0  0  0  0  0
    6.1063    0.4287    0.1523 H   0  0  0  0  0  0  0  0  0  0  0  0
    1.3215    0.2489   -0.7099 H   0  0  0  0  0  0  0  0  0  0  0  0
    2.9137   -3.0677    0.0381 H   0  0  0  0  0  0  0  0  0  0  0  0
   -0.4724   -3.8965   -0.4589 H   0  0  0  0  0  0  0  0  0  0  0  0
    0.9972   -4.2909    0.4072 H   0  0  0  0  0  0  0  0  0  0  0  0
    0.1870   -3.6622   -3.2728 H   0  0  0  0  0  0  0  0  0  0  0  0
    0.6603   -5.3094   -5.0441 H   0  0  0  0  0  0  0  0  0  0  0  0
    1.6808   -7.4971   -4.4834 H   0  0  0  0  0  0  0  0  0  0  0  0
    1.7841   -6.3968   -0.3308 H   0  0  0  0  0  0  0  0  0  0  0  0
    5.4471    2.9444    0.3834 H   0  0  0  0  0  0  0  0  0  0  0  0
    4.1641    3.3787   -0.6169 H   0  0  0  0  0  0  0  0  0  0  0  0
  1  2  1  0  0  0  0
  1 20  1  0  0  0  0
  1 21  1  0  0  0  0
  1 22  1  0  0  0  0
  2  3  1  0  0  0  0
  2  7  2  0  0  0  0
  3  4  2  0  0  0  0
  3 23  1  0  0  0  0
  4  5  1  0  0  0  0
  4 19  1  0  0  0  0
  5  6  2  0  0  0  0
  6  7  1  0  0  0  0
  6 24  1  0  0  0  0
  7  8  1  0  0  0  0
  8  9  1  0  0  0  0
  8 25  1  0  0  0  0
  9 10  2  0  0  0  0
  9 11  1  0  0  0  0
 11 12  1  0  0  0  0
 11 26  1  0  0  0  0
 11 27  1  0  0  0  0
 12 13  1  0  0  0  0
 12 17  2  0  0  0  0
 13 14  2  0  0  0  0
 13 28  1  0  0  0  0
 14 15  1  0  0  0  0
 14 29  1  0  0  0  0
 15 16  2  0  0  0  0
 15 30  1  0  0  0  0
 16 17  1  0  0  0  0
 16 18  1  0  0  0  0
 17 31  1  0  0  0  0
 19 32  1  0  0  0  0
 19 33  1  0  0  0  0
M  END
$$$$
