stable:False satoms:6 tatoms:24 sratio:0.25
  -OEChem-07092417513D

 24 26  0     1  0  0  0  0  0999 V2000
    6.6570   -4.7877   26.4690 C   0  0  0  0  0  0  0  0  0  0  0  0
    8.1641   -4.3094   26.1103 S   0  0  0  0  0  0  0  0  0  0  0  0
    9.0521   -5.4469   26.0512 O   0  0  0  0  0  0  0  0  0  0  0  0
    8.6059   -3.4064   27.1570 O   0  0  0  0  0  0  0  0  0  0  0  0
    8.1314   -3.5671   24.6557 N   0  0  0  0  0  0  0  0  0  0  0  0
    8.9945   -2.9442   24.1432 C   0  0  0  0  0  0  0  0  0  0  0  0
    9.4211   -1.9274   23.4734 C   0  0  0  0  0  0  0  0  0  0  0  0
   10.3500   -1.1243   23.2732 C   0  0  1  0  0  0  0  0  0  0  0  0
   11.0666   -0.0486   24.3326 C   0  0  0  0  0  0  0  0  0  0  0  0
   12.1173    0.2766   24.2650 C   0  0  0  0  0  0  0  0  0  0  0  0
   13.1170   -0.1270   23.5088 C   0  0  0  0  0  0  0  0  0  0  0  0
   12.7063   -1.3116   22.5852 C   0  0  0  0  0  0  0  0  0  0  0  0
   11.8268   -1.7443   22.4680 C   0  0  0  0  0  0  0  0  0  0  0  0
    9.7205   -0.6166   22.3732 C   0  0  2  0  0  0  0  0  0  0  0  0
    9.0530    0.0322   21.3862 C   0  0  0  0  0  0  0  0  0  0  0  0
    9.5639    0.9669   20.9519 O   0  0  0  0  0  0  0  0  0  0  0  0
    7.9020   -0.5543   21.0895 N   0  0  0  0  0  0  0  0  0  0  0  0
    7.1699   -0.1081   20.1738 C   0  0  0  0  0  0  0  0  0  0  0  0
    7.2434   -0.0163   18.8505 C   0  0  0  0  0  0  0  0  0  0  0  0
    6.7830    0.3107   17.7956 N   0  0  0  0  0  0  0  0  0  0  0  0
    5.6105    0.9282   18.2190 C   0  0  0  0  0  0  0  0  0  0  0  0
    5.2495    0.9994   19.3846 C   0  0  0  0  0  0  0  0  0  0  0  0
    5.8053    0.5592   20.5433 C   0  0  0  0  0  0  0  0  0  0  0  0
    5.2729    0.6768   22.0368 C   0  0  0  0  0  0  0  0  0  0  0  0
 20 21  2  0  0  0  0
 19 20  1  0  0  0  0
 21 22  1  0  0  0  0
 18 19  2  0  0  0  0
 22 23  2  0  0  0  0
 18 23  1  0  0  0  0
 17 18  1  0  0  0  0
 23 24  1  0  0  0  0
 15 16  2  0  0  0  0
 15 17  1  0  0  0  0
 14 15  1  0  0  0  0
  8 14  1  0  0  0  0
  7 14  1  0  0  0  0
 12 13  1  0  0  0  0
  8 13  1  0  0  0  0
 11 12  2  0  0  0  0
  7  8  1  0  0  0  0
  8  9  1  0  0  0  0
  6  7  2  3  0  0  0
 10 11  1  0  0  0  0
  5  6  1  0  0  0  0
  9 10  2  0  0  0  0
  2  5  1  0  0  0  0
  2  3  2  0  0  0  0
  1  2  1  0  0  0  0
  2  4  2  0  0  0  0
M  END
> <Shapegauss>
-285.444550

$$$$
