stable:False satoms:6 tatoms:24 sratio:0.25
  -OEChem-08062416443D

 43 45  0     1  0  0  0  0  0999 V2000
   -5.9937   -5.0904  -25.8241 C   0  0  0  0  0  0  0  0  0  0  0  0
   -7.5365   -4.6174  -25.6671 S   0  0  0  0  0  0  0  0  0  0  0  0
   -8.4139   -5.7643  -25.6398 O   0  0  0  0  0  0  0  0  0  0  0  0
   -7.8658   -3.7852  -26.8096 O   0  0  0  0  0  0  0  0  0  0  0  0
   -7.6767   -3.7902  -24.2657 N   0  0  0  0  0  0  0  0  0  0  0  0
   -8.5987   -3.1529  -23.8923 C   0  0  0  0  0  0  0  0  0  0  0  0
   -9.1089   -2.1057  -23.3376 C   0  0  0  0  0  0  0  0  0  0  0  0
  -10.0626   -1.3081  -23.2923 C   0  0  1  0  0  0  0  0  0  0  0  0
  -10.6652   -0.3090  -24.4888 C   0  0  0  0  0  0  0  0  0  0  0  0
  -11.7201    0.0018  -24.5599 C   0  0  0  0  0  0  0  0  0  0  0  0
  -12.7950   -0.3734  -23.8981 C   0  0  0  0  0  0  0  0  0  0  0  0
  -12.4798   -1.4944  -22.8642 C   0  0  0  0  0  0  0  0  0  0  0  0
  -11.6149   -1.9045  -22.6227 C   0  0  0  0  0  0  0  0  0  0  0  0
   -9.5446   -0.7376  -22.3595 C   0  0  2  0  0  0  0  0  0  0  0  0
   -9.0000   -0.0206  -21.3446 C   0  0  0  0  0  0  0  0  0  0  0  0
   -9.5664    0.9293  -21.0279 O   0  0  0  0  0  0  0  0  0  0  0  0
   -7.8843   -0.5690  -20.8851 N   0  0  0  0  0  0  0  0  0  0  0  0
   -7.2654   -0.0573  -19.9214 C   0  0  0  0  0  0  0  0  0  0  0  0
   -7.4896    0.1111  -18.6228 C   0  0  0  0  0  0  0  0  0  0  0  0
   -7.1553    0.5075  -17.5445 N   0  0  0  0  0  0  0  0  0  0  0  0
   -5.9486    1.1187  -17.8696 C   0  0  0  0  0  0  0  0  0  0  0  0
   -5.4584    1.1272  -18.9892 C   0  0  0  0  0  0  0  0  0  0  0  0
   -5.8745    0.6101  -20.1744 C   0  0  0  0  0  0  0  0  0  0  0  0
   -5.1773    0.6485  -21.6028 C   0  0  0  0  0  0  0  0  0  0  0  0
   -5.8752   -5.6508  -26.7632 H   0  0  0  0  0  0  0  0  0  0  0  0
   -5.3391   -4.2065  -25.8396 H   0  0  0  0  0  0  0  0  0  0  0  0
   -5.7197   -5.7347  -24.9757 H   0  0  0  0  0  0  0  0  0  0  0  0
   -6.9094   -3.1489  -24.2708 H   0  0  0  0  0  0  0  0  0  0  0  0
   -9.4559   -3.7589  -24.1460 H   0  0  0  0  0  0  0  0  0  0  0  0
   -9.9784    0.0546  -25.2388 H   0  0  0  0  0  0  0  0  0  0  0  0
  -11.9071    0.7539  -25.3120 H   0  0  0  0  0  0  0  0  0  0  0  0
  -13.7779    0.0462  -24.0539 H   0  0  0  0  0  0  0  0  0  0  0  0
  -13.3358   -1.8813  -22.3314 H   0  0  0  0  0  0  0  0  0  0  0  0
  -11.5301   -1.8234  -21.5289 H   0  0  0  0  0  0  0  0  0  0  0  0
  -11.6863   -2.9646  -22.9073 H   0  0  0  0  0  0  0  0  0  0  0  0
  -10.0602   -1.3948  -21.6437 H   0  0  0  0  0  0  0  0  0  0  0  0
   -7.5312   -1.4014  -21.3122 H   0  0  0  0  0  0  0  0  0  0  0  0
   -8.4605   -0.3320  -18.4576 H   0  0  0  0  0  0  0  0  0  0  0  0
   -5.4087    1.6194  -17.0795 H   0  0  0  0  0  0  0  0  0  0  0  0
   -4.5126    1.6454  -19.0474 H   0  0  0  0  0  0  0  0  0  0  0  0
   -4.5375   -0.2382  -21.7230 H   0  0  0  0  0  0  0  0  0  0  0  0
   -5.9485    0.6532  -22.3871 H   0  0  0  0  0  0  0  0  0  0  0  0
   -4.5635    1.5575  -21.6867 H   0  0  0  0  0  0  0  0  0  0  0  0
 20 21  2  0  0  0  0
 19 20  1  0  0  0  0
 21 22  1  0  0  0  0
 18 19  2  0  0  0  0
 22 23  2  0  0  0  0
 18 23  1  0  0  0  0
 17 18  1  0  0  0  0
 23 24  1  0  0  0  0
 15 16  2  0  0  0  0
 15 17  1  0  0  0  0
 14 15  1  0  0  0  0
  8 14  1  0  0  0  0
  7 14  1  0  0  0  0
 12 13  1  0  0  0  0
  8 13  1  0  0  0  0
 11 12  2  0  0  0  0
  7  8  1  0  0  0  0
  8  9  1  0  0  0  0
  6  7  2  3  0  0  0
 10 11  1  0  0  0  0
  5  6  1  0  0  0  0
  9 10  2  0  0  0  0
  2  5  1  0  0  0  0
  2  3  2  0  0  0  0
  1  2  1  0  0  0  0
  2  4  2  0  0  0  0
  1 25  1  0  0  0  0
  1 26  1  0  0  0  0
  1 27  1  0  0  0  0
  5 28  1  0  0  0  0
  6 29  1  0  0  0  0
  9 30  1  0  0  0  0
 10 31  1  0  0  0  0
 11 32  1  0  0  0  0
 12 33  1  0  0  0  0
 13 34  1  0  0  0  0
 13 35  1  0  0  0  0
 14 36  1  0  0  0  0
 17 37  1  0  0  0  0
 19 38  1  0  0  0  0
 21 39  1  0  0  0  0
 22 40  1  0  0  0  0
 24 41  1  0  0  0  0
 24 42  1  0  0  0  0
 24 43  1  0  0  0  0
M  END
> <Chemgauss4>
-13.065004

$$$$
