stable:False satoms:6 tatoms:24 sratio:0.25
  -OEChem-08062416443D

 43 45  0     1  0  0  0  0  0999 V2000
    5.9184   -5.1512   26.0839 C   0  0  0  0  0  0  0  0  0  0  0  0
    7.4613   -4.6782   25.9269 S   0  0  0  0  0  0  0  0  0  0  0  0
    8.3386   -5.8251   25.8996 O   0  0  0  0  0  0  0  0  0  0  0  0
    7.7906   -3.8460   27.0694 O   0  0  0  0  0  0  0  0  0  0  0  0
    7.6015   -3.8510   24.5254 N   0  0  0  0  0  0  0  0  0  0  0  0
    8.5234   -3.2137   24.1521 C   0  0  0  0  0  0  0  0  0  0  0  0
    9.0336   -2.1666   23.5974 C   0  0  0  0  0  0  0  0  0  0  0  0
    9.9874   -1.3689   23.5521 C   0  0  1  0  0  0  0  0  0  0  0  0
   10.5900   -0.3698   24.7486 C   0  0  0  0  0  0  0  0  0  0  0  0
   11.6448   -0.0590   24.8196 C   0  0  0  0  0  0  0  0  0  0  0  0
   12.7197   -0.4343   24.1579 C   0  0  0  0  0  0  0  0  0  0  0  0
   12.4045   -1.5552   23.1240 C   0  0  0  0  0  0  0  0  0  0  0  0
   11.5397   -1.9653   22.8824 C   0  0  0  0  0  0  0  0  0  0  0  0
    9.4693   -0.7985   22.6192 C   0  0  2  0  0  0  0  0  0  0  0  0
    8.9248   -0.0814   21.6043 C   0  0  0  0  0  0  0  0  0  0  0  0
    9.4912    0.8685   21.2877 O   0  0  0  0  0  0  0  0  0  0  0  0
    7.8090   -0.6298   21.1449 N   0  0  0  0  0  0  0  0  0  0  0  0
    7.1902   -0.1181   20.1812 C   0  0  0  0  0  0  0  0  0  0  0  0
    7.4143    0.0503   18.8826 C   0  0  0  0  0  0  0  0  0  0  0  0
    7.0800    0.4467   17.8042 N   0  0  0  0  0  0  0  0  0  0  0  0
    5.8734    1.0579   18.1293 C   0  0  0  0  0  0  0  0  0  0  0  0
    5.3831    1.0664   19.2490 C   0  0  0  0  0  0  0  0  0  0  0  0
    5.7993    0.5493   20.4342 C   0  0  0  0  0  0  0  0  0  0  0  0
    5.1020    0.5877   21.8625 C   0  0  0  0  0  0  0  0  0  0  0  0
    5.7999   -5.7116   27.0230 H   0  0  0  0  0  0  0  0  0  0  0  0
    5.2638   -4.2673   26.0994 H   0  0  0  0  0  0  0  0  0  0  0  0
    5.6444   -5.7955   25.2355 H   0  0  0  0  0  0  0  0  0  0  0  0
    6.8342   -3.2097   24.5306 H   0  0  0  0  0  0  0  0  0  0  0  0
    9.3807   -3.8197   24.4058 H   0  0  0  0  0  0  0  0  0  0  0  0
    9.9031   -0.0063   25.4986 H   0  0  0  0  0  0  0  0  0  0  0  0
   11.8318    0.6931   25.5718 H   0  0  0  0  0  0  0  0  0  0  0  0
   13.7026   -0.0146   24.3137 H   0  0  0  0  0  0  0  0  0  0  0  0
   13.2606   -1.9421   22.5912 H   0  0  0  0  0  0  0  0  0  0  0  0
   11.4549   -1.8842   21.7887 H   0  0  0  0  0  0  0  0  0  0  0  0
   11.6110   -3.0254   23.1671 H   0  0  0  0  0  0  0  0  0  0  0  0
    9.9849   -1.4556   21.9035 H   0  0  0  0  0  0  0  0  0  0  0  0
    7.4560   -1.4622   21.5720 H   0  0  0  0  0  0  0  0  0  0  0  0
    8.3853   -0.3928   18.7174 H   0  0  0  0  0  0  0  0  0  0  0  0
    5.3334    1.5586   17.3393 H   0  0  0  0  0  0  0  0  0  0  0  0
    4.4373    1.5846   19.3072 H   0  0  0  0  0  0  0  0  0  0  0  0
    4.4623   -0.2990   21.9828 H   0  0  0  0  0  0  0  0  0  0  0  0
    5.8732    0.5923   22.6469 H   0  0  0  0  0  0  0  0  0  0  0  0
    4.4882    1.4967   21.9465 H   0  0  0  0  0  0  0  0  0  0  0  0
 20 21  2  0  0  0  0
 19 20  1  0  0  0  0
 21 22  1  0  0  0  0
 18 19  2  0  0  0  0
 22 23  2  0  0  0  0
 18 23  1  0  0  0  0
 17 18  1  0  0  0  0
 23 24  1  0  0  0  0
 15 16  2  0  0  0  0
 15 17  1  0  0  0  0
 14 15  1  0  0  0  0
  8 14  1  0  0  0  0
  7 14  1  0  0  0  0
 12 13  1  0  0  0  0
  8 13  1  0  0  0  0
 11 12  2  0  0  0  0
  7  8  1  0  0  0  0
  8  9  1  0  0  0  0
  6  7  2  3  0  0  0
 10 11  1  0  0  0  0
  5  6  1  0  0  0  0
  9 10  2  0  0  0  0
  2  5  1  0  0  0  0
  2  3  2  0  0  0  0
  1  2  1  0  0  0  0
  2  4  2  0  0  0  0
  1 25  1  0  0  0  0
  1 26  1  0  0  0  0
  1 27  1  0  0  0  0
  5 28  1  0  0  0  0
  6 29  1  0  0  0  0
  9 30  1  0  0  0  0
 10 31  1  0  0  0  0
 11 32  1  0  0  0  0
 12 33  1  0  0  0  0
 13 34  1  0  0  0  0
 13 35  1  0  0  0  0
 14 36  1  0  0  0  0
 17 37  1  0  0  0  0
 19 38  1  0  0  0  0
 21 39  1  0  0  0  0
 22 40  1  0  0  0  0
 24 41  1  0  0  0  0
 24 42  1  0  0  0  0
 24 43  1  0  0  0  0
M  END
> <Chemgauss4>
-12.892479

$$$$
