stable:False satoms:18 tatoms:24 sratio:0.75
  -OEChem-08062402143D

 28 27  0     0  0  0  0  0  0999 V2000
   -6.8447    2.3638  -22.2602 H   0  0  0  0  0  0  0  0  0  0  0  0
   -7.2612    1.3852  -22.4481 C   0  0  0  0  0  0  0  0  0  0  0  0
   -5.5000    0.5333  -22.3765 H   0  0  0  0  0  0  0  0  0  0  0  0
   -6.5539    0.4456  -22.5060 C   0  0  0  0  0  0  0  0  0  0  0  0
   -7.2526   -1.1559  -22.5242 S   0  0  0  0  0  0  0  0  0  0  0  0
   -7.7685   -1.7997  -23.9247 N   0  0  0  0  0  0  0  0  0  0  0  0
   -9.0607   -3.2276  -23.3949 H   0  0  0  0  0  0  0  0  0  0  0  0
   -7.1249   -0.9623  -26.0813 H   0  0  0  0  0  0  0  0  0  0  0  0
   -6.8817   -2.0088  -26.1706 C   0  0  0  0  0  0  0  0  0  0  0  0
   -5.8967   -2.1181  -26.5990 H   0  0  0  0  0  0  0  0  0  0  0  0
   -7.5614   -2.5050  -26.8598 H   0  0  0  0  0  0  0  0  0  0  0  0
   -6.9876   -2.6853  -24.8467 C   0  0  0  0  0  0  0  0  0  0  0  0
   -6.6122   -3.7223  -24.4899 O   0  0  0  0  0  0  0  0  0  0  0  0
   -9.1514   -2.3887  -24.0682 C   0  0  0  0  0  0  0  0  0  0  0  0
  -10.4432   -1.6811  -23.7074 C   0  0  0  0  0  0  0  0  0  0  0  0
   -9.2829   -2.6603  -25.1157 H   0  0  0  0  0  0  0  0  0  0  0  0
  -10.6918   -0.4823  -24.1031 C   0  0  0  0  0  0  0  0  0  0  0  0
  -12.4591   -1.4229  -22.9647 O   0  0  0  0  0  0  0  0  0  0  0  0
  -11.4302   -2.2836  -22.9559 N   0  0  0  0  0  0  0  0  0  0  0  0
  -13.8260   -2.8990  -22.6018 H   0  0  0  0  0  0  0  0  0  0  0  0
  -14.4856   -1.4370  -23.3624 H   0  0  0  0  0  0  0  0  0  0  0  0
  -13.4906   -2.5225  -24.3184 H   0  0  0  0  0  0  0  0  0  0  0  0
  -13.6328   -2.0963  -23.3342 C   0  0  0  0  0  0  0  0  0  0  0  0
  -11.0773    0.7803  -24.5927 S   0  0  0  0  0  0  0  0  0  0  0  0
   -8.3263    1.2685  -22.5830 H   0  0  0  0  0  0  0  0  0  0  0  0
  -10.6103   -0.0939  -23.0772 H   0  0  0  0  0  0  0  0  0  0  0  0
   -9.7135   -0.4109  -24.6010 H   0  0  0  0  0  0  0  0  0  0  0  0
  -10.1060    1.5388  -24.1788 H   0  0  0  0  0  0  0  0  0  0  0  0
 20 23  1  0  0  0  0
 21 23  1  0  0  0  0
 22 23  1  0  0  0  0
 18 23  1  0  0  0  0
 18 19  1  0  0  0  0
 15 19  2  0  0  0  0
  7 14  1  0  0  0  0
 14 15  1  0  0  0  0
 15 17  1  0  0  0  0
 14 16  1  0  0  0  0
  6 14  1  0  0  0  0
 17 24  1  0  0  0  0
 12 13  2  0  0  0  0
  6 12  1  0  0  0  0
  5  6  1  0  0  0  0
  9 12  1  0  0  0  0
  4  5  1  0  0  0  0
  9 11  1  0  0  0  0
  8  9  1  0  0  0  0
  9 10  1  0  0  0  0
  2  4  2  3  0  0  0
  3  4  1  0  0  0  0
  1  2  1  0  0  0  0
  2 25  1  0  0  0  0
 17 26  1  0  0  0  0
 17 27  1  0  0  0  0
 24 28  1  0  0  0  0
M  END
> <Chemgauss4>
-5.399831

$$$$
