stable:False satoms:18 tatoms:24 sratio:0.75
  -OEChem-08062402143D

 28 27  0     0  0  0  0  0  0999 V2000
    3.8418   -0.9237   25.0253 H   0  0  0  0  0  0  0  0  0  0  0  0
    4.7065   -1.5444   24.8423 C   0  0  0  0  0  0  0  0  0  0  0  0
    3.6873   -3.1901   25.1347 H   0  0  0  0  0  0  0  0  0  0  0  0
    4.6130   -2.7166   24.9021 C   0  0  0  0  0  0  0  0  0  0  0  0
    5.9292   -3.7138   24.3308 S   0  0  0  0  0  0  0  0  0  0  0  0
    7.1853   -4.0380   25.3101 N   0  0  0  0  0  0  0  0  0  0  0  0
    8.6764   -4.5580   24.0872 H   0  0  0  0  0  0  0  0  0  0  0  0
    7.1180   -3.7346   27.6913 H   0  0  0  0  0  0  0  0  0  0  0  0
    7.4545   -4.7556   27.6094 C   0  0  0  0  0  0  0  0  0  0  0  0
    6.8929   -5.3792   28.2887 H   0  0  0  0  0  0  0  0  0  0  0  0
    8.4942   -4.8446   27.9161 H   0  0  0  0  0  0  0  0  0  0  0  0
    7.3435   -5.2316   26.2013 C   0  0  0  0  0  0  0  0  0  0  0  0
    7.3977   -6.2990   25.7524 O   0  0  0  0  0  0  0  0  0  0  0  0
    8.6135   -3.8191   24.8716 C   0  0  0  0  0  0  0  0  0  0  0  0
    9.1615   -2.5278   24.2956 C   0  0  0  0  0  0  0  0  0  0  0  0
    9.2526   -4.0162   25.7324 H   0  0  0  0  0  0  0  0  0  0  0  0
    8.9458   -1.3906   24.8574 C   0  0  0  0  0  0  0  0  0  0  0  0
   10.3464   -1.2266   23.0365 O   0  0  0  0  0  0  0  0  0  0  0  0
    9.9352   -2.4981   23.1544 N   0  0  0  0  0  0  0  0  0  0  0  0
   11.9842   -1.7542   21.9328 H   0  0  0  0  0  0  0  0  0  0  0  0
   12.1112   -0.1896   22.7618 H   0  0  0  0  0  0  0  0  0  0  0  0
   12.2076   -1.6668   23.7057 H   0  0  0  0  0  0  0  0  0  0  0  0
   11.7367   -1.1968   22.8526 C   0  0  0  0  0  0  0  0  0  0  0  0
    8.8447   -0.1303   25.4773 S   0  0  0  0  0  0  0  0  0  0  0  0
    5.6569   -1.0899   24.6045 H   0  0  0  0  0  0  0  0  0  0  0  0
    8.2995   -1.0685   24.0276 H   0  0  0  0  0  0  0  0  0  0  0  0
    8.3313   -1.8592   25.6402 H   0  0  0  0  0  0  0  0  0  0  0  0
    7.5572    0.0198   25.5762 H   0  0  0  0  0  0  0  0  0  0  0  0
 20 23  1  0  0  0  0
 21 23  1  0  0  0  0
 22 23  1  0  0  0  0
 18 23  1  0  0  0  0
 18 19  1  0  0  0  0
 15 19  2  0  0  0  0
  7 14  1  0  0  0  0
 14 15  1  0  0  0  0
 15 17  1  0  0  0  0
 14 16  1  0  0  0  0
  6 14  1  0  0  0  0
 17 24  1  0  0  0  0
 12 13  2  0  0  0  0
  6 12  1  0  0  0  0
  5  6  1  0  0  0  0
  9 12  1  0  0  0  0
  4  5  1  0  0  0  0
  9 11  1  0  0  0  0
  8  9  1  0  0  0  0
  9 10  1  0  0  0  0
  2  4  2  3  0  0  0
  3  4  1  0  0  0  0
  1  2  1  0  0  0  0
  2 25  1  0  0  0  0
 17 26  1  0  0  0  0
 17 27  1  0  0  0  0
 24 28  1  0  0  0  0
M  END
> <Chemgauss4>
-5.361836

$$$$
