REMARK  1 active torsions:
REMARK  status: ('A' for Active; 'I' for Inactive)
REMARK    1  A    between atoms: C_13  and  C_16 
ROOT
HETATM    1  C   UNL     1       5.928  -2.857  25.727  1.00  0.00     0.004 A 
HETATM    2  C   UNL     1       6.369  -1.590  25.455  1.00  0.00     0.031 A 
HETATM    3  N   UNL     1       7.873  -0.801  23.524  1.00  0.00    -0.349 N 
HETATM    4  C   UNL     1       7.187  -2.994  23.882  1.00  0.00     0.033 A 
HETATM    5  C   UNL     1       7.144  -1.667  24.290  1.00  0.00     0.050 A 
HETATM    6  H   UNL     1       7.684   0.192  23.541  1.00  0.00     0.166 HD
HETATM    7  S   UNL     1       8.176  -3.159  22.464  1.00  0.00    -0.070 SA
HETATM    8  C   UNL     1       8.594  -1.436  22.559  1.00  0.00     0.085 C 
HETATM    9  C   UNL     1       6.473  -3.750  24.806  1.00  0.00     0.021 A 
ENDROOT
BRANCH   8  10
HETATM   10  C   UNL     1       9.520  -0.891  21.630  1.00  0.00    -0.001 C 
HETATM   11  C   UNL     1       9.462   0.542  21.535  1.00  0.00     0.038 C 
HETATM   12  C   UNL     1      10.278   1.381  20.849  1.00  0.00     0.035 C 
HETATM   13  C   UNL     1      11.280   1.006  19.946  1.00  0.00     0.024 C 
HETATM   14 CL   UNL     1      10.021   3.082  21.006  1.00  0.00    -0.084 Cl
HETATM   15  C   UNL     1      11.528  -0.223  19.813  1.00  0.00     0.002 C 
HETATM   16  C   UNL     1      11.373  -1.463  20.022  1.00  0.00     0.001 C 
HETATM   17  C   UNL     1      10.316  -1.774  20.860  1.00  0.00     0.014 C 
ENDBRANCH   8  10
TORSDOF 1
