stable:False satoms:19 tatoms:24 sratio:0.7916666666666666
  -OEChem-07092417283D

 24 26  0     1  0  0  0  0  0999 V2000
   10.2778    1.3815   20.8495 C   0  0  0  0  0  0  0  0  0  0  0  0
   11.5285   -0.2234   19.8133 C   0  0  0  0  0  0  0  0  0  0  0  0
    5.9280   -2.8572   25.7272 C   0  0  0  0  0  0  0  0  0  0  0  0
    8.6456    1.0143   22.0511 H   0  0  0  0  0  0  0  0  0  0  0  0
    6.1916   -0.6927   26.0505 H   0  0  0  0  0  0  0  0  0  0  0  0
   11.3734   -1.4628   20.0220 C   0  0  0  0  0  0  0  0  0  0  0  0
    5.2765   -3.1153   26.5559 H   0  0  0  0  0  0  0  0  0  0  0  0
   10.0214    3.0817   21.0060 Cl  0  0  0  0  0  0  0  0  0  0  0  0
   11.2804    1.0061   19.9463 C   0  5  3  0  0  0  0  0  0  0  0  0
    6.3690   -1.5902   25.4554 C   0  0  0  0  0  0  0  0  0  0  0  0
   11.7950    1.7379   19.3837 H   0  0  0  0  0  0  0  0  0  0  0  0
    9.4619    0.5417   21.5345 C   0  0  0  0  0  0  0  0  0  0  0  0
    7.8730   -0.8009   23.5238 N   0  3  0  0  0  0  0  0  0  0  0  0
    7.1871   -2.9936   23.8822 C   0  0  0  0  0  0  0  0  0  0  0  0
    7.1441   -1.6673   24.2900 C   0  0  0  0  0  0  0  0  0  0  0  0
   10.0753   -2.8139   20.9299 H   0  0  0  0  0  0  0  0  0  0  0  0
   10.3165   -1.7741   20.8598 C   0  0  0  0  0  0  0  0  0  0  0  0
    9.5202   -0.8911   21.6295 C   0  0  0  0  0  0  0  0  0  0  0  0
   12.0214   -2.1891   19.5900 H   0  0  0  0  0  0  0  0  0  0  0  0
    7.6840    0.1923   23.5414 H   0  0  0  0  0  0  0  0  0  0  0  0
    8.1759   -3.1585   22.4639 S   0  0  0  0  0  0  0  0  0  0  0  0
    6.3708   -4.8298   24.8258 H   0  0  0  0  0  0  0  0  0  0  0  0
    8.5939   -1.4362   22.5590 C   0  0  3  0  0  0  0  0  0  0  0  0
    6.4727   -3.7497   24.8058 C   0  0  0  0  0  0  0  0  0  0  0  0
  9 11  1  0  0  0  0
  6 19  1  0  0  0  0
  2  9  1  0  0  0  0
  2  6  2  0  0  0  0
  1  9  1  0  0  0  0
  6 17  1  0  0  0  0
  1  8  1  0  0  0  0
  1 12  2  0  0  0  0
 16 17  1  0  0  0  0
 17 18  2  0  0  0  0
 12 18  1  0  0  0  0
  4 12  1  0  0  0  0
 18 23  1  0  0  0  0
 21 23  1  0  0  0  0
 14 21  1  0  0  0  0
 13 23  1  0  0  0  0
 13 20  1  0  0  0  0
 13 15  2  0  0  0  0
 14 15  1  0  0  0  0
 14 24  2  0  0  0  0
 10 15  1  0  0  0  0
 22 24  1  0  0  0  0
  3 24  1  0  0  0  0
  3 10  2  0  0  0  0
  5 10  1  0  0  0  0
  3  7  1  0  0  0  0
M  CHG  2   9  -1  13   1
M  END
> <Shapegauss>
-90.568367

$$$$
