MODEL 1
REMARK VINA RESULT:    -6.205      0.000      0.000
REMARK INTER + INTRA:          -6.757
REMARK INTER:                  -6.568
REMARK INTRA:                  -0.189
REMARK UNBOUND:                -0.189
REMARK  1 active torsions:
REMARK  status: ('A' for Active; 'I' for Inactive)
REMARK    1  A    between atoms: C_13  and  C_16 
ROOT
HETATM    1  C   UNL     1      12.741  -0.755  23.975  1.00  0.00     0.004 A 
HETATM    2  C   UNL     1      12.021  -1.483  23.066  1.00  0.00     0.031 A 
HETATM    3  N   UNL     1      10.016  -0.730  21.642  1.00  0.00    -0.349 N 
HETATM    4  C   UNL     1      11.164   0.607  23.159  1.00  0.00     0.033 A 
HETATM    5  C   UNL     1      11.043  -0.630  22.539  1.00  0.00     0.050 A 
HETATM    6  H   UNL     1      10.014  -1.454  20.936  1.00  0.00     0.166 HD
HETATM    7  S   UNL     1       9.943   1.697  22.578  1.00  0.00    -0.070 SA
HETATM    8  C   UNL     1       9.238   0.386  21.610  1.00  0.00     0.085 C 
HETATM    9  C   UNL     1      12.189   0.519  24.095  1.00  0.00     0.021 A 
ENDROOT
BRANCH   8  10
HETATM   10  C   UNL     1       8.048   0.627  20.872  1.00  0.00    -0.001 C 
HETATM   11  C   UNL     1       7.112   1.479  21.554  1.00  0.00     0.038 C 
HETATM   12  C   UNL     1       5.950   2.003  21.092  1.00  0.00     0.035 C 
HETATM   13  C   UNL     1       5.328   1.694  19.876  1.00  0.00     0.024 C 
HETATM   14 CL   UNL     1       5.076   3.086  22.116  1.00  0.00    -0.084 Cl
HETATM   15  C   UNL     1       5.935   0.930  19.078  1.00  0.00     0.002 C 
HETATM   16  C   UNL     1       6.874   0.172  18.691  1.00  0.00     0.001 C 
HETATM   17  C   UNL     1       7.869  -0.032  19.631  1.00  0.00     0.014 C 
ENDBRANCH   8  10
TORSDOF 1
ENDMDL
MODEL 2
REMARK VINA RESULT:    -6.037      4.678      6.530
REMARK INTER + INTRA:          -6.578
REMARK INTER:                  -6.405
REMARK INTRA:                  -0.173
REMARK UNBOUND:                -0.189
REMARK  1 active torsions:
REMARK  status: ('A' for Active; 'I' for Inactive)
REMARK    1  A    between atoms: C_13  and  C_16 
ROOT
HETATM    1  C   UNL     1       6.101  -5.804  22.506  1.00  0.00     0.004 A 
HETATM    2  C   UNL     1       6.810  -4.914  21.744  1.00  0.00     0.031 A 
HETATM    3  N   UNL     1       8.398  -3.049  22.527  1.00  0.00    -0.349 N 
HETATM    4  C   UNL     1       7.245  -4.507  23.926  1.00  0.00     0.033 A 
HETATM    5  C   UNL     1       7.542  -4.110  22.628  1.00  0.00     0.050 A 
HETATM    6  H   UNL     1       8.904  -2.870  21.670  1.00  0.00     0.166 HD
HETATM    7  S   UNL     1       8.091  -3.511  25.070  1.00  0.00    -0.070 SA
HETATM    8  C   UNL     1       8.713  -2.514  23.739  1.00  0.00     0.085 C 
HETATM    9  C   UNL     1       6.305  -5.529  23.857  1.00  0.00     0.021 A 
ENDROOT
BRANCH   8  10
HETATM   10  C   UNL     1       9.501  -1.370  24.034  1.00  0.00    -0.001 C 
HETATM   11  C   UNL     1      10.912  -1.587  23.875  1.00  0.00     0.038 C 
HETATM   12  C   UNL     1      11.924  -0.687  23.951  1.00  0.00     0.035 C 
HETATM   13  C   UNL     1      11.815   0.647  24.363  1.00  0.00     0.024 C 
HETATM   14 CL   UNL     1      13.529  -1.228  23.610  1.00  0.00    -0.084 Cl
HETATM   15  C   UNL     1      10.663   1.102  24.598  1.00  0.00     0.002 C 
HETATM   16  C   UNL     1       9.403   1.053  24.718  1.00  0.00     0.001 C 
HETATM   17  C   UNL     1       8.858  -0.203  24.517  1.00  0.00     0.014 C 
ENDBRANCH   8  10
TORSDOF 1
ENDMDL
MODEL 3
REMARK VINA RESULT:    -6.004      4.293      4.761
REMARK INTER + INTRA:          -6.543
REMARK INTER:                  -6.342
REMARK INTRA:                  -0.201
REMARK UNBOUND:                -0.189
REMARK  1 active torsions:
REMARK  status: ('A' for Active; 'I' for Inactive)
REMARK    1  A    between atoms: C_13  and  C_16 
ROOT
HETATM    1  C   UNL     1      13.103  -0.547  23.803  1.00  0.00     0.004 A 
HETATM    2  C   UNL     1      12.553  -1.532  23.028  1.00  0.00     0.031 A 
HETATM    3  N   UNL     1      10.093  -2.272  22.893  1.00  0.00    -0.349 N 
HETATM    4  C   UNL     1      10.912  -0.574  24.255  1.00  0.00     0.033 A 
HETATM    5  C   UNL     1      11.177  -1.542  23.295  1.00  0.00     0.050 A 
HETATM    6  H   UNL     1      10.104  -2.777  22.018  1.00  0.00     0.166 HD
HETATM    7  S   UNL     1       9.223  -0.571  24.661  1.00  0.00    -0.070 SA
HETATM    8  C   UNL     1       8.969  -1.973  23.601  1.00  0.00     0.085 C 
HETATM    9  C   UNL     1      12.120   0.015  24.615  1.00  0.00     0.021 A 
ENDROOT
BRANCH   8  10
HETATM   10  C   UNL     1       7.682  -2.568  23.529  1.00  0.00    -0.001 C 
HETATM   11  C   UNL     1       7.627  -3.714  22.664  1.00  0.00     0.038 C 
HETATM   12  C   UNL     1       6.601  -4.580  22.466  1.00  0.00     0.035 C 
HETATM   13  C   UNL     1       5.298  -4.446  22.961  1.00  0.00     0.024 C 
HETATM   14 CL   UNL     1       6.865  -5.937  21.431  1.00  0.00    -0.084 Cl
HETATM   15  C   UNL     1       5.057  -3.487  23.744  1.00  0.00     0.002 C 
HETATM   16  C   UNL     1       5.323  -2.441  24.406  1.00  0.00     0.001 C 
HETATM   17  C   UNL     1       6.606  -1.955  24.217  1.00  0.00     0.014 C 
ENDBRANCH   8  10
TORSDOF 1
ENDMDL
MODEL 4
REMARK VINA RESULT:    -5.953      1.784      2.521
REMARK INTER + INTRA:          -6.490
REMARK INTER:                  -6.297
REMARK INTRA:                  -0.193
REMARK UNBOUND:                -0.189
REMARK  1 active torsions:
REMARK  status: ('A' for Active; 'I' for Inactive)
REMARK    1  A    between atoms: C_13  and  C_16 
ROOT
HETATM    1  C   UNL     1      12.581  -0.374  24.028  1.00  0.00     0.004 A 
HETATM    2  C   UNL     1      11.885   0.805  24.045  1.00  0.00     0.031 A 
HETATM    3  N   UNL     1       9.607   1.332  22.975  1.00  0.00    -0.349 N 
HETATM    4  C   UNL     1      10.693  -0.722  22.878  1.00  0.00     0.033 A 
HETATM    5  C   UNL     1      10.693   0.588  23.341  1.00  0.00     0.050 A 
HETATM    6  H   UNL     1       9.359   2.171  23.482  1.00  0.00     0.166 HD
HETATM    7  S   UNL     1       9.256  -1.036  21.954  1.00  0.00    -0.070 SA
HETATM    8  C   UNL     1       8.776   0.664  22.128  1.00  0.00     0.085 C 
HETATM    9  C   UNL     1      11.894  -1.312  23.259  1.00  0.00     0.021 A 
ENDROOT
BRANCH   8  10
HETATM   10  C   UNL     1       7.602   1.127  21.477  1.00  0.00    -0.001 C 
HETATM   11  C   UNL     1       7.285   0.400  20.279  1.00  0.00     0.038 C 
HETATM   12  C   UNL     1       6.182   0.496  19.494  1.00  0.00     0.035 C 
HETATM   13  C   UNL     1       5.168   1.455  19.606  1.00  0.00     0.024 C 
HETATM   14 CL   UNL     1       6.031  -0.591  18.160  1.00  0.00    -0.084 Cl
HETATM   15  C   UNL     1       5.215   2.256  20.578  1.00  0.00     0.002 C 
HETATM   16  C   UNL     1       5.706   2.780  21.621  1.00  0.00     0.001 C 
HETATM   17  C   UNL     1       6.933   2.261  21.999  1.00  0.00     0.014 C 
ENDBRANCH   8  10
TORSDOF 1
ENDMDL
MODEL 5
REMARK VINA RESULT:    -5.878      4.039      6.043
REMARK INTER + INTRA:          -6.410
REMARK INTER:                  -6.240
REMARK INTRA:                  -0.170
REMARK UNBOUND:                -0.189
REMARK  1 active torsions:
REMARK  status: ('A' for Active; 'I' for Inactive)
REMARK    1  A    between atoms: C_13  and  C_16 
ROOT
HETATM    1  C   UNL     1       5.913  -5.561  22.675  1.00  0.00     0.004 A 
HETATM    2  C   UNL     1       6.578  -4.728  21.816  1.00  0.00     0.031 A 
HETATM    3  N   UNL     1       8.438  -3.035  22.352  1.00  0.00    -0.349 N 
HETATM    4  C   UNL     1       7.380  -4.403  23.906  1.00  0.00     0.033 A 
HETATM    5  C   UNL     1       7.511  -4.012  22.579  1.00  0.00     0.050 A 
HETATM    6  H   UNL     1       8.822  -2.888  21.428  1.00  0.00     0.166 HD
HETATM    7  S   UNL     1       8.481  -3.512  24.910  1.00  0.00    -0.070 SA
HETATM    8  C   UNL     1       8.985  -2.554  23.503  1.00  0.00     0.085 C 
HETATM    9  C   UNL     1       6.347  -5.331  23.979  1.00  0.00     0.021 A 
ENDROOT
BRANCH   8  10
HETATM   10  C   UNL     1       9.914  -1.494  23.677  1.00  0.00    -0.001 C 
HETATM   11  C   UNL     1       9.305  -0.258  24.086  1.00  0.00     0.038 C 
HETATM   12  C   UNL     1       9.904   0.902  24.456  1.00  0.00     0.035 C 
HETATM   13  C   UNL     1      11.271   1.191  24.370  1.00  0.00     0.024 C 
HETATM   14 CL   UNL     1       8.904   2.201  25.000  1.00  0.00    -0.084 Cl
HETATM   15  C   UNL     1      12.050   0.270  24.005  1.00  0.00     0.002 C 
HETATM   16  C   UNL     1      12.359  -0.891  23.603  1.00  0.00     0.001 C 
HETATM   17  C   UNL     1      11.277  -1.721  23.365  1.00  0.00     0.014 C 
ENDBRANCH   8  10
TORSDOF 1
ENDMDL
MODEL 6
REMARK VINA RESULT:    -5.674      2.442      6.128
REMARK INTER + INTRA:          -6.194
REMARK INTER:                  -6.013
REMARK INTRA:                  -0.181
REMARK UNBOUND:                -0.189
REMARK  1 active torsions:
REMARK  status: ('A' for Active; 'I' for Inactive)
REMARK    1  A    between atoms: C_13  and  C_16 
ROOT
HETATM    1  C   UNL     1       4.403   1.599  19.364  1.00  0.00     0.004 A 
HETATM    2  C   UNL     1       4.848   2.188  20.517  1.00  0.00     0.031 A 
HETATM    3  N   UNL     1       7.058   1.782  21.769  1.00  0.00    -0.349 N 
HETATM    4  C   UNL     1       6.410   0.715  19.807  1.00  0.00     0.033 A 
HETATM    5  C   UNL     1       6.113   1.650  20.790  1.00  0.00     0.050 A 
HETATM    6  H   UNL     1       7.093   2.611  22.347  1.00  0.00     0.166 HD
HETATM    7  S   UNL     1       7.952  -0.022  20.119  1.00  0.00    -0.070 SA
HETATM    8  C   UNL     1       8.071   0.881  21.643  1.00  0.00     0.085 C 
HETATM    9  C   UNL     1       5.322   0.640  18.943  1.00  0.00     0.021 A 
ENDROOT
BRANCH   8  10
HETATM   10  C   UNL     1       9.180   0.657  22.501  1.00  0.00    -0.001 C 
HETATM   11  C   UNL     1       9.977   1.832  22.728  1.00  0.00     0.038 C 
HETATM   12  C   UNL     1      11.019   2.000  23.580  1.00  0.00     0.035 C 
HETATM   13  C   UNL     1      11.649   0.995  24.324  1.00  0.00     0.024 C 
HETATM   14 CL   UNL     1      11.724   3.572  23.711  1.00  0.00    -0.084 Cl
HETATM   15  C   UNL     1      11.159  -0.166  24.287  1.00  0.00     0.002 C 
HETATM   16  C   UNL     1      10.353  -1.069  23.913  1.00  0.00     0.001 C 
HETATM   17  C   UNL     1       9.434  -0.658  22.963  1.00  0.00     0.014 C 
ENDBRANCH   8  10
TORSDOF 1
ENDMDL
MODEL 7
REMARK VINA RESULT:    -5.657      4.910      6.448
REMARK INTER + INTRA:          -6.177
REMARK INTER:                  -6.002
REMARK INTRA:                  -0.175
REMARK UNBOUND:                -0.189
REMARK  1 active torsions:
REMARK  status: ('A' for Active; 'I' for Inactive)
REMARK    1  A    between atoms: C_13  and  C_16 
ROOT
HETATM    1  C   UNL     1       6.816  -5.435  26.361  1.00  0.00     0.004 A 
HETATM    2  C   UNL     1       7.739  -4.679  27.031  1.00  0.00     0.031 A 
HETATM    3  N   UNL     1       8.762  -2.423  26.340  1.00  0.00    -0.349 N 
HETATM    4  C   UNL     1       7.192  -3.618  25.109  1.00  0.00     0.033 A 
HETATM    5  C   UNL     1       7.966  -3.530  26.260  1.00  0.00     0.050 A 
HETATM    6  H   UNL     1       9.127  -2.109  27.229  1.00  0.00     0.166 HD
HETATM    7  S   UNL     1       7.468  -2.241  24.089  1.00  0.00    -0.070 SA
HETATM    8  C   UNL     1       8.719  -1.665  25.209  1.00  0.00     0.085 C 
HETATM    9  C   UNL     1       6.512  -4.832  25.142  1.00  0.00     0.021 A 
ENDROOT
BRANCH   8  10
HETATM   10  C   UNL     1       9.458  -0.496  24.887  1.00  0.00    -0.001 C 
HETATM   11  C   UNL     1      10.865  -0.736  24.714  1.00  0.00     0.038 C 
HETATM   12  C   UNL     1      11.826   0.121  24.287  1.00  0.00     0.035 C 
HETATM   13  C   UNL     1      11.670   1.495  24.065  1.00  0.00     0.024 C 
HETATM   14 CL   UNL     1      13.430  -0.486  24.080  1.00  0.00    -0.084 Cl
HETATM   15  C   UNL     1      10.514   1.986  24.175  1.00  0.00     0.002 C 
HETATM   16  C   UNL     1       9.271   1.972  24.418  1.00  0.00     0.001 C 
HETATM   17  C   UNL     1       8.786   0.751  24.852  1.00  0.00     0.014 C 
ENDBRANCH   8  10
TORSDOF 1
ENDMDL
MODEL 8
REMARK VINA RESULT:    -5.520      4.272      5.949
REMARK INTER + INTRA:          -6.032
REMARK INTER:                  -5.854
REMARK INTRA:                  -0.178
REMARK UNBOUND:                -0.189
REMARK  1 active torsions:
REMARK  status: ('A' for Active; 'I' for Inactive)
REMARK    1  A    between atoms: C_13  and  C_16 
ROOT
HETATM    1  C   UNL     1       9.671   6.841  24.855  1.00  0.00     0.004 A 
HETATM    2  C   UNL     1      10.563   6.230  24.015  1.00  0.00     0.031 A 
HETATM    3  N   UNL     1      10.637   3.767  23.280  1.00  0.00    -0.349 N 
HETATM    4  C   UNL     1       9.062   4.692  24.720  1.00  0.00     0.033 A 
HETATM    5  C   UNL     1      10.176   4.887  23.913  1.00  0.00     0.050 A 
HETATM    6  H   UNL     1      11.230   3.839  22.465  1.00  0.00     0.166 HD
HETATM    7  S   UNL     1       8.564   3.029  24.670  1.00  0.00    -0.070 SA
HETATM    8  C   UNL     1       9.967   2.642  23.654  1.00  0.00     0.085 C 
HETATM    9  C   UNL     1       8.775   5.897  25.352  1.00  0.00     0.021 A 
ENDROOT
BRANCH   8  10
HETATM   10  C   UNL     1      10.206   1.293  23.279  1.00  0.00    -0.001 C 
HETATM   11  C   UNL     1      11.499   0.806  23.676  1.00  0.00     0.038 C 
HETATM   12  C   UNL     1      11.995  -0.453  23.589  1.00  0.00     0.035 C 
HETATM   13  C   UNL     1      11.392  -1.537  22.939  1.00  0.00     0.024 C 
HETATM   14 CL   UNL     1      13.562  -0.762  24.247  1.00  0.00    -0.084 Cl
HETATM   15  C   UNL     1      10.236  -1.374  22.463  1.00  0.00     0.002 C 
HETATM   16  C   UNL     1       9.185  -0.728  22.175  1.00  0.00     0.001 C 
HETATM   17  C   UNL     1       9.228   0.614  22.512  1.00  0.00     0.014 C 
ENDBRANCH   8  10
TORSDOF 1
ENDMDL
MODEL 9
REMARK VINA RESULT:    -5.415      5.234      5.799
REMARK INTER + INTRA:          -5.920
REMARK INTER:                  -5.742
REMARK INTRA:                  -0.178
REMARK UNBOUND:                -0.189
REMARK  1 active torsions:
REMARK  status: ('A' for Active; 'I' for Inactive)
REMARK    1  A    between atoms: C_13  and  C_16 
ROOT
HETATM    1  C   UNL     1      10.508   0.548  21.795  1.00  0.00     0.004 A 
HETATM    2  C   UNL     1      10.793  -0.684  22.319  1.00  0.00     0.031 A 
HETATM    3  N   UNL     1       9.200  -2.666  22.704  1.00  0.00    -0.349 N 
HETATM    4  C   UNL     1       8.594  -0.611  21.798  1.00  0.00     0.033 A 
HETATM    5  C   UNL     1       9.601  -1.421  22.308  1.00  0.00     0.050 A 
HETATM    6  H   UNL     1       9.868  -3.418  22.804  1.00  0.00     0.166 HD
HETATM    7  S   UNL     1       7.077  -1.458  21.803  1.00  0.00    -0.070 SA
HETATM    8  C   UNL     1       7.852  -2.833  22.617  1.00  0.00     0.085 C 
HETATM    9  C   UNL     1       9.143   0.637  21.526  1.00  0.00     0.021 A 
ENDROOT
BRANCH   8  10
HETATM   10  C   UNL     1       7.062  -3.947  23.007  1.00  0.00    -0.001 C 
HETATM   11  C   UNL     1       7.129  -4.235  24.413  1.00  0.00     0.038 C 
HETATM   12  C   UNL     1       6.414  -5.138  25.130  1.00  0.00     0.035 C 
HETATM   13  C   UNL     1       5.547  -6.107  24.611  1.00  0.00     0.024 C 
HETATM   14 CL   UNL     1       6.643  -5.190  26.842  1.00  0.00    -0.084 Cl
HETATM   15  C   UNL     1       5.322  -6.097  23.370  1.00  0.00     0.002 C 
HETATM   16  C   UNL     1       5.450  -5.696  22.175  1.00  0.00     0.001 C 
HETATM   17  C   UNL     1       6.382  -4.686  22.008  1.00  0.00     0.014 C 
ENDBRANCH   8  10
TORSDOF 1
ENDMDL
