stable:False satoms:21 tatoms:24 sratio:0.875
  -OEChem-08052419163D

 25 26  0     1  0  0  0  0  0999 V2000
    9.8011   -1.2444   22.6282 C   0  0  0  0  0  0  0  0  0  0  0  0
   13.1592    0.2417   22.8409 H   0  0  0  0  0  0  0  0  0  0  0  0
   13.2215   -1.1703   23.8917 H   0  0  0  0  0  0  0  0  0  0  0  0
   13.4580    0.4222   24.5457 H   0  0  0  0  0  0  0  0  0  0  0  0
    8.5697   -1.5238   22.0683 C   0  0  0  0  0  0  0  0  0  0  0  0
   11.5900   -1.0323   21.7690 H   0  0  0  0  0  0  0  0  0  0  0  0
   11.4620   -0.0567   24.0831 C   0  0  0  0  0  0  0  0  0  0  0  0
    9.9027   -1.5956   24.0182 C   0  0  0  0  0  0  0  0  0  0  0  0
    9.3985   -3.0904   25.4477 H   0  0  0  0  0  0  0  0  0  0  0  0
    6.2622   -2.9135   21.8924 Cl  0  0  0  0  0  0  0  0  0  0  0  0
   10.7437   -0.9462   24.7210 C   0  0  0  0  0  0  0  0  0  0  0  0
    7.1257   -3.4272   24.4894 H   0  0  0  0  0  0  0  0  0  0  0  0
   10.6876   -0.5967   21.8177 N   0  0  0  0  0  0  0  0  0  0  0  0
    9.0698   -2.5797   24.5658 C   0  0  0  0  0  0  0  0  0  0  0  0
    7.6652   -2.3658   22.7014 C   0  0  0  0  0  0  0  0  0  0  0  0
    7.8696   -2.8320   23.9817 C   0  0  0  0  0  0  0  0  0  0  0  0
   10.9289    1.1172   23.4736 C   0  0  0  0  0  0  0  0  0  0  0  0
   12.9021   -0.1455   23.8162 C   0  0  0  0  0  0  0  0  0  0  0  0
   10.7192    2.1423   24.0155 O   0  0  0  0  0  0  0  0  0  0  0  0
    9.4663    1.3927   21.6230 O   0  0  0  0  0  0  0  0  0  0  0  0
    8.8264    2.0326   21.4279 H   0  0  0  0  0  0  0  0  0  0  0  0
   11.4243    1.3368   21.3267 H   0  0  0  0  0  0  0  0  0  0  0  0
    8.3220   -1.0462   21.1242 H   0  0  0  0  0  0  0  0  0  0  0  0
   10.6896    0.8399   21.9523 C   0  0  2  0  0  0  0  0  0  0  0  0
   10.8574   -1.1194   25.7809 H   0  0  0  0  0  0  0  0  0  0  0  0
 20 21  1  0  0  0  0
 17 19  2  0  0  0  0
 20 24  1  0  0  0  0
 17 24  1  0  0  0  0
  7 17  1  0  0  0  0
 22 24  1  0  0  0  0
 13 24  1  0  0  0  0
  5 23  1  0  0  0  0
 10 15  1  0  0  0  0
  5 15  2  0  0  0  0
  1  5  1  0  0  0  0
 15 16  1  0  0  0  0
  7 11  2  0  0  0  0
  7 18  1  0  0  0  0
 12 16  1  0  0  0  0
 14 16  2  0  0  0  0
  8 11  1  0  0  0  0
  1  8  2  0  0  0  0
  1 13  1  0  0  0  0
  8 14  1  0  0  0  0
  6 13  1  0  0  0  0
  9 14  1  0  0  0  0
  4 18  1  0  0  0  0
  2 18  1  0  0  0  0
  3 18  1  0  0  0  0
 11 25  1  0  0  0  0
M  END
> <Chemgauss4>
-7.141354

$$$$
