stable:False satoms:21 tatoms:24 sratio:0.875
  -OEChem-08052419163D

 25 26  0     1  0  0  0  0  0999 V2000
  -10.0749   -1.9007  -23.2817 C   0  0  0  0  0  0  0  0  0  0  0  0
  -12.9560    0.3782  -23.4710 H   0  0  0  0  0  0  0  0  0  0  0  0
  -12.8306   -0.3277  -25.0796 H   0  0  0  0  0  0  0  0  0  0  0  0
  -12.6364    1.3844  -24.8544 H   0  0  0  0  0  0  0  0  0  0  0  0
   -9.1490   -2.7290  -22.6779 C   0  0  0  0  0  0  0  0  0  0  0  0
  -12.0090   -1.6183  -22.8782 H   0  0  0  0  0  0  0  0  0  0  0  0
  -10.9884    0.2210  -24.2562 C   0  0  0  0  0  0  0  0  0  0  0  0
   -9.7425   -1.5423  -24.6332 C   0  0  0  0  0  0  0  0  0  0  0  0
   -8.9703   -2.3027  -26.4657 H   0  0  0  0  0  0  0  0  0  0  0  0
   -7.2241   -4.6213  -22.7129 Cl  0  0  0  0  0  0  0  0  0  0  0  0
  -10.2106   -0.4426  -25.0740 C   0  0  0  0  0  0  0  0  0  0  0  0
   -7.2143   -3.6457  -25.3211 H   0  0  0  0  0  0  0  0  0  0  0  0
  -11.0974   -1.4743  -22.4850 N   0  0  0  0  0  0  0  0  0  0  0  0
   -8.8997   -2.3584  -25.3986 C   0  0  0  0  0  0  0  0  0  0  0  0
   -8.1933   -3.4055  -23.4240 C   0  0  0  0  0  0  0  0  0  0  0  0
   -8.0079   -3.1660  -24.7682 C   0  0  0  0  0  0  0  0  0  0  0  0
  -10.5542    0.7952  -23.0252 C   0  0  0  0  0  0  0  0  0  0  0  0
  -12.4334    0.4202  -24.4156 C   0  0  0  0  0  0  0  0  0  0  0  0
  -10.0506    1.8527  -22.8960 O   0  0  0  0  0  0  0  0  0  0  0  0
   -9.7816   -0.2093  -21.0168 O   0  0  0  0  0  0  0  0  0  0  0  0
   -9.1725    0.0699  -20.3779 H   0  0  0  0  0  0  0  0  0  0  0  0
  -11.7157    0.1467  -21.2551 H   0  0  0  0  0  0  0  0  0  0  0  0
   -9.1790   -2.8186  -21.5953 H   0  0  0  0  0  0  0  0  0  0  0  0
  -10.8791   -0.1938  -21.8569 C   0  0  2  0  0  0  0  0  0  0  0  0
   -9.9794   -0.0790  -26.0643 H   0  0  0  0  0  0  0  0  0  0  0  0
 20 21  1  0  0  0  0
 17 19  2  0  0  0  0
 20 24  1  0  0  0  0
 17 24  1  0  0  0  0
  7 17  1  0  0  0  0
 22 24  1  0  0  0  0
 13 24  1  0  0  0  0
  5 23  1  0  0  0  0
 10 15  1  0  0  0  0
  5 15  2  0  0  0  0
  1  5  1  0  0  0  0
 15 16  1  0  0  0  0
  7 11  2  0  0  0  0
  7 18  1  0  0  0  0
 12 16  1  0  0  0  0
 14 16  2  0  0  0  0
  8 11  1  0  0  0  0
  1  8  2  0  0  0  0
  1 13  1  0  0  0  0
  8 14  1  0  0  0  0
  6 13  1  0  0  0  0
  9 14  1  0  0  0  0
  4 18  1  0  0  0  0
  2 18  1  0  0  0  0
  3 18  1  0  0  0  0
 11 25  1  0  0  0  0
M  END
> <Chemgauss4>
-7.095441

$$$$
