stable:False satoms:19 tatoms:24 sratio:0.7916666666666666
  -OEChem-07092417353D

 24 24  0     1  0  0  0  0  0999 V2000
    7.2183   -4.3516   25.9000 H   0  0  0  0  0  0  0  0  0  0  0  0
    8.1309   -3.8673   25.5762 C   0  0  0  0  0  0  0  0  0  0  0  0
    8.7069   -4.5450   24.9771 H   0  0  0  0  0  0  0  0  0  0  0  0
    8.7062   -3.5285   26.4344 H   0  0  0  0  0  0  0  0  0  0  0  0
    7.5777   -2.3950   24.6678 S   0  0  0  0  0  0  0  0  0  0  0  0
    9.2026   -1.3785   22.8002 C   0  0  0  0  0  0  0  0  0  0  0  0
    9.0693   -1.6802   24.1258 C   0  0  0  0  0  0  0  0  0  0  0  0
   10.1160   -1.4190   25.9992 H   0  0  0  0  0  0  0  0  0  0  0  0
   10.1613   -1.3491   24.9417 C   0  0  0  0  0  0  0  0  0  0  0  0
   11.5883   -0.9171   23.1152 C   0  0  0  0  0  0  0  0  0  0  0  0
   11.2244   -0.9917   24.2837 C   0  0  0  0  0  0  0  0  0  0  0  0
   12.6009   -0.8431   22.7534 H   0  0  0  0  0  0  0  0  0  0  0  0
    9.1639    0.1357   20.9786 H   0  0  0  0  0  0  0  0  0  0  0  0
   10.4813   -1.0916   22.2841 C   0  0  0  0  0  0  0  0  0  0  0  0
   10.6454   -1.1215   21.2284 H   0  0  0  0  0  0  0  0  0  0  0  0
    8.1002   -0.1839   21.1180 C   0  0  1  0  0  0  0  0  0  0  0  0
    8.0778   -1.2667   21.9898 N   0  0  0  0  0  0  0  0  0  0  0  0
    7.2088    1.4305   19.4739 H   0  0  0  0  0  0  0  0  0  0  0  0
    7.5479   -0.5559   19.8960 O   0  0  0  0  0  0  0  0  0  0  0  0
    7.6285    0.3620   18.1059 H   0  0  0  0  0  0  0  0  0  0  0  0
    5.9956    0.3252   18.7726 H   0  0  0  0  0  0  0  0  0  0  0  0
    6.2630    0.7353   21.1598 H   0  0  0  0  0  0  0  0  0  0  0  0
    7.0510    0.4459   19.0475 C   0  0  0  0  0  0  0  0  0  0  0  0
    7.1180    0.7610   21.6672 O   0  0  0  0  0  0  0  0  0  0  0  0
 20 23  1  0  0  0  0
 21 23  1  0  0  0  0
 18 23  1  0  0  0  0
 19 23  1  0  0  0  0
 16 19  1  0  0  0  0
 13 16  1  0  0  0  0
 16 24  1  0  0  0  0
 16 17  1  0  0  0  0
 22 24  1  0  0  0  0
 14 15  1  0  0  0  0
  6 17  1  0  0  0  0
  6 14  2  0  0  0  0
 10 14  1  0  0  0  0
 10 12  1  0  0  0  0
  6  7  1  0  0  0  0
 10 11  2  0  0  0  0
  5  7  1  0  0  0  0
  7  9  2  0  0  0  0
  9 11  1  0  0  0  0
  2  5  1  0  0  0  0
  8  9  1  0  0  0  0
  2  3  1  0  0  0  0
  1  2  1  0  0  0  0
  2  4  1  0  0  0  0
M  END
> <Shapegauss>
-138.147125

$$$$
