MODEL 1
REMARK VINA RESULT:    -4.610      0.000      0.000
REMARK INTER + INTRA:          -6.110
REMARK INTER:                  -5.822
REMARK INTRA:                  -0.288
REMARK UNBOUND:                -0.288
REMARK  5 active torsions:
REMARK  status: ('A' for Active; 'I' for Inactive)
REMARK    1  A    between atoms: S_2  and  C_4 
REMARK    2  A    between atoms: C_3  and  N_10 
REMARK    3  A    between atoms: C_9  and  O_12 
REMARK    4  A    between atoms: C_9  and  O_15 
REMARK    5  A    between atoms: C_9  and  N_10 
ROOT
HETATM    1  C   UNL     1       2.390 -20.768   8.520  1.00  0.00     0.048 C 
HETATM    2  C   UNL     1       1.456 -21.726   8.799  1.00  0.00     0.026 C 
HETATM    3  C   UNL     1       1.863 -23.054   8.603  1.00  0.00     0.021 C 
HETATM    4  C   UNL     1       3.828 -22.440   7.453  1.00  0.00     0.002 C 
HETATM    5  C   UNL     1       3.003 -23.172   7.989  1.00  0.00     0.002 C 
HETATM    6  C   UNL     1       3.526 -21.114   7.764  1.00  0.00     0.030 C 
ENDROOT
BRANCH   1   7
HETATM    7  N   UNL     1       2.264 -19.491   9.055  1.00  0.00    -0.341 N 
ATOM      8  HN  UNL     1       2.206 -19.316  10.059  1.00  0.00     0.164 HD
BRANCH   7   9
HETATM    9  C   UNL     1       2.225 -18.471   8.110  1.00  0.00     0.367 C 
BRANCH   9  10
HETATM   10  O   UNL     1       1.105 -17.675   8.328  1.00  0.00    -0.349 OA
HETATM   11  C   UNL     1       0.630 -17.522   9.641  1.00  0.00     0.206 C 
ENDBRANCH   9  10
BRANCH   9  12
HETATM   12  O   UNL     1       3.348 -17.590   8.461  1.00  0.00    -0.355 OA
HETATM   13  H   UNL     1       3.273 -16.707   8.011  1.00  0.00     0.214 HD
ENDBRANCH   9  12
ENDBRANCH   7   9
ENDBRANCH   1   7
BRANCH   2  14
HETATM   14  S   UNL     1      -0.101 -21.219   9.390  1.00  0.00    -0.132 SA
HETATM   15  C   UNL     1      -0.785 -22.740  10.110  1.00  0.00     0.095 C 
ENDBRANCH   2  14
TORSDOF 5
ENDMDL
MODEL 2
REMARK VINA RESULT:    -4.520     25.343     26.742
REMARK INTER + INTRA:          -5.997
REMARK INTER:                  -5.716
REMARK INTRA:                  -0.281
REMARK UNBOUND:                -0.288
REMARK  5 active torsions:
REMARK  status: ('A' for Active; 'I' for Inactive)
REMARK    1  A    between atoms: S_2  and  C_4 
REMARK    2  A    between atoms: C_3  and  N_10 
REMARK    3  A    between atoms: C_9  and  O_12 
REMARK    4  A    between atoms: C_9  and  O_15 
REMARK    5  A    between atoms: C_9  and  N_10 
ROOT
HETATM    1  C   UNL     1      10.765   0.099  22.512  1.00  0.00     0.048 C 
HETATM    2  C   UNL     1      11.127   0.879  23.573  1.00  0.00     0.026 C 
HETATM    3  C   UNL     1      12.278   0.475  24.266  1.00  0.00     0.021 C 
HETATM    4  C   UNL     1      12.370  -1.622  23.191  1.00  0.00     0.002 C 
HETATM    5  C   UNL     1      12.716  -0.701  23.923  1.00  0.00     0.002 C 
HETATM    6  C   UNL     1      11.321  -1.188  22.381  1.00  0.00     0.030 C 
ENDROOT
BRANCH   1   7
HETATM    7  N   UNL     1       9.929   0.606  21.523  1.00  0.00    -0.341 N 
ATOM      8  HN  UNL     1      10.107   1.494  21.051  1.00  0.00     0.164 HD
BRANCH   7   9
HETATM    9  C   UNL     1       8.831  -0.194  21.228  1.00  0.00     0.367 C 
BRANCH   9  10
HETATM   10  O   UNL     1       7.683   0.364  21.782  1.00  0.00    -0.349 OA
HETATM   11  C   UNL     1       6.817   1.091  20.949  1.00  0.00     0.206 C 
ENDBRANCH   9  10
BRANCH   9  12
HETATM   12  O   UNL     1       8.628  -0.038  19.782  1.00  0.00    -0.355 OA
HETATM   13  H   UNL     1       8.894  -0.857  19.284  1.00  0.00     0.214 HD
ENDBRANCH   9  12
ENDBRANCH   7   9
ENDBRANCH   1   7
BRANCH   2  14
HETATM   14  S   UNL     1      10.170   2.287  23.933  1.00  0.00    -0.132 SA
HETATM   15  C   UNL     1      11.282   3.661  23.519  1.00  0.00     0.095 C 
ENDBRANCH   2  14
TORSDOF 5
ENDMDL
MODEL 3
REMARK VINA RESULT:    -4.459     24.087     26.107
REMARK INTER + INTRA:          -5.920
REMARK INTER:                  -5.585
REMARK INTRA:                  -0.335
REMARK UNBOUND:                -0.288
REMARK  5 active torsions:
REMARK  status: ('A' for Active; 'I' for Inactive)
REMARK    1  A    between atoms: S_2  and  C_4 
REMARK    2  A    between atoms: C_3  and  N_10 
REMARK    3  A    between atoms: C_9  and  O_12 
REMARK    4  A    between atoms: C_9  and  O_15 
REMARK    5  A    between atoms: C_9  and  N_10 
ROOT
HETATM    1  C   UNL     1      10.177   0.483  22.068  1.00  0.00     0.048 C 
HETATM    2  C   UNL     1      10.376  -0.188  23.241  1.00  0.00     0.026 C 
HETATM    3  C   UNL     1      10.555   0.611  24.380  1.00  0.00     0.021 C 
HETATM    4  C   UNL     1      10.815   2.595  23.132  1.00  0.00     0.002 C 
HETATM    5  C   UNL     1      10.711   1.875  24.120  1.00  0.00     0.002 C 
HETATM    6  C   UNL     1      10.490   1.854  21.996  1.00  0.00     0.030 C 
ENDROOT
BRANCH   1   7
HETATM    7  N   UNL     1       9.586  -0.159  20.985  1.00  0.00    -0.341 N 
ATOM      8  HN  UNL     1      10.066  -0.875  20.439  1.00  0.00     0.164 HD
BRANCH   7   9
HETATM    9  C   UNL     1       8.287   0.255  20.707  1.00  0.00     0.367 C 
BRANCH   9  10
HETATM   10  O   UNL     1       8.085   0.265  19.330  1.00  0.00    -0.349 OA
HETATM   11  C   UNL     1       6.768   0.230  18.842  1.00  0.00     0.206 C 
ENDBRANCH   9  10
BRANCH   9  12
HETATM   12  O   UNL     1       7.434  -0.846  21.173  1.00  0.00    -0.355 OA
HETATM   13  H   UNL     1       7.775  -1.728  20.866  1.00  0.00     0.214 HD
ENDBRANCH   9  12
ENDBRANCH   7   9
ENDBRANCH   1   7
BRANCH   2  14
HETATM   14  S   UNL     1      10.352  -1.928  23.216  1.00  0.00    -0.132 SA
HETATM   15  C   UNL     1       8.827  -2.334  24.113  1.00  0.00     0.095 C 
ENDBRANCH   2  14
TORSDOF 5
ENDMDL
MODEL 4
REMARK VINA RESULT:    -4.298     24.395     25.597
REMARK INTER + INTRA:          -5.717
REMARK INTER:                  -5.346
REMARK INTRA:                  -0.371
REMARK UNBOUND:                -0.288
REMARK  5 active torsions:
REMARK  status: ('A' for Active; 'I' for Inactive)
REMARK    1  A    between atoms: S_2  and  C_4 
REMARK    2  A    between atoms: C_3  and  N_10 
REMARK    3  A    between atoms: C_9  and  O_12 
REMARK    4  A    between atoms: C_9  and  O_15 
REMARK    5  A    between atoms: C_9  and  N_10 
ROOT
HETATM    1  C   UNL     1       6.944   0.618  20.302  1.00  0.00     0.048 C 
HETATM    2  C   UNL     1       6.065   1.516  20.839  1.00  0.00     0.026 C 
HETATM    3  C   UNL     1       4.997   1.896  20.012  1.00  0.00     0.021 C 
HETATM    4  C   UNL     1       5.942   0.916  18.087  1.00  0.00     0.002 C 
HETATM    5  C   UNL     1       5.113   1.495  18.781  1.00  0.00     0.002 C 
HETATM    6  C   UNL     1       6.939   0.395  18.912  1.00  0.00     0.030 C 
ENDROOT
BRANCH   1   7
HETATM    7  N   UNL     1       7.770  -0.134  21.131  1.00  0.00    -0.341 N 
ATOM      8  HN  UNL     1       7.414  -0.683  21.913  1.00  0.00     0.164 HD
BRANCH   7   9
HETATM    9  C   UNL     1       9.121  -0.076  20.806  1.00  0.00     0.367 C 
BRANCH   9  10
HETATM   10  O   UNL     1       9.675   1.094  21.317  1.00  0.00    -0.349 OA
HETATM   11  C   UNL     1      10.554   1.003  22.408  1.00  0.00     0.206 C 
ENDBRANCH   9  10
BRANCH   9  12
HETATM   12  O   UNL     1       9.747  -1.135  21.610  1.00  0.00    -0.355 OA
HETATM   13  H   UNL     1      10.443  -1.622  21.093  1.00  0.00     0.214 HD
ENDBRANCH   9  12
ENDBRANCH   7   9
ENDBRANCH   1   7
BRANCH   2  14
HETATM   14  S   UNL     1       6.329   2.062  22.470  1.00  0.00    -0.132 SA
HETATM   15  C   UNL     1       7.344   3.551  22.249  1.00  0.00     0.095 C 
ENDBRANCH   2  14
TORSDOF 5
ENDMDL
MODEL 5
REMARK VINA RESULT:    -4.296     23.043     24.861
REMARK INTER + INTRA:          -5.714
REMARK INTER:                  -5.432
REMARK INTRA:                  -0.282
REMARK UNBOUND:                -0.288
REMARK  5 active torsions:
REMARK  status: ('A' for Active; 'I' for Inactive)
REMARK    1  A    between atoms: S_2  and  C_4 
REMARK    2  A    between atoms: C_3  and  N_10 
REMARK    3  A    between atoms: C_9  and  O_12 
REMARK    4  A    between atoms: C_9  and  O_15 
REMARK    5  A    between atoms: C_9  and  N_10 
ROOT
HETATM    1  C   UNL     1       9.062  -1.339  21.891  1.00  0.00     0.048 C 
HETATM    2  C   UNL     1       7.887  -1.882  22.328  1.00  0.00     0.026 C 
HETATM    3  C   UNL     1       6.732  -1.470  21.646  1.00  0.00     0.021 C 
HETATM    4  C   UNL     1       7.840   0.279  20.517  1.00  0.00     0.002 C 
HETATM    5  C   UNL     1       6.925  -0.476  20.831  1.00  0.00     0.002 C 
HETATM    6  C   UNL     1       9.030  -0.201  21.063  1.00  0.00     0.030 C 
ENDROOT
BRANCH   1   7
HETATM    7  N   UNL     1      10.272  -1.960  22.185  1.00  0.00    -0.341 N 
ATOM      8  HN  UNL     1      10.400  -2.971  22.135  1.00  0.00     0.164 HD
BRANCH   7   9
HETATM    9  C   UNL     1      11.292  -1.090  22.554  1.00  0.00     0.367 C 
BRANCH   9  10
HETATM   10  O   UNL     1      11.141  -0.731  23.890  1.00  0.00    -0.349 OA
HETATM   11  C   UNL     1      12.185  -0.040  24.526  1.00  0.00     0.206 C 
ENDBRANCH   9  10
BRANCH   9  12
HETATM   12  O   UNL     1      12.508  -1.914  22.554  1.00  0.00    -0.355 OA
HETATM   13  H   UNL     1      13.311  -1.381  22.310  1.00  0.00     0.214 HD
ENDBRANCH   9  12
ENDBRANCH   7   9
ENDBRANCH   1   7
BRANCH   2  14
HETATM   14  S   UNL     1       7.938  -3.030  23.635  1.00  0.00    -0.132 SA
HETATM   15  C   UNL     1       7.347  -4.563  22.862  1.00  0.00     0.095 C 
ENDBRANCH   2  14
TORSDOF 5
ENDMDL
MODEL 6
REMARK VINA RESULT:    -4.239     22.236     24.166
REMARK INTER + INTRA:          -5.642
REMARK INTER:                  -5.305
REMARK INTRA:                  -0.337
REMARK UNBOUND:                -0.288
REMARK  5 active torsions:
REMARK  status: ('A' for Active; 'I' for Inactive)
REMARK    1  A    between atoms: S_2  and  C_4 
REMARK    2  A    between atoms: C_3  and  N_10 
REMARK    3  A    between atoms: C_9  and  O_12 
REMARK    4  A    between atoms: C_9  and  O_15 
REMARK    5  A    between atoms: C_9  and  N_10 
ROOT
HETATM    1  C   UNL     1       8.217  -4.100  25.171  1.00  0.00     0.048 C 
HETATM    2  C   UNL     1       8.046  -3.999  23.819  1.00  0.00     0.026 C 
HETATM    3  C   UNL     1       8.545  -2.831  23.224  1.00  0.00     0.021 C 
HETATM    4  C   UNL     1       8.895  -1.749  25.290  1.00  0.00     0.002 C 
HETATM    5  C   UNL     1       8.914  -1.920  24.075  1.00  0.00     0.002 C 
HETATM    6  C   UNL     1       8.548  -2.949  25.911  1.00  0.00     0.030 C 
ENDROOT
BRANCH   1   7
HETATM    7  N   UNL     1       8.155  -5.341  25.795  1.00  0.00    -0.341 N 
ATOM      8  HN  UNL     1       8.752  -6.124  25.526  1.00  0.00     0.164 HD
BRANCH   7   9
HETATM    9  C   UNL     1       7.214  -5.428  26.815  1.00  0.00     0.367 C 
BRANCH   9  10
HETATM   10  O   UNL     1       6.248  -6.372  26.480  1.00  0.00    -0.349 OA
HETATM   11  C   UNL     1       5.183  -6.592  27.369  1.00  0.00     0.206 C 
ENDBRANCH   9  10
BRANCH   9  12
HETATM   12  O   UNL     1       7.931  -6.052  27.936  1.00  0.00    -0.355 OA
HETATM   13  H   UNL     1       7.587  -5.732  28.812  1.00  0.00     0.214 HD
ENDBRANCH   9  12
ENDBRANCH   7   9
ENDBRANCH   1   7
BRANCH   2  14
HETATM   14  S   UNL     1       7.276  -5.315  22.981  1.00  0.00    -0.132 SA
HETATM   15  C   UNL     1       5.509  -5.005  23.258  1.00  0.00     0.095 C 
ENDBRANCH   2  14
TORSDOF 5
ENDMDL
MODEL 7
REMARK VINA RESULT:    -4.200     24.115     24.991
REMARK INTER + INTRA:          -5.592
REMARK INTER:                  -5.305
REMARK INTRA:                  -0.287
REMARK UNBOUND:                -0.288
REMARK  5 active torsions:
REMARK  status: ('A' for Active; 'I' for Inactive)
REMARK    1  A    between atoms: S_2  and  C_4 
REMARK    2  A    between atoms: C_3  and  N_10 
REMARK    3  A    between atoms: C_9  and  O_12 
REMARK    4  A    between atoms: C_9  and  O_15 
REMARK    5  A    between atoms: C_9  and  N_10 
ROOT
HETATM    1  C   UNL     1       8.585  -1.479  22.222  1.00  0.00     0.048 C 
HETATM    2  C   UNL     1       9.483  -2.062  23.071  1.00  0.00     0.026 C 
HETATM    3  C   UNL     1       8.966  -3.047  23.926  1.00  0.00     0.021 C 
HETATM    4  C   UNL     1       6.723  -2.509  23.435  1.00  0.00     0.002 C 
HETATM    5  C   UNL     1       7.668  -3.116  23.930  1.00  0.00     0.002 C 
HETATM    6  C   UNL     1       7.207  -1.629  22.467  1.00  0.00     0.030 C 
ENDROOT
BRANCH   1   7
HETATM    7  N   UNL     1       9.027  -0.824  21.078  1.00  0.00    -0.341 N 
ATOM      8  HN  UNL     1       9.933  -1.014  20.647  1.00  0.00     0.164 HD
BRANCH   7   9
HETATM    9  C   UNL     1       8.134   0.113  20.568  1.00  0.00     0.367 C 
BRANCH   9  10
HETATM   10  O   UNL     1       8.603   1.397  20.829  1.00  0.00    -0.349 OA
HETATM   11  C   UNL     1       7.938   2.175  21.791  1.00  0.00     0.206 C 
ENDBRANCH   9  10
BRANCH   9  12
HETATM   12  O   UNL     1       8.255  -0.008  19.108  1.00  0.00    -0.355 OA
HETATM   13  H   UNL     1       8.668   0.803  18.707  1.00  0.00     0.214 HD
ENDBRANCH   9  12
ENDBRANCH   7   9
ENDBRANCH   1   7
BRANCH   2  14
HETATM   14  S   UNL     1      11.148  -1.565  22.987  1.00  0.00    -0.132 SA
HETATM   15  C   UNL     1      11.301  -0.394  24.365  1.00  0.00     0.095 C 
ENDBRANCH   2  14
TORSDOF 5
ENDMDL
MODEL 8
REMARK VINA RESULT:    -4.192     31.443     32.615
REMARK INTER + INTRA:          -5.583
REMARK INTER:                  -5.249
REMARK INTRA:                  -0.334
REMARK UNBOUND:                -0.288
REMARK  5 active torsions:
REMARK  status: ('A' for Active; 'I' for Inactive)
REMARK    1  A    between atoms: S_2  and  C_4 
REMARK    2  A    between atoms: C_3  and  N_10 
REMARK    3  A    between atoms: C_9  and  O_12 
REMARK    4  A    between atoms: C_9  and  O_15 
REMARK    5  A    between atoms: C_9  and  N_10 
ROOT
HETATM    1  C   UNL     1      22.792  -2.472  25.263  1.00  0.00     0.048 C 
HETATM    2  C   UNL     1      23.001  -1.607  26.300  1.00  0.00     0.026 C 
HETATM    3  C   UNL     1      21.901  -0.820  26.672  1.00  0.00     0.021 C 
HETATM    4  C   UNL     1      20.653  -1.391  24.754  1.00  0.00     0.002 C 
HETATM    5  C   UNL     1      20.903  -0.880  25.840  1.00  0.00     0.002 C 
HETATM    6  C   UNL     1      21.666  -2.298  24.437  1.00  0.00     0.030 C 
ENDROOT
BRANCH   1   7
HETATM    7  N   UNL     1      23.632  -3.565  25.082  1.00  0.00    -0.341 N 
ATOM      8  HN  UNL     1      24.627  -3.469  24.876  1.00  0.00     0.164 HD
BRANCH   7   9
HETATM    9  C   UNL     1      23.006  -4.801  25.205  1.00  0.00     0.367 C 
BRANCH   9  10
HETATM   10  O   UNL     1      23.752  -5.771  24.543  1.00  0.00    -0.349 OA
HETATM   11  C   UNL     1      24.256  -6.855  25.280  1.00  0.00     0.206 C 
ENDBRANCH   9  10
BRANCH   9  12
HETATM   12  O   UNL     1      23.156  -5.158  26.623  1.00  0.00    -0.355 OA
HETATM   13  H   UNL     1      23.275  -4.352  27.192  1.00  0.00     0.214 HD
ENDBRANCH   9  12
ENDBRANCH   7   9
ENDBRANCH   1   7
BRANCH   2  14
HETATM   14  S   UNL     1      24.563  -1.593  27.066  1.00  0.00    -0.132 SA
HETATM   15  C   UNL     1      24.264  -2.460  28.634  1.00  0.00     0.095 C 
ENDBRANCH   2  14
TORSDOF 5
ENDMDL
