REMARK  5 active torsions:
REMARK  status: ('A' for Active; 'I' for Inactive)
REMARK    1  A    between atoms: S_2  and  C_4 
REMARK    2  A    between atoms: C_3  and  N_10 
REMARK    3  A    between atoms: C_9  and  O_12 
REMARK    4  A    between atoms: C_9  and  O_15 
REMARK    5  A    between atoms: C_9  and  N_10 
ROOT
HETATM    1  C   UNL     1       9.203  -1.379  22.800  1.00  0.00     0.048 C 
HETATM    2  C   UNL     1       9.069  -1.680  24.126  1.00  0.00     0.026 C 
HETATM    3  C   UNL     1      10.161  -1.349  24.942  1.00  0.00     0.021 C 
HETATM    4  C   UNL     1      11.588  -0.917  23.115  1.00  0.00     0.002 C 
HETATM    5  C   UNL     1      11.224  -0.992  24.284  1.00  0.00     0.002 C 
HETATM    6  C   UNL     1      10.481  -1.092  22.284  1.00  0.00     0.030 C 
ENDROOT
BRANCH   1   7
HETATM    7  N   UNL     1       8.078  -1.267  21.990  1.00  0.00    -0.341 N 
ATOM      8  HN  UNL     1       7.300  -1.926  22.032  1.00  0.00     0.164 HD
BRANCH   7   9
HETATM    9  C   UNL     1       8.100  -0.184  21.118  1.00  0.00     0.367 C 
BRANCH   9  10
HETATM   10  O   UNL     1       7.548  -0.556  19.896  1.00  0.00    -0.349 OA
HETATM   11  C   UNL     1       7.051   0.446  19.047  1.00  0.00     0.206 C 
ENDBRANCH   9  10
BRANCH   9  12
HETATM   12  O   UNL     1       7.118   0.761  21.667  1.00  0.00    -0.355 OA
HETATM   13  H   UNL     1       6.263   0.735  21.160  1.00  0.00     0.214 HD
ENDBRANCH   9  12
ENDBRANCH   7   9
ENDBRANCH   1   7
BRANCH   2  14
HETATM   14  S   UNL     1       7.578  -2.395  24.668  1.00  0.00    -0.132 SA
HETATM   15  C   UNL     1       8.131  -3.867  25.576  1.00  0.00     0.095 C 
ENDBRANCH   2  14
TORSDOF 5
