stable:False satoms:9 tatoms:24 sratio:0.375
  -OEChem-08062411413D

 31 34  0     1  0  0  0  0  0999 V2000
    6.9024   -5.4117   26.3237 Cl  0  0  0  0  0  0  0  0  0  0  0  0
    8.5888   -4.7630   26.0985 S   0  0  0  0  0  0  0  0  0  0  0  0
    9.5003   -5.8484   25.9298 O   0  0  0  0  0  0  0  0  0  0  0  0
    8.8436   -3.9347   27.2113 O   0  0  0  0  0  0  0  0  0  0  0  0
    8.5219   -3.8984   24.7092 N   0  0  0  0  0  0  0  0  0  0  0  0
    9.2465   -3.1316   24.2848 C   0  0  0  0  0  0  0  0  0  0  0  0
    9.7770   -2.1258   23.6754 C   0  0  0  0  0  0  0  0  0  0  0  0
   10.9135   -1.3806   23.5132 C   0  0  1  0  0  0  0  0  0  0  0  0
   11.4291   -0.4940   24.5895 C   0  0  0  0  0  0  0  0  0  0  0  0
   12.4810   -0.1905   24.5658 C   0  0  0  0  0  0  0  0  0  0  0  0
   13.5067   -0.4639   23.8492 N   0  0  0  0  0  0  0  0  0  0  0  0
   13.0757   -1.2253   23.2461 C   0  0  0  0  0  0  0  0  0  0  0  0
   12.1250   -1.8954   22.9265 C   0  0  0  0  0  0  0  0  0  0  0  0
    9.9100   -1.0779   22.7666 C   0  0  3  0  0  0  0  0  0  0  0  0
    9.3803   -0.1967   21.6775 C   0  0  0  0  0  0  0  0  0  0  0  0
    9.9485    0.7792   21.3126 O   0  0  0  0  0  0  0  0  0  0  0  0
    8.2826   -0.7800   21.2707 N   0  0  0  0  0  0  0  0  0  0  0  0
    7.5705   -0.3007   20.3231 C   0  0  0  0  0  0  0  0  0  0  0  0
    8.2388   -0.3430   18.6824 S   0  0  0  0  0  0  0  0  0  0  0  0
    7.0909    0.2511   18.0586 N   0  0  0  0  0  0  0  0  0  0  0  0
    5.3091    0.8738   18.4454 H   0  0  0  0  0  0  0  0  0  0  0  0
    5.9949    0.5169   19.0945 C   0  0  0  0  0  0  0  0  0  0  0  0
    6.3152    0.2365   20.3632 C   0  0  0  0  0  0  0  0  0  0  0  0
    5.7433    0.3800   21.3353 H   0  0  0  0  0  0  0  0  0  0  0  0
    7.6549   -3.4041   24.7724 H   0  0  0  0  0  0  0  0  0  0  0  0
   10.1561   -3.5555   24.6840 H   0  0  0  0  0  0  0  0  0  0  0  0
   10.7773   -0.1550   25.3812 H   0  0  0  0  0  0  0  0  0  0  0  0
   12.0279   -1.8837   21.8308 H   0  0  0  0  0  0  0  0  0  0  0  0
   12.2807   -2.9288   23.2698 H   0  0  0  0  0  0  0  0  0  0  0  0
    9.5516   -0.3663   23.5249 H   0  0  0  0  0  0  0  0  0  0  0  0
    7.9912   -1.6273   21.7146 H   0  0  0  0  0  0  0  0  0  0  0  0
 19 20  1  0  0  0  0
 20 22  2  0  0  0  0
 21 22  1  0  0  0  0
 18 19  1  0  0  0  0
 22 23  1  0  0  0  0
 18 23  2  0  0  0  0
 17 18  1  0  0  0  0
 23 24  1  0  0  0  0
 15 16  2  0  0  0  0
 15 17  1  0  0  0  0
 14 15  1  0  0  0  0
  8 14  1  0  0  0  0
  7 14  1  0  0  0  0
 12 13  1  0  0  0  0
  8 13  1  0  0  0  0
 11 12  2  0  0  0  0
 10 12  1  0  0  0  0
  7  8  1  0  0  0  0
  8  9  1  0  0  0  0
 10 11  1  0  0  0  0
  6  7  2  0  0  0  0
  9 10  2  0  0  0  0
  5  6  1  0  0  0  0
  2  5  1  0  0  0  0
  2  3  2  0  0  0  0
  1  2  1  0  0  0  0
  2  4  2  0  0  0  0
  5 25  1  0  0  0  0
  6 26  1  0  0  0  0
  9 27  1  0  0  0  0
 13 28  1  0  0  0  0
 13 29  1  0  0  0  0
 14 30  1  0  0  0  0
 17 31  1  0  0  0  0
M  END
> <Chemgauss4>
-9.462078

$$$$
