stable:False satoms:9 tatoms:24 sratio:0.375
  -OEChem-08062411413D

 31 34  0     1  0  0  0  0  0999 V2000
   -6.5496   -5.3084  -26.2894 Cl  0  0  0  0  0  0  0  0  0  0  0  0
   -8.2559   -4.7059  -26.0862 S   0  0  0  0  0  0  0  0  0  0  0  0
   -9.1398   -5.8158  -25.9306 O   0  0  0  0  0  0  0  0  0  0  0  0
   -8.5181   -3.8835  -27.2016 O   0  0  0  0  0  0  0  0  0  0  0  0
   -8.2310   -3.8416  -24.6954 N   0  0  0  0  0  0  0  0  0  0  0  0
   -8.9816   -3.0952  -24.2801 C   0  0  0  0  0  0  0  0  0  0  0  0
   -9.5474   -2.1049  -23.6769 C   0  0  0  0  0  0  0  0  0  0  0  0
  -10.7057   -1.3909  -23.5293 C   0  0  1  0  0  0  0  0  0  0  0  0
  -11.2306   -0.5172  -24.6116 C   0  0  0  0  0  0  0  0  0  0  0  0
  -12.2906   -0.2423  -24.6017 C   0  0  0  0  0  0  0  0  0  0  0  0
  -13.3180   -0.5443  -23.8992 N   0  0  0  0  0  0  0  0  0  0  0  0
  -12.8746   -1.2945  -23.2910 C   0  0  0  0  0  0  0  0  0  0  0  0
  -11.9105   -1.9390  -22.9593 C   0  0  0  0  0  0  0  0  0  0  0  0
   -9.7207   -1.0621  -22.7690 C   0  0  3  0  0  0  0  0  0  0  0  0
   -9.2297   -0.1682  -21.6722 C   0  0  0  0  0  0  0  0  0  0  0  0
   -9.8290    0.7915  -21.3140 O   0  0  0  0  0  0  0  0  0  0  0  0
   -8.1222   -0.7221  -21.2512 N   0  0  0  0  0  0  0  0  0  0  0  0
   -7.4361   -0.2249  -20.2938 C   0  0  0  0  0  0  0  0  0  0  0  0
   -8.1249   -0.2873  -18.6622 S   0  0  0  0  0  0  0  0  0  0  0  0
   -7.0018    0.3369  -18.0225 N   0  0  0  0  0  0  0  0  0  0  0  0
   -5.2326    1.0081  -18.3849 H   0  0  0  0  0  0  0  0  0  0  0  0
   -5.8997    0.6336  -19.0434 C   0  0  0  0  0  0  0  0  0  0  0  0
   -6.1953    0.3462  -20.3166 C   0  0  0  0  0  0  0  0  0  0  0  0
   -5.6146    0.5063  -21.2808 H   0  0  0  0  0  0  0  0  0  0  0  0
   -7.3769   -3.3239  -24.7465 H   0  0  0  0  0  0  0  0  0  0  0  0
   -9.8741   -3.5430  -24.6917 H   0  0  0  0  0  0  0  0  0  0  0  0
  -10.5778   -0.1597  -25.3942 H   0  0  0  0  0  0  0  0  0  0  0  0
  -11.8284   -1.9261  -21.8624 H   0  0  0  0  0  0  0  0  0  0  0  0
  -12.0336   -2.9758  -23.3056 H   0  0  0  0  0  0  0  0  0  0  0  0
   -9.3716   -0.3400  -23.5219 H   0  0  0  0  0  0  0  0  0  0  0  0
   -7.8020   -1.5607  -21.6919 H   0  0  0  0  0  0  0  0  0  0  0  0
 19 20  1  0  0  0  0
 20 22  2  0  0  0  0
 21 22  1  0  0  0  0
 18 19  1  0  0  0  0
 22 23  1  0  0  0  0
 18 23  2  0  0  0  0
 17 18  1  0  0  0  0
 23 24  1  0  0  0  0
 15 16  2  0  0  0  0
 15 17  1  0  0  0  0
 14 15  1  0  0  0  0
  8 14  1  0  0  0  0
  7 14  1  0  0  0  0
 12 13  1  0  0  0  0
  8 13  1  0  0  0  0
 11 12  2  0  0  0  0
 10 12  1  0  0  0  0
  7  8  1  0  0  0  0
  8  9  1  0  0  0  0
 10 11  1  0  0  0  0
  6  7  2  0  0  0  0
  9 10  2  0  0  0  0
  5  6  1  0  0  0  0
  2  5  1  0  0  0  0
  2  3  2  0  0  0  0
  1  2  1  0  0  0  0
  2  4  2  0  0  0  0
  5 25  1  0  0  0  0
  6 26  1  0  0  0  0
  9 27  1  0  0  0  0
 13 28  1  0  0  0  0
 13 29  1  0  0  0  0
 14 30  1  0  0  0  0
 17 31  1  0  0  0  0
M  END
> <Chemgauss4>
-9.765362

$$$$
