stable:False satoms:10 tatoms:24 sratio:0.4166666666666667
  -OEChem-08062415473D

 45 46  0     1  0  0  0  0  0999 V2000
    6.0590   -5.1320   25.9078 C   0  0  0  0  0  0  0  0  0  0  0  0
    7.7036   -4.5861   25.7933 S   0  0  0  0  0  0  0  0  0  0  0  0
    8.5419   -5.7781   25.7861 O   0  0  0  0  0  0  0  0  0  0  0  0
    7.9872   -3.7718   26.9383 O   0  0  0  0  0  0  0  0  0  0  0  0
    7.7872   -3.7444   24.4404 N   0  0  0  0  0  0  0  0  0  0  0  0
    8.7606   -3.0886   24.0144 C   0  0  0  0  0  0  0  0  0  0  0  0
    9.2812   -2.1226   23.4813 C   0  0  0  0  0  0  0  0  0  0  0  0
   10.2432   -1.2470   23.4633 C   0  0  1  0  0  0  0  0  0  0  0  0
   10.8265   -0.2024   24.6269 C   0  0  0  0  0  0  0  0  0  0  0  0
   11.8194    0.0773   24.7732 C   0  0  0  0  0  0  0  0  0  0  0  0
   13.0551   -0.4122   24.0494 C   0  0  0  0  0  0  0  0  0  0  0  0
   12.6803   -1.4040   23.1502 C   0  0  0  0  0  0  0  0  0  0  0  0
   11.7376   -1.8455   22.8866 C   0  0  0  0  0  0  0  0  0  0  0  0
    9.7447   -0.6215   22.5232 C   0  0  0  0  0  0  0  0  0  0  0  0
    9.2280    0.0717   21.5273 C   0  0  0  0  0  0  0  0  0  0  0  0
    9.7443    1.0520   21.2471 O   0  0  0  0  0  0  0  0  0  0  0  0
    8.1242   -0.5008   21.0398 N   0  0  0  0  0  0  0  0  0  0  0  0
    7.5529    0.0251   20.0550 C   0  0  0  0  0  0  0  0  0  0  0  0
    7.7217    0.2204   18.7824 C   0  0  0  0  0  0  0  0  0  0  0  0
    7.3492    0.6219   17.6746 N   0  0  0  0  0  0  0  0  0  0  0  0
    6.2045    1.1730   18.0551 C   0  0  0  0  0  0  0  0  0  0  0  0
    5.6655    1.2164   19.1725 C   0  0  0  0  0  0  0  0  0  0  0  0
    6.0925    0.7152   20.3408 C   0  0  0  0  0  0  0  0  0  0  0  0
    5.4620    0.7444   21.6271 C   0  0  0  0  0  0  0  0  0  0  0  0
    5.9316   -5.7238   26.8262 H   0  0  0  0  0  0  0  0  0  0  0  0
    5.3854   -4.2628   25.9355 H   0  0  0  0  0  0  0  0  0  0  0  0
    5.8179   -5.7550   25.0339 H   0  0  0  0  0  0  0  0  0  0  0  0
    7.0408   -3.0820   24.5047 H   0  0  0  0  0  0  0  0  0  0  0  0
    9.6028   -3.7249   24.2429 H   0  0  0  0  0  0  0  0  0  0  0  0
    8.6549   -1.8847   22.6342 H   0  0  0  0  0  0  0  0  0  0  0  0
   10.0987    0.2287   25.2983 H   0  0  0  0  0  0  0  0  0  0  0  0
   11.9894    0.8146   25.5438 H   0  0  0  0  0  0  0  0  0  0  0  0
   14.0609   -0.0510   24.2054 H   0  0  0  0  0  0  0  0  0  0  0  0
   13.5130   -1.8179   22.6009 H   0  0  0  0  0  0  0  0  0  0  0  0
   11.6787   -1.8047   21.7890 H   0  0  0  0  0  0  0  0  0  0  0  0
   11.7912   -2.8948   23.2122 H   0  0  0  0  0  0  0  0  0  0  0  0
    8.7355   -0.8787   22.8775 H   0  0  0  0  0  0  0  0  0  0  0  0
   10.0925   -1.3903   21.8175 H   0  0  0  0  0  0  0  0  0  0  0  0
    7.7594   -1.3350   21.4532 H   0  0  0  0  0  0  0  0  0  0  0  0
    8.7070   -0.1784   18.5914 H   0  0  0  0  0  0  0  0  0  0  0  0
    5.6528    1.6626   17.2663 H   0  0  0  0  0  0  0  0  0  0  0  0
    4.7169    1.7314   19.2090 H   0  0  0  0  0  0  0  0  0  0  0  0
    4.8303   -0.1481   21.7468 H   0  0  0  0  0  0  0  0  0  0  0  0
    6.2320    0.7565   22.4125 H   0  0  0  0  0  0  0  0  0  0  0  0
    4.8397    1.6477   21.7098 H   0  0  0  0  0  0  0  0  0  0  0  0
 20 21  2  0  0  0  0
 19 20  1  0  0  0  0
 21 22  1  0  0  0  0
 18 19  2  0  0  0  0
 22 23  2  0  0  0  0
 18 23  1  0  0  0  0
 17 18  1  0  0  0  0
 23 24  1  0  0  0  0
 15 16  2  0  0  0  0
 15 17  1  0  0  0  0
 14 15  1  0  0  0  0
  8 14  1  0  0  0  0
 12 13  1  0  0  0  0
  8 13  1  0  0  0  0
 11 12  2  0  0  0  0
  7  8  1  0  0  0  0
  8  9  1  0  0  0  0
 10 11  1  0  0  0  0
  6  7  2  3  0  0  0
  5  6  1  0  0  0  0
  9 10  2  0  0  0  0
  2  5  1  0  0  0  0
  2  3  2  0  0  0  0
  1  2  1  0  0  0  0
  2  4  2  0  0  0  0
  1 25  1  0  0  0  0
  1 26  1  0  0  0  0
  1 27  1  0  0  0  0
  5 28  1  0  0  0  0
  6 29  1  0  0  0  0
  7 30  1  0  0  0  0
  9 31  1  0  0  0  0
 10 32  1  0  0  0  0
 11 33  1  0  0  0  0
 12 34  1  0  0  0  0
 13 35  1  0  0  0  0
 13 36  1  0  0  0  0
 14 37  1  0  0  0  0
 14 38  1  0  0  0  0
 17 39  1  0  0  0  0
 19 40  1  0  0  0  0
 21 41  1  0  0  0  0
 22 42  1  0  0  0  0
 24 43  1  0  0  0  0
 24 44  1  0  0  0  0
 24 45  1  0  0  0  0
M  END
> <Chemgauss4>
-12.971304

$$$$
