stable:False satoms:10 tatoms:24 sratio:0.4166666666666667
  -OEChem-08062415473D

 45 46  0     1  0  0  0  0  0999 V2000
   -5.9900   -5.3538  -25.9652 C   0  0  0  0  0  0  0  0  0  0  0  0
   -7.6296   -4.7950  -25.8410 S   0  0  0  0  0  0  0  0  0  0  0  0
   -8.4756   -5.9810  -25.8036 O   0  0  0  0  0  0  0  0  0  0  0  0
   -7.9213   -3.9984  -26.9964 O   0  0  0  0  0  0  0  0  0  0  0  0
   -7.6918   -3.9298  -24.5018 N   0  0  0  0  0  0  0  0  0  0  0  0
   -8.6558   -3.2603  -24.0757 C   0  0  0  0  0  0  0  0  0  0  0  0
   -9.1637   -2.2819  -23.5532 C   0  0  0  0  0  0  0  0  0  0  0  0
  -10.1198   -1.3997  -23.5389 C   0  0  1  0  0  0  0  0  0  0  0  0
  -10.7099   -0.3711  -24.7133 C   0  0  0  0  0  0  0  0  0  0  0  0
  -11.7026   -0.0873  -24.8528 C   0  0  0  0  0  0  0  0  0  0  0  0
  -12.9329   -0.5560  -24.1064 C   0  0  0  0  0  0  0  0  0  0  0  0
  -12.5540   -1.5350  -23.1949 C   0  0  0  0  0  0  0  0  0  0  0  0
  -11.6111   -1.9782  -22.9348 C   0  0  0  0  0  0  0  0  0  0  0  0
   -9.6061   -0.7617  -22.6156 C   0  0  0  0  0  0  0  0  0  0  0  0
   -9.0733   -0.0551  -21.6377 C   0  0  0  0  0  0  0  0  0  0  0  0
   -9.5798    0.9333  -21.3683 O   0  0  0  0  0  0  0  0  0  0  0  0
   -7.9676   -0.6266  -21.1534 N   0  0  0  0  0  0  0  0  0  0  0  0
   -7.3814   -0.0880  -20.1845 C   0  0  0  0  0  0  0  0  0  0  0  0
   -7.5338    0.1301  -18.9135 C   0  0  0  0  0  0  0  0  0  0  0  0
   -7.1458    0.5479  -17.8171 N   0  0  0  0  0  0  0  0  0  0  0  0
   -6.0021    1.0847  -18.2203 C   0  0  0  0  0  0  0  0  0  0  0  0
   -5.4760    1.1054  -19.3445 C   0  0  0  0  0  0  0  0  0  0  0  0
   -5.9199    0.5873  -20.4989 C   0  0  0  0  0  0  0  0  0  0  0  0
   -5.3044    0.5904  -21.7928 C   0  0  0  0  0  0  0  0  0  0  0  0
   -5.8774   -5.9620  -26.8748 H   0  0  0  0  0  0  0  0  0  0  0  0
   -5.3111   -4.4897  -26.0156 H   0  0  0  0  0  0  0  0  0  0  0  0
   -5.7428   -5.9635  -25.0837 H   0  0  0  0  0  0  0  0  0  0  0  0
   -6.9419   -3.2737  -24.5860 H   0  0  0  0  0  0  0  0  0  0  0  0
   -9.5048   -3.8947  -24.2835 H   0  0  0  0  0  0  0  0  0  0  0  0
   -8.5260   -2.0338  -22.7176 H   0  0  0  0  0  0  0  0  0  0  0  0
   -9.9872    0.0435  -25.4005 H   0  0  0  0  0  0  0  0  0  0  0  0
  -11.8768    0.6380  -25.6339 H   0  0  0  0  0  0  0  0  0  0  0  0
  -13.9380   -0.1908  -24.2569 H   0  0  0  0  0  0  0  0  0  0  0  0
  -13.3829   -1.9338  -22.6290 H   0  0  0  0  0  0  0  0  0  0  0  0
  -11.5391   -1.9191  -21.8387 H   0  0  0  0  0  0  0  0  0  0  0  0
  -11.6755   -3.0326  -23.2417 H   0  0  0  0  0  0  0  0  0  0  0  0
   -8.6030   -1.0317  -22.9772 H   0  0  0  0  0  0  0  0  0  0  0  0
   -9.9507   -1.5160  -21.8928 H   0  0  0  0  0  0  0  0  0  0  0  0
   -7.6131   -1.4702  -21.5567 H   0  0  0  0  0  0  0  0  0  0  0  0
   -8.5195   -0.2587  -18.7042 H   0  0  0  0  0  0  0  0  0  0  0  0
   -5.4379    1.5839  -17.4464 H   0  0  0  0  0  0  0  0  0  0  0  0
   -4.5245    1.6134  -19.4008 H   0  0  0  0  0  0  0  0  0  0  0  0
   -4.6800   -0.3082  -21.9045 H   0  0  0  0  0  0  0  0  0  0  0  0
   -6.0835    0.5943  -22.5693 H   0  0  0  0  0  0  0  0  0  0  0  0
   -4.6772    1.4880  -21.8981 H   0  0  0  0  0  0  0  0  0  0  0  0
 20 21  2  0  0  0  0
 19 20  1  0  0  0  0
 21 22  1  0  0  0  0
 18 19  2  0  0  0  0
 22 23  2  0  0  0  0
 18 23  1  0  0  0  0
 17 18  1  0  0  0  0
 23 24  1  0  0  0  0
 15 16  2  0  0  0  0
 15 17  1  0  0  0  0
 14 15  1  0  0  0  0
  8 14  1  0  0  0  0
 12 13  1  0  0  0  0
  8 13  1  0  0  0  0
 11 12  2  0  0  0  0
  7  8  1  0  0  0  0
  8  9  1  0  0  0  0
 10 11  1  0  0  0  0
  6  7  2  3  0  0  0
  5  6  1  0  0  0  0
  9 10  2  0  0  0  0
  2  5  1  0  0  0  0
  2  3  2  0  0  0  0
  1  2  1  0  0  0  0
  2  4  2  0  0  0  0
  1 25  1  0  0  0  0
  1 26  1  0  0  0  0
  1 27  1  0  0  0  0
  5 28  1  0  0  0  0
  6 29  1  0  0  0  0
  7 30  1  0  0  0  0
  9 31  1  0  0  0  0
 10 32  1  0  0  0  0
 11 33  1  0  0  0  0
 12 34  1  0  0  0  0
 13 35  1  0  0  0  0
 13 36  1  0  0  0  0
 14 37  1  0  0  0  0
 14 38  1  0  0  0  0
 17 39  1  0  0  0  0
 19 40  1  0  0  0  0
 21 41  1  0  0  0  0
 22 42  1  0  0  0  0
 24 43  1  0  0  0  0
 24 44  1  0  0  0  0
 24 45  1  0  0  0  0
M  END
> <Chemgauss4>
-12.943934

$$$$
