stable:False satoms:20 tatoms:24 sratio:0.8333333333333334
  -OEChem-08052419263D

 23 24  0     0  0  0  0  0  0999 V2000
    8.7173   -2.4483   24.9956 H   0  0  0  0  0  0  0  0  0  0  0  0
   11.6286   -2.1282   23.2024 C   0  0  0  0  0  0  0  0  0  0  0  0
   10.3964   -1.5604   23.3866 C   0  0  0  0  0  0  0  0  0  0  0  0
    8.3458   -3.0842   23.2592 N   0  0  0  0  0  0  0  0  0  0  0  0
    8.9228    1.6079   24.9580 C   0  0  0  0  0  0  0  0  0  0  0  0
    8.1648   -3.1281   24.5133 N   0  0  0  0  0  0  0  0  0  0  0  0
   11.6795   -3.0970   22.7302 H   0  0  0  0  0  0  0  0  0  0  0  0
   12.9113   -1.5239   23.3801 C   0  0  0  0  0  0  0  0  0  0  0  0
    8.9725    0.3051   24.2832 C   0  0  0  0  0  0  0  0  0  0  0  0
   13.2288   -0.3725   23.8762 C   0  0  0  0  0  0  0  0  0  0  0  0
   13.7267   -2.0953   22.9958 H   0  0  0  0  0  0  0  0  0  0  0  0
   14.1709    0.0111   24.0344 H   0  0  0  0  0  0  0  0  0  0  0  0
   12.2116    0.3714   24.2618 C   0  0  0  0  0  0  0  0  0  0  0  0
   11.0906    0.6452   24.3857 C   0  0  0  0  0  0  0  0  0  0  0  0
    8.7103   -1.3384   22.1683 H   0  0  0  0  0  0  0  0  0  0  0  0
    9.6829   -2.7607   21.8465 H   0  0  0  0  0  0  0  0  0  0  0  0
    9.2414   -2.1599   22.6383 C   0  0  0  0  0  0  0  0  0  0  0  0
    9.4471    2.3365   24.3481 H   0  0  0  0  0  0  0  0  0  0  0  0
   10.0541   -0.2884   23.9393 C   0  0  0  0  0  0  0  0  0  0  0  0
   11.5267    1.6777   24.9061 O   0  0  0  0  0  0  0  0  0  0  0  0
    7.9822   -0.0691   24.0781 H   0  0  0  0  0  0  0  0  0  0  0  0
    7.9056    1.9725   25.0953 H   0  0  0  0  0  0  0  0  0  0  0  0
    9.3705    1.5459   25.9396 H   0  0  0  0  0  0  0  0  0  0  0  0
  5 18  1  0  0  0  0
  5 22  1  0  0  0  0
  5  9  1  0  0  0  0
  5 23  1  0  0  0  0
 15 17  1  0  0  0  0
  9 21  1  0  0  0  0
  9 19  2  0  0  0  0
 14 20  1  0  0  0  0
 13 20  1  0  0  0  0
 14 19  1  0  0  0  0
  3 19  1  0  0  0  0
 13 14  2  0  0  0  0
 16 17  1  0  0  0  0
  3 17  1  0  0  0  0
  4 17  1  0  0  0  0
 10 13  1  0  0  0  0
  2  3  2  0  0  0  0
  4  6  2  0  0  0  0
 10 12  1  0  0  0  0
  8 10  2  0  0  0  0
  2  8  1  0  0  0  0
  2  7  1  0  0  0  0
  1  6  1  0  0  0  0
  8 11  1  0  0  0  0
M  END
> <Chemgauss4>
-6.599045

$$$$
