REMARK  3 active torsions:
REMARK  status: ('A' for Active; 'I' for Inactive)
REMARK    1  A    between atoms: C_2  and  N_7 
REMARK    2  A    between atoms: N_6  and  C_10 
REMARK    3  A    between atoms: N_7  and  C_10 
ROOT
HETATM    1  H   UNL     1      10.822   1.266  20.818  1.00  0.00     0.154 HD
HETATM    2  C   UNL     1       9.852   0.963  22.637  1.00  0.00     0.145 C 
HETATM    3  N   UNL     1      10.339   0.610  21.346  1.00  0.00    -0.396 N 
HETATM    4  N   UNL     1       8.501  -0.712  21.712  1.00  0.00     0.134 NA
HETATM    5  C   UNL     1       9.577  -0.426  20.769  1.00  0.00     0.393 C 
HETATM    6  C   UNL     1       9.048  -0.282  22.986  1.00  0.00     0.296 C 
ENDROOT
BRANCH   4   7
HETATM    7  C   UNL     1       8.213  -2.119  21.521  1.00  0.00     0.541 C 
BRANCH   7   8
HETATM    8  N   UNL     1       7.080  -2.547  22.308  1.00  0.00     0.111 N 
HETATM    9  H   UNL     1       6.236  -2.225  21.836  1.00  0.00     0.318 HD
BRANCH   8  10
HETATM   10  C   UNL     1       7.172  -2.065  23.673  1.00  0.00     0.267 C 
HETATM   11  C   UNL     1       8.507  -2.784  24.337  1.00  0.00     0.037 C 
ENDBRANCH   8  10
ENDBRANCH   7   8
ENDBRANCH   4   7
TORSDOF 3
