MODEL 1
REMARK VINA RESULT:    -3.481      0.000      0.000
REMARK INTER + INTRA:          -4.197
REMARK INTER:                  -4.091
REMARK INTRA:                  -0.105
REMARK UNBOUND:                -0.105
REMARK  3 active torsions:
REMARK  status: ('A' for Active; 'I' for Inactive)
REMARK    1  A    between atoms: C_2  and  N_7 
REMARK    2  A    between atoms: N_6  and  C_10 
REMARK    3  A    between atoms: N_7  and  C_10 
ROOT
HETATM    1  H   UNL     1       8.369  -6.166  28.097  1.00  0.00     0.154 HD
HETATM    2  C   UNL     1       6.546  -5.532  27.314  1.00  0.00     0.145 C 
HETATM    3  N   UNL     1       7.917  -5.914  27.276  1.00  0.00    -0.396 N 
HETATM    4  N   UNL     1       7.611  -4.480  25.512  1.00  0.00     0.134 NA
HETATM    5  C   UNL     1       8.588  -5.334  26.180  1.00  0.00     0.393 C 
HETATM    6  C   UNL     1       6.339  -5.078  25.876  1.00  0.00     0.296 C 
ENDROOT
BRANCH   4   7
HETATM    7  C   UNL     1       8.009  -4.491  24.119  1.00  0.00     0.541 C 
BRANCH   7   8
HETATM    8  N   UNL     1       6.899  -4.796  23.246  1.00  0.00     0.111 N 
HETATM    9  H   UNL     1       6.112  -5.072  23.832  1.00  0.00     0.318 HD
BRANCH   8  10
HETATM   10  C   UNL     1       7.254  -5.814  22.276  1.00  0.00     0.267 C 
HETATM   11  C   UNL     1       6.082  -5.780  21.107  1.00  0.00     0.037 C 
ENDBRANCH   8  10
ENDBRANCH   7   8
ENDBRANCH   4   7
TORSDOF 3
ENDMDL
MODEL 2
REMARK VINA RESULT:    -3.454     16.821     18.092
REMARK INTER + INTRA:          -4.166
REMARK INTER:                  -4.094
REMARK INTRA:                  -0.072
REMARK UNBOUND:                -0.105
REMARK  3 active torsions:
REMARK  status: ('A' for Active; 'I' for Inactive)
REMARK    1  A    between atoms: C_2  and  N_7 
REMARK    2  A    between atoms: N_6  and  C_10 
REMARK    3  A    between atoms: N_7  and  C_10 
ROOT
HETATM    1  H   UNL     1       0.635 -16.733  16.211  1.00  0.00     0.154 HD
HETATM    2  C   UNL     1      -1.448 -16.688  16.183  1.00  0.00     0.145 C 
HETATM    3  N   UNL     1      -0.141 -16.847  15.639  1.00  0.00    -0.396 N 
HETATM    4  N   UNL     1      -1.471 -16.163  13.900  1.00  0.00     0.134 NA
HETATM    5  C   UNL     1      -0.118 -16.580  14.255  1.00  0.00     0.393 C 
HETATM    6  C   UNL     1      -2.293 -16.787  14.920  1.00  0.00     0.296 C 
ENDROOT
BRANCH   4   7
HETATM    7  C   UNL     1      -1.633 -16.586  12.524  1.00  0.00     0.541 C 
BRANCH   7   8
HETATM    8  N   UNL     1      -0.614 -16.028  11.667  1.00  0.00     0.111 N 
HETATM    9  H   UNL     1      -0.298 -15.155  12.088  1.00  0.00     0.318 HD
BRANCH   8  10
HETATM   10  C   UNL     1      -1.102 -15.847  10.313  1.00  0.00     0.267 C 
HETATM   11  C   UNL     1       0.195 -16.074   9.310  1.00  0.00     0.037 C 
ENDBRANCH   8  10
ENDBRANCH   7   8
ENDBRANCH   4   7
TORSDOF 3
ENDMDL
MODEL 3
REMARK VINA RESULT:    -3.390     21.989     22.748
REMARK INTER + INTRA:          -4.090
REMARK INTER:                  -3.987
REMARK INTRA:                  -0.103
REMARK UNBOUND:                -0.105
REMARK  3 active torsions:
REMARK  status: ('A' for Active; 'I' for Inactive)
REMARK    1  A    between atoms: C_2  and  N_7 
REMARK    2  A    between atoms: N_6  and  C_10 
REMARK    3  A    between atoms: N_7  and  C_10 
ROOT
HETATM    1  H   UNL     1      24.571 -21.448  16.955  1.00  0.00     0.154 HD
HETATM    2  C   UNL     1      23.377 -22.045  18.555  1.00  0.00     0.145 C 
HETATM    3  N   UNL     1      23.656 -21.637  17.219  1.00  0.00    -0.396 N 
HETATM    4  N   UNL     1      21.510 -20.955  17.654  1.00  0.00     0.134 NA
HETATM    5  C   UNL     1      22.542 -21.011  16.624  1.00  0.00     0.393 C 
HETATM    6  C   UNL     1      21.855 -22.055  18.536  1.00  0.00     0.296 C 
ENDROOT
BRANCH   4   7
HETATM    7  C   UNL     1      20.261 -21.017  16.923  1.00  0.00     0.541 C 
BRANCH   7   8
HETATM    8  N   UNL     1      20.069 -19.855  16.088  1.00  0.00     0.111 N 
HETATM    9  H   UNL     1      19.573 -19.155  16.640  1.00  0.00     0.318 HD
BRANCH   8  10
HETATM   10  C   UNL     1      19.369 -20.193  14.863  1.00  0.00     0.267 C 
HETATM   11  C   UNL     1      20.330 -19.681  13.616  1.00  0.00     0.037 C 
ENDBRANCH   8  10
ENDBRANCH   7   8
ENDBRANCH   4   7
TORSDOF 3
ENDMDL
MODEL 4
REMARK VINA RESULT:    -3.385      6.242      7.197
REMARK INTER + INTRA:          -4.084
REMARK INTER:                  -3.898
REMARK INTRA:                  -0.187
REMARK UNBOUND:                -0.105
REMARK  3 active torsions:
REMARK  status: ('A' for Active; 'I' for Inactive)
REMARK    1  A    between atoms: C_2  and  N_7 
REMARK    2  A    between atoms: N_6  and  C_10 
REMARK    3  A    between atoms: N_7  and  C_10 
ROOT
HETATM    1  H   UNL     1       5.809   0.414  22.221  1.00  0.00     0.154 HD
HETATM    2  C   UNL     1       6.694   0.131  20.356  1.00  0.00     0.145 C 
HETATM    3  N   UNL     1       6.647   0.202  21.778  1.00  0.00    -0.396 N 
HETATM    4  N   UNL     1       8.797   0.739  21.188  1.00  0.00     0.134 NA
HETATM    5  C   UNL     1       7.905   0.526  22.323  1.00  0.00     0.393 C 
HETATM    6  C   UNL     1       8.189  -0.049  20.131  1.00  0.00     0.296 C 
ENDROOT
BRANCH   4   7
HETATM    7  C   UNL     1      10.106   0.351  21.675  1.00  0.00     0.541 C 
BRANCH   7   8
HETATM    8  N   UNL     1      10.262  -1.084  21.713  1.00  0.00     0.111 N 
HETATM    9  H   UNL     1       9.361  -1.487  21.968  1.00  0.00     0.318 HD
BRANCH   8  10
HETATM   10  C   UNL     1      11.323  -1.477  22.620  1.00  0.00     0.267 C 
HETATM   11  C   UNL     1      11.127  -0.574  23.993  1.00  0.00     0.037 C 
ENDBRANCH   8  10
ENDBRANCH   7   8
ENDBRANCH   4   7
TORSDOF 3
ENDMDL
MODEL 5
REMARK VINA RESULT:    -3.287      4.823      6.054
REMARK INTER + INTRA:          -3.969
REMARK INTER:                  -3.837
REMARK INTRA:                  -0.132
REMARK UNBOUND:                -0.105
REMARK  3 active torsions:
REMARK  status: ('A' for Active; 'I' for Inactive)
REMARK    1  A    between atoms: C_2  and  N_7 
REMARK    2  A    between atoms: N_6  and  C_10 
REMARK    3  A    between atoms: N_7  and  C_10 
ROOT
HETATM    1  H   UNL     1      13.770  -1.902  22.790  1.00  0.00     0.154 HD
HETATM    2  C   UNL     1      13.209  -0.452  24.177  1.00  0.00     0.145 C 
HETATM    3  N   UNL     1      13.014  -1.542  23.281  1.00  0.00    -0.396 N 
HETATM    4  N   UNL     1      11.019  -0.413  23.347  1.00  0.00     0.134 NA
HETATM    5  C   UNL     1      11.694  -1.580  22.788  1.00  0.00     0.393 C 
HETATM    6  C   UNL     1      11.768  -0.140  24.560  1.00  0.00     0.296 C 
ENDROOT
BRANCH   4   7
HETATM    7  C   UNL     1       9.632  -0.816  23.466  1.00  0.00     0.541 C 
BRANCH   7   8
HETATM    8  N   UNL     1       9.492  -2.253  23.504  1.00  0.00     0.111 N 
HETATM    9  H   UNL     1       9.109  -2.551  22.607  1.00  0.00     0.318 HD
BRANCH   8  10
HETATM   10  C   UNL     1       8.674  -2.675  24.625  1.00  0.00     0.267 C 
HETATM   11  C   UNL     1       8.314  -4.271  24.371  1.00  0.00     0.037 C 
ENDBRANCH   8  10
ENDBRANCH   7   8
ENDBRANCH   4   7
TORSDOF 3
ENDMDL
MODEL 6
REMARK VINA RESULT:    -3.268      4.676      5.713
REMARK INTER + INTRA:          -3.946
REMARK INTER:                  -3.861
REMARK INTRA:                  -0.085
REMARK UNBOUND:                -0.105
REMARK  3 active torsions:
REMARK  status: ('A' for Active; 'I' for Inactive)
REMARK    1  A    between atoms: C_2  and  N_7 
REMARK    2  A    between atoms: N_6  and  C_10 
REMARK    3  A    between atoms: N_7  and  C_10 
ROOT
HETATM    1  H   UNL     1       9.795  -2.912  22.835  1.00  0.00     0.154 HD
HETATM    2  C   UNL     1       7.760  -3.357  22.830  1.00  0.00     0.145 C 
HETATM    3  N   UNL     1       8.947  -2.683  22.423  1.00  0.00    -0.396 N 
HETATM    4  N   UNL     1       7.226  -1.212  22.056  1.00  0.00     0.134 NA
HETATM    5  C   UNL     1       8.666  -1.400  21.911  1.00  0.00     0.393 C 
HETATM    6  C   UNL     1       6.709  -2.568  22.061  1.00  0.00     0.296 C 
ENDROOT
BRANCH   4   7
HETATM    7  C   UNL     1       6.861  -0.335  20.962  1.00  0.00     0.541 C 
BRANCH   7   8
HETATM    8  N   UNL     1       5.705  -0.822  20.246  1.00  0.00     0.111 N 
HETATM    9  H   UNL     1       5.777  -1.838  20.196  1.00  0.00     0.318 HD
BRANCH   8  10
HETATM   10  C   UNL     1       5.597  -0.207  18.937  1.00  0.00     0.267 C 
HETATM   11  C   UNL     1       4.858   1.257  19.164  1.00  0.00     0.037 C 
ENDBRANCH   8  10
ENDBRANCH   7   8
ENDBRANCH   4   7
TORSDOF 3
ENDMDL
MODEL 7
REMARK VINA RESULT:    -3.238     21.349     22.741
REMARK INTER + INTRA:          -3.911
REMARK INTER:                  -3.821
REMARK INTRA:                  -0.090
REMARK UNBOUND:                -0.105
REMARK  3 active torsions:
REMARK  status: ('A' for Active; 'I' for Inactive)
REMARK    1  A    between atoms: C_2  and  N_7 
REMARK    2  A    between atoms: N_6  and  C_10 
REMARK    3  A    between atoms: N_7  and  C_10 
ROOT
HETATM    1  H   UNL     1       1.506 -23.174   9.279  1.00  0.00     0.154 HD
HETATM    2  C   UNL     1       2.903 -22.602   7.843  1.00  0.00     0.145 C 
HETATM    3  N   UNL     1       2.146 -22.484   9.044  1.00  0.00    -0.396 N 
HETATM    4  N   UNL     1       2.637 -20.341   8.391  1.00  0.00     0.134 NA
HETATM    5  C   UNL     1       1.997 -21.137   9.432  1.00  0.00     0.393 C 
HETATM    6  C   UNL     1       3.610 -21.254   7.820  1.00  0.00     0.296 C 
ENDROOT
BRANCH   4   7
HETATM    7  C   UNL     1       3.116 -19.159   9.078  1.00  0.00     0.541 C 
BRANCH   7   8
HETATM    8  N   UNL     1       2.756 -17.947   8.379  1.00  0.00     0.111 N 
HETATM    9  H   UNL     1       2.787 -17.181   9.050  1.00  0.00     0.318 HD
BRANCH   8  10
HETATM   10  C   UNL     1       1.460 -18.072   7.738  1.00  0.00     0.267 C 
HETATM   11  C   UNL     1       0.351 -17.439   8.791  1.00  0.00     0.037 C 
ENDBRANCH   8  10
ENDBRANCH   7   8
ENDBRANCH   4   7
TORSDOF 3
ENDMDL
MODEL 8
REMARK VINA RESULT:    -3.220      7.441      8.584
REMARK INTER + INTRA:          -3.890
REMARK INTER:                  -3.842
REMARK INTRA:                  -0.047
REMARK UNBOUND:                -0.105
REMARK  3 active torsions:
REMARK  status: ('A' for Active; 'I' for Inactive)
REMARK    1  A    between atoms: C_2  and  N_7 
REMARK    2  A    between atoms: N_6  and  C_10 
REMARK    3  A    between atoms: N_7  and  C_10 
ROOT
HETATM    1  H   UNL     1       5.455   1.176  20.206  1.00  0.00     0.154 HD
HETATM    2  C   UNL     1       7.170   0.072  19.780  1.00  0.00     0.145 C 
HETATM    3  N   UNL     1       6.332   0.935  20.544  1.00  0.00    -0.396 N 
HETATM    4  N   UNL     1       8.487   1.482  21.108  1.00  0.00     0.134 NA
HETATM    5  C   UNL     1       7.085   1.775  21.389  1.00  0.00     0.393 C 
HETATM    6  C   UNL     1       8.451   0.122  20.601  1.00  0.00     0.296 C 
ENDROOT
BRANCH   4   7
HETATM    7  C   UNL     1       9.171   1.738  22.359  1.00  0.00     0.541 C 
BRANCH   7   8
HETATM    8  N   UNL     1      10.406   2.460  22.158  1.00  0.00     0.111 N 
HETATM    9  H   UNL     1      11.002   1.893  21.557  1.00  0.00     0.318 HD
BRANCH   8  10
HETATM   10  C   UNL     1      11.039   2.785  23.422  1.00  0.00     0.267 C 
HETATM   11  C   UNL     1      11.613   1.361  24.040  1.00  0.00     0.037 C 
ENDBRANCH   8  10
ENDBRANCH   7   8
ENDBRANCH   4   7
TORSDOF 3
ENDMDL
MODEL 9
REMARK VINA RESULT:    -3.122      5.398      6.205
REMARK INTER + INTRA:          -3.775
REMARK INTER:                  -3.756
REMARK INTRA:                  -0.020
REMARK UNBOUND:                -0.105
REMARK  3 active torsions:
REMARK  status: ('A' for Active; 'I' for Inactive)
REMARK    1  A    between atoms: C_2  and  N_7 
REMARK    2  A    between atoms: N_6  and  C_10 
REMARK    3  A    between atoms: N_7  and  C_10 
ROOT
HETATM    1  H   UNL     1      10.362   0.874  26.153  1.00  0.00     0.154 HD
HETATM    2  C   UNL     1      11.842   0.297  24.805  1.00  0.00     0.145 C 
HETATM    3  N   UNL     1      10.511   0.515  25.263  1.00  0.00    -0.396 N 
HETATM    4  N   UNL     1      10.383  -1.195  23.741  1.00  0.00     0.134 NA
HETATM    5  C   UNL     1       9.593  -0.336  24.617  1.00  0.00     0.393 C 
HETATM    6  C   UNL     1      11.573  -0.405  23.481  1.00  0.00     0.296 C 
ENDROOT
BRANCH   4   7
HETATM    7  C   UNL     1       9.499  -1.499  22.634  1.00  0.00     0.541 C 
BRANCH   7   8
HETATM    8  N   UNL     1       9.831  -0.735  21.455  1.00  0.00     0.111 N 
HETATM    9  H   UNL     1      10.786  -0.396  21.565  1.00  0.00     0.318 HD
BRANCH   8  10
HETATM   10  C   UNL     1       8.881   0.339  21.235  1.00  0.00     0.267 C 
HETATM   11  C   UNL     1       8.008  -0.073  19.890  1.00  0.00     0.037 C 
ENDBRANCH   8  10
ENDBRANCH   7   8
ENDBRANCH   4   7
TORSDOF 3
ENDMDL
