
 OpenBabel07202414173D

 50 54  0  0  1  0  0  0  0  0999 V2000
    1.0634   -0.0367    0.0051 Cl  0  0  0  0  0  0  0  0  0  0  0  0
    2.7795   -0.0883    0.0775 C   0  0  0  0  0  0  0  0  0  0  0  0
    3.5146    1.0762   -0.0807 C   0  0  0  0  0  0  0  0  0  0  0  0
    4.9121    1.0320   -0.0120 C   0  0  0  0  0  0  0  0  0  0  0  0
    5.6116   -0.1652    0.2203 C   0  0  0  0  0  0  0  0  0  0  0  0
    4.8384   -1.3378    0.3828 C   0  0  0  0  0  0  0  0  0  0  0  0
    3.4311   -1.2932    0.3099 C   0  0  0  0  0  0  0  0  0  0  0  0
    5.5033   -2.6704    0.6934 C   0  0  3  0  0  0  0  0  0  0  0  0
    5.4050   -3.0886    2.1724 C   0  0  0  0  0  0  0  0  0  0  0  0
    5.4392   -4.2797    2.4764 O   0  0  0  0  0  0  0  0  0  0  0  0
    5.3548   -2.0386    3.0689 N   0  0  0  0  0  0  0  0  0  0  0  0
    5.0798   -2.0849    4.4595 C   0  0  0  0  0  0  0  0  0  0  0  0
    4.8088   -3.2689    5.1433 C   0  0  0  0  0  0  0  0  0  0  0  0
    4.3671   -3.3285    6.4222 N   0  0  0  0  0  0  0  0  0  0  0  0
    4.2329   -2.1523    7.0687 C   0  0  0  0  0  0  0  0  0  0  0  0
    4.5842   -0.9125    6.5371 C   0  0  0  0  0  0  0  0  0  0  0  0
    4.5273    0.2567    7.3183 C   0  0  0  0  0  0  0  0  0  0  0  0
    4.9169    1.4856    6.7912 C   0  0  0  0  0  0  0  0  0  0  0  0
    5.3331    1.5654    5.4701 C   0  0  0  0  0  0  0  0  0  0  0  0
    5.3701    0.4137    4.6794 C   0  0  0  0  0  0  0  0  0  0  0  0
    5.0157   -0.8628    5.1912 C   0  0  0  0  0  0  0  0  0  0  0  0
    6.9568   -2.6666    0.2306 C   0  0  0  0  0  0  0  0  0  0  0  0
    7.6737   -1.4315    0.7432 C   0  0  0  0  0  0  0  0  0  0  0  0
    6.9984   -0.2075    0.3086 N   0  0  0  0  0  0  0  0  0  0  0  0
    7.8393    0.8891   -0.1947 C   0  0  0  0  0  0  0  0  0  0  0  0
    8.1141    1.9706    0.7885 C   0  0  0  0  0  0  0  0  0  0  0  0
    8.3511    3.3212    0.6438 C   0  0  0  0  0  0  0  0  0  0  0  0
    8.5761    3.7891    1.9516 C   0  0  0  0  0  0  0  0  0  0  0  0
    8.4692    2.8190    2.8618 N   0  0  0  0  0  0  0  0  0  0  0  0
    8.1941    1.7279    2.1305 N   0  0  0  0  0  0  0  0  0  0  0  0
    3.0153    2.0264   -0.2518 H   0  0  0  0  0  0  0  0  0  0  0  0
    5.4377    1.9762   -0.1265 H   0  0  0  0  0  0  0  0  0  0  0  0
    2.8474   -2.2013    0.4478 H   0  0  0  0  0  0  0  0  0  0  0  0
    4.9732   -3.4456    0.1219 H   0  0  0  0  0  0  0  0  0  0  0  0
    5.3697   -1.1139    2.6651 H   0  0  0  0  0  0  0  0  0  0  0  0
    4.9181   -4.2471    4.6860 H   0  0  0  0  0  0  0  0  0  0  0  0
    3.8277   -2.2397    8.0740 H   0  0  0  0  0  0  0  0  0  0  0  0
    4.2058    0.2104    8.3570 H   0  0  0  0  0  0  0  0  0  0  0  0
    4.9059    2.3767    7.4136 H   0  0  0  0  0  0  0  0  0  0  0  0
    5.6457    2.5199    5.0509 H   0  0  0  0  0  0  0  0  0  0  0  0
    5.7157    0.5425    3.6586 H   0  0  0  0  0  0  0  0  0  0  0  0
    6.9907   -2.6726   -0.8671 H   0  0  0  0  0  0  0  0  0  0  0  0
    7.4786   -3.5675    0.5721 H   0  0  0  0  0  0  0  0  0  0  0  0
    8.7101   -1.4568    0.3872 H   0  0  0  0  0  0  0  0  0  0  0  0
    7.7289   -1.4377    1.8374 H   0  0  0  0  0  0  0  0  0  0  0  0
    7.4018    1.3151   -1.1074 H   0  0  0  0  0  0  0  0  0  0  0  0
    8.8087    0.4909   -0.5237 H   0  0  0  0  0  0  0  0  0  0  0  0
    8.3717    3.8909   -0.2746 H   0  0  0  0  0  0  0  0  0  0  0  0
    8.8138    4.7929    2.2795 H   0  0  0  0  0  0  0  0  0  0  0  0
    8.0620    0.8427    2.6074 H   0  0  0  0  0  0  0  0  0  0  0  0
  1  2  1  0  0  0  0
  2  3  1  0  0  0  0
  2  7  2  0  0  0  0
  3  4  2  0  0  0  0
  3 31  1  0  0  0  0
  4  5  1  0  0  0  0
  4 32  1  0  0  0  0
  5  6  2  0  0  0  0
  5 24  1  0  0  0  0
  6  7  1  0  0  0  0
  6  8  1  0  0  0  0
  7 33  1  0  0  0  0
  8  9  1  0  0  0  0
  8 22  1  0  0  0  0
  8 34  1  0  0  0  0
  9 10  2  0  0  0  0
  9 11  1  0  0  0  0
 11 12  1  0  0  0  0
 11 35  1  0  0  0  0
 12 13  1  0  0  0  0
 12 21  2  0  0  0  0
 13 14  2  0  0  0  0
 13 36  1  0  0  0  0
 14 15  1  0  0  0  0
 15 16  2  0  0  0  0
 15 37  1  0  0  0  0
 16 17  1  0  0  0  0
 16 21  1  0  0  0  0
 17 18  2  0  0  0  0
 17 38  1  0  0  0  0
 18 19  1  0  0  0  0
 18 39  1  0  0  0  0
 19 20  2  0  0  0  0
 19 40  1  0  0  0  0
 20 21  1  0  0  0  0
 20 41  1  0  0  0  0
 22 23  1  0  0  0  0
 22 42  1  0  0  0  0
 22 43  1  0  0  0  0
 23 24  1  0  0  0  0
 23 44  1  0  0  0  0
 23 45  1  0  0  0  0
 24 25  1  0  0  0  0
 25 26  1  0  0  0  0
 25 46  1  0  0  0  0
 25 47  1  0  0  0  0
 26 27  2  0  0  0  0
 26 30  1  0  0  0  0
 27 28  1  0  0  0  0
 27 48  1  0  0  0  0
 28 29  2  0  0  0  0
 28 49  1  0  0  0  0
 29 30  1  0  0  0  0
 30 50  1  0  0  0  0
M  END
$$$$
