REMARK  9 active torsions:
REMARK  status: ('A' for Active; 'I' for Inactive)
REMARK    1  A    between atoms: S_2  and  N_5 
REMARK    2  A    between atoms: N_5  and  C_7 
REMARK    3  A    between atoms: C_8  and  C_9 
REMARK    4  A    between atoms: C_9  and  C_15 
REMARK    5  A    between atoms: C_9  and  C_10 
REMARK    6  A    between atoms: C_10  and  C_11 
REMARK    7  A    between atoms: C_11  and  C_12 
REMARK    8  A    between atoms: C_15  and  C_16 
REMARK       I    between atoms: C_16  and  N_18 
REMARK    9  A    between atoms: N_18  and  C_20 
ROOT
HETATM    1  C   UNL     1      10.302  -1.143  23.278  1.00  0.00     0.109 C 
ENDROOT
BRANCH   1   2
HETATM    2  C   UNL     1       9.440  -1.958  23.505  1.00  0.00     0.011 C 
HETATM    3  C   UNL     1       8.980  -2.943  24.137  1.00  0.00     0.097 C 
BRANCH   3   4
HETATM    4  N   UNL     1       8.097  -3.565  24.654  1.00  0.00    -0.296 N 
ATOM      5  HN  UNL     1       7.216  -3.633  24.144  1.00  0.00     0.177 HD
BRANCH   4   6
HETATM    6  S   UNL     1       8.178  -4.321  26.115  1.00  0.00     0.226 S 
HETATM    7  C   UNL     1       6.612  -4.876  26.427  1.00  0.00     0.186 C 
HETATM    8  O   UNL     1       9.049  -5.479  26.081  1.00  0.00    -0.206 OA
HETATM    9  O   UNL     1       8.572  -3.436  27.179  1.00  0.00    -0.206 OA
ENDBRANCH   4   6
ENDBRANCH   3   4
ENDBRANCH   1   2
BRANCH   1  10
HETATM   10  C   UNL     1       9.726  -0.548  22.343  1.00  0.00    -0.071 C 
BRANCH  10  11
HETATM   11  C   UNL     1       9.053   0.051  21.402  1.00  0.00     0.289 C 
HETATM   12  O   UNL     1       9.527   0.984  21.002  1.00  0.00    -0.259 OA
HETATM   13  N   UNL     1       7.939  -0.541  21.048  1.00  0.00    -0.315 N 
ATOM     14  HN  UNL     1       7.669  -1.398  21.531  1.00  0.00     0.170 HD
BRANCH  13  15
HETATM   15  C   UNL     1       7.192  -0.104  20.146  1.00  0.00     0.057 A 
HETATM   16  C   UNL     1       7.252  -0.012  18.814  1.00  0.00     0.117 A 
HETATM   17  N   UNL     1       6.768   0.344  17.775  1.00  0.00    -0.373 N 
HETATM   18  C   UNL     1       5.670   0.911  18.226  1.00  0.00     0.088 A 
ATOM     19  HN  UNL     1       7.109   0.238  16.820  1.00  0.00     0.164 HD
HETATM   20  C   UNL     1       5.274   0.989  19.399  1.00  0.00     0.026 A 
HETATM   21  C   UNL     1       5.841   0.569  20.531  1.00  0.00    -0.033 A 
HETATM   22  C   UNL     1       5.341   0.703  22.017  1.00  0.00     0.050 C 
ENDBRANCH  13  15
ENDBRANCH  10  11
ENDBRANCH   1  10
BRANCH   1  23
HETATM   23  C   UNL     1      11.041   0.014  24.318  1.00  0.00    -0.006 C 
BRANCH  23  24
HETATM   24  C   UNL     1      12.033   0.290  24.282  1.00  0.00    -0.002 C 
BRANCH  24  25
HETATM   25  C   UNL     1      13.145  -0.190  23.449  1.00  0.00    -0.001 C 
HETATM   26  C   UNL     1      12.726  -1.267  22.646  1.00  0.00    -0.010 C 
HETATM   27  C   UNL     1      11.828  -1.760  22.522  1.00  0.00     0.011 C 
ENDBRANCH  24  25
ENDBRANCH  23  24
ENDBRANCH   1  23
TORSDOF 9
