MODEL 1
REMARK VINA RESULT:    -7.038      0.000      0.000
REMARK INTER + INTRA:         -10.807
REMARK INTER:                 -10.123
REMARK INTRA:                  -0.684
REMARK UNBOUND:                -0.684
REMARK  9 active torsions:
REMARK  status: ('A' for Active; 'I' for Inactive)
REMARK    1  A    between atoms: S_2  and  N_5 
REMARK    2  A    between atoms: N_5  and  C_7 
REMARK    3  A    between atoms: C_8  and  C_9 
REMARK    4  A    between atoms: C_9  and  C_15 
REMARK    5  A    between atoms: C_9  and  C_10 
REMARK    6  A    between atoms: C_10  and  C_11 
REMARK    7  A    between atoms: C_11  and  C_12 
REMARK    8  A    between atoms: C_15  and  C_16 
REMARK       I    between atoms: C_16  and  N_18 
REMARK    9  A    between atoms: N_18  and  C_20 
ROOT
HETATM    1  C   UNL     1       9.353  -1.600  23.400  1.00  0.00     0.109 C 
ENDROOT
BRANCH   1   2
HETATM    2  C   UNL     1       8.762  -2.652  23.344  1.00  0.00     0.011 C 
HETATM    3  C   UNL     1       8.383  -3.742  23.842  1.00  0.00     0.097 C 
BRANCH   3   4
HETATM    4  N   UNL     1       7.589  -4.622  24.013  1.00  0.00    -0.296 N 
ATOM      5  HN  UNL     1       7.494  -4.985  24.962  1.00  0.00     0.177 HD
BRANCH   4   6
HETATM    6  S   UNL     1       6.637  -5.299  22.853  1.00  0.00     0.226 S 
HETATM    7  C   UNL     1       5.857  -4.006  22.093  1.00  0.00     0.186 C 
HETATM    8  O   UNL     1       7.415  -5.989  21.843  1.00  0.00    -0.206 OA
HETATM    9  O   UNL     1       5.638  -6.182  23.397  1.00  0.00    -0.206 OA
ENDBRANCH   4   6
ENDBRANCH   3   4
ENDBRANCH   1   2
BRANCH   1  10
HETATM   10  C   UNL     1       8.833  -1.064  22.398  1.00  0.00    -0.071 C 
BRANCH  10  11
HETATM   11  C   UNL     1       8.360  -0.460  21.345  1.00  0.00     0.289 C 
HETATM   12  O   UNL     1       9.106   0.153  20.777  1.00  0.00    -0.259 OA
HETATM   13  N   UNL     1       7.094  -0.683  21.094  1.00  0.00    -0.315 N 
ATOM     14  HN  UNL     1       6.570  -1.283  21.732  1.00  0.00     0.170 HD
BRANCH  13  15
HETATM   15  C   UNL     1       6.498  -0.196  20.109  1.00  0.00     0.057 A 
HETATM   16  C   UNL     1       6.230  -0.590  18.861  1.00  0.00     0.117 A 
HETATM   17  N   UNL     1       5.759  -0.366  17.780  1.00  0.00    -0.373 N 
HETATM   18  C   UNL     1       5.330   0.862  17.976  1.00  0.00     0.088 A 
ATOM     19  HN  UNL     1       5.707  -0.956  16.950  1.00  0.00     0.164 HD
HETATM   20  C   UNL     1       5.383   1.535  19.017  1.00  0.00     0.026 A 
HETATM   21  C   UNL     1       5.910   1.244  20.207  1.00  0.00    -0.033 A 
HETATM   22  C   UNL     1       5.998   2.121  21.511  1.00  0.00     0.050 C 
ENDBRANCH  13  15
ENDBRANCH  10  11
ENDBRANCH   1  10
BRANCH   1  23
HETATM   23  C   UNL     1       9.453  -0.446  24.674  1.00  0.00    -0.006 C 
BRANCH  23  24
HETATM   24  C   UNL     1      10.328  -0.036  25.031  1.00  0.00    -0.002 C 
BRANCH  24  25
HETATM   25  C   UNL     1      11.170   1.053  24.516  1.00  0.00    -0.001 C 
HETATM   26  C   UNL     1      12.455   0.573  24.201  1.00  0.00    -0.010 C 
HETATM   27  C   UNL     1      12.902  -0.356  24.246  1.00  0.00     0.011 C 
ENDBRANCH  24  25
ENDBRANCH  23  24
ENDBRANCH   1  23
TORSDOF 9
ENDMDL
MODEL 2
REMARK VINA RESULT:    -6.762      2.783      6.024
REMARK INTER + INTRA:         -10.411
REMARK INTER:                  -9.659
REMARK INTRA:                  -0.752
REMARK UNBOUND:                -0.684
REMARK  9 active torsions:
REMARK  status: ('A' for Active; 'I' for Inactive)
REMARK    1  A    between atoms: S_2  and  N_5 
REMARK    2  A    between atoms: N_5  and  C_7 
REMARK    3  A    between atoms: C_8  and  C_9 
REMARK    4  A    between atoms: C_9  and  C_15 
REMARK    5  A    between atoms: C_9  and  C_10 
REMARK    6  A    between atoms: C_10  and  C_11 
REMARK    7  A    between atoms: C_11  and  C_12 
REMARK    8  A    between atoms: C_15  and  C_16 
REMARK       I    between atoms: C_16  and  N_18 
REMARK    9  A    between atoms: N_18  and  C_20 
ROOT
HETATM    1  C   UNL     1       8.323  -1.543  22.943  1.00  0.00     0.109 C 
ENDROOT
BRANCH   1   2
HETATM    2  C   UNL     1       7.573  -0.931  22.220  1.00  0.00     0.011 C 
HETATM    3  C   UNL     1       6.994  -0.747  21.120  1.00  0.00     0.097 C 
BRANCH   3   4
HETATM    4  N   UNL     1       6.059  -0.426  20.443  1.00  0.00    -0.296 N 
ATOM      5  HN  UNL     1       5.134  -0.488  20.869  1.00  0.00     0.177 HD
BRANCH   4   6
HETATM    6  S   UNL     1       6.134   0.106  18.886  1.00  0.00     0.226 S 
HETATM    7  C   UNL     1       4.994   1.349  18.775  1.00  0.00     0.186 C 
HETATM    8  O   UNL     1       7.428   0.675  18.567  1.00  0.00    -0.206 OA
HETATM    9  O   UNL     1       5.793  -0.916  17.932  1.00  0.00    -0.206 OA
ENDBRANCH   4   6
ENDBRANCH   3   4
ENDBRANCH   1   2
BRANCH   1  10
HETATM   10  C   UNL     1       7.713  -2.633  22.929  1.00  0.00    -0.071 C 
BRANCH  10  11
HETATM   11  C   UNL     1       7.111  -3.787  22.988  1.00  0.00     0.289 C 
HETATM   12  O   UNL     1       7.536  -4.577  22.317  1.00  0.00    -0.259 OA
HETATM   13  N   UNL     1       6.118  -3.857  23.840  1.00  0.00    -0.315 N 
ATOM     14  HN  UNL     1       5.876  -3.022  24.374  1.00  0.00     0.170 HD
BRANCH  13  15
HETATM   15  C   UNL     1       5.455  -4.899  24.030  1.00  0.00     0.057 A 
HETATM   16  C   UNL     1       4.493  -5.555  23.373  1.00  0.00     0.117 A 
HETATM   17  N   UNL     1       3.713  -6.465  23.310  1.00  0.00    -0.373 N 
HETATM   18  C   UNL     1       3.963  -7.049  24.461  1.00  0.00     0.088 A 
ATOM     19  HN  UNL     1       3.048  -6.712  22.577  1.00  0.00     0.164 HD
HETATM   20  C   UNL     1       4.808  -6.734  25.313  1.00  0.00     0.026 A 
HETATM   21  C   UNL     1       5.668  -5.714  25.340  1.00  0.00    -0.033 A 
HETATM   22  C   UNL     1       6.713  -5.308  26.444  1.00  0.00     0.050 C 
ENDBRANCH  13  15
ENDBRANCH  10  11
ENDBRANCH   1  10
BRANCH   1  23
HETATM   23  C   UNL     1      10.014  -1.836  22.801  1.00  0.00    -0.006 C 
BRANCH  23  24
HETATM   24  C   UNL     1      10.748  -1.127  22.936  1.00  0.00    -0.002 C 
BRANCH  24  25
HETATM   25  C   UNL     1      12.043  -1.189  23.629  1.00  0.00    -0.001 C 
HETATM   26  C   UNL     1      12.397   0.082  24.121  1.00  0.00    -0.010 C 
HETATM   27  C   UNL     1      11.942   1.008  24.103  1.00  0.00     0.011 C 
ENDBRANCH  24  25
ENDBRANCH  23  24
ENDBRANCH   1  23
TORSDOF 9
ENDMDL
MODEL 3
REMARK VINA RESULT:    -6.684     24.353     27.933
REMARK INTER + INTRA:         -10.298
REMARK INTER:                  -9.074
REMARK INTRA:                  -1.224
REMARK UNBOUND:                -0.684
REMARK  9 active torsions:
REMARK  status: ('A' for Active; 'I' for Inactive)
REMARK    1  A    between atoms: S_2  and  N_5 
REMARK    2  A    between atoms: N_5  and  C_7 
REMARK    3  A    between atoms: C_8  and  C_9 
REMARK    4  A    between atoms: C_9  and  C_15 
REMARK    5  A    between atoms: C_9  and  C_10 
REMARK    6  A    between atoms: C_10  and  C_11 
REMARK    7  A    between atoms: C_11  and  C_12 
REMARK    8  A    between atoms: C_15  and  C_16 
REMARK       I    between atoms: C_16  and  N_18 
REMARK    9  A    between atoms: N_18  and  C_20 
ROOT
HETATM    1  C   UNL     1       7.975  17.754   1.110  1.00  0.00     0.109 C 
ENDROOT
BRANCH   1   2
HETATM    2  C   UNL     1       8.078  16.561   1.264  1.00  0.00     0.011 C 
HETATM    3  C   UNL     1       8.742  15.528   1.536  1.00  0.00     0.097 C 
BRANCH   3   4
HETATM    4  N   UNL     1       8.880  14.442   2.020  1.00  0.00    -0.296 N 
ATOM      5  HN  UNL     1       8.499  13.650   1.502  1.00  0.00     0.177 HD
BRANCH   4   6
HETATM    6  S   UNL     1       9.631  14.112   3.449  1.00  0.00     0.226 S 
HETATM    7  C   UNL     1       8.846  15.063   4.605  1.00  0.00     0.186 C 
HETATM    8  O   UNL     1       9.466  12.727   3.843  1.00  0.00    -0.206 OA
HETATM    9  O   UNL     1      11.027  14.461   3.437  1.00  0.00    -0.206 OA
ENDBRANCH   4   6
ENDBRANCH   3   4
ENDBRANCH   1   2
BRANCH   1  10
HETATM   10  C   UNL     1       8.606  18.108   2.128  1.00  0.00    -0.071 C 
BRANCH  10  11
HETATM   11  C   UNL     1       9.219  18.546   3.191  1.00  0.00     0.289 C 
HETATM   12  O   UNL     1       8.565  18.687   4.090  1.00  0.00    -0.259 OA
HETATM   13  N   UNL     1      10.509  18.731   3.056  1.00  0.00    -0.315 N 
ATOM     14  HN  UNL     1      10.935  18.542   2.149  1.00  0.00     0.170 HD
BRANCH  13  15
HETATM   15  C   UNL     1      11.242  19.127   3.989  1.00  0.00     0.057 A 
HETATM   16  C   UNL     1      11.853  18.559   5.033  1.00  0.00     0.117 A 
HETATM   17  N   UNL     1      12.528  18.658   6.021  1.00  0.00    -0.373 N 
HETATM   18  C   UNL     1      12.711  19.961   6.033  1.00  0.00     0.088 A 
ATOM     19  HN  UNL     1      12.862  17.941   6.663  1.00  0.00     0.164 HD
HETATM   20  C   UNL     1      12.313  20.798   5.209  1.00  0.00     0.026 A 
HETATM   21  C   UNL     1      11.569  20.644   4.113  1.00  0.00    -0.033 A 
HETATM   22  C   UNL     1      11.045  21.722   3.093  1.00  0.00     0.050 C 
ENDBRANCH  13  15
ENDBRANCH  10  11
ENDBRANCH   1  10
BRANCH   1  23
HETATM   23  C   UNL     1       8.437  18.748  -0.219  1.00  0.00    -0.006 C 
BRANCH  23  24
HETATM   24  C   UNL     1       8.186  19.742  -0.327  1.00  0.00    -0.002 C 
BRANCH  24  25
HETATM   25  C   UNL     1       9.012  20.958  -0.327  1.00  0.00    -0.001 C 
HETATM   26  C   UNL     1       8.525  21.881   0.617  1.00  0.00    -0.010 C 
HETATM   27  C   UNL     1       7.743  21.871   1.290  1.00  0.00     0.011 C 
ENDBRANCH  24  25
ENDBRANCH  23  24
ENDBRANCH   1  23
TORSDOF 9
ENDMDL
MODEL 4
REMARK VINA RESULT:    -6.493      1.500      2.039
REMARK INTER + INTRA:         -10.024
REMARK INTER:                  -9.331
REMARK INTRA:                  -0.693
REMARK UNBOUND:                -0.684
REMARK  9 active torsions:
REMARK  status: ('A' for Active; 'I' for Inactive)
REMARK    1  A    between atoms: S_2  and  N_5 
REMARK    2  A    between atoms: N_5  and  C_7 
REMARK    3  A    between atoms: C_8  and  C_9 
REMARK    4  A    between atoms: C_9  and  C_15 
REMARK    5  A    between atoms: C_9  and  C_10 
REMARK    6  A    between atoms: C_10  and  C_11 
REMARK    7  A    between atoms: C_11  and  C_12 
REMARK    8  A    between atoms: C_15  and  C_16 
REMARK       I    between atoms: C_16  and  N_18 
REMARK    9  A    between atoms: N_18  and  C_20 
ROOT
HETATM    1  C   UNL     1       9.347  -1.394  22.576  1.00  0.00     0.109 C 
ENDROOT
BRANCH   1   2
HETATM    2  C   UNL     1       8.518  -2.271  22.634  1.00  0.00     0.011 C 
HETATM    3  C   UNL     1       8.180  -3.475  22.767  1.00  0.00     0.097 C 
BRANCH   3   4
HETATM    4  N   UNL     1       7.458  -4.347  23.157  1.00  0.00    -0.296 N 
ATOM      5  HN  UNL     1       7.594  -4.669  24.116  1.00  0.00     0.177 HD
BRANCH   4   6
HETATM    6  S   UNL     1       6.266  -5.074  22.284  1.00  0.00     0.226 S 
HETATM    7  C   UNL     1       5.332  -5.922  23.409  1.00  0.00     0.186 C 
HETATM    8  O   UNL     1       5.398  -4.109  21.639  1.00  0.00    -0.206 OA
HETATM    9  O   UNL     1       6.776  -6.007  21.314  1.00  0.00    -0.206 OA
ENDBRANCH   4   6
ENDBRANCH   3   4
ENDBRANCH   1   2
BRANCH   1  10
HETATM   10  C   UNL     1       8.703  -0.604  21.855  1.00  0.00    -0.071 C 
BRANCH  10  11
HETATM   11  C   UNL     1       7.980   0.234  21.166  1.00  0.00     0.289 C 
HETATM   12  O   UNL     1       8.547   0.838  20.412  1.00  0.00    -0.259 OA
HETATM   13  N   UNL     1       6.699   0.225  21.441  1.00  0.00    -0.315 N 
ATOM     14  HN  UNL     1       6.363  -0.406  22.168  1.00  0.00     0.170 HD
BRANCH  13  15
HETATM   15  C   UNL     1       5.871   0.953  20.853  1.00  0.00     0.057 A 
HETATM   16  C   UNL     1       5.262   2.114  21.114  1.00  0.00     0.117 A 
HETATM   17  N   UNL     1       4.478   2.968  20.804  1.00  0.00    -0.373 N 
HETATM   18  C   UNL     1       4.037   2.462  19.672  1.00  0.00     0.088 A 
ATOM     19  HN  UNL     1       4.226   3.834  21.279  1.00  0.00     0.164 HD
HETATM   20  C   UNL     1       4.396   1.417  19.109  1.00  0.00     0.026 A 
HETATM   21  C   UNL     1       5.284   0.495  19.485  1.00  0.00    -0.033 A 
HETATM   22  C   UNL     1       5.707  -0.844  18.775  1.00  0.00     0.050 C 
ENDBRANCH  13  15
ENDBRANCH  10  11
ENDBRANCH   1  10
BRANCH   1  23
HETATM   23  C   UNL     1      10.122  -0.511  23.835  1.00  0.00    -0.006 C 
BRANCH  23  24
HETATM   24  C   UNL     1      11.006  -0.784  24.288  1.00  0.00    -0.002 C 
BRANCH  24  25
HETATM   25  C   UNL     1      12.253  -0.038  24.513  1.00  0.00    -0.001 C 
HETATM   26  C   UNL     1      13.337  -0.704  23.912  1.00  0.00    -0.010 C 
HETATM   27  C   UNL     1      13.426  -1.570  23.358  1.00  0.00     0.011 C 
ENDBRANCH  24  25
ENDBRANCH  23  24
ENDBRANCH   1  23
TORSDOF 9
ENDMDL
MODEL 5
REMARK VINA RESULT:    -6.460     14.035     16.030
REMARK INTER + INTRA:          -9.976
REMARK INTER:                  -9.402
REMARK INTRA:                  -0.574
REMARK UNBOUND:                -0.684
REMARK  9 active torsions:
REMARK  status: ('A' for Active; 'I' for Inactive)
REMARK    1  A    between atoms: S_2  and  N_5 
REMARK    2  A    between atoms: N_5  and  C_7 
REMARK    3  A    between atoms: C_8  and  C_9 
REMARK    4  A    between atoms: C_9  and  C_15 
REMARK    5  A    between atoms: C_9  and  C_10 
REMARK    6  A    between atoms: C_10  and  C_11 
REMARK    7  A    between atoms: C_11  and  C_12 
REMARK    8  A    between atoms: C_15  and  C_16 
REMARK       I    between atoms: C_16  and  N_18 
REMARK    9  A    between atoms: N_18  and  C_20 
ROOT
HETATM    1  C   UNL     1      24.110  -1.850  23.574  1.00  0.00     0.109 C 
ENDROOT
BRANCH   1   2
HETATM    2  C   UNL     1      23.819  -3.004  23.776  1.00  0.00     0.011 C 
HETATM    3  C   UNL     1      24.094  -4.231  23.810  1.00  0.00     0.097 C 
BRANCH   3   4
HETATM    4  N   UNL     1      24.023  -5.331  24.277  1.00  0.00    -0.296 N 
ATOM      5  HN  UNL     1      23.821  -6.097  23.634  1.00  0.00     0.177 HD
BRANCH   4   6
HETATM    6  S   UNL     1      24.221  -5.718  25.866  1.00  0.00     0.226 S 
HETATM    7  C   UNL     1      25.801  -5.257  26.252  1.00  0.00     0.186 C 
HETATM    8  O   UNL     1      23.328  -4.965  26.724  1.00  0.00    -0.206 OA
HETATM    9  O   UNL     1      24.079  -7.127  26.117  1.00  0.00    -0.206 OA
ENDBRANCH   4   6
ENDBRANCH   3   4
ENDBRANCH   1   2
BRANCH   1  10
HETATM   10  C   UNL     1      23.643  -1.760  22.419  1.00  0.00    -0.071 C 
BRANCH  10  11
HETATM   11  C   UNL     1      23.213  -1.719  21.190  1.00  0.00     0.289 C 
HETATM   12  O   UNL     1      22.109  -1.860  21.070  1.00  0.00    -0.259 OA
HETATM   13  N   UNL     1      24.133  -1.494  20.284  1.00  0.00    -0.315 N 
ATOM     14  HN  UNL     1      25.100  -1.386  20.589  1.00  0.00     0.170 HD
BRANCH  13  15
HETATM   15  C   UNL     1      23.879  -1.404  19.063  1.00  0.00     0.057 A 
HETATM   16  C   UNL     1      23.429  -0.447  18.246  1.00  0.00     0.117 A 
HETATM   17  N   UNL     1      23.085  -0.093  17.152  1.00  0.00    -0.373 N 
HETATM   18  C   UNL     1      23.235  -1.223  16.497  1.00  0.00     0.088 A 
ATOM     19  HN  UNL     1      22.769   0.820  16.826  1.00  0.00     0.164 HD
HETATM   20  C   UNL     1      23.657  -2.308  16.926  1.00  0.00     0.026 A 
HETATM   21  C   UNL     1      24.040  -2.659  18.155  1.00  0.00    -0.033 A 
HETATM   22  C   UNL     1      24.544  -4.050  18.692  1.00  0.00     0.050 C 
ENDBRANCH  13  15
ENDBRANCH  10  11
ENDBRANCH   1  10
BRANCH   1  23
HETATM   23  C   UNL     1      23.710  -0.429  24.461  1.00  0.00    -0.006 C 
BRANCH  23  24
HETATM   24  C   UNL     1      22.764  -0.187  24.790  1.00  0.00    -0.002 C 
BRANCH  24  25
HETATM   25  C   UNL     1      22.047  -0.533  26.026  1.00  0.00    -0.001 C 
HETATM   26  C   UNL     1      20.863  -1.232  25.726  1.00  0.00    -0.010 C 
HETATM   27  C   UNL     1      20.421  -1.548  24.849  1.00  0.00     0.011 C 
ENDBRANCH  24  25
ENDBRANCH  23  24
ENDBRANCH   1  23
TORSDOF 9
ENDMDL
MODEL 6
REMARK VINA RESULT:    -6.459      2.758      6.713
REMARK INTER + INTRA:          -9.975
REMARK INTER:                  -8.730
REMARK INTRA:                  -1.245
REMARK UNBOUND:                -0.684
REMARK  9 active torsions:
REMARK  status: ('A' for Active; 'I' for Inactive)
REMARK    1  A    between atoms: S_2  and  N_5 
REMARK    2  A    between atoms: N_5  and  C_7 
REMARK    3  A    between atoms: C_8  and  C_9 
REMARK    4  A    between atoms: C_9  and  C_15 
REMARK    5  A    between atoms: C_9  and  C_10 
REMARK    6  A    between atoms: C_10  and  C_11 
REMARK    7  A    between atoms: C_11  and  C_12 
REMARK    8  A    between atoms: C_15  and  C_16 
REMARK       I    between atoms: C_16  and  N_18 
REMARK    9  A    between atoms: N_18  and  C_20 
ROOT
HETATM    1  C   UNL     1       7.729  -0.272  21.119  1.00  0.00     0.109 C 
ENDROOT
BRANCH   1   2
HETATM    2  C   UNL     1       8.911  -0.155  21.337  1.00  0.00     0.011 C 
HETATM    3  C   UNL     1       9.885   0.385  21.920  1.00  0.00     0.097 C 
BRANCH   3   4
HETATM    4  N   UNL     1      10.962   0.368  22.444  1.00  0.00    -0.296 N 
ATOM      5  HN  UNL     1      11.579   1.160  22.263  1.00  0.00     0.177 HD
BRANCH   4   6
HETATM    6  S   UNL     1      11.536  -0.819  23.430  1.00  0.00     0.226 S 
HETATM    7  C   UNL     1      12.722  -0.084  24.384  1.00  0.00     0.186 C 
HETATM    8  O   UNL     1      10.514  -1.326  24.324  1.00  0.00    -0.206 OA
HETATM    9  O   UNL     1      12.139  -1.905  22.703  1.00  0.00    -0.206 OA
ENDBRANCH   4   6
ENDBRANCH   3   4
ENDBRANCH   1   2
BRANCH   1  10
HETATM   10  C   UNL     1       7.525  -1.271  21.839  1.00  0.00    -0.071 C 
BRANCH  10  11
HETATM   11  C   UNL     1       7.332  -2.362  22.526  1.00  0.00     0.289 C 
HETATM   12  O   UNL     1       6.982  -3.242  21.928  1.00  0.00    -0.259 OA
HETATM   13  N   UNL     1       7.602  -2.271  23.805  1.00  0.00    -0.315 N 
ATOM     14  HN  UNL     1       7.918  -1.374  24.173  1.00  0.00     0.170 HD
BRANCH  13  15
HETATM   15  C   UNL     1       7.490  -3.234  24.595  1.00  0.00     0.057 A 
HETATM   16  C   UNL     1       8.261  -4.258  24.972  1.00  0.00     0.117 A 
HETATM   17  N   UNL     1       8.415  -5.260  25.614  1.00  0.00    -0.373 N 
HETATM   18  C   UNL     1       7.233  -5.341  26.185  1.00  0.00     0.088 A 
ATOM     19  HN  UNL     1       9.227  -5.872  25.694  1.00  0.00     0.164 HD
HETATM   20  C   UNL     1       6.280  -4.553  26.087  1.00  0.00     0.026 A 
HETATM   21  C   UNL     1       6.152  -3.438  25.365  1.00  0.00    -0.033 A 
HETATM   22  C   UNL     1       4.923  -2.465  25.227  1.00  0.00     0.050 C 
ENDBRANCH  13  15
ENDBRANCH  10  11
ENDBRANCH   1  10
BRANCH   1  23
HETATM   23  C   UNL     1       6.441   0.853  21.330  1.00  0.00    -0.006 C 
BRANCH  23  24
HETATM   24  C   UNL     1       6.142   1.544  20.627  1.00  0.00    -0.002 C 
BRANCH  24  25
HETATM   25  C   UNL     1       4.952   1.601  19.766  1.00  0.00    -0.001 C 
HETATM   26  C   UNL     1       5.277   1.203  18.455  1.00  0.00    -0.010 C 
HETATM   27  C   UNL     1       6.145   0.883  17.999  1.00  0.00     0.011 C 
ENDBRANCH  24  25
ENDBRANCH  23  24
ENDBRANCH   1  23
TORSDOF 9
ENDMDL
MODEL 7
REMARK VINA RESULT:    -6.370     22.264     26.005
REMARK INTER + INTRA:          -9.848
REMARK INTER:                  -8.494
REMARK INTRA:                  -1.354
REMARK UNBOUND:                -0.684
REMARK  9 active torsions:
REMARK  status: ('A' for Active; 'I' for Inactive)
REMARK    1  A    between atoms: S_2  and  N_5 
REMARK    2  A    between atoms: N_5  and  C_7 
REMARK    3  A    between atoms: C_8  and  C_9 
REMARK    4  A    between atoms: C_9  and  C_15 
REMARK    5  A    between atoms: C_9  and  C_10 
REMARK    6  A    between atoms: C_10  and  C_11 
REMARK    7  A    between atoms: C_11  and  C_12 
REMARK    8  A    between atoms: C_15  and  C_16 
REMARK       I    between atoms: C_16  and  N_18 
REMARK    9  A    between atoms: N_18  and  C_20 
ROOT
HETATM    1  C   UNL     1       8.878  17.053   1.613  1.00  0.00     0.109 C 
ENDROOT
BRANCH   1   2
HETATM    2  C   UNL     1       9.322  17.281   2.712  1.00  0.00     0.011 C 
HETATM    3  C   UNL     1       9.188  17.470   3.948  1.00  0.00     0.097 C 
BRANCH   3   4
HETATM    4  N   UNL     1       9.532  17.367   5.090  1.00  0.00    -0.296 N 
ATOM      5  HN  UNL     1       9.789  18.225   5.578  1.00  0.00     0.177 HD
BRANCH   4   6
HETATM    6  S   UNL     1       9.629  15.961   5.944  1.00  0.00     0.226 S 
HETATM    7  C   UNL     1      10.400  16.363   7.394  1.00  0.00     0.186 C 
HETATM    8  O   UNL     1       8.320  15.438   6.280  1.00  0.00    -0.206 OA
HETATM    9  O   UNL     1      10.408  14.955   5.273  1.00  0.00    -0.206 OA
ENDBRANCH   4   6
ENDBRANCH   3   4
ENDBRANCH   1   2
BRANCH   1  10
HETATM   10  C   UNL     1       8.441  15.906   1.845  1.00  0.00    -0.071 C 
BRANCH  10  11
HETATM   11  C   UNL     1       8.031  14.683   2.023  1.00  0.00     0.289 C 
HETATM   12  O   UNL     1       7.865  14.097   1.083  1.00  0.00    -0.259 OA
HETATM   13  N   UNL     1       7.901  14.314   3.274  1.00  0.00    -0.315 N 
ATOM     14  HN  UNL     1       8.104  14.995   4.005  1.00  0.00     0.170 HD
BRANCH  13  15
HETATM   15  C   UNL     1       7.538  13.166   3.612  1.00  0.00     0.057 A 
HETATM   16  C   UNL     1       8.135  11.981   3.770  1.00  0.00     0.117 A 
HETATM   17  N   UNL     1       8.068  10.810   4.025  1.00  0.00    -0.373 N 
HETATM   18  C   UNL     1       6.772  10.702   4.224  1.00  0.00     0.088 A 
ATOM     19  HN  UNL     1       8.802  10.104   4.073  1.00  0.00     0.164 HD
HETATM   20  C   UNL     1       5.914  11.598   4.188  1.00  0.00     0.026 A 
HETATM   21  C   UNL     1       6.033  12.896   3.908  1.00  0.00    -0.033 A 
HETATM   22  C   UNL     1       4.929  14.015   3.836  1.00  0.00     0.050 C 
ENDBRANCH  13  15
ENDBRANCH  10  11
ENDBRANCH   1  10
BRANCH   1  23
HETATM   23  C   UNL     1       7.722  17.923   0.677  1.00  0.00    -0.006 C 
BRANCH  23  24
HETATM   24  C   UNL     1       7.944  18.713   0.053  1.00  0.00    -0.002 C 
BRANCH  24  25
HETATM   25  C   UNL     1       7.537  20.125   0.093  1.00  0.00    -0.001 C 
HETATM   26  C   UNL     1       8.668  20.961   0.073  1.00  0.00    -0.010 C 
HETATM   27  C   UNL     1       9.685  20.789   0.027  1.00  0.00     0.011 C 
ENDBRANCH  24  25
ENDBRANCH  23  24
ENDBRANCH   1  23
TORSDOF 9
ENDMDL
MODEL 8
REMARK VINA RESULT:    -6.275      2.987      6.781
REMARK INTER + INTRA:          -9.710
REMARK INTER:                  -9.238
REMARK INTRA:                  -0.472
REMARK UNBOUND:                -0.684
REMARK  9 active torsions:
REMARK  status: ('A' for Active; 'I' for Inactive)
REMARK    1  A    between atoms: S_2  and  N_5 
REMARK    2  A    between atoms: N_5  and  C_7 
REMARK    3  A    between atoms: C_8  and  C_9 
REMARK    4  A    between atoms: C_9  and  C_15 
REMARK    5  A    between atoms: C_9  and  C_10 
REMARK    6  A    between atoms: C_10  and  C_11 
REMARK    7  A    between atoms: C_11  and  C_12 
REMARK    8  A    between atoms: C_15  and  C_16 
REMARK       I    between atoms: C_16  and  N_18 
REMARK    9  A    between atoms: N_18  and  C_20 
ROOT
HETATM    1  C   UNL     1       8.373  -1.001  21.400  1.00  0.00     0.109 C 
ENDROOT
BRANCH   1   2
HETATM    2  C   UNL     1       9.290  -0.966  22.185  1.00  0.00     0.011 C 
HETATM    3  C   UNL     1      10.457  -1.263  22.545  1.00  0.00     0.097 C 
BRANCH   3   4
HETATM    4  N   UNL     1      11.506  -1.030  23.075  1.00  0.00    -0.296 N 
ATOM      5  HN  UNL     1      12.293  -1.631  22.832  1.00  0.00     0.177 HD
BRANCH   4   6
HETATM    6  S   UNL     1      11.790   0.176  24.161  1.00  0.00     0.226 S 
HETATM    7  C   UNL     1      10.541   0.069  25.296  1.00  0.00     0.186 C 
HETATM    8  O   UNL     1      13.039  -0.015  24.871  1.00  0.00    -0.206 OA
HETATM    9  O   UNL     1      11.755   1.484  23.562  1.00  0.00    -0.206 OA
ENDBRANCH   4   6
ENDBRANCH   3   4
ENDBRANCH   1   2
BRANCH   1  10
HETATM   10  C   UNL     1       7.603  -1.716  22.075  1.00  0.00    -0.071 C 
BRANCH  10  11
HETATM   11  C   UNL     1       6.787  -2.508  22.712  1.00  0.00     0.289 C 
HETATM   12  O   UNL     1       6.002  -1.989  23.320  1.00  0.00    -0.259 OA
HETATM   13  N   UNL     1       6.992  -3.788  22.526  1.00  0.00    -0.315 N 
ATOM     14  HN  UNL     1       7.766  -4.075  21.926  1.00  0.00     0.170 HD
BRANCH  13  15
HETATM   15  C   UNL     1       6.283  -4.675  23.049  1.00  0.00     0.057 A 
HETATM   16  C   UNL     1       5.216  -5.390  22.679  1.00  0.00     0.117 A 
HETATM   17  N   UNL     1       4.374  -6.206  22.934  1.00  0.00    -0.373 N 
HETATM   18  C   UNL     1       4.703  -6.481  24.177  1.00  0.00     0.088 A 
ATOM     19  HN  UNL     1       3.621  -6.578  22.355  1.00  0.00     0.164 HD
HETATM   20  C   UNL     1       5.651  -6.029  24.837  1.00  0.00     0.026 A 
HETATM   21  C   UNL     1       6.575  -5.125  24.511  1.00  0.00    -0.033 A 
HETATM   22  C   UNL     1       7.755  -4.537  25.371  1.00  0.00     0.050 C 
ENDBRANCH  13  15
ENDBRANCH  10  11
ENDBRANCH   1  10
BRANCH   1  23
HETATM   23  C   UNL     1       7.474   0.280  20.680  1.00  0.00    -0.006 C 
BRANCH  23  24
HETATM   24  C   UNL     1       7.378   0.435  19.666  1.00  0.00    -0.002 C 
BRANCH  24  25
HETATM   25  C   UNL     1       6.522  -0.212  18.662  1.00  0.00    -0.001 C 
HETATM   26  C   UNL     1       5.365   0.556  18.436  1.00  0.00    -0.010 C 
HETATM   27  C   UNL     1       5.017   1.452  18.811  1.00  0.00     0.011 C 
ENDBRANCH  24  25
ENDBRANCH  23  24
ENDBRANCH   1  23
TORSDOF 9
ENDMDL
MODEL 9
REMARK VINA RESULT:    -6.257     14.398     16.311
REMARK INTER + INTRA:          -9.685
REMARK INTER:                  -8.824
REMARK INTRA:                  -0.861
REMARK UNBOUND:                -0.684
REMARK  9 active torsions:
REMARK  status: ('A' for Active; 'I' for Inactive)
REMARK    1  A    between atoms: S_2  and  N_5 
REMARK    2  A    between atoms: N_5  and  C_7 
REMARK    3  A    between atoms: C_8  and  C_9 
REMARK    4  A    between atoms: C_9  and  C_15 
REMARK    5  A    between atoms: C_9  and  C_10 
REMARK    6  A    between atoms: C_10  and  C_11 
REMARK    7  A    between atoms: C_11  and  C_12 
REMARK    8  A    between atoms: C_15  and  C_16 
REMARK       I    between atoms: C_16  and  N_18 
REMARK    9  A    between atoms: N_18  and  C_20 
ROOT
HETATM    1  C   UNL     1      23.577  -1.532  21.876  1.00  0.00     0.109 C 
ENDROOT
BRANCH   1   2
HETATM    2  C   UNL     1      24.416  -2.397  21.805  1.00  0.00     0.011 C 
HETATM    3  C   UNL     1      24.774  -3.603  21.816  1.00  0.00     0.097 C 
BRANCH   3   4
HETATM    4  N   UNL     1      25.443  -4.524  21.446  1.00  0.00    -0.296 N 
ATOM      5  HN  UNL     1      26.421  -4.534  21.736  1.00  0.00     0.177 HD
BRANCH   4   6
HETATM    6  S   UNL     1      24.925  -5.777  20.510  1.00  0.00     0.226 S 
HETATM    7  C   UNL     1      26.097  -5.959  19.306  1.00  0.00     0.186 C 
HETATM    8  O   UNL     1      24.868  -7.022  21.250  1.00  0.00    -0.206 OA
HETATM    9  O   UNL     1      23.658  -5.516  19.881  1.00  0.00    -0.206 OA
ENDBRANCH   4   6
ENDBRANCH   3   4
ENDBRANCH   1   2
BRANCH   1  10
HETATM   10  C   UNL     1      23.390  -1.381  20.650  1.00  0.00    -0.071 C 
BRANCH  10  11
HETATM   11  C   UNL     1      23.157  -1.153  19.389  1.00  0.00     0.289 C 
HETATM   12  O   UNL     1      22.075  -1.168  19.097  1.00  0.00    -0.259 OA
HETATM   13  N   UNL     1      24.218  -0.914  18.659  1.00  0.00    -0.315 N 
ATOM     14  HN  UNL     1      25.134  -0.940  19.108  1.00  0.00     0.170 HD
BRANCH  13  15
HETATM   15  C   UNL     1      24.161  -0.656  17.437  1.00  0.00     0.057 A 
HETATM   16  C   UNL     1      24.002   0.446  16.697  1.00  0.00     0.117 A 
HETATM   17  N   UNL     1      23.885   0.967  15.623  1.00  0.00    -0.373 N 
HETATM   18  C   UNL     1      23.932  -0.099  14.854  1.00  0.00     0.088 A 
ATOM     19  HN  UNL     1      23.778   1.951  15.377  1.00  0.00     0.164 HD
HETATM   20  C   UNL     1      24.097  -1.281  15.193  1.00  0.00     0.026 A 
HETATM   21  C   UNL     1      24.235  -1.820  16.405  1.00  0.00    -0.033 A 
HETATM   22  C   UNL     1      24.412  -3.327  16.822  1.00  0.00     0.050 C 
ENDBRANCH  13  15
ENDBRANCH  10  11
ENDBRANCH   1  10
BRANCH   1  23
HETATM   23  C   UNL     1      22.059  -1.518  22.688  1.00  0.00    -0.006 C 
BRANCH  23  24
HETATM   24  C   UNL     1      21.928  -1.316  23.690  1.00  0.00    -0.002 C 
BRANCH  24  25
HETATM   25  C   UNL     1      20.716  -1.262  24.520  1.00  0.00    -0.001 C 
HETATM   26  C   UNL     1      21.052  -1.001  25.862  1.00  0.00    -0.010 C 
HETATM   27  C   UNL     1      21.942  -0.836  26.357  1.00  0.00     0.011 C 
ENDBRANCH  24  25
ENDBRANCH  23  24
ENDBRANCH   1  23
TORSDOF 9
ENDMDL
