stable:False satoms:10 tatoms:24 sratio:0.4166666666666667
  -OEChem-07092417503D

 24 24  0     1  0  0  0  0  0999 V2000
    6.6118   -4.8763   26.4265 C   0  0  0  0  0  0  0  0  0  0  0  0
    8.1784   -4.3209   26.1149 S   0  0  0  0  0  0  0  0  0  0  0  0
    9.0493   -5.4785   26.0806 O   0  0  0  0  0  0  0  0  0  0  0  0
    8.5717   -3.4361   27.1788 O   0  0  0  0  0  0  0  0  0  0  0  0
    8.0965   -3.5651   24.6541 N   0  0  0  0  0  0  0  0  0  0  0  0
    8.9804   -2.9428   24.1369 C   0  0  0  0  0  0  0  0  0  0  0  0
    9.4402   -1.9584   23.5052 C   0  0  0  0  0  0  0  0  0  0  0  0
   10.3023   -1.1435   23.2780 C   0  0  2  0  0  0  0  0  0  0  0  0
   11.0413    0.0139   24.3183 C   0  0  0  0  0  0  0  0  0  0  0  0
   12.0326    0.2900   24.2822 C   0  0  0  0  0  0  0  0  0  0  0  0
   13.1450   -0.1899   23.4489 C   0  0  0  0  0  0  0  0  0  0  0  0
   12.7257   -1.2667   22.6459 C   0  0  0  0  0  0  0  0  0  0  0  0
   11.8275   -1.7605   22.5218 C   0  0  0  0  0  0  0  0  0  0  0  0
    9.7257   -0.5481   22.3428 C   0  0  0  0  0  0  0  0  0  0  0  0
    9.0529    0.0513   21.4017 C   0  0  0  0  0  0  0  0  0  0  0  0
    9.5271    0.9837   21.0023 O   0  0  0  0  0  0  0  0  0  0  0  0
    7.9386   -0.5415   21.0481 N   0  0  0  0  0  0  0  0  0  0  0  0
    7.1918   -0.1039   20.1460 C   0  0  0  0  0  0  0  0  0  0  0  0
    7.2516   -0.0122   18.8138 C   0  0  0  0  0  0  0  0  0  0  0  0
    6.7683    0.3440   17.7752 N   0  0  0  0  0  0  0  0  0  0  0  0
    5.6701    0.9107   18.2264 C   0  0  0  0  0  0  0  0  0  0  0  0
    5.2735    0.9890   19.3995 C   0  0  0  0  0  0  0  0  0  0  0  0
    5.8406    0.5686   20.5310 C   0  0  0  0  0  0  0  0  0  0  0  0
    5.3412    0.7029   22.0175 C   0  0  0  0  0  0  0  0  0  0  0  0
 20 21  2  0  0  0  0
 19 20  1  0  0  0  0
 21 22  1  0  0  0  0
 18 19  2  0  0  0  0
 22 23  2  0  0  0  0
 18 23  1  0  0  0  0
 17 18  1  0  0  0  0
 23 24  1  0  0  0  0
 15 16  2  0  0  0  0
 15 17  1  0  0  0  0
 14 15  1  0  0  0  0
  8 14  1  0  0  0  0
 12 13  2  0  0  0  0
 11 12  1  0  0  0  0
  7  8  1  0  0  0  0
  8  9  1  0  0  0  0
 10 11  1  0  0  0  0
  6  7  2  3  0  0  0
  5  6  1  0  0  0  0
  9 10  2  0  0  0  0
  2  5  1  0  0  0  0
  2  3  2  0  0  0  0
  1  2  1  0  0  0  0
  2  4  2  0  0  0  0
M  END
> <Shapegauss>
-286.801147

$$$$
