stable:False satoms:5 tatoms:24 sratio:0.20833333333333334
  -OEChem-07092417443D

 24 24  0     0  0  0  0  0  0999 V2000
    6.5433   -4.8494   26.4798 C   0  0  0  0  0  0  0  0  0  0  0  0
    8.2641   -4.2755   26.1040 S   0  0  0  0  0  0  0  0  0  0  0  0
    9.0835   -5.4421   26.0425 O   0  0  0  0  0  0  0  0  0  0  0  0
    8.6146   -3.3898   27.1464 O   0  0  0  0  0  0  0  0  0  0  0  0
    8.0917   -3.5646   24.6626 N   0  0  0  0  0  0  0  0  0  0  0  0
    8.9640   -2.8979   24.1868 C   0  0  0  0  0  0  0  0  0  0  0  0
    9.4075   -1.9969   23.6459 C   0  0  0  0  0  0  0  0  0  0  0  0
   10.0951   -0.9641   23.3920 C   0  0  0  0  0  0  0  0  0  0  0  0
   11.0554   -0.0379   24.1940 C   0  0  0  0  0  0  0  0  0  0  0  0
   12.0780    0.2500   24.1881 C   0  0  0  0  0  0  0  0  0  0  0  0
   13.1314   -0.3225   23.3656 C   0  0  0  0  0  0  0  0  0  0  0  0
   12.7549   -1.2705   22.6645 C   0  0  0  0  0  0  0  0  0  0  0  0
   12.1271   -1.8504   22.3266 C   0  0  0  0  0  0  0  0  0  0  0  0
    9.7016   -0.5688   22.3464 C   0  0  0  0  0  0  0  0  0  0  0  0
    9.0556    0.0382   21.3752 C   0  0  0  0  0  0  0  0  0  0  0  0
    9.5612    0.9745   20.9489 O   0  0  0  0  0  0  0  0  0  0  0  0
    7.8785   -0.5574   21.1502 N   0  0  0  0  0  0  0  0  0  0  0  0
    7.1641   -0.0704   20.2247 C   0  0  0  0  0  0  0  0  0  0  0  0
    7.2067    0.0343   18.9257 C   0  0  0  0  0  0  0  0  0  0  0  0
    6.7523    0.3809   17.7916 N   0  0  0  0  0  0  0  0  0  0  0  0
    5.6423    0.8625   18.2818 C   0  0  0  0  0  0  0  0  0  0  0  0
    5.2667    0.9570   19.4188 C   0  0  0  0  0  0  0  0  0  0  0  0
    5.8048    0.5781   20.5981 C   0  0  0  0  0  0  0  0  0  0  0  0
    5.3398    0.6924   21.8368 C   0  0  0  0  0  0  0  0  0  0  0  0
 20 21  2  0  0  0  0
 19 20  1  0  0  0  0
 21 22  1  0  0  0  0
 18 19  2  0  0  0  0
 22 23  2  0  0  0  0
 18 23  1  0  0  0  0
 17 18  1  0  0  0  0
 23 24  1  0  0  0  0
 15 16  2  0  0  0  0
 15 17  1  0  0  0  0
 14 15  1  0  0  0  0
 12 13  2  0  0  0  0
  8 14  2  3  0  0  0
 11 12  1  0  0  0  0
 10 11  1  0  0  0  0
  7  8  1  0  0  0  0
  8  9  1  0  0  0  0
  6  7  3  0  0  0  0
  5  6  1  0  0  0  0
  9 10  2  0  0  0  0
  2  5  1  0  0  0  0
  2  3  2  0  0  0  0
  1  2  1  0  0  0  0
  2  4  2  0  0  0  0
M  END
> <Shapegauss>
-284.245575

$$$$
