stable:False satoms:5 tatoms:24 sratio:0.20833333333333334
  -OEChem-08062414453D

 43 43  0     0  0  0  0  0  0999 V2000
    6.3069   -5.1283   26.3047 C   0  0  0  0  0  0  0  0  0  0  0  0
    8.0374   -4.5105   26.0693 S   0  0  0  0  0  0  0  0  0  0  0  0
    8.8813   -5.6597   26.0136 O   0  0  0  0  0  0  0  0  0  0  0  0
    8.3011   -3.6652   27.1693 O   0  0  0  0  0  0  0  0  0  0  0  0
    7.9470   -3.7407   24.6509 N   0  0  0  0  0  0  0  0  0  0  0  0
    8.8358   -3.0397   24.2630 C   0  0  0  0  0  0  0  0  0  0  0  0
    9.2967   -2.1090   23.7915 C   0  0  0  0  0  0  0  0  0  0  0  0
    9.9796   -1.0550   23.6279 C   0  0  0  0  0  0  0  0  0  0  0  0
   10.8668   -0.1489   24.5307 C   0  0  0  0  0  0  0  0  0  0  0  0
   11.8818    0.1557   24.6053 C   0  0  0  0  0  0  0  0  0  0  0  0
   12.9981   -0.3632   23.8316 C   0  0  0  0  0  0  0  0  0  0  0  0
   12.6870   -1.2860   23.0676 C   0  0  0  0  0  0  0  0  0  0  0  0
   12.0942   -1.8609   22.6643 C   0  0  0  0  0  0  0  0  0  0  0  0
    9.6485   -0.6213   22.5759 C   0  0  0  0  0  0  0  0  0  0  0  0
    9.0566    0.0166   21.5902 C   0  0  0  0  0  0  0  0  0  0  0  0
    9.5711    0.9787   21.2385 O   0  0  0  0  0  0  0  0  0  0  0  0
    7.9086   -0.5879   21.2621 N   0  0  0  0  0  0  0  0  0  0  0  0
    7.2477   -0.0730   20.3123 C   0  0  0  0  0  0  0  0  0  0  0  0
    7.3740    0.0887   19.0246 C   0  0  0  0  0  0  0  0  0  0  0  0
    6.9889    0.4766   17.8783 N   0  0  0  0  0  0  0  0  0  0  0  0
    5.8399    0.9183   18.3131 C   0  0  0  0  0  0  0  0  0  0  0  0
    5.3883    0.9572   19.4254 C   0  0  0  0  0  0  0  0  0  0  0  0
    5.8544    0.5364   20.6210 C   0  0  0  0  0  0  0  0  0  0  0  0
    5.3065    0.5892   21.8296 C   0  0  0  0  0  0  0  0  0  0  0  0
    6.2397   -5.6794   27.2543 H   0  0  0  0  0  0  0  0  0  0  0  0
    5.6129   -4.2751   26.3263 H   0  0  0  0  0  0  0  0  0  0  0  0
    6.0401   -5.7970   25.4731 H   0  0  0  0  0  0  0  0  0  0  0  0
    7.1311   -3.1640   24.6942 H   0  0  0  0  0  0  0  0  0  0  0  0
   10.2754    0.3043   25.3125 H   0  0  0  0  0  0  0  0  0  0  0  0
   12.1067    0.9270   25.3271 H   0  0  0  0  0  0  0  0  0  0  0  0
   13.7627   -0.7336   24.5304 H   0  0  0  0  0  0  0  0  0  0  0  0
   13.4167    0.4583   23.2318 H   0  0  0  0  0  0  0  0  0  0  0  0
   13.6349   -1.5747   22.6379 H   0  0  0  0  0  0  0  0  0  0  0  0
   12.4493   -2.5899   21.9510 H   0  0  0  0  0  0  0  0  0  0  0  0
   11.0424   -1.8074   22.9037 H   0  0  0  0  0  0  0  0  0  0  0  0
   10.3870   -1.1361   21.9793 H   0  0  0  0  0  0  0  0  0  0  0  0
    7.5888   -1.4046   21.7424 H   0  0  0  0  0  0  0  0  0  0  0  0
    8.3396   -0.3495   18.8197 H   0  0  0  0  0  0  0  0  0  0  0  0
    5.1889    1.3133   17.5472 H   0  0  0  0  0  0  0  0  0  0  0  0
    4.4147    1.4216   19.4804 H   0  0  0  0  0  0  0  0  0  0  0  0
    4.7170   -0.3227   22.0057 H   0  0  0  0  0  0  0  0  0  0  0  0
    6.0992    0.6655   22.5884 H   0  0  0  0  0  0  0  0  0  0  0  0
    4.6494    1.4689   21.8960 H   0  0  0  0  0  0  0  0  0  0  0  0
 20 21  2  0  0  0  0
 19 20  1  0  0  0  0
 21 22  1  0  0  0  0
 18 19  2  0  0  0  0
 22 23  2  0  0  0  0
 18 23  1  0  0  0  0
 17 18  1  0  0  0  0
 23 24  1  0  0  0  0
 15 16  2  0  0  0  0
 15 17  1  0  0  0  0
 14 15  1  0  0  0  0
 12 13  2  0  0  0  0
  8 14  2  3  0  0  0
 11 12  1  0  0  0  0
 10 11  1  0  0  0  0
  7  8  1  0  0  0  0
  8  9  1  0  0  0  0
  6  7  3  0  0  0  0
  5  6  1  0  0  0  0
  9 10  2  0  0  0  0
  2  5  1  0  0  0  0
  2  3  2  0  0  0  0
  1  2  1  0  0  0  0
  2  4  2  0  0  0  0
  1 25  1  0  0  0  0
  1 26  1  0  0  0  0
  1 27  1  0  0  0  0
  5 28  1  0  0  0  0
  9 29  1  0  0  0  0
 10 30  1  0  0  0  0
 11 31  1  0  0  0  0
 11 32  1  0  0  0  0
 12 33  1  0  0  0  0
 13 34  1  0  0  0  0
 13 35  1  0  0  0  0
 14 36  1  0  0  0  0
 17 37  1  0  0  0  0
 19 38  1  0  0  0  0
 21 39  1  0  0  0  0
 22 40  1  0  0  0  0
 24 41  1  0  0  0  0
 24 42  1  0  0  0  0
 24 43  1  0  0  0  0
M  END
> <Chemgauss4>
-12.892334

$$$$
