stable:False satoms:15 tatoms:24 sratio:0.625
  -OEChem-07092417383D

 24 23  0     1  0  0  0  0  0999 V2000
    7.1492   -4.8312   26.1228 H   0  0  0  0  0  0  0  0  0  0  0  0
    8.2055   -4.4558   26.0521 C   0  0  0  0  0  0  0  0  0  0  0  0
    8.8819   -5.3230   26.1851 H   0  0  0  0  0  0  0  0  0  0  0  0
    8.4142   -3.7518   26.8783 H   0  0  0  0  0  0  0  0  0  0  0  0
    8.3439   -3.8228   24.7843 N   0  3  0  0  0  0  0  0  0  0  0  0
    9.0947   -3.0010   24.4020 C   0  0  0  0  0  0  0  0  0  0  0  0
    8.6039   -0.7918   22.6665 N   0  0  0  0  0  0  0  0  0  0  0  0
   10.9906   -0.5009   22.9556 C   0  0  0  0  0  0  0  0  0  0  0  0
    9.8884   -1.0192   23.1974 C   0  0  0  0  0  0  0  0  0  0  0  0
   12.4212    0.0155   24.2601 H   0  0  0  0  0  0  0  0  0  0  0  0
   12.2880   -0.6833   23.4283 C   0  0  0  0  0  0  0  0  0  0  0  0
   13.0353   -0.5294   22.6943 H   0  0  0  0  0  0  0  0  0  0  0  0
   12.3076   -1.7466   23.7049 H   0  0  0  0  0  0  0  0  0  0  0  0
    9.6946   -2.0720   23.9067 C   0  0  0  0  0  0  0  0  0  0  0  0
    9.8715    0.3241   21.5242 H   0  0  0  0  0  0  0  0  0  0  0  0
    9.1454    0.6938   20.9974 O   0  0  0  0  0  0  0  0  0  0  0  0
    8.2499   -0.0499   21.6215 C   0  0  3  0  0  0  0  0  0  0  0  0
    6.8883    0.2913   20.0523 C   0  0  0  0  0  0  0  0  0  0  0  0
    6.6445    0.4280   18.8675 C   0  0  0  0  0  0  0  0  0  0  0  0
    6.0217    0.6191   17.0646 H   0  0  0  0  0  0  0  0  0  0  0  0
    5.9105    0.7508   18.0917 C   0  0  0  0  0  0  0  0  0  0  0  0
    4.6516    1.3815   18.9087 Cl  0  0  0  0  0  0  0  0  0  0  0  0
    6.8703    0.2634   21.1933 C   0  0  0  0  0  0  0  0  0  0  0  0
    6.0116    0.5211   21.7371 H   0  0  0  0  0  0  0  0  0  0  0  0
 20 21  1  0  0  0  0
 19 21  2  0  0  0  0
 21 22  1  0  0  0  0
 18 19  1  0  0  0  0
 18 23  2  0  0  0  0
 15 16  1  0  0  0  0
 16 17  1  0  0  0  0
 17 23  1  0  0  0  0
 23 24  1  0  0  0  0
  7 17  1  0  0  0  0
  7  9  1  0  0  0  0
 11 12  1  0  0  0  0
  8  9  2  0  0  0  0
  8 11  1  0  0  0  0
  9 14  1  0  0  0  0
 11 13  1  0  0  0  0
 10 11  1  0  0  0  0
  6 14  3  0  0  0  0
  5  6  1  0  0  0  0
  2  5  1  0  0  0  0
  1  2  1  0  0  0  0
  2  3  1  0  0  0  0
  2  4  1  0  0  0  0
M  CHG  1   5   1
M  END
> <Shapegauss>
-181.985397

$$$$
