REMARK  7 active torsions:
REMARK  status: ('A' for Active; 'I' for Inactive)
REMARK    1  A    between atoms: S_2  and  N_5 
REMARK    2  A    between atoms: N_5  and  C_7 
REMARK    3  A    between atoms: C_7  and  C_8 
REMARK    4  A    between atoms: C_8  and  C_9 
REMARK    5  A    between atoms: C_9  and  C_15 
REMARK    6  A    between atoms: C_15  and  C_16 
REMARK       I    between atoms: C_16  and  N_18 
REMARK    7  A    between atoms: N_18  and  C_20 
ROOT
HETATM    1  C   UNL     1      10.308  -1.147  23.235  1.00  0.00     0.068 C 
HETATM    2  C   UNL     1      11.052  -0.063  24.279  1.00  0.00     0.000 C 
HETATM    3  C   UNL     1      12.152   0.246  24.252  1.00  0.00    -0.002 C 
HETATM    4  C   UNL     1      13.134  -0.208  23.538  1.00  0.00    -0.001 C 
HETATM    5  C   UNL     1      12.736  -1.310  22.640  1.00  0.00    -0.002 C 
HETATM    6  C   UNL     1      11.822  -1.717  22.507  1.00  0.00     0.000 C 
ENDROOT
BRANCH   1   7
HETATM    7  C   UNL     1       9.404  -1.998  23.512  1.00  0.00     0.135 C 
BRANCH   7   8
HETATM    8  C   UNL     1       8.915  -2.884  24.129  1.00  0.00    -0.058 C 
BRANCH   8   9
HETATM    9  N   UNL     1       8.093  -3.549  24.662  1.00  0.00    -0.254 N 
ATOM     10  HN  UNL     1       7.207  -3.660  24.169  1.00  0.00     0.188 HD
BRANCH   9  11
HETATM   11  S   UNL     1       8.223  -4.299  26.085  1.00  0.00     0.233 S 
HETATM   12  C   UNL     1       6.563  -4.862  26.439  1.00  0.00     0.186 C 
HETATM   13  O   UNL     1       9.070  -5.457  26.013  1.00  0.00    -0.206 OA
HETATM   14  O   UNL     1       8.584  -3.421  27.130  1.00  0.00    -0.206 OA
ENDBRANCH   9  11
ENDBRANCH   8   9
ENDBRANCH   7   8
ENDBRANCH   1   7
BRANCH   1  15
HETATM   15  C   UNL     1       9.704  -0.556  22.342  1.00  0.00    -0.064 C 
BRANCH  15  16
HETATM   16  C   UNL     1       9.065   0.057  21.399  1.00  0.00     0.290 C 
HETATM   17  O   UNL     1       9.595   0.980  20.985  1.00  0.00    -0.259 OA
HETATM   18  N   UNL     1       7.900  -0.540  21.096  1.00  0.00    -0.314 N 
ATOM     19  HN  UNL     1       7.604  -1.371  21.607  1.00  0.00     0.170 HD
BRANCH  18  20
HETATM   20  C   UNL     1       7.194  -0.084  20.204  1.00  0.00     0.072 A 
HETATM   21  C   UNL     1       7.236   0.007  18.863  1.00  0.00     0.119 A 
HETATM   22  N   UNL     1       6.846   0.307  17.811  1.00  0.00    -0.373 N 
HETATM   23  C   UNL     1       5.644   0.911  18.261  1.00  0.00     0.089 A 
ATOM     24  HN  UNL     1       7.236   0.179  16.877  1.00  0.00     0.164 HD
HETATM   25  C   UNL     1       5.274   0.973  19.390  1.00  0.00     0.043 A 
HETATM   26  C   UNL     1       5.813   0.595  20.544  1.00  0.00     0.063 A 
HETATM   27 CL   UNL     1       5.258   0.731  21.981  1.00  0.00    -0.082 Cl
ENDBRANCH  18  20
ENDBRANCH  15  16
ENDBRANCH   1  15
TORSDOF 7
