REMARK  4 active torsions:
REMARK  status: ('A' for Active; 'I' for Inactive)
REMARK    1  A    between atoms: C_2  and  C_4 
REMARK       I    between atoms: C_4  and  N_10 
REMARK    2  A    between atoms: O_7  and  N_13 
REMARK    3  A    between atoms: N_10  and  N_13 
REMARK    4  A    between atoms: O_12  and  C_21 
ROOT
HETATM    1  O   UNL     1       8.773  -1.196  19.358  1.00  0.00    -0.401 OA
HETATM    2  H   UNL     1       7.974  -0.838  19.816  1.00  0.00     0.209 HD
ENDROOT
BRANCH   1   3
HETATM    3  C   UNL     1       9.623  -0.211  19.219  1.00  0.00     0.159 C 
HETATM    4  C   UNL     1      10.861  -0.194  19.967  1.00  0.00     0.033 C 
ENDBRANCH   1   3
TORSDOF 4
