stable:False satoms:17 tatoms:24 sratio:0.7083333333333334
  -OEChem-07092417293D

 24 23  0     1  0  0  0  0  0999 V2000
    8.3938   -1.6092   26.1745 C   0  0  0  0  0  0  0  0  0  0  0  0
   10.6838   -0.6163   20.9576 H   0  0  0  0  0  0  0  0  0  0  0  0
    8.1588   -1.2168   23.8726 C   0  0  3  0  0  0  0  0  0  0  0  0
    7.4142    1.0456   23.5411 O   0  0  0  0  0  0  0  0  0  0  0  0
    8.1171   -3.4536   27.2236 H   0  0  0  0  0  0  0  0  0  0  0  0
    9.4044    0.6020   18.5496 H   0  0  0  0  0  0  0  0  0  0  0  0
    7.8436    0.0120   23.0587 C   0  0  0  0  0  0  0  0  0  0  0  0
    8.1369   -3.0057   26.2431 C   0  0  0  0  0  0  0  0  0  0  0  0
    7.9635   -3.6688   23.9700 C   0  0  0  0  0  0  0  0  0  0  0  0
    8.4935    1.7056   20.6029 O   0  0  0  0  0  0  0  0  0  0  0  0
   11.6152   -0.7833   19.4546 H   0  0  0  0  0  0  0  0  0  0  0  0
   11.2415    0.8135   20.1018 H   0  0  0  0  0  0  0  0  0  0  0  0
   10.8608   -0.1940   19.9666 C   0  0  0  0  0  0  0  0  0  0  0  0
    8.0213   -0.1704   21.7586 N   0  0  0  0  0  0  0  0  0  0  0  0
    7.8578   -4.6024   23.4147 H   0  0  0  0  0  0  0  0  0  0  0  0
    8.7730   -1.1960   19.3578 O   0  0  0  0  0  0  0  0  0  0  0  0
    7.7410    0.9005   21.0790 N   0  0  0  0  0  0  0  0  0  0  0  0
    8.6117   -1.0890   27.0970 H   0  0  0  0  0  0  0  0  0  0  0  0
    8.0911   -2.4724   23.2696 C   0  0  0  0  0  0  0  0  0  0  0  0
    7.9740   -0.8383   19.8157 H   0  0  0  0  0  0  0  0  0  0  0  0
    8.1666   -2.5234   22.1797 H   0  0  0  0  0  0  0  0  0  0  0  0
    7.9484   -3.8450   25.2741 N   0  0  0  0  0  0  0  0  0  0  0  0
    8.4495   -0.8742   25.1153 N   0  0  0  0  0  0  0  0  0  0  0  0
    9.6227   -0.2106   19.2186 C   0  3  0  0  0  0  0  0  0  0  0  0
  6 24  1  0  0  0  0
 16 24  1  0  0  0  0
 13 24  1  0  0  0  0
 16 20  1  0  0  0  0
 11 13  1  0  0  0  0
 12 13  1  0  0  0  0
  2 13  1  0  0  0  0
 10 17  1  0  0  0  0
 14 17  2  3  0  0  0
  7 14  1  0  0  0  0
 19 21  1  0  0  0  0
  4  7  2  0  0  0  0
  3  7  1  0  0  0  0
  3 19  1  0  0  0  0
  9 19  2  0  0  0  0
  9 15  1  0  0  0  0
  3 23  1  0  0  0  0
  9 22  1  0  0  0  0
  1 23  2  0  0  0  0
  8 22  2  0  0  0  0
  1  8  1  0  0  0  0
  1 18  1  0  0  0  0
  5  8  1  0  0  0  0
M  CHG  1  24   1
M  END
> <Shapegauss>
-99.967232

$$$$
