REMARK  5 active torsions:
REMARK  status: ('A' for Active; 'I' for Inactive)
REMARK    1  A    between atoms: S_2  and  N_5 
REMARK    2  A    between atoms: N_5  and  C_7 
REMARK    3  A    between atoms: C_7  and  C_8 
REMARK    4  A    between atoms: C_14  and  C_15 
REMARK       I    between atoms: C_15  and  N_17 
REMARK    5  A    between atoms: C_19  and  C_23 
ROOT
HETATM    1  C   UNL     1       9.124   0.161  21.359  1.00  0.00     0.253 C 
HETATM    2  O   UNL     1       9.516   1.187  21.039  1.00  0.00    -0.268 OA
HETATM    3  N   UNL     1       7.984  -0.468  21.045  1.00  0.00    -0.314 N 
ATOM      4  HN  UNL     1       7.790  -1.371  21.477  1.00  0.00     0.170 HD
HETATM    5  C   UNL     1       7.110   0.026  20.208  1.00  0.00     0.123 C 
HETATM    6  C   UNL     1       7.114   0.097  18.764  1.00  0.00     0.118 C 
HETATM    7  N   UNL     1       7.281   0.087  17.664  1.00  0.00    -0.190 NA
ENDROOT
BRANCH   5   8
HETATM    8  C   UNL     1       5.861   0.564  20.442  1.00  0.00     0.080 C 
HETATM    9  C   UNL     1       5.446   0.886  19.259  1.00  0.00    -0.044 C 
ENDBRANCH   5   8
BRANCH   1  10
HETATM   10  C   UNL     1       9.942  -0.683  22.186  1.00  0.00     0.021 A 
HETATM   11  C   UNL     1      10.183  -1.462  23.041  1.00  0.00    -0.033 A 
HETATM   12  C   UNL     1       9.253  -2.157  23.783  1.00  0.00     0.083 C 
HETATM   13  C   UNL     1      11.171  -1.531  22.580  1.00  0.00     0.084 A 
BRANCH  12  14
HETATM   14  C   UNL     1       8.836  -2.951  24.256  1.00  0.00    -0.030 C 
BRANCH  14  15
HETATM   15  N   UNL     1       8.115  -3.811  24.699  1.00  0.00    -0.236 N 
ATOM     16  HN  UNL     1       7.377  -4.183  24.101  1.00  0.00     0.189 HD
BRANCH  15  17
HETATM   17  S   UNL     1       8.263  -4.400  26.191  1.00  0.00     0.327 S 
HETATM   18 CL   UNL     1       6.462  -5.023  26.444  1.00  0.00     0.042 Cl
HETATM   19  O   UNL     1       9.121  -5.533  26.235  1.00  0.00    -0.188 OA
HETATM   20  O   UNL     1       8.522  -3.430  27.150  1.00  0.00    -0.188 OA
ENDBRANCH  15  17
ENDBRANCH  14  15
ENDBRANCH  12  14
ENDBRANCH   1  10
TORSDOF 5
