stable:False satoms:18 tatoms:24 sratio:0.75
  -OEChem-08052417113D

 28 28  0     1  0  0  0  0  0999 V2000
   -7.6649   -4.0585  -21.7839 O   0  5  0  0  0  0  0  0  0  0  0  0
  -10.4298   -1.5551  -23.5996 O   0  0  0  0  0  0  0  0  0  0  0  0
   -6.9144   -4.1899  -24.2165 O   0  0  0  0  0  0  0  0  0  0  0  0
   -7.6137   -1.1803  -21.1914 C   0  0  0  0  0  0  0  0  0  0  0  0
   -6.5547   -3.4826  -21.7134 C   0  0  0  0  0  0  0  0  0  0  0  0
   -9.0773   -3.4655  -24.5461 N   0  0  0  0  0  0  0  0  0  0  0  0
   -6.5287   -2.0648  -21.1975 C   0  0  3  0  0  0  0  0  0  0  0  0
   -7.3306   -5.4759  -26.5211 C   0  0  0  0  0  0  0  0  0  0  0  0
   -6.2193   -5.8348  -25.6960 C   0  0  0  0  0  0  0  0  0  0  0  0
   -5.3700   -1.7141  -20.6086 O   0  0  0  0  0  0  0  0  0  0  0  0
   -8.8609   -1.2499  -21.7645 C   0  0  0  0  0  0  0  0  0  0  0  0
   -7.3692    0.2113  -20.1413 Cl  0  0  0  0  0  0  0  0  0  0  0  0
   -9.6570   -0.6546  -21.2812 H   0  0  0  0  0  0  0  0  0  0  0  0
   -7.2338   -7.1031  -27.4956 H   0  0  0  0  0  0  0  0  0  0  0  0
   -7.7869   -6.2705  -27.4642 N   0  0  0  0  0  0  0  0  0  0  0  0
   -9.4768   -1.9347  -22.9578 C   0  0  0  0  0  0  0  0  0  0  0  0
   -5.4786   -3.9932  -21.9978 O   0  0  0  0  0  0  0  0  0  0  0  0
   -7.9298   -4.2858  -26.2987 N   0  3  0  0  0  0  0  0  0  0  0  0
   -6.0558   -5.1889  -24.5352 C   0  0  0  0  0  2  0  0  0  0  0  0
   -5.5719   -6.6260  -26.0156 H   0  0  0  0  0  0  0  0  0  0  0  0
   -8.9875   -3.0555  -23.3627 N   0  0  0  0  0  0  0  0  0  0  0  0
   -5.1172   -0.8841  -21.0317 H   0  0  0  0  0  0  0  0  0  0  0  0
   -7.9810   -4.0128  -25.0322 C   0  0  3  0  0  0  0  0  0  0  0  0
   -6.1856   -1.6861  -22.1716 H   0  0  0  0  0  0  0  0  0  0  0  0
   -8.7378   -6.5093  -27.2675 H   0  0  0  0  0  0  0  0  0  0  0  0
   -8.8606   -4.3167  -26.6630 H   0  0  0  0  0  0  0  0  0  0  0  0
   -8.3538   -5.0222  -24.8039 H   0  0  0  0  0  0  0  0  0  0  0  0
   -7.4127   -3.5685  -26.7657 H   0  0  0  0  0  0  0  0  0  0  0  0
 10 22  1  0  0  0  0
  4 12  1  0  0  0  0
  7 10  1  0  0  0  0
  4  7  1  0  0  0  0
  4 11  2  0  0  0  0
  5  7  1  0  0  0  0
 11 13  1  0  0  0  0
 11 16  1  0  0  0  0
  5 17  2  0  0  0  0
  2 16  2  0  0  0  0
 16 21  1  0  0  0  0
  1  5  1  0  0  0  0
  6 21  2  3  0  0  0
  3 23  1  0  0  0  0
  3 19  1  0  0  0  0
  6 23  1  0  0  0  0
 18 23  1  0  0  0  0
  9 19  1  0  0  0  0
  8 18  1  0  0  0  0
  8  9  2  0  0  0  0
  9 20  1  0  0  0  0
  8 15  1  0  0  0  0
 14 15  1  0  0  0  0
  7 24  1  0  0  0  0
 15 25  1  0  0  0  0
 18 26  1  0  0  0  0
 23 27  1  0  0  0  0
 18 28  1  0  0  0  0
M  CHG  2   1  -1  18   1
M  END
> <Chemgauss4>
-5.715360

$$$$
