stable:False satoms:18 tatoms:24 sratio:0.75
  -OEChem-08052417113D

 28 28  0     1  0  0  0  0  0999 V2000
   10.0422   -0.2447   21.6838 O   0  5  0  0  0  0  0  0  0  0  0  0
    8.5043   -2.9228   24.4535 O   0  0  0  0  0  0  0  0  0  0  0  0
    7.5563   -0.1431   21.1286 O   0  0  0  0  0  0  0  0  0  0  0  0
   10.1466    0.4186   24.5451 C   0  0  0  0  0  0  0  0  0  0  0  0
    9.7758    0.9277   22.0356 C   0  0  0  0  0  0  0  0  0  0  0  0
    7.5985   -2.1729   22.2192 N   0  0  0  0  0  0  0  0  0  0  0  0
   10.0427    1.3099   23.4708 C   0  0  3  0  0  0  0  0  0  0  0  0
    5.6318   -1.3137   19.6919 C   0  0  0  0  0  0  0  0  0  0  0  0
    6.2394   -0.1085   19.2200 C   0  0  0  0  0  0  0  0  0  0  0  0
   10.3004    2.6185   23.6534 O   0  0  0  0  0  0  0  0  0  0  0  0
    9.8791   -0.9250   24.6554 C   0  0  0  0  0  0  0  0  0  0  0  0
   10.8842    1.1359   25.9736 Cl  0  0  0  0  0  0  0  0  0  0  0  0
   10.4247   -1.4707   25.4465 H   0  0  0  0  0  0  0  0  0  0  0  0
    4.9295   -1.7248   17.9759 H   0  0  0  0  0  0  0  0  0  0  0  0
    4.9494   -2.1099   18.8986 N   0  0  0  0  0  0  0  0  0  0  0  0
    8.9734   -1.9169   23.9714 C   0  0  0  0  0  0  0  0  0  0  0  0
    9.3468    1.8035   21.2950 O   0  0  0  0  0  0  0  0  0  0  0  0
    5.7892   -1.6380   20.9938 N   0  3  0  0  0  0  0  0  0  0  0  0
    7.2192    0.4368   19.9509 C   0  0  0  0  0  2  0  0  0  0  0  0
    5.9149    0.3032   18.2860 H   0  0  0  0  0  0  0  0  0  0  0  0
    8.6534   -1.7310   22.7374 N   0  0  0  0  0  0  0  0  0  0  0  0
    9.7065    2.8922   24.3635 H   0  0  0  0  0  0  0  0  0  0  0  0
    6.9767   -1.3330   21.4157 C   0  0  3  0  0  0  0  0  0  0  0  0
    8.9698    1.4617   23.6601 H   0  0  0  0  0  0  0  0  0  0  0  0
    5.3849   -3.0098   18.8748 H   0  0  0  0  0  0  0  0  0  0  0  0
    5.6473   -2.6218   21.1038 H   0  0  0  0  0  0  0  0  0  0  0  0
    7.4377   -1.7983   20.5320 H   0  0  0  0  0  0  0  0  0  0  0  0
    5.1129   -1.1408   21.5373 H   0  0  0  0  0  0  0  0  0  0  0  0
 10 22  1  0  0  0  0
  4 12  1  0  0  0  0
  7 10  1  0  0  0  0
  4  7  1  0  0  0  0
  4 11  2  0  0  0  0
  5  7  1  0  0  0  0
 11 13  1  0  0  0  0
 11 16  1  0  0  0  0
  5 17  2  0  0  0  0
  2 16  2  0  0  0  0
 16 21  1  0  0  0  0
  1  5  1  0  0  0  0
  6 21  2  3  0  0  0
  3 23  1  0  0  0  0
  3 19  1  0  0  0  0
  6 23  1  0  0  0  0
 18 23  1  0  0  0  0
  9 19  1  0  0  0  0
  8 18  1  0  0  0  0
  8  9  2  0  0  0  0
  9 20  1  0  0  0  0
  8 15  1  0  0  0  0
 14 15  1  0  0  0  0
  7 24  1  0  0  0  0
 15 25  1  0  0  0  0
 18 26  1  0  0  0  0
 23 27  1  0  0  0  0
 18 28  1  0  0  0  0
M  CHG  2   1  -1  18   1
M  END
> <Chemgauss4>
-5.329391

$$$$
