stable:False satoms:14 tatoms:24 sratio:0.5833333333333334
  -OEChem-07092417373D

 24 25  0     0  0  0  0  0  0999 V2000
    6.9913   -4.8717   26.3150 F   0  0  0  0  0  0  0  0  0  0  0  0
    8.2322   -4.3314   25.9076 C   0  0  0  0  0  0  0  0  0  0  0  0
    9.1214   -5.3408   25.9462 F   0  0  0  0  0  0  0  0  0  0  0  0
    8.6464   -3.4770   26.8732 F   0  0  0  0  0  0  0  0  0  0  0  0
    8.0989   -3.7317   24.6140 N   0  0  0  0  0  0  0  0  0  0  0  0
    8.7699   -2.9377   24.0936 C   0  0  0  0  0  0  0  0  0  0  0  0
    9.2419   -2.0179   23.5847 C   0  0  0  0  0  0  0  0  0  0  0  0
   10.3664   -0.9470   23.5598 C   0  0  0  0  0  0  0  0  0  0  0  0
   11.0719   -0.5134   24.4544 O   0  0  0  0  0  0  0  0  0  0  0  0
   12.8066    0.2085   24.2332 H   0  0  0  0  0  0  0  0  0  0  0  0
   12.2644   -0.4953   23.5917 C   0  0  0  0  0  0  0  0  0  0  0  0
   12.4140   -0.1445   22.5758 H   0  0  0  0  0  0  0  0  0  0  0  0
   12.5195   -1.5444   23.3457 H   0  0  0  0  0  0  0  0  0  0  0  0
    9.5086   -0.8922   22.6701 C   0  0  0  0  0  0  0  0  0  0  0  0
    9.0157   -0.0423   21.4826 C   0  0  0  0  0  0  0  0  0  0  0  0
    9.6899    0.7887   20.9961 O   0  0  0  0  0  0  0  0  0  0  0  0
    7.8111   -0.4386   21.2525 N   0  0  0  0  0  0  0  0  0  0  0  0
    6.8563    0.1767   19.2572 C   0  0  0  0  0  0  0  0  0  0  0  0
    7.6753   -0.2224   18.6867 H   0  0  0  0  0  0  0  0  0  0  0  0
    5.7071    1.0135   17.6525 H   0  0  0  0  0  0  0  0  0  0  0  0
    5.7406    0.7995   18.6904 C   0  0  0  0  0  0  0  0  0  0  0  0
    4.9829    0.9740   19.6577 C   0  0  0  0  0  0  0  0  0  0  0  0
    6.7893    0.0960   20.5873 C   0  0  0  0  0  0  0  0  0  0  0  0
    5.2623    0.6014   21.2689 S   0  0  0  0  0  0  0  0  0  0  0  0
 20 21  1  0  0  0  0
 18 19  1  0  0  0  0
 18 21  1  0  0  0  0
 21 22  2  0  0  0  0
 18 23  2  0  0  0  0
 22 24  1  0  0  0  0
 17 23  1  0  0  0  0
 23 24  1  0  0  0  0
 15 16  2  0  0  0  0
 15 17  1  0  0  0  0
 14 15  1  0  0  0  0
 11 12  1  0  0  0  0
  8 14  2  0  0  0  0
  7 14  1  0  0  0  0
 11 13  1  0  0  0  0
  7  8  1  0  0  0  0
  8  9  1  0  0  0  0
  6  7  2  3  0  0  0
 10 11  1  0  0  0  0
  9 11  1  0  0  0  0
  5  6  1  0  0  0  0
  2  5  1  0  0  0  0
  2  3  1  0  0  0  0
  1  2  1  0  0  0  0
  2  4  1  0  0  0  0
M  END
> <Shapegauss>
-206.832382

$$$$
