stable:False satoms:14 tatoms:24 sratio:0.5833333333333334
  -OEChem-08062406293D

 28 29  0     0  0  0  0  0  0999 V2000
   -6.3020    1.8257  -18.0224 F   0  0  0  0  0  0  0  0  0  0  0  0
   -5.9488    0.5944  -18.6198 C   0  0  0  0  0  0  0  0  0  0  0  0
   -5.4216   -0.1681  -17.6442 F   0  0  0  0  0  0  0  0  0  0  0  0
   -4.9159    0.8275  -19.4641 F   0  0  0  0  0  0  0  0  0  0  0  0
   -7.0971    0.0125  -19.2472 N   0  0  0  0  0  0  0  0  0  0  0  0
   -7.1551   -0.7973  -20.0793 C   0  0  0  0  0  0  0  0  0  0  0  0
   -7.3145   -1.4298  -21.0292 C   0  0  0  0  0  0  0  0  0  0  0  0
   -6.7083   -2.3272  -22.1424 C   0  0  0  0  0  0  0  0  0  0  0  0
   -5.5722   -2.3946  -22.5792 O   0  0  0  0  0  0  0  0  0  0  0  0
   -4.7892   -3.9235  -23.3720 H   0  0  0  0  0  0  0  0  0  0  0  0
   -5.6242   -3.8632  -22.6649 C   0  0  0  0  0  0  0  0  0  0  0  0
   -6.3843   -4.5366  -23.0472 H   0  0  0  0  0  0  0  0  0  0  0  0
   -5.6866   -4.2599  -21.6329 H   0  0  0  0  0  0  0  0  0  0  0  0
   -7.9250   -2.1083  -22.1875 C   0  0  0  0  0  0  0  0  0  0  0  0
   -9.1855   -2.3214  -23.0484 C   0  0  0  0  0  0  0  0  0  0  0  0
   -9.2136   -3.1132  -23.9167 O   0  0  0  0  0  0  0  0  0  0  0  0
  -10.0479   -1.4684  -22.6127 N   0  0  0  0  0  0  0  0  0  0  0  0
  -12.2366   -1.7586  -23.2426 C   0  0  0  0  0  0  0  0  0  0  0  0
  -12.2541   -2.7739  -22.8898 H   0  0  0  0  0  0  0  0  0  0  0  0
  -14.2092   -1.6600  -24.0764 H   0  0  0  0  0  0  0  0  0  0  0  0
  -13.3287   -1.1200  -23.8370 C   0  0  0  0  0  0  0  0  0  0  0  0
  -12.9476    0.0549  -23.9576 C   0  0  0  0  0  0  0  0  0  0  0  0
  -11.1694   -0.9665  -23.1251 C   0  0  0  0  0  0  0  0  0  0  0  0
  -11.4541    0.7028  -23.5544 S   0  0  0  0  0  0  0  0  0  0  0  0
   -7.5911    0.7936  -19.6291 H   0  0  0  0  0  0  0  0  0  0  0  0
   -6.6862   -1.5810  -19.5029 H   0  0  0  0  0  0  0  0  0  0  0  0
   -9.8302   -1.1107  -21.7046 H   0  0  0  0  0  0  0  0  0  0  0  0
  -13.6664    0.7454  -24.3735 H   0  0  0  0  0  0  0  0  0  0  0  0
 20 21  1  0  0  0  0
 18 19  1  0  0  0  0
 18 21  1  0  0  0  0
 21 22  2  0  0  0  0
 18 23  2  0  0  0  0
 22 24  1  0  0  0  0
 17 23  1  0  0  0  0
 23 24  1  0  0  0  0
 15 16  2  0  0  0  0
 15 17  1  0  0  0  0
 14 15  1  0  0  0  0
 11 12  1  0  0  0  0
  8 14  2  0  0  0  0
  7 14  1  0  0  0  0
 11 13  1  0  0  0  0
  7  8  1  0  0  0  0
  8  9  1  0  0  0  0
  6  7  2  3  0  0  0
 10 11  1  0  0  0  0
  9 11  1  0  0  0  0
  5  6  1  0  0  0  0
  2  5  1  0  0  0  0
  2  3  1  0  0  0  0
  1  2  1  0  0  0  0
  2  4  1  0  0  0  0
  5 25  1  0  0  0  0
  6 26  1  0  0  0  0
 17 27  1  0  0  0  0
 22 28  1  0  0  0  0
M  END
> <Chemgauss4>
-6.404075

$$$$
