stable:False satoms:14 tatoms:24 sratio:0.5833333333333334
  -OEChem-08062406303D

 28 29  0     0  0  0  0  0  0999 V2000
    6.9993   -5.4631   25.7464 F   0  0  0  0  0  0  0  0  0  0  0  0
    8.2519   -4.8893   25.4310 C   0  0  0  0  0  0  0  0  0  0  0  0
    9.1554   -5.8850   25.4885 F   0  0  0  0  0  0  0  0  0  0  0  0
    8.5935   -4.0617   26.4470 F   0  0  0  0  0  0  0  0  0  0  0  0
    8.1834   -4.2481   24.1523 N   0  0  0  0  0  0  0  0  0  0  0  0
    8.8692   -3.4261   23.6989 C   0  0  0  0  0  0  0  0  0  0  0  0
    9.3534   -2.4820   23.2494 C   0  0  0  0  0  0  0  0  0  0  0  0
   10.4578   -1.3929   23.3262 C   0  0  0  0  0  0  0  0  0  0  0  0
   11.1020   -0.9787   24.2747 O   0  0  0  0  0  0  0  0  0  0  0  0
   12.8333   -0.2218   24.1801 H   0  0  0  0  0  0  0  0  0  0  0  0
   12.3423   -0.9120   23.4848 C   0  0  0  0  0  0  0  0  0  0  0  0
   12.5445   -0.5244   22.4917 H   0  0  0  0  0  0  0  0  0  0  0  0
   12.6302   -1.9478   23.2197 H   0  0  0  0  0  0  0  0  0  0  0  0
    9.6525   -1.3216   22.3899 C   0  0  0  0  0  0  0  0  0  0  0  0
    9.2145   -0.4398   21.2041 C   0  0  0  0  0  0  0  0  0  0  0  0
    9.9008    0.4181   20.7860 O   0  0  0  0  0  0  0  0  0  0  0  0
    8.0327   -0.8473   20.8905 N   0  0  0  0  0  0  0  0  0  0  0  0
    7.1850   -0.1799   18.8639 C   0  0  0  0  0  0  0  0  0  0  0  0
    8.0429   -0.5460   18.3297 H   0  0  0  0  0  0  0  0  0  0  0  0
    6.1164    0.6925   17.2228 H   0  0  0  0  0  0  0  0  0  0  0  0
    6.0931    0.4438   18.2532 C   0  0  0  0  0  0  0  0  0  0  0  0
    5.2773    0.5730   19.1795 C   0  0  0  0  0  0  0  0  0  0  0  0
    7.0419   -0.3069   20.1843 C   0  0  0  0  0  0  0  0  0  0  0  0
    5.4689    0.1503   20.7911 S   0  0  0  0  0  0  0  0  0  0  0  0
    7.2680   -3.8463   24.1272 H   0  0  0  0  0  0  0  0  0  0  0  0
    9.7699   -4.0219   23.6993 H   0  0  0  0  0  0  0  0  0  0  0  0
    7.8157   -1.7545   21.2511 H   0  0  0  0  0  0  0  0  0  0  0  0
    4.3265    1.0118   18.9150 H   0  0  0  0  0  0  0  0  0  0  0  0
 20 21  1  0  0  0  0
 18 19  1  0  0  0  0
 18 21  1  0  0  0  0
 21 22  2  0  0  0  0
 18 23  2  0  0  0  0
 22 24  1  0  0  0  0
 17 23  1  0  0  0  0
 23 24  1  0  0  0  0
 15 16  2  0  0  0  0
 15 17  1  0  0  0  0
 14 15  1  0  0  0  0
 11 12  1  0  0  0  0
  8 14  2  0  0  0  0
  7 14  1  0  0  0  0
 11 13  1  0  0  0  0
  7  8  1  0  0  0  0
  8  9  1  0  0  0  0
  6  7  2  3  0  0  0
 10 11  1  0  0  0  0
  9 11  1  0  0  0  0
  5  6  1  0  0  0  0
  2  5  1  0  0  0  0
  2  3  1  0  0  0  0
  1  2  1  0  0  0  0
  2  4  1  0  0  0  0
  5 25  1  0  0  0  0
  6 26  1  0  0  0  0
 17 27  1  0  0  0  0
 22 28  1  0  0  0  0
M  END
> <Chemgauss4>
-6.355208

$$$$
