stable:False satoms:18 tatoms:24 sratio:0.75
  -OEChem-07092417333D

 24 24  0     1  0  0  0  0  0999 V2000
    7.5763   -2.7081   24.0992 H   0  0  0  0  0  0  0  0  0  0  0  0
    8.8552   -3.7102   22.0020 C   0  3  0  0  0  0  0  0  0  0  0  0
    9.8951   -2.9213   25.0537 O   0  0  0  0  0  0  0  0  0  0  0  0
    9.0502   -4.5573   22.7089 H   0  0  0  0  0  0  0  0  0  0  0  0
    7.3694   -2.1089   21.7349 H   0  0  0  0  0  0  0  0  0  0  0  0
    8.3376   -2.2925   23.5901 N   0  0  0  0  0  0  0  0  0  0  0  0
   10.2162   -0.8320   22.0894 N   0  0  0  0  0  0  0  0  0  0  0  0
    9.6178   -2.3702   24.0114 C   0  0  0  0  0  0  0  0  0  0  0  0
   10.6968   -1.6569   23.1658 C   0  0  0  0  0  0  0  0  0  0  0  0
   10.2257    1.0262   23.0271 H   0  0  0  0  0  0  0  0  0  0  0  0
   11.3650   -2.4319   22.7707 H   0  0  0  0  0  0  0  0  0  0  0  0
   11.3079   -1.0533   23.8222 H   0  0  0  0  0  0  0  0  0  0  0  0
    9.7495    0.3455   22.3620 C   0  3  0  0  0  0  0  0  0  0  0  0
    8.1409   -0.0086   24.1210 H   0  0  0  0  0  0  0  0  0  0  0  0
    7.5090    0.5991   23.6385 N   0  0  0  0  0  0  0  0  0  0  0  0
    8.6548    0.6933   21.6728 O   0  0  0  0  0  0  0  0  0  0  0  0
    6.3770    0.5112   20.3703 C   0  0  0  0  0  0  0  0  0  0  0  0
    9.2812   -3.0462   20.6569 S   0  0  0  0  0  0  0  0  0  0  0  0
   10.1652   -1.0298   21.0902 H   0  0  0  0  0  0  0  0  0  0  0  0
    6.3384    0.1903   19.3141 N   0  0  0  0  0  0  0  0  0  0  0  0
    6.8135    1.2279   23.9861 H   0  0  0  0  0  0  0  0  0  0  0  0
    7.4529    0.6652   22.2839 C   0  0  0  0  0  0  0  0  0  0  0  0
    6.3523    0.8398   21.6485 N   0  0  0  0  0  0  0  0  0  0  0  0
    8.2363   -2.6615   22.0771 C   0  0  1  0  0  0  0  0  0  0  0  0
 17 20  2  0  0  0  0
 17 23  1  0  0  0  0
  2 18  1  0  0  0  0
 18 24  1  0  0  0  0
  7 19  1  0  0  0  0
 22 23  2  0  0  0  0
 16 22  1  0  0  0  0
 13 16  1  0  0  0  0
  5 24  1  0  0  0  0
  2 24  1  0  0  0  0
  2  4  1  0  0  0  0
  6 24  1  0  0  0  0
  7 13  1  0  0  0  0
  7  9  1  0  0  0  0
 15 22  1  0  0  0  0
 10 13  1  0  0  0  0
  9 11  1  0  0  0  0
  9 12  1  0  0  0  0
  8  9  1  0  0  0  0
  6  8  1  0  0  0  0
  1  6  1  0  0  0  0
 15 21  1  0  0  0  0
 14 15  1  0  0  0  0
  3  8  2  0  0  0  0
M  CHG  2   2   1  13   1
M  END
> <Shapegauss>
-131.418869

$$$$
