stable:False satoms:18 tatoms:24 sratio:0.75
  -OEChem-08052422033D

 27 27  0     1  0  0  0  0  0999 V2000
   -8.4371    1.1097  -24.3289 H   0  0  0  0  0  0  0  0  0  0  0  0
  -10.4315   -0.6313  -24.1577 C   0  0  0  0  0  2  0  0  0  0  0  0
  -10.2340    2.5863  -23.3675 O   0  0  0  0  0  0  0  0  0  0  0  0
   -8.3848   -1.2311  -23.6151 H   0  0  0  0  0  0  0  0  0  0  0  0
   -8.9096    0.7995  -23.4970 N   0  0  0  0  0  0  0  0  0  0  0  0
   -9.8762   -0.1999  -21.0514 N   0  3  0  0  0  0  0  0  0  0  0  0
   -9.8993    1.5124  -22.9184 C   0  0  0  0  0  0  0  0  0  0  0  0
  -10.5224    0.9533  -21.6195 C   0  0  0  0  0  0  0  0  0  0  0  0
  -11.5726    0.7222  -21.8360 H   0  0  0  0  0  0  0  0  0  0  0  0
  -10.5448    1.7409  -20.8794 H   0  0  0  0  0  0  0  0  0  0  0  0
   -8.7831   -0.0366  -20.3752 C   0  0  0  0  0  2  0  0  0  0  0  0
   -7.3571    1.2867  -21.7973 H   0  0  0  0  0  0  0  0  0  0  0  0
   -6.5988    0.6727  -21.5750 N   0  0  0  0  0  0  0  0  0  0  0  0
   -7.8406   -0.9635  -20.5918 O   0  0  0  0  0  0  0  0  0  0  0  0
   -6.3671   -2.7716  -21.8074 C   0  0  0  0  0  0  0  0  0  0  0  0
  -10.6547   -1.8312  -23.1871 S   0  0  0  0  0  0  0  0  0  0  0  0
   -9.6637   -0.8191  -21.8073 H   0  0  0  0  0  0  0  0  0  0  0  0
   -6.7201   -3.8092  -21.9442 N   0  3  0  0  0  0  0  0  0  0  0  0
   -5.6186    0.8500  -21.4872 H   0  0  0  0  0  0  0  0  0  0  0  0
   -6.7759   -0.6559  -21.3603 C   0  0  0  0  0  0  0  0  0  0  0  0
   -5.9164   -1.5333  -21.7304 N   0  3  0  0  0  0  0  0  0  0  0  0
   -9.3272   -0.6971  -23.6434 C   0  0  1  0  0  0  0  0  0  0  0  0
   -6.7084   -2.7508  -20.7830 H   0  0  0  0  0  0  0  0  0  0  0  0
   -7.1633   -4.2903  -21.1878 H   0  0  0  0  0  0  0  0  0  0  0  0
  -10.5371   -0.6349  -20.4398 H   0  0  0  0  0  0  0  0  0  0  0  0
   -6.5966   -4.2675  -22.8243 H   0  0  0  0  0  0  0  0  0  0  0  0
   -4.9693   -1.2953  -21.9459 H   0  0  0  0  0  0  0  0  0  0  0  0
 15 18  2  3  0  0  0
 15 21  1  0  0  0  0
  2 16  1  0  0  0  0
 16 22  1  0  0  0  0
  6 17  1  0  0  0  0
 20 21  2  0  0  0  0
 14 20  1  0  0  0  0
 11 14  1  0  0  0  0
  4 22  1  0  0  0  0
  2 22  1  0  0  0  0
  5 22  1  0  0  0  0
  6 11  1  0  0  0  0
  6  8  1  0  0  0  0
 13 20  1  0  0  0  0
  8  9  1  0  0  0  0
  8 10  1  0  0  0  0
  7  8  1  0  0  0  0
  5  7  1  0  0  0  0
  1  5  1  0  0  0  0
 13 19  1  0  0  0  0
 12 13  1  0  0  0  0
  3  7  2  0  0  0  0
 15 23  1  0  0  0  0
 18 24  1  0  0  0  0
  6 25  1  0  0  0  0
 18 26  1  0  0  0  0
 21 27  1  0  0  0  0
M  CHG  3   6   1  18   1  21   1
M  END
> <Chemgauss4>
-5.413242

$$$$
