stable:False satoms:18 tatoms:24 sratio:0.75
  -OEChem-08052422033D

 27 27  0     1  0  0  0  0  0999 V2000
    8.9067    0.0677   24.7840 H   0  0  0  0  0  0  0  0  0  0  0  0
    8.5234   -2.3730   23.8174 C   0  0  0  0  0  2  0  0  0  0  0  0
   11.2822   -0.7604   24.7148 O   0  0  0  0  0  0  0  0  0  0  0  0
    7.3928   -0.6678   23.0067 H   0  0  0  0  0  0  0  0  0  0  0  0
    9.2514   -0.3091   23.9176 N   0  0  0  0  0  0  0  0  0  0  0  0
   10.0091   -1.0729   21.3182 N   0  3  0  0  0  0  0  0  0  0  0  0
   10.5042   -0.7949   23.7872 C   0  0  0  0  0  0  0  0  0  0  0  0
   10.9335   -1.3101   22.3949 C   0  0  0  0  0  0  0  0  0  0  0  0
   11.1243   -2.3860   22.4911 H   0  0  0  0  0  0  0  0  0  0  0  0
   11.8865   -0.8675   22.1408 H   0  0  0  0  0  0  0  0  0  0  0  0
    9.9536    0.1080   20.7881 C   0  0  0  0  0  2  0  0  0  0  0  0
    9.7031    1.6198   22.6479 H   0  0  0  0  0  0  0  0  0  0  0  0
    8.9906    2.1007   22.1355 N   0  0  0  0  0  0  0  0  0  0  0  0
    8.7193    0.5406   20.4990 O   0  0  0  0  0  0  0  0  0  0  0  0
    6.1166    0.8961   20.6324 C   0  0  0  0  0  0  0  0  0  0  0  0
    8.1309   -2.8508   22.3859 S   0  0  0  0  0  0  0  0  0  0  0  0
    9.0948   -1.2818   21.6652 H   0  0  0  0  0  0  0  0  0  0  0  0
    5.4089    0.1411   20.2464 N   0  3  0  0  0  0  0  0  0  0  0  0
    8.7313    3.0664   22.1262 H   0  0  0  0  0  0  0  0  0  0  0  0
    8.1376    1.4594   21.2967 C   0  0  0  0  0  0  0  0  0  0  0  0
    6.9094    1.8060   21.1673 N   0  3  0  0  0  0  0  0  0  0  0  0
    8.2127   -1.3057   23.3147 C   0  0  1  0  0  0  0  0  0  0  0  0
    6.7459    0.8072   19.7591 H   0  0  0  0  0  0  0  0  0  0  0  0
    5.5742   -0.2925   19.3605 H   0  0  0  0  0  0  0  0  0  0  0  0
   10.2419   -1.7125   20.5856 H   0  0  0  0  0  0  0  0  0  0  0  0
    4.6028   -0.1090   20.7827 H   0  0  0  0  0  0  0  0  0  0  0  0
    6.5751    2.7043   21.4522 H   0  0  0  0  0  0  0  0  0  0  0  0
 15 18  2  3  0  0  0
 15 21  1  0  0  0  0
  2 16  1  0  0  0  0
 16 22  1  0  0  0  0
  6 17  1  0  0  0  0
 20 21  2  0  0  0  0
 14 20  1  0  0  0  0
 11 14  1  0  0  0  0
  4 22  1  0  0  0  0
  2 22  1  0  0  0  0
  5 22  1  0  0  0  0
  6 11  1  0  0  0  0
  6  8  1  0  0  0  0
 13 20  1  0  0  0  0
  8  9  1  0  0  0  0
  8 10  1  0  0  0  0
  7  8  1  0  0  0  0
  5  7  1  0  0  0  0
  1  5  1  0  0  0  0
 13 19  1  0  0  0  0
 12 13  1  0  0  0  0
  3  7  2  0  0  0  0
 15 23  1  0  0  0  0
 18 24  1  0  0  0  0
  6 25  1  0  0  0  0
 18 26  1  0  0  0  0
 21 27  1  0  0  0  0
M  CHG  3   6   1  18   1  21   1
M  END
> <Chemgauss4>
-5.599368

$$$$
