REMARK  7 active torsions:
REMARK  status: ('A' for Active; 'I' for Inactive)
REMARK    1  A    between atoms: C_2  and  O_3 
REMARK    2  A    between atoms: C_2  and  O_4 
REMARK    3  A    between atoms: O_4  and  N_5 
REMARK    4  A    between atoms: N_8  and  C_9 
REMARK    5  A    between atoms: C_11  and  C_13 
REMARK    6  A    between atoms: C_13  and  C_15 
REMARK    7  A    between atoms: O_14  and  C_15 
ROOT
HETATM    1  N   UNL     1       9.791  -1.976  24.140  1.00  0.00    -0.239 N 
ATOM      2  HN  UNL     1       8.885  -1.667  23.788  1.00  0.00     0.197 HD
HETATM    3  C   UNL     1      12.143  -1.343  24.057  1.00  0.00     0.138 C 
HETATM    4  C   UNL     1      10.808  -1.127  23.918  1.00  0.00     0.208 C 
HETATM    5  N   UNL     1      13.279  -1.355  24.154  1.00  0.00    -0.188 NA
ENDROOT
BRANCH   4   6
HETATM    6  N   UNL     1      10.459   0.003  23.299  1.00  0.00    -0.342 N 
HETATM    7  C   UNL     1      10.179  -0.215  22.025  1.00  0.00     0.093 C 
HETATM    8  H   UNL     1      10.245   0.892  23.704  1.00  0.00     0.167 HD
BRANCH   7   9
HETATM    9  C   UNL     1       9.032   0.481  21.509  1.00  0.00     0.053 C 
BRANCH   9  10
HETATM   10  C   UNL     1       7.644   0.153  20.949  1.00  0.00     0.060 C 
HETATM   11  C   UNL     1       6.520   0.405  21.465  1.00  0.00     0.051 C 
BRANCH  10  12
HETATM   12  O   UNL     1       7.487  -0.558  19.877  1.00  0.00    -0.357 OA
HETATM   13  C   UNL     1       6.407  -0.165  19.007  1.00  0.00     0.210 C 
ENDBRANCH  10  12
ENDBRANCH   9  10
ENDBRANCH   7   9
ENDBRANCH   4   6
BRANCH   1  14
HETATM   14  O   UNL     1       9.787  -3.071  24.704  1.00  0.00    -0.253 OA
BRANCH  14  15
HETATM   15  C   UNL     1       8.920  -3.894  25.461  1.00  0.00     0.366 C 
BRANCH  15  16
HETATM   16  O   UNL     1       7.769  -3.834  24.681  1.00  0.00    -0.375 OA
HETATM   17  H   UNL     1       6.986  -3.970  25.254  1.00  0.00     0.212 HD
ENDBRANCH  15  16
ENDBRANCH  14  15
ENDBRANCH   1  14
TORSDOF 7
