MODEL 1
REMARK VINA RESULT:    -4.914      0.000      0.000
REMARK INTER + INTRA:          -7.424
REMARK INTER:                  -6.781
REMARK INTRA:                  -0.643
REMARK UNBOUND:                -0.643
REMARK  7 active torsions:
REMARK  status: ('A' for Active; 'I' for Inactive)
REMARK    1  A    between atoms: C_2  and  O_3 
REMARK    2  A    between atoms: C_2  and  O_4 
REMARK    3  A    between atoms: O_4  and  N_5 
REMARK    4  A    between atoms: N_8  and  C_9 
REMARK    5  A    between atoms: C_11  and  C_13 
REMARK    6  A    between atoms: C_13  and  C_15 
REMARK    7  A    between atoms: O_14  and  C_15 
ROOT
HETATM    1  N   UNL     1       9.487  13.174   3.131  1.00  0.00    -0.239 N 
ATOM      2  HN  UNL     1       9.466  12.966   2.133  1.00  0.00     0.197 HD
HETATM    3  C   UNL     1      10.296  14.886   4.665  1.00  0.00     0.138 C 
HETATM    4  C   UNL     1       9.940  14.399   3.447  1.00  0.00     0.208 C 
HETATM    5  N   UNL     1      10.598  15.448   5.611  1.00  0.00    -0.188 NA
ENDROOT
BRANCH   4   6
HETATM    6  N   UNL     1      10.260  15.158   2.397  1.00  0.00    -0.342 N 
HETATM    7  C   UNL     1       9.225  15.319   1.590  1.00  0.00     0.093 C 
HETATM    8  H   UNL     1      11.084  15.707   2.255  1.00  0.00     0.167 HD
BRANCH   7   9
HETATM    9  C   UNL     1       9.047  16.643   1.058  1.00  0.00     0.053 C 
BRANCH   9  10
HETATM   10  C   UNL     1       9.488  18.077   1.372  1.00  0.00     0.060 C 
HETATM   11  C   UNL     1       9.402  19.094   0.630  1.00  0.00     0.051 C 
BRANCH  10  12
HETATM   12  O   UNL     1      10.132  18.375   2.456  1.00  0.00    -0.357 OA
HETATM   13  C   UNL     1       9.343  18.467   3.659  1.00  0.00     0.210 C 
ENDBRANCH  10  12
ENDBRANCH   9  10
ENDBRANCH   7   9
ENDBRANCH   4   6
BRANCH   1  14
HETATM   14  O   UNL     1       9.093  12.266   3.863  1.00  0.00    -0.253 OA
BRANCH  14  15
HETATM   15  C   UNL     1       7.944  11.468   4.074  1.00  0.00     0.366 C 
BRANCH  15  16
HETATM   16  O   UNL     1       7.834  10.851   2.831  1.00  0.00    -0.375 OA
HETATM   17  H   UNL     1       7.994   9.890   2.936  1.00  0.00     0.212 HD
ENDBRANCH  15  16
ENDBRANCH  14  15
ENDBRANCH   1  14
TORSDOF 7
ENDMDL
MODEL 2
REMARK VINA RESULT:    -4.846      3.223      6.842
REMARK INTER + INTRA:          -7.330
REMARK INTER:                  -6.995
REMARK INTRA:                  -0.335
REMARK UNBOUND:                -0.643
REMARK  7 active torsions:
REMARK  status: ('A' for Active; 'I' for Inactive)
REMARK    1  A    between atoms: C_2  and  O_3 
REMARK    2  A    between atoms: C_2  and  O_4 
REMARK    3  A    between atoms: O_4  and  N_5 
REMARK    4  A    between atoms: N_8  and  C_9 
REMARK    5  A    between atoms: C_11  and  C_13 
REMARK    6  A    between atoms: C_13  and  C_15 
REMARK    7  A    between atoms: O_14  and  C_15 
ROOT
HETATM    1  N   UNL     1       9.655  13.055   3.336  1.00  0.00    -0.239 N 
ATOM      2  HN  UNL     1      10.280  12.250   3.299  1.00  0.00     0.197 HD
HETATM    3  C   UNL     1       7.293  13.600   3.083  1.00  0.00     0.138 C 
HETATM    4  C   UNL     1       8.345  12.762   3.280  1.00  0.00     0.208 C 
HETATM    5  N   UNL     1       6.313  14.170   2.963  1.00  0.00    -0.188 NA
ENDROOT
BRANCH   4   6
HETATM    6  N   UNL     1       8.074  11.456   3.217  1.00  0.00    -0.342 N 
HETATM    7  C   UNL     1       7.306  11.078   4.225  1.00  0.00     0.093 C 
HETATM    8  H   UNL     1       8.239  10.824   2.461  1.00  0.00     0.167 HD
BRANCH   7   9
HETATM    9  C   UNL     1       6.250  10.159   3.896  1.00  0.00     0.053 C 
BRANCH   9  10
HETATM   10  C   UNL     1       5.255   9.912   2.757  1.00  0.00     0.060 C 
HETATM   11  C   UNL     1       4.460  10.737   2.228  1.00  0.00     0.051 C 
BRANCH  10  12
HETATM   12  O   UNL     1       5.045   8.727   2.275  1.00  0.00    -0.357 OA
HETATM   13  C   UNL     1       4.245   7.844   3.086  1.00  0.00     0.210 C 
ENDBRANCH  10  12
ENDBRANCH   9  10
ENDBRANCH   7   9
ENDBRANCH   4   6
BRANCH   1  14
HETATM   14  O   UNL     1      10.215  14.148   3.426  1.00  0.00    -0.253 OA
BRANCH  14  15
HETATM   15  C   UNL     1      10.645  15.065   4.414  1.00  0.00     0.366 C 
BRANCH  15  16
HETATM   16  O   UNL     1      12.003  15.137   4.120  1.00  0.00    -0.375 OA
HETATM   17  H   UNL     1      12.133  15.727   3.349  1.00  0.00     0.212 HD
ENDBRANCH  15  16
ENDBRANCH  14  15
ENDBRANCH   1  14
TORSDOF 7
ENDMDL
MODEL 3
REMARK VINA RESULT:    -4.742      2.171      2.870
REMARK INTER + INTRA:          -7.187
REMARK INTER:                  -6.751
REMARK INTRA:                  -0.436
REMARK UNBOUND:                -0.643
REMARK  7 active torsions:
REMARK  status: ('A' for Active; 'I' for Inactive)
REMARK    1  A    between atoms: C_2  and  O_3 
REMARK    2  A    between atoms: C_2  and  O_4 
REMARK    3  A    between atoms: O_4  and  N_5 
REMARK    4  A    between atoms: N_8  and  C_9 
REMARK    5  A    between atoms: C_11  and  C_13 
REMARK    6  A    between atoms: C_13  and  C_15 
REMARK    7  A    between atoms: O_14  and  C_15 
ROOT
HETATM    1  N   UNL     1       8.525  14.517   0.893  1.00  0.00    -0.239 N 
ATOM      2  HN  UNL     1       8.565  15.199   0.136  1.00  0.00     0.197 HD
HETATM    3  C   UNL     1       9.465  14.125   3.107  1.00  0.00     0.138 C 
HETATM    4  C   UNL     1       9.151  14.884   2.024  1.00  0.00     0.208 C 
HETATM    5  N   UNL     1       9.766  13.637   4.093  1.00  0.00    -0.188 NA
ENDROOT
BRANCH   4   6
HETATM    6  N   UNL     1       9.699  16.100   1.982  1.00  0.00    -0.342 N 
HETATM    7  C   UNL     1       8.826  17.031   2.332  1.00  0.00     0.093 C 
HETATM    8  H   UNL     1      10.663  16.344   1.883  1.00  0.00     0.167 HD
BRANCH   7   9
HETATM    9  C   UNL     1       9.330  18.071   3.186  1.00  0.00     0.053 C 
BRANCH   9  10
HETATM   10  C   UNL     1      10.385  18.248   4.284  1.00  0.00     0.060 C 
HETATM   11  C   UNL     1      10.306  18.950   5.329  1.00  0.00     0.051 C 
BRANCH  10  12
HETATM   12  O   UNL     1      11.575  17.747   4.178  1.00  0.00    -0.357 OA
HETATM   13  C   UNL     1      12.664  18.614   4.553  1.00  0.00     0.210 C 
ENDBRANCH  10  12
ENDBRANCH   9  10
ENDBRANCH   7   9
ENDBRANCH   4   6
BRANCH   1  14
HETATM   14  O   UNL     1       7.910  13.482   0.633  1.00  0.00    -0.253 OA
BRANCH  14  15
HETATM   15  C   UNL     1       6.725  12.805   1.009  1.00  0.00     0.366 C 
BRANCH  15  16
HETATM   16  O   UNL     1       6.910  11.590   0.356  1.00  0.00    -0.375 OA
HETATM   17  H   UNL     1       7.673  11.124   0.757  1.00  0.00     0.212 HD
ENDBRANCH  15  16
ENDBRANCH  14  15
ENDBRANCH   1  14
TORSDOF 7
ENDMDL
MODEL 4
REMARK VINA RESULT:    -4.448      2.553      5.873
REMARK INTER + INTRA:          -6.782
REMARK INTER:                  -6.524
REMARK INTRA:                  -0.258
REMARK UNBOUND:                -0.643
REMARK  7 active torsions:
REMARK  status: ('A' for Active; 'I' for Inactive)
REMARK    1  A    between atoms: C_2  and  O_3 
REMARK    2  A    between atoms: C_2  and  O_4 
REMARK    3  A    between atoms: O_4  and  N_5 
REMARK    4  A    between atoms: N_8  and  C_9 
REMARK    5  A    between atoms: C_11  and  C_13 
REMARK    6  A    between atoms: C_13  and  C_15 
REMARK    7  A    between atoms: O_14  and  C_15 
ROOT
HETATM    1  N   UNL     1       8.961  15.693   1.361  1.00  0.00    -0.239 N 
ATOM      2  HN  UNL     1       8.045  15.467   0.973  1.00  0.00     0.197 HD
HETATM    3  C   UNL     1      10.489  14.944   3.106  1.00  0.00     0.138 C 
HETATM    4  C   UNL     1       9.431  14.814   2.261  1.00  0.00     0.208 C 
HETATM    5  N   UNL     1      11.356  14.886   3.844  1.00  0.00    -0.188 NA
ENDROOT
BRANCH   4   6
HETATM    6  N   UNL     1       8.634  13.765   2.478  1.00  0.00    -0.342 N 
HETATM    7  C   UNL     1       7.359  14.114   2.429  1.00  0.00     0.093 C 
HETATM    8  H   UNL     1       8.878  12.796   2.506  1.00  0.00     0.167 HD
BRANCH   7   9
HETATM    9  C   UNL     1       6.487  13.199   1.744  1.00  0.00     0.053 C 
BRANCH   9  10
HETATM   10  C   UNL     1       5.461  12.114   2.087  1.00  0.00     0.060 C 
HETATM   11  C   UNL     1       4.203  12.186   2.017  1.00  0.00     0.051 C 
BRANCH  10  12
HETATM   12  O   UNL     1       5.808  10.985   2.621  1.00  0.00    -0.357 OA
HETATM   13  C   UNL     1       5.519   9.802   1.849  1.00  0.00     0.210 C 
ENDBRANCH  10  12
ENDBRANCH   9  10
ENDBRANCH   7   9
ENDBRANCH   4   6
BRANCH   1  14
HETATM   14  O   UNL     1       9.467  16.731   0.933  1.00  0.00    -0.253 OA
BRANCH  14  15
HETATM   15  C   UNL     1       9.087  17.943   0.311  1.00  0.00     0.366 C 
BRANCH  15  16
HETATM   16  O   UNL     1       7.737  17.696   0.080  1.00  0.00    -0.375 OA
HETATM   17  H   UNL     1       7.268  17.650   0.939  1.00  0.00     0.212 HD
ENDBRANCH  15  16
ENDBRANCH  14  15
ENDBRANCH   1  14
TORSDOF 7
ENDMDL
MODEL 5
REMARK VINA RESULT:    -4.383      2.890      5.510
REMARK INTER + INTRA:          -6.692
REMARK INTER:                  -6.375
REMARK INTRA:                  -0.317
REMARK UNBOUND:                -0.643
REMARK  7 active torsions:
REMARK  status: ('A' for Active; 'I' for Inactive)
REMARK    1  A    between atoms: C_2  and  O_3 
REMARK    2  A    between atoms: C_2  and  O_4 
REMARK    3  A    between atoms: O_4  and  N_5 
REMARK    4  A    between atoms: N_8  and  C_9 
REMARK    5  A    between atoms: C_11  and  C_13 
REMARK    6  A    between atoms: C_13  and  C_15 
REMARK    7  A    between atoms: O_14  and  C_15 
ROOT
HETATM    1  N   UNL     1       9.969  14.297   2.425  1.00  0.00    -0.239 N 
ATOM      2  HN  UNL     1       9.946  13.280   2.355  1.00  0.00     0.197 HD
HETATM    3  C   UNL     1       8.890  16.261   1.466  1.00  0.00     0.138 C 
HETATM    4  C   UNL     1       8.998  14.936   1.752  1.00  0.00     0.208 C 
HETATM    5  N   UNL     1       8.640  17.335   1.178  1.00  0.00    -0.188 NA
ENDROOT
BRANCH   4   6
HETATM    6  N   UNL     1       8.137  14.130   1.127  1.00  0.00    -0.342 N 
HETATM    7  C   UNL     1       7.667  13.203   1.944  1.00  0.00     0.093 C 
HETATM    8  H   UNL     1       7.720  14.248   0.225  1.00  0.00     0.167 HD
BRANCH   7   9
HETATM    9  C   UNL     1       6.262  12.923   1.831  1.00  0.00     0.053 C 
BRANCH   9  10
HETATM   10  C   UNL     1       5.252  11.886   2.334  1.00  0.00     0.060 C 
HETATM   11  C   UNL     1       5.115  10.690   1.955  1.00  0.00     0.051 C 
BRANCH  10  12
HETATM   12  O   UNL     1       4.312  12.193   3.171  1.00  0.00    -0.357 OA
HETATM   13  C   UNL     1       4.070  13.601   3.365  1.00  0.00     0.210 C 
ENDBRANCH  10  12
ENDBRANCH   9  10
ENDBRANCH   7   9
ENDBRANCH   4   6
BRANCH   1  14
HETATM   14  O   UNL     1      10.883  14.754   3.112  1.00  0.00    -0.253 OA
BRANCH  14  15
HETATM   15  C   UNL     1      11.094  15.328   4.388  1.00  0.00     0.366 C 
BRANCH  15  16
HETATM   16  O   UNL     1      11.992  14.415   4.932  1.00  0.00    -0.375 OA
HETATM   17  H   UNL     1      12.888  14.811   4.937  1.00  0.00     0.212 HD
ENDBRANCH  15  16
ENDBRANCH  14  15
ENDBRANCH   1  14
TORSDOF 7
ENDMDL
MODEL 6
REMARK VINA RESULT:    -4.359     26.212     27.607
REMARK INTER + INTRA:          -6.659
REMARK INTER:                  -6.391
REMARK INTRA:                  -0.268
REMARK UNBOUND:                -0.643
REMARK  7 active torsions:
REMARK  status: ('A' for Active; 'I' for Inactive)
REMARK    1  A    between atoms: C_2  and  O_3 
REMARK    2  A    between atoms: C_2  and  O_4 
REMARK    3  A    between atoms: O_4  and  N_5 
REMARK    4  A    between atoms: N_8  and  C_9 
REMARK    5  A    between atoms: C_11  and  C_13 
REMARK    6  A    between atoms: C_13  and  C_15 
REMARK    7  A    between atoms: O_14  and  C_15 
ROOT
HETATM    1  N   UNL     1       8.234  -3.845  22.756  1.00  0.00    -0.239 N 
ATOM      2  HN  UNL     1       8.685  -3.502  21.908  1.00  0.00     0.197 HD
HETATM    3  C   UNL     1       8.458  -3.709  25.178  1.00  0.00     0.138 C 
HETATM    4  C   UNL     1       8.687  -3.307  23.900  1.00  0.00     0.208 C 
HETATM    5  N   UNL     1       8.337  -3.897  26.297  1.00  0.00    -0.188 NA
ENDROOT
BRANCH   4   6
HETATM    6  N   UNL     1       9.636  -2.382  23.738  1.00  0.00    -0.342 N 
HETATM    7  C   UNL     1       9.248  -1.210  24.211  1.00  0.00     0.093 C 
HETATM    8  H   UNL     1      10.591  -2.512  23.469  1.00  0.00     0.167 HD
BRANCH   7   9
HETATM    9  C   UNL     1      10.241  -0.471  24.942  1.00  0.00     0.053 C 
BRANCH   9  10
HETATM   10  C   UNL     1      11.417   0.468  24.657  1.00  0.00     0.060 C 
HETATM   11  C   UNL     1      11.397   1.571  24.042  1.00  0.00     0.051 C 
BRANCH  10  12
HETATM   12  O   UNL     1      12.639   0.145  24.942  1.00  0.00    -0.357 OA
HETATM   13  C   UNL     1      13.315  -0.690  23.981  1.00  0.00     0.210 C 
ENDBRANCH  10  12
ENDBRANCH   9  10
ENDBRANCH   7   9
ENDBRANCH   4   6
BRANCH   1  14
HETATM   14  O   UNL     1       7.357  -4.691  22.575  1.00  0.00    -0.253 OA
BRANCH  14  15
HETATM   15  C   UNL     1       7.117  -5.852  21.803  1.00  0.00     0.366 C 
BRANCH  15  16
HETATM   16  O   UNL     1       5.759  -6.040  22.044  1.00  0.00    -0.375 OA
HETATM   17  H   UNL     1       5.364  -5.191  22.331  1.00  0.00     0.212 HD
ENDBRANCH  15  16
ENDBRANCH  14  15
ENDBRANCH   1  14
TORSDOF 7
ENDMDL
MODEL 7
REMARK VINA RESULT:    -4.349     23.547     26.532
REMARK INTER + INTRA:          -6.645
REMARK INTER:                  -6.159
REMARK INTRA:                  -0.486
REMARK UNBOUND:                -0.643
REMARK  7 active torsions:
REMARK  status: ('A' for Active; 'I' for Inactive)
REMARK    1  A    between atoms: C_2  and  O_3 
REMARK    2  A    between atoms: C_2  and  O_4 
REMARK    3  A    between atoms: O_4  and  N_5 
REMARK    4  A    between atoms: N_8  and  C_9 
REMARK    5  A    between atoms: C_11  and  C_13 
REMARK    6  A    between atoms: C_13  and  C_15 
REMARK    7  A    between atoms: O_14  and  C_15 
ROOT
HETATM    1  N   UNL     1      10.506  -0.430  22.616  1.00  0.00    -0.239 N 
ATOM      2  HN  UNL     1      10.941  -1.114  23.234  1.00  0.00     0.197 HD
HETATM    3  C   UNL     1       8.857  -0.311  20.826  1.00  0.00     0.138 C 
HETATM    4  C   UNL     1       9.482  -0.896  21.882  1.00  0.00     0.208 C 
HETATM    5  N   UNL     1       8.215   0.055  19.957  1.00  0.00    -0.188 NA
ENDROOT
BRANCH   4   6
HETATM    6  N   UNL     1       9.179  -2.177  22.106  1.00  0.00    -0.342 N 
HETATM    7  C   UNL     1       9.286  -2.477  23.389  1.00  0.00     0.093 C 
HETATM    8  H   UNL     1       8.756  -2.833  21.481  1.00  0.00     0.167 HD
BRANCH   7   9
HETATM    9  C   UNL     1       8.247  -3.314  23.924  1.00  0.00     0.053 C 
BRANCH   9  10
HETATM   10  C   UNL     1       7.267  -4.385  23.434  1.00  0.00     0.060 C 
HETATM   11  C   UNL     1       6.638  -5.234  24.123  1.00  0.00     0.051 C 
BRANCH  10  12
HETATM   12  O   UNL     1       7.065  -4.604  22.173  1.00  0.00    -0.357 OA
HETATM   13  C   UNL     1       7.035  -5.987  21.766  1.00  0.00     0.210 C 
ENDBRANCH  10  12
ENDBRANCH   9  10
ENDBRANCH   7   9
ENDBRANCH   4   6
BRANCH   1  14
HETATM   14  O   UNL     1      10.998   0.699  22.656  1.00  0.00    -0.253 OA
BRANCH  14  15
HETATM   15  C   UNL     1      10.598   2.047  22.811  1.00  0.00     0.366 C 
BRANCH  15  16
HETATM   16  O   UNL     1      10.732   2.502  21.502  1.00  0.00    -0.375 OA
HETATM   17  H   UNL     1       9.927   3.001  21.253  1.00  0.00     0.212 HD
ENDBRANCH  15  16
ENDBRANCH  14  15
ENDBRANCH   1  14
TORSDOF 7
ENDMDL
MODEL 8
REMARK VINA RESULT:    -4.341     23.807     26.673
REMARK INTER + INTRA:          -6.633
REMARK INTER:                  -6.079
REMARK INTRA:                  -0.554
REMARK UNBOUND:                -0.643
REMARK  7 active torsions:
REMARK  status: ('A' for Active; 'I' for Inactive)
REMARK    1  A    between atoms: C_2  and  O_3 
REMARK    2  A    between atoms: C_2  and  O_4 
REMARK    3  A    between atoms: O_4  and  N_5 
REMARK    4  A    between atoms: N_8  and  C_9 
REMARK    5  A    between atoms: C_11  and  C_13 
REMARK    6  A    between atoms: C_13  and  C_15 
REMARK    7  A    between atoms: O_14  and  C_15 
ROOT
HETATM    1  N   UNL     1       9.019  -0.567  21.927  1.00  0.00    -0.239 N 
ATOM      2  HN  UNL     1       8.022  -0.785  21.941  1.00  0.00     0.197 HD
HETATM    3  C   UNL     1      11.157  -1.559  22.547  1.00  0.00     0.138 C 
HETATM    4  C   UNL     1       9.829  -1.587  22.257  1.00  0.00     0.208 C 
HETATM    5  N   UNL     1      12.263  -1.707  22.779  1.00  0.00    -0.188 NA
ENDROOT
BRANCH   4   6
HETATM    6  N   UNL     1       9.196  -2.733  22.519  1.00  0.00    -0.342 N 
HETATM    7  C   UNL     1       8.556  -2.674  23.675  1.00  0.00     0.093 C 
HETATM    8  H   UNL     1       9.033  -3.506  21.906  1.00  0.00     0.167 HD
BRANCH   7   9
HETATM    9  C   UNL     1       7.244  -3.259  23.694  1.00  0.00     0.053 C 
BRANCH   9  10
HETATM   10  C   UNL     1       6.302  -4.000  22.739  1.00  0.00     0.060 C 
HETATM   11  C   UNL     1       5.047  -4.113  22.820  1.00  0.00     0.051 C 
BRANCH  10  12
HETATM   12  O   UNL     1       6.747  -4.721  21.758  1.00  0.00    -0.357 OA
HETATM   13  C   UNL     1       6.878  -6.133  22.015  1.00  0.00     0.210 C 
ENDBRANCH  10  12
ENDBRANCH   9  10
ENDBRANCH   7   9
ENDBRANCH   4   6
BRANCH   1  14
HETATM   14  O   UNL     1       9.297   0.590  21.610  1.00  0.00    -0.253 OA
BRANCH  14  15
HETATM   15  C   UNL     1       9.549   1.845  22.213  1.00  0.00     0.366 C 
BRANCH  15  16
HETATM   16  O   UNL     1      10.680   2.242  21.506  1.00  0.00    -0.375 OA
HETATM   17  H   UNL     1      10.830   3.199  21.652  1.00  0.00     0.212 HD
ENDBRANCH  15  16
ENDBRANCH  14  15
ENDBRANCH   1  14
TORSDOF 7
ENDMDL
MODEL 9
REMARK VINA RESULT:    -4.324     25.448     28.134
REMARK INTER + INTRA:          -6.611
REMARK INTER:                  -6.317
REMARK INTRA:                  -0.294
REMARK UNBOUND:                -0.643
REMARK  7 active torsions:
REMARK  status: ('A' for Active; 'I' for Inactive)
REMARK    1  A    between atoms: C_2  and  O_3 
REMARK    2  A    between atoms: C_2  and  O_4 
REMARK    3  A    between atoms: O_4  and  N_5 
REMARK    4  A    between atoms: N_8  and  C_9 
REMARK    5  A    between atoms: C_11  and  C_13 
REMARK    6  A    between atoms: C_13  and  C_15 
REMARK    7  A    between atoms: O_14  and  C_15 
ROOT
HETATM    1  N   UNL     1       8.349  -4.198  24.995  1.00  0.00    -0.239 N 
ATOM      2  HN  UNL     1       8.790  -3.334  25.309  1.00  0.00     0.197 HD
HETATM    3  C   UNL     1       7.372  -5.176  22.987  1.00  0.00     0.138 C 
HETATM    4  C   UNL     1       8.129  -4.278  23.672  1.00  0.00     0.208 C 
HETATM    5  N   UNL     1       6.810  -5.864  22.273  1.00  0.00    -0.188 NA
ENDROOT
BRANCH   4   6
HETATM    6  N   UNL     1       8.556  -3.221  22.977  1.00  0.00    -0.342 N 
HETATM    7  C   UNL     1       9.239  -2.387  23.743  1.00  0.00     0.093 C 
HETATM    8  H   UNL     1       8.556  -3.089  21.986  1.00  0.00     0.167 HD
BRANCH   7   9
HETATM    9  C   UNL     1      10.426  -1.827  23.157  1.00  0.00     0.053 C 
BRANCH   9  10
HETATM   10  C   UNL     1      11.321  -0.596  23.326  1.00  0.00     0.060 C 
HETATM   11  C   UNL     1      12.370  -0.489  24.021  1.00  0.00     0.051 C 
BRANCH  10  12
HETATM   12  O   UNL     1      11.004   0.558  22.828  1.00  0.00    -0.357 OA
HETATM   13  C   UNL     1      10.155   0.534  21.663  1.00  0.00     0.210 C 
ENDBRANCH  10  12
ENDBRANCH   9  10
ENDBRANCH   7   9
ENDBRANCH   4   6
BRANCH   1  14
HETATM   14  O   UNL     1       8.098  -5.011  25.886  1.00  0.00    -0.253 OA
BRANCH  14  15
HETATM   15  C   UNL     1       7.174  -5.209  26.939  1.00  0.00     0.366 C 
BRANCH  15  16
HETATM   16  O   UNL     1       7.928  -6.012  27.789  1.00  0.00    -0.375 OA
HETATM   17  H   UNL     1       8.570  -5.453  28.274  1.00  0.00     0.212 HD
ENDBRANCH  15  16
ENDBRANCH  14  15
ENDBRANCH   1  14
TORSDOF 7
ENDMDL
