stable:False satoms:3 tatoms:24 sratio:0.125
  -OEChem-07092417473D

 24 26  0     1  0  0  0  0  0999 V2000
    6.5693   -4.8705   26.4557 C   0  0  0  0  0  0  0  0  0  0  0  0
    8.2213   -4.3067   26.1018 S   0  0  0  0  0  0  0  0  0  0  0  0
    9.0537   -5.4902   26.0534 O   0  0  0  0  0  0  0  0  0  0  0  0
    8.5908   -3.4167   27.1567 O   0  0  0  0  0  0  0  0  0  0  0  0
    8.1034   -3.6084   24.6603 N   0  0  0  0  0  0  0  0  0  0  0  0
    8.8801   -2.8924   24.1250 C   0  0  0  0  0  0  0  0  0  0  0  0
    9.3903   -1.9776   23.5247 C   0  0  0  0  0  0  0  0  0  0  0  0
   10.3678   -1.1185   23.2653 C   0  0  1  0  0  0  0  0  0  0  0  0
   11.0600   -0.0496   24.3017 C   0  0  0  0  0  0  0  0  0  0  0  0
   12.0920    0.2885   24.2818 C   0  0  0  0  0  0  0  0  0  0  0  0
   13.1077   -0.1971   23.4747 C   0  0  0  0  0  0  0  0  0  0  0  0
   12.7350   -1.2049   22.7133 C   0  0  0  0  0  0  0  0  0  0  0  0
   11.7844   -1.6903   22.5737 C   0  0  0  0  0  0  0  0  0  0  0  0
    9.6585   -0.6591   22.4168 C   0  0  3  0  0  0  0  0  0  0  0  0
    9.0614    0.0360   21.4207 C   0  0  0  0  0  0  0  0  0  0  0  0
    9.6008    0.9673   21.0179 O   0  0  0  0  0  0  0  0  0  0  0  0
    7.8934   -0.5394   21.1082 N   0  0  0  0  0  0  0  0  0  0  0  0
    7.2077   -0.0591   20.1946 C   0  0  0  0  0  0  0  0  0  0  0  0
    7.2163    0.0515   18.8692 C   0  0  0  0  0  0  0  0  0  0  0  0
    6.7561    0.3626   17.8047 N   0  0  0  0  0  0  0  0  0  0  0  0
    5.7005    0.8652   18.2474 C   0  0  0  0  0  0  0  0  0  0  0  0
    5.2734    0.9620   19.3966 C   0  0  0  0  0  0  0  0  0  0  0  0
    5.8011    0.5954   20.5583 C   0  0  0  0  0  0  0  0  0  0  0  0
    5.4588    0.6618   21.5742 C   0  0  0  0  0  0  0  0  0  0  0  0
 20 21  2  0  0  0  0
 19 20  1  0  0  0  0
 21 22  1  0  0  0  0
 18 19  2  0  0  0  0
 22 23  2  0  0  0  0
 18 23  1  0  0  0  0
 17 18  1  0  0  0  0
 23 24  1  0  0  0  0
 15 16  2  0  0  0  0
 15 17  1  0  0  0  0
 14 15  1  0  0  0  0
  8 14  1  0  0  0  0
  7 14  1  0  0  0  0
 12 13  1  0  0  0  0
  8 13  1  0  0  0  0
 11 12  2  0  0  0  0
  7  8  1  0  0  0  0
  8  9  1  0  0  0  0
 10 11  1  0  0  0  0
  6  7  2  3  0  0  0
  5  6  1  0  0  0  0
  9 10  2  0  0  0  0
  2  5  1  0  0  0  0
  2  3  2  0  0  0  0
  1  2  1  0  0  0  0
  2  4  2  0  0  0  0
M  END
> <Shapegauss>
-289.882660

$$$$
