MODEL 1
REMARK VINA RESULT:    -7.910      0.000      0.000
REMARK INTER + INTRA:         -10.833
REMARK INTER:                 -10.222
REMARK INTRA:                  -0.611
REMARK UNBOUND:                -0.611
REMARK  5 active torsions:
REMARK  status: ('A' for Active; 'I' for Inactive)
REMARK    1  A    between atoms: S_2  and  N_5 
REMARK    2  A    between atoms: N_5  and  C_7 
REMARK    3  A    between atoms: C_7  and  C_8 
REMARK    4  A    between atoms: C_15  and  C_16 
REMARK       I    between atoms: C_16  and  N_18 
REMARK    5  A    between atoms: N_18  and  C_20 
ROOT
HETATM    1  C   UNL     1       8.907  -2.342  23.545  1.00  0.00     0.040 A 
HETATM    2  C   UNL     1       9.723  -1.296  23.501  1.00  0.00     0.066 A 
HETATM    3  C   UNL     1       9.929  -0.142  24.652  1.00  0.00    -0.003 C 
HETATM    4  C   UNL     1      10.847   0.398  24.863  1.00  0.00    -0.002 C 
HETATM    5  C   UNL     1      12.097   0.154  24.317  1.00  0.00    -0.001 C 
HETATM    6  C   UNL     1      12.119  -0.884  23.506  1.00  0.00    -0.002 C 
HETATM    7  C   UNL     1      11.344  -1.547  23.161  1.00  0.00    -0.003 C 
HETATM    8  C   UNL     1       9.146  -0.962  22.507  1.00  0.00     0.049 A 
ENDROOT
BRANCH   8   9
HETATM    9  C   UNL     1       8.660  -0.371  21.390  1.00  0.00     0.255 C 
HETATM   10  O   UNL     1       9.382   0.267  20.763  1.00  0.00    -0.268 OA
HETATM   11  N   UNL     1       7.361  -0.665  21.252  1.00  0.00    -0.321 N 
ATOM     12  HN  UNL     1       6.885  -1.238  21.949  1.00  0.00     0.169 HD
BRANCH  11  13
HETATM   13  C   UNL     1       6.744  -0.234  20.269  1.00  0.00     0.060 A 
HETATM   14  C   UNL     1       6.392  -0.615  19.044  1.00  0.00     0.117 A 
HETATM   15  N   UNL     1       5.832  -0.489  17.989  1.00  0.00    -0.373 N 
HETATM   16  C   UNL     1       5.342   0.637  18.220  1.00  0.00     0.088 A 
ATOM     17  HN  UNL     1       5.776  -1.099  17.174  1.00  0.00     0.164 HD
HETATM   18  C   UNL     1       5.394   1.349  19.223  1.00  0.00     0.030 A 
HETATM   19  C   UNL     1       6.013   1.177  20.384  1.00  0.00    -0.016 A 
HETATM   20  C   UNL     1       6.079   1.772  21.276  1.00  0.00     0.026 C 
ENDBRANCH  11  13
ENDBRANCH   8   9
BRANCH   1  21
HETATM   21  C   UNL     1       8.472  -3.359  24.027  1.00  0.00    -0.022 C 
BRANCH  21  22
HETATM   22  N   UNL     1       8.366  -4.398  24.585  1.00  0.00    -0.249 N 
ATOM     23  HN  UNL     1       8.563  -5.226  24.022  1.00  0.00     0.188 HD
BRANCH  22  24
HETATM   24  S   UNL     1       7.952  -4.672  26.113  1.00  0.00     0.233 S 
HETATM   25  C   UNL     1       6.825  -3.350  26.508  1.00  0.00     0.186 C 
HETATM   26  O   UNL     1       7.202  -5.903  26.249  1.00  0.00    -0.205 OA
HETATM   27  O   UNL     1       9.036  -4.584  27.039  1.00  0.00    -0.205 OA
ENDBRANCH  22  24
ENDBRANCH  21  22
ENDBRANCH   1  21
TORSDOF 5
ENDMDL
MODEL 2
REMARK VINA RESULT:    -7.720      2.506      6.407
REMARK INTER + INTRA:         -10.588
REMARK INTER:                  -9.763
REMARK INTRA:                  -0.825
REMARK UNBOUND:                -0.611
REMARK  5 active torsions:
REMARK  status: ('A' for Active; 'I' for Inactive)
REMARK    1  A    between atoms: S_2  and  N_5 
REMARK    2  A    between atoms: N_5  and  C_7 
REMARK    3  A    between atoms: C_7  and  C_8 
REMARK    4  A    between atoms: C_15  and  C_16 
REMARK       I    between atoms: C_16  and  N_18 
REMARK    5  A    between atoms: N_18  and  C_20 
ROOT
HETATM    1  C   UNL     1       9.230  -0.335  22.726  1.00  0.00     0.040 A 
HETATM    2  C   UNL     1      10.314  -0.716  23.392  1.00  0.00     0.066 A 
HETATM    3  C   UNL     1      11.607  -1.541  22.806  1.00  0.00    -0.003 C 
HETATM    4  C   UNL     1      12.634  -1.450  23.145  1.00  0.00    -0.002 C 
HETATM    5  C   UNL     1      13.130  -0.525  24.049  1.00  0.00    -0.001 C 
HETATM    6  C   UNL     1      12.225   0.338  24.464  1.00  0.00    -0.002 C 
HETATM    7  C   UNL     1      11.172   0.430  24.263  1.00  0.00    -0.003 C 
HETATM    8  C   UNL     1       9.582  -1.318  24.123  1.00  0.00     0.049 A 
ENDROOT
BRANCH   8   9
HETATM    9  C   UNL     1       8.983  -2.076  25.072  1.00  0.00     0.255 C 
HETATM   10  O   UNL     1       8.862  -1.624  26.121  1.00  0.00    -0.268 OA
HETATM   11  N   UNL     1       8.651  -3.266  24.555  1.00  0.00    -0.321 N 
ATOM     12  HN  UNL     1       8.878  -3.488  23.586  1.00  0.00     0.169 HD
BRANCH  11  13
HETATM   13  C   UNL     1       8.066  -4.092  25.268  1.00  0.00     0.060 A 
HETATM   14  C   UNL     1       8.304  -4.882  26.312  1.00  0.00     0.117 A 
HETATM   15  N   UNL     1       7.999  -5.665  27.170  1.00  0.00    -0.373 N 
HETATM   16  C   UNL     1       6.796  -5.768  26.849  1.00  0.00     0.088 A 
ATOM     17  HN  UNL     1       8.544  -6.101  27.913  1.00  0.00     0.164 HD
HETATM   18  C   UNL     1       6.146  -5.210  25.965  1.00  0.00     0.030 A 
HETATM   19  C   UNL     1       6.509  -4.335  25.035  1.00  0.00    -0.016 A 
HETATM   20  C   UNL     1       5.973  -3.830  24.254  1.00  0.00     0.026 C 
ENDBRANCH  11  13
ENDBRANCH   8   9
BRANCH   1  21
HETATM   21  C   UNL     1       8.647   0.239  21.840  1.00  0.00    -0.022 C 
BRANCH  21  22
HETATM   22  N   UNL     1       7.848   0.847  21.211  1.00  0.00    -0.249 N 
ATOM     23  HN  UNL     1       7.751   1.834  21.452  1.00  0.00     0.188 HD
BRANCH  22  24
HETATM   24  S   UNL     1       6.898   0.317  20.029  1.00  0.00     0.233 S 
HETATM   25  C   UNL     1       5.600   1.533  19.928  1.00  0.00     0.186 C 
HETATM   26  O   UNL     1       7.577   0.338  18.751  1.00  0.00    -0.205 OA
HETATM   27  O   UNL     1       6.270  -0.938  20.298  1.00  0.00    -0.205 OA
ENDBRANCH  22  24
ENDBRANCH  21  22
ENDBRANCH   1  21
TORSDOF 5
ENDMDL
MODEL 3
REMARK VINA RESULT:    -7.697      3.908      5.884
REMARK INTER + INTRA:         -10.557
REMARK INTER:                  -9.839
REMARK INTRA:                  -0.718
REMARK UNBOUND:                -0.611
REMARK  5 active torsions:
REMARK  status: ('A' for Active; 'I' for Inactive)
REMARK    1  A    between atoms: S_2  and  N_5 
REMARK    2  A    between atoms: N_5  and  C_7 
REMARK    3  A    between atoms: C_7  and  C_8 
REMARK    4  A    between atoms: C_15  and  C_16 
REMARK       I    between atoms: C_16  and  N_18 
REMARK    5  A    between atoms: N_18  and  C_20 
ROOT
HETATM    1  C   UNL     1       7.284  -4.997  25.447  1.00  0.00     0.040 A 
HETATM    2  C   UNL     1       7.000  -4.853  24.158  1.00  0.00     0.066 A 
HETATM    3  C   UNL     1       7.560  -5.755  22.906  1.00  0.00    -0.003 C 
HETATM    4  C   UNL     1       7.028  -5.978  21.986  1.00  0.00    -0.002 C 
HETATM    5  C   UNL     1       5.705  -5.680  21.700  1.00  0.00    -0.001 C 
HETATM    6  C   UNL     1       5.067  -5.116  22.705  1.00  0.00    -0.002 C 
HETATM    7  C   UNL     1       5.393  -4.809  23.685  1.00  0.00    -0.003 C 
HETATM    8  C   UNL     1       7.427  -3.738  24.249  1.00  0.00     0.049 A 
ENDROOT
BRANCH   8   9
HETATM    9  C   UNL     1       7.855  -2.465  24.085  1.00  0.00     0.255 C 
HETATM   10  O   UNL     1       7.146  -1.723  23.567  1.00  0.00    -0.268 OA
HETATM   11  N   UNL     1       9.092  -2.338  24.582  1.00  0.00    -0.321 N 
ATOM     12  HN  UNL     1       9.572  -3.143  24.984  1.00  0.00     0.169 HD
BRANCH  11  13
HETATM   13  C   UNL     1       9.647  -1.231  24.549  1.00  0.00     0.060 A 
HETATM   14  C   UNL     1       9.597  -0.051  25.161  1.00  0.00     0.117 A 
HETATM   15  N   UNL     1       9.965   1.070  25.386  1.00  0.00    -0.373 N 
HETATM   16  C   UNL     1      10.897   1.084  24.552  1.00  0.00     0.088 A 
ATOM     17  HN  UNL     1       9.629   1.775  26.040  1.00  0.00     0.164 HD
HETATM   18  C   UNL     1      11.309   0.212  23.789  1.00  0.00     0.030 A 
HETATM   19  C   UNL     1      10.888  -1.028  23.570  1.00  0.00    -0.016 A 
HETATM   20  C   UNL     1      11.222  -1.812  22.918  1.00  0.00     0.026 C 
ENDBRANCH  11  13
ENDBRANCH   8   9
BRANCH   1  21
HETATM   21  C   UNL     1       7.345  -5.613  26.482  1.00  0.00    -0.022 C 
BRANCH  21  22
HETATM   22  N   UNL     1       7.548  -5.934  27.604  1.00  0.00    -0.249 N 
ATOM     23  HN  UNL     1       8.529  -6.008  27.875  1.00  0.00     0.188 HD
BRANCH  22  24
HETATM   24  S   UNL     1       6.477  -6.268  28.754  1.00  0.00     0.233 S 
HETATM   25  C   UNL     1       4.919  -6.355  27.895  1.00  0.00     0.186 C 
HETATM   26  O   UNL     1       6.701  -7.579  29.325  1.00  0.00    -0.205 OA
HETATM   27  O   UNL     1       6.346  -5.250  29.749  1.00  0.00    -0.205 OA
ENDBRANCH  22  24
ENDBRANCH  21  22
ENDBRANCH   1  21
TORSDOF 5
ENDMDL
MODEL 4
REMARK VINA RESULT:    -7.268      2.884      6.005
REMARK INTER + INTRA:         -10.003
REMARK INTER:                  -9.314
REMARK INTRA:                  -0.689
REMARK UNBOUND:                -0.611
REMARK  5 active torsions:
REMARK  status: ('A' for Active; 'I' for Inactive)
REMARK    1  A    between atoms: S_2  and  N_5 
REMARK    2  A    between atoms: N_5  and  C_7 
REMARK    3  A    between atoms: C_7  and  C_8 
REMARK    4  A    between atoms: C_15  and  C_16 
REMARK       I    between atoms: C_16  and  N_18 
REMARK    5  A    between atoms: N_18  and  C_20 
ROOT
HETATM    1  C   UNL     1       8.177  -0.381  20.999  1.00  0.00     0.040 A 
HETATM    2  C   UNL     1       6.996  -0.071  20.476  1.00  0.00     0.066 A 
HETATM    3  C   UNL     1       6.024   1.187  20.884  1.00  0.00    -0.003 C 
HETATM    4  C   UNL     1       5.353   1.723  20.218  1.00  0.00    -0.002 C 
HETATM    5  C   UNL     1       5.255   1.573  18.844  1.00  0.00    -0.001 C 
HETATM    6  C   UNL     1       6.125   0.718  18.347  1.00  0.00    -0.002 C 
HETATM    7  C   UNL     1       6.864   0.089  18.814  1.00  0.00    -0.003 C 
HETATM    8  C   UNL     1       6.629  -1.161  20.810  1.00  0.00     0.049 A 
ENDROOT
BRANCH   8   9
HETATM    9  C   UNL     1       5.975  -2.314  21.085  1.00  0.00     0.255 C 
HETATM   10  O   UNL     1       5.289  -2.748  20.272  1.00  0.00    -0.268 OA
HETATM   11  N   UNL     1       6.279  -2.720  22.324  1.00  0.00    -0.321 N 
ATOM     12  HN  UNL     1       6.902  -2.165  22.911  1.00  0.00     0.169 HD
BRANCH  11  13
HETATM   13  C   UNL     1       5.795  -3.778  22.749  1.00  0.00     0.060 A 
HETATM   14  C   UNL     1       5.748  -5.071  22.439  1.00  0.00     0.117 A 
HETATM   15  N   UNL     1       5.454  -6.220  22.625  1.00  0.00    -0.373 N 
HETATM   16  C   UNL     1       4.859  -6.041  23.710  1.00  0.00     0.088 A 
ATOM     17  HN  UNL     1       5.631  -7.062  22.079  1.00  0.00     0.164 HD
HETATM   18  C   UNL     1       4.680  -5.020  24.373  1.00  0.00     0.030 A 
HETATM   19  C   UNL     1       5.029  -3.760  24.146  1.00  0.00    -0.016 A 
HETATM   20  C   UNL     1       4.891  -2.849  24.699  1.00  0.00     0.026 C 
ENDBRANCH  11  13
ENDBRANCH   8   9
BRANCH   1  21
HETATM   21  C   UNL     1       9.323  -0.154  21.299  1.00  0.00    -0.022 C 
BRANCH  21  22
HETATM   22  N   UNL     1      10.460  -0.266  21.613  1.00  0.00    -0.249 N 
ATOM     23  HN  UNL     1      11.121   0.318  21.101  1.00  0.00     0.188 HD
BRANCH  22  24
HETATM   24  S   UNL     1      11.093  -1.220  22.740  1.00  0.00     0.233 S 
HETATM   25  C   UNL     1      11.403  -0.132  24.116  1.00  0.00     0.186 C 
HETATM   26  O   UNL     1      10.136  -2.203  23.204  1.00  0.00    -0.205 OA
HETATM   27  O   UNL     1      12.348  -1.801  22.380  1.00  0.00    -0.205 OA
ENDBRANCH  22  24
ENDBRANCH  21  22
ENDBRANCH   1  21
TORSDOF 5
ENDMDL
MODEL 5
REMARK VINA RESULT:    -7.118      3.242      6.248
REMARK INTER + INTRA:          -9.810
REMARK INTER:                  -9.018
REMARK INTRA:                  -0.792
REMARK UNBOUND:                -0.611
REMARK  5 active torsions:
REMARK  status: ('A' for Active; 'I' for Inactive)
REMARK    1  A    between atoms: S_2  and  N_5 
REMARK    2  A    between atoms: N_5  and  C_7 
REMARK    3  A    between atoms: C_7  and  C_8 
REMARK    4  A    between atoms: C_15  and  C_16 
REMARK       I    between atoms: C_16  and  N_18 
REMARK    5  A    between atoms: N_18  and  C_20 
ROOT
HETATM    1  C   UNL     1       8.789   0.663  21.409  1.00  0.00     0.040 A 
HETATM    2  C   UNL     1       7.630   0.395  20.820  1.00  0.00     0.066 A 
HETATM    3  C   UNL     1       6.223   1.233  20.955  1.00  0.00    -0.003 C 
HETATM    4  C   UNL     1       5.463   1.340  20.187  1.00  0.00    -0.002 C 
HETATM    5  C   UNL     1       5.550   0.920  18.870  1.00  0.00    -0.001 C 
HETATM    6  C   UNL     1       6.718   0.392  18.565  1.00  0.00    -0.002 C 
HETATM    7  C   UNL     1       7.595   0.191  19.157  1.00  0.00    -0.003 C 
HETATM    8  C   UNL     1       7.670  -0.673  21.359  1.00  0.00     0.049 A 
ENDROOT
BRANCH   8   9
HETATM    9  C   UNL     1       7.475  -1.920  21.850  1.00  0.00     0.255 C 
HETATM   10  O   UNL     1       8.392  -2.490  22.243  1.00  0.00    -0.268 OA
HETATM   11  N   UNL     1       6.179  -2.244  21.757  1.00  0.00    -0.321 N 
ATOM     12  HN  UNL     1       5.513  -1.593  21.340  1.00  0.00     0.169 HD
BRANCH  11  13
HETATM   13  C   UNL     1       5.798  -3.343  22.182  1.00  0.00     0.060 A 
HETATM   14  C   UNL     1       5.717  -4.611  21.789  1.00  0.00     0.117 A 
HETATM   15  N   UNL     1       5.482  -5.779  21.938  1.00  0.00    -0.373 N 
HETATM   16  C   UNL     1       5.091  -5.696  23.122  1.00  0.00     0.088 A 
ATOM     17  HN  UNL     1       5.572  -6.575  21.307  1.00  0.00     0.164 HD
HETATM   18  C   UNL     1       5.016  -4.730  23.881  1.00  0.00     0.030 A 
HETATM   19  C   UNL     1       5.297  -3.447  23.691  1.00  0.00    -0.016 A 
HETATM   20  C   UNL     1       5.246  -2.582  24.326  1.00  0.00     0.026 C 
ENDBRANCH  11  13
ENDBRANCH   8   9
BRANCH   1  21
HETATM   21  C   UNL     1       9.735   1.363  21.673  1.00  0.00    -0.022 C 
BRANCH  21  22
HETATM   22  N   UNL     1      10.428   2.228  22.091  1.00  0.00    -0.249 N 
ATOM     23  HN  UNL     1      10.791   2.881  21.396  1.00  0.00     0.188 HD
BRANCH  22  24
HETATM   24  S   UNL     1      10.870   2.503  23.611  1.00  0.00     0.233 S 
HETATM   25  C   UNL     1      11.856   1.086  24.047  1.00  0.00     0.186 C 
HETATM   26  O   UNL     1      11.742   3.654  23.711  1.00  0.00    -0.205 OA
HETATM   27  O   UNL     1       9.784   2.554  24.538  1.00  0.00    -0.205 OA
ENDBRANCH  22  24
ENDBRANCH  21  22
ENDBRANCH   1  21
TORSDOF 5
ENDMDL
MODEL 6
REMARK VINA RESULT:    -6.704     20.265     23.278
REMARK INTER + INTRA:          -9.275
REMARK INTER:                  -8.464
REMARK INTRA:                  -0.811
REMARK UNBOUND:                -0.611
REMARK  5 active torsions:
REMARK  status: ('A' for Active; 'I' for Inactive)
REMARK    1  A    between atoms: S_2  and  N_5 
REMARK    2  A    between atoms: N_5  and  C_7 
REMARK    3  A    between atoms: C_7  and  C_8 
REMARK    4  A    between atoms: C_15  and  C_16 
REMARK       I    between atoms: C_16  and  N_18 
REMARK    5  A    between atoms: N_18  and  C_20 
ROOT
HETATM    1  C   UNL     1       7.090  11.673   3.839  1.00  0.00     0.040 A 
HETATM    2  C   UNL     1       5.774  11.802   3.713  1.00  0.00     0.066 A 
HETATM    3  C   UNL     1       4.824  12.994   4.325  1.00  0.00    -0.003 C 
HETATM    4  C   UNL     1       3.913  13.381   3.879  1.00  0.00    -0.002 C 
HETATM    5  C   UNL     1       3.404  13.070   2.629  1.00  0.00    -0.001 C 
HETATM    6  C   UNL     1       4.175  12.256   1.938  1.00  0.00    -0.002 C 
HETATM    7  C   UNL     1       5.101  11.761   2.179  1.00  0.00    -0.003 C 
HETATM    8  C   UNL     1       5.679  10.725   4.227  1.00  0.00     0.049 A 
ENDROOT
BRANCH   8   9
HETATM    9  C   UNL     1       5.305   9.550   4.785  1.00  0.00     0.255 C 
HETATM   10  O   UNL     1       5.388   9.447   5.926  1.00  0.00    -0.268 OA
HETATM   11  N   UNL     1       4.904   8.703   3.827  1.00  0.00    -0.321 N 
ATOM     12  HN  UNL     1       4.934   8.982   2.846  1.00  0.00     0.169 HD
BRANCH  11  13
HETATM   13  C   UNL     1       4.497   7.578   4.146  1.00  0.00     0.060 A 
HETATM   14  C   UNL     1       4.971   6.404   4.552  1.00  0.00     0.117 A 
HETATM   15  N   UNL     1       4.875   5.273   4.943  1.00  0.00    -0.373 N 
HETATM   16  C   UNL     1       3.626   5.222   4.927  1.00  0.00     0.088 A 
ATOM     17  HN  UNL     1       5.579   4.582   5.202  1.00  0.00     0.164 HD
HETATM   18  C   UNL     1       2.788   6.076   4.640  1.00  0.00     0.030 A 
HETATM   19  C   UNL     1       2.925   7.328   4.221  1.00  0.00    -0.016 A 
HETATM   20  C   UNL     1       2.221   8.097   3.964  1.00  0.00     0.026 C 
ENDBRANCH  11  13
ENDBRANCH   8   9
BRANCH   1  21
HETATM   21  C   UNL     1       8.231  12.047   3.728  1.00  0.00    -0.022 C 
BRANCH  21  22
HETATM   22  N   UNL     1       9.210  12.633   3.411  1.00  0.00    -0.249 N 
ATOM     23  HN  UNL     1       9.967  12.063   3.033  1.00  0.00     0.188 HD
BRANCH  22  24
HETATM   24  S   UNL     1       9.499  14.212   3.501  1.00  0.00     0.233 S 
HETATM   25  C   UNL     1       8.493  14.918   2.213  1.00  0.00     0.186 C 
HETATM   26  O   UNL     1       9.018  14.770   4.747  1.00  0.00    -0.205 OA
HETATM   27  O   UNL     1      10.851  14.578   3.220  1.00  0.00    -0.205 OA
ENDBRANCH  22  24
ENDBRANCH  21  22
ENDBRANCH   1  21
TORSDOF 5
ENDMDL
MODEL 7
REMARK VINA RESULT:    -6.659      2.860      6.640
REMARK INTER + INTRA:          -9.216
REMARK INTER:                  -8.382
REMARK INTRA:                  -0.834
REMARK UNBOUND:                -0.611
REMARK  5 active torsions:
REMARK  status: ('A' for Active; 'I' for Inactive)
REMARK    1  A    between atoms: S_2  and  N_5 
REMARK    2  A    between atoms: N_5  and  C_7 
REMARK    3  A    between atoms: C_7  and  C_8 
REMARK    4  A    between atoms: C_15  and  C_16 
REMARK       I    between atoms: C_16  and  N_18 
REMARK    5  A    between atoms: N_18  and  C_20 
ROOT
HETATM    1  C   UNL     1       7.619   0.183  22.337  1.00  0.00     0.040 A 
HETATM    2  C   UNL     1       8.740   0.365  23.024  1.00  0.00     0.066 A 
HETATM    3  C   UNL     1      10.197   0.853  22.446  1.00  0.00    -0.003 C 
HETATM    4  C   UNL     1      10.937   1.441  22.983  1.00  0.00    -0.002 C 
HETATM    5  C   UNL     1      10.781   2.037  24.223  1.00  0.00    -0.001 C 
HETATM    6  C   UNL     1       9.574   1.886  24.729  1.00  0.00    -0.002 C 
HETATM    7  C   UNL     1       8.707   1.353  24.377  1.00  0.00    -0.003 C 
HETATM    8  C   UNL     1       8.653  -0.782  23.356  1.00  0.00     0.049 A 
ENDROOT
BRANCH   8   9
HETATM    9  C   UNL     1       8.788  -2.030  23.861  1.00  0.00     0.255 C 
HETATM   10  O   UNL     1       9.634  -2.688  23.444  1.00  0.00    -0.268 OA
HETATM   11  N   UNL     1       7.844  -2.249  24.784  1.00  0.00    -0.321 N 
ATOM     12  HN  UNL     1       7.151  -1.530  24.994  1.00  0.00     0.169 HD
BRANCH  11  13
HETATM   13  C   UNL     1       7.821  -3.333  25.381  1.00  0.00     0.060 A 
HETATM   14  C   UNL     1       8.514  -4.003  26.298  1.00  0.00     0.117 A 
HETATM   15  N   UNL     1       8.722  -4.923  27.040  1.00  0.00    -0.373 N 
HETATM   16  C   UNL     1       7.712  -5.591  26.729  1.00  0.00     0.088 A 
ATOM     17  HN  UNL     1       9.475  -5.101  27.705  1.00  0.00     0.164 HD
HETATM   18  C   UNL     1       6.796  -5.347  25.945  1.00  0.00     0.030 A 
HETATM   19  C   UNL     1       6.585  -4.311  25.143  1.00  0.00    -0.016 A 
HETATM   20  C   UNL     1       5.801  -4.065  24.451  1.00  0.00     0.026 C 
ENDBRANCH  11  13
ENDBRANCH   8   9
BRANCH   1  21
HETATM   21  C   UNL     1       6.726   0.534  21.605  1.00  0.00    -0.022 C 
BRANCH  21  22
HETATM   22  N   UNL     1       5.966   0.625  20.701  1.00  0.00    -0.249 N 
ATOM     23  HN  UNL     1       4.989   0.772  20.955  1.00  0.00     0.188 HD
BRANCH  22  24
HETATM   24  S   UNL     1       6.278   0.549  19.126  1.00  0.00     0.233 S 
HETATM   25  C   UNL     1       5.688  -1.059  18.638  1.00  0.00     0.186 C 
HETATM   26  O   UNL     1       5.497   1.514  18.382  1.00  0.00    -0.205 OA
HETATM   27  O   UNL     1       7.668   0.597  18.800  1.00  0.00    -0.205 OA
ENDBRANCH  22  24
ENDBRANCH  21  22
ENDBRANCH   1  21
TORSDOF 5
ENDMDL
MODEL 8
REMARK VINA RESULT:    -6.549      3.815      8.112
REMARK INTER + INTRA:          -9.075
REMARK INTER:                  -8.318
REMARK INTRA:                  -0.756
REMARK UNBOUND:                -0.611
REMARK  5 active torsions:
REMARK  status: ('A' for Active; 'I' for Inactive)
REMARK    1  A    between atoms: S_2  and  N_5 
REMARK    2  A    between atoms: N_5  and  C_7 
REMARK    3  A    between atoms: C_7  and  C_8 
REMARK    4  A    between atoms: C_15  and  C_16 
REMARK       I    between atoms: C_16  and  N_18 
REMARK    5  A    between atoms: N_18  and  C_20 
ROOT
HETATM    1  C   UNL     1       8.578  -3.245  24.079  1.00  0.00     0.040 A 
HETATM    2  C   UNL     1       7.455  -3.952  24.041  1.00  0.00     0.066 A 
HETATM    3  C   UNL     1       5.943  -3.406  23.707  1.00  0.00    -0.003 C 
HETATM    4  C   UNL     1       5.151  -3.968  23.220  1.00  0.00    -0.002 C 
HETATM    5  C   UNL     1       5.258  -5.220  22.638  1.00  0.00    -0.001 C 
HETATM    6  C   UNL     1       6.483  -5.706  22.665  1.00  0.00    -0.002 C 
HETATM    7  C   UNL     1       7.398  -5.329  23.088  1.00  0.00    -0.003 C 
HETATM    8  C   UNL     1       7.676  -4.254  25.178  1.00  0.00     0.049 A 
ENDROOT
BRANCH   8   9
HETATM    9  C   UNL     1       7.689  -4.728  26.446  1.00  0.00     0.255 C 
HETATM   10  O   UNL     1       8.683  -4.687  27.023  1.00  0.00    -0.268 OA
HETATM   11  N   UNL     1       6.472  -5.181  26.772  1.00  0.00    -0.321 N 
ATOM     12  HN  UNL     1       5.713  -5.154  26.091  1.00  0.00     0.169 HD
BRANCH  11  13
HETATM   13  C   UNL     1       6.279  -5.633  27.908  1.00  0.00     0.060 A 
HETATM   14  C   UNL     1       6.641  -6.664  28.667  1.00  0.00     0.117 A 
HETATM   15  N   UNL     1       6.679  -7.301  29.684  1.00  0.00    -0.373 N 
HETATM   16  C   UNL     1       5.955  -6.536  30.358  1.00  0.00     0.088 A 
ATOM     17  HN  UNL     1       7.147  -8.176  29.919  1.00  0.00     0.164 HD
HETATM   18  C   UNL     1       5.421  -5.467  30.067  1.00  0.00     0.030 A 
HETATM   19  C   UNL     1       5.408  -4.778  28.932  1.00  0.00    -0.016 A 
HETATM   20  C   UNL     1       4.957  -3.847  28.644  1.00  0.00     0.026 C 
ENDBRANCH  11  13
ENDBRANCH   8   9
BRANCH   1  21
HETATM   21  C   UNL     1       9.414  -2.511  23.613  1.00  0.00    -0.022 C 
BRANCH  21  22
HETATM   22  N   UNL     1       9.963  -1.631  23.041  1.00  0.00    -0.249 N 
ATOM     23  HN  UNL     1       9.821  -1.600  22.032  1.00  0.00     0.188 HD
BRANCH  22  24
HETATM   24  S   UNL     1      10.903  -0.479  23.652  1.00  0.00     0.233 S 
HETATM   25  C   UNL     1      10.678   0.903  22.552  1.00  0.00     0.186 C 
HETATM   26  O   UNL     1      10.438  -0.047  24.952  1.00  0.00    -0.205 OA
HETATM   27  O   UNL     1      12.297  -0.794  23.643  1.00  0.00    -0.205 OA
ENDBRANCH  22  24
ENDBRANCH  21  22
ENDBRANCH   1  21
TORSDOF 5
ENDMDL
MODEL 9
REMARK VINA RESULT:    -6.455     20.970     24.363
REMARK INTER + INTRA:          -8.953
REMARK INTER:                  -8.132
REMARK INTRA:                  -0.821
REMARK UNBOUND:                -0.611
REMARK  5 active torsions:
REMARK  status: ('A' for Active; 'I' for Inactive)
REMARK    1  A    between atoms: S_2  and  N_5 
REMARK    2  A    between atoms: N_5  and  C_7 
REMARK    3  A    between atoms: C_7  and  C_8 
REMARK    4  A    between atoms: C_15  and  C_16 
REMARK       I    between atoms: C_16  and  N_18 
REMARK    5  A    between atoms: N_18  and  C_20 
ROOT
HETATM    1  C   UNL     1       6.140  12.429   1.832  1.00  0.00     0.040 A 
HETATM    2  C   UNL     1       5.030  12.342   2.555  1.00  0.00     0.066 A 
HETATM    3  C   UNL     1       4.750  12.993   4.036  1.00  0.00    -0.003 C 
HETATM    4  C   UNL     1       3.792  13.341   4.414  1.00  0.00    -0.002 C 
HETATM    5  C   UNL     1       2.610  13.451   3.701  1.00  0.00    -0.001 C 
HETATM    6  C   UNL     1       2.735  13.137   2.428  1.00  0.00    -0.002 C 
HETATM    7  C   UNL     1       3.571  12.775   1.854  1.00  0.00    -0.003 C 
HETATM    8  C   UNL     1       5.165  11.153   2.511  1.00  0.00     0.049 A 
ENDROOT
BRANCH   8   9
HETATM    9  C   UNL     1       5.095   9.805   2.616  1.00  0.00     0.255 C 
HETATM   10  O   UNL     1       5.410   9.180   1.704  1.00  0.00    -0.268 OA
HETATM   11  N   UNL     1       4.637   9.470   3.828  1.00  0.00    -0.321 N 
ATOM     12  HN  UNL     1       4.380  10.193   4.500  1.00  0.00     0.169 HD
BRANCH  11  13
HETATM   13  C   UNL     1       4.528   8.273   4.124  1.00  0.00     0.060 A 
HETATM   14  C   UNL     1       5.269   7.269   4.585  1.00  0.00     0.117 A 
HETATM   15  N   UNL     1       5.452   6.150   4.980  1.00  0.00    -0.373 N 
HETATM   16  C   UNL     1       4.272   5.758   4.855  1.00  0.00     0.088 A 
ATOM     17  HN  UNL     1       6.293   5.676   5.309  1.00  0.00     0.164 HD
HETATM   18  C   UNL     1       3.260   6.352   4.484  1.00  0.00     0.030 A 
HETATM   19  C   UNL     1       3.085   7.599   4.063  1.00  0.00    -0.016 A 
HETATM   20  C   UNL     1       2.222   8.149   3.735  1.00  0.00     0.026 C 
ENDBRANCH  11  13
ENDBRANCH   8   9
BRANCH   1  21
HETATM   21  C   UNL     1       7.015  13.028   1.257  1.00  0.00    -0.022 C 
BRANCH  21  22
HETATM   22  N   UNL     1       7.792  13.853   0.912  1.00  0.00    -0.249 N 
ATOM     23  HN  UNL     1       8.019  13.862  -0.082  1.00  0.00     0.188 HD
BRANCH  22  24
HETATM   24  S   UNL     1       8.533  14.960   1.811  1.00  0.00     0.233 S 
HETATM   25  C   UNL     1       9.223  14.037   3.168  1.00  0.00     0.186 C 
HETATM   26  O   UNL     1       9.652  15.552   1.109  1.00  0.00    -0.205 OA
HETATM   27  O   UNL     1       7.659  15.938   2.376  1.00  0.00    -0.205 OA
ENDBRANCH  22  24
ENDBRANCH  21  22
ENDBRANCH   1  21
TORSDOF 5
ENDMDL
