MODEL 1
REMARK VINA RESULT:    -7.646      0.000      0.000
REMARK INTER + INTRA:         -11.384
REMARK INTER:                 -10.328
REMARK INTRA:                  -1.056
REMARK UNBOUND:                -1.056
REMARK  6 active torsions:
REMARK  status: ('A' for Active; 'I' for Inactive)
REMARK    1  A    between atoms: S_2  and  N_5 
REMARK    2  A    between atoms: C_7  and  C_8 
REMARK    3  A    between atoms: C_8  and  C_9 
REMARK    4  A    between atoms: C_9  and  C_15 
REMARK    5  A    between atoms: C_15  and  C_16 
REMARK       I    between atoms: C_16  and  N_18 
REMARK    6  A    between atoms: N_18  and  C_20 
ROOT
HETATM    1  C   UNL     1       9.531  -1.376  23.445  1.00  0.00     0.076 C 
HETATM    2  C   UNL     1       9.891  -0.245  24.615  1.00  0.00     0.003 C 
HETATM    3  C   UNL     1      10.865   0.204  24.780  1.00  0.00    -0.002 C 
HETATM    4  C   UNL     1      12.097  -0.021  24.253  1.00  0.00    -0.001 C 
HETATM    5  C   UNL     1      12.003  -1.136  23.314  1.00  0.00    -0.002 C 
HETATM    6  C   UNL     1      11.132  -1.697  23.010  1.00  0.00     0.003 C 
ENDROOT
BRANCH   1   7
HETATM    7  C   UNL     1       8.726  -2.347  23.526  1.00  0.00     0.021 C 
BRANCH   7   8
HETATM    8  C   UNL     1       8.104  -3.297  23.116  1.00  0.00     0.098 C 
HETATM    9  N   UNL     1       7.799  -4.198  22.363  1.00  0.00    -0.296 N 
ATOM     10  HN  UNL     1       8.554  -4.778  21.997  1.00  0.00     0.177 HD
BRANCH   9  11
HETATM   11  S   UNL     1       6.302  -4.553  21.898  1.00  0.00     0.226 S 
HETATM   12  C   UNL     1       5.507  -5.084  23.402  1.00  0.00     0.186 C 
HETATM   13  O   UNL     1       5.577  -3.414  21.390  1.00  0.00    -0.206 OA
HETATM   14  O   UNL     1       6.259  -5.663  21.008  1.00  0.00    -0.206 OA
ENDBRANCH   9  11
ENDBRANCH   7   8
ENDBRANCH   1   7
BRANCH   1  15
HETATM   15  C   UNL     1       9.020  -0.823  22.428  1.00  0.00    -0.061 C 
BRANCH  15  16
HETATM   16  C   UNL     1       8.511  -0.284  21.367  1.00  0.00     0.290 C 
HETATM   17  O   UNL     1       9.240   0.315  20.732  1.00  0.00    -0.259 OA
HETATM   18  N   UNL     1       7.187  -0.538  21.246  1.00  0.00    -0.315 N 
ATOM     19  HN  UNL     1       6.686  -1.061  21.964  1.00  0.00     0.170 HD
BRANCH  18  20
HETATM   20  C   UNL     1       6.593  -0.114  20.226  1.00  0.00     0.060 A 
HETATM   21  C   UNL     1       6.303  -0.551  19.005  1.00  0.00     0.117 A 
HETATM   22  N   UNL     1       5.778  -0.426  17.891  1.00  0.00    -0.373 N 
HETATM   23  C   UNL     1       5.314   0.832  18.057  1.00  0.00     0.088 A 
ATOM     24  HN  UNL     1       5.717  -1.067  17.100  1.00  0.00     0.164 HD
HETATM   25  C   UNL     1       5.421   1.523  19.040  1.00  0.00     0.030 A 
HETATM   26  C   UNL     1       5.966   1.324  20.275  1.00  0.00    -0.016 A 
HETATM   27  C   UNL     1       6.055   2.147  21.378  1.00  0.00     0.026 C 
ENDBRANCH  18  20
ENDBRANCH  15  16
ENDBRANCH   1  15
TORSDOF 6
ENDMDL
MODEL 2
REMARK VINA RESULT:    -7.338      2.722      5.740
REMARK INTER + INTRA:         -10.968
REMARK INTER:                  -9.925
REMARK INTRA:                  -1.043
REMARK UNBOUND:                -1.056
REMARK  6 active torsions:
REMARK  status: ('A' for Active; 'I' for Inactive)
REMARK    1  A    between atoms: S_2  and  N_5 
REMARK    2  A    between atoms: C_7  and  C_8 
REMARK    3  A    between atoms: C_8  and  C_9 
REMARK    4  A    between atoms: C_9  and  C_15 
REMARK    5  A    between atoms: C_15  and  C_16 
REMARK       I    between atoms: C_16  and  N_18 
REMARK    6  A    between atoms: N_18  and  C_20 
ROOT
HETATM    1  C   UNL     1      10.589  -0.791  23.141  1.00  0.00     0.076 C 
HETATM    2  C   UNL     1      11.943  -1.663  22.711  1.00  0.00     0.003 C 
HETATM    3  C   UNL     1      12.921  -1.579  23.172  1.00  0.00    -0.002 C 
HETATM    4  C   UNL     1      13.442  -0.742  24.107  1.00  0.00    -0.001 C 
HETATM    5  C   UNL     1      12.420   0.234  24.476  1.00  0.00    -0.002 C 
HETATM    6  C   UNL     1      11.396   0.307  24.140  1.00  0.00     0.003 C 
ENDROOT
BRANCH   1   7
HETATM    7  C   UNL     1       9.676  -0.353  22.385  1.00  0.00     0.021 C 
BRANCH   7   8
HETATM    8  C   UNL     1       8.926  -0.376  21.439  1.00  0.00     0.098 C 
HETATM    9  N   UNL     1       8.557  -0.206  20.296  1.00  0.00    -0.296 N 
ATOM     10  HN  UNL     1       9.197  -0.481  19.551  1.00  0.00     0.177 HD
BRANCH   9  11
HETATM   11  S   UNL     1       7.140   0.416  19.861  1.00  0.00     0.226 S 
HETATM   12  C   UNL     1       6.006  -0.947  20.043  1.00  0.00     0.186 C 
HETATM   13  O   UNL     1       6.695   1.483  20.724  1.00  0.00    -0.206 OA
HETATM   14  O   UNL     1       7.108   0.783  18.486  1.00  0.00    -0.206 OA
ENDBRANCH   9  11
ENDBRANCH   7   8
ENDBRANCH   1   7
BRANCH   1  15
HETATM   15  C   UNL     1       9.851  -1.462  23.920  1.00  0.00    -0.061 C 
BRANCH  15  16
HETATM   16  C   UNL     1       9.124  -2.150  24.740  1.00  0.00     0.290 C 
HETATM   17  O   UNL     1       8.786  -1.594  25.671  1.00  0.00    -0.259 OA
HETATM   18  N   UNL     1       8.932  -3.421  24.312  1.00  0.00    -0.315 N 
ATOM     19  HN  UNL     1       9.374  -3.759  23.457  1.00  0.00     0.170 HD
BRANCH  18  20
HETATM   20  C   UNL     1       8.195  -4.171  24.996  1.00  0.00     0.060 A 
HETATM   21  C   UNL     1       8.318  -4.980  26.043  1.00  0.00     0.117 A 
HETATM   22  N   UNL     1       7.858  -5.756  26.889  1.00  0.00    -0.373 N 
HETATM   23  C   UNL     1       6.584  -5.771  26.439  1.00  0.00     0.088 A 
ATOM     24  HN  UNL     1       8.299  -6.234  27.676  1.00  0.00     0.164 HD
HETATM   25  C   UNL     1       6.139  -5.160  25.498  1.00  0.00     0.030 A 
HETATM   26  C   UNL     1       6.676  -4.268  24.617  1.00  0.00    -0.016 A 
HETATM   27  C   UNL     1       6.119  -3.583  23.556  1.00  0.00     0.026 C 
ENDBRANCH  18  20
ENDBRANCH  15  16
ENDBRANCH   1  15
TORSDOF 6
ENDMDL
MODEL 3
REMARK VINA RESULT:    -6.793      3.959      6.165
REMARK INTER + INTRA:         -10.232
REMARK INTER:                  -9.420
REMARK INTRA:                  -0.811
REMARK UNBOUND:                -1.056
REMARK  6 active torsions:
REMARK  status: ('A' for Active; 'I' for Inactive)
REMARK    1  A    between atoms: S_2  and  N_5 
REMARK    2  A    between atoms: C_7  and  C_8 
REMARK    3  A    between atoms: C_8  and  C_9 
REMARK    4  A    between atoms: C_9  and  C_15 
REMARK    5  A    between atoms: C_15  and  C_16 
REMARK       I    between atoms: C_16  and  N_18 
REMARK    6  A    between atoms: N_18  and  C_20 
ROOT
HETATM    1  C   UNL     1       7.252  -4.255  23.846  1.00  0.00     0.076 C 
HETATM    2  C   UNL     1       7.607  -5.616  22.952  1.00  0.00     0.003 C 
HETATM    3  C   UNL     1       7.146  -5.889  22.009  1.00  0.00    -0.002 C 
HETATM    4  C   UNL     1       6.116  -5.371  21.289  1.00  0.00    -0.001 C 
HETATM    5  C   UNL     1       5.550  -4.249  22.033  1.00  0.00    -0.002 C 
HETATM    6  C   UNL     1       5.872  -3.823  22.971  1.00  0.00     0.003 C 
ENDROOT
BRANCH   1   7
HETATM    7  C   UNL     1       7.225  -4.138  25.104  1.00  0.00     0.021 C 
BRANCH   7   8
HETATM    8  C   UNL     1       7.130  -4.527  26.243  1.00  0.00     0.098 C 
HETATM    9  N   UNL     1       7.446  -5.109  27.259  1.00  0.00    -0.296 N 
ATOM     10  HN  UNL     1       8.409  -5.007  27.577  1.00  0.00     0.177 HD
BRANCH   9  11
HETATM   11  S   UNL     1       6.468  -6.027  28.146  1.00  0.00     0.226 S 
HETATM   12  C   UNL     1       5.380  -4.852  28.928  1.00  0.00     0.186 C 
HETATM   13  O   UNL     1       5.660  -6.926  27.359  1.00  0.00    -0.206 OA
HETATM   14  O   UNL     1       7.157  -6.696  29.197  1.00  0.00    -0.206 OA
ENDBRANCH   9  11
ENDBRANCH   7   8
ENDBRANCH   1   7
BRANCH   1  15
HETATM   15  C   UNL     1       8.089  -3.334  23.614  1.00  0.00    -0.061 C 
BRANCH  15  16
HETATM   16  C   UNL     1       8.968  -2.417  23.365  1.00  0.00     0.290 C 
HETATM   17  O   UNL     1       9.154  -2.212  22.262  1.00  0.00    -0.259 OA
HETATM   18  N   UNL     1       9.503  -1.898  24.495  1.00  0.00    -0.315 N 
ATOM     19  HN  UNL     1       9.243  -2.260  25.413  1.00  0.00     0.170 HD
BRANCH  18  20
HETATM   20  C   UNL     1      10.328  -0.961  24.384  1.00  0.00     0.060 A 
HETATM   21  C   UNL     1      11.618  -0.815  24.096  1.00  0.00     0.117 A 
HETATM   22  N   UNL     1      12.626  -0.126  23.898  1.00  0.00    -0.373 N 
HETATM   23  C   UNL     1      12.069   1.078  24.156  1.00  0.00     0.088 A 
ATOM     24  HN  UNL     1      13.575  -0.384  23.626  1.00  0.00     0.164 HD
HETATM   25  C   UNL     1      10.923   1.298  24.462  1.00  0.00     0.030 A 
HETATM   26  C   UNL     1       9.823   0.506  24.620  1.00  0.00    -0.016 A 
HETATM   27  C   UNL     1       8.522   0.809  24.963  1.00  0.00     0.026 C 
ENDBRANCH  18  20
ENDBRANCH  15  16
ENDBRANCH   1  15
TORSDOF 6
ENDMDL
MODEL 4
REMARK VINA RESULT:    -6.577      2.310      2.467
REMARK INTER + INTRA:          -9.940
REMARK INTER:                  -9.112
REMARK INTRA:                  -0.828
REMARK UNBOUND:                -1.056
REMARK  6 active torsions:
REMARK  status: ('A' for Active; 'I' for Inactive)
REMARK    1  A    between atoms: S_2  and  N_5 
REMARK    2  A    between atoms: C_7  and  C_8 
REMARK    3  A    between atoms: C_8  and  C_9 
REMARK    4  A    between atoms: C_9  and  C_15 
REMARK    5  A    between atoms: C_15  and  C_16 
REMARK       I    between atoms: C_16  and  N_18 
REMARK    6  A    between atoms: N_18  and  C_20 
ROOT
HETATM    1  C   UNL     1       9.380  -1.597  23.921  1.00  0.00     0.076 C 
HETATM    2  C   UNL     1       9.555  -0.252  24.889  1.00  0.00     0.003 C 
HETATM    3  C   UNL     1      10.369   0.463  24.835  1.00  0.00    -0.002 C 
HETATM    4  C   UNL     1      11.526   0.507  24.124  1.00  0.00    -0.001 C 
HETATM    5  C   UNL     1      11.630  -0.717  23.333  1.00  0.00    -0.002 C 
HETATM    6  C   UNL     1      10.928  -1.532  23.245  1.00  0.00     0.003 C 
ENDROOT
BRANCH   1   7
HETATM    7  C   UNL     1       8.913  -2.728  24.239  1.00  0.00     0.021 C 
BRANCH   7   8
HETATM    8  C   UNL     1       8.582  -3.607  24.998  1.00  0.00     0.098 C 
HETATM    9  N   UNL     1       8.215  -4.709  25.345  1.00  0.00    -0.296 N 
ATOM     10  HN  UNL     1       8.678  -5.513  24.921  1.00  0.00     0.177 HD
BRANCH   9  11
HETATM   11  S   UNL     1       7.058  -5.006  26.421  1.00  0.00     0.226 S 
HETATM   12  C   UNL     1       5.717  -5.642  25.435  1.00  0.00     0.186 C 
HETATM   13  O   UNL     1       7.419  -6.018  27.384  1.00  0.00    -0.206 OA
HETATM   14  O   UNL     1       6.573  -3.819  27.039  1.00  0.00    -0.206 OA
ENDBRANCH   9  11
ENDBRANCH   7   8
ENDBRANCH   1   7
BRANCH   1  15
HETATM   15  C   UNL     1       8.592  -1.359  22.959  1.00  0.00    -0.061 C 
BRANCH  15  16
HETATM   16  C   UNL     1       7.777  -1.151  21.975  1.00  0.00     0.290 C 
HETATM   17  O   UNL     1       6.987  -1.953  21.824  1.00  0.00    -0.259 OA
HETATM   18  N   UNL     1       8.058  -0.005  21.310  1.00  0.00    -0.315 N 
ATOM     19  HN  UNL     1       8.862   0.568  21.568  1.00  0.00     0.170 HD
BRANCH  18  20
HETATM   20  C   UNL     1       7.301   0.334  20.370  1.00  0.00     0.060 A 
HETATM   21  C   UNL     1       7.146   0.047  19.081  1.00  0.00     0.117 A 
HETATM   22  N   UNL     1       6.564   0.159  17.995  1.00  0.00    -0.373 N 
HETATM   23  C   UNL     1       5.660   1.088  18.376  1.00  0.00     0.088 A 
ATOM     24  HN  UNL     1       6.718  -0.302  17.098  1.00  0.00     0.164 HD
HETATM   25  C   UNL     1       5.537   1.576  19.472  1.00  0.00     0.030 A 
HETATM   26  C   UNL     1       6.172   1.384  20.664  1.00  0.00    -0.016 A 
HETATM   27  C   UNL     1       5.987   1.963  21.902  1.00  0.00     0.026 C 
ENDBRANCH  18  20
ENDBRANCH  15  16
ENDBRANCH   1  15
TORSDOF 6
ENDMDL
MODEL 5
REMARK VINA RESULT:    -6.510     14.809     16.057
REMARK INTER + INTRA:          -9.849
REMARK INTER:                  -8.874
REMARK INTRA:                  -0.976
REMARK UNBOUND:                -1.056
REMARK  6 active torsions:
REMARK  status: ('A' for Active; 'I' for Inactive)
REMARK    1  A    between atoms: S_2  and  N_5 
REMARK    2  A    between atoms: C_7  and  C_8 
REMARK    3  A    between atoms: C_8  and  C_9 
REMARK    4  A    between atoms: C_9  and  C_15 
REMARK    5  A    between atoms: C_15  and  C_16 
REMARK       I    between atoms: C_16  and  N_18 
REMARK    6  A    between atoms: N_18  and  C_20 
ROOT
HETATM    1  C   UNL     1      23.255  -1.601  23.514  1.00  0.00     0.076 C 
HETATM    2  C   UNL     1      21.921  -1.129  24.393  1.00  0.00     0.003 C 
HETATM    3  C   UNL     1      21.745  -0.134  24.788  1.00  0.00    -0.002 C 
HETATM    4  C   UNL     1      22.499   0.995  24.840  1.00  0.00    -0.001 C 
HETATM    5  C   UNL     1      23.809   0.705  24.262  1.00  0.00    -0.002 C 
HETATM    6  C   UNL     1      24.166  -0.209  23.812  1.00  0.00     0.003 C 
ENDROOT
BRANCH   1   7
HETATM    7  C   UNL     1      23.845  -2.719  23.538  1.00  0.00     0.021 C 
BRANCH   7   8
HETATM    8  C   UNL     1      24.153  -3.790  24.003  1.00  0.00     0.098 C 
HETATM    9  N   UNL     1      24.242  -4.998  24.075  1.00  0.00    -0.296 N 
ATOM     10  HN  UNL     1      24.523  -5.498  23.232  1.00  0.00     0.177 HD
BRANCH   9  11
HETATM   11  S   UNL     1      23.953  -5.872  25.392  1.00  0.00     0.226 S 
HETATM   12  C   UNL     1      25.547  -5.990  26.180  1.00  0.00     0.186 C 
HETATM   13  O   UNL     1      23.048  -5.232  26.316  1.00  0.00    -0.206 OA
HETATM   14  O   UNL     1      23.559  -7.205  25.084  1.00  0.00    -0.206 OA
ENDBRANCH   9  11
ENDBRANCH   7   8
ENDBRANCH   1   7
BRANCH   1  15
HETATM   15  C   UNL     1      23.009  -1.573  22.273  1.00  0.00    -0.061 C 
BRANCH  15  16
HETATM   16  C   UNL     1      22.764  -1.579  21.002  1.00  0.00     0.290 C 
HETATM   17  O   UNL     1      21.684  -1.788  20.718  1.00  0.00    -0.259 OA
HETATM   18  N   UNL     1      23.876  -1.347  20.263  1.00  0.00    -0.315 N 
ATOM     19  HN  UNL     1      24.787  -1.236  20.709  1.00  0.00     0.170 HD
BRANCH  18  20
HETATM   20  C   UNL     1      23.755  -1.274  19.018  1.00  0.00     0.060 A 
HETATM   21  C   UNL     1      23.403  -0.362  18.117  1.00  0.00     0.117 A 
HETATM   22  N   UNL     1      23.219   0.016  16.953  1.00  0.00    -0.373 N 
HETATM   23  C   UNL     1      23.503  -1.155  16.342  1.00  0.00     0.088 A 
ATOM     24  HN  UNL     1      22.940   0.922  16.576  1.00  0.00     0.164 HD
HETATM   25  C   UNL     1      23.841  -2.187  16.868  1.00  0.00     0.030 A 
HETATM   26  C   UNL     1      24.085  -2.547  18.162  1.00  0.00    -0.016 A 
HETATM   27  C   UNL     1      24.482  -3.746  18.717  1.00  0.00     0.026 C 
ENDBRANCH  18  20
ENDBRANCH  15  16
ENDBRANCH   1  15
TORSDOF 6
ENDMDL
MODEL 6
REMARK VINA RESULT:    -6.243     24.279     27.633
REMARK INTER + INTRA:          -9.489
REMARK INTER:                  -8.416
REMARK INTRA:                  -1.073
REMARK UNBOUND:                -1.056
REMARK  6 active torsions:
REMARK  status: ('A' for Active; 'I' for Inactive)
REMARK    1  A    between atoms: S_2  and  N_5 
REMARK    2  A    between atoms: C_7  and  C_8 
REMARK    3  A    between atoms: C_8  and  C_9 
REMARK    4  A    between atoms: C_9  and  C_15 
REMARK    5  A    between atoms: C_15  and  C_16 
REMARK       I    between atoms: C_16  and  N_18 
REMARK    6  A    between atoms: N_18  and  C_20 
ROOT
HETATM    1  C   UNL     1       8.542  18.448   1.102  1.00  0.00     0.076 C 
HETATM    2  C   UNL     1       8.421  19.450  -0.224  1.00  0.00     0.003 C 
HETATM    3  C   UNL     1       7.730  20.280  -0.326  1.00  0.00    -0.002 C 
HETATM    4  C   UNL     1       6.701  20.737   0.435  1.00  0.00    -0.001 C 
HETATM    5  C   UNL     1       6.540  19.844   1.580  1.00  0.00    -0.002 C 
HETATM    6  C   UNL     1       7.129  18.982   1.858  1.00  0.00     0.003 C 
ENDROOT
BRANCH   1   7
HETATM    7  C   UNL     1       8.799  17.210   1.119  1.00  0.00     0.021 C 
BRANCH   7   8
HETATM    8  C   UNL     1       9.176  16.172   1.605  1.00  0.00     0.098 C 
HETATM    9  N   UNL     1       9.093  15.048   2.054  1.00  0.00    -0.296 N 
ATOM     10  HN  UNL     1       8.527  14.377   1.536  1.00  0.00     0.177 HD
BRANCH   9  11
HETATM   11  S   UNL     1       9.805  14.531   3.399  1.00  0.00     0.226 S 
HETATM   12  C   UNL     1       9.056  15.518   4.680  1.00  0.00     0.186 C 
HETATM   13  O   UNL     1       9.534  13.144   3.692  1.00  0.00    -0.206 OA
HETATM   14  O   UNL     1      11.197  14.828   3.426  1.00  0.00    -0.206 OA
ENDBRANCH   9  11
ENDBRANCH   7   8
ENDBRANCH   1   7
BRANCH   1  15
HETATM   15  C   UNL     1       9.482  18.821   1.863  1.00  0.00    -0.061 C 
BRANCH  15  16
HETATM   16  C   UNL     1      10.422  19.196   2.670  1.00  0.00     0.290 C 
HETATM   17  O   UNL     1      11.343  19.637   2.169  1.00  0.00    -0.259 OA
HETATM   18  N   UNL     1      10.109  18.963   3.967  1.00  0.00    -0.315 N 
ATOM     19  HN  UNL     1       9.238  18.496   4.220  1.00  0.00     0.170 HD
BRANCH  18  20
HETATM   20  C   UNL     1      10.920  19.336   4.847  1.00  0.00     0.060 A 
HETATM   21  C   UNL     1      11.979  18.843   5.481  1.00  0.00     0.117 A 
HETATM   22  N   UNL     1      12.915  18.931   6.285  1.00  0.00    -0.373 N 
HETATM   23  C   UNL     1      12.638  20.172   6.742  1.00  0.00     0.088 A 
ATOM     24  HN  UNL     1      13.659  18.276   6.527  1.00  0.00     0.164 HD
HETATM   25  C   UNL     1      11.736  20.891   6.389  1.00  0.00     0.030 A 
HETATM   26  C   UNL     1      10.749  20.773   5.454  1.00  0.00    -0.016 A 
HETATM   27  C   UNL     1       9.740  21.635   5.077  1.00  0.00     0.026 C 
ENDBRANCH  18  20
ENDBRANCH  15  16
ENDBRANCH   1  15
TORSDOF 6
ENDMDL
MODEL 7
REMARK VINA RESULT:    -6.066     23.829     26.792
REMARK INTER + INTRA:          -9.249
REMARK INTER:                  -8.286
REMARK INTRA:                  -0.963
REMARK UNBOUND:                -1.056
REMARK  6 active torsions:
REMARK  status: ('A' for Active; 'I' for Inactive)
REMARK    1  A    between atoms: S_2  and  N_5 
REMARK    2  A    between atoms: C_7  and  C_8 
REMARK    3  A    between atoms: C_8  and  C_9 
REMARK    4  A    between atoms: C_9  and  C_15 
REMARK    5  A    between atoms: C_15  and  C_16 
REMARK       I    between atoms: C_16  and  N_18 
REMARK    6  A    between atoms: N_18  and  C_20 
ROOT
HETATM    1  C   UNL     1       8.722  17.985   2.219  1.00  0.00     0.076 C 
HETATM    2  C   UNL     1       7.300  18.760   1.826  1.00  0.00     0.003 C 
HETATM    3  C   UNL     1       7.096  19.268   0.889  1.00  0.00    -0.002 C 
HETATM    4  C   UNL     1       7.858  19.567  -0.196  1.00  0.00    -0.001 C 
HETATM    5  C   UNL     1       9.223  19.110   0.059  1.00  0.00    -0.002 C 
HETATM    6  C   UNL     1       9.615  18.581   0.914  1.00  0.00     0.003 C 
ENDROOT
BRANCH   1   7
HETATM    7  C   UNL     1       9.284  17.921   3.349  1.00  0.00     0.021 C 
BRANCH   7   8
HETATM    8  C   UNL     1      10.173  18.096   4.147  1.00  0.00     0.098 C 
HETATM    9  N   UNL     1      10.738  18.566   5.112  1.00  0.00    -0.296 N 
ATOM     10  HN  UNL     1      10.206  18.634   5.979  1.00  0.00     0.177 HD
BRANCH   9  11
HETATM   11  S   UNL     1      12.257  19.090   5.133  1.00  0.00     0.226 S 
HETATM   12  C   UNL     1      12.132  20.772   4.558  1.00  0.00     0.186 C 
HETATM   13  O   UNL     1      12.834  19.115   6.456  1.00  0.00    -0.206 OA
HETATM   14  O   UNL     1      13.081  18.406   4.196  1.00  0.00    -0.206 OA
ENDBRANCH   9  11
ENDBRANCH   7   8
ENDBRANCH   1   7
BRANCH   1  15
HETATM   15  C   UNL     1       8.628  16.741   2.011  1.00  0.00    -0.061 C 
BRANCH  15  16
HETATM   16  C   UNL     1       8.549  15.461   1.829  1.00  0.00     0.290 C 
HETATM   17  O   UNL     1       9.520  14.955   1.525  1.00  0.00    -0.259 OA
HETATM   18  N   UNL     1       7.294  14.991   2.028  1.00  0.00    -0.315 N 
ATOM     19  HN  UNL     1       6.526  15.625   2.246  1.00  0.00     0.170 HD
BRANCH  18  20
HETATM   20  C   UNL     1       7.104  13.755   1.936  1.00  0.00     0.060 A 
HETATM   21  C   UNL     1       6.944  12.855   0.971  1.00  0.00     0.117 A 
HETATM   22  N   UNL     1       6.780  11.697   0.569  1.00  0.00    -0.373 N 
HETATM   23  C   UNL     1       6.693  11.101   1.779  1.00  0.00     0.088 A 
ATOM     24  HN  UNL     1       6.727  11.313  -0.375  1.00  0.00     0.164 HD
HETATM   25  C   UNL     1       6.780  11.633   2.858  1.00  0.00     0.030 A 
HETATM   26  C   UNL     1       7.014  12.916   3.259  1.00  0.00    -0.016 A 
HETATM   27  C   UNL     1       7.116  13.477   4.515  1.00  0.00     0.026 C 
ENDBRANCH  18  20
ENDBRANCH  15  16
ENDBRANCH   1  15
TORSDOF 6
ENDMDL
MODEL 8
REMARK VINA RESULT:    -5.988      5.775      8.197
REMARK INTER + INTRA:          -9.144
REMARK INTER:                  -8.171
REMARK INTRA:                  -0.973
REMARK UNBOUND:                -1.056
REMARK  6 active torsions:
REMARK  status: ('A' for Active; 'I' for Inactive)
REMARK    1  A    between atoms: S_2  and  N_5 
REMARK    2  A    between atoms: C_7  and  C_8 
REMARK    3  A    between atoms: C_8  and  C_9 
REMARK    4  A    between atoms: C_9  and  C_15 
REMARK    5  A    between atoms: C_15  and  C_16 
REMARK       I    between atoms: C_16  and  N_18 
REMARK    6  A    between atoms: N_18  and  C_20 
ROOT
HETATM    1  C   UNL     1       5.505  -4.994  24.452  1.00  0.00     0.076 C 
HETATM    2  C   UNL     1       5.193  -3.566  23.652  1.00  0.00     0.003 C 
HETATM    3  C   UNL     1       5.609  -3.276  22.693  1.00  0.00    -0.002 C 
HETATM    4  C   UNL     1       6.548  -3.826  21.879  1.00  0.00    -0.001 C 
HETATM    5  C   UNL     1       7.079  -5.023  22.527  1.00  0.00    -0.002 C 
HETATM    6  C   UNL     1       6.789  -5.474  23.464  1.00  0.00     0.003 C 
ENDROOT
BRANCH   1   7
HETATM    7  C   UNL     1       5.608  -5.179  25.699  1.00  0.00     0.021 C 
BRANCH   7   8
HETATM    8  C   UNL     1       6.116  -5.599  26.710  1.00  0.00     0.098 C 
HETATM    9  N   UNL     1       6.601  -6.414  27.467  1.00  0.00    -0.296 N 
ATOM     10  HN  UNL     1       7.288  -7.061  27.081  1.00  0.00     0.177 HD
BRANCH   9  11
HETATM   11  S   UNL     1       6.248  -6.554  29.029  1.00  0.00     0.226 S 
HETATM   12  C   UNL     1       4.490  -6.842  29.042  1.00  0.00     0.186 C 
HETATM   13  O   UNL     1       6.888  -7.684  29.659  1.00  0.00    -0.206 OA
HETATM   14  O   UNL     1       6.462  -5.343  29.745  1.00  0.00    -0.206 OA
ENDBRANCH   9  11
ENDBRANCH   7   8
ENDBRANCH   1   7
BRANCH   1  15
HETATM   15  C   UNL     1       4.590  -5.841  24.236  1.00  0.00    -0.061 C 
BRANCH  15  16
HETATM   16  C   UNL     1       3.630  -6.685  24.031  1.00  0.00     0.290 C 
HETATM   17  O   UNL     1       3.749  -7.688  24.552  1.00  0.00    -0.259 OA
HETATM   18  N   UNL     1       2.677  -6.189  23.206  1.00  0.00    -0.315 N 
ATOM     19  HN  UNL     1       2.778  -5.266  22.783  1.00  0.00     0.170 HD
BRANCH  18  20
HETATM   20  C   UNL     1       1.667  -6.895  22.977  1.00  0.00     0.060 A 
HETATM   21  C   UNL     1       1.351  -7.945  22.226  1.00  0.00     0.117 A 
HETATM   22  N   UNL     1       0.561  -8.807  21.823  1.00  0.00    -0.373 N 
HETATM   23  C   UNL     1      -0.523  -8.386  22.510  1.00  0.00     0.088 A 
ATOM     24  HN  UNL     1       0.687  -9.587  21.177  1.00  0.00     0.164 HD
HETATM   25  C   UNL     1      -0.584  -7.451  23.270  1.00  0.00     0.030 A 
HETATM   26  C   UNL     1       0.333  -6.551  23.729  1.00  0.00    -0.016 A 
HETATM   27  C   UNL     1       0.217  -5.498  24.613  1.00  0.00     0.026 C 
ENDBRANCH  18  20
ENDBRANCH  15  16
ENDBRANCH   1  15
TORSDOF 6
ENDMDL
MODEL 9
REMARK VINA RESULT:    -5.916     22.961     26.130
REMARK INTER + INTRA:          -9.047
REMARK INTER:                  -8.214
REMARK INTRA:                  -0.833
REMARK UNBOUND:                -1.056
REMARK  6 active torsions:
REMARK  status: ('A' for Active; 'I' for Inactive)
REMARK    1  A    between atoms: S_2  and  N_5 
REMARK    2  A    between atoms: C_7  and  C_8 
REMARK    3  A    between atoms: C_8  and  C_9 
REMARK    4  A    between atoms: C_9  and  C_15 
REMARK    5  A    between atoms: C_15  and  C_16 
REMARK       I    between atoms: C_16  and  N_18 
REMARK    6  A    between atoms: N_18  and  C_20 
ROOT
HETATM    1  C   UNL     1       8.271  16.890   1.841  1.00  0.00     0.076 C 
HETATM    2  C   UNL     1       8.873  17.553   0.436  1.00  0.00     0.003 C 
HETATM    3  C   UNL     1       8.691  18.564   0.086  1.00  0.00    -0.002 C 
HETATM    4  C   UNL     1       7.893  19.572   0.523  1.00  0.00    -0.001 C 
HETATM    5  C   UNL     1       7.131  19.094   1.675  1.00  0.00    -0.002 C 
HETATM    6  C   UNL     1       7.179  18.136   2.171  1.00  0.00     0.003 C 
ENDROOT
BRANCH   1   7
HETATM    7  C   UNL     1       7.898  15.699   2.040  1.00  0.00     0.021 C 
BRANCH   7   8
HETATM    8  C   UNL     1       8.050  14.520   2.251  1.00  0.00     0.098 C 
HETATM    9  N   UNL     1       7.868  13.326   2.131  1.00  0.00    -0.296 N 
ATOM     10  HN  UNL     1       7.812  12.954   1.184  1.00  0.00     0.177 HD
BRANCH   9  11
HETATM   11  S   UNL     1       7.709  12.285   3.345  1.00  0.00     0.226 S 
HETATM   12  C   UNL     1       6.496  13.051   4.403  1.00  0.00     0.186 C 
HETATM   13  O   UNL     1       7.192  11.003   2.934  1.00  0.00    -0.206 OA
HETATM   14  O   UNL     1       8.898  12.167   4.119  1.00  0.00    -0.206 OA
ENDBRANCH   9  11
ENDBRANCH   7   8
ENDBRANCH   1   7
BRANCH   1  15
HETATM   15  C   UNL     1       9.129  16.951   2.770  1.00  0.00    -0.061 C 
BRANCH  15  16
HETATM   16  C   UNL     1       9.979  17.012   3.744  1.00  0.00     0.290 C 
HETATM   17  O   UNL     1      10.722  16.154   3.793  1.00  0.00    -0.259 OA
HETATM   18  N   UNL     1       9.786  18.102   4.526  1.00  0.00    -0.315 N 
ATOM     19  HN  UNL     1       9.013  18.743   4.350  1.00  0.00     0.170 HD
BRANCH  18  20
HETATM   20  C   UNL     1      10.585  18.300   5.472  1.00  0.00     0.060 A 
HETATM   21  C   UNL     1      10.787  17.837   6.701  1.00  0.00     0.117 A 
HETATM   22  N   UNL     1      11.413  17.793   7.767  1.00  0.00    -0.373 N 
HETATM   23  C   UNL     1      12.316  18.756   7.480  1.00  0.00     0.088 A 
ATOM     24  HN  UNL     1      11.288  17.214   8.598  1.00  0.00     0.164 HD
HETATM   25  C   UNL     1      12.403  19.389   6.456  1.00  0.00     0.030 A 
HETATM   26  C   UNL     1      11.718  19.369   5.277  1.00  0.00    -0.016 A 
HETATM   27  C   UNL     1      11.862  20.112   4.123  1.00  0.00     0.026 C 
ENDBRANCH  18  20
ENDBRANCH  15  16
ENDBRANCH   1  15
TORSDOF 6
ENDMDL
