stable:False satoms:7 tatoms:24 sratio:0.2916666666666667
  -OEChem-07092417513D

 24 24  0     1  0  0  0  0  0999 V2000
    6.6247   -4.8596   26.4286 C   0  0  0  0  0  0  0  0  0  0  0  0
    8.1893   -4.3104   26.1025 S   0  0  0  0  0  0  0  0  0  0  0  0
    9.0587   -5.4507   26.0349 O   0  0  0  0  0  0  0  0  0  0  0  0
    8.5989   -3.4319   27.1424 O   0  0  0  0  0  0  0  0  0  0  0  0
    8.1077   -3.5259   24.6758 N   0  0  0  0  0  0  0  0  0  0  0  0
    8.9836   -2.9175   24.1485 C   0  0  0  0  0  0  0  0  0  0  0  0
    9.4332   -1.9738   23.4989 C   0  0  0  0  0  0  0  0  0  0  0  0
   10.3020   -1.1178   23.2757 C   0  0  2  0  0  0  0  0  0  0  0  0
   11.0229    0.0257   24.3216 C   0  0  0  0  0  0  0  0  0  0  0  0
   12.0636    0.3116   24.2620 C   0  0  0  0  0  0  0  0  0  0  0  0
   13.1152   -0.1831   23.5076 C   0  0  0  0  0  0  0  0  0  0  0  0
   12.7266   -1.2786   22.6428 C   0  0  0  0  0  0  0  0  0  0  0  0
   11.8230   -1.7459   22.4987 C   0  0  0  0  0  0  0  0  0  0  0  0
    9.7695   -0.5737   22.3464 C   0  0  0  0  0  0  0  0  0  0  0  0
    9.0756    0.0476   21.3788 C   0  0  0  0  0  0  0  0  0  0  0  0
    9.5152    1.0134   20.9588 O   0  0  0  0  0  0  0  0  0  0  0  0
    7.9750   -0.5783   21.0738 N   0  0  0  0  0  0  0  0  0  0  0  0
    7.2225   -0.1224   20.1581 C   0  0  0  0  0  0  0  0  0  0  0  0
    7.2284   -0.0069   18.8769 C   0  0  0  0  0  0  0  0  0  0  0  0
    6.7860    0.3317   17.7888 N   0  0  0  0  0  0  0  0  0  0  0  0
    5.5959    0.8797   18.2116 C   0  0  0  0  0  0  0  0  0  0  0  0
    5.2492    0.9464   19.4387 C   0  0  0  0  0  0  0  0  0  0  0  0
    5.8225    0.5562   20.5396 C   0  0  0  0  0  0  0  0  0  0  0  0
    5.2951    0.6741   21.9854 C   0  0  0  0  0  0  0  0  0  0  0  0
 20 21  2  0  0  0  0
 19 20  1  0  0  0  0
 21 22  1  0  0  0  0
 18 19  2  0  0  0  0
 22 23  2  0  0  0  0
 18 23  1  0  0  0  0
 17 18  1  0  0  0  0
 23 24  1  0  0  0  0
 15 16  2  0  0  0  0
 15 17  1  0  0  0  0
 14 15  1  0  0  0  0
  8 14  1  0  0  0  0
 12 13  2  0  0  0  0
 11 12  1  0  0  0  0
  7  8  1  0  0  0  0
  8  9  1  0  0  0  0
  6  7  2  3  0  0  0
 10 11  1  0  0  0  0
  5  6  1  0  0  0  0
  9 10  2  0  0  0  0
  2  5  1  0  0  0  0
  2  3  2  0  0  0  0
  1  2  1  0  0  0  0
  2  4  2  0  0  0  0
M  END
> <Shapegauss>
-286.001465

$$$$
