REMARK  9 active torsions:
REMARK  status: ('A' for Active; 'I' for Inactive)
REMARK    1  A    between atoms: S_2  and  N_5 
REMARK    2  A    between atoms: C_7  and  C_8 
REMARK    3  A    between atoms: C_8  and  C_9 
REMARK    4  A    between atoms: C_9  and  C_15 
REMARK    5  A    between atoms: C_9  and  C_10 
REMARK    6  A    between atoms: C_10  and  C_11 
REMARK    7  A    between atoms: C_12  and  C_13 
REMARK    8  A    between atoms: C_15  and  C_16 
REMARK       I    between atoms: C_16  and  N_18 
REMARK    9  A    between atoms: N_18  and  C_20 
ROOT
HETATM    1  C   UNL     1      10.302  -1.118  23.276  1.00  0.00     0.109 C 
ENDROOT
BRANCH   1   2
HETATM    2  C   UNL     1       9.433  -1.974  23.499  1.00  0.00     0.011 C 
BRANCH   2   3
HETATM    3  C   UNL     1       8.984  -2.917  24.148  1.00  0.00     0.097 C 
HETATM    4  N   UNL     1       8.108  -3.526  24.676  1.00  0.00    -0.296 N 
ATOM      5  HN  UNL     1       7.215  -3.561  24.185  1.00  0.00     0.177 HD
BRANCH   4   6
HETATM    6  S   UNL     1       8.189  -4.310  26.102  1.00  0.00     0.226 S 
HETATM    7  C   UNL     1       6.625  -4.860  26.429  1.00  0.00     0.186 C 
HETATM    8  O   UNL     1       9.059  -5.451  26.035  1.00  0.00    -0.206 OA
HETATM    9  O   UNL     1       8.599  -3.432  27.142  1.00  0.00    -0.206 OA
ENDBRANCH   4   6
ENDBRANCH   2   3
ENDBRANCH   1   2
BRANCH   1  10
HETATM   10  C   UNL     1       9.770  -0.574  22.346  1.00  0.00    -0.071 C 
BRANCH  10  11
HETATM   11  C   UNL     1       9.076   0.048  21.379  1.00  0.00     0.289 C 
HETATM   12  O   UNL     1       9.515   1.013  20.959  1.00  0.00    -0.259 OA
HETATM   13  N   UNL     1       7.975  -0.578  21.074  1.00  0.00    -0.315 N 
ATOM     14  HN  UNL     1       7.718  -1.432  21.569  1.00  0.00     0.170 HD
BRANCH  13  15
HETATM   15  C   UNL     1       7.223  -0.122  20.158  1.00  0.00     0.057 A 
HETATM   16  C   UNL     1       7.228  -0.007  18.877  1.00  0.00     0.117 A 
HETATM   17  N   UNL     1       6.786   0.332  17.789  1.00  0.00    -0.373 N 
HETATM   18  C   UNL     1       5.596   0.880  18.212  1.00  0.00     0.088 A 
ATOM     19  HN  UNL     1       7.179   0.238  16.853  1.00  0.00     0.164 HD
HETATM   20  C   UNL     1       5.249   0.946  19.439  1.00  0.00     0.026 A 
HETATM   21  C   UNL     1       5.822   0.556  20.540  1.00  0.00    -0.033 A 
HETATM   22  C   UNL     1       5.295   0.674  21.985  1.00  0.00     0.050 C 
ENDBRANCH  13  15
ENDBRANCH  10  11
ENDBRANCH   1  10
BRANCH   1  23
HETATM   23  C   UNL     1      11.023   0.026  24.322  1.00  0.00    -0.006 C 
BRANCH  23  24
HETATM   24  C   UNL     1      12.064   0.312  24.262  1.00  0.00    -0.002 C 
HETATM   25  C   UNL     1      13.115  -0.183  23.508  1.00  0.00    -0.001 C 
BRANCH  25  26
HETATM   26  C   UNL     1      12.727  -1.279  22.643  1.00  0.00    -0.010 C 
HETATM   27  C   UNL     1      11.823  -1.746  22.499  1.00  0.00     0.011 C 
ENDBRANCH  25  26
ENDBRANCH  23  24
ENDBRANCH   1  23
TORSDOF 9
