MODEL 1
REMARK VINA RESULT:    -6.752      0.000      0.000
REMARK INTER + INTRA:         -10.662
REMARK INTER:                  -9.713
REMARK INTRA:                  -0.949
REMARK UNBOUND:                -0.949
REMARK  9 active torsions:
REMARK  status: ('A' for Active; 'I' for Inactive)
REMARK    1  A    between atoms: S_2  and  N_5 
REMARK    2  A    between atoms: C_7  and  C_8 
REMARK    3  A    between atoms: C_8  and  C_9 
REMARK    4  A    between atoms: C_9  and  C_15 
REMARK    5  A    between atoms: C_9  and  C_10 
REMARK    6  A    between atoms: C_10  and  C_11 
REMARK    7  A    between atoms: C_12  and  C_13 
REMARK    8  A    between atoms: C_15  and  C_16 
REMARK       I    between atoms: C_16  and  N_18 
REMARK    9  A    between atoms: N_18  and  C_20 
ROOT
HETATM    1  C   UNL     1       6.800  -3.045  22.512  1.00  0.00     0.109 C 
ENDROOT
BRANCH   1   2
HETATM    2  C   UNL     1       6.265  -2.608  21.483  1.00  0.00     0.011 C 
BRANCH   2   3
HETATM    3  C   UNL     1       5.922  -1.681  20.751  1.00  0.00     0.097 C 
HETATM    4  N   UNL     1       5.452  -1.226  19.756  1.00  0.00    -0.296 N 
ATOM      5  HN  UNL     1       4.634  -1.703  19.378  1.00  0.00     0.177 HD
BRANCH   4   6
HETATM    6  S   UNL     1       5.980   0.079  18.937  1.00  0.00     0.226 S 
HETATM    7  C   UNL     1       5.267   1.421  19.676  1.00  0.00     0.186 C 
HETATM    8  O   UNL     1       7.406   0.224  19.027  1.00  0.00    -0.206 OA
HETATM    9  O   UNL     1       5.570   0.026  17.577  1.00  0.00    -0.206 OA
ENDBRANCH   4   6
ENDBRANCH   2   3
ENDBRANCH   1   2
BRANCH   1  10
HETATM   10  C   UNL     1       7.810  -2.396  22.467  1.00  0.00    -0.071 C 
BRANCH  10  11
HETATM   11  C   UNL     1       9.000  -1.773  22.455  1.00  0.00     0.289 C 
HETATM   12  O   UNL     1       9.218  -1.081  21.574  1.00  0.00    -0.259 OA
HETATM   13  N   UNL     1       9.733  -2.077  23.487  1.00  0.00    -0.315 N 
ATOM     14  HN  UNL     1       9.389  -2.739  24.183  1.00  0.00     0.170 HD
BRANCH  13  15
HETATM   15  C   UNL     1      10.878  -1.546  23.626  1.00  0.00     0.057 A 
HETATM   16  C   UNL     1      12.090  -1.761  23.254  1.00  0.00     0.117 A 
HETATM   17  N   UNL     1      13.292  -1.542  23.195  1.00  0.00    -0.373 N 
HETATM   18  C   UNL     1      13.329  -0.394  23.954  1.00  0.00     0.088 A 
ATOM     19  HN  UNL     1      14.039  -2.054  22.728  1.00  0.00     0.164 HD
HETATM   20  C   UNL     1      12.296   0.121  24.501  1.00  0.00     0.026 A 
HETATM   21  C   UNL     1      11.040  -0.217  24.507  1.00  0.00    -0.033 A 
HETATM   22  C   UNL     1       9.861   0.500  25.197  1.00  0.00     0.050 C 
ENDBRANCH  13  15
ENDBRANCH  10  11
ENDBRANCH   1  10
BRANCH   1  23
HETATM   23  C   UNL     1       6.206  -3.141  24.113  1.00  0.00    -0.006 C 
BRANCH  23  24
HETATM   24  C   UNL     1       5.758  -4.033  24.527  1.00  0.00    -0.002 C 
HETATM   25  C   UNL     1       6.225  -4.959  25.446  1.00  0.00    -0.001 C 
BRANCH  25  26
HETATM   26  C   UNL     1       7.556  -4.655  25.933  1.00  0.00    -0.010 C 
HETATM   27  C   UNL     1       8.415  -5.218  25.966  1.00  0.00     0.011 C 
ENDBRANCH  25  26
ENDBRANCH  23  24
ENDBRANCH   1  23
TORSDOF 9
ENDMDL
MODEL 2
REMARK VINA RESULT:    -6.548      3.400      6.249
REMARK INTER + INTRA:         -10.367
REMARK INTER:                  -9.544
REMARK INTRA:                  -0.824
REMARK UNBOUND:                -0.949
REMARK  9 active torsions:
REMARK  status: ('A' for Active; 'I' for Inactive)
REMARK    1  A    between atoms: S_2  and  N_5 
REMARK    2  A    between atoms: C_7  and  C_8 
REMARK    3  A    between atoms: C_8  and  C_9 
REMARK    4  A    between atoms: C_9  and  C_15 
REMARK    5  A    between atoms: C_9  and  C_10 
REMARK    6  A    between atoms: C_10  and  C_11 
REMARK    7  A    between atoms: C_12  and  C_13 
REMARK    8  A    between atoms: C_15  and  C_16 
REMARK       I    between atoms: C_16  and  N_18 
REMARK    9  A    between atoms: N_18  and  C_20 
ROOT
HETATM    1  C   UNL     1       8.028   0.067  20.644  1.00  0.00     0.109 C 
ENDROOT
BRANCH   1   2
HETATM    2  C   UNL     1       8.291   1.068  21.326  1.00  0.00     0.011 C 
BRANCH   2   3
HETATM    3  C   UNL     1       9.081   1.780  21.944  1.00  0.00     0.097 C 
HETATM    4  N   UNL     1      10.162   2.220  22.175  1.00  0.00    -0.296 N 
ATOM      5  HN  UNL     1      10.756   2.422  21.370  1.00  0.00     0.177 HD
BRANCH   4   6
HETATM    6  S   UNL     1      10.793   2.534  23.644  1.00  0.00     0.226 S 
HETATM    7  C   UNL     1      11.526   4.052  23.530  1.00  0.00     0.186 C 
HETATM    8  O   UNL     1       9.776   2.604  24.657  1.00  0.00    -0.206 OA
HETATM    9  O   UNL     1      11.776   1.568  23.992  1.00  0.00    -0.206 OA
ENDBRANCH   4   6
ENDBRANCH   2   3
ENDBRANCH   1   2
BRANCH   1  10
HETATM   10  C   UNL     1       8.418  -0.770  21.413  1.00  0.00    -0.071 C 
BRANCH  10  11
HETATM   11  C   UNL     1       8.774  -1.660  22.354  1.00  0.00     0.289 C 
HETATM   12  O   UNL     1       9.880  -1.928  22.428  1.00  0.00    -0.259 OA
HETATM   13  N   UNL     1       7.757  -2.084  23.049  1.00  0.00    -0.315 N 
ATOM     14  HN  UNL     1       6.817  -1.751  22.836  1.00  0.00     0.170 HD
BRANCH  13  15
HETATM   15  C   UNL     1       7.940  -2.912  23.994  1.00  0.00     0.057 A 
HETATM   16  C   UNL     1       8.322  -2.903  25.222  1.00  0.00     0.117 A 
HETATM   17  N   UNL     1       8.610  -3.399  26.301  1.00  0.00    -0.373 N 
HETATM   18  C   UNL     1       8.341  -4.716  26.000  1.00  0.00     0.088 A 
ATOM     19  HN  UNL     1       8.947  -2.970  27.162  1.00  0.00     0.164 HD
HETATM   20  C   UNL     1       7.940  -5.107  24.853  1.00  0.00     0.026 A 
HETATM   21  C   UNL     1       7.676  -4.474  23.747  1.00  0.00    -0.033 A 
HETATM   22  C   UNL     1       7.175  -5.056  22.410  1.00  0.00     0.050 C 
ENDBRANCH  13  15
ENDBRANCH  10  11
ENDBRANCH   1  10
BRANCH   1  23
HETATM   23  C   UNL     1       6.563  -0.417  19.906  1.00  0.00    -0.006 C 
BRANCH  23  24
HETATM   24  C   UNL     1       6.328  -0.221  18.870  1.00  0.00    -0.002 C 
HETATM   25  C   UNL     1       5.568   0.769  18.267  1.00  0.00    -0.001 C 
BRANCH  25  26
HETATM   26  C   UNL     1       5.001   1.706  19.216  1.00  0.00    -0.010 C 
HETATM   27  C   UNL     1       4.038   1.838  19.550  1.00  0.00     0.011 C 
ENDBRANCH  25  26
ENDBRANCH  23  24
ENDBRANCH   1  23
TORSDOF 9
ENDMDL
MODEL 3
REMARK VINA RESULT:    -6.499      2.270      5.771
REMARK INTER + INTRA:         -10.297
REMARK INTER:                  -9.421
REMARK INTRA:                  -0.876
REMARK UNBOUND:                -0.949
REMARK  9 active torsions:
REMARK  status: ('A' for Active; 'I' for Inactive)
REMARK    1  A    between atoms: S_2  and  N_5 
REMARK    2  A    between atoms: C_7  and  C_8 
REMARK    3  A    between atoms: C_8  and  C_9 
REMARK    4  A    between atoms: C_9  and  C_15 
REMARK    5  A    between atoms: C_9  and  C_10 
REMARK    6  A    between atoms: C_10  and  C_11 
REMARK    7  A    between atoms: C_12  and  C_13 
REMARK    8  A    between atoms: C_15  and  C_16 
REMARK       I    between atoms: C_16  and  N_18 
REMARK    9  A    between atoms: N_18  and  C_20 
ROOT
HETATM    1  C   UNL     1       7.928  -1.239  23.192  1.00  0.00     0.109 C 
ENDROOT
BRANCH   1   2
HETATM    2  C   UNL     1       7.468  -1.252  22.041  1.00  0.00     0.011 C 
BRANCH   2   3
HETATM    3  C   UNL     1       6.801  -0.754  21.136  1.00  0.00     0.097 C 
HETATM    4  N   UNL     1       6.063  -0.806  20.203  1.00  0.00    -0.296 N 
ATOM      5  HN  UNL     1       5.310  -1.492  20.254  1.00  0.00     0.177 HD
BRANCH   4   6
HETATM    6  S   UNL     1       6.132   0.105  18.854  1.00  0.00     0.226 S 
HETATM    7  C   UNL     1       5.050   1.382  19.090  1.00  0.00     0.186 C 
HETATM    8  O   UNL     1       7.441   0.661  18.652  1.00  0.00    -0.206 OA
HETATM    9  O   UNL     1       5.727  -0.642  17.715  1.00  0.00    -0.206 OA
ENDBRANCH   4   6
ENDBRANCH   2   3
ENDBRANCH   1   2
BRANCH   1  10
HETATM   10  C   UNL     1       7.611  -2.352  23.515  1.00  0.00    -0.071 C 
BRANCH  10  11
HETATM   11  C   UNL     1       7.224  -3.615  23.757  1.00  0.00     0.289 C 
HETATM   12  O   UNL     1       7.979  -4.443  23.544  1.00  0.00    -0.259 OA
HETATM   13  N   UNL     1       6.005  -3.684  24.211  1.00  0.00    -0.315 N 
ATOM     14  HN  UNL     1       5.453  -2.835  24.326  1.00  0.00     0.170 HD
BRANCH  13  15
HETATM   15  C   UNL     1       5.506  -4.813  24.509  1.00  0.00     0.057 A 
HETATM   16  C   UNL     1       4.868  -5.767  23.929  1.00  0.00     0.117 A 
HETATM   17  N   UNL     1       4.283  -6.839  23.869  1.00  0.00    -0.373 N 
HETATM   18  C   UNL     1       4.430  -7.228  25.181  1.00  0.00     0.088 A 
ATOM     19  HN  UNL     1       3.826  -7.304  23.085  1.00  0.00     0.164 HD
HETATM   20  C   UNL     1       5.017  -6.516  26.064  1.00  0.00     0.026 A 
HETATM   21  C   UNL     1       5.603  -5.355  26.015  1.00  0.00    -0.033 A 
HETATM   22  C   UNL     1       6.303  -4.589  27.156  1.00  0.00     0.050 C 
ENDBRANCH  13  15
ENDBRANCH  10  11
ENDBRANCH   1  10
BRANCH   1  23
HETATM   23  C   UNL     1       9.500  -0.865  23.752  1.00  0.00    -0.006 C 
BRANCH  23  24
HETATM   24  C   UNL     1       9.825   0.141  23.979  1.00  0.00    -0.002 C 
HETATM   25  C   UNL     1      11.066   0.655  24.319  1.00  0.00    -0.001 C 
BRANCH  25  26
HETATM   26  C   UNL     1      12.105  -0.354  24.366  1.00  0.00    -0.010 C 
HETATM   27  C   UNL     1      13.124  -0.288  24.249  1.00  0.00     0.011 C 
ENDBRANCH  25  26
ENDBRANCH  23  24
ENDBRANCH   1  23
TORSDOF 9
ENDMDL
MODEL 4
REMARK VINA RESULT:    -6.470      3.331      6.948
REMARK INTER + INTRA:         -10.256
REMARK INTER:                  -9.518
REMARK INTRA:                  -0.737
REMARK UNBOUND:                -0.949
REMARK  9 active torsions:
REMARK  status: ('A' for Active; 'I' for Inactive)
REMARK    1  A    between atoms: S_2  and  N_5 
REMARK    2  A    between atoms: C_7  and  C_8 
REMARK    3  A    between atoms: C_8  and  C_9 
REMARK    4  A    between atoms: C_9  and  C_15 
REMARK    5  A    between atoms: C_9  and  C_10 
REMARK    6  A    between atoms: C_10  and  C_11 
REMARK    7  A    between atoms: C_12  and  C_13 
REMARK    8  A    between atoms: C_15  and  C_16 
REMARK       I    between atoms: C_16  and  N_18 
REMARK    9  A    between atoms: N_18  and  C_20 
ROOT
HETATM    1  C   UNL     1       9.734  -2.209  23.092  1.00  0.00     0.109 C 
ENDROOT
BRANCH   1   2
HETATM    2  C   UNL     1       9.039  -2.371  24.106  1.00  0.00     0.011 C 
BRANCH   2   3
HETATM    3  C   UNL     1       8.380  -3.081  24.864  1.00  0.00     0.097 C 
HETATM    4  N   UNL     1       8.022  -3.445  25.939  1.00  0.00    -0.296 N 
ATOM      5  HN  UNL     1       7.878  -2.722  26.643  1.00  0.00     0.177 HD
BRANCH   4   6
HETATM    6  S   UNL     1       7.736  -4.981  26.401  1.00  0.00     0.226 S 
HETATM    7  C   UNL     1       6.282  -5.433  25.668  1.00  0.00     0.186 C 
HETATM    8  O   UNL     1       8.763  -5.876  25.946  1.00  0.00    -0.206 OA
HETATM    9  O   UNL     1       7.590  -5.068  27.813  1.00  0.00    -0.206 OA
ENDBRANCH   4   6
ENDBRANCH   2   3
ENDBRANCH   1   2
BRANCH   1  10
HETATM   10  C   UNL     1       8.857  -1.896  22.333  1.00  0.00    -0.071 C 
BRANCH  10  11
HETATM   11  C   UNL     1       7.865  -1.442  21.550  1.00  0.00     0.289 C 
HETATM   12  O   UNL     1       6.856  -1.967  21.628  1.00  0.00    -0.259 OA
HETATM   13  N   UNL     1       8.236  -0.441  20.803  1.00  0.00    -0.315 N 
ATOM     14  HN  UNL     1       9.198  -0.102  20.843  1.00  0.00     0.170 HD
BRANCH  13  15
HETATM   15  C   UNL     1       7.398   0.111  20.025  1.00  0.00     0.057 A 
HETATM   16  C   UNL     1       7.070   0.075  18.782  1.00  0.00     0.117 A 
HETATM   17  N   UNL     1       6.440   0.405  17.788  1.00  0.00    -0.373 N 
HETATM   18  C   UNL     1       5.599   1.324  18.373  1.00  0.00     0.088 A 
ATOM     19  HN  UNL     1       6.515   0.094  16.820  1.00  0.00     0.164 HD
HETATM   20  C   UNL     1       5.641   1.627  19.613  1.00  0.00     0.026 A 
HETATM   21  C   UNL     1       6.383   1.211  20.598  1.00  0.00    -0.033 A 
HETATM   22  C   UNL     1       6.334   1.641  22.078  1.00  0.00     0.050 C 
ENDBRANCH  13  15
ENDBRANCH  10  11
ENDBRANCH   1  10
BRANCH   1  23
HETATM   23  C   UNL     1      11.126  -1.247  22.847  1.00  0.00    -0.006 C 
BRANCH  23  24
HETATM   24  C   UNL     1      11.693  -0.807  23.656  1.00  0.00    -0.002 C 
HETATM   25  C   UNL     1      11.777   0.495  24.122  1.00  0.00    -0.001 C 
BRANCH  25  26
HETATM   26  C   UNL     1      10.939   1.418  23.383  1.00  0.00    -0.010 C 
HETATM   27  C   UNL     1      10.883   2.444  23.392  1.00  0.00     0.011 C 
ENDBRANCH  25  26
ENDBRANCH  23  24
ENDBRANCH   1  23
TORSDOF 9
ENDMDL
MODEL 5
REMARK VINA RESULT:    -6.460      2.358      2.903
REMARK INTER + INTRA:         -10.241
REMARK INTER:                  -9.474
REMARK INTRA:                  -0.767
REMARK UNBOUND:                -0.949
REMARK  9 active torsions:
REMARK  status: ('A' for Active; 'I' for Inactive)
REMARK    1  A    between atoms: S_2  and  N_5 
REMARK    2  A    between atoms: C_7  and  C_8 
REMARK    3  A    between atoms: C_8  and  C_9 
REMARK    4  A    between atoms: C_9  and  C_15 
REMARK    5  A    between atoms: C_9  and  C_10 
REMARK    6  A    between atoms: C_10  and  C_11 
REMARK    7  A    between atoms: C_12  and  C_13 
REMARK    8  A    between atoms: C_15  and  C_16 
REMARK       I    between atoms: C_16  and  N_18 
REMARK    9  A    between atoms: N_18  and  C_20 
ROOT
HETATM    1  C   UNL     1       7.576  -2.440  22.536  1.00  0.00     0.109 C 
ENDROOT
BRANCH   1   2
HETATM    2  C   UNL     1       6.802  -2.016  21.664  1.00  0.00     0.011 C 
BRANCH   2   3
HETATM    3  C   UNL     1       6.379  -1.119  20.937  1.00  0.00     0.097 C 
HETATM    4  N   UNL     1       5.596  -0.646  20.175  1.00  0.00    -0.296 N 
ATOM      5  HN  UNL     1       4.611  -0.838  20.353  1.00  0.00     0.177 HD
BRANCH   4   6
HETATM    6  S   UNL     1       5.938   0.279  18.878  1.00  0.00     0.226 S 
HETATM    7  C   UNL     1       5.008   1.681  19.039  1.00  0.00     0.186 C 
HETATM    8  O   UNL     1       7.322   0.662  18.844  1.00  0.00    -0.206 OA
HETATM    9  O   UNL     1       5.575  -0.382  17.673  1.00  0.00    -0.206 OA
ENDBRANCH   4   6
ENDBRANCH   2   3
ENDBRANCH   1   2
BRANCH   1  10
HETATM   10  C   UNL     1       7.912  -1.382  22.995  1.00  0.00    -0.071 C 
BRANCH  10  11
HETATM   11  C   UNL     1       8.404  -0.235  23.490  1.00  0.00     0.289 C 
HETATM   12  O   UNL     1       8.067   0.071  24.536  1.00  0.00    -0.259 OA
HETATM   13  N   UNL     1       9.213   0.360  22.659  1.00  0.00    -0.315 N 
ATOM     14  HN  UNL     1       9.393  -0.046  21.741  1.00  0.00     0.170 HD
BRANCH  13  15
HETATM   15  C   UNL     1       9.777   1.447  22.997  1.00  0.00     0.057 A 
HETATM   16  C   UNL     1       9.523   2.707  22.985  1.00  0.00     0.117 A 
HETATM   17  N   UNL     1       9.762   3.892  23.166  1.00  0.00    -0.373 N 
HETATM   18  C   UNL     1      11.018   3.766  23.715  1.00  0.00     0.088 A 
ATOM     19  HN  UNL     1       9.203   4.721  22.969  1.00  0.00     0.164 HD
HETATM   20  C   UNL     1      11.605   2.644  23.880  1.00  0.00     0.026 A 
HETATM   21  C   UNL     1      11.249   1.418  23.629  1.00  0.00    -0.033 A 
HETATM   22  C   UNL     1      12.044   0.121  23.889  1.00  0.00     0.050 C 
ENDBRANCH  13  15
ENDBRANCH  10  11
ENDBRANCH   1  10
BRANCH   1  23
HETATM   23  C   UNL     1       7.323  -3.591  23.774  1.00  0.00    -0.006 C 
BRANCH  23  24
HETATM   24  C   UNL     1       7.834  -4.543  23.813  1.00  0.00    -0.002 C 
HETATM   25  C   UNL     1       7.574  -5.756  23.197  1.00  0.00    -0.001 C 
BRANCH  25  26
HETATM   26  C   UNL     1       6.405  -5.720  22.342  1.00  0.00    -0.010 C 
HETATM   27  C   UNL     1       6.299  -5.834  21.326  1.00  0.00     0.011 C 
ENDBRANCH  25  26
ENDBRANCH  23  24
ENDBRANCH   1  23
TORSDOF 9
ENDMDL
MODEL 6
REMARK VINA RESULT:    -6.450      2.030      5.219
REMARK INTER + INTRA:         -10.227
REMARK INTER:                  -9.892
REMARK INTRA:                  -0.335
REMARK UNBOUND:                -0.949
REMARK  9 active torsions:
REMARK  status: ('A' for Active; 'I' for Inactive)
REMARK    1  A    between atoms: S_2  and  N_5 
REMARK    2  A    between atoms: C_7  and  C_8 
REMARK    3  A    between atoms: C_8  and  C_9 
REMARK    4  A    between atoms: C_9  and  C_15 
REMARK    5  A    between atoms: C_9  and  C_10 
REMARK    6  A    between atoms: C_10  and  C_11 
REMARK    7  A    between atoms: C_12  and  C_13 
REMARK    8  A    between atoms: C_15  and  C_16 
REMARK       I    between atoms: C_16  and  N_18 
REMARK    9  A    between atoms: N_18  and  C_20 
ROOT
HETATM    1  C   UNL     1       9.550  -1.100  22.783  1.00  0.00     0.109 C 
ENDROOT
BRANCH   1   2
HETATM    2  C   UNL     1       8.785  -1.139  21.808  1.00  0.00     0.011 C 
BRANCH   2   3
HETATM    3  C   UNL     1       7.841  -0.699  21.155  1.00  0.00     0.097 C 
HETATM    4  N   UNL     1       6.806  -0.802  20.575  1.00  0.00    -0.296 N 
ATOM      5  HN  UNL     1       6.110  -1.421  20.989  1.00  0.00     0.177 HD
BRANCH   4   6
HETATM    6  S   UNL     1       6.389  -0.055  19.188  1.00  0.00     0.226 S 
HETATM    7  C   UNL     1       5.214   1.087  19.602  1.00  0.00     0.186 C 
HETATM    8  O   UNL     1       7.500   0.640  18.601  1.00  0.00    -0.206 OA
HETATM    9  O   UNL     1       5.833  -0.978  18.262  1.00  0.00    -0.206 OA
ENDBRANCH   4   6
ENDBRANCH   2   3
ENDBRANCH   1   2
BRANCH   1  10
HETATM   10  C   UNL     1       9.098  -2.034  23.391  1.00  0.00    -0.071 C 
BRANCH  10  11
HETATM   11  C   UNL     1       8.482  -3.026  24.054  1.00  0.00     0.289 C 
HETATM   12  O   UNL     1       7.985  -3.841  23.430  1.00  0.00    -0.259 OA
HETATM   13  N   UNL     1       8.556  -2.883  25.346  1.00  0.00    -0.315 N 
ATOM     14  HN  UNL     1       9.028  -2.072  25.745  1.00  0.00     0.170 HD
BRANCH  13  15
HETATM   15  C   UNL     1       8.039  -3.757  26.108  1.00  0.00     0.057 A 
HETATM   16  C   UNL     1       8.342  -4.908  26.598  1.00  0.00     0.117 A 
HETATM   17  N   UNL     1       8.151  -5.925  27.247  1.00  0.00    -0.373 N 
HETATM   18  C   UNL     1       6.898  -5.626  27.735  1.00  0.00     0.088 A 
ATOM     19  HN  UNL     1       8.739  -6.746  27.386  1.00  0.00     0.164 HD
HETATM   20  C   UNL     1       6.271  -4.551  27.449  1.00  0.00     0.026 A 
HETATM   21  C   UNL     1       6.575  -3.520  26.716  1.00  0.00    -0.033 A 
HETATM   22  C   UNL     1       5.735  -2.254  26.453  1.00  0.00     0.050 C 
ENDBRANCH  13  15
ENDBRANCH  10  11
ENDBRANCH   1  10
BRANCH   1  23
HETATM   23  C   UNL     1      11.258  -1.096  22.851  1.00  0.00    -0.006 C 
BRANCH  23  24
HETATM   24  C   UNL     1      11.816  -0.847  23.743  1.00  0.00    -0.002 C 
HETATM   25  C   UNL     1      11.995   0.351  24.414  1.00  0.00    -0.001 C 
BRANCH  25  26
HETATM   26  C   UNL     1      11.291   1.458  23.798  1.00  0.00    -0.010 C 
HETATM   27  C   UNL     1      11.508   2.462  23.752  1.00  0.00     0.011 C 
ENDBRANCH  25  26
ENDBRANCH  23  24
ENDBRANCH   1  23
TORSDOF 9
ENDMDL
MODEL 7
REMARK VINA RESULT:    -6.365      2.880      6.407
REMARK INTER + INTRA:         -10.105
REMARK INTER:                  -9.620
REMARK INTRA:                  -0.485
REMARK UNBOUND:                -0.949
REMARK  9 active torsions:
REMARK  status: ('A' for Active; 'I' for Inactive)
REMARK    1  A    between atoms: S_2  and  N_5 
REMARK    2  A    between atoms: C_7  and  C_8 
REMARK    3  A    between atoms: C_8  and  C_9 
REMARK    4  A    between atoms: C_9  and  C_15 
REMARK    5  A    between atoms: C_9  and  C_10 
REMARK    6  A    between atoms: C_10  and  C_11 
REMARK    7  A    between atoms: C_12  and  C_13 
REMARK    8  A    between atoms: C_15  and  C_16 
REMARK       I    between atoms: C_16  and  N_18 
REMARK    9  A    between atoms: N_18  and  C_20 
ROOT
HETATM    1  C   UNL     1      10.076  -1.754  22.669  1.00  0.00     0.109 C 
ENDROOT
BRANCH   1   2
HETATM    2  C   UNL     1       9.160  -2.376  23.226  1.00  0.00     0.011 C 
BRANCH   2   3
HETATM    3  C   UNL     1       8.416  -3.351  23.322  1.00  0.00     0.097 C 
HETATM    4  N   UNL     1       7.845  -4.302  22.891  1.00  0.00    -0.296 N 
ATOM      5  HN  UNL     1       8.355  -4.877  22.221  1.00  0.00     0.177 HD
BRANCH   4   6
HETATM    6  S   UNL     1       6.333  -4.782  23.263  1.00  0.00     0.226 S 
HETATM    7  C   UNL     1       5.944  -6.010  22.170  1.00  0.00     0.186 C 
HETATM    8  O   UNL     1       6.257  -5.325  24.591  1.00  0.00    -0.206 OA
HETATM    9  O   UNL     1       5.409  -3.714  23.109  1.00  0.00    -0.206 OA
ENDBRANCH   4   6
ENDBRANCH   2   3
ENDBRANCH   1   2
BRANCH   1  10
HETATM   10  C   UNL     1       9.401  -0.996  22.026  1.00  0.00    -0.071 C 
BRANCH  10  11
HETATM   11  C   UNL     1       8.659  -0.227  21.212  1.00  0.00     0.289 C 
HETATM   12  O   UNL     1       9.189   0.627  20.673  1.00  0.00    -0.259 OA
HETATM   13  N   UNL     1       7.410  -0.597  21.177  1.00  0.00    -0.315 N 
ATOM     14  HN  UNL     1       7.093  -1.383  21.746  1.00  0.00     0.170 HD
BRANCH  13  15
HETATM   15  C   UNL     1       6.589   0.021  20.432  1.00  0.00     0.057 A 
HETATM   16  C   UNL     1       6.025  -0.132  19.286  1.00  0.00     0.117 A 
HETATM   17  N   UNL     1       5.307   0.184  18.349  1.00  0.00    -0.373 N 
HETATM   18  C   UNL     1       4.837   1.379  18.843  1.00  0.00     0.088 A 
ATOM     19  HN  UNL     1       5.116  -0.292  17.468  1.00  0.00     0.164 HD
HETATM   20  C   UNL     1       5.192   1.862  19.971  1.00  0.00     0.026 A 
HETATM   21  C   UNL     1       5.994   1.433  20.901  1.00  0.00    -0.033 A 
HETATM   22  C   UNL     1       6.339   2.101  22.248  1.00  0.00     0.050 C 
ENDBRANCH  13  15
ENDBRANCH  10  11
ENDBRANCH   1  10
BRANCH   1  23
HETATM   23  C   UNL     1      11.432  -0.951  23.332  1.00  0.00    -0.006 C 
BRANCH  23  24
HETATM   24  C   UNL     1      11.458  -0.563  24.341  1.00  0.00    -0.002 C 
HETATM   25  C   UNL     1      11.253   0.710  24.846  1.00  0.00    -0.001 C 
BRANCH  25  26
HETATM   26  C   UNL     1      10.942   1.685  23.820  1.00  0.00    -0.010 C 
HETATM   27  C   UNL     1      11.242   2.660  23.694  1.00  0.00     0.011 C 
ENDBRANCH  25  26
ENDBRANCH  23  24
ENDBRANCH   1  23
TORSDOF 9
ENDMDL
MODEL 8
REMARK VINA RESULT:    -6.344      2.102      5.308
REMARK INTER + INTRA:         -10.075
REMARK INTER:                  -9.447
REMARK INTRA:                  -0.628
REMARK UNBOUND:                -0.949
REMARK  9 active torsions:
REMARK  status: ('A' for Active; 'I' for Inactive)
REMARK    1  A    between atoms: S_2  and  N_5 
REMARK    2  A    between atoms: C_7  and  C_8 
REMARK    3  A    between atoms: C_8  and  C_9 
REMARK    4  A    between atoms: C_9  and  C_15 
REMARK    5  A    between atoms: C_9  and  C_10 
REMARK    6  A    between atoms: C_10  and  C_11 
REMARK    7  A    between atoms: C_12  and  C_13 
REMARK    8  A    between atoms: C_15  and  C_16 
REMARK       I    between atoms: C_16  and  N_18 
REMARK    9  A    between atoms: N_18  and  C_20 
ROOT
HETATM    1  C   UNL     1       8.363   0.276  24.118  1.00  0.00     0.109 C 
ENDROOT
BRANCH   1   2
HETATM    2  C   UNL     1       7.840   0.983  23.243  1.00  0.00     0.011 C 
BRANCH   2   3
HETATM    3  C   UNL     1       7.247   1.121  22.175  1.00  0.00     0.097 C 
HETATM    4  N   UNL     1       6.271   1.148  21.493  1.00  0.00    -0.296 N 
ATOM      5  HN  UNL     1       5.439   1.573  21.902  1.00  0.00     0.177 HD
BRANCH   4   6
HETATM    6  S   UNL     1       6.128   0.575  19.974  1.00  0.00     0.226 S 
HETATM    7  C   UNL     1       4.921   1.497  19.233  1.00  0.00     0.186 C 
HETATM    8  O   UNL     1       7.342   0.743  19.225  1.00  0.00    -0.206 OA
HETATM    9  O   UNL     1       5.732  -0.790  19.981  1.00  0.00    -0.206 OA
ENDBRANCH   4   6
ENDBRANCH   2   3
ENDBRANCH   1   2
BRANCH   1  10
HETATM   10  C   UNL     1       8.236  -0.788  23.575  1.00  0.00    -0.071 C 
BRANCH  10  11
HETATM   11  C   UNL     1       8.216  -1.984  22.964  1.00  0.00     0.289 C 
HETATM   12  O   UNL     1       9.122  -2.261  22.329  1.00  0.00    -0.259 OA
HETATM   13  N   UNL     1       7.123  -2.650  23.206  1.00  0.00    -0.315 N 
ATOM     14  HN  UNL     1       6.393  -2.240  23.789  1.00  0.00     0.170 HD
BRANCH  13  15
HETATM   15  C   UNL     1       6.970  -3.811  22.715  1.00  0.00     0.057 A 
HETATM   16  C   UNL     1       6.400  -4.359  21.701  1.00  0.00     0.117 A 
HETATM   17  N   UNL     1       6.052  -5.290  20.989  1.00  0.00    -0.373 N 
HETATM   18  C   UNL     1       6.642  -6.317  21.691  1.00  0.00     0.088 A 
ATOM     19  HN  UNL     1       5.495  -5.303  20.136  1.00  0.00     0.164 HD
HETATM   20  C   UNL     1       7.299  -6.144  22.773  1.00  0.00     0.026 A 
HETATM   21  C   UNL     1       7.598  -5.082  23.462  1.00  0.00    -0.033 A 
HETATM   22  C   UNL     1       8.423  -4.989  24.762  1.00  0.00     0.050 C 
ENDBRANCH  13  15
ENDBRANCH  10  11
ENDBRANCH   1  10
BRANCH   1  23
HETATM   23  C   UNL     1       9.894   0.399  24.870  1.00  0.00    -0.006 C 
BRANCH  23  24
HETATM   24  C   UNL     1      10.615   1.166  24.626  1.00  0.00    -0.002 C 
HETATM   25  C   UNL     1      11.927   1.094  24.189  1.00  0.00    -0.001 C 
BRANCH  25  26
HETATM   26  C   UNL     1      12.399  -0.267  24.028  1.00  0.00    -0.010 C 
HETATM   27  C   UNL     1      13.340  -0.673  24.089  1.00  0.00     0.011 C 
ENDBRANCH  25  26
ENDBRANCH  23  24
ENDBRANCH   1  23
TORSDOF 9
ENDMDL
MODEL 9
REMARK VINA RESULT:    -6.313      3.634      4.592
REMARK INTER + INTRA:         -10.029
REMARK INTER:                  -9.317
REMARK INTRA:                  -0.712
REMARK UNBOUND:                -0.949
REMARK  9 active torsions:
REMARK  status: ('A' for Active; 'I' for Inactive)
REMARK    1  A    between atoms: S_2  and  N_5 
REMARK    2  A    between atoms: C_7  and  C_8 
REMARK    3  A    between atoms: C_8  and  C_9 
REMARK    4  A    between atoms: C_9  and  C_15 
REMARK    5  A    between atoms: C_9  and  C_10 
REMARK    6  A    between atoms: C_10  and  C_11 
REMARK    7  A    between atoms: C_12  and  C_13 
REMARK    8  A    between atoms: C_15  and  C_16 
REMARK       I    between atoms: C_16  and  N_18 
REMARK    9  A    between atoms: N_18  and  C_20 
ROOT
HETATM    1  C   UNL     1      10.301  -0.161  21.944  1.00  0.00     0.109 C 
ENDROOT
BRANCH   1   2
HETATM    2  C   UNL     1       9.274   0.256  21.387  1.00  0.00     0.011 C 
BRANCH   2   3
HETATM    3  C   UNL     1       8.287   0.090  20.673  1.00  0.00     0.097 C 
HETATM    4  N   UNL     1       7.704   0.125  19.635  1.00  0.00    -0.296 N 
ATOM      5  HN  UNL     1       8.233  -0.139  18.804  1.00  0.00     0.177 HD
BRANCH   4   6
HETATM    6  S   UNL     1       6.148   0.552  19.407  1.00  0.00     0.226 S 
HETATM    7  C   UNL     1       6.042   1.119  17.818  1.00  0.00     0.186 C 
HETATM    8  O   UNL     1       5.262  -0.570  19.541  1.00  0.00    -0.206 OA
HETATM    9  O   UNL     1       5.771   1.594  20.297  1.00  0.00    -0.206 OA
ENDBRANCH   4   6
ENDBRANCH   2   3
ENDBRANCH   1   2
BRANCH   1  10
HETATM   10  C   UNL     1      10.579   0.836  22.555  1.00  0.00    -0.071 C 
BRANCH  10  11
HETATM   11  C   UNL     1      10.870   1.885  23.341  1.00  0.00     0.289 C 
HETATM   12  O   UNL     1      11.055   1.674  24.446  1.00  0.00    -0.259 OA
HETATM   13  N   UNL     1      10.890   3.010  22.685  1.00  0.00    -0.315 N 
ATOM     14  HN  UNL     1      10.678   3.024  21.687  1.00  0.00     0.170 HD
BRANCH  13  15
HETATM   15  C   UNL     1      11.174   4.089  23.291  1.00  0.00     0.057 A 
HETATM   16  C   UNL     1      12.213   4.800  23.554  1.00  0.00     0.117 A 
HETATM   17  N   UNL     1      12.824   5.738  24.045  1.00  0.00    -0.373 N 
HETATM   18  C   UNL     1      11.759   6.402  24.613  1.00  0.00     0.088 A 
ATOM     19  HN  UNL     1      13.818   5.962  24.037  1.00  0.00     0.164 HD
HETATM   20  C   UNL     1      10.556   5.979  24.556  1.00  0.00     0.026 A 
HETATM   21  C   UNL     1      10.014   4.932  24.005  1.00  0.00    -0.033 A 
HETATM   22  C   UNL     1       8.526   4.526  23.986  1.00  0.00     0.050 C 
ENDBRANCH  13  15
ENDBRANCH  10  11
ENDBRANCH   1  10
BRANCH   1  23
HETATM   23  C   UNL     1      10.553  -1.554  22.901  1.00  0.00    -0.006 C 
BRANCH  23  24
HETATM   24  C   UNL     1       9.790  -2.299  23.078  1.00  0.00    -0.002 C 
HETATM   25  C   UNL     1       8.893  -2.472  24.120  1.00  0.00    -0.001 C 
BRANCH  25  26
HETATM   26  C   UNL     1       9.011  -1.456  25.146  1.00  0.00    -0.010 C 
HETATM   27  C   UNL     1       8.720  -1.445  26.131  1.00  0.00     0.011 C 
ENDBRANCH  25  26
ENDBRANCH  23  24
ENDBRANCH   1  23
TORSDOF 9
ENDMDL
