MODEL 1
REMARK VINA RESULT:    -4.459      0.000      0.000
REMARK INTER + INTRA:          -4.459
REMARK INTER:                  -4.459
REMARK INTRA:                   0.000
REMARK UNBOUND:                 0.000
REMARK  0 active torsions:
REMARK  status: ('A' for Active; 'I' for Inactive)
ROOT
HETATM    1  C   UNL     1      11.768  -1.574  22.807  1.00  0.00     0.015 C 
HETATM    2  C   UNL     1      10.370   2.169  23.334  1.00  0.00     0.078 C 
HETATM    3  C   UNL     1      10.288  -0.562  24.217  1.00  0.00     0.009 C 
HETATM    4  C   UNL     1      11.597   1.578  24.006  1.00  0.00     0.007 C 
HETATM    5  C   UNL     1      10.362  -0.880  22.765  1.00  0.00    -0.041 C 
HETATM    6  C   UNL     1       9.694   1.516  22.145  1.00  0.00     0.127 C 
HETATM    7  C   UNL     1      10.248   0.240  21.678  1.00  0.00     0.087 C 
HETATM    8  C   UNL     1       9.377  -1.848  22.268  1.00  0.00     0.015 C 
HETATM    9  O   UNL     1       8.861   2.054  21.433  1.00  0.00    -0.298 OA
HETATM   10  C   UNL     1      11.105   0.405  24.863  1.00  0.00     0.001 C 
ENDROOT
TORSDOF 0
ENDMDL
MODEL 2
REMARK VINA RESULT:    -4.409     23.874     25.535
REMARK INTER + INTRA:          -4.409
REMARK INTER:                  -4.409
REMARK INTRA:                   0.000
REMARK UNBOUND:                 0.000
REMARK  0 active torsions:
REMARK  status: ('A' for Active; 'I' for Inactive)
ROOT
HETATM    1  C   UNL     1      21.105 -22.641  13.170  1.00  0.00     0.015 C 
HETATM    2  C   UNL     1      19.787 -20.289  16.166  1.00  0.00     0.078 C 
HETATM    3  C   UNL     1      21.642 -20.583  13.993  1.00  0.00     0.009 C 
HETATM    4  C   UNL     1      19.256 -20.293  14.742  1.00  0.00     0.007 C 
HETATM    5  C   UNL     1      21.732 -21.995  14.455  1.00  0.00    -0.041 C 
HETATM    6  C   UNL     1      20.676 -21.388  16.710  1.00  0.00     0.127 C 
HETATM    7  C   UNL     1      21.055 -22.463  15.786  1.00  0.00     0.087 C 
HETATM    8  C   UNL     1      23.088 -22.529  14.632  1.00  0.00     0.015 C 
HETATM    9  O   UNL     1      20.939 -21.553  17.891  1.00  0.00    -0.298 OA
HETATM   10  C   UNL     1      20.421 -19.872  13.839  1.00  0.00     0.001 C 
ENDROOT
TORSDOF 0
ENDMDL
MODEL 3
REMARK VINA RESULT:    -4.352     23.998     25.511
REMARK INTER + INTRA:          -4.352
REMARK INTER:                  -4.352
REMARK INTRA:                   0.000
REMARK UNBOUND:                 0.000
REMARK  0 active torsions:
REMARK  status: ('A' for Active; 'I' for Inactive)
ROOT
HETATM    1  C   UNL     1      23.130 -22.015  14.676  1.00  0.00     0.015 C 
HETATM    2  C   UNL     1      19.934 -20.820  16.821  1.00  0.00     0.078 C 
HETATM    3  C   UNL     1      21.381 -23.043  15.719  1.00  0.00     0.009 C 
HETATM    4  C   UNL     1      21.305 -21.156  17.384  1.00  0.00     0.007 C 
HETATM    5  C   UNL     1      21.572 -22.147  14.546  1.00  0.00    -0.041 C 
HETATM    6  C   UNL     1      19.688 -20.602  15.342  1.00  0.00     0.127 C 
HETATM    7  C   UNL     1      20.834 -20.772  14.440  1.00  0.00     0.087 C 
HETATM    8  C   UNL     1      21.260 -22.729  13.235  1.00  0.00     0.015 C 
HETATM    9  O   UNL     1      18.676 -20.113  14.868  1.00  0.00    -0.298 OA
HETATM   10  C   UNL     1      21.558 -22.635  17.069  1.00  0.00     0.001 C 
ENDROOT
TORSDOF 0
ENDMDL
MODEL 4
REMARK VINA RESULT:    -4.227      2.125      2.956
REMARK INTER + INTRA:          -4.227
REMARK INTER:                  -4.227
REMARK INTRA:                   0.000
REMARK UNBOUND:                 0.000
REMARK  0 active torsions:
REMARK  status: ('A' for Active; 'I' for Inactive)
ROOT
HETATM    1  C   UNL     1       8.196  -0.429  23.778  1.00  0.00     0.015 C 
HETATM    2  C   UNL     1      12.190  -0.194  24.268  1.00  0.00     0.078 C 
HETATM    3  C   UNL     1       9.851   0.978  23.082  1.00  0.00     0.009 C 
HETATM    4  C   UNL     1      11.147   0.439  25.173  1.00  0.00     0.007 C 
HETATM    5  C   UNL     1       9.450  -0.434  22.835  1.00  0.00    -0.041 C 
HETATM    6  C   UNL     1      11.846  -1.249  23.236  1.00  0.00     0.127 C 
HETATM    7  C   UNL     1      10.433  -1.621  23.104  1.00  0.00     0.087 C 
HETATM    8  C   UNL     1       9.007  -0.746  21.470  1.00  0.00     0.015 C 
HETATM    9  O   UNL     1      12.661  -1.946  22.653  1.00  0.00    -0.298 OA
HETATM   10  C   UNL     1      10.378   1.451  24.315  1.00  0.00     0.001 C 
ENDROOT
TORSDOF 0
ENDMDL
MODEL 5
REMARK VINA RESULT:    -4.136     25.913     27.521
REMARK INTER + INTRA:          -4.136
REMARK INTER:                  -4.136
REMARK INTRA:                   0.000
REMARK UNBOUND:                 0.000
REMARK  0 active torsions:
REMARK  status: ('A' for Active; 'I' for Inactive)
ROOT
HETATM    1  C   UNL     1       0.430 -23.233   7.817  1.00  0.00     0.015 C 
HETATM    2  C   UNL     1       3.228 -20.499   8.789  1.00  0.00     0.078 C 
HETATM    3  C   UNL     1       2.147 -23.108   9.313  1.00  0.00     0.009 C 
HETATM    4  C   UNL     1       3.374 -21.580   7.731  1.00  0.00     0.007 C 
HETATM    5  C   UNL     1       0.831 -22.442   9.111  1.00  0.00    -0.041 C 
HETATM    6  C   UNL     1       1.891 -20.126   9.397  1.00  0.00     0.127 C 
HETATM    7  C   UNL     1       0.718 -20.889   8.957  1.00  0.00     0.087 C 
HETATM    8  C   UNL     1      -0.181 -22.692  10.144  1.00  0.00     0.015 C 
HETATM    9  O   UNL     1       1.684 -19.127  10.068  1.00  0.00    -0.298 OA
HETATM   10  C   UNL     1       3.271 -22.924   8.462  1.00  0.00     0.001 C 
ENDROOT
TORSDOF 0
ENDMDL
MODEL 6
REMARK VINA RESULT:    -4.086     11.435     12.539
REMARK INTER + INTRA:          -4.086
REMARK INTER:                  -4.086
REMARK INTRA:                   0.000
REMARK UNBOUND:                 0.000
REMARK  0 active torsions:
REMARK  status: ('A' for Active; 'I' for Inactive)
ROOT
HETATM    1  C   UNL     1      22.007  -0.887  26.759  1.00  0.00     0.015 C 
HETATM    2  C   UNL     1      23.895  -0.355  23.237  1.00  0.00     0.078 C 
HETATM    3  C   UNL     1      21.732   0.463  24.941  1.00  0.00     0.009 C 
HETATM    4  C   UNL     1      24.215   0.369  24.534  1.00  0.00     0.007 C 
HETATM    5  C   UNL     1      21.615  -0.990  25.243  1.00  0.00    -0.041 C 
HETATM    6  C   UNL     1      23.021  -1.592  23.186  1.00  0.00     0.127 C 
HETATM    7  C   UNL     1      22.442  -2.057  24.452  1.00  0.00     0.087 C 
HETATM    8  C   UNL     1      20.265  -1.559  25.146  1.00  0.00     0.015 C 
HETATM    9  O   UNL     1      22.920  -2.336  22.223  1.00  0.00    -0.298 OA
HETATM   10  C   UNL     1      22.964   1.172  24.908  1.00  0.00     0.001 C 
ENDROOT
TORSDOF 0
ENDMDL
MODEL 7
REMARK VINA RESULT:    -4.001      5.931      7.698
REMARK INTER + INTRA:          -4.001
REMARK INTER:                  -4.001
REMARK INTRA:                   0.000
REMARK UNBOUND:                 0.000
REMARK  0 active torsions:
REMARK  status: ('A' for Active; 'I' for Inactive)
ROOT
HETATM    1  C   UNL     1       4.370  -4.685  23.277  1.00  0.00     0.015 C 
HETATM    2  C   UNL     1       8.202  -4.829  24.518  1.00  0.00     0.078 C 
HETATM    3  C   UNL     1       6.173  -6.021  22.872  1.00  0.00     0.009 C 
HETATM    4  C   UNL     1       7.688  -4.059  23.313  1.00  0.00     0.007 C 
HETATM    5  C   UNL     1       5.275  -5.728  24.022  1.00  0.00    -0.041 C 
HETATM    6  C   UNL     1       7.281  -5.393  25.582  1.00  0.00     0.127 C 
HETATM    7  C   UNL     1       5.838  -5.208  25.386  1.00  0.00     0.087 C 
HETATM    8  C   UNL     1       4.431  -6.839  24.478  1.00  0.00     0.015 C 
HETATM    9  O   UNL     1       7.645  -5.811  26.669  1.00  0.00    -0.298 OA
HETATM   10  C   UNL     1       7.115  -5.098  22.342  1.00  0.00     0.001 C 
ENDROOT
TORSDOF 0
ENDMDL
MODEL 8
REMARK VINA RESULT:    -3.998      2.434      3.886
REMARK INTER + INTRA:          -3.998
REMARK INTER:                  -3.998
REMARK INTRA:                   0.000
REMARK UNBOUND:                 0.000
REMARK  0 active torsions:
REMARK  status: ('A' for Active; 'I' for Inactive)
ROOT
HETATM    1  C   UNL     1       9.053   2.374  22.532  1.00  0.00     0.015 C 
HETATM    2  C   UNL     1      10.387  -0.361  25.175  1.00  0.00     0.078 C 
HETATM    3  C   UNL     1       9.188   2.222  24.804  1.00  0.00     0.009 C 
HETATM    4  C   UNL     1       8.976  -0.280  24.619  1.00  0.00     0.007 C 
HETATM    5  C   UNL     1      10.138   2.337  23.664  1.00  0.00    -0.041 C 
HETATM    6  C   UNL     1      11.550   0.398  24.568  1.00  0.00     0.127 C 
HETATM    7  C   UNL     1      11.258   1.270  23.424  1.00  0.00     0.087 C 
HETATM    8  C   UNL     1      10.921   3.577  23.602  1.00  0.00     0.015 C 
HETATM    9  O   UNL     1      12.726   0.195  24.825  1.00  0.00    -0.298 OA
HETATM   10  C   UNL     1       8.403   1.068  25.073  1.00  0.00     0.001 C 
ENDROOT
TORSDOF 0
ENDMDL
MODEL 9
REMARK VINA RESULT:    -3.988     11.585     12.833
REMARK INTER + INTRA:          -3.988
REMARK INTER:                  -3.988
REMARK INTRA:                   0.000
REMARK UNBOUND:                 0.000
REMARK  0 active torsions:
REMARK  status: ('A' for Active; 'I' for Inactive)
ROOT
HETATM    1  C   UNL     1      22.420   1.581  25.175  1.00  0.00     0.015 C 
HETATM    2  C   UNL     1      21.550  -2.316  24.625  1.00  0.00     0.078 C 
HETATM    3  C   UNL     1      22.760  -0.352  26.337  1.00  0.00     0.009 C 
HETATM    4  C   UNL     1      20.660  -1.298  25.318  1.00  0.00     0.007 C 
HETATM    5  C   UNL     1      23.240   0.248  25.062  1.00  0.00    -0.041 C 
HETATM    6  C   UNL     1      22.747  -1.919  23.785  1.00  0.00     0.127 C 
HETATM    7  C   UNL     1      23.056  -0.488  23.694  1.00  0.00     0.087 C 
HETATM    8  C   UNL     1      24.669   0.581  25.007  1.00  0.00     0.015 C 
HETATM    9  O   UNL     1      23.349  -2.667  23.032  1.00  0.00    -0.298 OA
HETATM   10  C   UNL     1      21.430  -0.809  26.550  1.00  0.00     0.001 C 
ENDROOT
TORSDOF 0
ENDMDL
