REMARK  0 active torsions:
REMARK  status: ('A' for Active; 'I' for Inactive)
ROOT
HETATM    1  C   UNL     1       7.765  -2.893  22.822  1.00  0.00     0.015 C 
HETATM    2  C   UNL     1      10.438   0.081  22.314  1.00  0.00     0.078 C 
HETATM    3  C   UNL     1       8.019  -0.767  23.609  1.00  0.00     0.009 C 
HETATM    4  C   UNL     1      10.514  -1.009  23.370  1.00  0.00     0.007 C 
HETATM    5  C   UNL     1       7.720  -1.413  22.302  1.00  0.00    -0.041 C 
HETATM    6  C   UNL     1       9.502   0.004  21.125  1.00  0.00     0.127 C 
HETATM    7  C   UNL     1       8.616  -1.163  21.044  1.00  0.00     0.087 C 
HETATM    8  C   UNL     1       6.386  -1.153  21.747  1.00  0.00     0.015 C 
HETATM    9  O   UNL     1       9.562   0.725  20.142  1.00  0.00    -0.298 OA
HETATM   10  C   UNL     1       9.279  -0.840  24.263  1.00  0.00     0.001 C 
ENDROOT
TORSDOF 0
