MODEL 1
REMARK VINA RESULT:    -4.810      0.000      0.000
REMARK INTER + INTRA:          -6.806
REMARK INTER:                  -6.216
REMARK INTRA:                  -0.590
REMARK UNBOUND:                -0.590
REMARK  6 active torsions:
REMARK  status: ('A' for Active; 'I' for Inactive)
REMARK    1  A    between atoms: O_1  and  C_9 
REMARK    2  A    between atoms: C_2  and  O_7 
REMARK    3  A    between atoms: C_4  and  C_6 
REMARK    4  A    between atoms: C_5  and  O_13 
REMARK    5  A    between atoms: C_5  and  C_12 
REMARK    6  A    between atoms: C_9  and  C_11 
ROOT
HETATM    1  C   UNL     1       8.777  14.418   2.456  1.00  0.00     0.172 A 
HETATM    2  N   UNL     1       9.678  13.354   2.992  1.00  0.00    -0.357 N 
HETATM    3  C   UNL     1       9.338  14.308   3.604  1.00  0.00     0.091 A 
HETATM    4 CL   UNL     1       7.202  13.698   2.125  1.00  0.00    -0.084 Cl
HETATM    5  H   UNL     1       9.774  12.451   2.735  1.00  0.00     0.162 HD
ENDROOT
BRANCH   1   6
HETATM    6  C   UNL     1       9.098  15.512   1.449  1.00  0.00     0.025 C 
HETATM    7  C   UNL     1       8.846  16.784   1.617  1.00  0.00    -0.001 C 
BRANCH   7   8
HETATM    8  C   UNL     1       9.256  17.764   0.584  1.00  0.00     0.191 C 
BRANCH   8   9
HETATM    9  O   UNL     1       8.164  17.980  -0.248  1.00  0.00    -0.397 OA
HETATM   10  H   UNL     1       7.359  17.550  -0.086  1.00  0.00     0.209 HD
ENDBRANCH   8   9
ENDBRANCH   7   8
ENDBRANCH   1   6
BRANCH   3  11
HETATM   11  C   UNL     1       9.665  14.929   4.849  1.00  0.00     0.116 C 
HETATM   12  C   UNL     1      11.054  15.048   5.037  1.00  0.00     0.170 C 
BRANCH  11  13
HETATM   13  O   UNL     1       8.510  15.233   5.534  1.00  0.00    -0.352 OA
HETATM   14  C   UNL     1       7.678  16.367   5.261  1.00  0.00     0.210 C 
ENDBRANCH  11  13
BRANCH  12  15
HETATM   15  O   UNL     1      11.899  15.141   4.031  1.00  0.00    -0.370 OA
HETATM   16  H   UNL     1      11.584  15.467   3.200  1.00  0.00     0.216 HD
ENDBRANCH  12  15
ENDBRANCH   3  11
TORSDOF 6
ENDMDL
MODEL 2
REMARK VINA RESULT:    -4.743      2.819      4.212
REMARK INTER + INTRA:          -6.720
REMARK INTER:                  -6.325
REMARK INTRA:                  -0.395
REMARK UNBOUND:                -0.590
REMARK  6 active torsions:
REMARK  status: ('A' for Active; 'I' for Inactive)
REMARK    1  A    between atoms: O_1  and  C_9 
REMARK    2  A    between atoms: C_2  and  O_7 
REMARK    3  A    between atoms: C_4  and  C_6 
REMARK    4  A    between atoms: C_5  and  O_13 
REMARK    5  A    between atoms: C_5  and  C_12 
REMARK    6  A    between atoms: C_9  and  C_11 
ROOT
HETATM    1  C   UNL     1       8.206  14.502   2.117  1.00  0.00     0.172 A 
HETATM    2  N   UNL     1       7.931  13.710   0.881  1.00  0.00    -0.357 N 
HETATM    3  C   UNL     1       7.382  13.541   1.915  1.00  0.00     0.091 A 
HETATM    4 CL   UNL     1       7.760  16.180   1.814  1.00  0.00    -0.084 Cl
HETATM    5  H   UNL     1       8.068  13.930  -0.027  1.00  0.00     0.162 HD
ENDROOT
BRANCH   1   6
HETATM    6  C   UNL     1       9.406  14.418   3.048  1.00  0.00     0.025 C 
HETATM    7  C   UNL     1       9.651  15.239   4.035  1.00  0.00    -0.001 C 
BRANCH   7   8
HETATM    8  C   UNL     1      10.827  15.022   4.909  1.00  0.00     0.191 C 
BRANCH   8   9
HETATM    9  O   UNL     1      11.963  15.099   4.111  1.00  0.00    -0.397 OA
HETATM   10  H   UNL     1      12.613  14.439   4.155  1.00  0.00     0.209 HD
ENDBRANCH   8   9
ENDBRANCH   7   8
ENDBRANCH   1   6
BRANCH   3  11
HETATM   11  C   UNL     1       6.483  12.586   2.483  1.00  0.00     0.116 C 
HETATM   12  C   UNL     1       7.096  11.338   2.694  1.00  0.00     0.170 C 
BRANCH  11  13
HETATM   13  O   UNL     1       5.245  13.161   2.659  1.00  0.00    -0.352 OA
HETATM   14  C   UNL     1       4.782  13.732   3.889  1.00  0.00     0.210 C 
ENDBRANCH  11  13
BRANCH  12  15
HETATM   15  O   UNL     1       8.388  11.210   2.909  1.00  0.00    -0.370 OA
HETATM   16  H   UNL     1       8.746  11.516   3.731  1.00  0.00     0.216 HD
ENDBRANCH  12  15
ENDBRANCH   3  11
TORSDOF 6
ENDMDL
MODEL 3
REMARK VINA RESULT:    -4.639     34.558     35.458
REMARK INTER + INTRA:          -6.585
REMARK INTER:                  -6.236
REMARK INTRA:                  -0.350
REMARK UNBOUND:                -0.590
REMARK  6 active torsions:
REMARK  status: ('A' for Active; 'I' for Inactive)
REMARK    1  A    between atoms: O_1  and  C_9 
REMARK    2  A    between atoms: C_2  and  O_7 
REMARK    3  A    between atoms: C_4  and  C_6 
REMARK    4  A    between atoms: C_5  and  O_13 
REMARK    5  A    between atoms: C_5  and  C_12 
REMARK    6  A    between atoms: C_9  and  C_11 
ROOT
HETATM    1  C   UNL     1       0.716 -17.665   8.926  1.00  0.00     0.172 A 
HETATM    2  N   UNL     1       2.093 -17.358   8.435  1.00  0.00    -0.357 N 
HETATM    3  C   UNL     1       1.773 -18.390   8.917  1.00  0.00     0.091 A 
HETATM    4 CL   UNL     1      -0.386 -17.624   7.550  1.00  0.00    -0.084 Cl
HETATM    5  H   UNL     1       2.386 -16.730   7.795  1.00  0.00     0.162 HD
ENDROOT
BRANCH   1   6
HETATM    6  C   UNL     1       0.028 -17.169  10.189  1.00  0.00     0.025 C 
HETATM    7  C   UNL     1      -1.257 -17.237  10.420  1.00  0.00    -0.001 C 
BRANCH   7   8
HETATM    8  C   UNL     1      -1.804 -16.769  11.715  1.00  0.00     0.191 C 
BRANCH   8   9
HETATM    9  O   UNL     1      -0.835 -15.976  12.319  1.00  0.00    -0.397 OA
HETATM   10  H   UNL     1      -0.413 -15.303  11.839  1.00  0.00     0.209 HD
ENDBRANCH   8   9
ENDBRANCH   7   8
ENDBRANCH   1   6
BRANCH   3  11
HETATM   11  C   UNL     1       2.417 -19.585   9.365  1.00  0.00     0.116 C 
HETATM   12  C   UNL     1       3.809 -19.546   9.169  1.00  0.00     0.170 C 
BRANCH  11  13
HETATM   13  O   UNL     1       1.478 -20.460   9.862  1.00  0.00    -0.352 OA
HETATM   14  C   UNL     1       0.612 -21.266   9.055  1.00  0.00     0.210 C 
ENDBRANCH  11  13
BRANCH  12  15
HETATM   15  O   UNL     1       4.490 -18.418   9.148  1.00  0.00    -0.370 OA
HETATM   16  H   UNL     1       4.965 -18.158   9.924  1.00  0.00     0.216 HD
ENDBRANCH  12  15
ENDBRANCH   3  11
TORSDOF 6
ENDMDL
MODEL 4
REMARK VINA RESULT:    -4.459     30.822     32.814
REMARK INTER + INTRA:          -6.352
REMARK INTER:                  -6.023
REMARK INTRA:                  -0.330
REMARK UNBOUND:                -0.590
REMARK  6 active torsions:
REMARK  status: ('A' for Active; 'I' for Inactive)
REMARK    1  A    between atoms: O_1  and  C_9 
REMARK    2  A    between atoms: C_2  and  O_7 
REMARK    3  A    between atoms: C_4  and  C_6 
REMARK    4  A    between atoms: C_5  and  O_13 
REMARK    5  A    between atoms: C_5  and  C_12 
REMARK    6  A    between atoms: C_9  and  C_11 
ROOT
HETATM    1  C   UNL     1      23.530  -3.370  25.876  1.00  0.00     0.172 A 
HETATM    2  N   UNL     1      23.239  -4.542  26.754  1.00  0.00    -0.357 N 
HETATM    3  C   UNL     1      23.780  -4.616  25.705  1.00  0.00     0.091 A 
HETATM    4 CL   UNL     1      24.658  -2.310  26.721  1.00  0.00    -0.084 Cl
HETATM    5  H   UNL     1      23.098  -4.586  27.687  1.00  0.00     0.162 HD
ENDROOT
BRANCH   1   6
HETATM    6  C   UNL     1      22.565  -2.565  25.019  1.00  0.00     0.025 C 
HETATM    7  C   UNL     1      21.996  -1.445  25.379  1.00  0.00    -0.001 C 
BRANCH   7   8
HETATM    8  C   UNL     1      21.113  -0.722  24.433  1.00  0.00     0.191 C 
BRANCH   8   9
HETATM    9  O   UNL     1      19.975  -1.498  24.244  1.00  0.00    -0.397 OA
HETATM   10  H   UNL     1      20.035  -2.326  23.831  1.00  0.00     0.209 HD
ENDBRANCH   8   9
ENDBRANCH   7   8
ENDBRANCH   1   6
BRANCH   3  11
HETATM   11  C   UNL     1      24.202  -5.647  24.810  1.00  0.00     0.116 C 
HETATM   12  C   UNL     1      24.653  -6.792  25.491  1.00  0.00     0.170 C 
BRANCH  11  13
HETATM   13  O   UNL     1      24.056  -5.221  23.509  1.00  0.00    -0.352 OA
HETATM   14  C   UNL     1      25.133  -5.084  22.574  1.00  0.00     0.210 C 
ENDBRANCH  11  13
BRANCH  12  15
HETATM   15  O   UNL     1      24.217  -7.120  26.690  1.00  0.00    -0.370 OA
HETATM   16  H   UNL     1      23.528  -6.604  27.081  1.00  0.00     0.216 HD
ENDBRANCH  12  15
ENDBRANCH   3  11
TORSDOF 6
ENDMDL
MODEL 5
REMARK VINA RESULT:    -4.296     27.714     29.078
REMARK INTER + INTRA:          -6.142
REMARK INTER:                  -5.582
REMARK INTRA:                  -0.560
REMARK UNBOUND:                -0.590
REMARK  6 active torsions:
REMARK  status: ('A' for Active; 'I' for Inactive)
REMARK    1  A    between atoms: O_1  and  C_9 
REMARK    2  A    between atoms: C_2  and  O_7 
REMARK    3  A    between atoms: C_4  and  C_6 
REMARK    4  A    between atoms: C_5  and  O_13 
REMARK    5  A    between atoms: C_5  and  C_12 
REMARK    6  A    between atoms: C_9  and  C_11 
ROOT
HETATM    1  C   UNL     1       7.454  -3.122  23.758  1.00  0.00     0.172 A 
HETATM    2  N   UNL     1       8.136  -3.401  22.458  1.00  0.00    -0.357 N 
HETATM    3  C   UNL     1       7.052  -3.786  22.737  1.00  0.00     0.091 A 
HETATM    4 CL   UNL     1       7.197  -1.383  23.888  1.00  0.00    -0.084 Cl
HETATM    5  H   UNL     1       8.826  -2.931  22.019  1.00  0.00     0.162 HD
ENDROOT
BRANCH   1   6
HETATM    6  C   UNL     1       7.730  -3.735  25.122  1.00  0.00     0.025 C 
HETATM    7  C   UNL     1       7.255  -4.878  25.542  1.00  0.00    -0.001 C 
BRANCH   7   8
HETATM    8  C   UNL     1       7.639  -5.398  26.875  1.00  0.00     0.191 C 
BRANCH   8   9
HETATM    9  O   UNL     1       8.963  -5.038  27.101  1.00  0.00    -0.397 OA
HETATM   10  H   UNL     1       9.411  -4.496  26.497  1.00  0.00     0.209 HD
ENDBRANCH   8   9
ENDBRANCH   7   8
ENDBRANCH   1   6
BRANCH   3  11
HETATM   11  C   UNL     1       6.081  -4.679  22.188  1.00  0.00     0.116 C 
HETATM   12  C   UNL     1       6.668  -5.827  21.629  1.00  0.00     0.170 C 
BRANCH  11  13
HETATM   13  O   UNL     1       4.820  -4.151  22.354  1.00  0.00    -0.352 OA
HETATM   14  C   UNL     1       3.916  -4.520  23.402  1.00  0.00     0.210 C 
ENDBRANCH  11  13
BRANCH  12  15
HETATM   15  O   UNL     1       7.819  -6.310  22.049  1.00  0.00    -0.370 OA
HETATM   16  H   UNL     1       8.304  -6.891  21.481  1.00  0.00     0.216 HD
ENDBRANCH  12  15
ENDBRANCH   3  11
TORSDOF 6
ENDMDL
MODEL 6
REMARK VINA RESULT:    -4.248     22.711     24.309
REMARK INTER + INTRA:          -6.080
REMARK INTER:                  -5.446
REMARK INTRA:                  -0.633
REMARK UNBOUND:                -0.590
REMARK  6 active torsions:
REMARK  status: ('A' for Active; 'I' for Inactive)
REMARK    1  A    between atoms: O_1  and  C_9 
REMARK    2  A    between atoms: C_2  and  O_7 
REMARK    3  A    between atoms: C_4  and  C_6 
REMARK    4  A    between atoms: C_5  and  O_13 
REMARK    5  A    between atoms: C_5  and  C_12 
REMARK    6  A    between atoms: C_9  and  C_11 
ROOT
HETATM    1  C   UNL     1       7.080   0.569  21.527  1.00  0.00     0.172 A 
HETATM    2  N   UNL     1       6.626   0.110  22.874  1.00  0.00    -0.357 N 
HETATM    3  C   UNL     1       7.281  -0.541  22.136  1.00  0.00     0.091 A 
HETATM    4 CL   UNL     1       8.155   1.949  21.745  1.00  0.00    -0.084 Cl
HETATM    5  H   UNL     1       6.375   0.608  23.636  1.00  0.00     0.162 HD
ENDROOT
BRANCH   1   6
HETATM    6  C   UNL     1       6.266   0.709  20.250  1.00  0.00     0.025 C 
HETATM    7  C   UNL     1       6.548   0.131  19.112  1.00  0.00    -0.001 C 
BRANCH   7   8
HETATM    8  C   UNL     1       5.646   0.300  17.949  1.00  0.00     0.191 C 
BRANCH   8   9
HETATM    9  O   UNL     1       6.059   1.433  17.258  1.00  0.00    -0.397 OA
HETATM   10  H   UNL     1       6.884   1.450  16.836  1.00  0.00     0.209 HD
ENDBRANCH   8   9
ENDBRANCH   7   8
ENDBRANCH   1   6
BRANCH   3  11
HETATM   11  C   UNL     1       7.750  -1.889  22.057  1.00  0.00     0.116 C 
HETATM   12  C   UNL     1       6.706  -2.824  22.179  1.00  0.00     0.170 C 
BRANCH  11  13
HETATM   13  O   UNL     1       9.116  -1.897  21.892  1.00  0.00    -0.352 OA
HETATM   14  C   UNL     1      10.053  -1.397  22.852  1.00  0.00     0.210 C 
ENDBRANCH  11  13
BRANCH  12  15
HETATM   15  O   UNL     1       5.467  -2.552  21.824  1.00  0.00    -0.370 OA
HETATM   16  H   UNL     1       5.304  -1.792  21.285  1.00  0.00     0.216 HD
ENDBRANCH  12  15
ENDBRANCH   3  11
TORSDOF 6
ENDMDL
MODEL 7
REMARK VINA RESULT:    -4.213      3.896      4.903
REMARK INTER + INTRA:          -6.035
REMARK INTER:                  -5.416
REMARK INTRA:                  -0.619
REMARK UNBOUND:                -0.590
REMARK  6 active torsions:
REMARK  status: ('A' for Active; 'I' for Inactive)
REMARK    1  A    between atoms: O_1  and  C_9 
REMARK    2  A    between atoms: C_2  and  O_7 
REMARK    3  A    between atoms: C_4  and  C_6 
REMARK    4  A    between atoms: C_5  and  O_13 
REMARK    5  A    between atoms: C_5  and  C_12 
REMARK    6  A    between atoms: C_9  and  C_11 
ROOT
HETATM    1  C   UNL     1       6.188  13.603   3.272  1.00  0.00     0.172 A 
HETATM    2  N   UNL     1       5.077  13.047   2.443  1.00  0.00    -0.357 N 
HETATM    3  C   UNL     1       5.985  12.409   2.851  1.00  0.00     0.091 A 
HETATM    4 CL   UNL     1       5.513  14.171   4.798  1.00  0.00    -0.084 Cl
HETATM    5  H   UNL     1       4.195  13.359   2.319  1.00  0.00     0.162 HD
ENDROOT
BRANCH   1   6
HETATM    6  C   UNL     1       7.351  14.479   2.832  1.00  0.00     0.025 C 
HETATM    7  C   UNL     1       8.589  14.076   2.703  1.00  0.00    -0.001 C 
BRANCH   7   8
HETATM    8  C   UNL     1       9.627  15.012   2.213  1.00  0.00     0.191 C 
BRANCH   8   9
HETATM    9  O   UNL     1      10.838  14.629   2.777  1.00  0.00    -0.397 OA
HETATM   10  H   UNL     1      10.865  13.968   3.428  1.00  0.00     0.209 HD
ENDBRANCH   8   9
ENDBRANCH   7   8
ENDBRANCH   1   6
BRANCH   3  11
HETATM   11  C   UNL     1       6.507  11.090   2.672  1.00  0.00     0.116 C 
HETATM   12  C   UNL     1       6.662  10.758   1.315  1.00  0.00     0.170 C 
BRANCH  11  13
HETATM   13  O   UNL     1       6.705  10.499   3.900  1.00  0.00    -0.352 OA
HETATM   14  C   UNL     1       5.657  10.000   4.740  1.00  0.00     0.210 C 
ENDBRANCH  11  13
BRANCH  12  15
HETATM   15  O   UNL     1       6.876  11.665   0.384  1.00  0.00    -0.370 OA
HETATM   16  H   UNL     1       7.397  12.425   0.599  1.00  0.00     0.216 HD
ENDBRANCH  12  15
ENDBRANCH   3  11
TORSDOF 6
ENDMDL
MODEL 8
REMARK VINA RESULT:    -4.205     23.543     25.183
REMARK INTER + INTRA:          -6.024
REMARK INTER:                  -5.484
REMARK INTRA:                  -0.540
REMARK UNBOUND:                -0.590
REMARK  6 active torsions:
REMARK  status: ('A' for Active; 'I' for Inactive)
REMARK    1  A    between atoms: O_1  and  C_9 
REMARK    2  A    between atoms: C_2  and  O_7 
REMARK    3  A    between atoms: C_4  and  C_6 
REMARK    4  A    between atoms: C_5  and  O_13 
REMARK    5  A    between atoms: C_5  and  C_12 
REMARK    6  A    between atoms: C_9  and  C_11 
ROOT
HETATM    1  C   UNL     1       9.888   1.221  23.192  1.00  0.00     0.172 A 
HETATM    2  N   UNL     1       9.985   0.744  24.604  1.00  0.00    -0.357 N 
HETATM    3  C   UNL     1      10.532   0.231  23.690  1.00  0.00     0.091 A 
HETATM    4 CL   UNL     1      10.598   2.832  23.100  1.00  0.00    -0.084 Cl
HETATM    5  H   UNL     1       9.856   1.210  25.415  1.00  0.00     0.162 HD
ENDROOT
BRANCH   1   6
HETATM    6  C   UNL     1       8.722   1.085  22.225  1.00  0.00     0.025 C 
HETATM    7  C   UNL     1       8.736   0.374  21.127  1.00  0.00    -0.001 C 
BRANCH   7   8
HETATM    8  C   UNL     1       7.517   0.274  20.291  1.00  0.00     0.191 C 
BRANCH   8   9
HETATM    9  O   UNL     1       7.923   0.188  18.965  1.00  0.00    -0.397 OA
HETATM   10  H   UNL     1       7.548   0.743  18.323  1.00  0.00     0.209 HD
ENDBRANCH   8   9
ENDBRANCH   7   8
ENDBRANCH   1   6
BRANCH   3  11
HETATM   11  C   UNL     1      11.277  -0.965  23.447  1.00  0.00     0.116 C 
HETATM   12  C   UNL     1      12.624  -0.840  23.830  1.00  0.00     0.170 C 
BRANCH  11  13
HETATM   13  O   UNL     1      10.456  -1.917  22.887  1.00  0.00    -0.352 OA
HETATM   14  C   UNL     1       9.385  -2.573  23.576  1.00  0.00     0.210 C 
ENDBRANCH  11  13
BRANCH  12  15
HETATM   15  O   UNL     1      13.016  -0.022  24.784  1.00  0.00    -0.370 OA
HETATM   16  H   UNL     1      13.131   0.895  24.580  1.00  0.00     0.216 HD
ENDBRANCH  12  15
ENDBRANCH   3  11
TORSDOF 6
ENDMDL
MODEL 9
REMARK VINA RESULT:    -4.099     22.436     24.678
REMARK INTER + INTRA:          -5.887
REMARK INTER:                  -5.431
REMARK INTRA:                  -0.457
REMARK UNBOUND:                -0.590
REMARK  6 active torsions:
REMARK  status: ('A' for Active; 'I' for Inactive)
REMARK    1  A    between atoms: O_1  and  C_9 
REMARK    2  A    between atoms: C_2  and  O_7 
REMARK    3  A    between atoms: C_4  and  C_6 
REMARK    4  A    between atoms: C_5  and  O_13 
REMARK    5  A    between atoms: C_5  and  C_12 
REMARK    6  A    between atoms: C_9  and  C_11 
ROOT
HETATM    1  C   UNL     1      25.344  -0.521  13.096  1.00  0.00     0.172 A 
HETATM    2  N   UNL     1      24.945  -0.321  11.671  1.00  0.00    -0.357 N 
HETATM    3  C   UNL     1      25.452   0.510  12.342  1.00  0.00     0.091 A 
HETATM    4 CL   UNL     1      26.597  -1.759  13.153  1.00  0.00    -0.084 Cl
HETATM    5  H   UNL     1      24.820  -0.950  10.978  1.00  0.00     0.162 HD
ENDROOT
BRANCH   1   6
HETATM    6  C   UNL     1      24.454  -0.591  14.328  1.00  0.00     0.025 C 
HETATM    7  C   UNL     1      24.413  -1.591  15.169  1.00  0.00    -0.001 C 
BRANCH   7   8
HETATM    8  C   UNL     1      23.542  -1.519  16.366  1.00  0.00     0.191 C 
BRANCH   8   9
HETATM    9  O   UNL     1      22.532  -2.460  16.208  1.00  0.00    -0.397 OA
HETATM   10  H   UNL     1      22.722  -3.366  16.263  1.00  0.00     0.209 HD
ENDBRANCH   8   9
ENDBRANCH   7   8
ENDBRANCH   1   6
BRANCH   3  11
HETATM   11  C   UNL     1      25.740   1.907  12.247  1.00  0.00     0.116 C 
HETATM   12  C   UNL     1      24.805   2.590  11.449  1.00  0.00     0.170 C 
BRANCH  11  13
HETATM   13  O   UNL     1      26.876   2.197  12.967  1.00  0.00    -0.352 OA
HETATM   14  C   UNL     1      27.089   3.412  13.695  1.00  0.00     0.210 C 
ENDBRANCH  11  13
BRANCH  12  15
HETATM   15  O   UNL     1      23.562   2.179  11.305  1.00  0.00    -0.370 OA
HETATM   16  H   UNL     1      23.375   1.509  10.663  1.00  0.00     0.216 HD
ENDBRANCH  12  15
ENDBRANCH   3  11
TORSDOF 6
ENDMDL
