REMARK  6 active torsions:
REMARK  status: ('A' for Active; 'I' for Inactive)
REMARK    1  A    between atoms: O_1  and  C_9 
REMARK    2  A    between atoms: C_2  and  O_7 
REMARK    3  A    between atoms: C_4  and  C_6 
REMARK    4  A    between atoms: C_5  and  O_13 
REMARK    5  A    between atoms: C_5  and  C_12 
REMARK    6  A    between atoms: C_9  and  C_11 
ROOT
HETATM    1  C   UNL     1       8.167  -0.686  21.923  1.00  0.00     0.172 A 
HETATM    2  N   UNL     1       7.053  -1.680  21.882  1.00  0.00    -0.357 N 
HETATM    3  C   UNL     1       7.623  -1.361  22.868  1.00  0.00     0.091 A 
HETATM    4 CL   UNL     1       7.532   0.881  21.424  1.00  0.00    -0.084 Cl
HETATM    5  H   UNL     1       6.357  -1.790  21.254  1.00  0.00     0.162 HD
ENDROOT
BRANCH   1   6
HETATM    6  C   UNL     1       9.608  -0.859  21.468  1.00  0.00     0.025 C 
HETATM    7  C   UNL     1      10.532   0.064  21.532  1.00  0.00    -0.001 C 
BRANCH   7   8
HETATM    8  C   UNL     1      11.918  -0.242  21.107  1.00  0.00     0.191 C 
BRANCH   8   9
HETATM    9  O   UNL     1      11.884  -0.549  19.752  1.00  0.00    -0.397 OA
HETATM   10  H   UNL     1      12.670  -0.717  19.289  1.00  0.00     0.209 HD
ENDBRANCH   8   9
ENDBRANCH   7   8
ENDBRANCH   1   6
BRANCH   3  11
HETATM   11  C   UNL     1       7.678  -1.781  24.233  1.00  0.00     0.116 C 
HETATM   12  C   UNL     1       8.418  -0.893  25.034  1.00  0.00     0.170 C 
BRANCH  11  13
HETATM   13  O   UNL     1       6.989  -2.963  24.383  1.00  0.00    -0.352 OA
HETATM   14  C   UNL     1       5.732  -3.255  23.761  1.00  0.00     0.210 C 
ENDBRANCH  11  13
BRANCH  12  15
HETATM   15  O   UNL     1       8.533   0.388  24.751  1.00  0.00    -0.370 OA
HETATM   16  H   UNL     1       8.697   0.644  23.855  1.00  0.00     0.216 HD
ENDBRANCH  12  15
ENDBRANCH   3  11
TORSDOF 6
