stable:False satoms:21 tatoms:24 sratio:0.875
  -OEChem-08052414223D

 23 23  0     0  0  0  0  0  0999 V2000
    9.0596   -0.1630   20.2890 C   0  0  0  0  0  0  0  0  0  0  0  0
    5.7618    0.8337   20.3799 O   0  0  0  0  0  0  0  0  0  0  0  0
    6.9775    0.5445   18.6022 O   0  0  0  0  0  0  0  0  0  0  0  0
    9.0361   -2.0375   22.8010 C   0  0  0  0  0  0  0  0  0  0  0  0
    9.3992   -4.0097   26.4907 H   0  0  0  0  0  0  0  0  0  0  0  0
    8.1268   -3.6340   24.7797 C   0  0  0  0  0  0  0  0  0  0  0  0
    6.8519   -1.1859   21.7389 S   0  0  0  0  0  0  0  0  0  0  0  0
   10.9784   -0.0235   20.9455 H   0  0  0  0  0  0  0  0  0  0  0  0
    8.3466   -3.7980   26.2778 C   0  0  0  0  0  0  0  0  0  0  0  0
    8.0569   -2.8936   26.8120 H   0  0  0  0  0  0  0  0  0  0  0  0
   11.7384   -1.5828   22.7707 Cl  0  0  0  0  0  0  0  0  0  0  0  0
    6.7687    0.4319   19.7973 N   0  0  0  0  0  0  0  0  0  0  0  0
    7.8769   -2.3960   22.2103 C   0  0  0  0  0  2  0  0  0  0  0  0
    9.3395    0.2408   19.3153 H   0  0  0  0  0  0  0  0  0  0  0  0
   10.1152   -1.3550   22.1912 C   0  0  0  0  0  0  0  0  0  0  0  0
    7.7642   -4.6214   26.6758 H   0  0  0  0  0  0  0  0  0  0  0  0
    8.5188   -4.4897   24.2225 H   0  0  0  0  0  0  0  0  0  0  0  0
    8.8840   -2.3571   24.2817 C   0  0  0  0  0  0  0  0  0  0  0  0
    7.0633   -3.5647   24.5667 H   0  0  0  0  0  0  0  0  0  0  0  0
    8.3116   -1.5099   24.6494 H   0  0  0  0  0  0  0  0  0  0  0  0
   10.0831   -0.4559   21.1537 N   0  0  0  0  0  0  0  0  0  0  0  0
    7.7408   -0.2835   20.5488 C   0  0  0  0  0  0  0  0  0  0  0  0
    9.8765   -2.4083   24.7070 H   0  0  0  0  0  0  0  0  0  0  0  0
  3 12  2  0  0  0  0
  2 12  2  0  0  0  0
 12 22  1  0  0  0  0
  1 14  1  0  0  0  0
  1 22  2  0  0  0  0
  7 22  1  0  0  0  0
  1 21  1  0  0  0  0
  7 13  1  0  0  0  0
  8 21  1  0  0  0  0
 15 21  1  0  0  0  0
  4 13  1  0  0  0  0
  4 15  2  0  0  0  0
 11 15  1  0  0  0  0
  4 18  1  0  0  0  0
  6 17  1  0  0  0  0
  6 19  1  0  0  0  0
  6 18  1  0  0  0  0
 18 20  1  0  0  0  0
 18 23  1  0  0  0  0
  6  9  1  0  0  0  0
  9 16  1  0  0  0  0
  5  9  1  0  0  0  0
  9 10  1  0  0  0  0
M  END
> <Chemgauss4>
-5.891501

$$$$
