stable:False satoms:21 tatoms:24 sratio:0.875
  -OEChem-08052414223D

 23 23  0     0  0  0  0  0  0999 V2000
   -9.5035   -0.0495  -20.7220 C   0  0  0  0  0  0  0  0  0  0  0  0
   -6.2057    0.9472  -20.8129 O   0  0  0  0  0  0  0  0  0  0  0  0
   -7.4214    0.6580  -19.0352 O   0  0  0  0  0  0  0  0  0  0  0  0
   -9.4800   -1.9240  -23.2340 C   0  0  0  0  0  0  0  0  0  0  0  0
   -9.8431   -3.8962  -26.9237 H   0  0  0  0  0  0  0  0  0  0  0  0
   -8.5707   -3.5205  -25.2127 C   0  0  0  0  0  0  0  0  0  0  0  0
   -7.2958   -1.0724  -22.1719 S   0  0  0  0  0  0  0  0  0  0  0  0
  -11.4224    0.0900  -21.3785 H   0  0  0  0  0  0  0  0  0  0  0  0
   -8.7905   -3.6845  -26.7108 C   0  0  0  0  0  0  0  0  0  0  0  0
   -8.5009   -2.7801  -27.2450 H   0  0  0  0  0  0  0  0  0  0  0  0
  -12.1823   -1.4693  -23.2037 Cl  0  0  0  0  0  0  0  0  0  0  0  0
   -7.2126    0.5454  -20.2303 N   0  0  0  0  0  0  0  0  0  0  0  0
   -8.3208   -2.2825  -22.6433 C   0  0  0  0  0  2  0  0  0  0  0  0
   -9.7835    0.3543  -19.7483 H   0  0  0  0  0  0  0  0  0  0  0  0
  -10.5591   -1.2415  -22.6242 C   0  0  0  0  0  0  0  0  0  0  0  0
   -8.2081   -4.5079  -27.1088 H   0  0  0  0  0  0  0  0  0  0  0  0
   -8.9627   -4.3762  -24.6555 H   0  0  0  0  0  0  0  0  0  0  0  0
   -9.3279   -2.2436  -24.7147 C   0  0  0  0  0  0  0  0  0  0  0  0
   -7.5072   -3.4512  -24.9997 H   0  0  0  0  0  0  0  0  0  0  0  0
   -8.7555   -1.3964  -25.0825 H   0  0  0  0  0  0  0  0  0  0  0  0
  -10.5270   -0.3424  -21.5867 N   0  0  0  0  0  0  0  0  0  0  0  0
   -8.1847   -0.1700  -20.9818 C   0  0  0  0  0  0  0  0  0  0  0  0
  -10.3204   -2.2948  -25.1400 H   0  0  0  0  0  0  0  0  0  0  0  0
  3 12  2  0  0  0  0
  2 12  2  0  0  0  0
 12 22  1  0  0  0  0
  1 14  1  0  0  0  0
  1 22  2  0  0  0  0
  7 22  1  0  0  0  0
  1 21  1  0  0  0  0
  7 13  1  0  0  0  0
  8 21  1  0  0  0  0
 15 21  1  0  0  0  0
  4 13  1  0  0  0  0
  4 15  2  0  0  0  0
 11 15  1  0  0  0  0
  4 18  1  0  0  0  0
  6 17  1  0  0  0  0
  6 19  1  0  0  0  0
  6 18  1  0  0  0  0
 18 20  1  0  0  0  0
 18 23  1  0  0  0  0
  6  9  1  0  0  0  0
  9 16  1  0  0  0  0
  5  9  1  0  0  0  0
  9 10  1  0  0  0  0
M  END
> <Chemgauss4>
-5.565851

$$$$
