stable:False satoms:8 tatoms:24 sratio:0.3333333333333333
  -OEChem-07092417493D

 24 24  0     1  0  0  0  0  0999 V2000
    6.5855   -4.8518   26.4344 C   0  0  0  0  0  0  0  0  0  0  0  0
    8.2041   -4.2876   26.1108 S   0  0  0  0  0  0  0  0  0  0  0  0
    9.0651   -5.4620   26.0483 O   0  0  0  0  0  0  0  0  0  0  0  0
    8.6054   -3.4021   27.1705 O   0  0  0  0  0  0  0  0  0  0  0  0
    8.0922   -3.5616   24.6873 N   0  0  0  0  0  0  0  0  0  0  0  0
    8.9665   -2.9094   24.1453 C   0  0  0  0  0  0  0  0  0  0  0  0
    9.4296   -2.0018   23.4988 C   0  0  0  0  0  0  0  0  0  0  0  0
   10.3114   -1.2302   23.1644 C   0  0  1  0  0  0  0  0  0  0  0  0
   11.0769    0.0563   24.3724 C   0  0  0  0  0  0  0  0  0  0  0  0
   11.9838    0.2916   24.3211 C   0  0  0  0  0  0  0  0  0  0  0  0
   13.1429   -0.2101   23.4209 C   0  0  0  0  0  0  0  0  0  0  0  0
   12.7371   -1.2057   22.6946 C   0  0  0  0  0  0  0  0  0  0  0  0
   11.7882   -1.7296   22.5335 C   0  0  0  0  0  0  0  0  0  0  0  0
    9.7489   -0.5124   22.3231 C   0  0  0  0  0  0  0  0  0  0  0  0
    9.0687    0.0393   21.3752 C   0  0  0  0  0  0  0  0  0  0  0  0
    9.5278    0.9999   20.9744 O   0  0  0  0  0  0  0  0  0  0  0  0
    7.9381   -0.5804   21.0593 N   0  0  0  0  0  0  0  0  0  0  0  0
    7.1987   -0.1193   20.1640 C   0  0  0  0  0  0  0  0  0  0  0  0
    7.2577   -0.0095   18.8484 C   0  0  0  0  0  0  0  0  0  0  0  0
    6.7744    0.3237   17.7625 N   0  0  0  0  0  0  0  0  0  0  0  0
    5.6596    0.8596   18.2178 C   0  0  0  0  0  0  0  0  0  0  0  0
    5.2397    0.9600   19.4233 C   0  0  0  0  0  0  0  0  0  0  0  0
    5.8235    0.5697   20.5350 C   0  0  0  0  0  0  0  0  0  0  0  0
    5.3581    0.6832   22.0112 C   0  0  0  0  0  0  0  0  0  0  0  0
 20 21  2  0  0  0  0
 19 20  1  0  0  0  0
 21 22  1  0  0  0  0
 18 19  2  0  0  0  0
 22 23  2  0  0  0  0
 18 23  1  0  0  0  0
 17 18  1  0  0  0  0
 23 24  1  0  0  0  0
 15 16  2  0  0  0  0
 15 17  1  0  0  0  0
 14 15  1  0  0  0  0
  8 14  1  0  0  0  0
 12 13  2  0  0  0  0
  8 13  1  0  0  0  0
 11 12  1  0  0  0  0
  7  8  1  0  0  0  0
 10 11  1  0  0  0  0
  6  7  2  0  0  0  0
  5  6  1  0  0  0  0
  9 10  2  0  0  0  0
  2  5  1  0  0  0  0
  2  3  2  0  0  0  0
  1  2  1  0  0  0  0
  2  4  2  0  0  0  0
M  END
> <Shapegauss>
-286.812012

$$$$
