stable:False satoms:8 tatoms:24 sratio:0.3333333333333333
  -OEChem-08062416493D

 47 47  0     1  0  0  0  0  0999 V2000
    6.2151   -5.2427   25.9210 C   0  0  0  0  0  0  0  0  0  0  0  0
    7.8642   -4.6808   25.8336 S   0  0  0  0  0  0  0  0  0  0  0  0
    8.7181   -5.8602   25.7677 O   0  0  0  0  0  0  0  0  0  0  0  0
    8.1478   -3.8960   27.0049 O   0  0  0  0  0  0  0  0  0  0  0  0
    7.9216   -3.8341   24.4750 N   0  0  0  0  0  0  0  0  0  0  0  0
    8.8571   -3.1531   24.0946 C   0  0  0  0  0  0  0  0  0  0  0  0
    9.3979   -2.2017   23.5861 C   0  0  0  0  0  0  0  0  0  0  0  0
   10.3178   -1.4196   23.4223 C   0  0  1  0  0  0  0  0  0  0  0  0
   10.9490   -0.2543   24.8165 C   0  0  0  0  0  0  0  0  0  0  0  0
   11.8575   -0.0311   24.8892 C   0  0  0  0  0  0  0  0  0  0  0  0
   13.1085   -0.4739   24.0865 C   0  0  0  0  0  0  0  0  0  0  0  0
   12.7815   -1.3967   23.2351 C   0  0  0  0  0  0  0  0  0  0  0  0
   11.8535   -1.8886   22.9224 C   0  0  0  0  0  0  0  0  0  0  0  0
    9.8607   -0.6231   22.5880 C   0  0  0  0  0  0  0  0  0  0  0  0
    9.2978    0.0192   21.6204 C   0  0  0  0  0  0  0  0  0  0  0  0
    9.8068    1.0024   21.3593 O   0  0  0  0  0  0  0  0  0  0  0  0
    8.2064   -0.5518   21.1255 N   0  0  0  0  0  0  0  0  0  0  0  0
    7.5780   -0.0033   20.1954 C   0  0  0  0  0  0  0  0  0  0  0  0
    7.7883    0.2174   18.9096 C   0  0  0  0  0  0  0  0  0  0  0  0
    7.4352    0.6503   17.8088 N   0  0  0  0  0  0  0  0  0  0  0  0
    6.2794    1.1644   18.1793 C   0  0  0  0  0  0  0  0  0  0  0  0
    5.7248    1.1687   19.3334 C   0  0  0  0  0  0  0  0  0  0  0  0
    6.1743    0.6750   20.4661 C   0  0  0  0  0  0  0  0  0  0  0  0
    5.5435    0.6700   21.8841 C   0  0  0  0  0  0  0  0  0  0  0  0
    6.0791   -5.8415   26.8336 H   0  0  0  0  0  0  0  0  0  0  0  0
    5.5343   -4.3790   25.9445 H   0  0  0  0  0  0  0  0  0  0  0  0
    5.9917   -5.8618   25.0396 H   0  0  0  0  0  0  0  0  0  0  0  0
    7.1440   -3.2073   24.5238 H   0  0  0  0  0  0  0  0  0  0  0  0
    9.7029   -3.7596   24.3828 H   0  0  0  0  0  0  0  0  0  0  0  0
    8.6531   -1.8459   22.8896 H   0  0  0  0  0  0  0  0  0  0  0  0
   10.5030   -0.8795   24.3625 H   0  0  0  0  0  0  0  0  0  0  0  0
   10.6223   -0.9462   24.0543 H   0  0  0  0  0  0  0  0  0  0  0  0
   10.2301    0.1807   25.4951 H   0  0  0  0  0  0  0  0  0  0  0  0
   12.0733    0.6678   25.6838 H   0  0  0  0  0  0  0  0  0  0  0  0
   13.8661   -0.8686   24.7795 H   0  0  0  0  0  0  0  0  0  0  0  0
   13.5208    0.3912   23.5466 H   0  0  0  0  0  0  0  0  0  0  0  0
   13.6398   -1.7754   22.7000 H   0  0  0  0  0  0  0  0  0  0  0  0
   11.9302   -2.7295   22.2491 H   0  0  0  0  0  0  0  0  0  0  0  0
   10.8501   -0.1930   22.3730 H   0  0  0  0  0  0  0  0  0  0  0  0
    9.3575   -0.0187   23.3571 H   0  0  0  0  0  0  0  0  0  0  0  0
    7.8865   -1.4230   21.4980 H   0  0  0  0  0  0  0  0  0  0  0  0
    8.7727   -0.1889   18.7298 H   0  0  0  0  0  0  0  0  0  0  0  0
    5.7190    1.6529   17.3958 H   0  0  0  0  0  0  0  0  0  0  0  0
    4.7555    1.6425   19.3832 H   0  0  0  0  0  0  0  0  0  0  0  0
    4.9240   -0.2306   22.0072 H   0  0  0  0  0  0  0  0  0  0  0  0
    6.3421    0.6718   22.6405 H   0  0  0  0  0  0  0  0  0  0  0  0
    4.9174    1.5656   22.0099 H   0  0  0  0  0  0  0  0  0  0  0  0
 20 21  2  0  0  0  0
 19 20  1  0  0  0  0
 21 22  1  0  0  0  0
 18 19  2  0  0  0  0
 22 23  2  0  0  0  0
 18 23  1  0  0  0  0
 17 18  1  0  0  0  0
 23 24  1  0  0  0  0
 15 16  2  0  0  0  0
 15 17  1  0  0  0  0
 14 15  1  0  0  0  0
  8 14  1  0  0  0  0
 12 13  2  0  0  0  0
  8 13  1  0  0  0  0
 11 12  1  0  0  0  0
  7  8  1  0  0  0  0
 10 11  1  0  0  0  0
  6  7  2  0  0  0  0
  5  6  1  0  0  0  0
  9 10  2  0  0  0  0
  2  5  1  0  0  0  0
  2  3  2  0  0  0  0
  1  2  1  0  0  0  0
  2  4  2  0  0  0  0
  1 25  1  0  0  0  0
  1 26  1  0  0  0  0
  1 27  1  0  0  0  0
  5 28  1  0  0  0  0
  6 29  1  0  0  0  0
  7 30  1  0  0  0  0
  8 31  1  0  0  0  0
  9 32  1  0  0  0  0
  9 33  1  0  0  0  0
 10 34  1  0  0  0  0
 11 35  1  0  0  0  0
 11 36  1  0  0  0  0
 12 37  1  0  0  0  0
 13 38  1  0  0  0  0
 14 39  1  0  0  0  0
 14 40  1  0  0  0  0
 17 41  1  0  0  0  0
 19 42  1  0  0  0  0
 21 43  1  0  0  0  0
 22 44  1  0  0  0  0
 24 45  1  0  0  0  0
 24 46  1  0  0  0  0
 24 47  1  0  0  0  0
M  END
> <Chemgauss4>
-12.611464

$$$$
