stable:False satoms:8 tatoms:24 sratio:0.3333333333333333
  -OEChem-08062416493D

 47 47  0     1  0  0  0  0  0999 V2000
   -5.7862   -5.3200  -25.6873 C   0  0  0  0  0  0  0  0  0  0  0  0
   -7.4353   -4.7581  -25.6000 S   0  0  0  0  0  0  0  0  0  0  0  0
   -8.2892   -5.9374  -25.5340 O   0  0  0  0  0  0  0  0  0  0  0  0
   -7.7189   -3.9733  -26.7712 O   0  0  0  0  0  0  0  0  0  0  0  0
   -7.4927   -3.9113  -24.2414 N   0  0  0  0  0  0  0  0  0  0  0  0
   -8.4281   -3.2304  -23.8609 C   0  0  0  0  0  0  0  0  0  0  0  0
   -8.9690   -2.2790  -23.3524 C   0  0  0  0  0  0  0  0  0  0  0  0
   -9.8889   -1.4969  -23.1887 C   0  0  1  0  0  0  0  0  0  0  0  0
  -10.5201   -0.3315  -24.5829 C   0  0  0  0  0  0  0  0  0  0  0  0
  -11.4286   -0.1083  -24.6556 C   0  0  0  0  0  0  0  0  0  0  0  0
  -12.6796   -0.5512  -23.8528 C   0  0  0  0  0  0  0  0  0  0  0  0
  -12.3526   -1.4740  -23.0015 C   0  0  0  0  0  0  0  0  0  0  0  0
  -11.4246   -1.9659  -22.6887 C   0  0  0  0  0  0  0  0  0  0  0  0
   -9.4318   -0.7003  -22.3544 C   0  0  0  0  0  0  0  0  0  0  0  0
   -8.8689   -0.0581  -21.3868 C   0  0  0  0  0  0  0  0  0  0  0  0
   -9.3779    0.9252  -21.1256 O   0  0  0  0  0  0  0  0  0  0  0  0
   -7.7775   -0.6291  -20.8919 N   0  0  0  0  0  0  0  0  0  0  0  0
   -7.1491   -0.0806  -19.9618 C   0  0  0  0  0  0  0  0  0  0  0  0
   -7.3594    0.1401  -18.6759 C   0  0  0  0  0  0  0  0  0  0  0  0
   -7.0063    0.5731  -17.5752 N   0  0  0  0  0  0  0  0  0  0  0  0
   -5.8505    1.0872  -17.9456 C   0  0  0  0  0  0  0  0  0  0  0  0
   -5.2959    1.0915  -19.0997 C   0  0  0  0  0  0  0  0  0  0  0  0
   -5.7454    0.5977  -20.2325 C   0  0  0  0  0  0  0  0  0  0  0  0
   -5.1146    0.5928  -21.6504 C   0  0  0  0  0  0  0  0  0  0  0  0
   -5.6502   -5.9188  -26.6000 H   0  0  0  0  0  0  0  0  0  0  0  0
   -5.1054   -4.4562  -25.7108 H   0  0  0  0  0  0  0  0  0  0  0  0
   -5.5628   -5.9391  -24.8060 H   0  0  0  0  0  0  0  0  0  0  0  0
   -6.7151   -3.2846  -24.2902 H   0  0  0  0  0  0  0  0  0  0  0  0
   -9.2740   -3.8368  -24.1491 H   0  0  0  0  0  0  0  0  0  0  0  0
   -8.2242   -1.9231  -22.6559 H   0  0  0  0  0  0  0  0  0  0  0  0
  -10.0741   -0.9568  -24.1288 H   0  0  0  0  0  0  0  0  0  0  0  0
  -10.1934   -1.0234  -23.8207 H   0  0  0  0  0  0  0  0  0  0  0  0
   -9.8012    0.1034  -25.2614 H   0  0  0  0  0  0  0  0  0  0  0  0
  -11.6444    0.5906  -25.4502 H   0  0  0  0  0  0  0  0  0  0  0  0
  -13.4372   -0.9459  -24.5459 H   0  0  0  0  0  0  0  0  0  0  0  0
  -13.0919    0.3140  -23.3129 H   0  0  0  0  0  0  0  0  0  0  0  0
  -13.2109   -1.8527  -22.4664 H   0  0  0  0  0  0  0  0  0  0  0  0
  -11.5013   -2.8068  -22.0154 H   0  0  0  0  0  0  0  0  0  0  0  0
  -10.4212   -0.2702  -22.1393 H   0  0  0  0  0  0  0  0  0  0  0  0
   -8.9286   -0.0959  -23.1234 H   0  0  0  0  0  0  0  0  0  0  0  0
   -7.4576   -1.5002  -21.2644 H   0  0  0  0  0  0  0  0  0  0  0  0
   -8.3438   -0.2661  -18.4961 H   0  0  0  0  0  0  0  0  0  0  0  0
   -5.2901    1.5756  -17.1622 H   0  0  0  0  0  0  0  0  0  0  0  0
   -4.3266    1.5653  -19.1495 H   0  0  0  0  0  0  0  0  0  0  0  0
   -4.4951   -0.3078  -21.7736 H   0  0  0  0  0  0  0  0  0  0  0  0
   -5.9132    0.5945  -22.4069 H   0  0  0  0  0  0  0  0  0  0  0  0
   -4.4885    1.4884  -21.7762 H   0  0  0  0  0  0  0  0  0  0  0  0
 20 21  2  0  0  0  0
 19 20  1  0  0  0  0
 21 22  1  0  0  0  0
 18 19  2  0  0  0  0
 22 23  2  0  0  0  0
 18 23  1  0  0  0  0
 17 18  1  0  0  0  0
 23 24  1  0  0  0  0
 15 16  2  0  0  0  0
 15 17  1  0  0  0  0
 14 15  1  0  0  0  0
  8 14  1  0  0  0  0
 12 13  2  0  0  0  0
  8 13  1  0  0  0  0
 11 12  1  0  0  0  0
  7  8  1  0  0  0  0
 10 11  1  0  0  0  0
  6  7  2  0  0  0  0
  5  6  1  0  0  0  0
  9 10  2  0  0  0  0
  2  5  1  0  0  0  0
  2  3  2  0  0  0  0
  1  2  1  0  0  0  0
  2  4  2  0  0  0  0
  1 25  1  0  0  0  0
  1 26  1  0  0  0  0
  1 27  1  0  0  0  0
  5 28  1  0  0  0  0
  6 29  1  0  0  0  0
  7 30  1  0  0  0  0
  8 31  1  0  0  0  0
  9 32  1  0  0  0  0
  9 33  1  0  0  0  0
 10 34  1  0  0  0  0
 11 35  1  0  0  0  0
 11 36  1  0  0  0  0
 12 37  1  0  0  0  0
 13 38  1  0  0  0  0
 14 39  1  0  0  0  0
 14 40  1  0  0  0  0
 17 41  1  0  0  0  0
 19 42  1  0  0  0  0
 21 43  1  0  0  0  0
 22 44  1  0  0  0  0
 24 45  1  0  0  0  0
 24 46  1  0  0  0  0
 24 47  1  0  0  0  0
M  END
> <Chemgauss4>
-12.685535

$$$$
