stable:False satoms:7 tatoms:24 sratio:0.2916666666666667
  -OEChem-08062415023D

 40 42  0     1  0  0  0  0  0999 V2000
    6.4521   -5.1528   26.1376 C   0  0  0  0  0  0  0  0  0  0  0  0
    8.1713   -4.5215   25.9473 S   0  0  0  0  0  0  0  0  0  0  0  0
    9.0309   -5.6767   25.9277 O   0  0  0  0  0  0  0  0  0  0  0  0
    8.4105   -3.6362   27.0520 O   0  0  0  0  0  0  0  0  0  0  0  0
    8.1665   -3.7198   24.5033 N   0  0  0  0  0  0  0  0  0  0  0  0
    8.9456   -3.0408   24.0790 C   0  0  0  0  0  0  0  0  0  0  0  0
    9.4933   -2.0096   23.4645 C   0  0  0  0  0  0  0  0  0  0  0  0
   10.4440   -1.1966   23.3629 C   0  0  1  0  0  0  0  0  0  0  0  0
   11.0259   -0.1289   24.4797 C   0  0  0  0  0  0  0  0  0  0  0  0
   12.0500    0.2187   24.4645 C   0  0  0  0  0  0  0  0  0  0  0  0
   13.1371   -0.1864   23.8029 C   0  0  0  0  0  0  0  0  0  0  0  0
   12.8286   -1.2685   22.8872 C   0  0  0  0  0  0  0  0  0  0  0  0
   11.9134   -1.7276   22.7035 C   0  0  0  0  0  0  0  0  0  0  0  0
    9.7122   -0.7341   22.5029 C   0  0  3  0  0  0  0  0  0  0  0  0
    9.1651    0.0197   21.4701 C   0  0  0  0  0  0  0  0  0  0  0  0
    9.7117    0.9728   21.1108 O   0  0  0  0  0  0  0  0  0  0  0  0
    8.0514   -0.5627   21.0955 N   0  0  0  0  0  0  0  0  0  0  0  0
    7.4132   -0.0648   20.1467 C   0  0  0  0  0  0  0  0  0  0  0  0
    7.4861    0.1186   18.8587 C   0  0  0  0  0  0  0  0  0  0  0  0
    7.1480    0.4670   17.6908 N   0  0  0  0  0  0  0  0  0  0  0  0
    6.0398    0.9539   18.1490 C   0  0  0  0  0  0  0  0  0  0  0  0
    5.5388    0.9813   19.2794 C   0  0  0  0  0  0  0  0  0  0  0  0
    5.9842    0.5355   20.4393 C   0  0  0  0  0  0  0  0  0  0  0  0
    5.3321    0.5362   21.8668 Cl  0  0  0  0  0  0  0  0  0  0  0  0
    6.3667   -5.7057   27.0847 H   0  0  0  0  0  0  0  0  0  0  0  0
    5.7493   -4.3066   26.1424 H   0  0  0  0  0  0  0  0  0  0  0  0
    6.2130   -5.8233   25.2989 H   0  0  0  0  0  0  0  0  0  0  0  0
    7.3366   -3.1625   24.5295 H   0  0  0  0  0  0  0  0  0  0  0  0
    9.8360   -3.5888   24.3500 H   0  0  0  0  0  0  0  0  0  0  0  0
   10.3623    0.2343   25.2505 H   0  0  0  0  0  0  0  0  0  0  0  0
   12.2294    1.0623   25.1145 H   0  0  0  0  0  0  0  0  0  0  0  0
   14.1216    0.2379   23.9331 H   0  0  0  0  0  0  0  0  0  0  0  0
   13.6636   -1.6497   22.3181 H   0  0  0  0  0  0  0  0  0  0  0  0
   11.7787   -1.7010   21.6121 H   0  0  0  0  0  0  0  0  0  0  0  0
   12.0300   -2.7705   23.0333 H   0  0  0  0  0  0  0  0  0  0  0  0
    9.2329   -0.0807   23.2467 H   0  0  0  0  0  0  0  0  0  0  0  0
    7.7221   -1.3854   21.5590 H   0  0  0  0  0  0  0  0  0  0  0  0
    8.4663   -0.2898   18.6614 H   0  0  0  0  0  0  0  0  0  0  0  0
    5.4319    1.4311   17.3945 H   0  0  0  0  0  0  0  0  0  0  0  0
    4.5678    1.4519   19.3256 H   0  0  0  0  0  0  0  0  0  0  0  0
 20 21  2  0  0  0  0
 19 20  1  0  0  0  0
 21 22  1  0  0  0  0
 18 19  2  0  0  0  0
 22 23  2  0  0  0  0
 18 23  1  0  0  0  0
 17 18  1  0  0  0  0
 23 24  1  0  0  0  0
 15 16  2  0  0  0  0
 15 17  1  0  0  0  0
 14 15  1  0  0  0  0
  8 14  1  0  0  0  0
  7 14  1  0  0  0  0
 12 13  1  0  0  0  0
  8 13  1  0  0  0  0
 11 12  2  0  0  0  0
  7  8  1  0  0  0  0
  8  9  1  0  0  0  0
  6  7  2  0  0  0  0
 10 11  1  0  0  0  0
  5  6  1  0  0  0  0
  9 10  2  0  0  0  0
  2  5  1  0  0  0  0
  2  3  2  0  0  0  0
  1  2  1  0  0  0  0
  2  4  2  0  0  0  0
  1 25  1  0  0  0  0
  1 26  1  0  0  0  0
  1 27  1  0  0  0  0
  5 28  1  0  0  0  0
  6 29  1  0  0  0  0
  9 30  1  0  0  0  0
 10 31  1  0  0  0  0
 11 32  1  0  0  0  0
 12 33  1  0  0  0  0
 13 34  1  0  0  0  0
 13 35  1  0  0  0  0
 14 36  1  0  0  0  0
 17 37  1  0  0  0  0
 19 38  1  0  0  0  0
 21 39  1  0  0  0  0
 22 40  1  0  0  0  0
M  END
> <Chemgauss4>
-13.291175

$$$$
