
 OpenBabel07202414183D

 34 36  0  0  0  0  0  0  0  0999 V2000
    1.0968   -0.0703   -0.0683 C   0  0  0  0  0  0  0  0  0  0  0  0
    2.5453    0.0029   -0.0620 N   0  0  0  0  0  0  0  0  0  0  0  0
    3.1431    1.2458   -0.0406 C   0  0  0  0  0  0  0  0  0  0  0  0
    2.5629    2.3231   -0.0299 O   0  0  0  0  0  0  0  0  0  0  0  0
    4.6413    1.2025   -0.0406 C   0  0  0  0  0  0  0  0  0  0  0  0
    5.3318    2.2992   -0.0084 N   0  0  0  0  0  0  0  0  0  0  0  0
    6.7033    2.2169   -0.0586 C   0  0  0  0  0  0  0  0  0  0  0  0
    7.3807    1.1068   -0.1175 N   0  0  0  0  0  0  0  0  0  0  0  0
    6.6859   -0.0689   -0.1098 N   0  0  0  0  0  0  0  0  0  0  0  0
    5.3118   -0.1248   -0.0850 C   0  0  0  0  0  0  0  0  0  0  0  0
    4.6081   -1.2080   -0.0912 N   0  0  0  0  0  0  0  0  0  0  0  0
    3.2425   -1.2000   -0.0724 C   0  0  0  0  0  0  0  0  0  0  0  0
    2.6304   -2.2704   -0.0682 O   0  0  0  0  0  0  0  0  0  0  0  0
    7.4847   -1.2840   -0.0857 C   0  0  0  0  0  0  0  0  0  0  0  0
    7.4223    3.5222   -0.0563 C   0  0  0  0  0  0  0  0  0  0  0  0
    6.7066    4.7235    0.0103 C   0  0  0  0  0  0  0  0  0  0  0  0
    7.3857    5.9443   -0.0065 C   0  0  0  0  0  0  0  0  0  0  0  0
    8.7866    5.9818   -0.1044 C   0  0  0  0  0  0  0  0  0  0  0  0
    9.4951    4.7711   -0.1641 C   0  0  0  0  0  0  0  0  0  0  0  0
    8.8194    3.5488   -0.1339 C   0  0  0  0  0  0  0  0  0  0  0  0
    9.5297    7.2957   -0.1402 C   0  0  0  0  0  0  0  0  0  0  0  0
    8.7064    8.3803   -0.0819 F   0  0  0  0  0  0  0  0  0  0  0  0
   10.4000    7.4329    0.8998 F   0  0  0  0  0  0  0  0  0  0  0  0
   10.2753    7.4572   -1.2694 F   0  0  0  0  0  0  0  0  0  0  0  0
    0.6294    0.9176   -0.0701 H   0  0  0  0  0  0  0  0  0  0  0  0
    0.7628   -0.6207    0.8175 H   0  0  0  0  0  0  0  0  0  0  0  0
    0.7708   -0.6187   -0.9586 H   0  0  0  0  0  0  0  0  0  0  0  0
    8.5580   -1.0646   -0.0758 H   0  0  0  0  0  0  0  0  0  0  0  0
    7.2727   -1.8952   -0.9688 H   0  0  0  0  0  0  0  0  0  0  0  0
    7.2559   -1.8716    0.8099 H   0  0  0  0  0  0  0  0  0  0  0  0
    5.6207    4.7121    0.0752 H   0  0  0  0  0  0  0  0  0  0  0  0
    6.8118    6.8683    0.0540 H   0  0  0  0  0  0  0  0  0  0  0  0
   10.5811    4.7783   -0.2425 H   0  0  0  0  0  0  0  0  0  0  0  0
    9.3846    2.6206   -0.1820 H   0  0  0  0  0  0  0  0  0  0  0  0
  1  2  1  0  0  0  0
  1 25  1  0  0  0  0
  1 26  1  0  0  0  0
  1 27  1  0  0  0  0
  2  3  1  0  0  0  0
  2 12  1  0  0  0  0
  3  4  2  0  0  0  0
  3  5  1  0  0  0  0
  5  6  2  0  0  0  0
  5 10  1  0  0  0  0
  6  7  1  0  0  0  0
  7  8  2  0  0  0  0
  7 15  1  0  0  0  0
  8  9  1  0  0  0  0
  9 10  1  0  0  0  0
  9 14  1  0  0  0  0
 10 11  2  0  0  0  0
 11 12  1  0  0  0  0
 12 13  2  0  0  0  0
 14 28  1  0  0  0  0
 14 29  1  0  0  0  0
 14 30  1  0  0  0  0
 15 16  1  0  0  0  0
 15 20  2  0  0  0  0
 16 17  2  0  0  0  0
 16 31  1  0  0  0  0
 17 18  1  0  0  0  0
 17 32  1  0  0  0  0
 18 19  2  0  0  0  0
 18 21  1  0  0  0  0
 19 20  1  0  0  0  0
 19 33  1  0  0  0  0
 20 34  1  0  0  0  0
 21 22  1  0  0  0  0
 21 23  1  0  0  0  0
 21 24  1  0  0  0  0
M  END
$$$$
