
 OpenBabel07202414183D

 34 36  0  0  0  0  0  0  0  0999 V2000
    1.0200    5.3112    5.2186 F   0  0  0  0  0  0  0  0  0  0  0  0
    1.3744    4.6267    4.1263 C   0  0  0  0  0  0  0  0  0  0  0  0
    2.4390    5.0732    3.3543 C   0  0  0  0  0  0  0  0  0  0  0  0
    2.7729    4.3761    2.1987 C   0  0  0  0  0  0  0  0  0  0  0  0
    3.7686    4.8450    1.4325 F   0  0  0  0  0  0  0  0  0  0  0  0
    2.0797    3.2254    1.7982 C   0  0  0  0  0  0  0  0  0  0  0  0
    2.3991    2.5392    0.4905 C   0  0  0  0  0  0  0  0  0  0  0  0
    3.7325    1.8130    0.4393 C   0  0  0  0  0  0  0  0  0  0  0  0
    3.8093    0.6024    0.6307 O   0  0  0  0  0  0  0  0  0  0  0  0
    4.8091    2.6392    0.1689 N   0  0  0  0  0  0  0  0  0  0  0  0
    6.1374    2.1616    0.0577 C   0  0  0  0  0  0  0  0  0  0  0  0
    6.4344    1.0270   -0.6993 C   0  0  0  0  0  0  0  0  0  0  0  0
    7.6836    0.5477   -0.8988 N   0  0  0  0  0  0  0  0  0  0  0  0
    8.6843    1.2110   -0.2802 C   0  0  0  0  0  0  0  0  0  0  0  0
    8.5125    2.3384    0.5268 C   0  0  0  0  0  0  0  0  0  0  0  0
    9.5964    2.9450    1.1860 C   0  0  0  0  0  0  0  0  0  0  0  0
    9.3974    4.0412    2.0237 C   0  0  0  0  0  0  0  0  0  0  0  0
    8.1191    4.5510    2.2005 C   0  0  0  0  0  0  0  0  0  0  0  0
    7.0392    3.9656    1.5398 C   0  0  0  0  0  0  0  0  0  0  0  0
    7.2020    2.8448    0.6909 C   0  0  0  0  0  0  0  0  0  0  0  0
    1.0201    2.7796    2.6037 C   0  0  0  0  0  0  0  0  0  0  0  0
    0.6718    3.4865    3.7547 C   0  0  0  0  0  0  0  0  0  0  0  0
   -0.3706    3.0700    4.4892 F   0  0  0  0  0  0  0  0  0  0  0  0
    2.9829    5.9684    3.6404 H   0  0  0  0  0  0  0  0  0  0  0  0
    2.3553    3.2727   -0.3238 H   0  0  0  0  0  0  0  0  0  0  0  0
    1.6247    1.7963    0.2597 H   0  0  0  0  0  0  0  0  0  0  0  0
    4.6895    3.6164    0.4087 H   0  0  0  0  0  0  0  0  0  0  0  0
    5.6565    0.4756   -1.2210 H   0  0  0  0  0  0  0  0  0  0  0  0
    9.6712    0.7854   -0.4467 H   0  0  0  0  0  0  0  0  0  0  0  0
   10.6037    2.5498    1.0701 H   0  0  0  0  0  0  0  0  0  0  0  0
   10.2366    4.4871    2.5503 H   0  0  0  0  0  0  0  0  0  0  0  0
    7.9523    5.3956    2.8631 H   0  0  0  0  0  0  0  0  0  0  0  0
    6.0575    4.3828    1.7368 H   0  0  0  0  0  0  0  0  0  0  0  0
    0.4402    1.8984    2.3355 H   0  0  0  0  0  0  0  0  0  0  0  0
  1  2  1  0  0  0  0
  2  3  1  0  0  0  0
  2 22  2  0  0  0  0
  3  4  2  0  0  0  0
  3 24  1  0  0  0  0
  4  5  1  0  0  0  0
  4  6  1  0  0  0  0
  6  7  1  0  0  0  0
  6 21  2  0  0  0  0
  7  8  1  0  0  0  0
  7 25  1  0  0  0  0
  7 26  1  0  0  0  0
  8  9  2  0  0  0  0
  8 10  1  0  0  0  0
 10 11  1  0  0  0  0
 10 27  1  0  0  0  0
 11 12  1  0  0  0  0
 11 20  2  0  0  0  0
 12 13  2  0  0  0  0
 12 28  1  0  0  0  0
 13 14  1  0  0  0  0
 14 15  2  0  0  0  0
 14 29  1  0  0  0  0
 15 16  1  0  0  0  0
 15 20  1  0  0  0  0
 16 17  2  0  0  0  0
 16 30  1  0  0  0  0
 17 18  1  0  0  0  0
 17 31  1  0  0  0  0
 18 19  2  0  0  0  0
 18 32  1  0  0  0  0
 19 20  1  0  0  0  0
 19 33  1  0  0  0  0
 21 22  1  0  0  0  0
 21 34  1  0  0  0  0
 22 23  1  0  0  0  0
M  END
$$$$
