
 OpenBabel07202414173D

 64 69  0  0  1  0  0  0  0  0999 V2000
    0.8637    0.3714   -0.0098 Cl  0  0  0  0  0  0  0  0  0  0  0  0
    2.5795    0.2502   -0.0011 C   0  0  0  0  0  0  0  0  0  0  0  0
    3.3612    1.3942    0.0222 C   0  0  0  0  0  0  0  0  0  0  0  0
    4.7513    1.2735    0.0259 C   0  0  0  0  0  0  0  0  0  0  0  0
    5.3741    0.0095    0.0222 C   0  0  0  0  0  0  0  0  0  0  0  0
    4.5823   -1.1537   -0.0042 C   0  0  0  0  0  0  0  0  0  0  0  0
    3.1787   -1.0064   -0.0153 C   0  0  0  0  0  0  0  0  0  0  0  0
    5.2335   -2.5464    0.0674 C   0  0  3  0  0  0  0  0  0  0  0  0
    6.7708   -2.4624   -0.1391 C   0  0  0  0  0  0  0  0  0  0  0  0
    7.4946   -1.3035    0.4040 N   0  0  0  0  0  0  0  0  0  0  0  0
    7.6497   -1.4070    1.8584 C   0  0  0  0  0  0  0  0  0  0  0  0
    8.5972   -0.3805    2.4865 C   0  0  0  0  0  0  0  0  0  0  0  0
    9.2296    0.4813    1.8880 O   0  0  0  0  0  0  0  0  0  0  0  0
    8.6519   -0.5357    3.8677 N   0  0  0  0  0  0  0  0  0  0  0  0
    9.2827    0.4598    4.6941 C   0  0  0  0  0  0  0  0  0  0  0  0
    9.8103   -0.2566    5.9197 C   0  0  0  0  0  0  0  0  0  0  0  0
   10.5886    0.6859    6.8733 C   0  0  0  0  0  0  0  0  0  0  0  0
   11.6417   -0.6546    7.3277 S   0  0  0  0  0  0  0  0  0  0  0  0
   13.0436   -0.2752    7.3010 O   0  0  0  0  0  0  0  0  0  0  0  0
   11.0620   -1.4580    8.3820 O   0  0  0  0  0  0  0  0  0  0  0  0
   11.0646   -1.1556    5.7298 C   0  0  0  0  0  0  0  0  0  0  0  0
    6.8855   -0.0488   -0.0522 C   0  0  0  0  0  0  0  0  0  0  0  0
    4.6765   -3.5175   -1.0046 C   0  0  0  0  0  0  0  0  0  0  0  0
    3.7903   -4.5050   -0.2716 C   0  0  0  0  0  0  0  0  0  0  0  0
    3.6006   -3.9661    1.0451 N   0  0  0  0  0  0  0  0  0  0  0  0
    2.6406   -4.5210    1.9477 C   0  0  0  0  0  0  0  0  0  0  0  0
    2.9731   -4.7769    3.2793 C   0  0  0  0  0  0  0  0  0  0  0  0
    2.2016   -5.4723    4.1479 N   0  0  0  0  0  0  0  0  0  0  0  0
    0.9929   -5.8618    3.6986 C   0  0  0  0  0  0  0  0  0  0  0  0
    0.4652   -5.5205    2.4572 C   0  0  0  0  0  0  0  0  0  0  0  0
   -0.8754   -5.8237    2.1487 C   0  0  0  0  0  0  0  0  0  0  0  0
   -1.4401   -5.4273    0.9407 C   0  0  0  0  0  0  0  0  0  0  0  0
   -0.6658   -4.7312    0.0274 C   0  0  0  0  0  0  0  0  0  0  0  0
    0.6654   -4.4228    0.3352 C   0  0  0  0  0  0  0  0  0  0  0  0
    1.2958   -4.8267    1.5464 C   0  0  0  0  0  0  0  0  0  0  0  0
    4.7526   -3.2224    1.3819 C   0  0  0  0  0  0  0  0  0  0  0  0
    5.1969   -3.0140    2.5001 O   0  0  0  0  0  0  0  0  0  0  0  0
    2.8998    2.3775    0.0327 H   0  0  0  0  0  0  0  0  0  0  0  0
    5.3558    2.1800    0.0303 H   0  0  0  0  0  0  0  0  0  0  0  0
    2.5286   -1.8745   -0.0141 H   0  0  0  0  0  0  0  0  0  0  0  0
    6.9647   -2.4288   -1.2225 H   0  0  0  0  0  0  0  0  0  0  0  0
    7.2502   -3.3915    0.1965 H   0  0  0  0  0  0  0  0  0  0  0  0
    8.0836   -2.3876    2.0970 H   0  0  0  0  0  0  0  0  0  0  0  0
    6.6923   -1.2973    2.3680 H   0  0  0  0  0  0  0  0  0  0  0  0
    7.9452   -1.1339    4.2850 H   0  0  0  0  0  0  0  0  0  0  0  0
    8.5136    1.1901    4.9656 H   0  0  0  0  0  0  0  0  0  0  0  0
   10.0756    0.9761    4.1440 H   0  0  0  0  0  0  0  0  0  0  0  0
    9.0050   -0.7879    6.4507 H   0  0  0  0  0  0  0  0  0  0  0  0
    9.9990    1.0952    7.6977 H   0  0  0  0  0  0  0  0  0  0  0  0
   11.1394    1.4946    6.3823 H   0  0  0  0  0  0  0  0  0  0  0  0
   10.8643   -2.2296    5.6506 H   0  0  0  0  0  0  0  0  0  0  0  0
   11.7487   -0.8539    4.9287 H   0  0  0  0  0  0  0  0  0  0  0  0
    7.1557    0.0943   -1.1072 H   0  0  0  0  0  0  0  0  0  0  0  0
    7.3060    0.8144    0.4736 H   0  0  0  0  0  0  0  0  0  0  0  0
    5.4679   -4.0830   -1.5120 H   0  0  0  0  0  0  0  0  0  0  0  0
    4.1228   -2.9927   -1.7902 H   0  0  0  0  0  0  0  0  0  0  0  0
    4.3201   -5.4592   -0.1515 H   0  0  0  0  0  0  0  0  0  0  0  0
    2.8852   -4.7111   -0.8380 H   0  0  0  0  0  0  0  0  0  0  0  0
    3.9164   -4.4653    3.7145 H   0  0  0  0  0  0  0  0  0  0  0  0
    0.4228   -6.4587    4.4084 H   0  0  0  0  0  0  0  0  0  0  0  0
   -1.5081   -6.3350    2.8734 H   0  0  0  0  0  0  0  0  0  0  0  0
   -2.4870   -5.6303    0.7281 H   0  0  0  0  0  0  0  0  0  0  0  0
   -1.0985   -4.3974   -0.9131 H   0  0  0  0  0  0  0  0  0  0  0  0
    1.1835   -3.7976   -0.3842 H   0  0  0  0  0  0  0  0  0  0  0  0
  1  2  1  0  0  0  0
  2  3  1  0  0  0  0
  2  7  2  0  0  0  0
  3  4  2  0  0  0  0
  3 38  1  0  0  0  0
  4  5  1  0  0  0  0
  4 39  1  0  0  0  0
  5  6  2  0  0  0  0
  5 22  1  0  0  0  0
  6  7  1  0  0  0  0
  6  8  1  0  0  0  0
  7 40  1  0  0  0  0
  8  9  1  0  0  0  0
  8 23  1  0  0  0  0
  8 36  1  0  0  0  0
  9 10  1  0  0  0  0
  9 41  1  0  0  0  0
  9 42  1  0  0  0  0
 10 11  1  0  0  0  0
 10 22  1  0  0  0  0
 11 12  1  0  0  0  0
 11 43  1  0  0  0  0
 11 44  1  0  0  0  0
 12 13  2  0  0  0  0
 12 14  1  0  0  0  0
 14 15  1  0  0  0  0
 14 45  1  0  0  0  0
 15 16  1  0  0  0  0
 15 46  1  0  0  0  0
 15 47  1  0  0  0  0
 16 17  1  0  0  0  0
 16 21  1  0  0  0  0
 16 48  1  0  0  0  0
 17 18  1  0  0  0  0
 17 49  1  0  0  0  0
 17 50  1  0  0  0  0
 18 19  2  0  0  0  0
 18 20  2  0  0  0  0
 18 21  1  0  0  0  0
 21 51  1  0  0  0  0
 21 52  1  0  0  0  0
 22 53  1  0  0  0  0
 22 54  1  0  0  0  0
 23 24  1  0  0  0  0
 23 55  1  0  0  0  0
 23 56  1  0  0  0  0
 24 25  1  0  0  0  0
 24 57  1  0  0  0  0
 24 58  1  0  0  0  0
 25 26  1  0  0  0  0
 25 36  1  0  0  0  0
 26 27  1  0  0  0  0
 26 35  2  0  0  0  0
 27 28  2  0  0  0  0
 27 59  1  0  0  0  0
 28 29  1  0  0  0  0
 29 30  2  0  0  0  0
 29 60  1  0  0  0  0
 30 31  1  0  0  0  0
 30 35  1  0  0  0  0
 31 32  2  0  0  0  0
 31 61  1  0  0  0  0
 32 33  1  0  0  0  0
 32 62  1  0  0  0  0
 33 34  2  0  0  0  0
 33 63  1  0  0  0  0
 34 35  1  0  0  0  0
 34 64  1  0  0  0  0
 36 37  2  0  0  0  0
M  END
$$$$
