
 OpenBabel07202414193D

 44 47  0  0  1  0  0  0  0  0999 V2000
    2.5595   -0.5403    0.9182 O   0  0  0  0  0  0  0  0  0  0  0  0
    2.1645    0.0139   -0.1015 C   0  0  0  0  0  0  0  0  0  0  0  0
    0.9281    0.9080   -0.1083 C   0  0  0  0  0  0  0  0  0  0  0  0
   -0.2042    0.3840    0.7379 C   0  0  0  0  0  0  0  0  0  0  0  0
   -0.3117    0.8312    2.0530 C   0  0  0  0  0  0  0  0  0  0  0  0
   -1.2834    0.4594    2.9090 N   0  0  0  0  0  0  0  0  0  0  0  0
   -2.1779   -0.4388    2.4430 C   0  0  0  0  0  0  0  0  0  0  0  0
   -2.1706   -0.9769    1.1521 C   0  0  0  0  0  0  0  0  0  0  0  0
   -3.1404   -1.9100    0.7401 C   0  0  0  0  0  0  0  0  0  0  0  0
   -3.1246   -2.4251   -0.5512 C   0  0  0  0  0  0  0  0  0  0  0  0
   -2.1434   -2.0144   -1.4469 C   0  0  0  0  0  0  0  0  0  0  0  0
   -1.1727   -1.0954   -1.0427 C   0  0  0  0  0  0  0  0  0  0  0  0
   -1.1584   -0.5540    0.2646 C   0  0  0  0  0  0  0  0  0  0  0  0
    2.8329   -0.0949   -1.3093 N   0  0  0  0  0  0  0  0  0  0  0  0
    2.6338    0.7556   -2.4741 C   0  0  0  0  0  0  0  0  0  0  0  0
    3.9921    0.8062   -3.1443 C   0  0  1  0  0  0  0  0  0  0  0  0
    4.7378    1.7776   -2.5501 F   0  0  0  0  0  0  0  0  0  0  0  0
    4.6105   -0.5451   -2.8419 C   0  0  0  0  0  0  0  0  0  0  0  0
    4.0254   -0.9315   -1.4682 C   0  0  2  0  0  0  0  0  0  0  0  0
    3.6874   -2.4120   -1.4161 C   0  0  0  0  0  0  0  0  0  0  0  0
    4.3662   -3.2707   -0.5397 C   0  0  0  0  0  0  0  0  0  0  0  0
    4.0304   -4.6261   -0.4722 C   0  0  0  0  0  0  0  0  0  0  0  0
    3.0184   -5.1400   -1.2816 C   0  0  0  0  0  0  0  0  0  0  0  0
    2.3444   -4.3033   -2.1655 C   0  0  0  0  0  0  0  0  0  0  0  0
    2.6764   -2.9508   -2.2319 C   0  0  0  0  0  0  0  0  0  0  0  0
    0.5423    1.0666   -1.1190 H   0  0  0  0  0  0  0  0  0  0  0  0
    1.2414    1.8996    0.2432 H   0  0  0  0  0  0  0  0  0  0  0  0
    0.4046    1.5360    2.4686 H   0  0  0  0  0  0  0  0  0  0  0  0
   -2.9344   -0.7276    3.1653 H   0  0  0  0  0  0  0  0  0  0  0  0
   -3.9127   -2.2394    1.4307 H   0  0  0  0  0  0  0  0  0  0  0  0
   -3.8776   -3.1472   -0.8604 H   0  0  0  0  0  0  0  0  0  0  0  0
   -2.1301   -2.4139   -2.4586 H   0  0  0  0  0  0  0  0  0  0  0  0
   -0.4192   -0.8120   -1.7734 H   0  0  0  0  0  0  0  0  0  0  0  0
    2.2889    1.7509   -2.1860 H   0  0  0  0  0  0  0  0  0  0  0  0
    1.8873    0.2617   -3.1042 H   0  0  0  0  0  0  0  0  0  0  0  0
    3.9279    1.0346   -4.2109 H   0  0  0  0  0  0  0  0  0  0  0  0
    5.7035   -0.4976   -2.8095 H   0  0  0  0  0  0  0  0  0  0  0  0
    4.3280   -1.2555   -3.6272 H   0  0  0  0  0  0  0  0  0  0  0  0
    4.7284   -0.6635   -0.6676 H   0  0  0  0  0  0  0  0  0  0  0  0
    5.1447   -2.8883    0.1174 H   0  0  0  0  0  0  0  0  0  0  0  0
    4.5479   -5.2794    0.2259 H   0  0  0  0  0  0  0  0  0  0  0  0
    2.7473   -6.1901   -1.2147 H   0  0  0  0  0  0  0  0  0  0  0  0
    1.5511   -4.6983   -2.7936 H   0  0  0  0  0  0  0  0  0  0  0  0
    2.1275   -2.3122   -2.9180 H   0  0  0  0  0  0  0  0  0  0  0  0
  1  2  2  0  0  0  0
  2  3  1  0  0  0  0
  2 14  1  0  0  0  0
  3  4  1  0  0  0  0
  3 26  1  0  0  0  0
  3 27  1  0  0  0  0
  4  5  1  0  0  0  0
  4 13  2  0  0  0  0
  5  6  2  0  0  0  0
  5 28  1  0  0  0  0
  6  7  1  0  0  0  0
  7  8  2  0  0  0  0
  7 29  1  0  0  0  0
  8  9  1  0  0  0  0
  8 13  1  0  0  0  0
  9 10  2  0  0  0  0
  9 30  1  0  0  0  0
 10 11  1  0  0  0  0
 10 31  1  0  0  0  0
 11 12  2  0  0  0  0
 11 32  1  0  0  0  0
 12 13  1  0  0  0  0
 12 33  1  0  0  0  0
 14 15  1  0  0  0  0
 14 19  1  0  0  0  0
 15 16  1  0  0  0  0
 15 34  1  0  0  0  0
 15 35  1  0  0  0  0
 16 17  1  0  0  0  0
 16 18  1  0  0  0  0
 16 36  1  6  0  0  0
 18 19  1  0  0  0  0
 18 37  1  0  0  0  0
 18 38  1  0  0  0  0
 19 20  1  0  0  0  0
 19 39  1  1  0  0  0
 20 21  1  0  0  0  0
 20 25  2  0  0  0  0
 21 22  2  0  0  0  0
 21 40  1  0  0  0  0
 22 23  1  0  0  0  0
 22 41  1  0  0  0  0
 23 24  2  0  0  0  0
 23 42  1  0  0  0  0
 24 25  1  0  0  0  0
 24 43  1  0  0  0  0
 25 44  1  0  0  0  0
M  END
$$$$
