
 OpenBabel07202414123D

 55 56  0  0  1  0  0  0  0  0999 V2000
    2.2528   -0.2008   -1.3235 C   0  0  0  0  0  0  0  0  0  0  0  0
    2.5693   -0.0229    0.1764 C   0  0  0  0  0  0  0  0  0  0  0  0
    3.3748    1.2787    0.3733 C   0  0  0  0  0  0  0  0  0  0  0  0
    1.2309    0.1353    0.9217 C   0  0  0  0  0  0  0  0  0  0  0  0
    3.2874   -1.2048    0.7060 N   0  0  0  0  0  0  0  0  0  0  0  0
    4.5253   -1.5950    0.2028 C   0  0  0  0  0  0  0  0  0  0  0  0
    5.0884   -0.8992   -0.6342 O   0  0  0  0  0  0  0  0  0  0  0  0
    5.0782   -3.0081    0.6282 C   0  0  3  0  0  0  0  0  0  0  0  0
    4.5884   -4.0864   -0.3437 C   0  0  0  0  0  0  0  0  0  0  0  0
    4.3958   -5.4152    0.0575 C   0  0  0  0  0  0  0  0  0  0  0  0
    4.0064   -6.3773   -0.8773 C   0  0  0  0  0  0  0  0  0  0  0  0
    3.8111   -5.9837   -2.1893 C   0  0  0  0  0  0  0  0  0  0  0  0
    3.9668   -4.7158   -2.6156 N   0  0  0  0  0  0  0  0  0  0  0  0
    4.3509   -3.8050   -1.6910 C   0  0  0  0  0  0  0  0  0  0  0  0
    6.5703   -3.0665    0.7921 N   0  0  0  0  0  0  0  0  0  0  0  0
    7.3620   -2.2727   -0.0775 C   0  0  0  0  0  0  0  0  0  0  0  0
    7.6488   -2.7060   -1.3718 C   0  0  0  0  0  0  0  0  0  0  0  0
    8.4883   -1.9403   -2.1842 C   0  0  0  0  0  0  0  0  0  0  0  0
    9.0323   -0.7354   -1.7128 C   0  0  0  0  0  0  0  0  0  0  0  0
    8.7009   -0.2875   -0.4286 C   0  0  0  0  0  0  0  0  0  0  0  0
    7.8877   -1.0611    0.3929 C   0  0  0  0  0  0  0  0  0  0  0  0
    9.9641    0.0818   -2.5705 C   0  0  0  0  0  0  0  0  0  0  0  0
    9.2137    1.0936   -3.4245 C   0  0  0  0  0  0  0  0  0  0  0  0
   10.1910    1.9142   -4.2502 C   0  0  0  0  0  0  0  0  0  0  0  0
   11.0018    2.5950   -4.9352 N   0  0  0  0  0  0  0  0  0  0  0  0
    7.1228   -3.5899    1.9654 C   0  0  0  0  0  0  0  0  0  0  0  0
    6.4423   -4.0156    2.8968 O   0  0  0  0  0  0  0  0  0  0  0  0
    8.6262   -3.6716    2.0261 C   0  0  0  0  0  0  0  0  0  0  0  0
    9.2884   -4.0759    3.1172 C   0  0  0  0  0  0  0  0  0  0  0  0
    1.6928    0.6573   -1.7129 H   0  0  0  0  0  0  0  0  0  0  0  0
    1.6550   -1.1021   -1.4970 H   0  0  0  0  0  0  0  0  0  0  0  0
    3.1576   -0.2895   -1.9322 H   0  0  0  0  0  0  0  0  0  0  0  0
    2.8602    2.1301   -0.0879 H   0  0  0  0  0  0  0  0  0  0  0  0
    4.3688    1.2369   -0.0798 H   0  0  0  0  0  0  0  0  0  0  0  0
    3.5141    1.5032    1.4358 H   0  0  0  0  0  0  0  0  0  0  0  0
    0.6851    1.0204    0.5700 H   0  0  0  0  0  0  0  0  0  0  0  0
    1.3851    0.2453    2.0006 H   0  0  0  0  0  0  0  0  0  0  0  0
    0.5842   -0.7358    0.7675 H   0  0  0  0  0  0  0  0  0  0  0  0
    2.8073   -1.8125    1.3567 H   0  0  0  0  0  0  0  0  0  0  0  0
    4.6228   -3.2249    1.6054 H   0  0  0  0  0  0  0  0  0  0  0  0
    4.5562   -5.7155    1.0918 H   0  0  0  0  0  0  0  0  0  0  0  0
    3.8671   -7.4149   -0.5948 H   0  0  0  0  0  0  0  0  0  0  0  0
    3.5235   -6.6958   -2.9593 H   0  0  0  0  0  0  0  0  0  0  0  0
    4.4800   -2.8063   -2.1025 H   0  0  0  0  0  0  0  0  0  0  0  0
    7.2572   -3.6487   -1.7441 H   0  0  0  0  0  0  0  0  0  0  0  0
    8.7236   -2.3014   -3.1830 H   0  0  0  0  0  0  0  0  0  0  0  0
    9.0764    0.6618   -0.0547 H   0  0  0  0  0  0  0  0  0  0  0  0
    7.6426   -0.7050    1.3903 H   0  0  0  0  0  0  0  0  0  0  0  0
   10.5615   -0.5897   -3.2001 H   0  0  0  0  0  0  0  0  0  0  0  0
   10.6867    0.5958   -1.9225 H   0  0  0  0  0  0  0  0  0  0  0  0
    8.6252    1.7754   -2.7991 H   0  0  0  0  0  0  0  0  0  0  0  0
    8.5159    0.5891   -4.1031 H   0  0  0  0  0  0  0  0  0  0  0  0
    9.2081   -3.4045    1.1486 H   0  0  0  0  0  0  0  0  0  0  0  0
    8.7676   -4.3709    4.0267 H   0  0  0  0  0  0  0  0  0  0  0  0
   10.3733   -4.1195    3.1229 H   0  0  0  0  0  0  0  0  0  0  0  0
  1  2  1  0  0  0  0
  1 30  1  0  0  0  0
  1 31  1  0  0  0  0
  1 32  1  0  0  0  0
  2  3  1  0  0  0  0
  2  4  1  0  0  0  0
  2  5  1  0  0  0  0
  3 33  1  0  0  0  0
  3 34  1  0  0  0  0
  3 35  1  0  0  0  0
  4 36  1  0  0  0  0
  4 37  1  0  0  0  0
  4 38  1  0  0  0  0
  5  6  1  0  0  0  0
  5 39  1  0  0  0  0
  6  7  2  0  0  0  0
  6  8  1  0  0  0  0
  8  9  1  0  0  0  0
  8 15  1  0  0  0  0
  8 40  1  0  0  0  0
  9 10  1  0  0  0  0
  9 14  2  0  0  0  0
 10 11  2  0  0  0  0
 10 41  1  0  0  0  0
 11 12  1  0  0  0  0
 11 42  1  0  0  0  0
 12 13  2  0  0  0  0
 12 43  1  0  0  0  0
 13 14  1  0  0  0  0
 14 44  1  0  0  0  0
 15 16  1  0  0  0  0
 15 26  1  0  0  0  0
 16 17  1  0  0  0  0
 16 21  2  0  0  0  0
 17 18  2  0  0  0  0
 17 45  1  0  0  0  0
 18 19  1  0  0  0  0
 18 46  1  0  0  0  0
 19 20  2  0  0  0  0
 19 22  1  0  0  0  0
 20 21  1  0  0  0  0
 20 47  1  0  0  0  0
 21 48  1  0  0  0  0
 22 23  1  0  0  0  0
 22 49  1  0  0  0  0
 22 50  1  0  0  0  0
 23 24  1  0  0  0  0
 23 51  1  0  0  0  0
 23 52  1  0  0  0  0
 24 25  3  0  0  0  0
 26 27  2  0  0  0  0
 26 28  1  0  0  0  0
 28 29  2  0  0  0  0
 28 53  1  0  0  0  0
 29 54  1  0  0  0  0
 29 55  1  0  0  0  0
M  END
$$$$
