
 OpenBabel07202414143D

 49 52  0  0  1  0  0  0  0  0999 V2000
    1.0612   -1.3737   -0.4415 C   0  0  0  0  0  0  0  0  0  0  0  0
    2.4238   -1.1808   -0.8686 N   0  0  0  0  0  0  0  0  0  0  0  0
    3.4765   -1.3095    0.0192 C   0  0  0  0  0  0  0  0  0  0  0  0
    3.3280   -1.5877    1.2061 O   0  0  0  0  0  0  0  0  0  0  0  0
    4.8670   -1.1743   -0.6294 C   0  0  0  0  0  0  0  0  0  0  0  0
    5.2961   -2.4912   -1.0975 N   0  0  0  0  0  0  0  0  0  0  0  0
    6.4737   -3.1297   -0.5232 C   0  0  0  0  0  0  0  0  0  0  0  0
    6.3012   -4.6406   -0.3416 C   0  0  2  0  0  0  0  0  0  0  0  0
    7.7041   -5.2580   -0.1867 C   0  0  0  0  0  0  0  0  0  0  0  0
    8.2314   -5.2856    0.9187 O   0  0  0  0  0  0  0  0  0  0  0  0
    8.3061   -5.6759   -1.3694 N   0  0  0  0  0  0  0  0  0  0  0  0
    9.6248   -6.1932   -1.5393 C   0  0  0  0  0  0  0  0  0  0  0  0
   10.5400   -6.2833   -0.4885 C   0  0  0  0  0  0  0  0  0  0  0  0
   11.8410   -6.6327   -0.6284 N   0  0  0  0  0  0  0  0  0  0  0  0
   12.2504   -6.9623   -1.8652 C   0  0  0  0  0  0  0  0  0  0  0  0
   11.4183   -7.0226   -2.9783 C   0  0  0  0  0  0  0  0  0  0  0  0
   11.9131   -7.4969   -4.2075 C   0  0  0  0  0  0  0  0  0  0  0  0
   11.0707   -7.5991   -5.3059 C   0  0  0  0  0  0  0  0  0  0  0  0
   11.6645   -8.2597   -6.7818 Cl  0  0  0  0  0  0  0  0  0  0  0  0
    9.7476   -7.1979   -5.2105 C   0  0  0  0  0  0  0  0  0  0  0  0
    9.2518   -6.7097   -3.9926 C   0  0  0  0  0  0  0  0  0  0  0  0
   10.0644   -6.6219   -2.8295 C   0  0  0  0  0  0  0  0  0  0  0  0
    5.4553   -5.2669   -1.4396 C   0  0  0  0  0  0  0  0  0  0  0  0
    5.2277   -6.6550   -1.4469 C   0  0  0  0  0  0  0  0  0  0  0  0
    4.4384   -7.2334   -2.4408 C   0  0  0  0  0  0  0  0  0  0  0  0
    4.1154   -8.9207   -2.3943 Cl  0  0  0  0  0  0  0  0  0  0  0  0
    3.8928   -6.4514   -3.4562 C   0  0  0  0  0  0  0  0  0  0  0  0
    4.0828   -5.0711   -3.4424 C   0  0  0  0  0  0  0  0  0  0  0  0
    4.8225   -4.4732   -2.4130 C   0  0  0  0  0  0  0  0  0  0  0  0
    4.7305   -2.9972   -2.2520 C   0  0  0  0  0  0  0  0  0  0  0  0
    4.0546   -2.3223   -3.0232 O   0  0  0  0  0  0  0  0  0  0  0  0
    0.3941   -1.1519   -1.2780 H   0  0  0  0  0  0  0  0  0  0  0  0
    0.8426   -0.7032    0.3946 H   0  0  0  0  0  0  0  0  0  0  0  0
    0.9215   -2.4095   -0.1194 H   0  0  0  0  0  0  0  0  0  0  0  0
    2.6454   -1.3169   -1.8559 H   0  0  0  0  0  0  0  0  0  0  0  0
    5.5618   -0.7807    0.1178 H   0  0  0  0  0  0  0  0  0  0  0  0
    4.8208   -0.4719   -1.4663 H   0  0  0  0  0  0  0  0  0  0  0  0
    6.7140   -2.6672    0.4418 H   0  0  0  0  0  0  0  0  0  0  0  0
    7.3079   -2.9072   -1.2020 H   0  0  0  0  0  0  0  0  0  0  0  0
    5.7564   -4.8173    0.5990 H   0  0  0  0  0  0  0  0  0  0  0  0
    7.7603   -5.5887   -2.2137 H   0  0  0  0  0  0  0  0  0  0  0  0
   10.2765   -6.0660    0.5400 H   0  0  0  0  0  0  0  0  0  0  0  0
   13.3111   -7.2030   -1.9355 H   0  0  0  0  0  0  0  0  0  0  0  0
   12.9484   -7.8181   -4.2951 H   0  0  0  0  0  0  0  0  0  0  0  0
    9.0864   -7.2776   -6.0694 H   0  0  0  0  0  0  0  0  0  0  0  0
    8.1997   -6.4388   -3.9707 H   0  0  0  0  0  0  0  0  0  0  0  0
    5.6333   -7.2807   -0.6538 H   0  0  0  0  0  0  0  0  0  0  0  0
    3.2759   -6.9027   -4.2290 H   0  0  0  0  0  0  0  0  0  0  0  0
    3.5933   -4.4556   -4.1965 H   0  0  0  0  0  0  0  0  0  0  0  0
  1  2  1  0  0  0  0
  1 32  1  0  0  0  0
  1 33  1  0  0  0  0
  1 34  1  0  0  0  0
  2  3  1  0  0  0  0
  2 35  1  0  0  0  0
  3  4  2  0  0  0  0
  3  5  1  0  0  0  0
  5  6  1  0  0  0  0
  5 36  1  0  0  0  0
  5 37  1  0  0  0  0
  6  7  1  0  0  0  0
  6 30  1  0  0  0  0
  7  8  1  0  0  0  0
  7 38  1  0  0  0  0
  7 39  1  0  0  0  0
  8 23  1  0  0  0  0
  8  9  1  0  0  0  0
  8 40  1  1  0  0  0
  9 10  2  0  0  0  0
  9 11  1  0  0  0  0
 11 12  1  0  0  0  0
 11 41  1  0  0  0  0
 12 13  1  0  0  0  0
 12 22  2  0  0  0  0
 13 14  2  0  0  0  0
 13 42  1  0  0  0  0
 14 15  1  0  0  0  0
 15 16  2  0  0  0  0
 15 43  1  0  0  0  0
 16 17  1  0  0  0  0
 16 22  1  0  0  0  0
 17 18  2  0  0  0  0
 17 44  1  0  0  0  0
 18 19  1  0  0  0  0
 18 20  1  0  0  0  0
 20 21  2  0  0  0  0
 20 45  1  0  0  0  0
 21 22  1  0  0  0  0
 21 46  1  0  0  0  0
 23 24  1  0  0  0  0
 23 29  2  0  0  0  0
 24 25  2  0  0  0  0
 24 47  1  0  0  0  0
 25 26  1  0  0  0  0
 25 27  1  0  0  0  0
 27 28  2  0  0  0  0
 27 48  1  0  0  0  0
 28 29  1  0  0  0  0
 28 49  1  0  0  0  0
 29 30  1  0  0  0  0
 30 31  2  0  0  0  0
M  END
$$$$
