
 OpenBabel07202414133D

 40 42  0  0  1  0  0  0  0  0999 V2000
    1.0305    0.1239    0.0834 C   0  0  0  0  0  0  0  0  0  0  0  0
    2.5478    0.1127   -0.0358 C   0  0  0  0  0  0  0  0  0  0  0  0
    3.1117   -1.1717   -0.6763 C   0  0  1  0  0  0  0  0  0  0  0  0
    2.5054   -1.4063   -2.0649 C   0  0  0  0  0  0  0  0  0  0  0  0
    1.6402   -2.2646   -2.2303 O   0  0  0  0  0  0  0  0  0  0  0  0
    2.9759   -0.5765   -3.0655 N   0  0  0  0  0  0  0  0  0  0  0  0
    2.4842   -0.6247   -4.3940 C   0  0  0  0  0  0  0  0  0  0  0  0
    1.1138   -0.6972   -4.6535 C   0  0  0  0  0  0  0  0  0  0  0  0
    0.5677   -0.6762   -5.8903 N   0  0  0  0  0  0  0  0  0  0  0  0
    1.4335   -0.6163   -6.9245 C   0  0  0  0  0  0  0  0  0  0  0  0
    2.8240   -0.5710   -6.7965 C   0  0  0  0  0  0  0  0  0  0  0  0
    3.6654   -0.5594   -7.9234 C   0  0  0  0  0  0  0  0  0  0  0  0
    5.0509   -0.5623   -7.7762 C   0  0  0  0  0  0  0  0  0  0  0  0
    5.6106   -0.5696   -6.5046 C   0  0  0  0  0  0  0  0  0  0  0  0
    4.7855   -0.5662   -5.3785 C   0  0  0  0  0  0  0  0  0  0  0  0
    3.3739   -0.5637   -5.4939 C   0  0  0  0  0  0  0  0  0  0  0  0
    4.6423   -1.2243   -0.6539 C   0  0  0  0  0  0  0  0  0  0  0  0
    5.2946   -2.4653   -0.5431 C   0  0  0  0  0  0  0  0  0  0  0  0
    6.6867   -2.5310   -0.4420 C   0  0  0  0  0  0  0  0  0  0  0  0
    7.2771   -3.7258   -0.3087 F   0  0  0  0  0  0  0  0  0  0  0  0
    7.4539   -1.3754   -0.4653 C   0  0  0  0  0  0  0  0  0  0  0  0
    8.7893   -1.4442   -0.3485 F   0  0  0  0  0  0  0  0  0  0  0  0
    6.8286   -0.1514   -0.6031 C   0  0  0  0  0  0  0  0  0  0  0  0
    7.5506    0.9772   -0.6342 F   0  0  0  0  0  0  0  0  0  0  0  0
    5.4396   -0.0651   -0.7043 C   0  0  0  0  0  0  0  0  0  0  0  0
    0.7157    0.9752    0.6963 H   0  0  0  0  0  0  0  0  0  0  0  0
    0.6559   -0.7907    0.5521 H   0  0  0  0  0  0  0  0  0  0  0  0
    0.5594    0.2332   -0.8985 H   0  0  0  0  0  0  0  0  0  0  0  0
    2.9714    0.2180    0.9717 H   0  0  0  0  0  0  0  0  0  0  0  0
    2.8423    1.0015   -0.6038 H   0  0  0  0  0  0  0  0  0  0  0  0
    2.7677   -2.0118   -0.0541 H   0  0  0  0  0  0  0  0  0  0  0  0
    3.8956   -0.1820   -2.9343 H   0  0  0  0  0  0  0  0  0  0  0  0
    0.3852   -0.7328   -3.8477 H   0  0  0  0  0  0  0  0  0  0  0  0
    0.9585   -0.6216   -7.9029 H   0  0  0  0  0  0  0  0  0  0  0  0
    3.2433   -0.5693   -8.9266 H   0  0  0  0  0  0  0  0  0  0  0  0
    5.6928   -0.5749   -8.6532 H   0  0  0  0  0  0  0  0  0  0  0  0
    6.6909   -0.5950   -6.3848 H   0  0  0  0  0  0  0  0  0  0  0  0
    5.2710   -0.6080   -4.4077 H   0  0  0  0  0  0  0  0  0  0  0  0
    4.7294   -3.3960   -0.5068 H   0  0  0  0  0  0  0  0  0  0  0  0
    5.0094    0.9276   -0.7929 H   0  0  0  0  0  0  0  0  0  0  0  0
  1  2  1  0  0  0  0
  1 26  1  0  0  0  0
  1 27  1  0  0  0  0
  1 28  1  0  0  0  0
  2  3  1  0  0  0  0
  2 29  1  0  0  0  0
  2 30  1  0  0  0  0
  3  4  1  0  0  0  0
  3 17  1  0  0  0  0
  3 31  1  1  0  0  0
  4  5  2  0  0  0  0
  4  6  1  0  0  0  0
  6  7  1  0  0  0  0
  6 32  1  0  0  0  0
  7  8  1  0  0  0  0
  7 16  2  0  0  0  0
  8  9  2  0  0  0  0
  8 33  1  0  0  0  0
  9 10  1  0  0  0  0
 10 11  2  0  0  0  0
 10 34  1  0  0  0  0
 11 12  1  0  0  0  0
 11 16  1  0  0  0  0
 12 13  2  0  0  0  0
 12 35  1  0  0  0  0
 13 14  1  0  0  0  0
 13 36  1  0  0  0  0
 14 15  2  0  0  0  0
 14 37  1  0  0  0  0
 15 16  1  0  0  0  0
 15 38  1  0  0  0  0
 17 18  1  0  0  0  0
 17 25  2  0  0  0  0
 18 19  2  0  0  0  0
 18 39  1  0  0  0  0
 19 20  1  0  0  0  0
 19 21  1  0  0  0  0
 21 22  1  0  0  0  0
 21 23  2  0  0  0  0
 23 24  1  0  0  0  0
 23 25  1  0  0  0  0
 25 40  1  0  0  0  0
M  END
$$$$
