
 OpenBabel07202414153D

 30 31  0  0  0  0  0  0  0  0999 V2000
    1.3888    0.9736    0.5929 C   0  0  0  0  0  0  0  0  0  0  0  0
    2.4591    0.2338    0.0208 O   0  0  0  0  0  0  0  0  0  0  0  0
    3.1822    0.8514   -0.9623 C   0  0  0  0  0  0  0  0  0  0  0  0
    2.8825    2.0826   -1.5510 C   0  0  0  0  0  0  0  0  0  0  0  0
    3.6923    2.5703   -2.5791 C   0  0  0  0  0  0  0  0  0  0  0  0
    4.8015    1.8405   -3.0189 C   0  0  0  0  0  0  0  0  0  0  0  0
    5.1025    0.6250   -2.4163 C   0  0  0  0  0  0  0  0  0  0  0  0
    4.2934    0.1246   -1.4014 C   0  0  0  0  0  0  0  0  0  0  0  0
    6.4629   -0.2798   -2.9573 Cl  0  0  0  0  0  0  0  0  0  0  0  0
    3.2356    3.7379   -3.2315 O   0  0  0  0  0  0  0  0  0  0  0  0
    4.1797    4.4737   -3.9297 C   0  0  0  0  0  0  0  0  0  0  0  0
    5.3546    4.5823   -3.5901 O   0  0  0  0  0  0  0  0  0  0  0  0
    3.6158    5.0045   -5.0589 N   0  0  0  0  0  0  0  0  0  0  0  0
    4.3347    5.3626   -6.2157 C   0  0  0  0  0  0  0  0  0  0  0  0
    5.6382    4.9178   -6.4572 C   0  0  0  0  0  0  0  0  0  0  0  0
    6.2949    5.2850   -7.6271 C   0  0  0  0  0  0  0  0  0  0  0  0
    5.6254    6.0918   -8.5270 C   0  0  0  0  0  0  0  0  0  0  0  0
    4.3536    6.5158   -8.3522 N   0  0  0  0  0  0  0  0  0  0  0  0
    3.7379    6.1340   -7.2072 C   0  0  0  0  0  0  0  0  0  0  0  0
    0.9250    0.3474    1.3605 H   0  0  0  0  0  0  0  0  0  0  0  0
    0.6219    1.2059   -0.1532 H   0  0  0  0  0  0  0  0  0  0  0  0
    1.7592    1.8827    1.0776 H   0  0  0  0  0  0  0  0  0  0  0  0
    2.0180    2.6647   -1.2524 H   0  0  0  0  0  0  0  0  0  0  0  0
    5.4316    2.1909   -3.8307 H   0  0  0  0  0  0  0  0  0  0  0  0
    4.5171   -0.8397   -0.9522 H   0  0  0  0  0  0  0  0  0  0  0  0
    2.6080    5.0869   -5.0652 H   0  0  0  0  0  0  0  0  0  0  0  0
    6.1530    4.2560   -5.7676 H   0  0  0  0  0  0  0  0  0  0  0  0
    7.3054    4.9428   -7.8228 H   0  0  0  0  0  0  0  0  0  0  0  0
    6.1078    6.4246   -9.4414 H   0  0  0  0  0  0  0  0  0  0  0  0
    2.7193    6.4977   -7.1069 H   0  0  0  0  0  0  0  0  0  0  0  0
  1  2  1  0  0  0  0
  1 20  1  0  0  0  0
  1 21  1  0  0  0  0
  1 22  1  0  0  0  0
  2  3  1  0  0  0  0
  3  4  1  0  0  0  0
  3  8  2  0  0  0  0
  4  5  2  0  0  0  0
  4 23  1  0  0  0  0
  5  6  1  0  0  0  0
  5 10  1  0  0  0  0
  6  7  2  0  0  0  0
  6 24  1  0  0  0  0
  7  8  1  0  0  0  0
  7  9  1  0  0  0  0
  8 25  1  0  0  0  0
 10 11  1  0  0  0  0
 11 12  2  0  0  0  0
 11 13  1  0  0  0  0
 13 14  1  0  0  0  0
 13 26  1  0  0  0  0
 14 15  1  0  0  0  0
 14 19  2  0  0  0  0
 15 16  2  0  0  0  0
 15 27  1  0  0  0  0
 16 17  1  0  0  0  0
 16 28  1  0  0  0  0
 17 18  2  0  0  0  0
 17 29  1  0  0  0  0
 18 19  1  0  0  0  0
 19 30  1  0  0  0  0
M  END
$$$$
