
 OpenBabel07202414183D

 44 47  0  0  0  0  0  0  0  0999 V2000
   -1.4837    5.7447   -3.8899 F   0  0  0  0  0  0  0  0  0  0  0  0
   -0.4941    6.6085   -3.5374 C   0  0  0  0  0  0  0  0  0  0  0  0
   -0.6947    7.7414   -4.2633 F   0  0  0  0  0  0  0  0  0  0  0  0
   -0.7170    6.9375   -2.2367 F   0  0  0  0  0  0  0  0  0  0  0  0
    0.8709    6.0447   -3.7480 C   0  0  0  0  0  0  0  0  0  0  0  0
    1.1417    4.8783   -4.2927 N   0  0  0  0  0  0  0  0  0  0  0  0
    2.4908    4.6346   -4.3404 N   0  0  0  0  0  0  0  0  0  0  0  0
    3.2290    5.6089   -3.8478 C   0  0  0  0  0  0  0  0  0  0  0  0
    4.5826    5.6358   -3.7398 N   0  0  0  0  0  0  0  0  0  0  0  0
    5.4632    4.6266   -4.1824 C   0  0  0  0  0  0  0  0  0  0  0  0
    5.1452    3.7704   -5.2473 C   0  0  0  0  0  0  0  0  0  0  0  0
    5.9598    2.6858   -5.6060 C   0  0  0  0  0  0  0  0  0  0  0  0
    5.5098    1.7606   -6.7144 C   0  0  0  0  0  0  0  0  0  0  0  0
    6.4456    1.6343   -7.8984 C   0  0  0  0  0  0  0  0  0  0  0  0
    6.6636    0.5397   -8.4091 O   0  0  0  0  0  0  0  0  0  0  0  0
    6.9696    2.8289   -8.3630 N   0  0  0  0  0  0  0  0  0  0  0  0
    7.8417    2.8982   -9.4776 C   0  0  0  0  0  0  0  0  0  0  0  0
    7.5810    2.1763  -10.6444 C   0  0  0  0  0  0  0  0  0  0  0  0
    8.3407    2.2289  -11.7619 N   0  0  0  0  0  0  0  0  0  0  0  0
    9.4394    3.0106  -11.6998 C   0  0  0  0  0  0  0  0  0  0  0  0
    9.8223    3.7578  -10.5831 C   0  0  0  0  0  0  0  0  0  0  0  0
   11.0113    4.5084  -10.5744 C   0  0  0  0  0  0  0  0  0  0  0  0
   11.4015    5.2088   -9.4345 C   0  0  0  0  0  0  0  0  0  0  0  0
   10.6058    5.1756   -8.2964 C   0  0  0  0  0  0  0  0  0  0  0  0
    9.4163    4.4444   -8.2974 C   0  0  0  0  0  0  0  0  0  0  0  0
    8.9948    3.7181   -9.4373 C   0  0  0  0  0  0  0  0  0  0  0  0
    7.1306    2.4557   -4.8778 C   0  0  0  0  0  0  0  0  0  0  0  0
    7.4729    3.3126   -3.8305 C   0  0  0  0  0  0  0  0  0  0  0  0
    8.9109    3.0216   -2.9294 Cl  0  0  0  0  0  0  0  0  0  0  0  0
    6.6529    4.3907   -3.4848 C   0  0  0  0  0  0  0  0  0  0  0  0
    2.2723    6.9271   -3.2704 S   0  0  0  0  0  0  0  0  0  0  0  0
    4.9995    6.3542   -3.1606 H   0  0  0  0  0  0  0  0  0  0  0  0
    4.2296    3.9353   -5.8139 H   0  0  0  0  0  0  0  0  0  0  0  0
    4.5434    2.0847   -7.1195 H   0  0  0  0  0  0  0  0  0  0  0  0
    5.3573    0.7650   -6.2867 H   0  0  0  0  0  0  0  0  0  0  0  0
    6.9893    3.6003   -7.7108 H   0  0  0  0  0  0  0  0  0  0  0  0
    6.7030    1.5416  -10.7337 H   0  0  0  0  0  0  0  0  0  0  0  0
   10.0390    3.0071  -12.6070 H   0  0  0  0  0  0  0  0  0  0  0  0
   11.6546    4.5315  -11.4517 H   0  0  0  0  0  0  0  0  0  0  0  0
   12.3341    5.7668   -9.4302 H   0  0  0  0  0  0  0  0  0  0  0  0
   10.9164    5.7020   -7.3978 H   0  0  0  0  0  0  0  0  0  0  0  0
    8.8470    4.4209   -7.3727 H   0  0  0  0  0  0  0  0  0  0  0  0
    7.7642    1.6007   -5.1074 H   0  0  0  0  0  0  0  0  0  0  0  0
    6.9288    5.0190   -2.6419 H   0  0  0  0  0  0  0  0  0  0  0  0
  1  2  1  0  0  0  0
  2  3  1  0  0  0  0
  2  4  1  0  0  0  0
  2  5  1  0  0  0  0
  5  6  2  0  0  0  0
  5 31  1  0  0  0  0
  6  7  1  0  0  0  0
  7  8  2  0  0  0  0
  8  9  1  0  0  0  0
  8 31  1  0  0  0  0
  9 10  1  0  0  0  0
  9 32  1  0  0  0  0
 10 11  2  0  0  0  0
 10 30  1  0  0  0  0
 11 12  1  0  0  0  0
 11 33  1  0  0  0  0
 12 13  1  0  0  0  0
 12 27  2  0  0  0  0
 13 14  1  0  0  0  0
 13 34  1  0  0  0  0
 13 35  1  0  0  0  0
 14 15  2  0  0  0  0
 14 16  1  0  0  0  0
 16 17  1  0  0  0  0
 16 36  1  0  0  0  0
 17 18  2  0  0  0  0
 17 26  1  0  0  0  0
 18 19  1  0  0  0  0
 18 37  1  0  0  0  0
 19 20  2  0  0  0  0
 20 21  1  0  0  0  0
 20 38  1  0  0  0  0
 21 22  2  0  0  0  0
 21 26  1  0  0  0  0
 22 23  1  0  0  0  0
 22 39  1  0  0  0  0
 23 24  2  0  0  0  0
 23 40  1  0  0  0  0
 24 25  1  0  0  0  0
 24 41  1  0  0  0  0
 25 26  2  0  0  0  0
 25 42  1  0  0  0  0
 27 28  1  0  0  0  0
 27 43  1  0  0  0  0
 28 29  1  0  0  0  0
 28 30  2  0  0  0  0
 30 44  1  0  0  0  0
M  END
$$$$
