
 OpenBabel07202414153D

 39 42  0  0  1  0  0  0  0  0999 V2000
    3.0741    0.1008   -1.3509 C   0  0  0  0  0  0  0  0  0  0  0  0
    2.5800    0.0417    0.0999 C   0  0  1  0  0  0  0  0  0  0  0  0
    2.9632   -1.2965    0.7694 C   0  0  0  0  0  0  0  0  0  0  0  0
    4.4065   -1.3957    1.2842 C   0  0  0  0  0  0  0  0  0  0  0  0
    4.9388   -0.1330    1.7496 N   0  0  0  0  0  0  0  0  0  0  0  0
    4.5849    1.0998    1.1108 C   0  0  1  0  0  0  0  0  0  0  0  0
    3.0916    1.2346    0.9366 C   0  0  0  0  0  0  0  0  0  0  0  0
    5.3611    2.0868    1.9711 C   0  0  0  0  0  0  0  0  0  0  0  0
    5.1716    3.2936    2.0067 O   0  0  0  0  0  0  0  0  0  0  0  0
    6.4218    1.3665    2.4858 N   0  0  0  0  0  0  0  0  0  0  0  0
    7.6489    1.9519    2.8644 C   0  0  0  0  0  0  0  0  0  0  0  0
    8.8792    1.6167    2.2275 C   0  0  0  0  0  0  0  0  0  0  0  0
    9.0175    0.7191    1.1352 C   0  0  0  0  0  0  0  0  0  0  0  0
   10.2498    0.4787    0.5217 C   0  0  0  0  0  0  0  0  0  0  0  0
   11.3874    1.1295    0.9759 C   0  0  0  0  0  0  0  0  0  0  0  0
   11.2896    2.0255    2.0380 C   0  0  0  0  0  0  0  0  0  0  0  0
   10.0490    2.2852    2.6529 C   0  0  0  0  0  0  0  0  0  0  0  0
    9.9310    3.2320    3.6733 C   0  0  0  0  0  0  0  0  0  0  0  0
    8.7687    3.5919    4.2593 N   0  0  0  0  0  0  0  0  0  0  0  0
    7.6561    2.9604    3.8251 C   0  0  0  0  0  0  0  0  0  0  0  0
    6.1750    0.0153    2.3777 C   0  0  0  0  0  0  0  0  0  0  0  0
    6.8755   -0.9175    2.7511 O   0  0  0  0  0  0  0  0  0  0  0  0
    2.6023   -0.6860   -1.9506 H   0  0  0  0  0  0  0  0  0  0  0  0
    4.1554   -0.0342   -1.4364 H   0  0  0  0  0  0  0  0  0  0  0  0
    2.8146    1.0634   -1.8073 H   0  0  0  0  0  0  0  0  0  0  0  0
    1.4849    0.1001    0.0636 H   0  0  0  0  0  0  0  0  0  0  0  0
    2.7696   -2.1350    0.0883 H   0  0  0  0  0  0  0  0  0  0  0  0
    2.2876   -1.4423    1.6223 H   0  0  0  0  0  0  0  0  0  0  0  0
    5.0763   -1.7732    0.5059 H   0  0  0  0  0  0  0  0  0  0  0  0
    4.4528   -2.1071    2.1176 H   0  0  0  0  0  0  0  0  0  0  0  0
    5.0879    1.1274    0.1348 H   0  0  0  0  0  0  0  0  0  0  0  0
    2.8404    2.1858    0.4542 H   0  0  0  0  0  0  0  0  0  0  0  0
    2.5931    1.2332    1.9145 H   0  0  0  0  0  0  0  0  0  0  0  0
    8.1574    0.1966    0.7262 H   0  0  0  0  0  0  0  0  0  0  0  0
   10.3114   -0.2118   -0.3155 H   0  0  0  0  0  0  0  0  0  0  0  0
   12.3464    0.9499    0.4964 H   0  0  0  0  0  0  0  0  0  0  0  0
   12.1879    2.5424    2.3700 H   0  0  0  0  0  0  0  0  0  0  0  0
   10.8013    3.7696    4.0424 H   0  0  0  0  0  0  0  0  0  0  0  0
    6.7389    3.2852    4.3106 H   0  0  0  0  0  0  0  0  0  0  0  0
  1 23  1  0  0  0  0
  1 24  1  0  0  0  0
  1 25  1  0  0  0  0
  2  3  1  0  0  0  0
  2  7  1  0  0  0  0
  2  1  1  0  0  0  0
  2 26  1  6  0  0  0
  3  4  1  0  0  0  0
  3 27  1  0  0  0  0
  3 28  1  0  0  0  0
  4  5  1  0  0  0  0
  4 29  1  0  0  0  0
  4 30  1  0  0  0  0
  5  6  1  0  0  0  0
  5 21  1  0  0  0  0
  6  7  1  0  0  0  0
  6  8  1  0  0  0  0
  6 31  1  6  0  0  0
  7 32  1  0  0  0  0
  7 33  1  0  0  0  0
  8  9  2  0  0  0  0
  8 10  1  0  0  0  0
 10 11  1  0  0  0  0
 10 21  1  0  0  0  0
 11 12  2  0  0  0  0
 11 20  1  0  0  0  0
 12 13  1  0  0  0  0
 12 17  1  0  0  0  0
 13 14  2  0  0  0  0
 13 34  1  0  0  0  0
 14 15  1  0  0  0  0
 14 35  1  0  0  0  0
 15 16  2  0  0  0  0
 15 36  1  0  0  0  0
 16 17  1  0  0  0  0
 16 37  1  0  0  0  0
 17 18  2  0  0  0  0
 18 19  1  0  0  0  0
 18 38  1  0  0  0  0
 19 20  2  0  0  0  0
 20 39  1  0  0  0  0
 21 22  2  0  0  0  0
M  END
$$$$
