
 OpenBabel07202414113D

 45 48  0  0  1  0  0  0  0  0999 V2000
    1.5359    0.3660    1.0415 C   0  0  0  0  0  0  0  0  0  0  0  0
    2.6157    0.0762    0.0337 C   0  0  0  0  0  0  0  0  0  0  0  0
    2.8595   -1.0763   -0.3184 O   0  0  0  0  0  0  0  0  0  0  0  0
    3.3247    1.1619   -0.4505 N   0  0  0  0  0  0  0  0  0  0  0  0
    3.0969    2.5578   -0.0697 C   0  0  0  0  0  0  0  0  0  0  0  0
    4.3399    3.1448    0.6063 C   0  0  3  0  0  0  0  0  0  0  0  0
    4.5012    2.6564    2.0643 C   0  0  0  0  0  0  0  0  0  0  0  0
    4.3072    3.4219    3.0227 O   0  0  0  0  0  0  0  0  0  0  0  0
    4.9023    1.3322    2.1805 N   0  0  0  0  0  0  0  0  0  0  0  0
    5.5789    0.7517    3.2842 C   0  0  0  0  0  0  0  0  0  0  0  0
    5.4649    1.2244    4.5899 C   0  0  0  0  0  0  0  0  0  0  0  0
    6.3387    0.9137    5.5758 N   0  0  0  0  0  0  0  0  0  0  0  0
    7.2936    0.0093    5.2691 C   0  0  0  0  0  0  0  0  0  0  0  0
    7.3254   -0.7373    4.0925 C   0  0  0  0  0  0  0  0  0  0  0  0
    8.1590   -1.8666    3.9454 C   0  0  0  0  0  0  0  0  0  0  0  0
    8.2276   -2.5484    2.7332 C   0  0  0  0  0  0  0  0  0  0  0  0
    7.5190   -2.0688    1.6435 C   0  0  0  0  0  0  0  0  0  0  0  0
    6.6643   -0.9748    1.7928 C   0  0  0  0  0  0  0  0  0  0  0  0
    6.4926   -0.3157    3.0382 C   0  0  0  0  0  0  0  0  0  0  0  0
    5.5623    2.8828   -0.2748 C   0  0  0  0  0  0  0  0  0  0  0  0
    6.6836    3.7178   -0.1763 C   0  0  0  0  0  0  0  0  0  0  0  0
    7.7981    3.4997   -0.9849 C   0  0  0  0  0  0  0  0  0  0  0  0
    9.1449    4.5633   -0.8866 Cl  0  0  0  0  0  0  0  0  0  0  0  0
    7.8164    2.4470   -1.8933 C   0  0  0  0  0  0  0  0  0  0  0  0
    6.7018    1.6190   -2.0183 C   0  0  0  0  0  0  0  0  0  0  0  0
    5.5680    1.8308   -1.2224 C   0  0  0  0  0  0  0  0  0  0  0  0
    4.3567    0.9511   -1.4583 C   0  0  0  0  0  0  0  0  0  0  0  0
    1.1430   -0.5747    1.4360 H   0  0  0  0  0  0  0  0  0  0  0  0
    0.7215    0.9131    0.5584 H   0  0  0  0  0  0  0  0  0  0  0  0
    1.9377    0.9402    1.8810 H   0  0  0  0  0  0  0  0  0  0  0  0
    2.2182    2.6755    0.5643 H   0  0  0  0  0  0  0  0  0  0  0  0
    2.8856    3.1042   -1.0007 H   0  0  0  0  0  0  0  0  0  0  0  0
    4.1924    4.2324    0.6588 H   0  0  0  0  0  0  0  0  0  0  0  0
    5.0076    0.8516    1.3039 H   0  0  0  0  0  0  0  0  0  0  0  0
    4.6588    1.8834    4.9013 H   0  0  0  0  0  0  0  0  0  0  0  0
    8.0932   -0.0742    6.0015 H   0  0  0  0  0  0  0  0  0  0  0  0
    8.7230   -2.2493    4.7942 H   0  0  0  0  0  0  0  0  0  0  0  0
    8.8369   -3.4434    2.6354 H   0  0  0  0  0  0  0  0  0  0  0  0
    7.6091   -2.5504    0.6732 H   0  0  0  0  0  0  0  0  0  0  0  0
    6.1273   -0.6598    0.9049 H   0  0  0  0  0  0  0  0  0  0  0  0
    6.6749    4.5645    0.5049 H   0  0  0  0  0  0  0  0  0  0  0  0
    8.6985    2.2771   -2.5057 H   0  0  0  0  0  0  0  0  0  0  0  0
    6.7270    0.7995   -2.7378 H   0  0  0  0  0  0  0  0  0  0  0  0
    4.6606   -0.1017   -1.4927 H   0  0  0  0  0  0  0  0  0  0  0  0
    3.9215    1.2131   -2.4304 H   0  0  0  0  0  0  0  0  0  0  0  0
  1  2  1  0  0  0  0
  1 28  1  0  0  0  0
  1 29  1  0  0  0  0
  1 30  1  0  0  0  0
  2  3  2  0  0  0  0
  2  4  1  0  0  0  0
  4  5  1  0  0  0  0
  4 27  1  0  0  0  0
  5  6  1  0  0  0  0
  5 31  1  0  0  0  0
  5 32  1  0  0  0  0
  6  7  1  0  0  0  0
  6 20  1  0  0  0  0
  6 33  1  0  0  0  0
  7  8  2  0  0  0  0
  7  9  1  0  0  0  0
  9 10  1  0  0  0  0
  9 34  1  0  0  0  0
 10 11  1  0  0  0  0
 10 19  2  0  0  0  0
 11 12  2  0  0  0  0
 11 35  1  0  0  0  0
 12 13  1  0  0  0  0
 13 14  2  0  0  0  0
 13 36  1  0  0  0  0
 14 15  1  0  0  0  0
 14 19  1  0  0  0  0
 15 16  2  0  0  0  0
 15 37  1  0  0  0  0
 16 17  1  0  0  0  0
 16 38  1  0  0  0  0
 17 18  2  0  0  0  0
 17 39  1  0  0  0  0
 18 19  1  0  0  0  0
 18 40  1  0  0  0  0
 20 21  1  0  0  0  0
 20 26  2  0  0  0  0
 21 22  2  0  0  0  0
 21 41  1  0  0  0  0
 22 23  1  0  0  0  0
 22 24  1  0  0  0  0
 24 25  2  0  0  0  0
 24 42  1  0  0  0  0
 25 26  1  0  0  0  0
 25 43  1  0  0  0  0
 26 27  1  0  0  0  0
 27 44  1  0  0  0  0
 27 45  1  0  0  0  0
M  END
$$$$
