
 OpenBabel07202414133D

 52 55  0  0  0  0  0  0  0  0999 V2000
    1.3714    0.0113    0.0162 C   0  0  0  0  0  0  0  0  0  0  0  0
    2.5050   -0.9047    0.1526 N   0  0  0  0  0  0  0  0  0  0  0  0
    3.0256   -1.4606   -1.0979 C   0  0  0  0  0  0  0  0  0  0  0  0
    3.2132   -1.0264    1.3469 C   0  0  0  0  0  0  0  0  0  0  0  0
    2.9320   -0.2566    2.4913 C   0  0  0  0  0  0  0  0  0  0  0  0
    3.6367   -0.4038    3.7168 C   0  0  0  0  0  0  0  0  0  0  0  0
    4.6665   -1.3404    3.8350 C   0  0  0  0  0  0  0  0  0  0  0  0
    4.9610   -2.1253    2.7225 C   0  0  0  0  0  0  0  0  0  0  0  0
    4.2501   -1.9628    1.5086 C   0  0  0  0  0  0  0  0  0  0  0  0
    5.4171   -1.5121    5.0530 N   0  0  0  0  0  0  0  0  0  0  0  0
    6.6626   -0.7182    5.2018 C   0  0  0  0  0  0  0  0  0  0  0  0
    7.4264   -0.3232    3.9495 C   0  0  0  0  0  0  0  0  0  0  0  0
    7.2535    0.9451    3.3695 C   0  0  0  0  0  0  0  0  0  0  0  0
    7.9442    1.3042    2.2061 C   0  0  0  0  0  0  0  0  0  0  0  0
    8.8208    0.4036    1.6054 C   0  0  0  0  0  0  0  0  0  0  0  0
    9.0179   -0.8479    2.1829 C   0  0  0  0  0  0  0  0  0  0  0  0
    8.3352   -1.2118    3.3490 C   0  0  0  0  0  0  0  0  0  0  0  0
   10.1125   -1.9577    1.4526 Cl  0  0  0  0  0  0  0  0  0  0  0  0
    4.8037   -2.2205    6.1366 C   0  0  0  0  0  0  0  0  0  0  0  0
    3.7148   -2.7733    5.9838 O   0  0  0  0  0  0  0  0  0  0  0  0
    5.6192   -2.3777    7.4139 C   0  0  0  0  0  0  0  0  0  0  0  0
    5.0314   -2.7411    8.7173 N   0  0  0  0  0  0  0  0  0  0  0  0
    3.7874   -3.0767    9.2068 C   0  0  0  0  0  0  0  0  0  0  0  0
    2.5022   -3.2680    8.6789 C   0  0  0  0  0  0  0  0  0  0  0  0
    1.4598   -3.6068    9.5626 C   0  0  0  0  0  0  0  0  0  0  0  0
    1.6763   -3.7580   10.9282 C   0  0  0  0  0  0  0  0  0  0  0  0
    2.9573   -3.5828   11.4523 C   0  0  0  0  0  0  0  0  0  0  0  0
    4.0127   -3.2416   10.5827 C   0  0  0  0  0  0  0  0  0  0  0  0
    5.3283   -3.0227   10.8655 N   0  0  0  0  0  0  0  0  0  0  0  0
    5.9417   -2.7298    9.7364 N   0  0  0  0  0  0  0  0  0  0  0  0
    0.9278   -0.0368   -0.9869 H   0  0  0  0  0  0  0  0  0  0  0  0
    1.6749    1.0507    0.1749 H   0  0  0  0  0  0  0  0  0  0  0  0
    0.5704   -0.2544    0.7133 H   0  0  0  0  0  0  0  0  0  0  0  0
    2.3211   -1.3281   -1.9298 H   0  0  0  0  0  0  0  0  0  0  0  0
    3.1909   -2.5405   -1.0255 H   0  0  0  0  0  0  0  0  0  0  0  0
    3.9572   -0.9625   -1.3883 H   0  0  0  0  0  0  0  0  0  0  0  0
    2.1461    0.4943    2.4602 H   0  0  0  0  0  0  0  0  0  0  0  0
    3.3694    0.2324    4.5522 H   0  0  0  0  0  0  0  0  0  0  0  0
    5.7340   -2.8824    2.7735 H   0  0  0  0  0  0  0  0  0  0  0  0
    4.5280   -2.6223    0.6917 H   0  0  0  0  0  0  0  0  0  0  0  0
    7.3572   -1.2794    5.8383 H   0  0  0  0  0  0  0  0  0  0  0  0
    6.4019    0.1830    5.7726 H   0  0  0  0  0  0  0  0  0  0  0  0
    6.5741    1.6678    3.8164 H   0  0  0  0  0  0  0  0  0  0  0  0
    7.7930    2.2864    1.7635 H   0  0  0  0  0  0  0  0  0  0  0  0
    9.3435    0.6809    0.6931 H   0  0  0  0  0  0  0  0  0  0  0  0
    8.5156   -2.1898    3.7864 H   0  0  0  0  0  0  0  0  0  0  0  0
    6.1363   -1.4352    7.6255 H   0  0  0  0  0  0  0  0  0  0  0  0
    6.3695   -3.1580    7.2253 H   0  0  0  0  0  0  0  0  0  0  0  0
    2.2797   -3.1746    7.6244 H   0  0  0  0  0  0  0  0  0  0  0  0
    0.4558   -3.7574    9.1664 H   0  0  0  0  0  0  0  0  0  0  0  0
    0.8520   -4.0180   11.5899 H   0  0  0  0  0  0  0  0  0  0  0  0
    3.1453   -3.7058   12.5152 H   0  0  0  0  0  0  0  0  0  0  0  0
  1  2  1  0  0  0  0
  1 31  1  0  0  0  0
  1 32  1  0  0  0  0
  1 33  1  0  0  0  0
  2  3  1  0  0  0  0
  2  4  1  0  0  0  0
  3 34  1  0  0  0  0
  3 35  1  0  0  0  0
  3 36  1  0  0  0  0
  4  5  1  0  0  0  0
  4  9  2  0  0  0  0
  5  6  2  0  0  0  0
  5 37  1  0  0  0  0
  6  7  1  0  0  0  0
  6 38  1  0  0  0  0
  7  8  2  0  0  0  0
  7 10  1  0  0  0  0
  8  9  1  0  0  0  0
  8 39  1  0  0  0  0
  9 40  1  0  0  0  0
 10 11  1  0  0  0  0
 10 19  1  0  0  0  0
 11 12  1  0  0  0  0
 11 41  1  0  0  0  0
 11 42  1  0  0  0  0
 12 13  1  0  0  0  0
 12 17  2  0  0  0  0
 13 14  2  0  0  0  0
 13 43  1  0  0  0  0
 14 15  1  0  0  0  0
 14 44  1  0  0  0  0
 15 16  2  0  0  0  0
 15 45  1  0  0  0  0
 16 17  1  0  0  0  0
 16 18  1  0  0  0  0
 17 46  1  0  0  0  0
 19 20  2  0  0  0  0
 19 21  1  0  0  0  0
 21 22  1  0  0  0  0
 21 47  1  0  0  0  0
 21 48  1  0  0  0  0
 22 23  1  0  0  0  0
 22 30  1  0  0  0  0
 23 24  1  0  0  0  0
 23 28  2  0  0  0  0
 24 25  2  0  0  0  0
 24 49  1  0  0  0  0
 25 26  1  0  0  0  0
 25 50  1  0  0  0  0
 26 27  2  0  0  0  0
 26 51  1  0  0  0  0
 27 28  1  0  0  0  0
 27 52  1  0  0  0  0
 28 29  1  0  0  0  0
 29 30  2  0  0  0  0
M  END
$$$$
