
 OpenBabel07202414153D

 71 73  0  0  1  0  0  0  0  0999 V2000
   10.3838    2.9756   -6.4839 C   0  0  0  0  0  0  0  0  0  0  0  0
   11.4777    3.1994   -5.6014 O   0  0  0  0  0  0  0  0  0  0  0  0
   12.5773    2.4006   -5.8031 C   0  0  0  0  0  0  0  0  0  0  0  0
   12.9240    1.8448   -7.0431 C   0  0  0  0  0  0  0  0  0  0  0  0
   14.0710    1.0565   -7.1780 C   0  0  0  0  0  0  0  0  0  0  0  0
   14.9094    0.7985   -6.0857 C   0  0  0  0  0  0  0  0  0  0  0  0
   14.5746    1.3927   -4.8632 C   0  0  0  0  0  0  0  0  0  0  0  0
   15.2207    1.3595   -3.6456 N   0  0  0  0  0  0  0  0  0  0  0  0
   14.6078    2.2044   -2.7426 C   0  0  0  0  0  0  0  0  0  0  0  0
   15.1845    2.5253   -1.4540 C   0  0  0  0  0  0  0  0  0  0  0  0
   16.1500    1.9267   -0.9909 O   0  0  0  0  0  0  0  0  0  0  0  0
   14.6088    3.6139   -0.8427 N   0  0  0  0  0  0  0  0  0  0  0  0
   15.1625    4.3127    0.3070 C   0  0  1  0  0  0  0  0  0  0  0  0
   16.6349    4.7532    0.1423 C   0  0  0  0  0  0  0  0  0  0  0  0
   16.9026    5.8772   -0.8794 C   0  0  0  0  0  0  0  0  0  0  0  0
   18.3689    6.3146   -0.7763 C   0  0  0  0  0  0  0  0  0  0  0  0
   16.5843    5.5081   -2.3239 C   0  0  0  0  0  0  0  0  0  0  0  0
   14.2400    5.5345    0.6130 C   0  0  0  0  0  0  0  0  0  0  0  0
   13.1909    5.7419    0.0050 O   0  0  0  0  0  0  0  0  0  0  0  0
   14.6854    6.3413    1.6237 N   0  0  0  0  0  0  0  0  0  0  0  0
   14.0386    7.5664    2.0543 C   0  0  1  0  0  0  0  0  0  0  0  0
   12.8834    7.2992    3.0380 C   0  0  0  0  0  0  0  0  0  0  0  0
   13.2628    6.7116    4.4082 C   0  0  2  0  0  0  0  0  0  0  0  0
   13.8565    5.2930    4.4214 C   0  0  0  0  0  0  0  0  0  0  0  0
   12.6602    4.3727    4.5516 C   0  0  0  0  0  0  0  0  0  0  0  0
   11.7518    5.1487    5.3278 N   0  0  0  0  0  0  0  0  0  0  0  0
   11.9988    6.5010    5.2324 C   0  0  0  0  0  0  0  0  0  0  0  0
   11.2843    7.3698    5.7011 O   0  0  0  0  0  0  0  0  0  0  0  0
   15.0582    8.6081    2.5735 C   0  0  0  0  0  0  0  0  0  0  0  0
   14.7068    9.5934    3.2275 O   0  0  0  0  0  0  0  0  0  0  0  0
   16.5288    8.4760    2.1687 C   0  0  0  0  0  0  0  0  0  0  0  0
   16.7956    8.5333    0.7871 O   0  0  0  0  0  0  0  0  0  0  0  0
   16.4116   10.0421    0.0326 P   0  0  0  0  0  0  0  0  0  0  0  0
   17.9829   10.4315    0.2709 O   0  0  0  0  0  0  0  0  0  0  0  0
   16.6513    9.2387   -1.3638 O   0  0  0  0  0  0  0  0  0  0  0  0
   16.0679   11.3924   -0.6426 O   0  0  0  0  0  0  0  0  0  0  0  0
   13.4534    2.6550   -3.3628 C   0  0  0  0  0  0  0  0  0  0  0  0
   13.4416    2.1875   -4.7057 C   0  0  0  0  0  0  0  0  0  0  0  0
    9.5308    3.5526   -6.1143 H   0  0  0  0  0  0  0  0  0  0  0  0
   10.0938    1.9193   -6.5004 H   0  0  0  0  0  0  0  0  0  0  0  0
   10.6107    3.3379   -7.4914 H   0  0  0  0  0  0  0  0  0  0  0  0
   12.3328    2.0344   -7.9301 H   0  0  0  0  0  0  0  0  0  0  0  0
   14.3220    0.6451   -8.1544 H   0  0  0  0  0  0  0  0  0  0  0  0
   15.7954    0.1877   -6.2004 H   0  0  0  0  0  0  0  0  0  0  0  0
   16.0881    0.8756   -3.4599 H   0  0  0  0  0  0  0  0  0  0  0  0
   13.8323    4.0747   -1.2936 H   0  0  0  0  0  0  0  0  0  0  0  0
   15.0871    3.6258    1.1589 H   0  0  0  0  0  0  0  0  0  0  0  0
   17.2742    3.8957   -0.0842 H   0  0  0  0  0  0  0  0  0  0  0  0
   16.9869    5.1073    1.1224 H   0  0  0  0  0  0  0  0  0  0  0  0
   16.2687    6.7275   -0.6292 H   0  0  0  0  0  0  0  0  0  0  0  0
   19.0333    5.5924   -1.2591 H   0  0  0  0  0  0  0  0  0  0  0  0
   18.6844    6.4258    0.2668 H   0  0  0  0  0  0  0  0  0  0  0  0
   18.5267    7.2772   -1.2683 H   0  0  0  0  0  0  0  0  0  0  0  0
   17.1867    4.6572   -2.6548 H   0  0  0  0  0  0  0  0  0  0  0  0
   16.7889    6.3546   -2.9875 H   0  0  0  0  0  0  0  0  0  0  0  0
   15.5285    5.2665   -2.4577 H   0  0  0  0  0  0  0  0  0  0  0  0
   15.4862    6.0050    2.1637 H   0  0  0  0  0  0  0  0  0  0  0  0
   13.6073    8.0247    1.1543 H   0  0  0  0  0  0  0  0  0  0  0  0
   12.1370    6.6551    2.5549 H   0  0  0  0  0  0  0  0  0  0  0  0
   12.3642    8.2527    3.2192 H   0  0  0  0  0  0  0  0  0  0  0  0
   13.9240    7.3965    4.9495 H   0  0  0  0  0  0  0  0  0  0  0  0
   14.4925    5.1935    5.3113 H   0  0  0  0  0  0  0  0  0  0  0  0
   14.4750    5.0115    3.5757 H   0  0  0  0  0  0  0  0  0  0  0  0
   12.9016    3.4385    5.0634 H   0  0  0  0  0  0  0  0  0  0  0  0
   12.1968    4.1528    3.5849 H   0  0  0  0  0  0  0  0  0  0  0  0
   10.8957    4.8117    5.7515 H   0  0  0  0  0  0  0  0  0  0  0  0
   16.9100    7.5245    2.5535 H   0  0  0  0  0  0  0  0  0  0  0  0
   17.1062    9.2548    2.6782 H   0  0  0  0  0  0  0  0  0  0  0  0
   18.0334   11.2373    0.8200 H   0  0  0  0  0  0  0  0  0  0  0  0
   17.6075    9.0896   -1.4503 H   0  0  0  0  0  0  0  0  0  0  0  0
   12.7115    3.3166   -2.9372 H   0  0  0  0  0  0  0  0  0  0  0  0
  1  2  1  0  0  0  0
  1 39  1  0  0  0  0
  1 40  1  0  0  0  0
  1 41  1  0  0  0  0
  2  3  1  0  0  0  0
  3  4  1  0  0  0  0
  3 38  2  0  0  0  0
  4  5  2  0  0  0  0
  4 42  1  0  0  0  0
  5  6  1  0  0  0  0
  5 43  1  0  0  0  0
  6  7  2  0  0  0  0
  6 44  1  0  0  0  0
  7  8  1  0  0  0  0
  7 38  1  0  0  0  0
  8  9  1  0  0  0  0
  8 45  1  0  0  0  0
  9 10  1  0  0  0  0
  9 37  2  0  0  0  0
 10 11  2  0  0  0  0
 10 12  1  0  0  0  0
 12 13  1  0  0  0  0
 12 46  1  0  0  0  0
 13 14  1  0  0  0  0
 13 18  1  0  0  0  0
 13 47  1  1  0  0  0
 14 15  1  0  0  0  0
 14 48  1  0  0  0  0
 14 49  1  0  0  0  0
 15 16  1  0  0  0  0
 15 17  1  0  0  0  0
 15 50  1  0  0  0  0
 16 51  1  0  0  0  0
 16 52  1  0  0  0  0
 16 53  1  0  0  0  0
 17 54  1  0  0  0  0
 17 55  1  0  0  0  0
 17 56  1  0  0  0  0
 18 19  2  0  0  0  0
 18 20  1  0  0  0  0
 20 21  1  0  0  0  0
 20 57  1  0  0  0  0
 21 22  1  0  0  0  0
 21 29  1  0  0  0  0
 21 58  1  6  0  0  0
 22 59  1  0  0  0  0
 22 60  1  0  0  0  0
 23 24  1  0  0  0  0
 23 27  1  0  0  0  0
 23 22  1  0  0  0  0
 23 61  1  1  0  0  0
 24 25  1  0  0  0  0
 24 62  1  0  0  0  0
 24 63  1  0  0  0  0
 25 26  1  0  0  0  0
 25 64  1  0  0  0  0
 25 65  1  0  0  0  0
 26 27  1  0  0  0  0
 26 66  1  0  0  0  0
 27 28  2  0  0  0  0
 29 30  2  0  0  0  0
 29 31  1  0  0  0  0
 31 32  1  0  0  0  0
 31 67  1  0  0  0  0
 31 68  1  0  0  0  0
 32 33  1  0  0  0  0
 33 34  1  0  0  0  0
 33 35  1  0  0  0  0
 33 36  2  0  0  0  0
 34 69  1  0  0  0  0
 35 70  1  0  0  0  0
 37 38  1  0  0  0  0
 37 71  1  0  0  0  0
M  END
$$$$
