
 OpenBabel07202414133D

 44 45  0  0  1  0  0  0  0  0999 V2000
    5.5310   -1.1565    4.3236 C   0  0  0  0  0  0  0  0  0  0  0  0
    6.4980   -1.3331    3.1624 C   0  0  0  0  0  0  0  0  0  0  0  0
    5.9390   -0.7416    1.8659 C   0  0  0  0  0  0  0  0  0  0  0  0
    6.9087   -0.8702    0.6894 C   0  0  0  0  0  0  0  0  0  0  0  0
    7.2071   -2.2441    0.3445 N   0  0  0  0  0  0  0  0  0  0  0  0
    6.4148   -3.0022   -0.4952 C   0  0  0  0  0  0  0  0  0  0  0  0
    5.4173   -2.5353   -1.0432 O   0  0  0  0  0  0  0  0  0  0  0  0
    6.8356   -4.3811   -0.6736 C   0  0  0  0  0  0  0  0  0  0  0  0
    6.2442   -5.3444   -1.4635 C   0  0  0  0  0  0  0  0  0  0  0  0
    6.8022   -6.6088   -1.3942 N   0  0  0  0  0  0  0  0  0  0  0  0
    7.8570   -6.5969   -0.5992 C   0  0  0  0  0  0  0  0  0  0  0  0
    8.7514   -7.7910   -0.2785 C   0  0  1  0  0  0  0  0  0  0  0  0
    8.2147   -8.5251    0.8590 N   0  0  0  0  0  0  0  0  0  0  0  0
    8.5242   -8.2060    2.1628 C   0  0  0  0  0  0  0  0  0  0  0  0
    9.3515   -7.3393    2.4490 O   0  0  0  0  0  0  0  0  0  0  0  0
    7.8743   -9.0640    3.2308 C   0  0  0  0  0  0  0  0  0  0  0  0
    6.2720   -9.6468    2.7231 Cl  0  0  0  0  0  0  0  0  0  0  0  0
    8.9599   -8.7337   -1.4611 C   0  0  0  0  0  0  0  0  0  0  0  0
   10.2586   -8.9583   -1.9507 C   0  0  0  0  0  0  0  0  0  0  0  0
   10.4781   -9.7935   -3.0491 C   0  0  0  0  0  0  0  0  0  0  0  0
    9.4036  -10.4219   -3.6749 C   0  0  0  0  0  0  0  0  0  0  0  0
    8.1137  -10.2231   -3.1910 C   0  0  0  0  0  0  0  0  0  0  0  0
    6.7865  -10.9965   -3.9688 Cl  0  0  0  0  0  0  0  0  0  0  0  0
    7.8873   -9.3953   -2.0907 C   0  0  0  0  0  0  0  0  0  0  0  0
    8.1970   -5.0604    0.1132 S   0  0  0  0  0  0  0  0  0  0  0  0
    5.9526   -1.5894    5.2365 H   0  0  0  0  0  0  0  0  0  0  0  0
    4.5784   -1.6562    4.1208 H   0  0  0  0  0  0  0  0  0  0  0  0
    5.3306   -0.0970    4.5125 H   0  0  0  0  0  0  0  0  0  0  0  0
    6.7006   -2.4025    3.0335 H   0  0  0  0  0  0  0  0  0  0  0  0
    7.4500   -0.8497    3.4122 H   0  0  0  0  0  0  0  0  0  0  0  0
    5.7258    0.3231    2.0218 H   0  0  0  0  0  0  0  0  0  0  0  0
    4.9871   -1.2267    1.6213 H   0  0  0  0  0  0  0  0  0  0  0  0
    7.8611   -0.3837    0.9247 H   0  0  0  0  0  0  0  0  0  0  0  0
    6.4835   -0.3723   -0.1887 H   0  0  0  0  0  0  0  0  0  0  0  0
    8.0044   -2.6913    0.7786 H   0  0  0  0  0  0  0  0  0  0  0  0
    5.3817   -5.1791   -2.0998 H   0  0  0  0  0  0  0  0  0  0  0  0
    9.7363   -7.4040    0.0158 H   0  0  0  0  0  0  0  0  0  0  0  0
    7.4100   -9.1231    0.6977 H   0  0  0  0  0  0  0  0  0  0  0  0
    7.7411   -8.4777    4.1425 H   0  0  0  0  0  0  0  0  0  0  0  0
    8.5111   -9.9289    3.4351 H   0  0  0  0  0  0  0  0  0  0  0  0
   11.1154   -8.4745   -1.4834 H   0  0  0  0  0  0  0  0  0  0  0  0
   11.4880   -9.9471   -3.4216 H   0  0  0  0  0  0  0  0  0  0  0  0
    9.5776  -11.0599   -4.5372 H   0  0  0  0  0  0  0  0  0  0  0  0
    6.8676   -9.2431   -1.7430 H   0  0  0  0  0  0  0  0  0  0  0  0
  1  2  1  0  0  0  0
  1 26  1  0  0  0  0
  1 27  1  0  0  0  0
  1 28  1  0  0  0  0
  2  3  1  0  0  0  0
  2 29  1  0  0  0  0
  2 30  1  0  0  0  0
  3  4  1  0  0  0  0
  3 31  1  0  0  0  0
  3 32  1  0  0  0  0
  4  5  1  0  0  0  0
  4 33  1  0  0  0  0
  4 34  1  0  0  0  0
  5  6  1  0  0  0  0
  5 35  1  0  0  0  0
  6  7  2  0  0  0  0
  6  8  1  0  0  0  0
  8  9  2  0  0  0  0
  8 25  1  0  0  0  0
  9 10  1  0  0  0  0
  9 36  1  0  0  0  0
 10 11  2  0  0  0  0
 11 12  1  0  0  0  0
 11 25  1  0  0  0  0
 12 13  1  0  0  0  0
 12 18  1  0  0  0  0
 12 37  1  1  0  0  0
 13 14  1  0  0  0  0
 13 38  1  0  0  0  0
 14 15  2  0  0  0  0
 14 16  1  0  0  0  0
 16 17  1  0  0  0  0
 16 39  1  0  0  0  0
 16 40  1  0  0  0  0
 18 19  1  0  0  0  0
 18 24  2  0  0  0  0
 19 20  2  0  0  0  0
 19 41  1  0  0  0  0
 20 21  1  0  0  0  0
 20 42  1  0  0  0  0
 21 22  2  0  0  0  0
 21 43  1  0  0  0  0
 22 23  1  0  0  0  0
 22 24  1  0  0  0  0
 24 44  1  0  0  0  0
M  END
$$$$
