
 OpenBabel07202414193D

 56 59  0  0  1  0  0  0  0  0999 V2000
    1.6221   -1.8468    2.9876 N   0  0  0  0  0  0  0  0  0  0  0  0
    2.0394   -1.5659    4.2569 C   0  0  0  0  0  0  0  0  0  0  0  0
    1.7757   -2.3168    5.1814 O   0  0  0  0  0  0  0  0  0  0  0  0
    2.8524   -0.3356    4.4623 C   0  0  0  0  0  0  0  0  0  0  0  0
    2.7802    0.7666    3.6016 C   0  0  0  0  0  0  0  0  0  0  0  0
    3.5449    1.9177    3.8555 C   0  0  0  0  0  0  0  0  0  0  0  0
    4.3850    1.9787    4.9716 C   0  0  0  0  0  0  0  0  0  0  0  0
    5.1571    3.0507    5.3447 O   0  0  0  0  0  0  0  0  0  0  0  0
    5.1259    4.1896    4.4980 C   0  0  0  0  0  0  0  0  0  0  0  0
    6.0738    5.2830    4.9968 C   0  0  0  0  0  0  0  0  0  0  0  0
    7.1926    5.4586    4.5130 O   0  0  0  0  0  0  0  0  0  0  0  0
    5.5701    6.1383    5.9485 N   0  0  0  0  0  0  0  0  0  0  0  0
    6.3518    7.2547    6.4954 C   0  0  3  0  0  0  0  0  0  0  0  0
    6.2780    8.5298    5.5770 C   0  0  0  0  0  0  0  0  0  0  0  0
    5.9355    9.6372    5.9855 O   0  0  0  0  0  0  0  0  0  0  0  0
    6.7344    8.2774    4.2868 N   0  0  0  0  0  0  0  0  0  0  0  0
    6.9177    9.2045    3.2242 C   0  0  0  0  0  0  0  0  0  0  0  0
    6.6642   10.5714    3.3537 C   0  0  0  0  0  0  0  0  0  0  0  0
    6.9314   11.4991    2.4029 N   0  0  0  0  0  0  0  0  0  0  0  0
    7.4038   11.0384    1.2288 C   0  0  0  0  0  0  0  0  0  0  0  0
    7.5744    9.6904    0.9236 C   0  0  0  0  0  0  0  0  0  0  0  0
    7.9074    9.2825   -0.3813 C   0  0  0  0  0  0  0  0  0  0  0  0
    8.0614    7.9336   -0.6878 C   0  0  0  0  0  0  0  0  0  0  0  0
    7.9532    6.9876    0.3200 C   0  0  0  0  0  0  0  0  0  0  0  0
    7.6294    7.3853    1.6204 C   0  0  0  0  0  0  0  0  0  0  0  0
    7.3770    8.7411    1.9544 C   0  0  0  0  0  0  0  0  0  0  0  0
    5.9964    7.4604    7.9627 C   0  0  0  0  0  0  0  0  0  0  0  0
    4.9840    8.3287    8.4009 C   0  0  0  0  0  0  0  0  0  0  0  0
    4.7146    8.4905    9.7643 C   0  0  0  0  0  0  0  0  0  0  0  0
    5.4261    7.7584   10.7121 C   0  0  0  0  0  0  0  0  0  0  0  0
    6.4011    6.8601   10.2919 C   0  0  0  0  0  0  0  0  0  0  0  0
    7.2644    5.9305   11.4545 Cl  0  0  0  0  0  0  0  0  0  0  0  0
    6.6851    6.7069    8.9334 C   0  0  0  0  0  0  0  0  0  0  0  0
    4.4579    0.8738    5.8231 C   0  0  0  0  0  0  0  0  0  0  0  0
    3.6943   -0.2762    5.5781 C   0  0  0  0  0  0  0  0  0  0  0  0
    1.1656   -2.7390    2.8540 H   0  0  0  0  0  0  0  0  0  0  0  0
    2.0203   -1.4054    2.1675 H   0  0  0  0  0  0  0  0  0  0  0  0
    2.1083    0.7634    2.7475 H   0  0  0  0  0  0  0  0  0  0  0  0
    3.4462    2.7475    3.1648 H   0  0  0  0  0  0  0  0  0  0  0  0
    4.1152    4.6111    4.4551 H   0  0  0  0  0  0  0  0  0  0  0  0
    5.4525    3.9275    3.4834 H   0  0  0  0  0  0  0  0  0  0  0  0
    4.6545    5.9646    6.3465 H   0  0  0  0  0  0  0  0  0  0  0  0
    7.4147    6.9726    6.4630 H   0  0  0  0  0  0  0  0  0  0  0  0
    7.0574    7.3285    4.1218 H   0  0  0  0  0  0  0  0  0  0  0  0
    6.2278   11.0044    4.2469 H   0  0  0  0  0  0  0  0  0  0  0  0
    7.6412   11.8154    0.5060 H   0  0  0  0  0  0  0  0  0  0  0  0
    8.0100   10.0162   -1.1786 H   0  0  0  0  0  0  0  0  0  0  0  0
    8.2680    7.6234   -1.7085 H   0  0  0  0  0  0  0  0  0  0  0  0
    8.1063    5.9338    0.1006 H   0  0  0  0  0  0  0  0  0  0  0  0
    7.5621    6.5968    2.3616 H   0  0  0  0  0  0  0  0  0  0  0  0
    4.4051    8.9202    7.6933 H   0  0  0  0  0  0  0  0  0  0  0  0
    3.9527    9.1975   10.0853 H   0  0  0  0  0  0  0  0  0  0  0  0
    5.2151    7.8917   11.7697 H   0  0  0  0  0  0  0  0  0  0  0  0
    7.4529    5.9977    8.6292 H   0  0  0  0  0  0  0  0  0  0  0  0
    5.1098    0.9030    6.6948 H   0  0  0  0  0  0  0  0  0  0  0  0
    3.7540   -1.1205    6.2594 H   0  0  0  0  0  0  0  0  0  0  0  0
  1  2  1  0  0  0  0
  1 36  1  0  0  0  0
  1 37  1  0  0  0  0
  2  3  2  0  0  0  0
  2  4  1  0  0  0  0
  4  5  1  0  0  0  0
  4 35  2  0  0  0  0
  5  6  2  0  0  0  0
  5 38  1  0  0  0  0
  6  7  1  0  0  0  0
  6 39  1  0  0  0  0
  7  8  1  0  0  0  0
  7 34  2  0  0  0  0
  8  9  1  0  0  0  0
  9 10  1  0  0  0  0
  9 40  1  0  0  0  0
  9 41  1  0  0  0  0
 10 11  2  0  0  0  0
 10 12  1  0  0  0  0
 12 13  1  0  0  0  0
 12 42  1  0  0  0  0
 13 14  1  0  0  0  0
 13 27  1  0  0  0  0
 13 43  1  0  0  0  0
 14 15  2  0  0  0  0
 14 16  1  0  0  0  0
 16 17  1  0  0  0  0
 16 44  1  0  0  0  0
 17 18  1  0  0  0  0
 17 26  2  0  0  0  0
 18 19  2  0  0  0  0
 18 45  1  0  0  0  0
 19 20  1  0  0  0  0
 20 21  2  0  0  0  0
 20 46  1  0  0  0  0
 21 22  1  0  0  0  0
 21 26  1  0  0  0  0
 22 23  2  0  0  0  0
 22 47  1  0  0  0  0
 23 24  1  0  0  0  0
 23 48  1  0  0  0  0
 24 25  2  0  0  0  0
 24 49  1  0  0  0  0
 25 26  1  0  0  0  0
 25 50  1  0  0  0  0
 27 28  1  0  0  0  0
 27 33  2  0  0  0  0
 28 29  2  0  0  0  0
 28 51  1  0  0  0  0
 29 30  1  0  0  0  0
 29 52  1  0  0  0  0
 30 31  2  0  0  0  0
 30 53  1  0  0  0  0
 31 32  1  0  0  0  0
 31 33  1  0  0  0  0
 33 54  1  0  0  0  0
 34 35  1  0  0  0  0
 34 55  1  0  0  0  0
 35 56  1  0  0  0  0
M  END
$$$$
