
 OpenBabel07202414203D

 43 46  0  0  1  0  0  0  0  0999 V2000
    3.7303   -0.3806   -0.8488 O   0  0  0  0  0  0  0  0  0  0  0  0
    2.8160    0.2321    0.0638 C   0  0  0  0  0  0  0  0  0  0  0  0
    3.2611    0.0717    1.5445 C   0  0  3  0  0  0  0  0  0  0  0  0
    4.5876    0.8310    1.9361 C   0  0  0  0  0  0  0  0  0  0  0  0
    4.8726    1.0810    3.1078 O   0  0  0  0  0  0  0  0  0  0  0  0
    5.4568    1.0897    0.8978 N   0  0  0  0  0  0  0  0  0  0  0  0
    6.8160    1.4662    1.0801 C   0  0  0  0  0  0  0  0  0  0  0  0
    7.1999    2.7117    1.5728 C   0  0  0  0  0  0  0  0  0  0  0  0
    8.3561    3.3112    1.1949 N   0  0  0  0  0  0  0  0  0  0  0  0
    9.2049    2.5605    0.4569 C   0  0  0  0  0  0  0  0  0  0  0  0
    9.1043    1.1807    0.3222 C   0  0  0  0  0  0  0  0  0  0  0  0
   10.1869    0.3466    0.0021 C   0  0  0  0  0  0  0  0  0  0  0  0
    9.9478   -1.0390   -0.2242 C   0  0  0  0  0  0  0  0  0  0  0  0
    8.6651   -1.5561   -0.1041 C   0  0  0  0  0  0  0  0  0  0  0  0
    7.6082   -0.7165    0.2506 C   0  0  0  0  0  0  0  0  0  0  0  0
    7.8202    0.6442    0.5352 C   0  0  0  0  0  0  0  0  0  0  0  0
    3.4790   -1.4271    1.8703 C   0  0  0  0  0  0  0  0  0  0  0  0
    2.1443   -2.1461    2.0003 C   0  0  0  0  0  0  0  0  0  0  0  0
    1.3645   -1.6179    3.0715 O   0  0  0  0  0  0  0  0  0  0  0  0
    1.2705   -0.2547    3.1021 C   0  0  0  0  0  0  0  0  0  0  0  0
    0.2637    0.2587    3.9207 C   0  0  0  0  0  0  0  0  0  0  0  0
    0.0583    1.6330    4.0165 C   0  0  0  0  0  0  0  0  0  0  0  0
    0.8669    2.4951    3.2907 C   0  0  0  0  0  0  0  0  0  0  0  0
    0.6168    4.1958    3.3743 Cl  0  0  0  0  0  0  0  0  0  0  0  0
    1.8864    1.9926    2.4705 C   0  0  0  0  0  0  0  0  0  0  0  0
    2.1096    0.6088    2.3927 C   0  0  0  0  0  0  0  0  0  0  0  0
    3.2512   -0.4758   -1.6968 H   0  0  0  0  0  0  0  0  0  0  0  0
    1.8395   -0.2439   -0.0950 H   0  0  0  0  0  0  0  0  0  0  0  0
    2.7101    1.2813   -0.2278 H   0  0  0  0  0  0  0  0  0  0  0  0
    5.2714    0.5643    0.0435 H   0  0  0  0  0  0  0  0  0  0  0  0
    6.5582    3.3315    2.1924 H   0  0  0  0  0  0  0  0  0  0  0  0
    9.8973    3.1206   -0.1699 H   0  0  0  0  0  0  0  0  0  0  0  0
   11.1956    0.7232   -0.0904 H   0  0  0  0  0  0  0  0  0  0  0  0
   10.7861   -1.7033   -0.3979 H   0  0  0  0  0  0  0  0  0  0  0  0
    8.4826   -2.6098   -0.2769 H   0  0  0  0  0  0  0  0  0  0  0  0
    6.6215   -1.1614    0.3560 H   0  0  0  0  0  0  0  0  0  0  0  0
    4.0126   -1.5261    2.8248 H   0  0  0  0  0  0  0  0  0  0  0  0
    4.0998   -1.9218    1.1137 H   0  0  0  0  0  0  0  0  0  0  0  0
    2.3159   -3.2045    2.2250 H   0  0  0  0  0  0  0  0  0  0  0  0
    1.5516   -2.1205    1.0777 H   0  0  0  0  0  0  0  0  0  0  0  0
   -0.3748   -0.4187    4.4802 H   0  0  0  0  0  0  0  0  0  0  0  0
   -0.7366    2.0223    4.6421 H   0  0  0  0  0  0  0  0  0  0  0  0
    2.5172    2.6912    1.9292 H   0  0  0  0  0  0  0  0  0  0  0  0
  1  2  1  0  0  0  0
  1 27  1  0  0  0  0
  2  3  1  0  0  0  0
  2 28  1  0  0  0  0
  2 29  1  0  0  0  0
  3  4  1  0  0  0  0
  3 17  1  0  0  0  0
  3 26  1  0  0  0  0
  4  5  2  0  0  0  0
  4  6  1  0  0  0  0
  6  7  1  0  0  0  0
  6 30  1  0  0  0  0
  7  8  1  0  0  0  0
  7 16  2  0  0  0  0
  8  9  2  0  0  0  0
  8 31  1  0  0  0  0
  9 10  1  0  0  0  0
 10 11  2  0  0  0  0
 10 32  1  0  0  0  0
 11 12  1  0  0  0  0
 11 16  1  0  0  0  0
 12 13  2  0  0  0  0
 12 33  1  0  0  0  0
 13 14  1  0  0  0  0
 13 34  1  0  0  0  0
 14 15  2  0  0  0  0
 14 35  1  0  0  0  0
 15 16  1  0  0  0  0
 15 36  1  0  0  0  0
 17 18  1  0  0  0  0
 17 37  1  0  0  0  0
 17 38  1  0  0  0  0
 18 19  1  0  0  0  0
 18 39  1  0  0  0  0
 18 40  1  0  0  0  0
 19 20  1  0  0  0  0
 20 21  1  0  0  0  0
 20 26  2  0  0  0  0
 21 22  2  0  0  0  0
 21 41  1  0  0  0  0
 22 23  1  0  0  0  0
 22 42  1  0  0  0  0
 23 24  1  0  0  0  0
 23 25  2  0  0  0  0
 25 26  1  0  0  0  0
 25 43  1  0  0  0  0
M  END
$$$$
