
 OpenBabel07202414173D

 61 66  0  0  1  0  0  0  0  0999 V2000
    1.0385    0.5172   -0.0637 Cl  0  0  0  0  0  0  0  0  0  0  0  0
    2.7529    0.3943   -0.1194 C   0  0  0  0  0  0  0  0  0  0  0  0
    3.5341    1.5411   -0.1636 C   0  0  0  0  0  0  0  0  0  0  0  0
    4.9265    1.4289   -0.1757 C   0  0  0  0  0  0  0  0  0  0  0  0
    5.5420    0.1679   -0.1160 C   0  0  0  0  0  0  0  0  0  0  0  0
    4.7608   -0.9993   -0.0723 C   0  0  0  0  0  0  0  0  0  0  0  0
    3.3535   -0.8642   -0.0828 C   0  0  0  0  0  0  0  0  0  0  0  0
    5.4089   -2.3722    0.0871 C   0  0  3  0  0  0  0  0  0  0  0  0
    6.9428   -2.3182    0.0502 C   0  0  0  0  0  0  0  0  0  0  0  0
    7.5298   -1.0761    0.5203 N   0  0  0  0  0  0  0  0  0  0  0  0
    8.9026   -1.1091    1.0140 C   0  0  0  0  0  0  0  0  0  0  0  0
    9.9085   -1.5824   -0.0375 C   0  0  0  0  0  0  0  0  0  0  0  0
   10.1390   -2.7743   -0.2201 O   0  0  0  0  0  0  0  0  0  0  0  0
   10.4628   -0.5737   -0.7950 N   0  0  0  0  0  0  0  0  0  0  0  0
   11.4149   -0.8402   -1.8541 C   0  0  0  0  0  0  0  0  0  0  0  0
   12.7239   -0.1987   -1.4495 C   0  0  0  0  0  0  0  0  0  0  0  0
   13.8901   -0.4211   -2.4233 C   0  0  0  0  0  0  0  0  0  0  0  0
   14.7703   -0.7812   -1.3283 O   0  0  0  0  0  0  0  0  0  0  0  0
   13.6169   -0.9713   -0.4655 C   0  0  0  0  0  0  0  0  0  0  0  0
    7.0240    0.1196    0.0418 C   0  0  0  0  0  0  0  0  0  0  0  0
    7.7202    1.1063   -0.1723 O   0  0  0  0  0  0  0  0  0  0  0  0
    4.9332   -3.3590   -0.9864 C   0  0  0  0  0  0  0  0  0  0  0  0
    3.9730   -4.3005   -0.3012 C   0  0  0  0  0  0  0  0  0  0  0  0
    3.9113   -3.9425    1.0829 N   0  0  0  0  0  0  0  0  0  0  0  0
    2.9584   -4.5011    2.0123 C   0  0  0  0  0  0  0  0  0  0  0  0
    2.8437   -3.9199    3.2872 C   0  0  0  0  0  0  0  0  0  0  0  0
    2.0499   -4.3570    4.2905 N   0  0  0  0  0  0  0  0  0  0  0  0
    1.2606   -5.4039    4.0090 C   0  0  0  0  0  0  0  0  0  0  0  0
    1.1668   -6.0096    2.7602 C   0  0  0  0  0  0  0  0  0  0  0  0
    0.1958   -7.0118    2.5632 C   0  0  0  0  0  0  0  0  0  0  0  0
    0.0388   -7.6265    1.3286 C   0  0  0  0  0  0  0  0  0  0  0  0
    0.8936   -7.2879    0.2996 C   0  0  0  0  0  0  0  0  0  0  0  0
    1.8807   -6.3157    0.5001 C   0  0  0  0  0  0  0  0  0  0  0  0
    2.0428   -5.5891    1.7198 C   0  0  0  0  0  0  0  0  0  0  0  0
    4.9222   -3.0079    1.3962 C   0  0  0  0  0  0  0  0  0  0  0  0
    5.3015   -2.6588    2.5036 O   0  0  0  0  0  0  0  0  0  0  0  0
    3.0700    2.5235   -0.1579 H   0  0  0  0  0  0  0  0  0  0  0  0
    5.5329    2.3329   -0.1765 H   0  0  0  0  0  0  0  0  0  0  0  0
    2.7066   -1.7359   -0.0298 H   0  0  0  0  0  0  0  0  0  0  0  0
    7.2845   -2.4074   -0.9911 H   0  0  0  0  0  0  0  0  0  0  0  0
    7.3777   -3.1579    0.6081 H   0  0  0  0  0  0  0  0  0  0  0  0
    8.9450   -1.7979    1.8661 H   0  0  0  0  0  0  0  0  0  0  0  0
    9.1942   -0.1212    1.3864 H   0  0  0  0  0  0  0  0  0  0  0  0
   10.0272    0.3456   -0.7368 H   0  0  0  0  0  0  0  0  0  0  0  0
   11.0204   -0.3857   -2.7680 H   0  0  0  0  0  0  0  0  0  0  0  0
   11.5244   -1.9169   -2.0226 H   0  0  0  0  0  0  0  0  0  0  0  0
   12.6196    0.8611   -1.1849 H   0  0  0  0  0  0  0  0  0  0  0  0
   14.2364    0.4728   -2.9493 H   0  0  0  0  0  0  0  0  0  0  0  0
   13.7897   -1.2508   -3.1306 H   0  0  0  0  0  0  0  0  0  0  0  0
   13.7563   -0.4991    0.5106 H   0  0  0  0  0  0  0  0  0  0  0  0
   13.4014   -2.0368   -0.3365 H   0  0  0  0  0  0  0  0  0  0  0  0
    5.7550   -3.9494   -1.4101 H   0  0  0  0  0  0  0  0  0  0  0  0
    4.4523   -2.8672   -1.8401 H   0  0  0  0  0  0  0  0  0  0  0  0
    4.3720   -5.3184   -0.3708 H   0  0  0  0  0  0  0  0  0  0  0  0
    2.9883   -4.2082   -0.7665 H   0  0  0  0  0  0  0  0  0  0  0  0
    3.3755   -3.0138    3.5626 H   0  0  0  0  0  0  0  0  0  0  0  0
    0.6713   -5.7537    4.8528 H   0  0  0  0  0  0  0  0  0  0  0  0
   -0.4701   -7.2994    3.3734 H   0  0  0  0  0  0  0  0  0  0  0  0
   -0.7429   -8.3644    1.1744 H   0  0  0  0  0  0  0  0  0  0  0  0
    0.7984   -7.7697   -0.6717 H   0  0  0  0  0  0  0  0  0  0  0  0
    2.5051   -6.1549   -0.3643 H   0  0  0  0  0  0  0  0  0  0  0  0
  1  2  1  0  0  0  0
  2  3  1  0  0  0  0
  2  7  2  0  0  0  0
  3  4  2  0  0  0  0
  3 37  1  0  0  0  0
  4  5  1  0  0  0  0
  4 38  1  0  0  0  0
  5  6  2  0  0  0  0
  5 20  1  0  0  0  0
  6  7  1  0  0  0  0
  6  8  1  0  0  0  0
  7 39  1  0  0  0  0
  8  9  1  0  0  0  0
  8 22  1  0  0  0  0
  8 35  1  0  0  0  0
  9 10  1  0  0  0  0
  9 40  1  0  0  0  0
  9 41  1  0  0  0  0
 10 11  1  0  0  0  0
 10 20  1  0  0  0  0
 11 12  1  0  0  0  0
 11 42  1  0  0  0  0
 11 43  1  0  0  0  0
 12 13  2  0  0  0  0
 12 14  1  0  0  0  0
 14 15  1  0  0  0  0
 14 44  1  0  0  0  0
 15 16  1  0  0  0  0
 15 45  1  0  0  0  0
 15 46  1  0  0  0  0
 16 17  1  0  0  0  0
 16 19  1  0  0  0  0
 16 47  1  0  0  0  0
 17 18  1  0  0  0  0
 17 48  1  0  0  0  0
 17 49  1  0  0  0  0
 18 19  1  0  0  0  0
 19 50  1  0  0  0  0
 19 51  1  0  0  0  0
 20 21  2  0  0  0  0
 22 23  1  0  0  0  0
 22 52  1  0  0  0  0
 22 53  1  0  0  0  0
 23 24  1  0  0  0  0
 23 54  1  0  0  0  0
 23 55  1  0  0  0  0
 24 25  1  0  0  0  0
 24 35  1  0  0  0  0
 25 26  1  0  0  0  0
 25 34  2  0  0  0  0
 26 27  2  0  0  0  0
 26 56  1  0  0  0  0
 27 28  1  0  0  0  0
 28 29  2  0  0  0  0
 28 57  1  0  0  0  0
 29 30  1  0  0  0  0
 29 34  1  0  0  0  0
 30 31  2  0  0  0  0
 30 58  1  0  0  0  0
 31 32  1  0  0  0  0
 31 59  1  0  0  0  0
 32 33  2  0  0  0  0
 32 60  1  0  0  0  0
 33 34  1  0  0  0  0
 33 61  1  0  0  0  0
 35 36  2  0  0  0  0
M  END
$$$$
