
 OpenBabel07202414173D

 40 42  0  0  0  0  0  0  0  0999 V2000
    0.8710    0.4350   -0.2153 Cl  0  0  0  0  0  0  0  0  0  0  0  0
    2.6223    0.7231   -0.2054 C   0  0  0  0  0  0  0  0  0  0  0  0
    3.1935    0.7336    1.2058 C   0  0  0  0  0  0  0  0  0  0  0  0
    2.4872    0.6508    2.2111 O   0  0  0  0  0  0  0  0  0  0  0  0
    4.5803    0.8275    1.3086 N   0  0  0  0  0  0  0  0  0  0  0  0
    5.5054    1.0843    0.1978 C   0  0  0  0  0  0  0  0  0  0  0  0
    6.7141    0.1331    0.2601 C   0  0  0  0  0  0  0  0  0  0  0  0
    7.4313    0.1424    1.5524 N   0  0  0  0  0  0  0  0  0  0  0  0
    8.1643    1.3951    1.8194 C   0  0  0  0  0  0  0  0  0  0  0  0
    9.1793    1.7963    0.7606 C   0  0  0  0  0  0  0  0  0  0  0  0
    8.9215    2.9710    0.0258 C   0  0  0  0  0  0  0  0  0  0  0  0
    9.8030    3.4133   -0.9526 C   0  0  0  0  0  0  0  0  0  0  0  0
   10.9633    2.6918   -1.2118 C   0  0  0  0  0  0  0  0  0  0  0  0
   11.2630    1.5293   -0.4891 C   0  0  0  0  0  0  0  0  0  0  0  0
   12.4566    0.8335   -0.7495 C   0  0  0  0  0  0  0  0  0  0  0  0
   12.7904   -0.3138   -0.0316 C   0  0  0  0  0  0  0  0  0  0  0  0
   11.9277   -0.7865    0.9471 C   0  0  0  0  0  0  0  0  0  0  0  0
   10.7323   -0.1124    1.2100 C   0  0  0  0  0  0  0  0  0  0  0  0
   10.3695    1.0609    0.5118 C   0  0  0  0  0  0  0  0  0  0  0  0
    6.4550   -0.1304    2.6376 C   0  0  0  0  0  0  0  0  0  0  0  0
    5.2081    0.7831    2.6341 C   0  0  0  0  0  0  0  0  0  0  0  0
    2.8038    1.6882   -0.6853 H   0  0  0  0  0  0  0  0  0  0  0  0
    3.0809   -0.0848   -0.7819 H   0  0  0  0  0  0  0  0  0  0  0  0
    5.8252    2.1294    0.2793 H   0  0  0  0  0  0  0  0  0  0  0  0
    5.0133    0.9797   -0.7707 H   0  0  0  0  0  0  0  0  0  0  0  0
    7.3935    0.3293   -0.5761 H   0  0  0  0  0  0  0  0  0  0  0  0
    6.3481   -0.8901    0.0932 H   0  0  0  0  0  0  0  0  0  0  0  0
    8.7077    1.3004    2.7693 H   0  0  0  0  0  0  0  0  0  0  0  0
    7.4687    2.2288    1.9748 H   0  0  0  0  0  0  0  0  0  0  0  0
    8.0286    3.5613    0.2229 H   0  0  0  0  0  0  0  0  0  0  0  0
    9.5949    4.3248   -1.5080 H   0  0  0  0  0  0  0  0  0  0  0  0
   11.6434    3.0526   -1.9809 H   0  0  0  0  0  0  0  0  0  0  0  0
   13.1448    1.1884   -1.5142 H   0  0  0  0  0  0  0  0  0  0  0  0
   13.7221   -0.8339   -0.2375 H   0  0  0  0  0  0  0  0  0  0  0  0
   12.1795   -1.6810    1.5111 H   0  0  0  0  0  0  0  0  0  0  0  0
   10.0783   -0.5212    1.9766 H   0  0  0  0  0  0  0  0  0  0  0  0
    6.9495   -0.0842    3.6150 H   0  0  0  0  0  0  0  0  0  0  0  0
    6.1169   -1.1695    2.5255 H   0  0  0  0  0  0  0  0  0  0  0  0
    5.4771    1.8118    2.9008 H   0  0  0  0  0  0  0  0  0  0  0  0
    4.5018    0.4303    3.3921 H   0  0  0  0  0  0  0  0  0  0  0  0
  1  2  1  0  0  0  0
  2  3  1  0  0  0  0
  2 22  1  0  0  0  0
  2 23  1  0  0  0  0
  3  4  2  0  0  0  0
  3  5  1  0  0  0  0
  5  6  1  0  0  0  0
  5 21  1  0  0  0  0
  6  7  1  0  0  0  0
  6 24  1  0  0  0  0
  6 25  1  0  0  0  0
  7  8  1  0  0  0  0
  7 26  1  0  0  0  0
  7 27  1  0  0  0  0
  8  9  1  0  0  0  0
  8 20  1  0  0  0  0
  9 10  1  0  0  0  0
  9 28  1  0  0  0  0
  9 29  1  0  0  0  0
 10 11  1  0  0  0  0
 10 19  2  0  0  0  0
 11 12  2  0  0  0  0
 11 30  1  0  0  0  0
 12 13  1  0  0  0  0
 12 31  1  0  0  0  0
 13 14  2  0  0  0  0
 13 32  1  0  0  0  0
 14 15  1  0  0  0  0
 14 19  1  0  0  0  0
 15 16  2  0  0  0  0
 15 33  1  0  0  0  0
 16 17  1  0  0  0  0
 16 34  1  0  0  0  0
 17 18  2  0  0  0  0
 17 35  1  0  0  0  0
 18 19  1  0  0  0  0
 18 36  1  0  0  0  0
 20 21  1  0  0  0  0
 20 37  1  0  0  0  0
 20 38  1  0  0  0  0
 21 39  1  0  0  0  0
 21 40  1  0  0  0  0
M  END
$$$$
