
 OpenBabel07202414193D

 51 55  0  0  1  0  0  0  0  0999 V2000
    1.3669    0.0308    0.1034 O   0  0  0  0  0  0  0  0  0  0  0  0
    2.3522    0.1501   -0.6254 C   0  0  0  0  0  0  0  0  0  0  0  0
    2.6100   -0.7932   -1.8038 C   0  0  0  0  0  0  0  0  0  0  0  0
    2.1154   -2.2062   -1.6827 C   0  0  0  0  0  0  0  0  0  0  0  0
    1.1843   -2.6492   -2.6227 C   0  0  0  0  0  0  0  0  0  0  0  0
    0.7118   -3.9059   -2.6975 N   0  0  0  0  0  0  0  0  0  0  0  0
    1.1745   -4.7687   -1.7690 C   0  0  0  0  0  0  0  0  0  0  0  0
    2.1095   -4.4555   -0.7805 C   0  0  0  0  0  0  0  0  0  0  0  0
    2.5380   -5.4159    0.1521 C   0  0  0  0  0  0  0  0  0  0  0  0
    3.5008   -5.0980    1.1072 C   0  0  0  0  0  0  0  0  0  0  0  0
    4.0605   -3.8261    1.1232 C   0  0  0  0  0  0  0  0  0  0  0  0
    3.6320   -2.8597    0.2073 C   0  0  0  0  0  0  0  0  0  0  0  0
    2.6258   -3.1423   -0.7482 C   0  0  0  0  0  0  0  0  0  0  0  0
    3.2320    1.2348   -0.5285 N   0  0  0  0  0  0  0  0  0  0  0  0
    4.4260    1.3021   -1.3668 C   0  0  0  0  0  0  0  0  0  0  0  0
    5.3900    2.3864   -0.9955 C   0  0  0  0  0  0  0  0  0  0  0  0
    6.7635    2.1598   -1.0599 C   0  0  0  0  0  0  0  0  0  0  0  0
    7.6385    3.1831   -0.7184 C   0  0  0  0  0  0  0  0  0  0  0  0
    7.1417    4.4372   -0.3592 C   0  0  0  0  0  0  0  0  0  0  0  0
    5.7689    4.6670   -0.3110 C   0  0  0  0  0  0  0  0  0  0  0  0
    4.8844    3.6285   -0.6026 C   0  0  0  0  0  0  0  0  0  0  0  0
    3.3854    3.7486   -0.4602 C   0  0  0  0  0  0  0  0  0  0  0  0
    2.8058    2.4610    0.1958 C   0  0  2  0  0  0  0  0  0  0  0  0
    3.0857    2.4438    1.7014 C   0  0  0  0  0  0  0  0  0  0  0  0
    2.1946    3.0978    2.5729 C   0  0  0  0  0  0  0  0  0  0  0  0
    2.4411    3.1533    3.9494 C   0  0  0  0  0  0  0  0  0  0  0  0
    3.5886    2.5716    4.4756 C   0  0  0  0  0  0  0  0  0  0  0  0
    4.4918    1.9342    3.6278 C   0  0  0  0  0  0  0  0  0  0  0  0
    4.2415    1.8725    2.2525 C   0  0  0  0  0  0  0  0  0  0  0  0
    3.6632   -0.8859   -2.0686 H   0  0  0  0  0  0  0  0  0  0  0  0
    2.1321   -0.2976   -2.6599 H   0  0  0  0  0  0  0  0  0  0  0  0
    0.7988   -1.9824   -3.3908 H   0  0  0  0  0  0  0  0  0  0  0  0
    0.7627   -5.7705   -1.8537 H   0  0  0  0  0  0  0  0  0  0  0  0
    2.1173   -6.4188    0.1403 H   0  0  0  0  0  0  0  0  0  0  0  0
    3.8131   -5.8428    1.8342 H   0  0  0  0  0  0  0  0  0  0  0  0
    4.8240   -3.5785    1.8568 H   0  0  0  0  0  0  0  0  0  0  0  0
    4.0971   -1.8788    0.2586 H   0  0  0  0  0  0  0  0  0  0  0  0
    4.0975    1.4514   -2.4030 H   0  0  0  0  0  0  0  0  0  0  0  0
    4.9474    0.3429   -1.2936 H   0  0  0  0  0  0  0  0  0  0  0  0
    7.1584    1.1858   -1.3452 H   0  0  0  0  0  0  0  0  0  0  0  0
    8.7084    3.0029   -0.7328 H   0  0  0  0  0  0  0  0  0  0  0  0
    7.8326    5.2329   -0.1016 H   0  0  0  0  0  0  0  0  0  0  0  0
    5.3948    5.6399   -0.0061 H   0  0  0  0  0  0  0  0  0  0  0  0
    2.9598    3.8671   -1.4665 H   0  0  0  0  0  0  0  0  0  0  0  0
    3.1141    4.6415    0.1150 H   0  0  0  0  0  0  0  0  0  0  0  0
    1.7133    2.5109    0.0850 H   0  0  0  0  0  0  0  0  0  0  0  0
    1.2951    3.5724    2.1867 H   0  0  0  0  0  0  0  0  0  0  0  0
    1.7374    3.6588    4.6068 H   0  0  0  0  0  0  0  0  0  0  0  0
    3.7821    2.6151    5.5453 H   0  0  0  0  0  0  0  0  0  0  0  0
    5.3965    1.4912    4.0336 H   0  0  0  0  0  0  0  0  0  0  0  0
    4.9742    1.3832    1.6190 H   0  0  0  0  0  0  0  0  0  0  0  0
  1  2  2  0  0  0  0
  2  3  1  0  0  0  0
  2 14  1  0  0  0  0
  3  4  1  0  0  0  0
  3 30  1  0  0  0  0
  3 31  1  0  0  0  0
  4  5  1  0  0  0  0
  4 13  2  0  0  0  0
  5  6  2  0  0  0  0
  5 32  1  0  0  0  0
  6  7  1  0  0  0  0
  7  8  2  0  0  0  0
  7 33  1  0  0  0  0
  8  9  1  0  0  0  0
  8 13  1  0  0  0  0
  9 10  2  0  0  0  0
  9 34  1  0  0  0  0
 10 11  1  0  0  0  0
 10 35  1  0  0  0  0
 11 12  2  0  0  0  0
 11 36  1  0  0  0  0
 12 13  1  0  0  0  0
 12 37  1  0  0  0  0
 14 15  1  0  0  0  0
 14 23  1  0  0  0  0
 15 16  1  0  0  0  0
 15 38  1  0  0  0  0
 15 39  1  0  0  0  0
 16 17  1  0  0  0  0
 16 21  2  0  0  0  0
 17 18  2  0  0  0  0
 17 40  1  0  0  0  0
 18 19  1  0  0  0  0
 18 41  1  0  0  0  0
 19 20  2  0  0  0  0
 19 42  1  0  0  0  0
 20 21  1  0  0  0  0
 20 43  1  0  0  0  0
 21 22  1  0  0  0  0
 22 23  1  0  0  0  0
 22 44  1  0  0  0  0
 22 45  1  0  0  0  0
 23 24  1  0  0  0  0
 23 46  1  6  0  0  0
 24 25  1  0  0  0  0
 24 29  2  0  0  0  0
 25 26  2  0  0  0  0
 25 47  1  0  0  0  0
 26 27  1  0  0  0  0
 26 48  1  0  0  0  0
 27 28  2  0  0  0  0
 27 49  1  0  0  0  0
 28 29  1  0  0  0  0
 28 50  1  0  0  0  0
 29 51  1  0  0  0  0
M  END
$$$$
