
 OpenBabel07202414133D

 55 58  0  0  1  0  0  0  0  0999 V2000
   11.5034   -0.2675   -3.6000 C   0  0  0  0  0  0  0  0  0  0  0  0
   10.8540   -1.1674   -2.5604 C   0  0  0  0  0  0  0  0  0  0  0  0
   10.2137   -0.3746   -1.4256 C   0  0  0  0  0  0  0  0  0  0  0  0
    9.0695    0.3925   -1.8662 N   0  0  0  0  0  0  0  0  0  0  0  0
    7.8282   -0.1844   -2.0018 C   0  0  0  0  0  0  0  0  0  0  0  0
    7.6046   -1.3738   -1.7751 O   0  0  0  0  0  0  0  0  0  0  0  0
    6.7187    0.7711   -2.4233 C   0  0  0  0  0  0  0  0  0  0  0  0
    6.8274    1.2905   -3.7843 N   0  0  0  0  0  0  0  0  0  0  0  0
    6.5592    0.4036   -4.9100 C   0  0  0  0  0  0  0  0  0  0  0  0
    5.5823    1.0382   -5.8979 C   0  0  3  0  0  0  0  0  0  0  0  0
    4.1415    0.8044   -5.4311 C   0  0  0  0  0  0  0  0  0  0  0  0
    3.5081   -0.1446   -5.8888 O   0  0  0  0  0  0  0  0  0  0  0  0
    3.6839    1.6810   -4.4625 N   0  0  0  0  0  0  0  0  0  0  0  0
    2.3587    1.7925   -3.9622 C   0  0  0  0  0  0  0  0  0  0  0  0
    1.3219    0.9489   -4.3630 C   0  0  0  0  0  0  0  0  0  0  0  0
    0.0173    1.1375   -4.0567 N   0  0  0  0  0  0  0  0  0  0  0  0
   -0.2719    2.1923   -3.2709 C   0  0  0  0  0  0  0  0  0  0  0  0
    0.6798    3.0390   -2.7084 C   0  0  0  0  0  0  0  0  0  0  0  0
    0.3019    4.0506   -1.8065 C   0  0  0  0  0  0  0  0  0  0  0  0
    1.2588    4.8753   -1.2206 C   0  0  0  0  0  0  0  0  0  0  0  0
    2.5978    4.7111   -1.5448 C   0  0  0  0  0  0  0  0  0  0  0  0
    2.9828    3.7180   -2.4506 C   0  0  0  0  0  0  0  0  0  0  0  0
    2.0389    2.8442   -3.0530 C   0  0  0  0  0  0  0  0  0  0  0  0
    5.9441    2.4917   -6.1611 C   0  0  0  0  0  0  0  0  0  0  0  0
    5.3968    3.1614   -7.2690 C   0  0  0  0  0  0  0  0  0  0  0  0
    5.7182    4.4984   -7.5104 C   0  0  0  0  0  0  0  0  0  0  0  0
    5.0218    5.3135   -8.8552 Cl  0  0  0  0  0  0  0  0  0  0  0  0
    6.5899    5.1818   -6.6647 C   0  0  0  0  0  0  0  0  0  0  0  0
    7.1370    4.5306   -5.5570 C   0  0  0  0  0  0  0  0  0  0  0  0
    6.8133    3.1925   -5.2967 C   0  0  0  0  0  0  0  0  0  0  0  0
    7.2723    2.5785   -4.0117 C   0  0  0  0  0  0  0  0  0  0  0  0
    7.8887    3.2317   -3.1791 O   0  0  0  0  0  0  0  0  0  0  0  0
   11.9205   -0.8709   -4.4121 H   0  0  0  0  0  0  0  0  0  0  0  0
   12.3176    0.3132   -3.1553 H   0  0  0  0  0  0  0  0  0  0  0  0
   10.7798    0.4289   -4.0342 H   0  0  0  0  0  0  0  0  0  0  0  0
   11.6182   -1.8332   -2.1424 H   0  0  0  0  0  0  0  0  0  0  0  0
   10.1072   -1.8036   -3.0494 H   0  0  0  0  0  0  0  0  0  0  0  0
   10.9287    0.3198   -0.9750 H   0  0  0  0  0  0  0  0  0  0  0  0
    9.8819   -1.0669   -0.6418 H   0  0  0  0  0  0  0  0  0  0  0  0
    9.1876    1.3650   -2.1564 H   0  0  0  0  0  0  0  0  0  0  0  0
    6.6987    1.6059   -1.7135 H   0  0  0  0  0  0  0  0  0  0  0  0
    5.7547    0.2581   -2.3417 H   0  0  0  0  0  0  0  0  0  0  0  0
    6.2046   -0.5678   -4.5498 H   0  0  0  0  0  0  0  0  0  0  0  0
    7.5240    0.2397   -5.4111 H   0  0  0  0  0  0  0  0  0  0  0  0
    5.6824    0.5020   -6.8525 H   0  0  0  0  0  0  0  0  0  0  0  0
    4.3255    2.4048   -4.1778 H   0  0  0  0  0  0  0  0  0  0  0  0
    1.4861    0.0642   -4.9681 H   0  0  0  0  0  0  0  0  0  0  0  0
   -1.3350    2.3389   -3.0937 H   0  0  0  0  0  0  0  0  0  0  0  0
   -0.7439    4.1864   -1.5360 H   0  0  0  0  0  0  0  0  0  0  0  0
    0.9594    5.6351   -0.5036 H   0  0  0  0  0  0  0  0  0  0  0  0
    3.3505    5.3504   -1.0888 H   0  0  0  0  0  0  0  0  0  0  0  0
    4.0474    3.6238   -2.6421 H   0  0  0  0  0  0  0  0  0  0  0  0
    4.7103    2.6459   -7.9396 H   0  0  0  0  0  0  0  0  0  0  0  0
    6.8323    6.2257   -6.8506 H   0  0  0  0  0  0  0  0  0  0  0  0
    7.7925    5.0801   -4.8831 H   0  0  0  0  0  0  0  0  0  0  0  0
  1  2  1  0  0  0  0
  1 33  1  0  0  0  0
  1 34  1  0  0  0  0
  1 35  1  0  0  0  0
  2  3  1  0  0  0  0
  2 36  1  0  0  0  0
  2 37  1  0  0  0  0
  3  4  1  0  0  0  0
  3 38  1  0  0  0  0
  3 39  1  0  0  0  0
  4  5  1  0  0  0  0
  4 40  1  0  0  0  0
  5  6  2  0  0  0  0
  5  7  1  0  0  0  0
  7  8  1  0  0  0  0
  7 41  1  0  0  0  0
  7 42  1  0  0  0  0
  8  9  1  0  0  0  0
  8 31  1  0  0  0  0
  9 10  1  0  0  0  0
  9 43  1  0  0  0  0
  9 44  1  0  0  0  0
 10 11  1  0  0  0  0
 10 24  1  0  0  0  0
 10 45  1  0  0  0  0
 11 12  2  0  0  0  0
 11 13  1  0  0  0  0
 13 14  1  0  0  0  0
 13 46  1  0  0  0  0
 14 15  1  0  0  0  0
 14 23  2  0  0  0  0
 15 16  2  0  0  0  0
 15 47  1  0  0  0  0
 16 17  1  0  0  0  0
 17 18  2  0  0  0  0
 17 48  1  0  0  0  0
 18 19  1  0  0  0  0
 18 23  1  0  0  0  0
 19 20  2  0  0  0  0
 19 49  1  0  0  0  0
 20 21  1  0  0  0  0
 20 50  1  0  0  0  0
 21 22  2  0  0  0  0
 21 51  1  0  0  0  0
 22 23  1  0  0  0  0
 22 52  1  0  0  0  0
 24 25  1  0  0  0  0
 24 30  2  0  0  0  0
 25 26  2  0  0  0  0
 25 53  1  0  0  0  0
 26 27  1  0  0  0  0
 26 28  1  0  0  0  0
 28 29  2  0  0  0  0
 28 54  1  0  0  0  0
 29 30  1  0  0  0  0
 29 55  1  0  0  0  0
 30 31  1  0  0  0  0
 31 32  2  0  0  0  0
M  END
$$$$
