
 OpenBabel07202414123D

 41 43  0  0  0  0  0  0  0  0999 V2000
    0.9365    0.1356   -0.1608 C   0  0  0  0  0  0  0  0  0  0  0  0
    2.4823    0.1046   -0.0807 C   0  0  0  0  0  0  0  0  0  0  0  0
    3.0108    1.5268   -0.3745 C   0  0  0  0  0  0  0  0  0  0  0  0
    2.9269   -0.3198    1.2625 N   0  0  0  0  0  0  0  0  0  0  0  0
    2.5667    0.3373    2.4328 C   0  0  0  0  0  0  0  0  0  0  0  0
    1.8353    1.3193    2.4482 O   0  0  0  0  0  0  0  0  0  0  0  0
    3.1022   -0.2104    3.7111 C   0  0  0  0  0  0  0  0  0  0  0  0
    3.2851   -1.5881    3.8091 C   0  0  0  0  0  0  0  0  0  0  0  0
    3.7601   -2.2259    4.8999 N   0  0  0  0  0  0  0  0  0  0  0  0
    4.0413   -1.4495    5.9670 C   0  0  0  0  0  0  0  0  0  0  0  0
    3.8694   -0.0638    6.0125 C   0  0  0  0  0  0  0  0  0  0  0  0
    4.1745    0.6601    7.1795 C   0  0  0  0  0  0  0  0  0  0  0  0
    3.9853    2.0384    7.2356 C   0  0  0  0  0  0  0  0  0  0  0  0
    3.4888    2.7070    6.1260 C   0  0  0  0  0  0  0  0  0  0  0  0
    3.1951    1.9988    4.9551 C   0  0  0  0  0  0  0  0  0  0  0  0
    3.3747    0.5917    4.8578 C   0  0  0  0  0  0  0  0  0  0  0  0
    2.9792   -0.9328   -1.1217 C   0  0  0  0  0  0  0  0  0  0  0  0
    3.8283   -0.5935   -2.1918 C   0  0  0  0  0  0  0  0  0  0  0  0
    4.1598   -1.5209   -3.1856 C   0  0  0  0  0  0  0  0  0  0  0  0
    3.6613   -2.8184   -3.1274 C   0  0  0  0  0  0  0  0  0  0  0  0
    2.8529   -3.1998   -2.0566 C   0  0  0  0  0  0  0  0  0  0  0  0
    2.3363   -4.5370   -1.9892 C   0  0  0  0  0  0  0  0  0  0  0  0
    1.9160   -5.6152   -1.9355 N   0  0  0  0  0  0  0  0  0  0  0  0
    2.5260   -2.2683   -1.0591 C   0  0  0  0  0  0  0  0  0  0  0  0
    0.5024    0.9073    0.4814 H   0  0  0  0  0  0  0  0  0  0  0  0
    0.4922   -0.8155    0.1556 H   0  0  0  0  0  0  0  0  0  0  0  0
    0.5969    0.3382   -1.1831 H   0  0  0  0  0  0  0  0  0  0  0  0
    2.6341    2.2668    0.3380 H   0  0  0  0  0  0  0  0  0  0  0  0
    2.7058    1.8704   -1.3702 H   0  0  0  0  0  0  0  0  0  0  0  0
    4.1053    1.5650   -0.3161 H   0  0  0  0  0  0  0  0  0  0  0  0
    3.6661   -1.0096    1.2910 H   0  0  0  0  0  0  0  0  0  0  0  0
    3.0255   -2.2586    2.9949 H   0  0  0  0  0  0  0  0  0  0  0  0
    4.4140   -1.9962    6.8301 H   0  0  0  0  0  0  0  0  0  0  0  0
    4.5576    0.1493    8.0613 H   0  0  0  0  0  0  0  0  0  0  0  0
    4.2193    2.5863    8.1448 H   0  0  0  0  0  0  0  0  0  0  0  0
    3.3233    3.7813    6.1650 H   0  0  0  0  0  0  0  0  0  0  0  0
    2.8026    2.5717    4.1166 H   0  0  0  0  0  0  0  0  0  0  0  0
    4.2351    0.4092   -2.2998 H   0  0  0  0  0  0  0  0  0  0  0  0
    4.7944   -1.2192   -4.0167 H   0  0  0  0  0  0  0  0  0  0  0  0
    3.9037   -3.5226   -3.9212 H   0  0  0  0  0  0  0  0  0  0  0  0
    1.8806   -2.5842   -0.2398 H   0  0  0  0  0  0  0  0  0  0  0  0
  1  2  1  0  0  0  0
  1 25  1  0  0  0  0
  1 26  1  0  0  0  0
  1 27  1  0  0  0  0
  2  3  1  0  0  0  0
  2  4  1  0  0  0  0
  2 17  1  0  0  0  0
  3 28  1  0  0  0  0
  3 29  1  0  0  0  0
  3 30  1  0  0  0  0
  4  5  1  0  0  0  0
  4 31  1  0  0  0  0
  5  6  2  0  0  0  0
  5  7  1  0  0  0  0
  7  8  1  0  0  0  0
  7 16  2  0  0  0  0
  8  9  2  0  0  0  0
  8 32  1  0  0  0  0
  9 10  1  0  0  0  0
 10 11  2  0  0  0  0
 10 33  1  0  0  0  0
 11 12  1  0  0  0  0
 11 16  1  0  0  0  0
 12 13  2  0  0  0  0
 12 34  1  0  0  0  0
 13 14  1  0  0  0  0
 13 35  1  0  0  0  0
 14 15  2  0  0  0  0
 14 36  1  0  0  0  0
 15 16  1  0  0  0  0
 15 37  1  0  0  0  0
 17 18  1  0  0  0  0
 17 24  2  0  0  0  0
 18 19  2  0  0  0  0
 18 38  1  0  0  0  0
 19 20  1  0  0  0  0
 19 39  1  0  0  0  0
 20 21  2  0  0  0  0
 20 40  1  0  0  0  0
 21 22  1  0  0  0  0
 21 24  1  0  0  0  0
 22 23  3  0  0  0  0
 24 41  1  0  0  0  0
M  END
$$$$
