
 OpenBabel07202414203D

 46 49  0  0  1  0  0  0  0  0999 V2000
    1.6383   -1.9564    0.6188 C   0  0  0  0  0  0  0  0  0  0  0  0
    1.0851   -1.2630   -0.4505 C   0  0  0  0  0  0  0  0  0  0  0  0
    1.0558    0.1371   -0.4430 C   0  0  0  0  0  0  0  0  0  0  0  0
    1.5844    0.8823    0.6366 C   0  0  0  0  0  0  0  0  0  0  0  0
    2.1062    0.1492    1.7309 C   0  0  0  0  0  0  0  0  0  0  0  0
    2.1378   -1.2542    1.7102 C   0  0  0  0  0  0  0  0  0  0  0  0
    2.5923    0.8727    2.8229 C   0  0  0  0  0  0  0  0  0  0  0  0
    2.6053    2.2225    2.9136 N   0  0  0  0  0  0  0  0  0  0  0  0
    2.1301    2.8990    1.8488 C   0  0  0  0  0  0  0  0  0  0  0  0
    1.6335    2.3026    0.6879 C   0  0  0  0  0  0  0  0  0  0  0  0
    1.2206    3.2174   -0.4360 C   0  0  0  0  0  0  0  0  0  0  0  0
   -0.2367    3.6328   -0.3668 C   0  0  0  0  0  0  0  0  0  0  0  0
   -1.1281    2.8515   -0.6876 O   0  0  0  0  0  0  0  0  0  0  0  0
   -0.4388    4.9580    0.0139 N   0  0  0  0  0  0  0  0  0  0  0  0
   -1.7332    5.5196    0.0827 C   0  0  0  0  0  0  0  0  0  0  0  0
   -2.8110    4.8079    0.6173 C   0  0  0  0  0  0  0  0  0  0  0  0
   -4.1054    5.3367    0.6034 C   0  0  0  0  0  0  0  0  0  0  0  0
   -4.3315    6.5713    0.0039 C   0  0  0  0  0  0  0  0  0  0  0  0
   -3.2473    7.2949   -0.5023 C   0  0  0  0  0  0  0  0  0  0  0  0
   -1.9438    6.7989   -0.4267 C   0  0  0  0  0  0  0  0  0  0  0  0
   -3.5304    8.8039   -1.2855 Cl  0  0  0  0  0  0  0  0  0  0  0  0
   -5.0491    4.5273    1.1662 O   0  0  0  0  0  0  0  0  0  0  0  0
   -6.2688    5.0973    1.6024 C   0  0  3  0  0  0  0  0  0  0  0  0
   -6.1175    6.0001    2.8214 C   0  0  0  0  0  0  0  0  0  0  0  0
   -7.3469    5.7082    3.6757 C   0  0  0  0  0  0  0  0  0  0  0  0
   -7.7315    4.3167    3.2545 C   0  0  0  0  0  0  0  0  0  0  0  0
   -8.5290    3.5886    3.8168 O   0  0  0  0  0  0  0  0  0  0  0  0
   -7.0668    4.0192    2.0922 N   0  0  0  0  0  0  0  0  0  0  0  0
    1.6720   -3.0427    0.6103 H   0  0  0  0  0  0  0  0  0  0  0  0
    0.6720   -1.8106   -1.2947 H   0  0  0  0  0  0  0  0  0  0  0  0
    0.5907    0.6349   -1.2915 H   0  0  0  0  0  0  0  0  0  0  0  0
    2.5575   -1.8049    2.5470 H   0  0  0  0  0  0  0  0  0  0  0  0
    3.0013    0.3625    3.6910 H   0  0  0  0  0  0  0  0  0  0  0  0
    2.1709    3.9753    1.9540 H   0  0  0  0  0  0  0  0  0  0  0  0
    1.3964    2.7483   -1.4098 H   0  0  0  0  0  0  0  0  0  0  0  0
    1.8672    4.1056   -0.4434 H   0  0  0  0  0  0  0  0  0  0  0  0
    0.3311    5.6004   -0.1278 H   0  0  0  0  0  0  0  0  0  0  0  0
   -2.6520    3.8282    1.0655 H   0  0  0  0  0  0  0  0  0  0  0  0
   -5.3306    6.9782   -0.1048 H   0  0  0  0  0  0  0  0  0  0  0  0
   -1.1241    7.3758   -0.8443 H   0  0  0  0  0  0  0  0  0  0  0  0
   -6.8294    5.5606    0.7826 H   0  0  0  0  0  0  0  0  0  0  0  0
   -6.0578    7.0584    2.5477 H   0  0  0  0  0  0  0  0  0  0  0  0
   -5.2047    5.7595    3.3804 H   0  0  0  0  0  0  0  0  0  0  0  0
   -8.1711    6.3906    3.4499 H   0  0  0  0  0  0  0  0  0  0  0  0
   -7.1088    5.7389    4.7421 H   0  0  0  0  0  0  0  0  0  0  0  0
   -7.1948    3.1404    1.6108 H   0  0  0  0  0  0  0  0  0  0  0  0
  1  2  1  0  0  0  0
  1  6  2  0  0  0  0
  1 29  1  0  0  0  0
  2  3  2  0  0  0  0
  2 30  1  0  0  0  0
  3  4  1  0  0  0  0
  3 31  1  0  0  0  0
  4  5  1  0  0  0  0
  4 10  2  0  0  0  0
  5  6  1  0  0  0  0
  5  7  2  0  0  0  0
  6 32  1  0  0  0  0
  7  8  1  0  0  0  0
  7 33  1  0  0  0  0
  8  9  2  0  0  0  0
  9 10  1  0  0  0  0
  9 34  1  0  0  0  0
 10 11  1  0  0  0  0
 11 12  1  0  0  0  0
 11 35  1  0  0  0  0
 11 36  1  0  0  0  0
 12 13  2  0  0  0  0
 12 14  1  0  0  0  0
 14 15  1  0  0  0  0
 14 37  1  0  0  0  0
 15 16  1  0  0  0  0
 15 20  2  0  0  0  0
 16 17  2  0  0  0  0
 16 38  1  0  0  0  0
 17 18  1  0  0  0  0
 17 22  1  0  0  0  0
 18 19  2  0  0  0  0
 18 39  1  0  0  0  0
 19 20  1  0  0  0  0
 19 21  1  0  0  0  0
 20 40  1  0  0  0  0
 22 23  1  0  0  0  0
 23 24  1  0  0  0  0
 23 28  1  0  0  0  0
 23 41  1  0  0  0  0
 24 25  1  0  0  0  0
 24 42  1  0  0  0  0
 24 43  1  0  0  0  0
 25 26  1  0  0  0  0
 25 44  1  0  0  0  0
 25 45  1  0  0  0  0
 26 27  2  0  0  0  0
 26 28  1  0  0  0  0
 28 46  1  0  0  0  0
M  END
$$$$
