
 OpenBabel07202414173D

 60 65  0  0  1  0  0  0  0  0999 V2000
    0.9718    0.3530    0.0773 Cl  0  0  0  0  0  0  0  0  0  0  0  0
    2.6897    0.2802    0.0342 C   0  0  0  0  0  0  0  0  0  0  0  0
    3.4527    1.4387   -0.0227 C   0  0  0  0  0  0  0  0  0  0  0  0
    4.8490    1.3573   -0.0584 C   0  0  0  0  0  0  0  0  0  0  0  0
    5.4874    0.1057    0.0000 C   0  0  0  0  0  0  0  0  0  0  0  0
    4.7237   -1.0638    0.0965 C   0  0  0  0  0  0  0  0  0  0  0  0
    3.3144   -0.9632    0.0892 C   0  0  0  0  0  0  0  0  0  0  0  0
    5.4051   -2.4233    0.2560 C   0  0  3  0  0  0  0  0  0  0  0  0
    6.9233   -2.3360    0.0898 C   0  0  0  0  0  0  0  0  0  0  0  0
    7.4882   -1.1115    0.6075 N   0  0  0  0  0  0  0  0  0  0  0  0
    8.8549   -1.1324    1.1073 C   0  0  0  0  0  0  0  0  0  0  0  0
    9.8794   -1.5605    0.0728 C   0  0  0  0  0  0  0  0  0  0  0  0
   10.1157   -2.7618   -0.1626 O   0  0  0  0  0  0  0  0  0  0  0  0
   10.4550   -0.5305   -0.6327 N   0  0  0  0  0  0  0  0  0  0  0  0
   11.4381   -0.7871   -1.6522 C   0  0  0  0  0  0  0  0  0  0  0  0
   10.7892   -0.9991   -2.9832 C   0  0  0  0  0  0  0  0  0  0  0  0
   11.6706   -1.3073   -4.1695 C   0  0  0  0  0  0  0  0  0  0  0  0
   10.9283   -0.0024   -4.1064 C   0  0  0  0  0  0  0  0  0  0  0  0
    6.9811    0.0577    0.0593 C   0  0  0  0  0  0  0  0  0  0  0  0
    7.6785    0.9959   -0.3061 O   0  0  0  0  0  0  0  0  0  0  0  0
    4.9008   -3.3996   -0.8058 C   0  0  0  0  0  0  0  0  0  0  0  0
    3.9987   -4.3476   -0.0775 C   0  0  0  0  0  0  0  0  0  0  0  0
    3.8539   -3.8959    1.2590 N   0  0  0  0  0  0  0  0  0  0  0  0
    2.8510   -4.4027    2.1494 C   0  0  0  0  0  0  0  0  0  0  0  0
    2.6694   -3.7876    3.3926 C   0  0  0  0  0  0  0  0  0  0  0  0
    1.9975   -4.3476    4.4167 N   0  0  0  0  0  0  0  0  0  0  0  0
    1.3706   -5.5060    4.1449 C   0  0  0  0  0  0  0  0  0  0  0  0
    1.1535   -6.0070    2.8662 C   0  0  0  0  0  0  0  0  0  0  0  0
    0.1618   -6.9894    2.6326 C   0  0  0  0  0  0  0  0  0  0  0  0
   -0.0180   -7.5530    1.3741 C   0  0  0  0  0  0  0  0  0  0  0  0
    0.8430   -7.1960    0.3628 C   0  0  0  0  0  0  0  0  0  0  0  0
    1.8122   -6.2180    0.5962 C   0  0  0  0  0  0  0  0  0  0  0  0
    1.9690   -5.5113    1.8316 C   0  0  0  0  0  0  0  0  0  0  0  0
    4.9189   -3.0353    1.5895 C   0  0  0  0  0  0  0  0  0  0  0  0
    5.3166   -2.7101    2.6993 O   0  0  0  0  0  0  0  0  0  0  0  0
    2.9619    2.4102   -0.0188 H   0  0  0  0  0  0  0  0  0  0  0  0
    5.4397    2.2663   -0.0931 H   0  0  0  0  0  0  0  0  0  0  0  0
    2.6825   -1.8432    0.1573 H   0  0  0  0  0  0  0  0  0  0  0  0
    7.1557   -2.3048   -0.9890 H   0  0  0  0  0  0  0  0  0  0  0  0
    7.4369   -3.2145    0.4992 H   0  0  0  0  0  0  0  0  0  0  0  0
    8.9031   -1.8308    1.9517 H   0  0  0  0  0  0  0  0  0  0  0  0
    9.1157   -0.1417    1.4913 H   0  0  0  0  0  0  0  0  0  0  0  0
   10.0460    0.4040   -0.5506 H   0  0  0  0  0  0  0  0  0  0  0  0
   11.9936   -1.6897   -1.3762 H   0  0  0  0  0  0  0  0  0  0  0  0
   12.1379    0.0539   -1.6612 H   0  0  0  0  0  0  0  0  0  0  0  0
    9.8652   -1.5636   -2.9104 H   0  0  0  0  0  0  0  0  0  0  0  0
   11.3291   -2.0686   -4.8624 H   0  0  0  0  0  0  0  0  0  0  0  0
   12.7465   -1.2905   -4.0346 H   0  0  0  0  0  0  0  0  0  0  0  0
   10.0864    0.1278   -4.7766 H   0  0  0  0  0  0  0  0  0  0  0  0
   11.5070    0.8993   -3.9417 H   0  0  0  0  0  0  0  0  0  0  0  0
    5.6911   -3.9688   -1.3078 H   0  0  0  0  0  0  0  0  0  0  0  0
    4.3456   -2.8974   -1.6085 H   0  0  0  0  0  0  0  0  0  0  0  0
    4.4541   -5.3463   -0.0416 H   0  0  0  0  0  0  0  0  0  0  0  0
    3.0431   -4.3168   -0.5964 H   0  0  0  0  0  0  0  0  0  0  0  0
    3.0764   -2.8056    3.6249 H   0  0  0  0  0  0  0  0  0  0  0  0
    1.1015   -6.0905    5.0205 H   0  0  0  0  0  0  0  0  0  0  0  0
   -0.5224   -7.2779    3.4286 H   0  0  0  0  0  0  0  0  0  0  0  0
   -0.8086   -8.2731    1.1846 H   0  0  0  0  0  0  0  0  0  0  0  0
    0.7739   -7.6540   -0.6211 H   0  0  0  0  0  0  0  0  0  0  0  0
    2.4308   -6.0449   -0.2666 H   0  0  0  0  0  0  0  0  0  0  0  0
  1  2  1  0  0  0  0
  2  3  1  0  0  0  0
  2  7  2  0  0  0  0
  3  4  2  0  0  0  0
  3 36  1  0  0  0  0
  4  5  1  0  0  0  0
  4 37  1  0  0  0  0
  5  6  2  0  0  0  0
  5 19  1  0  0  0  0
  6  7  1  0  0  0  0
  6  8  1  0  0  0  0
  7 38  1  0  0  0  0
  8  9  1  0  0  0  0
  8 21  1  0  0  0  0
  8 34  1  0  0  0  0
  9 10  1  0  0  0  0
  9 39  1  0  0  0  0
  9 40  1  0  0  0  0
 10 11  1  0  0  0  0
 10 19  1  0  0  0  0
 11 12  1  0  0  0  0
 11 41  1  0  0  0  0
 11 42  1  0  0  0  0
 12 13  2  0  0  0  0
 12 14  1  0  0  0  0
 14 15  1  0  0  0  0
 14 43  1  0  0  0  0
 15 16  1  0  0  0  0
 15 44  1  0  0  0  0
 15 45  1  0  0  0  0
 16 17  1  0  0  0  0
 16 18  1  0  0  0  0
 16 46  1  0  0  0  0
 17 18  1  0  0  0  0
 17 47  1  0  0  0  0
 17 48  1  0  0  0  0
 18 49  1  0  0  0  0
 18 50  1  0  0  0  0
 19 20  2  0  0  0  0
 21 22  1  0  0  0  0
 21 51  1  0  0  0  0
 21 52  1  0  0  0  0
 22 23  1  0  0  0  0
 22 53  1  0  0  0  0
 22 54  1  0  0  0  0
 23 24  1  0  0  0  0
 23 34  1  0  0  0  0
 24 25  1  0  0  0  0
 24 33  2  0  0  0  0
 25 26  2  0  0  0  0
 25 55  1  0  0  0  0
 26 27  1  0  0  0  0
 27 28  2  0  0  0  0
 27 56  1  0  0  0  0
 28 29  1  0  0  0  0
 28 33  1  0  0  0  0
 29 30  2  0  0  0  0
 29 57  1  0  0  0  0
 30 31  1  0  0  0  0
 30 58  1  0  0  0  0
 31 32  2  0  0  0  0
 31 59  1  0  0  0  0
 32 33  1  0  0  0  0
 32 60  1  0  0  0  0
 34 35  2  0  0  0  0
M  END
$$$$
