
 OpenBabel07202414123D

 43 44  0  0  1  0  0  0  0  0999 V2000
    1.0116    0.2044   -0.2490 C   0  0  0  0  0  0  0  0  0  0  0  0
    2.5349   -0.0631   -0.1018 C   0  0  3  0  0  0  0  0  0  0  0  0
    2.6611   -0.7547    1.3002 C   0  0  0  0  0  0  0  0  0  0  0  0
    4.0520   -0.9155    1.9095 C   0  0  0  0  0  0  0  0  0  0  0  0
    4.0346   -1.5912    3.2625 C   0  0  0  0  0  0  0  0  0  0  0  0
    3.9976   -2.9933    3.3360 C   0  0  0  0  0  0  0  0  0  0  0  0
    4.0665   -3.6391    4.5703 C   0  0  0  0  0  0  0  0  0  0  0  0
    4.1591   -2.8895    5.7409 C   0  0  0  0  0  0  0  0  0  0  0  0
    4.1722   -1.4970    5.6777 C   0  0  0  0  0  0  0  0  0  0  0  0
    4.1079   -0.8472    4.4430 C   0  0  0  0  0  0  0  0  0  0  0  0
    3.0404   -0.8518   -1.2620 N   0  0  0  0  0  0  0  0  0  0  0  0
    4.4975   -1.0877   -1.3137 C   0  0  0  0  0  0  0  0  0  0  0  0
    5.3488    0.1676   -1.5599 C   0  0  0  0  0  0  0  0  0  0  0  0
    4.9610    0.8397   -2.8032 N   0  0  0  0  0  0  0  0  0  0  0  0
    3.5150    0.9551   -3.0346 C   0  0  0  0  0  0  0  0  0  0  0  0
    2.7024   -0.2879   -2.5993 C   0  0  0  0  0  0  0  0  0  0  0  0
    5.8199    1.6585   -3.5398 C   0  0  0  0  0  0  0  0  0  0  0  0
    5.3988    2.2808   -4.5206 O   0  0  0  0  0  0  0  0  0  0  0  0
    7.2613    1.7470   -3.0648 C   0  0  0  0  0  0  0  0  0  0  0  0
    8.2475    2.8064   -4.0951 Cl  0  0  0  0  0  0  0  0  0  0  0  0
    0.6201    0.7447    0.6215 H   0  0  0  0  0  0  0  0  0  0  0  0
    0.4545   -0.7377   -0.3266 H   0  0  0  0  0  0  0  0  0  0  0  0
    0.7664    0.8260   -1.1136 H   0  0  0  0  0  0  0  0  0  0  0  0
    3.0318    0.9139   -0.0572 H   0  0  0  0  0  0  0  0  0  0  0  0
    2.1551   -1.7276    1.2622 H   0  0  0  0  0  0  0  0  0  0  0  0
    2.0822   -0.1546    2.0205 H   0  0  0  0  0  0  0  0  0  0  0  0
    4.5615    0.0520    1.9717 H   0  0  0  0  0  0  0  0  0  0  0  0
    4.6897   -1.5580    1.3139 H   0  0  0  0  0  0  0  0  0  0  0  0
    3.9375   -3.5898    2.4287 H   0  0  0  0  0  0  0  0  0  0  0  0
    4.0577   -4.7244    4.6155 H   0  0  0  0  0  0  0  0  0  0  0  0
    4.2237   -3.3923    6.7011 H   0  0  0  0  0  0  0  0  0  0  0  0
    4.2447   -0.9148    6.5923 H   0  0  0  0  0  0  0  0  0  0  0  0
    4.1368    0.2388    4.4094 H   0  0  0  0  0  0  0  0  0  0  0  0
    4.6895   -1.7869   -2.1392 H   0  0  0  0  0  0  0  0  0  0  0  0
    4.8701   -1.6388   -0.4619 H   0  0  0  0  0  0  0  0  0  0  0  0
    6.4004   -0.1279   -1.6031 H   0  0  0  0  0  0  0  0  0  0  0  0
    5.2497    0.8952   -0.7449 H   0  0  0  0  0  0  0  0  0  0  0  0
    3.3280    1.1476   -4.0963 H   0  0  0  0  0  0  0  0  0  0  0  0
    3.1764    1.8346   -2.4769 H   0  0  0  0  0  0  0  0  0  0  0  0
    2.8964   -1.0825   -3.3346 H   0  0  0  0  0  0  0  0  0  0  0  0
    1.6327   -0.0934   -2.7137 H   0  0  0  0  0  0  0  0  0  0  0  0
    7.7292    0.7607   -3.0777 H   0  0  0  0  0  0  0  0  0  0  0  0
    7.2801    2.1663   -2.0554 H   0  0  0  0  0  0  0  0  0  0  0  0
  1  2  1  0  0  0  0
  1 21  1  0  0  0  0
  1 22  1  0  0  0  0
  1 23  1  0  0  0  0
  2  3  1  0  0  0  0
  2 11  1  0  0  0  0
  2 24  1  0  0  0  0
  3  4  1  0  0  0  0
  3 25  1  0  0  0  0
  3 26  1  0  0  0  0
  4  5  1  0  0  0  0
  4 27  1  0  0  0  0
  4 28  1  0  0  0  0
  5  6  1  0  0  0  0
  5 10  2  0  0  0  0
  6  7  2  0  0  0  0
  6 29  1  0  0  0  0
  7  8  1  0  0  0  0
  7 30  1  0  0  0  0
  8  9  2  0  0  0  0
  8 31  1  0  0  0  0
  9 10  1  0  0  0  0
  9 32  1  0  0  0  0
 10 33  1  0  0  0  0
 11 12  1  0  0  0  0
 11 16  1  0  0  0  0
 12 13  1  0  0  0  0
 12 34  1  0  0  0  0
 12 35  1  0  0  0  0
 13 14  1  0  0  0  0
 13 36  1  0  0  0  0
 13 37  1  0  0  0  0
 14 15  1  0  0  0  0
 14 17  1  0  0  0  0
 15 16  1  0  0  0  0
 15 38  1  0  0  0  0
 15 39  1  0  0  0  0
 16 40  1  0  0  0  0
 16 41  1  0  0  0  0
 17 18  2  0  0  0  0
 17 19  1  0  0  0  0
 19 20  1  0  0  0  0
 19 42  1  0  0  0  0
 19 43  1  0  0  0  0
M  END
$$$$
