
 OpenBabel07202414203D

 69 73  0  0  1  0  0  0  0  0999 V2000
    2.9800   -5.0591    0.3789 O   0  0  0  0  0  0  0  0  0  0  0  0
    2.8420   -4.4419    1.5946 C   0  0  0  0  0  0  0  0  0  0  0  0
    2.9011   -5.2349    2.7370 C   0  0  0  0  0  0  0  0  0  0  0  0
    3.0197   -4.6248    3.9737 C   0  0  0  0  0  0  0  0  0  0  0  0
    3.1963   -3.2380    4.0460 C   0  0  0  0  0  0  0  0  0  0  0  0
    3.0361   -2.4297    2.8903 C   0  0  0  0  0  0  0  0  0  0  0  0
    2.7352   -3.0404    1.6473 C   0  0  0  0  0  0  0  0  0  0  0  0
    2.3363   -2.2692    0.3867 C   0  0  0  0  0  0  0  0  0  0  0  0
    0.8686   -2.1121    0.1242 N   0  0  0  0  0  0  0  0  0  0  0  0
    0.3316   -0.7341   -0.0703 C   0  0  3  0  0  0  0  0  0  0  0  0
    0.4285    0.1434    1.2064 C   0  0  0  0  0  0  0  0  0  0  0  0
    0.9901    1.2327    1.2570 O   0  0  0  0  0  0  0  0  0  0  0  0
   -0.3254   -0.3510    2.2689 N   0  0  0  0  0  0  0  0  0  0  0  0
   -0.4468    0.3912    3.5099 C   0  0  0  0  0  0  0  0  0  0  0  0
   -1.4152   -0.2302    4.5248 C   0  0  0  0  0  0  0  0  0  0  0  0
   -1.0329   -1.5953    5.0496 C   0  0  0  0  0  0  0  0  0  0  0  0
   -1.7697   -2.7351    4.6901 C   0  0  0  0  0  0  0  0  0  0  0  0
   -1.4201   -3.9988    5.1733 C   0  0  0  0  0  0  0  0  0  0  0  0
   -0.3580   -4.1414    6.0585 C   0  0  0  0  0  0  0  0  0  0  0  0
    0.3204   -3.0085    6.4752 C   0  0  0  0  0  0  0  0  0  0  0  0
    1.2969   -3.1384    7.3853 F   0  0  0  0  0  0  0  0  0  0  0  0
    0.0217   -1.7472    5.9554 C   0  0  0  0  0  0  0  0  0  0  0  0
    0.6614   -0.0352   -1.3902 C   0  0  0  0  0  0  0  0  0  0  0  0
    1.4073   -0.6022   -2.4296 C   0  0  0  0  0  0  0  0  0  0  0  0
    1.5047    0.0455   -3.6658 C   0  0  0  0  0  0  0  0  0  0  0  0
    0.8426    1.2479   -3.8402 C   0  0  0  0  0  0  0  0  0  0  0  0
    0.1271    1.8432   -2.8688 N   0  0  0  0  0  0  0  0  0  0  0  0
    0.0591    1.1967   -1.6787 C   0  0  0  0  0  0  0  0  0  0  0  0
    0.0915   -3.2681   -0.1325 C   0  0  0  0  0  0  0  0  0  0  0  0
    0.5386   -4.4026    0.0216 O   0  0  0  0  0  0  0  0  0  0  0  0
   -1.3010   -3.1735   -0.5441 C   0  0  0  0  0  0  0  0  0  0  0  0
   -2.3488   -4.0312   -0.2521 C   0  0  0  0  0  0  0  0  0  0  0  0
   -3.4660   -3.5866   -0.9774 C   0  0  0  0  0  0  0  0  0  0  0  0
   -3.0366   -2.4860   -1.6914 C   0  0  0  0  0  0  0  0  0  0  0  0
   -1.7242   -2.2405   -1.4483 O   0  0  0  0  0  0  0  0  0  0  0  0
    3.4016   -0.9602    2.9677 C   0  0  0  0  0  0  0  0  0  0  0  0
    3.5994   -0.3904    4.3741 C   0  0  0  0  0  0  0  0  0  0  0  0
    4.3511   -1.3605    5.2717 C   0  0  0  0  0  0  0  0  0  0  0  0
    3.5384   -2.6339    5.3823 C   0  0  0  0  0  0  0  0  0  0  0  0
    2.4660   -5.8838    0.4206 H   0  0  0  0  0  0  0  0  0  0  0  0
    2.8965   -6.3180    2.6694 H   0  0  0  0  0  0  0  0  0  0  0  0
    3.0630   -5.2376    4.8711 H   0  0  0  0  0  0  0  0  0  0  0  0
    2.7635   -2.7689   -0.4910 H   0  0  0  0  0  0  0  0  0  0  0  0
    2.7962   -1.2757    0.4006 H   0  0  0  0  0  0  0  0  0  0  0  0
   -0.7547   -0.8272   -0.1322 H   0  0  0  0  0  0  0  0  0  0  0  0
   -0.5619   -1.3374    2.2622 H   0  0  0  0  0  0  0  0  0  0  0  0
   -0.8125    1.3937    3.2493 H   0  0  0  0  0  0  0  0  0  0  0  0
    0.5545    0.5174    3.9302 H   0  0  0  0  0  0  0  0  0  0  0  0
   -2.4187   -0.2800    4.0844 H   0  0  0  0  0  0  0  0  0  0  0  0
   -1.5005    0.4458    5.3860 H   0  0  0  0  0  0  0  0  0  0  0  0
   -2.6362   -2.6465    4.0385 H   0  0  0  0  0  0  0  0  0  0  0  0
   -1.9905   -4.8781    4.8777 H   0  0  0  0  0  0  0  0  0  0  0  0
   -0.0588   -5.1138    6.4350 H   0  0  0  0  0  0  0  0  0  0  0  0
    0.6196   -0.8963    6.2702 H   0  0  0  0  0  0  0  0  0  0  0  0
    1.8952   -1.5647   -2.3181 H   0  0  0  0  0  0  0  0  0  0  0  0
    2.0660   -0.3935   -4.4837 H   0  0  0  0  0  0  0  0  0  0  0  0
    0.8613    1.7716   -4.7922 H   0  0  0  0  0  0  0  0  0  0  0  0
   -0.5506    1.7142   -0.9404 H   0  0  0  0  0  0  0  0  0  0  0  0
   -2.2801   -4.8969    0.3930 H   0  0  0  0  0  0  0  0  0  0  0  0
   -4.4580   -4.0215   -1.0135 H   0  0  0  0  0  0  0  0  0  0  0  0
   -3.5096   -1.8195   -2.3956 H   0  0  0  0  0  0  0  0  0  0  0  0
    2.6505   -0.3552    2.4646 H   0  0  0  0  0  0  0  0  0  0  0  0
    4.3464   -0.8385    2.4222 H   0  0  0  0  0  0  0  0  0  0  0  0
    2.6209   -0.1747    4.8205 H   0  0  0  0  0  0  0  0  0  0  0  0
    4.1344    0.5632    4.3191 H   0  0  0  0  0  0  0  0  0  0  0  0
    4.4756   -0.9258    6.2702 H   0  0  0  0  0  0  0  0  0  0  0  0
    5.3502   -1.5735    4.8736 H   0  0  0  0  0  0  0  0  0  0  0  0
    2.6097   -2.3595    5.8630 H   0  0  0  0  0  0  0  0  0  0  0  0
    4.0402   -3.3575    6.0341 H   0  0  0  0  0  0  0  0  0  0  0  0
  1  2  1  0  0  0  0
  1 40  1  0  0  0  0
  2  3  1  0  0  0  0
  2  7  2  0  0  0  0
  3  4  2  0  0  0  0
  3 41  1  0  0  0  0
  4  5  1  0  0  0  0
  4 42  1  0  0  0  0
  5  6  2  0  0  0  0
  5 39  1  0  0  0  0
  6  7  1  0  0  0  0
  6 36  1  0  0  0  0
  7  8  1  0  0  0  0
  8  9  1  0  0  0  0
  8 43  1  0  0  0  0
  8 44  1  0  0  0  0
  9 10  1  0  0  0  0
  9 29  1  0  0  0  0
 10 11  1  0  0  0  0
 10 23  1  0  0  0  0
 10 45  1  0  0  0  0
 11 12  2  0  0  0  0
 11 13  1  0  0  0  0
 13 14  1  0  0  0  0
 13 46  1  0  0  0  0
 14 15  1  0  0  0  0
 14 47  1  0  0  0  0
 14 48  1  0  0  0  0
 15 16  1  0  0  0  0
 15 49  1  0  0  0  0
 15 50  1  0  0  0  0
 16 17  1  0  0  0  0
 16 22  2  0  0  0  0
 17 18  2  0  0  0  0
 17 51  1  0  0  0  0
 18 19  1  0  0  0  0
 18 52  1  0  0  0  0
 19 20  2  0  0  0  0
 19 53  1  0  0  0  0
 20 21  1  0  0  0  0
 20 22  1  0  0  0  0
 22 54  1  0  0  0  0
 23 24  1  0  0  0  0
 23 28  2  0  0  0  0
 24 25  2  0  0  0  0
 24 55  1  0  0  0  0
 25 26  1  0  0  0  0
 25 56  1  0  0  0  0
 26 27  2  0  0  0  0
 26 57  1  0  0  0  0
 27 28  1  0  0  0  0
 28 58  1  0  0  0  0
 29 30  2  0  0  0  0
 29 31  1  0  0  0  0
 31 32  2  0  0  0  0
 31 35  1  0  0  0  0
 32 33  1  0  0  0  0
 32 59  1  0  0  0  0
 33 34  2  0  0  0  0
 33 60  1  0  0  0  0
 34 35  1  0  0  0  0
 34 61  1  0  0  0  0
 36 37  1  0  0  0  0
 36 62  1  0  0  0  0
 36 63  1  0  0  0  0
 37 38  1  0  0  0  0
 37 64  1  0  0  0  0
 37 65  1  0  0  0  0
 38 39  1  0  0  0  0
 38 66  1  0  0  0  0
 38 67  1  0  0  0  0
 39 68  1  0  0  0  0
 39 69  1  0  0  0  0
M  END
$$$$
