
 OpenBabel07202414203D

 29 30  0  0  1  0  0  0  0  0999 V2000
    1.8549    1.1998   -3.4518 C   0  0  0  0  0  0  0  0  0  0  0  0
    1.6033    1.6997   -2.1709 C   0  0  0  0  0  0  0  0  0  0  0  0
    2.6567    2.1378   -1.3510 C   0  0  0  0  0  0  0  0  0  0  0  0
    3.9690    2.0425   -1.8357 C   0  0  0  0  0  0  0  0  0  0  0  0
    4.2145    1.5395   -3.1152 C   0  0  0  0  0  0  0  0  0  0  0  0
    3.1630    1.1206   -3.9263 C   0  0  0  0  0  0  0  0  0  0  0  0
    5.8333    1.4273   -3.6886 Cl  0  0  0  0  0  0  0  0  0  0  0  0
    2.4003    2.6361    0.0527 C   0  0  0  0  0  0  0  0  0  0  0  0
    1.3599    3.7372    0.1245 C   0  0  0  0  0  0  0  0  0  0  0  0
    0.1576    3.4917    0.2304 O   0  0  0  0  0  0  0  0  0  0  0  0
    1.8336    5.0286    0.0267 N   0  0  0  0  0  0  0  0  0  0  0  0
    0.8886    6.1315    0.0799 C   0  0  3  0  0  0  0  0  0  0  0  0
   -0.0578    6.1702   -1.1182 C   0  0  0  0  0  0  0  0  0  0  0  0
   -0.1808    7.6313   -1.4297 C   0  0  0  0  0  0  0  0  0  0  0  0
   -0.9168    8.1171   -2.2688 O   0  0  0  0  0  0  0  0  0  0  0  0
    0.7197    8.3256   -0.6864 N   0  0  0  0  0  0  0  0  0  0  0  0
    1.5090    7.5187    0.0694 C   0  0  0  0  0  0  0  0  0  0  0  0
    2.5295    7.8576    0.6454 O   0  0  0  0  0  0  0  0  0  0  0  0
    1.0298    0.8643   -4.0762 H   0  0  0  0  0  0  0  0  0  0  0  0
    0.5732    1.7365   -1.8160 H   0  0  0  0  0  0  0  0  0  0  0  0
    4.8072    2.3487   -1.2140 H   0  0  0  0  0  0  0  0  0  0  0  0
    3.3550    0.7264   -4.9206 H   0  0  0  0  0  0  0  0  0  0  0  0
    3.3271    2.9897    0.5202 H   0  0  0  0  0  0  0  0  0  0  0  0
    2.0458    1.7986    0.6661 H   0  0  0  0  0  0  0  0  0  0  0  0
    2.8298    5.2274    0.0578 H   0  0  0  0  0  0  0  0  0  0  0  0
    0.3164    6.0418    1.0123 H   0  0  0  0  0  0  0  0  0  0  0  0
   -1.0353    5.7484   -0.8691 H   0  0  0  0  0  0  0  0  0  0  0  0
    0.3578    5.6553   -1.9912 H   0  0  0  0  0  0  0  0  0  0  0  0
    0.8946    9.3069   -0.8331 H   0  0  0  0  0  0  0  0  0  0  0  0
  1  2  1  0  0  0  0
  1  6  2  0  0  0  0
  1 19  1  0  0  0  0
  2  3  2  0  0  0  0
  2 20  1  0  0  0  0
  3  4  1  0  0  0  0
  3  8  1  0  0  0  0
  4  5  2  0  0  0  0
  4 21  1  0  0  0  0
  5  6  1  0  0  0  0
  5  7  1  0  0  0  0
  6 22  1  0  0  0  0
  8  9  1  0  0  0  0
  8 23  1  0  0  0  0
  8 24  1  0  0  0  0
  9 10  2  0  0  0  0
  9 11  1  0  0  0  0
 11 12  1  0  0  0  0
 11 25  1  0  0  0  0
 12 13  1  0  0  0  0
 12 17  1  0  0  0  0
 12 26  1  0  0  0  0
 13 14  1  0  0  0  0
 13 27  1  0  0  0  0
 13 28  1  0  0  0  0
 14 15  2  0  0  0  0
 14 16  1  0  0  0  0
 16 17  1  0  0  0  0
 16 29  1  0  0  0  0
 17 18  2  0  0  0  0
M  END
$$$$
