
 OpenBabel07202414133D

 49 52  0  0  0  0  0  0  0  0999 V2000
    4.7865   -1.1208    1.1876 C   0  0  0  0  0  0  0  0  0  0  0  0
    4.5146   -2.6004    1.1243 C   0  0  0  0  0  0  0  0  0  0  0  0
    5.4717   -3.4755    1.6747 C   0  0  0  0  0  0  0  0  0  0  0  0
    5.2731   -4.8574    1.6649 C   0  0  0  0  0  0  0  0  0  0  0  0
    6.6330   -5.9442    2.4207 Br  0  0  0  0  0  0  0  0  0  0  0  0
    4.1076   -5.3813    1.1064 C   0  0  0  0  0  0  0  0  0  0  0  0
    3.7787   -7.0762    1.0483 Cl  0  0  0  0  0  0  0  0  0  0  0  0
    3.1582   -4.5203    0.5499 C   0  0  0  0  0  0  0  0  0  0  0  0
    3.3543   -3.1299    0.5228 C   0  0  0  0  0  0  0  0  0  0  0  0
    2.3882   -2.2804   -0.0546 N   0  0  0  0  0  0  0  0  0  0  0  0
    0.9899   -2.4015   -0.1325 C   0  0  0  0  0  0  0  0  0  0  0  0
    0.3150   -1.8744   -1.2417 C   0  0  0  0  0  0  0  0  0  0  0  0
   -1.0758   -1.9753   -1.3302 C   0  0  0  0  0  0  0  0  0  0  0  0
   -1.8836   -1.3096   -2.6973 Cl  0  0  0  0  0  0  0  0  0  0  0  0
   -1.8171   -2.6072   -0.3285 C   0  0  0  0  0  0  0  0  0  0  0  0
   -1.1622   -3.1705    0.7762 C   0  0  0  0  0  0  0  0  0  0  0  0
   -1.9341   -3.9005    1.8640 C   0  0  0  0  0  0  0  0  0  0  0  0
   -1.6581   -3.3888    3.2874 C   0  0  0  0  0  0  0  0  0  0  0  0
   -1.4359   -4.1453    4.2221 O   0  0  0  0  0  0  0  0  0  0  0  0
   -1.8372   -2.0359    3.3808 N   0  0  0  0  0  0  0  0  0  0  0  0
   -1.5845   -1.1408    4.4399 C   0  0  0  0  0  0  0  0  0  0  0  0
   -2.5295   -0.1075    4.5184 C   0  0  0  0  0  0  0  0  0  0  0  0
   -2.2544    1.1452    4.8715 N   0  0  0  0  0  0  0  0  0  0  0  0
   -0.9726    1.3821    5.2257 C   0  0  0  0  0  0  0  0  0  0  0  0
   -0.0006    0.3963    5.3987 C   0  0  0  0  0  0  0  0  0  0  0  0
    1.2676    0.7308    5.9120 C   0  0  0  0  0  0  0  0  0  0  0  0
    2.2168   -0.2562    6.1565 C   0  0  0  0  0  0  0  0  0  0  0  0
    1.9292   -1.5810    5.8602 C   0  0  0  0  0  0  0  0  0  0  0  0
    0.6943   -1.9152    5.2695 C   0  0  0  0  0  0  0  0  0  0  0  0
   -0.3077   -0.9408    5.0373 C   0  0  0  0  0  0  0  0  0  0  0  0
    0.2391   -3.0749    0.8478 C   0  0  0  0  0  0  0  0  0  0  0  0
    5.5316   -0.8881    1.9564 H   0  0  0  0  0  0  0  0  0  0  0  0
    3.8827   -0.5623    1.4502 H   0  0  0  0  0  0  0  0  0  0  0  0
    5.1693   -0.7677    0.2264 H   0  0  0  0  0  0  0  0  0  0  0  0
    6.3771   -3.0654    2.1192 H   0  0  0  0  0  0  0  0  0  0  0  0
    2.2687   -4.9438    0.0900 H   0  0  0  0  0  0  0  0  0  0  0  0
    2.7719   -1.4677   -0.5210 H   0  0  0  0  0  0  0  0  0  0  0  0
    0.8717   -1.4006   -2.0459 H   0  0  0  0  0  0  0  0  0  0  0  0
   -2.9003   -2.6624   -0.4236 H   0  0  0  0  0  0  0  0  0  0  0  0
   -1.6822   -4.9626    1.8150 H   0  0  0  0  0  0  0  0  0  0  0  0
   -3.0135   -3.8093    1.6854 H   0  0  0  0  0  0  0  0  0  0  0  0
   -2.3120   -1.6003    2.5940 H   0  0  0  0  0  0  0  0  0  0  0  0
   -3.5588   -0.2995    4.2255 H   0  0  0  0  0  0  0  0  0  0  0  0
   -0.7428    2.4330    5.3673 H   0  0  0  0  0  0  0  0  0  0  0  0
    1.5056    1.7650    6.1486 H   0  0  0  0  0  0  0  0  0  0  0  0
    3.1718    0.0105    6.6044 H   0  0  0  0  0  0  0  0  0  0  0  0
    2.6489   -2.3614    6.0837 H   0  0  0  0  0  0  0  0  0  0  0  0
    0.4954   -2.9648    5.0703 H   0  0  0  0  0  0  0  0  0  0  0  0
    0.7552   -3.5012    1.7065 H   0  0  0  0  0  0  0  0  0  0  0  0
  1  2  1  0  0  0  0
  1 32  1  0  0  0  0
  1 33  1  0  0  0  0
  1 34  1  0  0  0  0
  2  3  2  0  0  0  0
  2  9  1  0  0  0  0
  3  4  1  0  0  0  0
  3 35  1  0  0  0  0
  4  5  1  0  0  0  0
  4  6  2  0  0  0  0
  6  7  1  0  0  0  0
  6  8  1  0  0  0  0
  8  9  2  0  0  0  0
  8 36  1  0  0  0  0
  9 10  1  0  0  0  0
 10 11  1  0  0  0  0
 10 37  1  0  0  0  0
 11 12  2  0  0  0  0
 11 31  1  0  0  0  0
 12 13  1  0  0  0  0
 12 38  1  0  0  0  0
 13 14  1  0  0  0  0
 13 15  2  0  0  0  0
 15 16  1  0  0  0  0
 15 39  1  0  0  0  0
 16 17  1  0  0  0  0
 16 31  2  0  0  0  0
 17 18  1  0  0  0  0
 17 40  1  0  0  0  0
 17 41  1  0  0  0  0
 18 19  2  0  0  0  0
 18 20  1  0  0  0  0
 20 21  1  0  0  0  0
 20 42  1  0  0  0  0
 21 22  2  0  0  0  0
 21 30  1  0  0  0  0
 22 23  1  0  0  0  0
 22 43  1  0  0  0  0
 23 24  2  0  0  0  0
 24 25  1  0  0  0  0
 24 44  1  0  0  0  0
 25 26  2  0  0  0  0
 25 30  1  0  0  0  0
 26 27  1  0  0  0  0
 26 45  1  0  0  0  0
 27 28  2  0  0  0  0
 27 46  1  0  0  0  0
 28 29  1  0  0  0  0
 28 47  1  0  0  0  0
 29 30  2  0  0  0  0
 29 48  1  0  0  0  0
 31 49  1  0  0  0  0
M  END
$$$$
