
 OpenBabel07202414133D

 25 25  0  0  0  0  0  0  0  0999 V2000
    6.0879    1.4333    0.7049 C   0  0  0  0  0  0  0  0  0  0  0  0
    5.5327    0.0554    0.3887 C   0  0  0  0  0  0  0  0  0  0  0  0
    5.5348   -0.0942   -1.0381 O   0  0  0  0  0  0  0  0  0  0  0  0
    4.4152    0.3518   -1.6675 C   0  0  0  0  0  0  0  0  0  0  0  0
    3.3385    0.5724   -1.1405 O   0  0  0  0  0  0  0  0  0  0  0  0
    4.7735    0.6696   -3.0794 C   0  0  0  0  0  0  0  0  0  0  0  0
    4.2044    1.7630   -3.7157 C   0  0  0  0  0  0  0  0  0  0  0  0
    4.6820    2.0121   -4.9867 C   0  0  0  0  0  0  0  0  0  0  0  0
    5.6319    1.2743   -5.5968 N   0  0  0  0  0  0  0  0  0  0  0  0
    6.1073    0.2413   -4.8767 C   0  0  0  0  0  0  0  0  0  0  0  0
    5.7373   -0.1200   -3.6381 N   0  0  0  0  0  0  0  0  0  0  0  0
    7.4130   -0.7080   -5.6439 S   0  0  0  0  0  0  0  0  0  0  0  0
    6.8483   -1.4074   -6.7870 O   0  0  0  0  0  0  0  0  0  0  0  0
    8.5733    0.1558   -5.7868 O   0  0  0  0  0  0  0  0  0  0  0  0
    7.8334   -1.9415   -4.4450 C   0  0  0  0  0  0  0  0  0  0  0  0
    3.0575    2.8459   -3.0383 Cl  0  0  0  0  0  0  0  0  0  0  0  0
    6.1290    1.6101    1.7818 H   0  0  0  0  0  0  0  0  0  0  0  0
    5.4762    2.2148    0.2406 H   0  0  0  0  0  0  0  0  0  0  0  0
    7.0955    1.5388    0.2874 H   0  0  0  0  0  0  0  0  0  0  0  0
    4.5347   -0.0838    0.8191 H   0  0  0  0  0  0  0  0  0  0  0  0
    6.1829   -0.7192    0.8073 H   0  0  0  0  0  0  0  0  0  0  0  0
    4.3179    2.8560   -5.5689 H   0  0  0  0  0  0  0  0  0  0  0  0
    6.9553   -2.5533   -4.2308 H   0  0  0  0  0  0  0  0  0  0  0  0
    8.2073   -1.4564   -3.5419 H   0  0  0  0  0  0  0  0  0  0  0  0
    8.6183   -2.5691   -4.8748 H   0  0  0  0  0  0  0  0  0  0  0  0
  1  2  1  0  0  0  0
  1 17  1  0  0  0  0
  1 18  1  0  0  0  0
  1 19  1  0  0  0  0
  2  3  1  0  0  0  0
  2 20  1  0  0  0  0
  2 21  1  0  0  0  0
  3  4  1  0  0  0  0
  4  5  2  0  0  0  0
  4  6  1  0  0  0  0
  6  7  1  0  0  0  0
  6 11  2  0  0  0  0
  7  8  2  0  0  0  0
  7 16  1  0  0  0  0
  8  9  1  0  0  0  0
  8 22  1  0  0  0  0
  9 10  2  0  0  0  0
 10 11  1  0  0  0  0
 10 12  1  0  0  0  0
 12 13  2  0  0  0  0
 12 14  2  0  0  0  0
 12 15  1  0  0  0  0
 15 23  1  0  0  0  0
 15 24  1  0  0  0  0
 15 25  1  0  0  0  0
M  END
$$$$
