
 OpenBabel07202414123D

 40 40  0  0  0  0  0  0  0  0999 V2000
    6.2056   -2.6508    1.9187 C   0  0  0  0  0  0  0  0  0  0  0  0
    6.3031   -1.1389    1.7378 C   0  0  0  0  0  0  0  0  0  0  0  0
    5.2329   -0.4128    2.5594 C   0  0  0  0  0  0  0  0  0  0  0  0
    7.6803   -0.6705    2.2563 C   0  0  0  0  0  0  0  0  0  0  0  0
    6.2128   -0.7466    0.3108 N   0  0  0  0  0  0  0  0  0  0  0  0
    4.9416   -1.0934   -0.7417 S   0  0  0  0  0  0  0  0  0  0  0  0
    3.6850   -0.9848   -0.0405 O   0  0  0  0  0  0  0  0  0  0  0  0
    5.1897   -0.3073   -1.9314 O   0  0  0  0  0  0  0  0  0  0  0  0
    5.2498   -2.7917   -1.2024 C   0  0  0  0  0  0  0  0  0  0  0  0
    6.4257   -2.9859   -1.9599 C   0  0  0  0  0  0  0  0  0  0  0  0
    6.8202   -4.2604   -2.3544 C   0  0  0  0  0  0  0  0  0  0  0  0
    6.0351   -5.3514   -2.0140 C   0  0  0  0  0  0  0  0  0  0  0  0
    4.8493   -5.1644   -1.3011 C   0  0  0  0  0  0  0  0  0  0  0  0
    4.4244   -3.8852   -0.8775 C   0  0  0  0  0  0  0  0  0  0  0  0
    3.1182   -3.8324   -0.1184 C   0  0  0  0  0  0  0  0  0  0  0  0
    1.9707   -3.6937   -0.9866 N   0  0  0  0  0  0  0  0  0  0  0  0
    1.2246   -4.7772   -1.3834 C   0  0  0  0  0  0  0  0  0  0  0  0
    1.5025   -5.9424   -1.1229 O   0  0  0  0  0  0  0  0  0  0  0  0
    0.0108   -4.4006   -2.1532 C   0  0  0  0  0  0  0  0  0  0  0  0
   -0.7471   -5.3327   -2.7499 C   0  0  0  0  0  0  0  0  0  0  0  0
    6.4467   -2.9451    2.9464 H   0  0  0  0  0  0  0  0  0  0  0  0
    6.8945   -3.1809    1.2523 H   0  0  0  0  0  0  0  0  0  0  0  0
    5.1931   -3.0096    1.7235 H   0  0  0  0  0  0  0  0  0  0  0  0
    5.3793   -0.5830    3.6323 H   0  0  0  0  0  0  0  0  0  0  0  0
    4.2229   -0.7538    2.3202 H   0  0  0  0  0  0  0  0  0  0  0  0
    5.2676    0.6692    2.3846 H   0  0  0  0  0  0  0  0  0  0  0  0
    7.8697   -1.0403    3.2712 H   0  0  0  0  0  0  0  0  0  0  0  0
    7.7414    0.4240    2.2913 H   0  0  0  0  0  0  0  0  0  0  0  0
    8.4977   -1.0222    1.6163 H   0  0  0  0  0  0  0  0  0  0  0  0
    7.1026   -0.6702   -0.1904 H   0  0  0  0  0  0  0  0  0  0  0  0
    7.0407   -2.1361   -2.2538 H   0  0  0  0  0  0  0  0  0  0  0  0
    7.7309   -4.3974   -2.9307 H   0  0  0  0  0  0  0  0  0  0  0  0
    6.3331   -6.3535   -2.3138 H   0  0  0  0  0  0  0  0  0  0  0  0
    4.2386   -6.0396   -1.0732 H   0  0  0  0  0  0  0  0  0  0  0  0
    3.0855   -3.0386    0.6257 H   0  0  0  0  0  0  0  0  0  0  0  0
    3.0101   -4.7523    0.4699 H   0  0  0  0  0  0  0  0  0  0  0  0
    1.6912   -2.7537   -1.2411 H   0  0  0  0  0  0  0  0  0  0  0  0
   -0.2673   -3.3553   -2.2038 H   0  0  0  0  0  0  0  0  0  0  0  0
   -0.4925   -6.3890   -2.7037 H   0  0  0  0  0  0  0  0  0  0  0  0
   -1.6411   -5.0576   -3.2958 H   0  0  0  0  0  0  0  0  0  0  0  0
  1  2  1  0  0  0  0
  1 21  1  0  0  0  0
  1 22  1  0  0  0  0
  1 23  1  0  0  0  0
  2  3  1  0  0  0  0
  2  4  1  0  0  0  0
  2  5  1  0  0  0  0
  3 24  1  0  0  0  0
  3 25  1  0  0  0  0
  3 26  1  0  0  0  0
  4 27  1  0  0  0  0
  4 28  1  0  0  0  0
  4 29  1  0  0  0  0
  5  6  1  0  0  0  0
  5 30  1  0  0  0  0
  6  7  2  0  0  0  0
  6  8  2  0  0  0  0
  6  9  1  0  0  0  0
  9 10  1  0  0  0  0
  9 14  2  0  0  0  0
 10 11  2  0  0  0  0
 10 31  1  0  0  0  0
 11 12  1  0  0  0  0
 11 32  1  0  0  0  0
 12 13  2  0  0  0  0
 12 33  1  0  0  0  0
 13 14  1  0  0  0  0
 13 34  1  0  0  0  0
 14 15  1  0  0  0  0
 15 16  1  0  0  0  0
 15 35  1  0  0  0  0
 15 36  1  0  0  0  0
 16 17  1  0  0  0  0
 16 37  1  0  0  0  0
 17 18  2  0  0  0  0
 17 19  1  0  0  0  0
 19 20  2  0  0  0  0
 19 38  1  0  0  0  0
 20 39  1  0  0  0  0
 20 40  1  0  0  0  0
M  END
$$$$
