
 OpenBabel07202414143D

 64 66  0  0  1  0  0  0  0  0999 V2000
    2.2259    0.7187   -6.4523 C   0  0  0  0  0  0  0  0  0  0  0  0
    1.0602    0.2032   -7.0720 O   0  0  0  0  0  0  0  0  0  0  0  0
    1.0876   -1.2128   -7.2464 C   0  0  0  0  0  0  0  0  0  0  0  0
    1.1460   -1.9856   -5.9001 C   0  0  0  0  0  0  0  0  0  0  0  0
    0.1062   -1.6311   -4.9299 N   0  0  0  0  0  0  0  0  0  0  0  0
    0.1175   -2.2063   -3.6772 C   0  0  0  0  0  0  0  0  0  0  0  0
    1.1274   -2.8039   -3.2834 O   0  0  0  0  0  0  0  0  0  0  0  0
   -1.2150   -2.2699   -2.8363 C   0  0  3  0  0  0  0  0  0  0  0  0
   -2.0376   -1.0052   -2.7214 N   0  0  0  0  0  0  0  0  0  0  0  0
   -2.9317   -0.4707   -3.6789 C   0  0  0  0  0  0  0  0  0  0  0  0
   -3.6011    0.5424   -3.4504 O   0  0  0  0  0  0  0  0  0  0  0  0
   -3.0878   -1.0670   -5.0020 C   0  0  0  0  0  0  0  0  0  0  0  0
   -3.9106   -0.5504   -5.9840 C   0  0  0  0  0  0  0  0  0  0  0  0
   -3.7869   -1.3077   -7.1053 O   0  0  0  0  0  0  0  0  0  0  0  0
   -2.8779   -2.2531   -6.7539 C   0  0  0  0  0  0  0  0  0  0  0  0
   -2.4241   -2.1580   -5.5227 N   0  0  0  0  0  0  0  0  0  0  0  0
   -2.0094   -0.3411   -1.4165 C   0  0  0  0  0  0  0  0  0  0  0  0
   -3.2105    0.0096   -0.7734 C   0  0  0  0  0  0  0  0  0  0  0  0
   -3.2220    0.6186    0.4880 C   0  0  0  0  0  0  0  0  0  0  0  0
   -2.0428    0.8884    1.1954 C   0  0  0  0  0  0  0  0  0  0  0  0
   -2.0776    1.3224    2.6812 C   0  0  0  0  0  0  0  0  0  0  0  0
   -3.5154    1.5063    3.2351 C   0  0  0  0  0  0  0  0  0  0  0  0
   -1.4184    0.1977    3.5114 C   0  0  0  0  0  0  0  0  0  0  0  0
   -1.3314    2.6419    2.9756 C   0  0  0  0  0  0  0  0  0  0  0  0
   -0.8382    0.6082    0.5177 C   0  0  0  0  0  0  0  0  0  0  0  0
   -0.8192   -0.0134   -0.7579 C   0  0  0  0  0  0  0  0  0  0  0  0
   -1.9906   -3.5926   -3.0396 C   0  0  0  0  0  0  0  0  0  0  0  0
   -3.3737   -3.7256   -2.8583 C   0  0  0  0  0  0  0  0  0  0  0  0
   -4.0086   -4.9506   -3.0897 C   0  0  0  0  0  0  0  0  0  0  0  0
   -3.2415   -6.0339   -3.4572 C   0  0  0  0  0  0  0  0  0  0  0  0
   -1.9024   -5.9841   -3.5800 N   0  0  0  0  0  0  0  0  0  0  0  0
   -1.3152   -4.7785   -3.3580 C   0  0  0  0  0  0  0  0  0  0  0  0
   -0.0743   -1.6211   -7.9853 O   0  0  0  0  0  0  0  0  0  0  0  0
   -0.0654   -1.1016   -9.3140 C   0  0  0  0  0  0  0  0  0  0  0  0
    2.2759    1.7898   -6.6636 H   0  0  0  0  0  0  0  0  0  0  0  0
    3.1317    0.2448   -6.8426 H   0  0  0  0  0  0  0  0  0  0  0  0
    2.1621    0.5845   -5.3695 H   0  0  0  0  0  0  0  0  0  0  0  0
    1.9698   -1.4932   -7.8391 H   0  0  0  0  0  0  0  0  0  0  0  0
    2.1163   -1.8270   -5.4178 H   0  0  0  0  0  0  0  0  0  0  0  0
    1.0390   -3.0598   -6.0945 H   0  0  0  0  0  0  0  0  0  0  0  0
   -0.8099   -1.5201   -5.3505 H   0  0  0  0  0  0  0  0  0  0  0  0
   -0.8230   -2.4189   -1.8180 H   0  0  0  0  0  0  0  0  0  0  0  0
   -4.5761    0.2996   -6.0360 H   0  0  0  0  0  0  0  0  0  0  0  0
   -2.5959   -2.9660   -7.5161 H   0  0  0  0  0  0  0  0  0  0  0  0
   -4.1663   -0.2169   -1.2309 H   0  0  0  0  0  0  0  0  0  0  0  0
   -4.1973    0.8426    0.9044 H   0  0  0  0  0  0  0  0  0  0  0  0
   -4.1144    0.5955    3.1211 H   0  0  0  0  0  0  0  0  0  0  0  0
   -4.0380    2.3259    2.7269 H   0  0  0  0  0  0  0  0  0  0  0  0
   -3.5066    1.7444    4.3058 H   0  0  0  0  0  0  0  0  0  0  0  0
   -1.8986   -0.7681    3.3145 H   0  0  0  0  0  0  0  0  0  0  0  0
   -1.4969    0.3945    4.5868 H   0  0  0  0  0  0  0  0  0  0  0  0
   -0.3528    0.0924    3.2789 H   0  0  0  0  0  0  0  0  0  0  0  0
   -1.8098    3.4961    2.4840 H   0  0  0  0  0  0  0  0  0  0  0  0
   -0.2831    2.6132    2.6649 H   0  0  0  0  0  0  0  0  0  0  0  0
   -1.3373    2.8519    4.0563 H   0  0  0  0  0  0  0  0  0  0  0  0
    0.1156    0.8507    0.9859 H   0  0  0  0  0  0  0  0  0  0  0  0
    0.1442   -0.1947   -1.2274 H   0  0  0  0  0  0  0  0  0  0  0  0
   -3.9865   -2.8831   -2.5496 H   0  0  0  0  0  0  0  0  0  0  0  0
   -5.0831   -5.0535   -2.9871 H   0  0  0  0  0  0  0  0  0  0  0  0
   -3.6872   -7.0080   -3.6671 H   0  0  0  0  0  0  0  0  0  0  0  0
   -0.2321   -4.8240   -3.4450 H   0  0  0  0  0  0  0  0  0  0  0  0
   -1.0468   -1.2784   -9.7616 H   0  0  0  0  0  0  0  0  0  0  0  0
    0.6908   -1.6115   -9.9168 H   0  0  0  0  0  0  0  0  0  0  0  0
    0.1191   -0.0205   -9.3255 H   0  0  0  0  0  0  0  0  0  0  0  0
  1  2  1  0  0  0  0
  1 35  1  0  0  0  0
  1 36  1  0  0  0  0
  1 37  1  0  0  0  0
  2  3  1  0  0  0  0
  3  4  1  0  0  0  0
  3 33  1  0  0  0  0
  3 38  1  0  0  0  0
  4  5  1  0  0  0  0
  4 39  1  0  0  0  0
  4 40  1  0  0  0  0
  5  6  1  0  0  0  0
  5 41  1  0  0  0  0
  6  7  2  0  0  0  0
  6  8  1  0  0  0  0
  8  9  1  0  0  0  0
  8 27  1  0  0  0  0
  8 42  1  0  0  0  0
  9 10  1  0  0  0  0
  9 17  1  0  0  0  0
 10 11  2  0  0  0  0
 10 12  1  0  0  0  0
 12 13  2  0  0  0  0
 12 16  1  0  0  0  0
 13 14  1  0  0  0  0
 13 43  1  0  0  0  0
 14 15  1  0  0  0  0
 15 16  2  0  0  0  0
 15 44  1  0  0  0  0
 17 18  1  0  0  0  0
 17 26  2  0  0  0  0
 18 19  2  0  0  0  0
 18 45  1  0  0  0  0
 19 20  1  0  0  0  0
 19 46  1  0  0  0  0
 20 21  1  0  0  0  0
 20 25  2  0  0  0  0
 21 22  1  0  0  0  0
 21 23  1  0  0  0  0
 21 24  1  0  0  0  0
 22 47  1  0  0  0  0
 22 48  1  0  0  0  0
 22 49  1  0  0  0  0
 23 50  1  0  0  0  0
 23 51  1  0  0  0  0
 23 52  1  0  0  0  0
 24 53  1  0  0  0  0
 24 54  1  0  0  0  0
 24 55  1  0  0  0  0
 25 26  1  0  0  0  0
 25 56  1  0  0  0  0
 26 57  1  0  0  0  0
 27 28  1  0  0  0  0
 27 32  2  0  0  0  0
 28 29  2  0  0  0  0
 28 58  1  0  0  0  0
 29 30  1  0  0  0  0
 29 59  1  0  0  0  0
 30 31  2  0  0  0  0
 30 60  1  0  0  0  0
 31 32  1  0  0  0  0
 32 61  1  0  0  0  0
 33 34  1  0  0  0  0
 34 62  1  0  0  0  0
 34 63  1  0  0  0  0
 34 64  1  0  0  0  0
M  END
$$$$
