
 OpenBabel07202414173D

 41 44  0  0  1  0  0  0  0  0999 V2000
    0.8421   -0.0387   -0.0852 Cl  0  0  0  0  0  0  0  0  0  0  0  0
    2.5600   -0.0152    0.0022 C   0  0  0  0  0  0  0  0  0  0  0  0
    3.2475    1.1790   -0.1875 C   0  0  0  0  0  0  0  0  0  0  0  0
    4.6402    1.1839   -0.1468 C   0  0  0  0  0  0  0  0  0  0  0  0
    5.3372   -0.0110    0.0863 C   0  0  0  0  0  0  0  0  0  0  0  0
    4.6622   -1.2229    0.3038 C   0  0  0  0  0  0  0  0  0  0  0  0
    3.2540   -1.2022    0.2527 C   0  0  0  0  0  0  0  0  0  0  0  0
    5.3456   -2.5467    0.6001 C   0  0  3  0  0  0  0  0  0  0  0  0
    5.2156   -2.9585    2.0832 C   0  0  0  0  0  0  0  0  0  0  0  0
    5.2122   -2.1313    2.9831 O   0  0  0  0  0  0  0  0  0  0  0  0
    5.1632   -4.3369    2.2399 N   0  0  0  0  0  0  0  0  0  0  0  0
    5.1170   -5.0746    3.4570 C   0  0  0  0  0  0  0  0  0  0  0  0
    5.0456   -4.4652    4.7108 C   0  0  0  0  0  0  0  0  0  0  0  0
    5.1449   -5.1241    5.8889 N   0  0  0  0  0  0  0  0  0  0  0  0
    5.2825   -6.4633    5.8273 C   0  0  0  0  0  0  0  0  0  0  0  0
    5.2575   -7.2031    4.6476 C   0  0  0  0  0  0  0  0  0  0  0  0
    5.3016   -8.6096    4.6789 C   0  0  0  0  0  0  0  0  0  0  0  0
    5.2340   -9.3408    3.4985 C   0  0  0  0  0  0  0  0  0  0  0  0
    5.2264  -11.0593    3.5495 Cl  0  0  0  0  0  0  0  0  0  0  0  0
    5.1496   -8.6868    2.2783 C   0  0  0  0  0  0  0  0  0  0  0  0
    5.1220   -7.2884    2.2383 C   0  0  0  0  0  0  0  0  0  0  0  0
    5.1683   -6.5014    3.4199 C   0  0  0  0  0  0  0  0  0  0  0  0
    6.8137   -2.6201    0.1526 C   0  0  0  0  0  0  0  0  0  0  0  0
    7.6497   -1.4751    0.6989 C   0  0  0  0  0  0  0  0  0  0  0  0
    7.1064    0.0768    0.0383 S   0  0  0  0  0  0  0  0  0  0  0  0
    7.5162    1.1252    0.9496 O   0  0  0  0  0  0  0  0  0  0  0  0
    7.4657    0.1103   -1.3674 O   0  0  0  0  0  0  0  0  0  0  0  0
    2.7085    2.1048   -0.3718 H   0  0  0  0  0  0  0  0  0  0  0  0
    5.1817    2.1162   -0.3030 H   0  0  0  0  0  0  0  0  0  0  0  0
    2.6868   -2.1186    0.4062 H   0  0  0  0  0  0  0  0  0  0  0  0
    4.8126   -3.3017    0.0046 H   0  0  0  0  0  0  0  0  0  0  0  0
    5.2729   -4.8856    1.4023 H   0  0  0  0  0  0  0  0  0  0  0  0
    4.9024   -3.3958    4.8357 H   0  0  0  0  0  0  0  0  0  0  0  0
    5.4054   -6.9441    6.7952 H   0  0  0  0  0  0  0  0  0  0  0  0
    5.3617   -9.1362    5.6291 H   0  0  0  0  0  0  0  0  0  0  0  0
    5.0894   -9.2547    1.3527 H   0  0  0  0  0  0  0  0  0  0  0  0
    5.0259   -6.8364    1.2563 H   0  0  0  0  0  0  0  0  0  0  0  0
    6.8528   -2.6082   -0.9448 H   0  0  0  0  0  0  0  0  0  0  0  0
    7.2592   -3.5694    0.4722 H   0  0  0  0  0  0  0  0  0  0  0  0
    8.6976   -1.5919    0.4023 H   0  0  0  0  0  0  0  0  0  0  0  0
    7.6069   -1.4183    1.7896 H   0  0  0  0  0  0  0  0  0  0  0  0
  1  2  1  0  0  0  0
  2  3  1  0  0  0  0
  2  7  2  0  0  0  0
  3  4  2  0  0  0  0
  3 28  1  0  0  0  0
  4  5  1  0  0  0  0
  4 29  1  0  0  0  0
  5  6  2  0  0  0  0
  5 25  1  0  0  0  0
  6  7  1  0  0  0  0
  6  8  1  0  0  0  0
  7 30  1  0  0  0  0
  8  9  1  0  0  0  0
  8 23  1  0  0  0  0
  8 31  1  0  0  0  0
  9 10  2  0  0  0  0
  9 11  1  0  0  0  0
 11 12  1  0  0  0  0
 11 32  1  0  0  0  0
 12 13  1  0  0  0  0
 12 22  2  0  0  0  0
 13 14  2  0  0  0  0
 13 33  1  0  0  0  0
 14 15  1  0  0  0  0
 15 16  2  0  0  0  0
 15 34  1  0  0  0  0
 16 17  1  0  0  0  0
 16 22  1  0  0  0  0
 17 18  2  0  0  0  0
 17 35  1  0  0  0  0
 18 19  1  0  0  0  0
 18 20  1  0  0  0  0
 20 21  2  0  0  0  0
 20 36  1  0  0  0  0
 21 22  1  0  0  0  0
 21 37  1  0  0  0  0
 23 24  1  0  0  0  0
 23 38  1  0  0  0  0
 23 39  1  0  0  0  0
 24 25  1  0  0  0  0
 24 40  1  0  0  0  0
 24 41  1  0  0  0  0
 25 26  2  0  0  0  0
 25 27  2  0  0  0  0
M  END
$$$$
