
 OpenBabel07202414113D

 45 46  0  0  1  0  0  0  0  0999 V2000
    7.6010    3.7501    1.7699 C   0  0  0  0  0  0  0  0  0  0  0  0
    6.9569    2.7297    1.1865 C   0  0  0  0  0  0  0  0  0  0  0  0
    7.7301    1.7227    0.4203 C   0  0  0  0  0  0  0  0  0  0  0  0
    8.9572    1.7442    0.3777 O   0  0  0  0  0  0  0  0  0  0  0  0
    6.9724    0.7852   -0.2438 N   0  0  0  0  0  0  0  0  0  0  0  0
    7.6804   -0.1506   -1.0920 C   0  0  0  0  0  0  0  0  0  0  0  0
    6.9085   -1.2560   -1.8375 C   0  0  0  0  0  0  0  0  0  0  0  0
    5.6824   -1.3138   -1.7763 O   0  0  0  0  0  0  0  0  0  0  0  0
    7.7034   -2.1365   -2.5976 N   0  0  0  0  0  0  0  0  0  0  0  0
    7.0352   -3.1576   -3.4271 C   0  0  0  0  0  0  0  0  0  0  0  0
    6.9145   -4.5556   -2.8481 C   0  0  0  0  0  0  0  0  0  0  0  0
    7.2008   -4.8605   -1.5098 C   0  0  0  0  0  0  0  0  0  0  0  0
    6.9495   -6.1363   -0.9910 C   0  0  0  0  0  0  0  0  0  0  0  0
    6.3979   -7.1290   -1.7971 C   0  0  0  0  0  0  0  0  0  0  0  0
    6.1326   -6.8614   -3.1367 C   0  0  0  0  0  0  0  0  0  0  0  0
    6.4007   -5.5901   -3.6520 C   0  0  0  0  0  0  0  0  0  0  0  0
    6.1439   -5.3358   -4.9725 O   0  0  0  0  0  0  0  0  0  0  0  0
    9.1784   -2.1467   -2.4966 C   0  0  0  0  0  0  0  0  0  0  0  0
    9.9921   -2.4579   -3.7621 C   0  0  2  0  0  0  0  0  0  0  0  0
   11.4835   -2.2874   -3.4935 C   0  0  0  0  0  0  0  0  0  0  0  0
   12.0149   -1.4818   -4.6490 C   0  0  0  0  0  0  0  0  0  0  0  0
   10.7980   -0.9430   -5.3618 C   0  0  0  0  0  0  0  0  0  0  0  0
    9.6317   -1.5338   -4.7961 O   0  0  0  0  0  0  0  0  0  0  0  0
    7.0645    4.4967    2.3443 H   0  0  0  0  0  0  0  0  0  0  0  0
    8.6849    3.8648    1.6942 H   0  0  0  0  0  0  0  0  0  0  0  0
    5.8853    2.6158    1.2676 H   0  0  0  0  0  0  0  0  0  0  0  0
    5.9621    0.8233   -0.2877 H   0  0  0  0  0  0  0  0  0  0  0  0
    8.4249   -0.6332   -0.4490 H   0  0  0  0  0  0  0  0  0  0  0  0
    8.1791    0.4599   -1.8535 H   0  0  0  0  0  0  0  0  0  0  0  0
    7.5593   -3.2036   -4.3850 H   0  0  0  0  0  0  0  0  0  0  0  0
    6.0186   -2.8079   -3.6459 H   0  0  0  0  0  0  0  0  0  0  0  0
    7.5964   -4.1020   -0.8417 H   0  0  0  0  0  0  0  0  0  0  0  0
    7.1611   -6.3449    0.0547 H   0  0  0  0  0  0  0  0  0  0  0  0
    6.1672   -8.1056   -1.3789 H   0  0  0  0  0  0  0  0  0  0  0  0
    5.7004   -7.6432   -3.7548 H   0  0  0  0  0  0  0  0  0  0  0  0
    5.8342   -6.1551   -5.3941 H   0  0  0  0  0  0  0  0  0  0  0  0
    9.4446   -2.8408   -1.6926 H   0  0  0  0  0  0  0  0  0  0  0  0
    9.5073   -1.1560   -2.1741 H   0  0  0  0  0  0  0  0  0  0  0  0
    9.7876   -3.4707   -4.1224 H   0  0  0  0  0  0  0  0  0  0  0  0
   11.9850   -3.2571   -3.4058 H   0  0  0  0  0  0  0  0  0  0  0  0
   11.6750   -1.7584   -2.5519 H   0  0  0  0  0  0  0  0  0  0  0  0
   12.6119   -2.1061   -5.3214 H   0  0  0  0  0  0  0  0  0  0  0  0
   12.6681   -0.6687   -4.3120 H   0  0  0  0  0  0  0  0  0  0  0  0
   10.8279   -1.1755   -6.4311 H   0  0  0  0  0  0  0  0  0  0  0  0
   10.7158    0.1432   -5.2571 H   0  0  0  0  0  0  0  0  0  0  0  0
  1  2  2  0  0  0  0
  1 24  1  0  0  0  0
  1 25  1  0  0  0  0
  2  3  1  0  0  0  0
  2 26  1  0  0  0  0
  3  4  2  0  0  0  0
  3  5  1  0  0  0  0
  5  6  1  0  0  0  0
  5 27  1  0  0  0  0
  6  7  1  0  0  0  0
  6 28  1  0  0  0  0
  6 29  1  0  0  0  0
  7  8  2  0  0  0  0
  7  9  1  0  0  0  0
  9 10  1  0  0  0  0
  9 18  1  0  0  0  0
 10 11  1  0  0  0  0
 10 30  1  0  0  0  0
 10 31  1  0  0  0  0
 11 12  1  0  0  0  0
 11 16  2  0  0  0  0
 12 13  2  0  0  0  0
 12 32  1  0  0  0  0
 13 14  1  0  0  0  0
 13 33  1  0  0  0  0
 14 15  2  0  0  0  0
 14 34  1  0  0  0  0
 15 16  1  0  0  0  0
 15 35  1  0  0  0  0
 16 17  1  0  0  0  0
 17 36  1  0  0  0  0
 18 19  1  0  0  0  0
 18 37  1  0  0  0  0
 18 38  1  0  0  0  0
 19 20  1  0  0  0  0
 19 23  1  0  0  0  0
 19 39  1  6  0  0  0
 20 21  1  0  0  0  0
 20 40  1  0  0  0  0
 20 41  1  0  0  0  0
 21 22  1  0  0  0  0
 21 42  1  0  0  0  0
 21 43  1  0  0  0  0
 22 23  1  0  0  0  0
 22 44  1  0  0  0  0
 22 45  1  0  0  0  0
M  END
$$$$
