
 OpenBabel07202414153D

 62 66  0  0  0  0  0  0  0  0999 V2000
    3.7317    4.8040    4.6392 C   0  0  0  0  0  0  0  0  0  0  0  0
    4.4074    4.8798    3.3899 O   0  0  0  0  0  0  0  0  0  0  0  0
    5.7698    4.7319    3.4065 C   0  0  0  0  0  0  0  0  0  0  0  0
    6.5539    4.5704    4.5565 C   0  0  0  0  0  0  0  0  0  0  0  0
    7.9435    4.4158    4.4613 C   0  0  0  0  0  0  0  0  0  0  0  0
    8.5412    4.4236    3.1946 C   0  0  0  0  0  0  0  0  0  0  0  0
    7.7521    4.6054    2.0646 C   0  0  0  0  0  0  0  0  0  0  0  0
    6.3630    4.7617    2.1348 C   0  0  0  0  0  0  0  0  0  0  0  0
    8.6685    4.6223    1.0420 N   0  0  0  0  0  0  0  0  0  0  0  0
    9.9225    4.4145    1.5078 N   0  0  0  0  0  0  0  0  0  0  0  0
    9.8529    4.2998    2.8272 N   0  0  0  0  0  0  0  0  0  0  0  0
    8.5118    5.1923   -0.2852 C   0  0  0  0  0  0  0  0  0  0  0  0
    8.1824    4.1706   -1.3646 C   0  0  0  0  0  0  0  0  0  0  0  0
    7.1896    3.4449   -1.2338 O   0  0  0  0  0  0  0  0  0  0  0  0
    8.9932    4.0921   -2.5064 N   0  0  0  0  0  0  0  0  0  0  0  0
    8.7476    3.0279   -3.4977 C   0  0  0  0  0  0  0  0  0  0  0  0
    8.0510    3.5179   -4.7566 C   0  0  0  0  0  0  0  0  0  0  0  0
    6.7096    3.8977   -4.7277 C   0  0  0  0  0  0  0  0  0  0  0  0
    6.1022    4.3301   -5.9071 C   0  0  0  0  0  0  0  0  0  0  0  0
    6.8426    4.3648   -7.0822 C   0  0  0  0  0  0  0  0  0  0  0  0
    8.1638    3.9629   -7.0320 C   0  0  0  0  0  0  0  0  0  0  0  0
    8.7816    3.5457   -5.9023 N   0  0  0  0  0  0  0  0  0  0  0  0
   10.1507    4.8961   -2.6789 C   0  0  0  0  0  0  0  0  0  0  0  0
   11.4182    4.3123   -2.6094 C   0  0  0  0  0  0  0  0  0  0  0  0
   12.5568    5.1126   -2.4587 C   0  0  0  0  0  0  0  0  0  0  0  0
   12.4467    6.5053   -2.3914 C   0  0  0  0  0  0  0  0  0  0  0  0
   11.1767    7.0824   -2.5777 C   0  0  0  0  0  0  0  0  0  0  0  0
   10.0399    6.2868   -2.7345 C   0  0  0  0  0  0  0  0  0  0  0  0
   13.6183    7.4105   -2.0319 C   0  0  0  0  0  0  0  0  0  0  0  0
   14.8699    7.2401   -2.9104 C   0  0  0  0  0  0  0  0  0  0  0  0
   15.9474    6.3276   -2.3296 C   0  0  0  0  0  0  0  0  0  0  0  0
   16.2429    6.6477   -0.9368 N   0  0  0  0  0  0  0  0  0  0  0  0
   15.0525    6.4384   -0.1161 C   0  0  0  0  0  0  0  0  0  0  0  0
   13.9208    7.3799   -0.5184 C   0  0  0  0  0  0  0  0  0  0  0  0
    2.6585    4.8971    4.4465 H   0  0  0  0  0  0  0  0  0  0  0  0
    4.0253    5.6313    5.2934 H   0  0  0  0  0  0  0  0  0  0  0  0
    3.8992    3.8366    5.1249 H   0  0  0  0  0  0  0  0  0  0  0  0
    6.1139    4.5573    5.5483 H   0  0  0  0  0  0  0  0  0  0  0  0
    8.5541    4.2993    5.3520 H   0  0  0  0  0  0  0  0  0  0  0  0
    5.7571    4.8900    1.2422 H   0  0  0  0  0  0  0  0  0  0  0  0
    9.4318    5.7466   -0.4553 H   0  0  0  0  0  0  0  0  0  0  0  0
    7.7005    5.9268   -0.2502 H   0  0  0  0  0  0  0  0  0  0  0  0
    8.1408    2.2290   -3.0552 H   0  0  0  0  0  0  0  0  0  0  0  0
    9.6977    2.5578   -3.7768 H   0  0  0  0  0  0  0  0  0  0  0  0
    6.1373    3.8482   -3.8064 H   0  0  0  0  0  0  0  0  0  0  0  0
    5.0580    4.6305   -5.9085 H   0  0  0  0  0  0  0  0  0  0  0  0
    6.3975    4.6943   -8.0165 H   0  0  0  0  0  0  0  0  0  0  0  0
    8.7813    3.9606   -7.9260 H   0  0  0  0  0  0  0  0  0  0  0  0
   11.5338    3.2322   -2.5726 H   0  0  0  0  0  0  0  0  0  0  0  0
   13.5164    4.6206   -2.3315 H   0  0  0  0  0  0  0  0  0  0  0  0
   11.0541    8.1636   -2.5477 H   0  0  0  0  0  0  0  0  0  0  0  0
    9.0670    6.7624   -2.8331 H   0  0  0  0  0  0  0  0  0  0  0  0
   13.2642    8.4306   -2.2427 H   0  0  0  0  0  0  0  0  0  0  0  0
   15.3211    8.2340   -3.0380 H   0  0  0  0  0  0  0  0  0  0  0  0
   14.6010    6.8987   -3.9172 H   0  0  0  0  0  0  0  0  0  0  0  0
   16.8663    6.4441   -2.9158 H   0  0  0  0  0  0  0  0  0  0  0  0
   15.6673    5.2730   -2.4186 H   0  0  0  0  0  0  0  0  0  0  0  0
   16.5379    7.6232   -0.8644 H   0  0  0  0  0  0  0  0  0  0  0  0
   15.3162    6.6232    0.9321 H   0  0  0  0  0  0  0  0  0  0  0  0
   14.7353    5.3909   -0.1707 H   0  0  0  0  0  0  0  0  0  0  0  0
   14.2050    8.3950   -0.2097 H   0  0  0  0  0  0  0  0  0  0  0  0
   13.0230    7.1292    0.0614 H   0  0  0  0  0  0  0  0  0  0  0  0
  1  2  1  0  0  0  0
  1 35  1  0  0  0  0
  1 36  1  0  0  0  0
  1 37  1  0  0  0  0
  2  3  1  0  0  0  0
  3  4  1  0  0  0  0
  3  8  2  0  0  0  0
  4  5  2  0  0  0  0
  4 38  1  0  0  0  0
  5  6  1  0  0  0  0
  5 39  1  0  0  0  0
  6  7  2  0  0  0  0
  6 11  1  0  0  0  0
  7  8  1  0  0  0  0
  7  9  1  0  0  0  0
  8 40  1  0  0  0  0
  9 10  1  0  0  0  0
  9 12  1  0  0  0  0
 10 11  2  0  0  0  0
 12 13  1  0  0  0  0
 12 41  1  0  0  0  0
 12 42  1  0  0  0  0
 13 14  2  0  0  0  0
 13 15  1  0  0  0  0
 15 16  1  0  0  0  0
 15 23  1  0  0  0  0
 16 17  1  0  0  0  0
 16 43  1  0  0  0  0
 16 44  1  0  0  0  0
 17 18  1  0  0  0  0
 17 22  2  0  0  0  0
 18 19  2  0  0  0  0
 18 45  1  0  0  0  0
 19 20  1  0  0  0  0
 19 46  1  0  0  0  0
 20 21  2  0  0  0  0
 20 47  1  0  0  0  0
 21 22  1  0  0  0  0
 21 48  1  0  0  0  0
 23 24  1  0  0  0  0
 23 28  2  0  0  0  0
 24 25  2  0  0  0  0
 24 49  1  0  0  0  0
 25 26  1  0  0  0  0
 25 50  1  0  0  0  0
 26 27  2  0  0  0  0
 26 29  1  0  0  0  0
 27 28  1  0  0  0  0
 27 51  1  0  0  0  0
 28 52  1  0  0  0  0
 29 30  1  0  0  0  0
 29 34  1  0  0  0  0
 29 53  1  0  0  0  0
 30 31  1  0  0  0  0
 30 54  1  0  0  0  0
 30 55  1  0  0  0  0
 31 32  1  0  0  0  0
 31 56  1  0  0  0  0
 31 57  1  0  0  0  0
 32 33  1  0  0  0  0
 32 58  1  0  0  0  0
 33 34  1  0  0  0  0
 33 59  1  0  0  0  0
 33 60  1  0  0  0  0
 34 61  1  0  0  0  0
 34 62  1  0  0  0  0
M  END
$$$$
