
 OpenBabel07202414203D

 33 35  0  0  0  0  0  0  0  0999 V2000
    0.4947    1.2237    0.5420 C   0  0  0  0  0  0  0  0  0  0  0  0
    1.3573    0.1355    0.4536 C   0  0  0  0  0  0  0  0  0  0  0  0
    0.8973   -1.0959   -0.0126 C   0  0  0  0  0  0  0  0  0  0  0  0
   -0.4493   -1.1626   -0.3635 C   0  0  0  0  0  0  0  0  0  0  0  0
   -1.3202   -0.1243   -0.2865 N   0  0  0  0  0  0  0  0  0  0  0  0
   -0.8230    1.0480    0.1634 C   0  0  0  0  0  0  0  0  0  0  0  0
    1.7125   -2.2449   -0.1552 N   0  0  0  0  0  0  0  0  0  0  0  0
    3.0678   -2.2995    0.0849 C   0  0  0  0  0  0  0  0  0  0  0  0
    3.7619   -1.3696    0.4825 O   0  0  0  0  0  0  0  0  0  0  0  0
    3.6112   -3.5362   -0.2161 N   0  0  0  0  0  0  0  0  0  0  0  0
    5.0140   -3.7600    0.0465 C   0  0  0  0  0  0  0  0  0  0  0  0
    6.0310   -2.9085   -0.6847 C   0  0  0  0  0  0  0  0  0  0  0  0
    5.8967   -4.3592   -1.0225 C   0  0  0  0  0  0  0  0  0  0  0  0
    5.2780   -4.1180    1.4154 C   0  0  0  0  0  0  0  0  0  0  0  0
    5.3671   -4.3701    2.5851 C   0  0  0  0  0  0  0  0  0  0  0  0
    5.3590   -4.6356    3.9808 C   0  0  0  0  0  0  0  0  0  0  0  0
    5.1718   -3.7330    4.9979 C   0  0  0  0  0  0  0  0  0  0  0  0
    5.1771   -4.4922    6.1373 N   0  0  0  0  0  0  0  0  0  0  0  0
    5.3628   -5.7942    5.7627 C   0  0  0  0  0  0  0  0  0  0  0  0
    5.4756   -5.9120    4.4582 N   0  0  0  0  0  0  0  0  0  0  0  0
    0.8539    2.1828    0.8963 H   0  0  0  0  0  0  0  0  0  0  0  0
    2.3879    0.2940    0.7548 H   0  0  0  0  0  0  0  0  0  0  0  0
   -0.8940   -2.0803   -0.7366 H   0  0  0  0  0  0  0  0  0  0  0  0
   -1.5305    1.8701    0.2137 H   0  0  0  0  0  0  0  0  0  0  0  0
    1.2822   -3.0717   -0.5398 H   0  0  0  0  0  0  0  0  0  0  0  0
    3.0139   -4.3392   -0.0884 H   0  0  0  0  0  0  0  0  0  0  0  0
    6.9027   -2.5690   -0.1357 H   0  0  0  0  0  0  0  0  0  0  0  0
    5.6612   -2.1786   -1.3965 H   0  0  0  0  0  0  0  0  0  0  0  0
    6.7173   -5.0050   -0.7323 H   0  0  0  0  0  0  0  0  0  0  0  0
    5.4538   -4.6097   -1.9784 H   0  0  0  0  0  0  0  0  0  0  0  0
    5.0227   -2.6626    5.0110 H   0  0  0  0  0  0  0  0  0  0  0  0
    5.0510   -4.1594    7.0832 H   0  0  0  0  0  0  0  0  0  0  0  0
    5.4000   -6.6049    6.4779 H   0  0  0  0  0  0  0  0  0  0  0  0
  1  2  1  0  0  0  0
  1  6  2  0  0  0  0
  1 21  1  0  0  0  0
  2  3  2  0  0  0  0
  2 22  1  0  0  0  0
  3  4  1  0  0  0  0
  3  7  1  0  0  0  0
  4  5  2  0  0  0  0
  4 23  1  0  0  0  0
  5  6  1  0  0  0  0
  6 24  1  0  0  0  0
  7  8  1  0  0  0  0
  7 25  1  0  0  0  0
  8  9  2  0  0  0  0
  8 10  1  0  0  0  0
 10 11  1  0  0  0  0
 10 26  1  0  0  0  0
 11 12  1  0  0  0  0
 11 13  1  0  0  0  0
 11 14  1  0  0  0  0
 12 13  1  0  0  0  0
 12 27  1  0  0  0  0
 12 28  1  0  0  0  0
 13 29  1  0  0  0  0
 13 30  1  0  0  0  0
 14 15  3  0  0  0  0
 15 16  1  0  0  0  0
 16 17  2  0  0  0  0
 16 20  1  0  0  0  0
 17 18  1  0  0  0  0
 17 31  1  0  0  0  0
 18 19  1  0  0  0  0
 18 32  1  0  0  0  0
 19 20  2  0  0  0  0
 19 33  1  0  0  0  0
M  END
$$$$
