
 OpenBabel07202414133D

 47 50  0  0  1  0  0  0  0  0999 V2000
    0.9556   -0.0906   -0.0611 C   0  0  0  0  0  0  0  0  0  0  0  0
    2.4168   -0.0172   -0.1208 N   0  0  0  0  0  0  0  0  0  0  0  0
    2.9204    1.2829    0.0020 C   0  0  0  0  0  0  0  0  0  0  0  0
    2.1654    2.2288    0.2635 O   0  0  0  0  0  0  0  0  0  0  0  0
    4.4042    1.5727   -0.2360 C   0  0  0  0  0  0  0  0  0  0  0  0
    4.7450    1.9122   -1.6732 C   0  0  0  0  0  0  0  0  0  0  0  0
    5.5615    1.0350   -2.3878 C   0  0  0  0  0  0  0  0  0  0  0  0
    5.9280    1.1971   -3.6758 N   0  0  0  0  0  0  0  0  0  0  0  0
    5.4318    2.2821   -4.3074 C   0  0  0  0  0  0  0  0  0  0  0  0
    4.6037    3.2349   -3.7165 C   0  0  0  0  0  0  0  0  0  0  0  0
    4.0966    4.3228   -4.4527 C   0  0  0  0  0  0  0  0  0  0  0  0
    3.2826    5.2756   -3.8459 C   0  0  0  0  0  0  0  0  0  0  0  0
    3.0038    5.1726   -2.4907 C   0  0  0  0  0  0  0  0  0  0  0  0
    3.5076    4.0973   -1.7527 C   0  0  0  0  0  0  0  0  0  0  0  0
    4.2801    3.0745   -2.3490 C   0  0  0  0  0  0  0  0  0  0  0  0
    3.1830   -1.1965    0.3333 C   0  0  1  0  0  0  0  0  0  0  0  0
    2.9881   -1.4547    1.8289 C   0  0  0  0  0  0  0  0  0  0  0  0
    1.9043   -2.2063    2.3231 C   0  0  0  0  0  0  0  0  0  0  0  0
    1.7586   -2.4387    3.6928 C   0  0  0  0  0  0  0  0  0  0  0  0
    2.6879   -1.9134    4.5838 C   0  0  0  0  0  0  0  0  0  0  0  0
    2.5261   -2.2133    6.2690 Cl  0  0  0  0  0  0  0  0  0  0  0  0
    3.7572   -1.1516    4.1179 C   0  0  0  0  0  0  0  0  0  0  0  0
    3.9052   -0.9180    2.7492 C   0  0  0  0  0  0  0  0  0  0  0  0
    2.9177   -2.4476   -0.4938 C   0  0  0  0  0  0  0  0  0  0  0  0
    3.5612   -3.7736   -0.1282 C   0  0  0  0  0  0  0  0  0  0  0  0
    4.0132   -3.0418   -1.3543 C   0  0  0  0  0  0  0  0  0  0  0  0
    0.5044    0.7728   -0.5625 H   0  0  0  0  0  0  0  0  0  0  0  0
    0.6269   -0.0806    0.9824 H   0  0  0  0  0  0  0  0  0  0  0  0
    0.5825   -0.9828   -0.5639 H   0  0  0  0  0  0  0  0  0  0  0  0
    5.0407    0.7639    0.1247 H   0  0  0  0  0  0  0  0  0  0  0  0
    4.6831    2.4215    0.4020 H   0  0  0  0  0  0  0  0  0  0  0  0
    5.9711    0.1396   -1.9268 H   0  0  0  0  0  0  0  0  0  0  0  0
    5.7347    2.3718   -5.3482 H   0  0  0  0  0  0  0  0  0  0  0  0
    4.3227    4.4257   -5.5121 H   0  0  0  0  0  0  0  0  0  0  0  0
    2.8730    6.0985   -4.4257 H   0  0  0  0  0  0  0  0  0  0  0  0
    2.3855    5.9194   -1.9989 H   0  0  0  0  0  0  0  0  0  0  0  0
    3.2734    4.0742   -0.6914 H   0  0  0  0  0  0  0  0  0  0  0  0
    4.2451   -0.9897    0.1949 H   0  0  0  0  0  0  0  0  0  0  0  0
    1.1658   -2.6239    1.6426 H   0  0  0  0  0  0  0  0  0  0  0  0
    0.9257   -3.0286    4.0549 H   0  0  0  0  0  0  0  0  0  0  0  0
    4.4837   -0.7360    4.8135 H   0  0  0  0  0  0  0  0  0  0  0  0
    4.7478   -0.3234    2.4068 H   0  0  0  0  0  0  0  0  0  0  0  0
    1.9085   -2.5139   -0.8786 H   0  0  0  0  0  0  0  0  0  0  0  0
    2.9683   -4.6737   -0.2564 H   0  0  0  0  0  0  0  0  0  0  0  0
    4.2364   -3.8172    0.7197 H   0  0  0  0  0  0  0  0  0  0  0  0
    3.7374   -3.4553   -2.3178 H   0  0  0  0  0  0  0  0  0  0  0  0
    5.0055   -2.6056   -1.3340 H   0  0  0  0  0  0  0  0  0  0  0  0
  1  2  1  0  0  0  0
  1 27  1  0  0  0  0
  1 28  1  0  0  0  0
  1 29  1  0  0  0  0
  2  3  1  0  0  0  0
  2 16  1  0  0  0  0
  3  4  2  0  0  0  0
  3  5  1  0  0  0  0
  5  6  1  0  0  0  0
  5 30  1  0  0  0  0
  5 31  1  0  0  0  0
  6  7  1  0  0  0  0
  6 15  2  0  0  0  0
  7  8  2  0  0  0  0
  7 32  1  0  0  0  0
  8  9  1  0  0  0  0
  9 10  2  0  0  0  0
  9 33  1  0  0  0  0
 10 11  1  0  0  0  0
 10 15  1  0  0  0  0
 11 12  2  0  0  0  0
 11 34  1  0  0  0  0
 12 13  1  0  0  0  0
 12 35  1  0  0  0  0
 13 14  2  0  0  0  0
 13 36  1  0  0  0  0
 14 15  1  0  0  0  0
 14 37  1  0  0  0  0
 16 17  1  0  0  0  0
 16 24  1  0  0  0  0
 16 38  1  6  0  0  0
 17 18  1  0  0  0  0
 17 23  2  0  0  0  0
 18 19  2  0  0  0  0
 18 39  1  0  0  0  0
 19 20  1  0  0  0  0
 19 40  1  0  0  0  0
 20 21  1  0  0  0  0
 20 22  2  0  0  0  0
 22 23  1  0  0  0  0
 22 41  1  0  0  0  0
 23 42  1  0  0  0  0
 24 25  1  0  0  0  0
 24 26  1  0  0  0  0
 24 43  1  0  0  0  0
 25 26  1  0  0  0  0
 25 44  1  0  0  0  0
 25 45  1  0  0  0  0
 26 46  1  0  0  0  0
 26 47  1  0  0  0  0
M  END
$$$$
