
 OpenBabel07202414123D

 67 70  0  0  1  0  0  0  0  0999 V2000
    3.2782    1.9923   -0.3213 C   0  0  0  0  0  0  0  0  0  0  0  0
    2.6778    0.5757   -0.1608 C   0  0  0  0  0  0  0  0  0  0  0  0
    2.9485    0.1202    1.2852 C   0  0  0  0  0  0  0  0  0  0  0  0
    1.1523    0.7027   -0.3774 C   0  0  0  0  0  0  0  0  0  0  0  0
    3.2353   -0.4416   -1.1647 C   0  0  0  0  0  0  0  0  0  0  0  0
    4.1555   -0.0965   -2.1509 C   0  0  0  0  0  0  0  0  0  0  0  0
    4.5118   -1.0008   -3.1631 C   0  0  0  0  0  0  0  0  0  0  0  0
    3.9502   -2.2818   -3.2734 C   0  0  0  0  0  0  0  0  0  0  0  0
    4.1551   -3.1387   -4.4496 N   0  0  0  0  0  0  0  0  0  0  0  0
    3.7993   -4.5830   -4.3356 C   0  0  3  0  0  0  0  0  0  0  0  0
    4.7352   -5.3172   -3.3427 C   0  0  0  0  0  0  0  0  0  0  0  0
    4.4955   -5.4598   -2.1468 O   0  0  0  0  0  0  0  0  0  0  0  0
    5.8984   -5.8021   -3.9250 N   0  0  0  0  0  0  0  0  0  0  0  0
    6.8769   -6.5175   -3.1301 C   0  0  0  0  0  0  0  0  0  0  0  0
    8.0908   -6.9270   -3.9624 C   0  0  0  0  0  0  0  0  0  0  0  0
    9.1189   -7.6382   -3.1243 C   0  0  0  0  0  0  0  0  0  0  0  0
   10.1427   -6.9184   -2.4887 C   0  0  0  0  0  0  0  0  0  0  0  0
   11.0641   -7.5707   -1.6676 C   0  0  0  0  0  0  0  0  0  0  0  0
   10.9689   -8.9487   -1.4703 C   0  0  0  0  0  0  0  0  0  0  0  0
    9.9606   -9.6597   -2.1028 C   0  0  0  0  0  0  0  0  0  0  0  0
    9.8654  -10.9848   -1.9131 F   0  0  0  0  0  0  0  0  0  0  0  0
    9.0366   -9.0238   -2.9252 C   0  0  0  0  0  0  0  0  0  0  0  0
    2.3191   -4.9629   -4.2888 C   0  0  0  0  0  0  0  0  0  0  0  0
    1.3143   -4.1585   -4.8450 C   0  0  0  0  0  0  0  0  0  0  0  0
    0.0143   -4.6558   -4.9897 C   0  0  0  0  0  0  0  0  0  0  0  0
   -0.2435   -5.9512   -4.5847 C   0  0  0  0  0  0  0  0  0  0  0  0
    0.6794   -6.7460   -4.0099 N   0  0  0  0  0  0  0  0  0  0  0  0
    1.9251   -6.2362   -3.8656 C   0  0  0  0  0  0  0  0  0  0  0  0
    4.7389   -2.5949   -5.6345 C   0  0  0  0  0  0  0  0  0  0  0  0
    5.0148   -1.4035   -5.7652 O   0  0  0  0  0  0  0  0  0  0  0  0
    5.1044   -3.4187   -6.7711 C   0  0  0  0  0  0  0  0  0  0  0  0
    4.5348   -4.4574   -7.4827 C   0  0  0  0  0  0  0  0  0  0  0  0
    5.4459   -4.7441   -8.5180 C   0  0  0  0  0  0  0  0  0  0  0  0
    6.4936   -3.9200   -8.5140 N   0  0  0  0  0  0  0  0  0  0  0  0
    6.2057   -3.0653   -7.5155 N   0  0  0  0  0  0  0  0  0  0  0  0
    3.1566   -2.6722   -2.1877 C   0  0  0  0  0  0  0  0  0  0  0  0
    2.7988   -1.7729   -1.1657 C   0  0  0  0  0  0  0  0  0  0  0  0
    2.8470    2.6919    0.4036 H   0  0  0  0  0  0  0  0  0  0  0  0
    3.0823    2.4031   -1.3195 H   0  0  0  0  0  0  0  0  0  0  0  0
    4.3634    1.9887   -0.1648 H   0  0  0  0  0  0  0  0  0  0  0  0
    2.5103    0.8227    2.0043 H   0  0  0  0  0  0  0  0  0  0  0  0
    4.0246    0.0654    1.4865 H   0  0  0  0  0  0  0  0  0  0  0  0
    2.5211   -0.8647    1.4989 H   0  0  0  0  0  0  0  0  0  0  0  0
    0.7029    1.3781    0.3595 H   0  0  0  0  0  0  0  0  0  0  0  0
    0.6379   -0.2606   -0.2886 H   0  0  0  0  0  0  0  0  0  0  0  0
    0.9270    1.1012   -1.3744 H   0  0  0  0  0  0  0  0  0  0  0  0
    4.6062    0.8915   -2.1944 H   0  0  0  0  0  0  0  0  0  0  0  0
    5.2551   -0.6232   -3.8560 H   0  0  0  0  0  0  0  0  0  0  0  0
    4.0683   -5.0577   -5.2717 H   0  0  0  0  0  0  0  0  0  0  0  0
    5.9579   -5.8732   -4.9345 H   0  0  0  0  0  0  0  0  0  0  0  0
    6.3826   -7.3950   -2.6961 H   0  0  0  0  0  0  0  0  0  0  0  0
    7.1709   -5.8649   -2.2993 H   0  0  0  0  0  0  0  0  0  0  0  0
    8.5408   -6.0446   -4.4356 H   0  0  0  0  0  0  0  0  0  0  0  0
    7.7775   -7.5756   -4.7904 H   0  0  0  0  0  0  0  0  0  0  0  0
   10.2236   -5.8408   -2.6242 H   0  0  0  0  0  0  0  0  0  0  0  0
   11.8520   -7.0048   -1.1757 H   0  0  0  0  0  0  0  0  0  0  0  0
   11.6707   -9.4668   -0.8265 H   0  0  0  0  0  0  0  0  0  0  0  0
    8.2565   -9.6142   -3.3965 H   0  0  0  0  0  0  0  0  0  0  0  0
    1.5294   -3.1485   -5.1874 H   0  0  0  0  0  0  0  0  0  0  0  0
   -0.7661   -4.0538   -5.4400 H   0  0  0  0  0  0  0  0  0  0  0  0
   -1.2238   -6.3993   -4.7197 H   0  0  0  0  0  0  0  0  0  0  0  0
    2.6212   -6.9339   -3.4045 H   0  0  0  0  0  0  0  0  0  0  0  0
    3.5860   -4.9486   -7.3129 H   0  0  0  0  0  0  0  0  0  0  0  0
    5.3844   -5.5096   -9.2811 H   0  0  0  0  0  0  0  0  0  0  0  0
    6.7923   -2.2426   -7.3835 H   0  0  0  0  0  0  0  0  0  0  0  0
    2.7438   -3.6698   -2.0910 H   0  0  0  0  0  0  0  0  0  0  0  0
    2.1296   -2.1352   -0.3877 H   0  0  0  0  0  0  0  0  0  0  0  0
  1  2  1  0  0  0  0
  1 38  1  0  0  0  0
  1 39  1  0  0  0  0
  1 40  1  0  0  0  0
  2  3  1  0  0  0  0
  2  4  1  0  0  0  0
  2  5  1  0  0  0  0
  3 41  1  0  0  0  0
  3 42  1  0  0  0  0
  3 43  1  0  0  0  0
  4 44  1  0  0  0  0
  4 45  1  0  0  0  0
  4 46  1  0  0  0  0
  5  6  1  0  0  0  0
  5 37  2  0  0  0  0
  6  7  2  0  0  0  0
  6 47  1  0  0  0  0
  7  8  1  0  0  0  0
  7 48  1  0  0  0  0
  8  9  1  0  0  0  0
  8 36  2  0  0  0  0
  9 10  1  0  0  0  0
  9 29  1  0  0  0  0
 10 11  1  0  0  0  0
 10 23  1  0  0  0  0
 10 49  1  0  0  0  0
 11 12  2  0  0  0  0
 11 13  1  0  0  0  0
 13 14  1  0  0  0  0
 13 50  1  0  0  0  0
 14 15  1  0  0  0  0
 14 51  1  0  0  0  0
 14 52  1  0  0  0  0
 15 16  1  0  0  0  0
 15 53  1  0  0  0  0
 15 54  1  0  0  0  0
 16 17  1  0  0  0  0
 16 22  2  0  0  0  0
 17 18  2  0  0  0  0
 17 55  1  0  0  0  0
 18 19  1  0  0  0  0
 18 56  1  0  0  0  0
 19 20  2  0  0  0  0
 19 57  1  0  0  0  0
 20 21  1  0  0  0  0
 20 22  1  0  0  0  0
 22 58  1  0  0  0  0
 23 24  1  0  0  0  0
 23 28  2  0  0  0  0
 24 25  2  0  0  0  0
 24 59  1  0  0  0  0
 25 26  1  0  0  0  0
 25 60  1  0  0  0  0
 26 27  2  0  0  0  0
 26 61  1  0  0  0  0
 27 28  1  0  0  0  0
 28 62  1  0  0  0  0
 29 30  2  0  0  0  0
 29 31  1  0  0  0  0
 31 32  2  0  0  0  0
 31 35  1  0  0  0  0
 32 33  1  0  0  0  0
 32 63  1  0  0  0  0
 33 34  2  0  0  0  0
 33 64  1  0  0  0  0
 34 35  1  0  0  0  0
 35 65  1  0  0  0  0
 36 37  1  0  0  0  0
 36 66  1  0  0  0  0
 37 67  1  0  0  0  0
M  END
$$$$
