
 OpenBabel07202414153D

 42 45  0  0  1  0  0  0  0  0999 V2000
    0.9517    0.3098   -0.3019 C   0  0  0  0  0  0  0  0  0  0  0  0
    2.4980    0.3287   -0.3772 C   0  0  2  0  0  0  0  0  0  0  0  0
    2.9207    1.0565   -1.6870 C   0  0  0  0  0  0  0  0  0  0  0  0
    2.0756    1.4201   -2.5043 O   0  0  0  0  0  0  0  0  0  0  0  0
    4.2849    1.2206   -1.8508 N   0  0  0  0  0  0  0  0  0  0  0  0
    4.9702    1.7251   -2.9951 C   0  0  0  0  0  0  0  0  0  0  0  0
    4.3042    2.2011   -4.1282 C   0  0  0  0  0  0  0  0  0  0  0  0
    4.9106    2.5544   -5.2875 N   0  0  0  0  0  0  0  0  0  0  0  0
    6.2543    2.4735   -5.3128 C   0  0  0  0  0  0  0  0  0  0  0  0
    7.0432    2.1192   -4.2217 C   0  0  0  0  0  0  0  0  0  0  0  0
    8.4468    2.1643   -4.3037 C   0  0  0  0  0  0  0  0  0  0  0  0
    9.2343    1.8385   -3.2039 C   0  0  0  0  0  0  0  0  0  0  0  0
    8.6285    1.4362   -2.0217 C   0  0  0  0  0  0  0  0  0  0  0  0
    7.2340    1.3752   -1.9340 C   0  0  0  0  0  0  0  0  0  0  0  0
    6.3948    1.7270   -3.0255 C   0  0  0  0  0  0  0  0  0  0  0  0
    3.0299   -1.1199   -0.4158 C   0  0  0  0  0  0  0  0  0  0  0  0
    2.8657   -1.7750    0.9448 C   0  0  0  0  0  0  0  0  0  0  0  0
    3.6313   -1.1038    1.9441 O   0  0  0  0  0  0  0  0  0  0  0  0
    3.5137    0.2591    1.9545 C   0  0  0  0  0  0  0  0  0  0  0  0
    3.9572    0.8814    3.1243 C   0  0  0  0  0  0  0  0  0  0  0  0
    3.9007    2.2683    3.2490 C   0  0  0  0  0  0  0  0  0  0  0  0
    3.4068    3.0313    2.1948 C   0  0  0  0  0  0  0  0  0  0  0  0
    3.3371    4.7430    2.3408 Cl  0  0  0  0  0  0  0  0  0  0  0  0
    2.9647    2.4163    1.0211 C   0  0  0  0  0  0  0  0  0  0  0  0
    3.0191    1.0170    0.8817 C   0  0  0  0  0  0  0  0  0  0  0  0
    0.5253   -0.2831   -1.1199 H   0  0  0  0  0  0  0  0  0  0  0  0
    0.5345    1.3208   -0.3819 H   0  0  0  0  0  0  0  0  0  0  0  0
    0.5838   -0.1083    0.6411 H   0  0  0  0  0  0  0  0  0  0  0  0
    4.8641    0.8825   -1.0946 H   0  0  0  0  0  0  0  0  0  0  0  0
    3.2295    2.3328   -4.1652 H   0  0  0  0  0  0  0  0  0  0  0  0
    6.6978    2.7209   -6.2749 H   0  0  0  0  0  0  0  0  0  0  0  0
    8.9351    2.4837   -5.2226 H   0  0  0  0  0  0  0  0  0  0  0  0
   10.3170    1.9097   -3.2668 H   0  0  0  0  0  0  0  0  0  0  0  0
    9.2375    1.1813   -1.1582 H   0  0  0  0  0  0  0  0  0  0  0  0
    6.8213    1.0734   -0.9757 H   0  0  0  0  0  0  0  0  0  0  0  0
    4.0982   -1.1336   -0.6680 H   0  0  0  0  0  0  0  0  0  0  0  0
    2.5178   -1.7051   -1.1887 H   0  0  0  0  0  0  0  0  0  0  0  0
    3.2313   -2.8073    0.9004 H   0  0  0  0  0  0  0  0  0  0  0  0
    1.8198   -1.8319    1.2682 H   0  0  0  0  0  0  0  0  0  0  0  0
    4.3335    0.2792    3.9484 H   0  0  0  0  0  0  0  0  0  0  0  0
    4.2350    2.7429    4.1675 H   0  0  0  0  0  0  0  0  0  0  0  0
    2.5687    3.0364    0.2179 H   0  0  0  0  0  0  0  0  0  0  0  0
  1  2  1  0  0  0  0
  1 26  1  0  0  0  0
  1 27  1  0  0  0  0
  1 28  1  0  0  0  0
  2  3  1  6  0  0  0
  2 16  1  0  0  0  0
  2 25  1  0  0  0  0
  3  4  2  0  0  0  0
  3  5  1  0  0  0  0
  5  6  1  0  0  0  0
  5 29  1  0  0  0  0
  6  7  1  0  0  0  0
  6 15  2  0  0  0  0
  7  8  2  0  0  0  0
  7 30  1  0  0  0  0
  8  9  1  0  0  0  0
  9 10  2  0  0  0  0
  9 31  1  0  0  0  0
 10 11  1  0  0  0  0
 10 15  1  0  0  0  0
 11 12  2  0  0  0  0
 11 32  1  0  0  0  0
 12 13  1  0  0  0  0
 12 33  1  0  0  0  0
 13 14  2  0  0  0  0
 13 34  1  0  0  0  0
 14 15  1  0  0  0  0
 14 35  1  0  0  0  0
 16 17  1  0  0  0  0
 16 36  1  0  0  0  0
 16 37  1  0  0  0  0
 17 18  1  0  0  0  0
 17 38  1  0  0  0  0
 17 39  1  0  0  0  0
 18 19  1  0  0  0  0
 19 20  1  0  0  0  0
 19 25  2  0  0  0  0
 20 21  2  0  0  0  0
 20 40  1  0  0  0  0
 21 22  1  0  0  0  0
 21 41  1  0  0  0  0
 22 23  1  0  0  0  0
 22 24  2  0  0  0  0
 24 25  1  0  0  0  0
 24 42  1  0  0  0  0
M  END
$$$$
