
 OpenBabel07202414163D

 38 39  0  0  0  0  0  0  0  0999 V2000
   -2.6485    1.7691   -4.6824 C   0  0  0  0  0  0  0  0  0  0  0  0
   -1.7648    1.0109   -3.7315 C   0  0  0  0  0  0  0  0  0  0  0  0
   -1.0425   -0.0802   -4.2463 C   0  0  0  0  0  0  0  0  0  0  0  0
   -0.1945   -0.7937   -3.4138 C   0  0  0  0  0  0  0  0  0  0  0  0
    0.0045   -0.4845   -2.1243 N   0  0  0  0  0  0  0  0  0  0  0  0
   -0.7015    0.5692   -1.6389 C   0  0  0  0  0  0  0  0  0  0  0  0
   -1.6078    1.3430   -2.3714 C   0  0  0  0  0  0  0  0  0  0  0  0
   -2.3352    2.4155   -1.7915 N   0  0  0  0  0  0  0  0  0  0  0  0
   -2.4823    2.6343   -0.4280 C   0  0  0  0  0  0  0  0  0  0  0  0
   -2.0621    1.8952    0.4640 O   0  0  0  0  0  0  0  0  0  0  0  0
   -3.2687    3.8794   -0.0554 C   0  0  0  0  0  0  0  0  0  0  0  0
   -4.7570    3.6407    0.0367 C   0  0  0  0  0  0  0  0  0  0  0  0
   -5.6428    4.4534   -0.6833 C   0  0  0  0  0  0  0  0  0  0  0  0
   -7.0286    4.2458   -0.6198 C   0  0  0  0  0  0  0  0  0  0  0  0
   -7.5407    3.2074    0.1639 C   0  0  0  0  0  0  0  0  0  0  0  0
   -6.6659    2.4167    0.9059 C   0  0  0  0  0  0  0  0  0  0  0  0
   -5.2878    2.6339    0.8579 C   0  0  0  0  0  0  0  0  0  0  0  0
   -7.2961    1.1453    1.8807 Cl  0  0  0  0  0  0  0  0  0  0  0  0
   -7.9005    5.1298   -1.4407 C   0  0  0  0  0  0  0  0  0  0  0  0
   -7.4390    5.6624   -2.4454 O   0  0  0  0  0  0  0  0  0  0  0  0
   -9.1871    5.3198   -0.9937 N   0  0  0  0  0  0  0  0  0  0  0  0
  -10.1154    6.1840   -1.6850 C   0  0  0  0  0  0  0  0  0  0  0  0
   -2.8422    1.1834   -5.5893 H   0  0  0  0  0  0  0  0  0  0  0  0
   -2.1636    2.7016   -4.9843 H   0  0  0  0  0  0  0  0  0  0  0  0
   -3.6235    1.9843   -4.2370 H   0  0  0  0  0  0  0  0  0  0  0  0
   -1.1375   -0.3836   -5.2842 H   0  0  0  0  0  0  0  0  0  0  0  0
    0.3622   -1.6536   -3.7775 H   0  0  0  0  0  0  0  0  0  0  0  0
   -0.4676    0.7772   -0.6002 H   0  0  0  0  0  0  0  0  0  0  0  0
   -2.8927    2.9891   -2.4126 H   0  0  0  0  0  0  0  0  0  0  0  0
   -3.0368    4.6739   -0.7744 H   0  0  0  0  0  0  0  0  0  0  0  0
   -2.9050    4.2330    0.9168 H   0  0  0  0  0  0  0  0  0  0  0  0
   -5.2576    5.2640   -1.3038 H   0  0  0  0  0  0  0  0  0  0  0  0
   -8.6035    2.9891    0.1843 H   0  0  0  0  0  0  0  0  0  0  0  0
   -4.6243    2.0049    1.4528 H   0  0  0  0  0  0  0  0  0  0  0  0
   -9.4735    4.9551   -0.0945 H   0  0  0  0  0  0  0  0  0  0  0  0
   -9.6771    6.6150   -2.5870 H   0  0  0  0  0  0  0  0  0  0  0  0
  -10.4092    6.9848   -1.0016 H   0  0  0  0  0  0  0  0  0  0  0  0
  -10.9974    5.5951   -1.9492 H   0  0  0  0  0  0  0  0  0  0  0  0
  1  2  1  0  0  0  0
  1 23  1  0  0  0  0
  1 24  1  0  0  0  0
  1 25  1  0  0  0  0
  2  3  1  0  0  0  0
  2  7  2  0  0  0  0
  3  4  2  0  0  0  0
  3 26  1  0  0  0  0
  4  5  1  0  0  0  0
  4 27  1  0  0  0  0
  5  6  2  0  0  0  0
  6  7  1  0  0  0  0
  6 28  1  0  0  0  0
  7  8  1  0  0  0  0
  8  9  1  0  0  0  0
  8 29  1  0  0  0  0
  9 10  2  0  0  0  0
  9 11  1  0  0  0  0
 11 12  1  0  0  0  0
 11 30  1  0  0  0  0
 11 31  1  0  0  0  0
 12 13  1  0  0  0  0
 12 17  2  0  0  0  0
 13 14  2  0  0  0  0
 13 32  1  0  0  0  0
 14 15  1  0  0  0  0
 14 19  1  0  0  0  0
 15 16  2  0  0  0  0
 15 33  1  0  0  0  0
 16 17  1  0  0  0  0
 16 18  1  0  0  0  0
 17 34  1  0  0  0  0
 19 20  2  0  0  0  0
 19 21  1  0  0  0  0
 21 22  1  0  0  0  0
 21 35  1  0  0  0  0
 22 36  1  0  0  0  0
 22 37  1  0  0  0  0
 22 38  1  0  0  0  0
M  END
$$$$
