
 OpenBabel07202414143D

 77 83  0  0  1  0  0  0  0  0999 V2000
    0.9450    1.4315   -0.3469 C   0  0  0  0  0  0  0  0  0  0  0  0
    2.3649    1.6395   -0.3176 N   0  0  0  0  0  0  0  0  0  0  0  0
    3.2550    0.6703   -0.7144 C   0  0  0  0  0  0  0  0  0  0  0  0
    2.9343   -0.4410   -1.1202 O   0  0  0  0  0  0  0  0  0  0  0  0
    4.7228    1.0622   -0.5972 C   0  0  0  0  0  0  0  0  0  0  0  0
    5.2489    1.2319    0.7618 N   0  0  0  0  0  0  0  0  0  0  0  0
    5.7034    0.0375    1.4461 C   0  0  0  0  0  0  0  0  0  0  0  0
    6.6992    0.2767    2.5882 C   0  0  3  0  0  0  0  0  0  0  0  0
    6.7113   -1.0011    3.4743 C   0  0  0  0  0  0  0  0  0  0  0  0
    8.1089   -1.5526    3.3158 C   0  0  0  0  0  0  0  0  0  0  0  0
    8.9144   -0.3959    3.0330 N   0  0  0  0  0  0  0  0  0  0  0  0
   10.3126   -0.3705    3.3045 C   0  0  0  0  0  0  0  0  0  0  0  0
   11.2371    0.0961    2.3774 C   0  0  0  0  0  0  0  0  0  0  0  0
   12.5767   -0.0860    2.4897 N   0  0  0  0  0  0  0  0  0  0  0  0
   13.0213   -0.7256    3.5967 C   0  0  0  0  0  0  0  0  0  0  0  0
   12.2119   -1.1161    4.6631 C   0  0  0  0  0  0  0  0  0  0  0  0
   12.7236   -1.7150    5.8370 C   0  0  0  0  0  0  0  0  0  0  0  0
   11.8743   -2.0856    6.8850 C   0  0  0  0  0  0  0  0  0  0  0  0
   10.5170   -1.8207    6.7901 C   0  0  0  0  0  0  0  0  0  0  0  0
    9.6983   -2.2966    7.7861 O   0  0  0  0  0  0  0  0  0  0  0  0
    8.3764   -2.6330    7.3194 C   0  0  0  0  0  0  0  0  0  0  0  0
    7.7894   -3.8034    8.1194 C   0  0  0  0  0  0  0  0  0  0  0  0
    6.4259   -4.1992    7.6978 N   0  0  0  0  0  0  0  0  0  0  0  0
    5.9296   -5.3244    8.5303 C   0  0  0  0  0  0  0  0  0  0  0  0
    6.5780   -6.6832    8.1973 C   0  0  0  0  0  0  0  0  0  0  0  0
    6.4519   -7.0081    6.8067 O   0  0  0  0  0  0  0  0  0  0  0  0
    6.9936   -5.9693    5.9841 C   0  0  0  0  0  0  0  0  0  0  0  0
    6.3120   -4.6258    6.2827 C   0  0  0  0  0  0  0  0  0  0  0  0
   10.0397   -1.1267    5.6776 C   0  0  0  0  0  0  0  0  0  0  0  0
   10.8306   -0.8758    4.5346 C   0  0  0  0  0  0  0  0  0  0  0  0
    8.1829    0.4161    2.1499 C   0  0  0  0  0  0  0  0  0  0  0  0
    8.6105    1.2124    1.3279 O   0  0  0  0  0  0  0  0  0  0  0  0
    6.3576    1.5418    3.3787 C   0  0  0  0  0  0  0  0  0  0  0  0
    7.0215    1.8328    4.5913 C   0  0  0  0  0  0  0  0  0  0  0  0
    6.8261    3.0425    5.2522 C   0  0  0  0  0  0  0  0  0  0  0  0
    7.7175    3.3830    6.6811 Cl  0  0  0  0  0  0  0  0  0  0  0  0
    5.9452    3.9840    4.7345 C   0  0  0  0  0  0  0  0  0  0  0  0
    5.2854    3.7216    3.5354 C   0  0  0  0  0  0  0  0  0  0  0  0
    5.5051    2.5158    2.8401 C   0  0  0  0  0  0  0  0  0  0  0  0
    4.9045    2.3701    1.4854 C   0  0  0  0  0  0  0  0  0  0  0  0
    4.1646    3.2480    1.0469 O   0  0  0  0  0  0  0  0  0  0  0  0
    5.3078    1.9689   -1.6743 C   0  0  0  0  0  0  0  0  0  0  0  0
    5.6517    0.5158   -1.6803 C   0  0  0  0  0  0  0  0  0  0  0  0
    0.4560    2.2433    0.2005 H   0  0  0  0  0  0  0  0  0  0  0  0
    0.6991    0.4716    0.1151 H   0  0  0  0  0  0  0  0  0  0  0  0
    0.6065    1.4288   -1.3855 H   0  0  0  0  0  0  0  0  0  0  0  0
    2.7532    2.5083    0.0518 H   0  0  0  0  0  0  0  0  0  0  0  0
    6.1118   -0.6770    0.7220 H   0  0  0  0  0  0  0  0  0  0  0  0
    4.7854   -0.4086    1.8575 H   0  0  0  0  0  0  0  0  0  0  0  0
    5.9858   -1.7613    3.1637 H   0  0  0  0  0  0  0  0  0  0  0  0
    6.4972   -0.7877    4.5262 H   0  0  0  0  0  0  0  0  0  0  0  0
    8.1618   -2.2079    2.4368 H   0  0  0  0  0  0  0  0  0  0  0  0
    8.4113   -2.1518    4.1701 H   0  0  0  0  0  0  0  0  0  0  0  0
   10.9375    0.5936    1.4600 H   0  0  0  0  0  0  0  0  0  0  0  0
   14.0936   -0.9088    3.6092 H   0  0  0  0  0  0  0  0  0  0  0  0
   13.7904   -1.9091    5.9340 H   0  0  0  0  0  0  0  0  0  0  0  0
   12.2742   -2.5811    7.7659 H   0  0  0  0  0  0  0  0  0  0  0  0
    8.4251   -2.9513    6.2745 H   0  0  0  0  0  0  0  0  0  0  0  0
    7.7328   -1.7498    7.4079 H   0  0  0  0  0  0  0  0  0  0  0  0
    7.7595   -3.4974    9.1729 H   0  0  0  0  0  0  0  0  0  0  0  0
    8.4939   -4.6413    8.0726 H   0  0  0  0  0  0  0  0  0  0  0  0
    4.8486   -5.4070    8.3560 H   0  0  0  0  0  0  0  0  0  0  0  0
    6.0496   -5.0970    9.5957 H   0  0  0  0  0  0  0  0  0  0  0  0
    6.0778   -7.4756    8.7630 H   0  0  0  0  0  0  0  0  0  0  0  0
    7.6380   -6.7048    8.4733 H   0  0  0  0  0  0  0  0  0  0  0  0
    6.8135   -6.2488    4.9409 H   0  0  0  0  0  0  0  0  0  0  0  0
    8.0789   -5.9165    6.1264 H   0  0  0  0  0  0  0  0  0  0  0  0
    5.2405   -4.7305    6.0617 H   0  0  0  0  0  0  0  0  0  0  0  0
    6.6665   -3.8518    5.5965 H   0  0  0  0  0  0  0  0  0  0  0  0
    9.0119   -0.7787    5.6920 H   0  0  0  0  0  0  0  0  0  0  0  0
    7.7520    1.1421    5.0054 H   0  0  0  0  0  0  0  0  0  0  0  0
    5.8005    4.9367    5.2361 H   0  0  0  0  0  0  0  0  0  0  0  0
    4.6309    4.4816    3.1139 H   0  0  0  0  0  0  0  0  0  0  0  0
    6.0823    2.6669   -1.3827 H   0  0  0  0  0  0  0  0  0  0  0  0
    4.6437    2.3446   -2.4456 H   0  0  0  0  0  0  0  0  0  0  0  0
    6.6602    0.2327   -1.4058 H   0  0  0  0  0  0  0  0  0  0  0  0
    5.2203   -0.1019   -2.4611 H   0  0  0  0  0  0  0  0  0  0  0  0
  1  2  1  0  0  0  0
  1 44  1  0  0  0  0
  1 45  1  0  0  0  0
  1 46  1  0  0  0  0
  2  3  1  0  0  0  0
  2 47  1  0  0  0  0
  3  4  2  0  0  0  0
  3  5  1  0  0  0  0
  5  6  1  0  0  0  0
  5 42  1  0  0  0  0
  5 43  1  0  0  0  0
  6  7  1  0  0  0  0
  6 40  1  0  0  0  0
  7  8  1  0  0  0  0
  7 48  1  0  0  0  0
  7 49  1  0  0  0  0
  8  9  1  0  0  0  0
  8 31  1  0  0  0  0
  8 33  1  0  0  0  0
  9 10  1  0  0  0  0
  9 50  1  0  0  0  0
  9 51  1  0  0  0  0
 10 11  1  0  0  0  0
 10 52  1  0  0  0  0
 10 53  1  0  0  0  0
 11 12  1  0  0  0  0
 11 31  1  0  0  0  0
 12 13  1  0  0  0  0
 12 30  2  0  0  0  0
 13 14  2  0  0  0  0
 13 54  1  0  0  0  0
 14 15  1  0  0  0  0
 15 16  2  0  0  0  0
 15 55  1  0  0  0  0
 16 17  1  0  0  0  0
 16 30  1  0  0  0  0
 17 18  2  0  0  0  0
 17 56  1  0  0  0  0
 18 19  1  0  0  0  0
 18 57  1  0  0  0  0
 19 20  1  0  0  0  0
 19 29  2  0  0  0  0
 20 21  1  0  0  0  0
 21 22  1  0  0  0  0
 21 58  1  0  0  0  0
 21 59  1  0  0  0  0
 22 23  1  0  0  0  0
 22 60  1  0  0  0  0
 22 61  1  0  0  0  0
 23 24  1  0  0  0  0
 23 28  1  0  0  0  0
 24 25  1  0  0  0  0
 24 62  1  0  0  0  0
 24 63  1  0  0  0  0
 25 26  1  0  0  0  0
 25 64  1  0  0  0  0
 25 65  1  0  0  0  0
 26 27  1  0  0  0  0
 27 28  1  0  0  0  0
 27 66  1  0  0  0  0
 27 67  1  0  0  0  0
 28 68  1  0  0  0  0
 28 69  1  0  0  0  0
 29 30  1  0  0  0  0
 29 70  1  0  0  0  0
 31 32  2  0  0  0  0
 33 34  1  0  0  0  0
 33 39  2  0  0  0  0
 34 35  2  0  0  0  0
 34 71  1  0  0  0  0
 35 36  1  0  0  0  0
 35 37  1  0  0  0  0
 37 38  2  0  0  0  0
 37 72  1  0  0  0  0
 38 39  1  0  0  0  0
 38 73  1  0  0  0  0
 39 40  1  0  0  0  0
 40 41  2  0  0  0  0
 42 43  1  0  0  0  0
 42 74  1  0  0  0  0
 42 75  1  0  0  0  0
 43 76  1  0  0  0  0
 43 77  1  0  0  0  0
M  END
$$$$
