
 OpenBabel07202414143D

 53 56  0  0  1  0  0  0  0  0999 V2000
    1.0185   -0.3551    0.8566 C   0  0  0  0  0  0  0  0  0  0  0  0
    2.4072   -0.1985    0.4633 N   0  0  0  0  0  0  0  0  0  0  0  0
    2.9514   -1.1440   -0.3381 C   0  0  0  0  0  0  0  0  0  0  0  0
    2.2769   -2.0761   -0.7890 O   0  0  0  0  0  0  0  0  0  0  0  0
    4.4277   -0.9832   -0.7255 C   0  0  0  0  0  0  0  0  0  0  0  0
    4.8923   -2.0591   -1.6627 N   0  0  0  0  0  0  0  0  0  0  0  0
    4.7784   -3.4290   -1.0691 C   0  0  0  0  0  0  0  0  0  0  0  0
    4.8313   -4.5483   -2.1480 C   0  0  3  0  0  0  0  0  0  0  0  0
    5.0143   -5.8327   -1.2847 C   0  0  0  0  0  0  0  0  0  0  0  0
    3.4640   -4.7285   -2.9549 C   0  0  0  0  0  0  0  0  0  0  0  0
    2.8444   -5.8141   -2.9544 O   0  0  0  0  0  0  0  0  0  0  0  0
    2.9930   -3.6132   -3.6131 N   0  0  0  0  0  0  0  0  0  0  0  0
    1.7849   -3.3848   -4.3207 C   0  0  0  0  0  0  0  0  0  0  0  0
    1.0176   -4.3572   -4.9691 C   0  0  0  0  0  0  0  0  0  0  0  0
    0.1507   -4.0501   -5.9656 N   0  0  0  0  0  0  0  0  0  0  0  0
   -0.0593   -2.7392   -6.2040 C   0  0  0  0  0  0  0  0  0  0  0  0
    0.2670   -1.7373   -5.3112 C   0  0  0  0  0  0  0  0  0  0  0  0
   -0.3807   -0.4749   -5.2578 C   0  0  0  0  0  0  0  0  0  0  0  0
    0.0592    0.4858   -4.3581 C   0  0  0  0  0  0  0  0  0  0  0  0
   -0.6121    1.6350   -4.2057 F   0  0  0  0  0  0  0  0  0  0  0  0
    1.1876    0.2646   -3.5928 C   0  0  0  0  0  0  0  0  0  0  0  0
    1.8158   -0.9809   -3.6566 C   0  0  0  0  0  0  0  0  0  0  0  0
    1.3122   -2.0446   -4.4323 C   0  0  0  0  0  0  0  0  0  0  0  0
    6.0788   -4.3713   -3.0591 C   0  0  0  0  0  0  0  0  0  0  0  0
    6.5765   -5.4760   -3.7813 C   0  0  0  0  0  0  0  0  0  0  0  0
    7.7922   -5.4112   -4.4788 C   0  0  0  0  0  0  0  0  0  0  0  0
    8.4092   -6.8227   -5.2453 Cl  0  0  0  0  0  0  0  0  0  0  0  0
    8.5325   -4.2360   -4.5219 C   0  0  0  0  0  0  0  0  0  0  0  0
    8.0636   -3.1176   -3.8457 C   0  0  0  0  0  0  0  0  0  0  0  0
    6.8612   -3.1911   -3.1171 C   0  0  0  0  0  0  0  0  0  0  0  0
    6.4849   -1.7455   -2.1735 S   0  0  0  0  0  0  0  0  0  0  0  0
    6.4315   -0.6039   -3.0604 O   0  0  0  0  0  0  0  0  0  0  0  0
    7.3366   -1.7612   -0.9969 O   0  0  0  0  0  0  0  0  0  0  0  0
    0.7269    0.5005    1.4691 H   0  0  0  0  0  0  0  0  0  0  0  0
    0.9278   -1.2883    1.4211 H   0  0  0  0  0  0  0  0  0  0  0  0
    0.3994   -0.4208   -0.0430 H   0  0  0  0  0  0  0  0  0  0  0  0
    2.9447    0.5919    0.7906 H   0  0  0  0  0  0  0  0  0  0  0  0
    5.0066   -0.9836    0.1991 H   0  0  0  0  0  0  0  0  0  0  0  0
    4.5173   -0.0049   -1.2168 H   0  0  0  0  0  0  0  0  0  0  0  0
    3.8861   -3.5499   -0.4559 H   0  0  0  0  0  0  0  0  0  0  0  0
    5.6099   -3.5498   -0.3581 H   0  0  0  0  0  0  0  0  0  0  0  0
    4.2019   -5.9234   -0.5528 H   0  0  0  0  0  0  0  0  0  0  0  0
    5.9592   -5.8033   -0.7288 H   0  0  0  0  0  0  0  0  0  0  0  0
    5.0034   -6.7508   -1.8779 H   0  0  0  0  0  0  0  0  0  0  0  0
    3.5848   -2.7925   -3.4967 H   0  0  0  0  0  0  0  0  0  0  0  0
    1.1130   -5.4218   -4.7924 H   0  0  0  0  0  0  0  0  0  0  0  0
   -0.2946   -2.4864   -7.2403 H   0  0  0  0  0  0  0  0  0  0  0  0
   -1.2824   -0.2690   -5.8331 H   0  0  0  0  0  0  0  0  0  0  0  0
    1.5530    1.0233   -2.9131 H   0  0  0  0  0  0  0  0  0  0  0  0
    2.6775   -1.1187   -3.0117 H   0  0  0  0  0  0  0  0  0  0  0  0
    6.0503   -6.4287   -3.7639 H   0  0  0  0  0  0  0  0  0  0  0  0
    9.4797   -4.1902   -5.0550 H   0  0  0  0  0  0  0  0  0  0  0  0
    8.6576   -2.2030   -3.8473 H   0  0  0  0  0  0  0  0  0  0  0  0
  1  2  1  0  0  0  0
  1 34  1  0  0  0  0
  1 35  1  0  0  0  0
  1 36  1  0  0  0  0
  2  3  1  0  0  0  0
  2 37  1  0  0  0  0
  3  4  2  0  0  0  0
  3  5  1  0  0  0  0
  5  6  1  0  0  0  0
  5 38  1  0  0  0  0
  5 39  1  0  0  0  0
  6  7  1  0  0  0  0
  6 31  1  0  0  0  0
  7  8  1  0  0  0  0
  7 40  1  0  0  0  0
  7 41  1  0  0  0  0
  8  9  1  0  0  0  0
  8 10  1  0  0  0  0
  8 24  1  0  0  0  0
  9 42  1  0  0  0  0
  9 43  1  0  0  0  0
  9 44  1  0  0  0  0
 10 11  2  0  0  0  0
 10 12  1  0  0  0  0
 12 13  1  0  0  0  0
 12 45  1  0  0  0  0
 13 14  1  0  0  0  0
 13 23  2  0  0  0  0
 14 15  2  0  0  0  0
 14 46  1  0  0  0  0
 15 16  1  0  0  0  0
 16 17  2  0  0  0  0
 16 47  1  0  0  0  0
 17 18  1  0  0  0  0
 17 23  1  0  0  0  0
 18 19  2  0  0  0  0
 18 48  1  0  0  0  0
 19 20  1  0  0  0  0
 19 21  1  0  0  0  0
 21 22  2  0  0  0  0
 21 49  1  0  0  0  0
 22 23  1  0  0  0  0
 22 50  1  0  0  0  0
 24 25  1  0  0  0  0
 24 30  2  0  0  0  0
 25 26  2  0  0  0  0
 25 51  1  0  0  0  0
 26 27  1  0  0  0  0
 26 28  1  0  0  0  0
 28 29  2  0  0  0  0
 28 52  1  0  0  0  0
 29 30  1  0  0  0  0
 29 53  1  0  0  0  0
 30 31  1  0  0  0  0
 31 32  2  0  0  0  0
 31 33  2  0  0  0  0
M  END
$$$$
