
 OpenBabel07202414123D

 55 58  0  0  1  0  0  0  0  0999 V2000
    5.8556    1.0851    1.0228 C   0  0  0  0  0  0  0  0  0  0  0  0
    4.8601    0.9603   -0.1244 C   0  0  0  0  0  0  0  0  0  0  0  0
    4.8608    2.2278   -0.9722 C   0  0  0  0  0  0  0  0  0  0  0  0
    5.1692   -0.2092   -0.9282 N   0  0  0  0  0  0  0  0  0  0  0  0
    4.6354   -1.4426   -0.6400 C   0  0  0  0  0  0  0  0  0  0  0  0
    3.8350   -1.6469    0.2610 O   0  0  0  0  0  0  0  0  0  0  0  0
    4.9942   -2.5284   -1.6519 C   0  0  0  0  0  0  0  0  0  0  0  0
    6.4295   -2.7762   -1.7940 N   0  0  0  0  0  0  0  0  0  0  0  0
    7.0690   -3.7846   -0.9453 C   0  0  0  0  0  0  0  0  0  0  0  0
    7.7183   -4.8842   -1.7908 C   0  0  3  0  0  0  0  0  0  0  0  0
    6.6668   -5.8518   -2.3815 C   0  0  0  0  0  0  0  0  0  0  0  0
    6.6969   -7.0488   -2.1100 O   0  0  0  0  0  0  0  0  0  0  0  0
    5.7644   -5.2509   -3.2443 N   0  0  0  0  0  0  0  0  0  0  0  0
    4.7544   -5.8841   -4.0097 C   0  0  0  0  0  0  0  0  0  0  0  0
    4.2614   -7.1494   -3.7038 C   0  0  0  0  0  0  0  0  0  0  0  0
    3.5618   -7.9045   -4.5746 N   0  0  0  0  0  0  0  0  0  0  0  0
    3.2423   -7.3203   -5.7475 C   0  0  0  0  0  0  0  0  0  0  0  0
    3.3898   -5.9653   -6.0224 C   0  0  0  0  0  0  0  0  0  0  0  0
    2.7460   -5.3543   -7.1200 C   0  0  0  0  0  0  0  0  0  0  0  0
    2.9987   -4.0249   -7.4446 C   0  0  0  0  0  0  0  0  0  0  0  0
    3.9303   -3.3170   -6.6994 C   0  0  0  0  0  0  0  0  0  0  0  0
    4.5349   -3.9020   -5.5809 C   0  0  0  0  0  0  0  0  0  0  0  0
    4.2391   -5.2298   -5.1724 C   0  0  0  0  0  0  0  0  0  0  0  0
    8.5936   -4.2271   -2.8609 C   0  0  0  0  0  0  0  0  0  0  0  0
    9.6548   -4.9384   -3.4363 C   0  0  0  0  0  0  0  0  0  0  0  0
   10.3960   -4.3747   -4.4755 C   0  0  0  0  0  0  0  0  0  0  0  0
   11.6518   -5.2850   -5.2205 Cl  0  0  0  0  0  0  0  0  0  0  0  0
   10.0992   -3.0952   -4.9479 C   0  0  0  0  0  0  0  0  0  0  0  0
    9.0736   -2.3604   -4.3542 C   0  0  0  0  0  0  0  0  0  0  0  0
    8.3215   -2.9157   -3.3094 C   0  0  0  0  0  0  0  0  0  0  0  0
    7.1401   -2.1542   -2.7949 C   0  0  0  0  0  0  0  0  0  0  0  0
    6.7716   -1.1019   -3.3272 O   0  0  0  0  0  0  0  0  0  0  0  0
    5.6130    1.9476    1.6505 H   0  0  0  0  0  0  0  0  0  0  0  0
    6.8754    1.2113    0.6431 H   0  0  0  0  0  0  0  0  0  0  0  0
    5.8440    0.1894    1.6521 H   0  0  0  0  0  0  0  0  0  0  0  0
    3.8557    0.8284    0.2961 H   0  0  0  0  0  0  0  0  0  0  0  0
    5.8376    2.3964   -1.4380 H   0  0  0  0  0  0  0  0  0  0  0  0
    4.6217    3.1011   -0.3561 H   0  0  0  0  0  0  0  0  0  0  0  0
    4.1160    2.1691   -1.7735 H   0  0  0  0  0  0  0  0  0  0  0  0
    5.9403   -0.1728   -1.5935 H   0  0  0  0  0  0  0  0  0  0  0  0
    4.6067   -2.2158   -2.6278 H   0  0  0  0  0  0  0  0  0  0  0  0
    4.4977   -3.4646   -1.3890 H   0  0  0  0  0  0  0  0  0  0  0  0
    6.3635   -4.1799   -0.2039 H   0  0  0  0  0  0  0  0  0  0  0  0
    7.8612   -3.2574   -0.3949 H   0  0  0  0  0  0  0  0  0  0  0  0
    8.3614   -5.4786   -1.1301 H   0  0  0  0  0  0  0  0  0  0  0  0
    6.0092   -4.3247   -3.5436 H   0  0  0  0  0  0  0  0  0  0  0  0
    4.4295   -7.6226   -2.7399 H   0  0  0  0  0  0  0  0  0  0  0  0
    2.9280   -8.0128   -6.5269 H   0  0  0  0  0  0  0  0  0  0  0  0
    2.0028   -5.9044   -7.6964 H   0  0  0  0  0  0  0  0  0  0  0  0
    2.4761   -3.5472   -8.2698 H   0  0  0  0  0  0  0  0  0  0  0  0
    4.1701   -2.2877   -6.9629 H   0  0  0  0  0  0  0  0  0  0  0  0
    5.2281   -3.2790   -5.0262 H   0  0  0  0  0  0  0  0  0  0  0  0
    9.9015   -5.9447   -3.0830 H   0  0  0  0  0  0  0  0  0  0  0  0
   10.6442   -2.6775   -5.7878 H   0  0  0  0  0  0  0  0  0  0  0  0
    8.8394   -1.3680   -4.7301 H   0  0  0  0  0  0  0  0  0  0  0  0
  1  2  1  0  0  0  0
  1 33  1  0  0  0  0
  1 34  1  0  0  0  0
  1 35  1  0  0  0  0
  2  3  1  0  0  0  0
  2  4  1  0  0  0  0
  2 36  1  0  0  0  0
  3 37  1  0  0  0  0
  3 38  1  0  0  0  0
  3 39  1  0  0  0  0
  4  5  1  0  0  0  0
  4 40  1  0  0  0  0
  5  6  2  0  0  0  0
  5  7  1  0  0  0  0
  7  8  1  0  0  0  0
  7 41  1  0  0  0  0
  7 42  1  0  0  0  0
  8  9  1  0  0  0  0
  8 31  1  0  0  0  0
  9 10  1  0  0  0  0
  9 43  1  0  0  0  0
  9 44  1  0  0  0  0
 10 11  1  0  0  0  0
 10 24  1  0  0  0  0
 10 45  1  0  0  0  0
 11 12  2  0  0  0  0
 11 13  1  0  0  0  0
 13 14  1  0  0  0  0
 13 46  1  0  0  0  0
 14 15  1  0  0  0  0
 14 23  2  0  0  0  0
 15 16  2  0  0  0  0
 15 47  1  0  0  0  0
 16 17  1  0  0  0  0
 17 18  2  0  0  0  0
 17 48  1  0  0  0  0
 18 19  1  0  0  0  0
 18 23  1  0  0  0  0
 19 20  2  0  0  0  0
 19 49  1  0  0  0  0
 20 21  1  0  0  0  0
 20 50  1  0  0  0  0
 21 22  2  0  0  0  0
 21 51  1  0  0  0  0
 22 23  1  0  0  0  0
 22 52  1  0  0  0  0
 24 25  1  0  0  0  0
 24 30  2  0  0  0  0
 25 26  2  0  0  0  0
 25 53  1  0  0  0  0
 26 27  1  0  0  0  0
 26 28  1  0  0  0  0
 28 29  2  0  0  0  0
 28 54  1  0  0  0  0
 29 30  1  0  0  0  0
 29 55  1  0  0  0  0
 30 31  1  0  0  0  0
 31 32  2  0  0  0  0
M  END
$$$$
