
 OpenBabel07202414153D

 40 42  0  0  1  0  0  0  0  0999 V2000
    1.2039   -0.7698    0.1200 C   0  0  0  0  0  0  0  0  0  0  0  0
    2.3184    0.1142    0.1178 O   0  0  0  0  0  0  0  0  0  0  0  0
    2.9460    0.3128    1.3175 C   0  0  0  0  0  0  0  0  0  0  0  0
    4.0833    1.1244    1.2551 C   0  0  0  0  0  0  0  0  0  0  0  0
    4.8501    1.3690    2.3944 C   0  0  0  0  0  0  0  0  0  0  0  0
    4.4858    0.7804    3.6042 C   0  0  0  0  0  0  0  0  0  0  0  0
    3.3271   -0.0084    3.6891 C   0  0  0  0  0  0  0  0  0  0  0  0
    2.5537   -0.2295    2.5429 C   0  0  0  0  0  0  0  0  0  0  0  0
    2.9708   -0.6310    5.0185 C   0  0  0  0  0  0  0  0  0  0  0  0
    4.1363   -1.1565    5.7411 N   0  0  0  0  0  0  0  0  0  0  0  0
    3.9023   -2.1457    6.6907 C   0  0  0  0  0  0  0  0  0  0  0  0
    2.7589   -2.5537    6.9221 O   0  0  0  0  0  0  0  0  0  0  0  0
    5.0756   -2.7346    7.4559 C   0  0  0  0  0  0  0  0  0  0  0  0
    5.3375   -1.7916    8.9363 Cl  0  0  0  0  0  0  0  0  0  0  0  0
    5.4583   -0.5400    5.4798 C   0  0  3  0  0  0  0  0  0  0  0  0
    6.3650   -1.4525    4.6460 C   0  0  0  0  0  0  0  0  0  0  0  0
    5.8529   -2.3537    3.6960 C   0  0  0  0  0  0  0  0  0  0  0  0
    6.7034   -3.1556    2.9354 C   0  0  0  0  0  0  0  0  0  0  0  0
    8.0806   -3.0731    3.1141 C   0  0  0  0  0  0  0  0  0  0  0  0
    8.6075   -2.1875    4.0501 C   0  0  0  0  0  0  0  0  0  0  0  0
    7.7589   -1.3798    4.8083 C   0  0  0  0  0  0  0  0  0  0  0  0
    5.3455    0.8667    4.8374 C   0  0  0  0  0  0  0  0  0  0  0  0
    0.8565   -0.8744   -0.9119 H   0  0  0  0  0  0  0  0  0  0  0  0
    0.3815   -0.3535    0.7106 H   0  0  0  0  0  0  0  0  0  0  0  0
    1.4835   -1.7667    0.4777 H   0  0  0  0  0  0  0  0  0  0  0  0
    4.3893    1.5479    0.3012 H   0  0  0  0  0  0  0  0  0  0  0  0
    5.7488    1.9753    2.3165 H   0  0  0  0  0  0  0  0  0  0  0  0
    1.6716   -0.8556    2.6261 H   0  0  0  0  0  0  0  0  0  0  0  0
    2.2427   -1.4369    4.8711 H   0  0  0  0  0  0  0  0  0  0  0  0
    2.4999    0.1274    5.6567 H   0  0  0  0  0  0  0  0  0  0  0  0
    5.9990   -2.7633    6.8803 H   0  0  0  0  0  0  0  0  0  0  0  0
    4.8351   -3.7646    7.7364 H   0  0  0  0  0  0  0  0  0  0  0  0
    5.9410   -0.4083    6.4549 H   0  0  0  0  0  0  0  0  0  0  0  0
    4.7826   -2.4375    3.5244 H   0  0  0  0  0  0  0  0  0  0  0  0
    6.2867   -3.8377    2.1986 H   0  0  0  0  0  0  0  0  0  0  0  0
    8.7414   -3.6964    2.5181 H   0  0  0  0  0  0  0  0  0  0  0  0
    9.6847   -2.1215    4.1856 H   0  0  0  0  0  0  0  0  0  0  0  0
    8.1928   -0.6900    5.5279 H   0  0  0  0  0  0  0  0  0  0  0  0
    6.3365    1.2694    4.5987 H   0  0  0  0  0  0  0  0  0  0  0  0
    4.8685    1.5627    5.5394 H   0  0  0  0  0  0  0  0  0  0  0  0
  1  2  1  0  0  0  0
  1 23  1  0  0  0  0
  1 24  1  0  0  0  0
  1 25  1  0  0  0  0
  2  3  1  0  0  0  0
  3  4  1  0  0  0  0
  3  8  2  0  0  0  0
  4  5  2  0  0  0  0
  4 26  1  0  0  0  0
  5  6  1  0  0  0  0
  5 27  1  0  0  0  0
  6  7  2  0  0  0  0
  6 22  1  0  0  0  0
  7  8  1  0  0  0  0
  7  9  1  0  0  0  0
  8 28  1  0  0  0  0
  9 10  1  0  0  0  0
  9 29  1  0  0  0  0
  9 30  1  0  0  0  0
 10 11  1  0  0  0  0
 10 15  1  0  0  0  0
 11 12  2  0  0  0  0
 11 13  1  0  0  0  0
 13 14  1  0  0  0  0
 13 31  1  0  0  0  0
 13 32  1  0  0  0  0
 15 16  1  0  0  0  0
 15 22  1  0  0  0  0
 15 33  1  0  0  0  0
 16 17  1  0  0  0  0
 16 21  2  0  0  0  0
 17 18  2  0  0  0  0
 17 34  1  0  0  0  0
 18 19  1  0  0  0  0
 18 35  1  0  0  0  0
 19 20  2  0  0  0  0
 19 36  1  0  0  0  0
 20 21  1  0  0  0  0
 20 37  1  0  0  0  0
 21 38  1  0  0  0  0
 22 39  1  0  0  0  0
 22 40  1  0  0  0  0
M  END
$$$$
