
 OpenBabel07202414133D

 54 57  0  0  1  0  0  0  0  0999 V2000
    5.1850   -5.3368   -6.6537 C   0  0  0  0  0  0  0  0  0  0  0  0
    6.0246   -5.5953   -5.4123 C   0  0  0  0  0  0  0  0  0  0  0  0
    5.3577   -5.1035   -4.1499 C   0  0  0  0  0  0  0  0  0  0  0  0
    5.5923   -3.7993   -3.7005 C   0  0  0  0  0  0  0  0  0  0  0  0
    5.0225   -3.3496   -2.5125 C   0  0  0  0  0  0  0  0  0  0  0  0
    4.2072   -4.1986   -1.7599 C   0  0  0  0  0  0  0  0  0  0  0  0
    3.9461   -5.4988   -2.1915 C   0  0  0  0  0  0  0  0  0  0  0  0
    3.1287   -6.4086   -1.4829 N   0  0  0  0  0  0  0  0  0  0  0  0
    2.7617   -6.3143   -0.1538 C   0  0  0  0  0  0  0  0  0  0  0  0
    3.1651   -5.4417    0.6198 O   0  0  0  0  0  0  0  0  0  0  0  0
    1.8972   -7.4786    0.4110 C   0  0  3  0  0  0  0  0  0  0  0  0
    0.5854   -7.6438   -0.3078 N   0  0  0  0  0  0  0  0  0  0  0  0
    0.2916   -8.4684   -1.4040 C   0  0  0  0  0  0  0  0  0  0  0  0
   -0.8080   -8.4989   -1.9625 O   0  0  0  0  0  0  0  0  0  0  0  0
    1.3371   -9.3690   -1.9620 C   0  0  0  0  0  0  0  0  0  0  0  0
    0.9650  -10.5060   -2.5682 C   0  0  0  0  0  0  0  0  0  0  0  0
   -0.4946   -6.7699    0.1521 C   0  0  0  0  0  0  0  0  0  0  0  0
   -1.7925   -7.2824    0.2862 C   0  0  0  0  0  0  0  0  0  0  0  0
   -2.8911   -6.4645    0.5861 C   0  0  0  0  0  0  0  0  0  0  0  0
   -2.6981   -5.0913    0.8024 C   0  0  0  0  0  0  0  0  0  0  0  0
   -3.6889   -4.1686    1.0940 N   0  0  0  0  0  0  0  0  0  0  0  0
   -3.1462   -2.9861    1.2680 C   0  0  0  0  0  0  0  0  0  0  0  0
   -1.4483   -2.8918    1.0662 S   0  0  0  0  0  0  0  0  0  0  0  0
   -1.3992   -4.5868    0.7351 C   0  0  0  0  0  0  0  0  0  0  0  0
   -0.2868   -5.4046    0.4256 C   0  0  0  0  0  0  0  0  0  0  0  0
    2.7173   -8.7326    0.7376 C   0  0  0  0  0  0  0  0  0  0  0  0
    2.1524  -10.0064    0.8949 C   0  0  0  0  0  0  0  0  0  0  0  0
    2.9565  -11.1056    1.2012 C   0  0  0  0  0  0  0  0  0  0  0  0
    4.3059  -10.8964    1.4103 C   0  0  0  0  0  0  0  0  0  0  0  0
    4.8874   -9.6858    1.3205 N   0  0  0  0  0  0  0  0  0  0  0  0
    4.0864   -8.6399    1.0036 C   0  0  0  0  0  0  0  0  0  0  0  0
    4.5094   -5.9385   -3.4031 C   0  0  0  0  0  0  0  0  0  0  0  0
    5.7258   -5.6775   -7.5460 H   0  0  0  0  0  0  0  0  0  0  0  0
    4.9628   -4.2723   -6.7709 H   0  0  0  0  0  0  0  0  0  0  0  0
    4.2375   -5.8817   -6.6080 H   0  0  0  0  0  0  0  0  0  0  0  0
    6.9990   -5.1031   -5.5213 H   0  0  0  0  0  0  0  0  0  0  0  0
    6.2406   -6.6679   -5.3205 H   0  0  0  0  0  0  0  0  0  0  0  0
    6.2318   -3.1274   -4.2669 H   0  0  0  0  0  0  0  0  0  0  0  0
    5.2163   -2.3347   -2.1672 H   0  0  0  0  0  0  0  0  0  0  0  0
    3.7782   -3.8048   -0.8427 H   0  0  0  0  0  0  0  0  0  0  0  0
    2.9123   -7.2572   -1.9766 H   0  0  0  0  0  0  0  0  0  0  0  0
    1.6114   -7.1388    1.4200 H   0  0  0  0  0  0  0  0  0  0  0  0
    2.3843   -9.1336   -1.8948 H   0  0  0  0  0  0  0  0  0  0  0  0
   -0.0809  -10.7968   -2.6465 H   0  0  0  0  0  0  0  0  0  0  0  0
    1.6996  -11.1798   -2.9957 H   0  0  0  0  0  0  0  0  0  0  0  0
   -1.9838   -8.3450    0.1484 H   0  0  0  0  0  0  0  0  0  0  0  0
   -3.8918   -6.8815    0.6395 H   0  0  0  0  0  0  0  0  0  0  0  0
   -3.7373   -2.1174    1.5296 H   0  0  0  0  0  0  0  0  0  0  0  0
    0.6802   -4.9264    0.3355 H   0  0  0  0  0  0  0  0  0  0  0  0
    1.0859  -10.1718    0.7602 H   0  0  0  0  0  0  0  0  0  0  0  0
    2.5369  -12.1032    1.2803 H   0  0  0  0  0  0  0  0  0  0  0  0
    4.9710  -11.7139    1.6742 H   0  0  0  0  0  0  0  0  0  0  0  0
    4.6215   -7.6909    0.9892 H   0  0  0  0  0  0  0  0  0  0  0  0
    4.3280   -6.9514   -3.7587 H   0  0  0  0  0  0  0  0  0  0  0  0
  1  2  1  0  0  0  0
  1 33  1  0  0  0  0
  1 34  1  0  0  0  0
  1 35  1  0  0  0  0
  2  3  1  0  0  0  0
  2 36  1  0  0  0  0
  2 37  1  0  0  0  0
  3  4  1  0  0  0  0
  3 32  2  0  0  0  0
  4  5  2  0  0  0  0
  4 38  1  0  0  0  0
  5  6  1  0  0  0  0
  5 39  1  0  0  0  0
  6  7  2  0  0  0  0
  6 40  1  0  0  0  0
  7  8  1  0  0  0  0
  7 32  1  0  0  0  0
  8  9  1  0  0  0  0
  8 41  1  0  0  0  0
  9 10  2  0  0  0  0
  9 11  1  0  0  0  0
 11 12  1  0  0  0  0
 11 26  1  0  0  0  0
 11 42  1  0  0  0  0
 12 13  1  0  0  0  0
 12 17  1  0  0  0  0
 13 14  2  0  0  0  0
 13 15  1  0  0  0  0
 15 16  2  0  0  0  0
 15 43  1  0  0  0  0
 16 44  1  0  0  0  0
 16 45  1  0  0  0  0
 17 18  1  0  0  0  0
 17 25  2  0  0  0  0
 18 19  2  0  0  0  0
 18 46  1  0  0  0  0
 19 20  1  0  0  0  0
 19 47  1  0  0  0  0
 20 21  1  0  0  0  0
 20 24  2  0  0  0  0
 21 22  2  0  0  0  0
 22 23  1  0  0  0  0
 22 48  1  0  0  0  0
 23 24  1  0  0  0  0
 24 25  1  0  0  0  0
 25 49  1  0  0  0  0
 26 27  1  0  0  0  0
 26 31  2  0  0  0  0
 27 28  2  0  0  0  0
 27 50  1  0  0  0  0
 28 29  1  0  0  0  0
 28 51  1  0  0  0  0
 29 30  2  0  0  0  0
 29 52  1  0  0  0  0
 30 31  1  0  0  0  0
 31 53  1  0  0  0  0
 32 54  1  0  0  0  0
M  END
$$$$
