
 OpenBabel07202414153D

 60 62  0  0  1  0  0  0  0  0999 V2000
    8.9466   -7.5277    4.7528 C   0  0  0  0  0  0  0  0  0  0  0  0
    8.5020   -6.2428    4.3351 O   0  0  0  0  0  0  0  0  0  0  0  0
    7.0758   -6.2071    4.2070 C   0  0  0  0  0  0  0  0  0  0  0  0
    6.6495   -4.8118    3.7467 C   0  0  0  0  0  0  0  0  0  0  0  0
    7.1191   -4.4880    2.4076 N   0  0  0  0  0  0  0  0  0  0  0  0
    6.4181   -4.9016    1.2801 C   0  0  0  0  0  0  0  0  0  0  0  0
    5.3936   -5.5708    1.4037 O   0  0  0  0  0  0  0  0  0  0  0  0
    6.9586   -4.3407   -0.0909 C   0  0  3  0  0  0  0  0  0  0  0  0
    6.5229   -5.1411   -1.2793 N   0  0  0  0  0  0  0  0  0  0  0  0
    7.3526   -5.9319   -2.1224 C   0  0  0  0  0  0  0  0  0  0  0  0
    6.8644   -6.6439   -3.0108 O   0  0  0  0  0  0  0  0  0  0  0  0
    8.8130   -5.9143   -2.0470 C   0  0  0  0  0  0  0  0  0  0  0  0
    9.6091   -6.6543   -2.9059 C   0  0  0  0  0  0  0  0  0  0  0  0
   10.9133   -6.4215   -2.6098 O   0  0  0  0  0  0  0  0  0  0  0  0
   10.8546   -5.5438   -1.5754 C   0  0  0  0  0  0  0  0  0  0  0  0
    9.6428   -5.1982   -1.1961 N   0  0  0  0  0  0  0  0  0  0  0  0
    5.1046   -5.3213   -1.4692 C   0  0  0  0  0  0  0  0  0  0  0  0
    4.5533   -6.6031   -1.4390 C   0  0  0  0  0  0  0  0  0  0  0  0
    3.1971   -6.8122   -1.6992 C   0  0  0  0  0  0  0  0  0  0  0  0
    2.3334   -5.7465   -1.9924 C   0  0  0  0  0  0  0  0  0  0  0  0
    0.8433   -5.9616   -2.3065 C   0  0  0  0  0  0  0  0  0  0  0  0
    0.4312   -7.4503   -2.2533 C   0  0  0  0  0  0  0  0  0  0  0  0
   -0.0237   -5.1965   -1.2859 C   0  0  0  0  0  0  0  0  0  0  0  0
    0.5008   -5.4491   -3.7230 C   0  0  0  0  0  0  0  0  0  0  0  0
    2.8922   -4.4567   -1.9940 C   0  0  0  0  0  0  0  0  0  0  0  0
    4.2582   -4.2476   -1.7514 C   0  0  0  0  0  0  0  0  0  0  0  0
    6.6648   -2.8425   -0.2190 C   0  0  0  0  0  0  0  0  0  0  0  0
    5.5943   -2.2136    0.4416 C   0  0  0  0  0  0  0  0  0  0  0  0
    5.3708   -0.8494    0.2818 C   0  0  0  0  0  0  0  0  0  0  0  0
    6.2314   -0.1405   -0.5343 C   0  0  0  0  0  0  0  0  0  0  0  0
    7.2659   -0.7037   -1.1969 N   0  0  0  0  0  0  0  0  0  0  0  0
    7.4542   -2.0363   -1.0329 C   0  0  0  0  0  0  0  0  0  0  0  0
   10.0359   -7.5044    4.8390 H   0  0  0  0  0  0  0  0  0  0  0  0
    8.6696   -8.2864    4.0144 H   0  0  0  0  0  0  0  0  0  0  0  0
    8.5234   -7.7808    5.7299 H   0  0  0  0  0  0  0  0  0  0  0  0
    6.6259   -6.4187    5.1848 H   0  0  0  0  0  0  0  0  0  0  0  0
    6.7499   -6.9695    3.4911 H   0  0  0  0  0  0  0  0  0  0  0  0
    7.0571   -4.0486    4.4181 H   0  0  0  0  0  0  0  0  0  0  0  0
    5.5563   -4.7411    3.7666 H   0  0  0  0  0  0  0  0  0  0  0  0
    8.0667   -4.1437    2.3158 H   0  0  0  0  0  0  0  0  0  0  0  0
    8.0345   -4.4194    0.0209 H   0  0  0  0  0  0  0  0  0  0  0  0
    9.4075   -7.3336   -3.7254 H   0  0  0  0  0  0  0  0  0  0  0  0
   11.8056   -5.2180   -1.1714 H   0  0  0  0  0  0  0  0  0  0  0  0
    5.1749   -7.4649   -1.2063 H   0  0  0  0  0  0  0  0  0  0  0  0
    2.8508   -7.8408   -1.6696 H   0  0  0  0  0  0  0  0  0  0  0  0
    0.6051   -7.8792   -1.2593 H   0  0  0  0  0  0  0  0  0  0  0  0
    0.9934   -8.0455   -2.9836 H   0  0  0  0  0  0  0  0  0  0  0  0
   -0.6321   -7.5818   -2.4820 H   0  0  0  0  0  0  0  0  0  0  0  0
    0.1748   -5.5366   -0.2628 H   0  0  0  0  0  0  0  0  0  0  0  0
   -1.0910   -5.3459   -1.4874 H   0  0  0  0  0  0  0  0  0  0  0  0
    0.1590   -4.1167   -1.3163 H   0  0  0  0  0  0  0  0  0  0  0  0
    1.0634   -5.9921   -4.4914 H   0  0  0  0  0  0  0  0  0  0  0  0
    0.7177   -4.3823   -3.8447 H   0  0  0  0  0  0  0  0  0  0  0  0
   -0.5662   -5.5855   -3.9377 H   0  0  0  0  0  0  0  0  0  0  0  0
    2.2774   -3.5860   -2.2091 H   0  0  0  0  0  0  0  0  0  0  0  0
    4.6412   -3.2397   -1.8557 H   0  0  0  0  0  0  0  0  0  0  0  0
    4.9020   -2.7828    1.0592 H   0  0  0  0  0  0  0  0  0  0  0  0
    4.5390   -0.3586    0.7748 H   0  0  0  0  0  0  0  0  0  0  0  0
    6.1064    0.9270   -0.6851 H   0  0  0  0  0  0  0  0  0  0  0  0
    8.2856   -2.4443   -1.6013 H   0  0  0  0  0  0  0  0  0  0  0  0
  1  2  1  0  0  0  0
  1 33  1  0  0  0  0
  1 34  1  0  0  0  0
  1 35  1  0  0  0  0
  2  3  1  0  0  0  0
  3  4  1  0  0  0  0
  3 36  1  0  0  0  0
  3 37  1  0  0  0  0
  4  5  1  0  0  0  0
  4 38  1  0  0  0  0
  4 39  1  0  0  0  0
  5  6  1  0  0  0  0
  5 40  1  0  0  0  0
  6  7  2  0  0  0  0
  6  8  1  0  0  0  0
  8  9  1  0  0  0  0
  8 27  1  0  0  0  0
  8 41  1  0  0  0  0
  9 10  1  0  0  0  0
  9 17  1  0  0  0  0
 10 11  2  0  0  0  0
 10 12  1  0  0  0  0
 12 13  2  0  0  0  0
 12 16  1  0  0  0  0
 13 14  1  0  0  0  0
 13 42  1  0  0  0  0
 14 15  1  0  0  0  0
 15 16  2  0  0  0  0
 15 43  1  0  0  0  0
 17 18  1  0  0  0  0
 17 26  2  0  0  0  0
 18 19  2  0  0  0  0
 18 44  1  0  0  0  0
 19 20  1  0  0  0  0
 19 45  1  0  0  0  0
 20 21  1  0  0  0  0
 20 25  2  0  0  0  0
 21 22  1  0  0  0  0
 21 23  1  0  0  0  0
 21 24  1  0  0  0  0
 22 46  1  0  0  0  0
 22 47  1  0  0  0  0
 22 48  1  0  0  0  0
 23 49  1  0  0  0  0
 23 50  1  0  0  0  0
 23 51  1  0  0  0  0
 24 52  1  0  0  0  0
 24 53  1  0  0  0  0
 24 54  1  0  0  0  0
 25 26  1  0  0  0  0
 25 55  1  0  0  0  0
 26 56  1  0  0  0  0
 27 28  1  0  0  0  0
 27 32  2  0  0  0  0
 28 29  2  0  0  0  0
 28 57  1  0  0  0  0
 29 30  1  0  0  0  0
 29 58  1  0  0  0  0
 30 31  2  0  0  0  0
 30 59  1  0  0  0  0
 31 32  1  0  0  0  0
 32 60  1  0  0  0  0
M  END
$$$$
