
 OpenBabel07202414193D

 63 67  0  0  1  0  0  0  0  0999 V2000
    3.3704    1.7655    1.0809 O   0  0  0  0  0  0  0  0  0  0  0  0
    2.6036    0.8280    0.8851 C   0  0  0  0  0  0  0  0  0  0  0  0
    2.9925   -0.6146    1.2017 C   0  0  0  0  0  0  0  0  0  0  0  0
    2.1091   -1.2423    2.2204 N   0  0  0  0  0  0  0  0  0  0  0  0
    2.5765   -2.6320    2.4164 C   0  0  0  0  0  0  0  0  0  0  0  0
    1.8618   -3.3597    3.5344 C   0  0  0  0  0  0  0  0  0  0  0  0
    1.8865   -4.7657    3.5561 C   0  0  0  0  0  0  0  0  0  0  0  0
    1.2180   -5.4713    4.5542 C   0  0  0  0  0  0  0  0  0  0  0  0
    0.5210   -4.7786    5.5391 C   0  0  0  0  0  0  0  0  0  0  0  0
   -0.3533   -5.6520    6.7356 Cl  0  0  0  0  0  0  0  0  0  0  0  0
    0.5192   -3.3811    5.5523 C   0  0  0  0  0  0  0  0  0  0  0  0
    1.2174   -2.6593    4.5690 C   0  0  0  0  0  0  0  0  0  0  0  0
    1.2214   -1.1339    4.5735 C   0  0  1  0  0  0  0  0  0  0  0  0
    1.5624   -0.5453    5.9577 C   0  0  0  0  0  0  0  0  0  0  0  0
    0.7760    0.1911    6.5374 O   0  0  0  0  0  0  0  0  0  0  0  0
    2.8142   -0.9172    6.4192 N   0  0  0  0  0  0  0  0  0  0  0  0
    3.3844   -0.6838    7.6989 C   0  0  0  0  0  0  0  0  0  0  0  0
    2.6880   -0.0883    8.7477 C   0  0  0  0  0  0  0  0  0  0  0  0
    3.1273   -0.0555   10.0283 N   0  0  0  0  0  0  0  0  0  0  0  0
    4.3475   -0.5800   10.2645 C   0  0  0  0  0  0  0  0  0  0  0  0
    5.2036   -1.0592    9.2749 C   0  0  0  0  0  0  0  0  0  0  0  0
    6.5270   -1.4348    9.5738 C   0  0  0  0  0  0  0  0  0  0  0  0
    7.3932   -1.8494    8.5653 C   0  0  0  0  0  0  0  0  0  0  0  0
    6.9329   -1.9419    7.2595 C   0  0  0  0  0  0  0  0  0  0  0  0
    5.6114   -1.6004    6.9580 C   0  0  0  0  0  0  0  0  0  0  0  0
    4.7135   -1.1275    7.9507 C   0  0  0  0  0  0  0  0  0  0  0  0
    2.1757   -0.5258    3.5141 C   0  0  0  0  0  0  0  0  0  0  0  0
    1.3452    0.9787    0.3417 N   0  0  0  0  0  0  0  0  0  0  0  0
    0.8227    2.2991    0.0342 C   0  0  0  0  0  0  0  0  0  0  0  0
   -0.6224    2.2474   -0.4556 C   0  0  0  0  0  0  0  0  0  0  0  0
   -1.1830    3.6053   -0.8011 C   0  0  0  0  0  0  0  0  0  0  0  0
   -1.7976    4.3954    0.1817 C   0  0  0  0  0  0  0  0  0  0  0  0
   -2.3477    5.6380   -0.1450 C   0  0  0  0  0  0  0  0  0  0  0  0
   -2.2839    6.1080   -1.4560 C   0  0  0  0  0  0  0  0  0  0  0  0
   -1.6609    5.3366   -2.4340 C   0  0  0  0  0  0  0  0  0  0  0  0
   -1.5846    5.9127   -4.0543 Cl  0  0  0  0  0  0  0  0  0  0  0  0
   -1.1076    4.0950   -2.1135 C   0  0  0  0  0  0  0  0  0  0  0  0
    4.0429   -0.6255    1.5208 H   0  0  0  0  0  0  0  0  0  0  0  0
    2.9260   -1.1752    0.2606 H   0  0  0  0  0  0  0  0  0  0  0  0
    3.6514   -2.6595    2.6414 H   0  0  0  0  0  0  0  0  0  0  0  0
    2.4087   -3.1865    1.4867 H   0  0  0  0  0  0  0  0  0  0  0  0
    2.4184   -5.3192    2.7859 H   0  0  0  0  0  0  0  0  0  0  0  0
    1.2297   -6.5596    4.5506 H   0  0  0  0  0  0  0  0  0  0  0  0
   -0.0390   -2.8616    6.3302 H   0  0  0  0  0  0  0  0  0  0  0  0
    0.1971   -0.8218    4.3264 H   0  0  0  0  0  0  0  0  0  0  0  0
    3.3209   -1.5625    5.8360 H   0  0  0  0  0  0  0  0  0  0  0  0
    1.7190    0.3803    8.6150 H   0  0  0  0  0  0  0  0  0  0  0  0
    4.6370   -0.5856   11.3126 H   0  0  0  0  0  0  0  0  0  0  0  0
    6.9042   -1.3627   10.5923 H   0  0  0  0  0  0  0  0  0  0  0  0
    8.4297   -2.0820    8.7962 H   0  0  0  0  0  0  0  0  0  0  0  0
    7.6060   -2.2574    6.4659 H   0  0  0  0  0  0  0  0  0  0  0  0
    5.3188   -1.6590    5.9142 H   0  0  0  0  0  0  0  0  0  0  0  0
    3.2142   -0.5138    3.8713 H   0  0  0  0  0  0  0  0  0  0  0  0
    1.8874    0.5247    3.3851 H   0  0  0  0  0  0  0  0  0  0  0  0
    0.7226    0.1782    0.3955 H   0  0  0  0  0  0  0  0  0  0  0  0
    1.4787    2.7447   -0.7236 H   0  0  0  0  0  0  0  0  0  0  0  0
    0.9085    2.9178    0.9359 H   0  0  0  0  0  0  0  0  0  0  0  0
   -1.2561    1.7816    0.3108 H   0  0  0  0  0  0  0  0  0  0  0  0
   -0.6964    1.5893   -1.3311 H   0  0  0  0  0  0  0  0  0  0  0  0
   -1.8640    4.0433    1.2097 H   0  0  0  0  0  0  0  0  0  0  0  0
   -2.8323    6.2367    0.6226 H   0  0  0  0  0  0  0  0  0  0  0  0
   -2.7218    7.0705   -1.7077 H   0  0  0  0  0  0  0  0  0  0  0  0
   -0.6294    3.5045   -2.8911 H   0  0  0  0  0  0  0  0  0  0  0  0
  1  2  2  0  0  0  0
  2  3  1  0  0  0  0
  2 28  1  0  0  0  0
  3  4  1  0  0  0  0
  3 38  1  0  0  0  0
  3 39  1  0  0  0  0
  4  5  1  0  0  0  0
  4 27  1  0  0  0  0
  5  6  1  0  0  0  0
  5 40  1  0  0  0  0
  5 41  1  0  0  0  0
  6  7  1  0  0  0  0
  6 12  2  0  0  0  0
  7  8  2  0  0  0  0
  7 42  1  0  0  0  0
  8  9  1  0  0  0  0
  8 43  1  0  0  0  0
  9 10  1  0  0  0  0
  9 11  2  0  0  0  0
 11 12  1  0  0  0  0
 11 44  1  0  0  0  0
 12 13  1  0  0  0  0
 13 27  1  0  0  0  0
 13 14  1  0  0  0  0
 13 45  1  6  0  0  0
 14 15  2  0  0  0  0
 14 16  1  0  0  0  0
 16 17  1  0  0  0  0
 16 46  1  0  0  0  0
 17 18  1  0  0  0  0
 17 26  2  0  0  0  0
 18 19  2  0  0  0  0
 18 47  1  0  0  0  0
 19 20  1  0  0  0  0
 20 21  2  0  0  0  0
 20 48  1  0  0  0  0
 21 22  1  0  0  0  0
 21 26  1  0  0  0  0
 22 23  2  0  0  0  0
 22 49  1  0  0  0  0
 23 24  1  0  0  0  0
 23 50  1  0  0  0  0
 24 25  2  0  0  0  0
 24 51  1  0  0  0  0
 25 26  1  0  0  0  0
 25 52  1  0  0  0  0
 27 53  1  0  0  0  0
 27 54  1  0  0  0  0
 28 29  1  0  0  0  0
 28 55  1  0  0  0  0
 29 30  1  0  0  0  0
 29 56  1  0  0  0  0
 29 57  1  0  0  0  0
 30 31  1  0  0  0  0
 30 58  1  0  0  0  0
 30 59  1  0  0  0  0
 31 32  1  0  0  0  0
 31 37  2  0  0  0  0
 32 33  2  0  0  0  0
 32 60  1  0  0  0  0
 33 34  1  0  0  0  0
 33 61  1  0  0  0  0
 34 35  2  0  0  0  0
 34 62  1  0  0  0  0
 35 36  1  0  0  0  0
 35 37  1  0  0  0  0
 37 63  1  0  0  0  0
M  END
$$$$
