
 OpenBabel07202414143D

 22 23  0  0  0  0  0  0  0  0999 V2000
    1.2251    0.7913   -0.3013 C   0  0  0  0  0  0  0  0  0  0  0  0
    2.6535    0.8321   -0.2768 O   0  0  0  0  0  0  0  0  0  0  0  0
    3.1789    0.9148    0.9680 C   0  0  0  0  0  0  0  0  0  0  0  0
    2.5500    0.9738    2.0133 O   0  0  0  0  0  0  0  0  0  0  0  0
    4.6607    0.9129    0.9132 C   0  0  0  0  0  0  0  0  0  0  0  0
    5.3810    0.8849   -0.2952 C   0  0  0  0  0  0  0  0  0  0  0  0
    6.7908    0.8871   -0.2926 C   0  0  0  0  0  0  0  0  0  0  0  0
    7.5164    0.9075    0.8976 C   0  0  0  0  0  0  0  0  0  0  0  0
    6.7849    0.9338    2.0674 C   0  0  0  0  0  0  0  0  0  0  0  0
    5.3917    0.9411    2.0925 C   0  0  0  0  0  0  0  0  0  0  0  0
    4.9191    0.9846    3.4068 N   0  0  0  0  0  0  0  0  0  0  0  0
    5.9525    1.0101    4.3184 C   0  0  0  0  0  0  0  0  0  0  0  0
    5.8962    1.0579    5.5258 O   0  0  0  0  0  0  0  0  0  0  0  0
    7.2450    0.9699    3.4576 C   0  0  0  0  0  0  0  0  0  0  0  0
    8.3917    0.9689    3.8400 O   0  0  0  0  0  0  0  0  0  0  0  0
    7.7170    0.8748   -1.9423 Br  0  0  0  0  0  0  0  0  0  0  0  0
    0.9100    0.5825   -1.3271 H   0  0  0  0  0  0  0  0  0  0  0  0
    0.8163    1.7602    0.0012 H   0  0  0  0  0  0  0  0  0  0  0  0
    0.8473   -0.0080    0.3443 H   0  0  0  0  0  0  0  0  0  0  0  0
    4.8534    0.8655   -1.2475 H   0  0  0  0  0  0  0  0  0  0  0  0
    8.6019    0.9093    0.9178 H   0  0  0  0  0  0  0  0  0  0  0  0
    3.9343    1.0097    3.6584 H   0  0  0  0  0  0  0  0  0  0  0  0
  1  2  1  0  0  0  0
  1 17  1  0  0  0  0
  1 18  1  0  0  0  0
  1 19  1  0  0  0  0
  2  3  1  0  0  0  0
  3  4  2  0  0  0  0
  3  5  1  0  0  0  0
  5  6  1  0  0  0  0
  5 10  2  0  0  0  0
  6  7  2  0  0  0  0
  6 20  1  0  0  0  0
  7  8  1  0  0  0  0
  7 16  1  0  0  0  0
  8  9  2  0  0  0  0
  8 21  1  0  0  0  0
  9 10  1  0  0  0  0
  9 14  1  0  0  0  0
 10 11  1  0  0  0  0
 11 12  1  0  0  0  0
 11 22  1  0  0  0  0
 12 13  2  0  0  0  0
 12 14  1  0  0  0  0
 14 15  2  0  0  0  0
M  END
$$$$
