
 OpenBabel07202414133D

 56 59  0  0  0  0  0  0  0  0999 V2000
    4.6021   -3.9826    8.8435 C   0  0  0  0  0  0  0  0  0  0  0  0
    3.9736   -4.6889    7.6505 C   0  0  0  0  0  0  0  0  0  0  0  0
    4.9722   -4.8241    6.5082 C   0  0  0  0  0  0  0  0  0  0  0  0
    4.3377   -5.4902    5.4183 O   0  0  0  0  0  0  0  0  0  0  0  0
    5.0920   -5.6496    4.2877 C   0  0  0  0  0  0  0  0  0  0  0  0
    6.4183   -5.2468    4.1210 C   0  0  0  0  0  0  0  0  0  0  0  0
    7.0805   -5.4693    2.9061 C   0  0  0  0  0  0  0  0  0  0  0  0
    6.4349   -6.1184    1.8503 C   0  0  0  0  0  0  0  0  0  0  0  0
    7.1317   -6.3457    0.6390 N   0  0  0  0  0  0  0  0  0  0  0  0
    6.8918   -7.4109   -0.2591 C   0  0  0  0  0  0  0  0  0  0  0  0
    6.9673   -7.2164   -1.6493 C   0  0  0  0  0  0  0  0  0  0  0  0
    6.6375   -8.2565   -2.5379 C   0  0  0  0  0  0  0  0  0  0  0  0
    6.7215   -8.1401   -4.0438 C   0  0  0  0  0  0  0  0  0  0  0  0
    6.4969   -6.7706   -4.6412 C   0  0  0  0  0  0  0  0  0  0  0  0
    7.4302   -6.1126   -5.0940 O   0  0  0  0  0  0  0  0  0  0  0  0
    5.1678   -6.3551   -4.6252 N   0  0  0  0  0  0  0  0  0  0  0  0
    4.8583   -5.0661   -5.1318 C   0  0  0  0  0  0  0  0  0  0  0  0
    5.1687   -4.7422   -6.4552 C   0  0  0  0  0  0  0  0  0  0  0  0
    5.0156   -3.5139   -6.9946 N   0  0  0  0  0  0  0  0  0  0  0  0
    4.6746   -2.5339   -6.1324 C   0  0  0  0  0  0  0  0  0  0  0  0
    4.4261   -2.7261   -4.7698 C   0  0  0  0  0  0  0  0  0  0  0  0
    4.2803   -1.6455   -3.8850 C   0  0  0  0  0  0  0  0  0  0  0  0
    4.0232   -1.8652   -2.5329 C   0  0  0  0  0  0  0  0  0  0  0  0
    3.8191   -3.1591   -2.0689 C   0  0  0  0  0  0  0  0  0  0  0  0
    3.9975   -4.2417   -2.9301 C   0  0  0  0  0  0  0  0  0  0  0  0
    4.3908   -4.0466   -4.2753 C   0  0  0  0  0  0  0  0  0  0  0  0
    6.2919   -9.5117   -2.0073 C   0  0  0  0  0  0  0  0  0  0  0  0
    6.2732   -9.7228   -0.6303 C   0  0  0  0  0  0  0  0  0  0  0  0
    5.8593  -11.2723   -0.0106 Cl  0  0  0  0  0  0  0  0  0  0  0  0
    6.5821   -8.6878    0.2350 C   0  0  0  0  0  0  0  0  0  0  0  0
    5.0999   -6.4955    2.0216 C   0  0  0  0  0  0  0  0  0  0  0  0
    4.4351   -6.2742    3.2286 C   0  0  0  0  0  0  0  0  0  0  0  0
    3.8834   -3.8930    9.6554 H   0  0  0  0  0  0  0  0  0  0  0  0
    4.9381   -2.9795    8.5641 H   0  0  0  0  0  0  0  0  0  0  0  0
    5.4721   -4.5450    9.2106 H   0  0  0  0  0  0  0  0  0  0  0  0
    3.0950   -4.1320    7.3073 H   0  0  0  0  0  0  0  0  0  0  0  0
    3.6105   -5.6804    7.9485 H   0  0  0  0  0  0  0  0  0  0  0  0
    5.8333   -5.4104    6.8492 H   0  0  0  0  0  0  0  0  0  0  0  0
    5.2993   -3.8229    6.1986 H   0  0  0  0  0  0  0  0  0  0  0  0
    6.9749   -4.7679    4.9192 H   0  0  0  0  0  0  0  0  0  0  0  0
    8.1201   -5.1666    2.8070 H   0  0  0  0  0  0  0  0  0  0  0  0
    7.3552   -5.4654    0.1827 H   0  0  0  0  0  0  0  0  0  0  0  0
    7.2836   -6.2477   -2.0325 H   0  0  0  0  0  0  0  0  0  0  0  0
    5.9792   -8.8065   -4.5024 H   0  0  0  0  0  0  0  0  0  0  0  0
    7.7070   -8.4947   -4.3694 H   0  0  0  0  0  0  0  0  0  0  0  0
    4.6585   -6.6616   -3.8059 H   0  0  0  0  0  0  0  0  0  0  0  0
    5.5683   -5.4877   -7.1376 H   0  0  0  0  0  0  0  0  0  0  0  0
    4.6198   -1.5446   -6.5803 H   0  0  0  0  0  0  0  0  0  0  0  0
    4.4288   -0.6264   -4.2366 H   0  0  0  0  0  0  0  0  0  0  0  0
    3.9796   -1.0261   -1.8437 H   0  0  0  0  0  0  0  0  0  0  0  0
    3.5567   -3.3313   -1.0281 H   0  0  0  0  0  0  0  0  0  0  0  0
    3.8458   -5.2383   -2.5264 H   0  0  0  0  0  0  0  0  0  0  0  0
    6.0503  -10.3379   -2.6740 H   0  0  0  0  0  0  0  0  0  0  0  0
    6.5827   -8.8709    1.3066 H   0  0  0  0  0  0  0  0  0  0  0  0
    4.5491   -6.9743    1.2129 H   0  0  0  0  0  0  0  0  0  0  0  0
    3.4031   -6.5964    3.3451 H   0  0  0  0  0  0  0  0  0  0  0  0
  1  2  1  0  0  0  0
  1 33  1  0  0  0  0
  1 34  1  0  0  0  0
  1 35  1  0  0  0  0
  2  3  1  0  0  0  0
  2 36  1  0  0  0  0
  2 37  1  0  0  0  0
  3  4  1  0  0  0  0
  3 38  1  0  0  0  0
  3 39  1  0  0  0  0
  4  5  1  0  0  0  0
  5  6  2  0  0  0  0
  5 32  1  0  0  0  0
  6  7  1  0  0  0  0
  6 40  1  0  0  0  0
  7  8  2  0  0  0  0
  7 41  1  0  0  0  0
  8  9  1  0  0  0  0
  8 31  1  0  0  0  0
  9 10  1  0  0  0  0
  9 42  1  0  0  0  0
 10 11  2  0  0  0  0
 10 30  1  0  0  0  0
 11 12  1  0  0  0  0
 11 43  1  0  0  0  0
 12 13  1  0  0  0  0
 12 27  2  0  0  0  0
 13 14  1  0  0  0  0
 13 44  1  0  0  0  0
 13 45  1  0  0  0  0
 14 15  2  0  0  0  0
 14 16  1  0  0  0  0
 16 17  1  0  0  0  0
 16 46  1  0  0  0  0
 17 18  2  0  0  0  0
 17 26  1  0  0  0  0
 18 19  1  0  0  0  0
 18 47  1  0  0  0  0
 19 20  2  0  0  0  0
 20 21  1  0  0  0  0
 20 48  1  0  0  0  0
 21 22  2  0  0  0  0
 21 26  1  0  0  0  0
 22 23  1  0  0  0  0
 22 49  1  0  0  0  0
 23 24  2  0  0  0  0
 23 50  1  0  0  0  0
 24 25  1  0  0  0  0
 24 51  1  0  0  0  0
 25 26  2  0  0  0  0
 25 52  1  0  0  0  0
 27 28  1  0  0  0  0
 27 53  1  0  0  0  0
 28 29  1  0  0  0  0
 28 30  2  0  0  0  0
 30 54  1  0  0  0  0
 31 32  2  0  0  0  0
 31 55  1  0  0  0  0
 32 56  1  0  0  0  0
M  END
$$$$
