
 OpenBabel07202414123D

 67 70  0  0  1  0  0  0  0  0999 V2000
    2.2031    1.3383    0.4309 C   0  0  0  0  0  0  0  0  0  0  0  0
    2.6163   -0.1329    0.2013 C   0  0  0  0  0  0  0  0  0  0  0  0
    3.6398   -0.4901    1.3037 C   0  0  0  0  0  0  0  0  0  0  0  0
    1.3522   -0.9986    0.4086 C   0  0  0  0  0  0  0  0  0  0  0  0
    3.2090   -0.3990   -1.1978 C   0  0  0  0  0  0  0  0  0  0  0  0
    3.2640    0.5619   -2.2149 C   0  0  0  0  0  0  0  0  0  0  0  0
    3.7541    0.2605   -3.5110 C   0  0  0  0  0  0  0  0  0  0  0  0
    4.2303   -1.0135   -3.8501 C   0  0  0  0  0  0  0  0  0  0  0  0
    4.2502   -1.9414   -2.7996 C   0  0  0  0  0  0  0  0  0  0  0  0
    3.7234   -1.6590   -1.5188 C   0  0  0  0  0  0  0  0  0  0  0  0
    4.6121   -1.3955   -5.2287 N   0  0  0  0  0  0  0  0  0  0  0  0
    4.4350   -2.8460   -5.5476 C   0  0  3  0  0  0  0  0  0  0  0  0
    3.3109   -3.1730   -6.5432 C   0  0  0  0  0  0  0  0  0  0  0  0
    2.4040   -2.2122   -7.0265 C   0  0  0  0  0  0  0  0  0  0  0  0
    1.3735   -2.5731   -7.8909 C   0  0  0  0  0  0  0  0  0  0  0  0
    1.2327   -3.9076   -8.2144 C   0  0  0  0  0  0  0  0  0  0  0  0
    2.0486   -4.8733   -7.7480 N   0  0  0  0  0  0  0  0  0  0  0  0
    3.0550   -4.4912   -6.9244 C   0  0  0  0  0  0  0  0  0  0  0  0
    5.7862   -3.6507   -5.6504 C   0  0  0  0  0  0  0  0  0  0  0  0
    5.8030   -4.8772   -5.5371 O   0  0  0  0  0  0  0  0  0  0  0  0
    6.9530   -2.9604   -5.9356 N   0  0  0  0  0  0  0  0  0  0  0  0
    8.2300   -3.6395   -6.1426 C   0  0  0  0  0  0  0  0  0  0  0  0
    9.3283   -2.6916   -6.6499 C   0  0  0  0  0  0  0  0  0  0  0  0
   10.6701   -3.3722   -6.8048 C   0  0  0  0  0  0  0  0  0  0  0  0
   11.5709   -3.4206   -5.7311 C   0  0  0  0  0  0  0  0  0  0  0  0
   12.8066   -4.0703   -5.8596 C   0  0  0  0  0  0  0  0  0  0  0  0
   13.1499   -4.6777   -7.0639 C   0  0  0  0  0  0  0  0  0  0  0  0
   12.2647   -4.6243   -8.1318 C   0  0  0  0  0  0  0  0  0  0  0  0
   11.0336   -3.9809   -8.0156 C   0  0  0  0  0  0  0  0  0  0  0  0
   12.5930   -5.2043   -9.2947 F   0  0  0  0  0  0  0  0  0  0  0  0
    4.9731   -0.4132   -6.1958 C   0  0  0  0  0  0  0  0  0  0  0  0
    5.1110    0.7693   -5.8911 O   0  0  0  0  0  0  0  0  0  0  0  0
    5.2615   -0.7409   -7.6142 C   0  0  0  0  0  0  0  0  0  0  0  0
    5.4445   -1.9111   -8.3332 C   0  0  0  0  0  0  0  0  0  0  0  0
    5.7286   -1.5698   -9.6271 N   0  0  0  0  0  0  0  0  0  0  0  0
    5.7461   -0.2505   -9.8267 N   0  0  0  0  0  0  0  0  0  0  0  0
    5.4562    0.2489   -8.6240 C   0  0  0  0  0  0  0  0  0  0  0  0
    1.8042    1.4836    1.4426 H   0  0  0  0  0  0  0  0  0  0  0  0
    1.4200    1.6522   -0.2689 H   0  0  0  0  0  0  0  0  0  0  0  0
    3.0551    2.0176    0.3167 H   0  0  0  0  0  0  0  0  0  0  0  0
    3.2159   -0.3281    2.3025 H   0  0  0  0  0  0  0  0  0  0  0  0
    4.5412    0.1281    1.2217 H   0  0  0  0  0  0  0  0  0  0  0  0
    3.9522   -1.5388    1.2623 H   0  0  0  0  0  0  0  0  0  0  0  0
    0.9421   -0.8620    1.4175 H   0  0  0  0  0  0  0  0  0  0  0  0
    1.5564   -2.0681    0.2881 H   0  0  0  0  0  0  0  0  0  0  0  0
    0.5648   -0.7302   -0.3050 H   0  0  0  0  0  0  0  0  0  0  0  0
    2.9126    1.5762   -2.0463 H   0  0  0  0  0  0  0  0  0  0  0  0
    3.6947    1.0658   -4.2356 H   0  0  0  0  0  0  0  0  0  0  0  0
    4.6741   -2.9381   -2.9034 H   0  0  0  0  0  0  0  0  0  0  0  0
    3.7229   -2.4600   -0.7833 H   0  0  0  0  0  0  0  0  0  0  0  0
    3.9827   -3.3172   -4.6700 H   0  0  0  0  0  0  0  0  0  0  0  0
    2.4756   -1.1645   -6.7473 H   0  0  0  0  0  0  0  0  0  0  0  0
    0.6919   -1.8294   -8.2895 H   0  0  0  0  0  0  0  0  0  0  0  0
    0.4301   -4.2449   -8.8638 H   0  0  0  0  0  0  0  0  0  0  0  0
    3.6499   -5.3241   -6.5559 H   0  0  0  0  0  0  0  0  0  0  0  0
    6.9169   -1.9722   -6.1374 H   0  0  0  0  0  0  0  0  0  0  0  0
    8.0716   -4.4550   -6.8584 H   0  0  0  0  0  0  0  0  0  0  0  0
    8.5162   -4.0952   -5.1877 H   0  0  0  0  0  0  0  0  0  0  0  0
    9.4337   -1.8404   -5.9643 H   0  0  0  0  0  0  0  0  0  0  0  0
    9.0296   -2.2539   -7.6107 H   0  0  0  0  0  0  0  0  0  0  0  0
   11.3232   -2.9466   -4.7817 H   0  0  0  0  0  0  0  0  0  0  0  0
   13.4930   -4.1013   -5.0177 H   0  0  0  0  0  0  0  0  0  0  0  0
   14.1006   -5.1916   -7.1749 H   0  0  0  0  0  0  0  0  0  0  0  0
   10.3765   -3.9577   -8.8793 H   0  0  0  0  0  0  0  0  0  0  0  0
    5.4155   -2.9617   -8.1028 H   0  0  0  0  0  0  0  0  0  0  0  0
    5.9277   -2.1888  -10.4087 H   0  0  0  0  0  0  0  0  0  0  0  0
    5.3992    1.3254   -8.5123 H   0  0  0  0  0  0  0  0  0  0  0  0
  1  2  1  0  0  0  0
  1 38  1  0  0  0  0
  1 39  1  0  0  0  0
  1 40  1  0  0  0  0
  2  3  1  0  0  0  0
  2  4  1  0  0  0  0
  2  5  1  0  0  0  0
  3 41  1  0  0  0  0
  3 42  1  0  0  0  0
  3 43  1  0  0  0  0
  4 44  1  0  0  0  0
  4 45  1  0  0  0  0
  4 46  1  0  0  0  0
  5  6  1  0  0  0  0
  5 10  2  0  0  0  0
  6  7  2  0  0  0  0
  6 47  1  0  0  0  0
  7  8  1  0  0  0  0
  7 48  1  0  0  0  0
  8  9  2  0  0  0  0
  8 11  1  0  0  0  0
  9 10  1  0  0  0  0
  9 49  1  0  0  0  0
 10 50  1  0  0  0  0
 11 12  1  0  0  0  0
 11 31  1  0  0  0  0
 12 13  1  0  0  0  0
 12 19  1  0  0  0  0
 12 51  1  0  0  0  0
 13 14  1  0  0  0  0
 13 18  2  0  0  0  0
 14 15  2  0  0  0  0
 14 52  1  0  0  0  0
 15 16  1  0  0  0  0
 15 53  1  0  0  0  0
 16 17  2  0  0  0  0
 16 54  1  0  0  0  0
 17 18  1  0  0  0  0
 18 55  1  0  0  0  0
 19 20  2  0  0  0  0
 19 21  1  0  0  0  0
 21 22  1  0  0  0  0
 21 56  1  0  0  0  0
 22 23  1  0  0  0  0
 22 57  1  0  0  0  0
 22 58  1  0  0  0  0
 23 24  1  0  0  0  0
 23 59  1  0  0  0  0
 23 60  1  0  0  0  0
 24 25  1  0  0  0  0
 24 29  2  0  0  0  0
 25 26  2  0  0  0  0
 25 61  1  0  0  0  0
 26 27  1  0  0  0  0
 26 62  1  0  0  0  0
 27 28  2  0  0  0  0
 27 63  1  0  0  0  0
 28 29  1  0  0  0  0
 28 30  1  0  0  0  0
 29 64  1  0  0  0  0
 31 32  2  0  0  0  0
 31 33  1  0  0  0  0
 33 34  2  0  0  0  0
 33 37  1  0  0  0  0
 34 35  1  0  0  0  0
 34 65  1  0  0  0  0
 35 36  1  0  0  0  0
 35 66  1  0  0  0  0
 36 37  2  0  0  0  0
 37 67  1  0  0  0  0
M  END
$$$$
