
 OpenBabel07202414123D

 56 59  0  0  1  0  0  0  0  0999 V2000
    3.6334    0.3088   -0.8558 C   0  0  0  0  0  0  0  0  0  0  0  0
    2.3097    0.0285   -0.1858 C   0  0  0  0  0  0  0  0  0  0  0  0
    1.3498   -0.9158   -0.8886 C   0  0  0  0  0  0  0  0  0  0  0  0
    1.0580    0.5535   -0.8675 C   0  0  0  0  0  0  0  0  0  0  0  0
    2.3337    0.0335    1.3332 C   0  0  0  0  0  0  0  0  0  0  0  0
    2.2549    1.2194    2.0613 C   0  0  0  0  0  0  0  0  0  0  0  0
    2.2533    1.2291    3.4682 C   0  0  0  0  0  0  0  0  0  0  0  0
    2.3477    0.0583    4.2368 C   0  0  0  0  0  0  0  0  0  0  0  0
    2.3870   -1.1293    3.4879 C   0  0  0  0  0  0  0  0  0  0  0  0
    2.4054   -1.1413    2.0809 C   0  0  0  0  0  0  0  0  0  0  0  0
    2.4303    0.0680    5.7123 N   0  0  0  0  0  0  0  0  0  0  0  0
    2.4597   -1.2589    6.4291 C   0  0  3  0  0  0  0  0  0  0  0  0
    1.0637   -1.8758    6.5676 C   0  0  0  0  0  0  0  0  0  0  0  0
    0.1065   -1.2852    7.4119 C   0  0  0  0  0  0  0  0  0  0  0  0
   -1.1885   -1.7868    7.4889 C   0  0  0  0  0  0  0  0  0  0  0  0
   -1.5057   -2.8899    6.7237 C   0  0  0  0  0  0  0  0  0  0  0  0
   -0.6151   -3.5234    5.9331 N   0  0  0  0  0  0  0  0  0  0  0  0
    0.6413   -3.0110    5.8819 C   0  0  0  0  0  0  0  0  0  0  0  0
    3.6432   -2.2162    6.0398 C   0  0  0  0  0  0  0  0  0  0  0  0
    3.5871   -3.4251    6.2586 O   0  0  0  0  0  0  0  0  0  0  0  0
    4.7778   -1.5536    5.5769 N   0  0  0  0  0  0  0  0  0  0  0  0
    5.9988   -2.1226    5.1413 C   0  0  0  0  0  0  0  0  0  0  0  0
    6.2398   -3.4972    5.0529 C   0  0  0  0  0  0  0  0  0  0  0  0
    7.4811   -3.9810    4.6147 C   0  0  0  0  0  0  0  0  0  0  0  0
    8.4913   -3.0900    4.2641 C   0  0  0  0  0  0  0  0  0  0  0  0
    8.2678   -1.7188    4.3363 C   0  0  0  0  0  0  0  0  0  0  0  0
    7.0240   -1.2406    4.7674 C   0  0  0  0  0  0  0  0  0  0  0  0
   10.1688   -3.7449    3.6894 Br  0  0  0  0  0  0  0  0  0  0  0  0
    2.4307    1.2920    6.4219 C   0  0  0  0  0  0  0  0  0  0  0  0
    2.5075    2.4145    5.9232 O   0  0  0  0  0  0  0  0  0  0  0  0
    2.3391    1.2806    7.9151 C   0  0  0  0  0  0  0  0  0  0  0  0
    1.6234    2.2320    8.5353 C   0  0  0  0  0  0  0  0  0  0  0  0
    3.5470    0.2899   -1.9485 H   0  0  0  0  0  0  0  0  0  0  0  0
    4.3794   -0.4396   -0.5688 H   0  0  0  0  0  0  0  0  0  0  0  0
    4.0085    1.2984   -0.5729 H   0  0  0  0  0  0  0  0  0  0  0  0
    0.7129   -1.5598   -0.2913 H   0  0  0  0  0  0  0  0  0  0  0  0
    1.6561   -1.3624   -1.8275 H   0  0  0  0  0  0  0  0  0  0  0  0
    0.2343    0.8943   -0.2488 H   0  0  0  0  0  0  0  0  0  0  0  0
    1.1623    1.1056   -1.7943 H   0  0  0  0  0  0  0  0  0  0  0  0
    2.1845    2.1687    1.5327 H   0  0  0  0  0  0  0  0  0  0  0  0
    2.1606    2.2176    3.9004 H   0  0  0  0  0  0  0  0  0  0  0  0
    2.4166   -2.1127    3.9344 H   0  0  0  0  0  0  0  0  0  0  0  0
    2.4649   -2.0991    1.5663 H   0  0  0  0  0  0  0  0  0  0  0  0
    2.7509   -1.0723    7.4663 H   0  0  0  0  0  0  0  0  0  0  0  0
    0.3467   -0.4231    8.0237 H   0  0  0  0  0  0  0  0  0  0  0  0
   -1.9342   -1.3222    8.1268 H   0  0  0  0  0  0  0  0  0  0  0  0
   -2.5086   -3.3064    6.7252 H   0  0  0  0  0  0  0  0  0  0  0  0
    1.3048   -3.5870    5.2433 H   0  0  0  0  0  0  0  0  0  0  0  0
    4.7011   -0.5451    5.4788 H   0  0  0  0  0  0  0  0  0  0  0  0
    5.4809   -4.2303    5.3064 H   0  0  0  0  0  0  0  0  0  0  0  0
    7.6436   -5.0546    4.5531 H   0  0  0  0  0  0  0  0  0  0  0  0
    9.0519   -1.0163    4.0641 H   0  0  0  0  0  0  0  0  0  0  0  0
    6.8763   -0.1637    4.8137 H   0  0  0  0  0  0  0  0  0  0  0  0
    2.8954    0.5642    8.5017 H   0  0  0  0  0  0  0  0  0  0  0  0
    1.0882    2.9958    7.9730 H   0  0  0  0  0  0  0  0  0  0  0  0
    1.5693    2.2805    9.6154 H   0  0  0  0  0  0  0  0  0  0  0  0
  1  2  1  0  0  0  0
  1 33  1  0  0  0  0
  1 34  1  0  0  0  0
  1 35  1  0  0  0  0
  2  3  1  0  0  0  0
  2  4  1  0  0  0  0
  2  5  1  0  0  0  0
  3  4  1  0  0  0  0
  3 36  1  0  0  0  0
  3 37  1  0  0  0  0
  4 38  1  0  0  0  0
  4 39  1  0  0  0  0
  5  6  1  0  0  0  0
  5 10  2  0  0  0  0
  6  7  2  0  0  0  0
  6 40  1  0  0  0  0
  7  8  1  0  0  0  0
  7 41  1  0  0  0  0
  8  9  2  0  0  0  0
  8 11  1  0  0  0  0
  9 10  1  0  0  0  0
  9 42  1  0  0  0  0
 10 43  1  0  0  0  0
 11 12  1  0  0  0  0
 11 29  1  0  0  0  0
 12 13  1  0  0  0  0
 12 19  1  0  0  0  0
 12 44  1  0  0  0  0
 13 14  1  0  0  0  0
 13 18  2  0  0  0  0
 14 15  2  0  0  0  0
 14 45  1  0  0  0  0
 15 16  1  0  0  0  0
 15 46  1  0  0  0  0
 16 17  2  0  0  0  0
 16 47  1  0  0  0  0
 17 18  1  0  0  0  0
 18 48  1  0  0  0  0
 19 20  2  0  0  0  0
 19 21  1  0  0  0  0
 21 22  1  0  0  0  0
 21 49  1  0  0  0  0
 22 23  1  0  0  0  0
 22 27  2  0  0  0  0
 23 24  2  0  0  0  0
 23 50  1  0  0  0  0
 24 25  1  0  0  0  0
 24 51  1  0  0  0  0
 25 26  2  0  0  0  0
 25 28  1  0  0  0  0
 26 27  1  0  0  0  0
 26 52  1  0  0  0  0
 27 53  1  0  0  0  0
 29 30  2  0  0  0  0
 29 31  1  0  0  0  0
 31 32  2  0  0  0  0
 31 54  1  0  0  0  0
 32 55  1  0  0  0  0
 32 56  1  0  0  0  0
M  END
$$$$
