
 OpenBabel07202414133D

 57 59  0  0  0  0  0  0  0  0999 V2000
    5.3087   -6.7220    2.0953 C   0  0  0  0  0  0  0  0  0  0  0  0
    4.7354   -5.3169    1.9724 C   0  0  0  0  0  0  0  0  0  0  0  0
    5.1261   -4.6877    0.6316 C   0  0  0  0  0  0  0  0  0  0  0  0
    4.5852   -3.2579    0.4825 C   0  0  0  0  0  0  0  0  0  0  0  0
    4.9465   -2.5950   -0.7938 N   0  0  0  0  0  0  0  0  0  0  0  0
    4.4402   -3.3223   -1.9820 C   0  0  0  0  0  0  0  0  0  0  0  0
    2.9071   -3.3631   -2.1566 C   0  0  0  0  0  0  0  0  0  0  0  0
    2.4814   -4.2035   -3.2609 N   0  0  0  0  0  0  0  0  0  0  0  0
    2.3887   -5.5610   -3.0488 C   0  0  0  0  0  0  0  0  0  0  0  0
    2.7194   -6.0897   -1.9992 O   0  0  0  0  0  0  0  0  0  0  0  0
    1.9176   -6.2151   -4.1692 N   0  0  0  0  0  0  0  0  0  0  0  0
    1.6550   -7.5706   -4.2529 C   0  0  0  0  0  0  0  0  0  0  0  0
    1.3125   -8.2992   -3.1760 C   0  0  0  0  0  0  0  0  0  0  0  0
    1.0583   -9.6539   -3.2127 N   0  0  0  0  0  0  0  0  0  0  0  0
    1.1265  -10.3949   -4.3881 C   0  0  0  0  0  0  0  0  0  0  0  0
    0.9100  -11.6038   -4.4423 O   0  0  0  0  0  0  0  0  0  0  0  0
    1.5033   -9.6495   -5.6182 C   0  0  0  0  0  0  0  0  0  0  0  0
    1.7638   -8.2681   -5.5578 C   0  0  0  0  0  0  0  0  0  0  0  0
    2.1904   -7.6348   -6.7400 C   0  0  0  0  0  0  0  0  0  0  0  0
    2.3428   -8.3521   -7.9325 C   0  0  0  0  0  0  0  0  0  0  0  0
    2.0666   -9.7142   -7.9732 C   0  0  0  0  0  0  0  0  0  0  0  0
    1.6446  -10.3644   -6.8180 C   0  0  0  0  0  0  0  0  0  0  0  0
    0.8006  -10.3664   -1.9717 C   0  0  0  0  0  0  0  0  0  0  0  0
    4.4812   -1.1894   -0.7513 C   0  0  0  0  0  0  0  0  0  0  0  0
    4.8208   -0.3901   -1.9662 C   0  0  0  0  0  0  0  0  0  0  0  0
    6.0056   -0.0182   -2.5668 C   0  0  0  0  0  0  0  0  0  0  0  0
    5.6582    0.7776   -3.6863 C   0  0  0  0  0  0  0  0  0  0  0  0
    4.2840    0.8315   -3.7039 C   0  0  0  0  0  0  0  0  0  0  0  0
    3.7659    0.1243   -2.6678 O   0  0  0  0  0  0  0  0  0  0  0  0
    5.0045   -7.1812    3.0408 H   0  0  0  0  0  0  0  0  0  0  0  0
    6.4028   -6.6999    2.0637 H   0  0  0  0  0  0  0  0  0  0  0  0
    4.9568   -7.3615    1.2789 H   0  0  0  0  0  0  0  0  0  0  0  0
    5.0985   -4.7022    2.8037 H   0  0  0  0  0  0  0  0  0  0  0  0
    3.6431   -5.3672    2.0564 H   0  0  0  0  0  0  0  0  0  0  0  0
    4.7339   -5.3337   -0.1596 H   0  0  0  0  0  0  0  0  0  0  0  0
    6.2183   -4.6761    0.5361 H   0  0  0  0  0  0  0  0  0  0  0  0
    5.0043   -2.6664    1.3076 H   0  0  0  0  0  0  0  0  0  0  0  0
    3.4980   -3.2590    0.6284 H   0  0  0  0  0  0  0  0  0  0  0  0
    4.8536   -4.3373   -1.9938 H   0  0  0  0  0  0  0  0  0  0  0  0
    4.8795   -2.8797   -2.8860 H   0  0  0  0  0  0  0  0  0  0  0  0
    2.5152   -2.3631   -2.3595 H   0  0  0  0  0  0  0  0  0  0  0  0
    2.4222   -3.7343   -1.2481 H   0  0  0  0  0  0  0  0  0  0  0  0
    1.7814   -3.8115   -3.8744 H   0  0  0  0  0  0  0  0  0  0  0  0
    2.0429   -5.6984   -5.0237 H   0  0  0  0  0  0  0  0  0  0  0  0
    1.2074   -7.8404   -2.1968 H   0  0  0  0  0  0  0  0  0  0  0  0
    2.4464   -6.5811   -6.7660 H   0  0  0  0  0  0  0  0  0  0  0  0
    2.6952   -7.8452   -8.8281 H   0  0  0  0  0  0  0  0  0  0  0  0
    2.1956  -10.2736   -8.8961 H   0  0  0  0  0  0  0  0  0  0  0  0
    1.4466  -11.4345   -6.8438 H   0  0  0  0  0  0  0  0  0  0  0  0
    0.6530   -9.6805   -1.1318 H   0  0  0  0  0  0  0  0  0  0  0  0
    1.6570  -11.0154   -1.7605 H   0  0  0  0  0  0  0  0  0  0  0  0
   -0.0912  -10.9898   -2.0857 H   0  0  0  0  0  0  0  0  0  0  0  0
    4.9510   -0.6847    0.1019 H   0  0  0  0  0  0  0  0  0  0  0  0
    3.3980   -1.1461   -0.5757 H   0  0  0  0  0  0  0  0  0  0  0  0
    6.9957   -0.2898   -2.2293 H   0  0  0  0  0  0  0  0  0  0  0  0
    6.3236    1.2534   -4.3909 H   0  0  0  0  0  0  0  0  0  0  0  0
    3.5621    1.3103   -4.3510 H   0  0  0  0  0  0  0  0  0  0  0  0
  1  2  1  0  0  0  0
  1 30  1  0  0  0  0
  1 31  1  0  0  0  0
  1 32  1  0  0  0  0
  2  3  1  0  0  0  0
  2 33  1  0  0  0  0
  2 34  1  0  0  0  0
  3  4  1  0  0  0  0
  3 35  1  0  0  0  0
  3 36  1  0  0  0  0
  4  5  1  0  0  0  0
  4 37  1  0  0  0  0
  4 38  1  0  0  0  0
  5  6  1  0  0  0  0
  5 24  1  0  0  0  0
  6  7  1  0  0  0  0
  6 39  1  0  0  0  0
  6 40  1  0  0  0  0
  7  8  1  0  0  0  0
  7 41  1  0  0  0  0
  7 42  1  0  0  0  0
  8  9  1  0  0  0  0
  8 43  1  0  0  0  0
  9 10  2  0  0  0  0
  9 11  1  0  0  0  0
 11 12  1  0  0  0  0
 11 44  1  0  0  0  0
 12 13  2  0  0  0  0
 12 18  1  0  0  0  0
 13 14  1  0  0  0  0
 13 45  1  0  0  0  0
 14 15  1  0  0  0  0
 14 23  1  0  0  0  0
 15 16  2  0  0  0  0
 15 17  1  0  0  0  0
 17 18  1  0  0  0  0
 17 22  2  0  0  0  0
 18 19  2  0  0  0  0
 19 20  1  0  0  0  0
 19 46  1  0  0  0  0
 20 21  2  0  0  0  0
 20 47  1  0  0  0  0
 21 22  1  0  0  0  0
 21 48  1  0  0  0  0
 22 49  1  0  0  0  0
 23 50  1  0  0  0  0
 23 51  1  0  0  0  0
 23 52  1  0  0  0  0
 24 25  1  0  0  0  0
 24 53  1  0  0  0  0
 24 54  1  0  0  0  0
 25 26  2  0  0  0  0
 25 29  1  0  0  0  0
 26 27  1  0  0  0  0
 26 55  1  0  0  0  0
 27 28  2  0  0  0  0
 27 56  1  0  0  0  0
 28 29  1  0  0  0  0
 28 57  1  0  0  0  0
M  END
$$$$
