
 OpenBabel07202414113D

 33 34  0  0  0  0  0  0  0  0999 V2000
    0.7434   -1.3024    0.0661 C   0  0  0  0  0  0  0  0  0  0  0  0
   -0.7802   -1.1881   -0.1530 C   0  0  0  0  0  0  0  0  0  0  0  0
   -1.3404    0.0781    0.4203 N   0  0  0  0  0  0  0  0  0  0  0  0
   -0.6143    1.2637   -0.1439 C   0  0  0  0  0  0  0  0  0  0  0  0
    0.8922    1.1761    0.1232 C   0  0  0  0  0  0  0  0  0  0  0  0
    1.4494   -0.0892   -0.3808 N   0  0  0  0  0  0  0  0  0  0  0  0
    2.6903   -0.0719   -1.0227 C   0  0  0  0  0  0  0  0  0  0  0  0
    3.2820    0.9872   -1.2291 O   0  0  0  0  0  0  0  0  0  0  0  0
    3.2327   -1.4218   -1.4738 C   0  0  0  0  0  0  0  0  0  0  0  0
    4.7821   -1.2696   -2.3262 Cl  0  0  0  0  0  0  0  0  0  0  0  0
   -1.5920    0.1120    2.1183 S   0  0  0  0  0  0  0  0  0  0  0  0
   -0.5451   -0.6972    2.7152 O   0  0  0  0  0  0  0  0  0  0  0  0
   -1.7084    1.5127    2.4875 O   0  0  0  0  0  0  0  0  0  0  0  0
   -3.1121   -0.6234    2.4282 C   0  0  0  0  0  0  0  0  0  0  0  0
   -3.3855   -1.2997    3.5528 C   0  0  0  0  0  0  0  0  0  0  0  0
   -4.7737   -1.8022    3.7700 C   0  0  0  0  0  0  0  0  0  0  0  0
   -5.7760   -1.2344    2.3530 S   0  0  0  0  0  0  0  0  0  0  0  0
   -4.3229   -0.4476    1.6426 C   0  0  0  0  0  0  0  0  0  0  0  0
    1.1097   -2.1880   -0.4547 H   0  0  0  0  0  0  0  0  0  0  0  0
    0.9983   -1.4401    1.1203 H   0  0  0  0  0  0  0  0  0  0  0  0
   -1.3088   -2.0616    0.2388 H   0  0  0  0  0  0  0  0  0  0  0  0
   -0.9723   -1.1668   -1.2352 H   0  0  0  0  0  0  0  0  0  0  0  0
   -1.0345    2.1987    0.2393 H   0  0  0  0  0  0  0  0  0  0  0  0
   -0.7954    1.2772   -1.2262 H   0  0  0  0  0  0  0  0  0  0  0  0
    1.1036    1.2211    1.1995 H   0  0  0  0  0  0  0  0  0  0  0  0
    1.3888    2.0330   -0.3424 H   0  0  0  0  0  0  0  0  0  0  0  0
    2.5266   -1.8826   -2.1693 H   0  0  0  0  0  0  0  0  0  0  0  0
    3.3958   -2.0686   -0.6083 H   0  0  0  0  0  0  0  0  0  0  0  0
   -2.6356   -1.4670    4.3195 H   0  0  0  0  0  0  0  0  0  0  0  0
   -5.2112   -1.4066    4.6903 H   0  0  0  0  0  0  0  0  0  0  0  0
   -4.7919   -2.8947    3.7914 H   0  0  0  0  0  0  0  0  0  0  0  0
   -6.3396   -0.1741    2.8925 H   0  0  0  0  0  0  0  0  0  0  0  0
   -4.3125    0.1597    0.7290 H   0  0  0  0  0  0  0  0  0  0  0  0
  1  2  1  0  0  0  0
  1  6  1  0  0  0  0
  1 19  1  0  0  0  0
  1 20  1  0  0  0  0
  2  3  1  0  0  0  0
  2 21  1  0  0  0  0
  2 22  1  0  0  0  0
  3  4  1  0  0  0  0
  3 11  1  0  0  0  0
  4  5  1  0  0  0  0
  4 23  1  0  0  0  0
  4 24  1  0  0  0  0
  5  6  1  0  0  0  0
  5 25  1  0  0  0  0
  5 26  1  0  0  0  0
  6  7  1  0  0  0  0
  7  8  2  0  0  0  0
  7  9  1  0  0  0  0
  9 10  1  0  0  0  0
  9 27  1  0  0  0  0
  9 28  1  0  0  0  0
 11 12  2  0  0  0  0
 11 13  2  0  0  0  0
 11 14  1  0  0  0  0
 14 15  2  0  0  0  0
 14 18  1  0  0  0  0
 15 16  1  0  0  0  0
 15 29  1  0  0  0  0
 16 17  1  0  0  0  0
 16 30  1  0  0  0  0
 16 31  1  0  0  0  0
 17 18  2  0  0  0  0
 17 32  1  0  0  0  0
 18 33  1  0  0  0  0
M  END
$$$$
