
 OpenBabel07202414203D

 33 35  0  0  0  0  0  0  0  0999 V2000
   -1.5979   -0.7880    2.4031 C   0  0  0  0  0  0  0  0  0  0  0  0
   -1.6834    0.5931    2.3079 C   0  0  0  0  0  0  0  0  0  0  0  0
   -0.8229    1.2851    1.4582 C   0  0  0  0  0  0  0  0  0  0  0  0
    0.1393    0.6278    0.6935 C   0  0  0  0  0  0  0  0  0  0  0  0
    0.2335   -0.7766    0.7753 C   0  0  0  0  0  0  0  0  0  0  0  0
   -0.6484   -1.4691    1.6403 C   0  0  0  0  0  0  0  0  0  0  0  0
    1.2637   -1.3976    0.0347 C   0  0  0  0  0  0  0  0  0  0  0  0
    2.1087   -0.5908   -0.7116 C   0  0  0  0  0  0  0  0  0  0  0  0
    1.9666    0.7424   -0.7850 N   0  0  0  0  0  0  0  0  0  0  0  0
    0.9682    1.3461   -0.0747 N   0  0  0  0  0  0  0  0  0  0  0  0
    1.4091   -2.8081    0.0442 N   0  0  0  0  0  0  0  0  0  0  0  0
    2.6423   -3.4290    0.1628 C   0  0  0  0  0  0  0  0  0  0  0  0
    3.7097   -2.8349    0.2991 O   0  0  0  0  0  0  0  0  0  0  0  0
    2.5718   -4.9452    0.1372 C   0  0  0  0  0  0  0  0  0  0  0  0
    2.1304   -5.6181    1.4203 C   0  0  0  0  0  0  0  0  0  0  0  0
    2.3943   -5.0849    2.6897 C   0  0  0  0  0  0  0  0  0  0  0  0
    2.0262   -5.7810    3.8470 C   0  0  0  0  0  0  0  0  0  0  0  0
    1.4064   -7.0273    3.7523 C   0  0  0  0  0  0  0  0  0  0  0  0
    1.1640   -7.5774    2.4975 C   0  0  0  0  0  0  0  0  0  0  0  0
    1.5230   -6.8836    1.3410 C   0  0  0  0  0  0  0  0  0  0  0  0
    0.4321   -9.1292    2.3702 Cl  0  0  0  0  0  0  0  0  0  0  0  0
   -2.2486   -1.3346    3.0783 H   0  0  0  0  0  0  0  0  0  0  0  0
   -2.4123    1.1370    2.9079 H   0  0  0  0  0  0  0  0  0  0  0  0
   -0.8863    2.3682    1.4001 H   0  0  0  0  0  0  0  0  0  0  0  0
   -0.5852   -2.5456    1.7704 H   0  0  0  0  0  0  0  0  0  0  0  0
    2.9167   -0.9925   -1.3169 H   0  0  0  0  0  0  0  0  0  0  0  0
    0.6041   -3.3658    0.2988 H   0  0  0  0  0  0  0  0  0  0  0  0
    3.5648   -5.3238   -0.1342 H   0  0  0  0  0  0  0  0  0  0  0  0
    1.8925   -5.2249   -0.6776 H   0  0  0  0  0  0  0  0  0  0  0  0
    2.9102   -4.1310    2.8028 H   0  0  0  0  0  0  0  0  0  0  0  0
    2.2390   -5.3593    4.8270 H   0  0  0  0  0  0  0  0  0  0  0  0
    1.1342   -7.5694    4.6559 H   0  0  0  0  0  0  0  0  0  0  0  0
    1.3458   -7.3444    0.3718 H   0  0  0  0  0  0  0  0  0  0  0  0
  1  2  1  0  0  0  0
  1  6  2  0  0  0  0
  1 22  1  0  0  0  0
  2  3  2  0  0  0  0
  2 23  1  0  0  0  0
  3  4  1  0  0  0  0
  3 24  1  0  0  0  0
  4  5  1  0  0  0  0
  4 10  2  0  0  0  0
  5  6  1  0  0  0  0
  5  7  2  0  0  0  0
  6 25  1  0  0  0  0
  7  8  1  0  0  0  0
  7 11  1  0  0  0  0
  8  9  2  0  0  0  0
  8 26  1  0  0  0  0
  9 10  1  0  0  0  0
 11 12  1  0  0  0  0
 11 27  1  0  0  0  0
 12 13  2  0  0  0  0
 12 14  1  0  0  0  0
 14 15  1  0  0  0  0
 14 28  1  0  0  0  0
 14 29  1  0  0  0  0
 15 16  1  0  0  0  0
 15 20  2  0  0  0  0
 16 17  2  0  0  0  0
 16 30  1  0  0  0  0
 17 18  1  0  0  0  0
 17 31  1  0  0  0  0
 18 19  2  0  0  0  0
 18 32  1  0  0  0  0
 19 20  1  0  0  0  0
 19 21  1  0  0  0  0
 20 33  1  0  0  0  0
M  END
$$$$
