
 OpenBabel07202414193D

 61 66  0  0  1  0  0  0  0  0999 V2000
    0.9242   -0.0793    0.0069 O   0  0  0  0  0  0  0  0  0  0  0  0
    2.1630   -0.1383    0.0350 C   0  0  0  0  0  0  0  0  0  0  0  0
    2.8436   -0.2777    1.3871 C   0  0  0  0  0  0  0  0  0  0  0  0
    2.6657    0.8874    2.3367 C   0  0  0  0  0  0  0  0  0  0  0  0
    2.3789    2.1641    1.8452 C   0  0  0  0  0  0  0  0  0  0  0  0
    2.2962    3.2787    2.5963 N   0  0  0  0  0  0  0  0  0  0  0  0
    2.4846    3.1230    3.9211 C   0  0  0  0  0  0  0  0  0  0  0  0
    2.7771    1.9102    4.5440 C   0  0  0  0  0  0  0  0  0  0  0  0
    2.9665    1.8363    5.9350 C   0  0  0  0  0  0  0  0  0  0  0  0
    3.2733    0.6235    6.5450 C   0  0  0  0  0  0  0  0  0  0  0  0
    3.3993   -0.5235    5.7717 C   0  0  0  0  0  0  0  0  0  0  0  0
    3.2124   -0.4587    4.3875 C   0  0  0  0  0  0  0  0  0  0  0  0
    2.8838    0.7565    3.7352 C   0  0  0  0  0  0  0  0  0  0  0  0
    2.9270   -0.0547   -1.1346 N   0  0  0  0  0  0  0  0  0  0  0  0
    2.1760    0.1469   -2.3883 C   0  0  0  0  0  0  0  0  0  0  0  0
    1.8406   -1.1552   -3.0818 C   0  0  0  0  0  0  0  0  0  0  0  0
    0.9057   -2.0450   -2.5287 C   0  0  0  0  0  0  0  0  0  0  0  0
    0.6460   -3.2793   -3.1271 C   0  0  0  0  0  0  0  0  0  0  0  0
    1.3071   -3.6354   -4.2992 C   0  0  0  0  0  0  0  0  0  0  0  0
    2.2029   -2.7423   -4.8821 C   0  0  0  0  0  0  0  0  0  0  0  0
    3.0126   -3.1752   -6.3374 Cl  0  0  0  0  0  0  0  0  0  0  0  0
    2.4631   -1.5057   -4.2885 C   0  0  0  0  0  0  0  0  0  0  0  0
    4.3945    0.1331   -1.1787 C   0  0  3  0  0  0  0  0  0  0  0  0
    5.3801   -0.9061   -0.5706 C   0  0  0  0  0  0  0  0  0  0  0  0
    6.3871   -0.0803   -1.4489 C   0  0  3  0  0  0  0  0  0  0  0  0
    5.2062   -0.1329   -2.4878 C   0  0  0  0  0  0  0  0  0  0  0  0
    6.3406    1.3290   -0.9399 N   0  0  0  0  0  0  0  0  0  0  0  0
    7.1014    1.4628    0.3175 C   0  0  0  0  0  0  0  0  0  0  0  0
    7.0005    2.8547    0.9322 C   0  0  0  0  0  0  0  0  0  0  0  0
    7.6525    4.0761    0.2674 C   0  0  0  0  0  0  0  0  0  0  0  0
    8.1997    4.4933    1.5539 O   0  0  0  0  0  0  0  0  0  0  0  0
    8.0190    3.1379    2.0478 C   0  0  0  0  0  0  0  0  0  0  0  0
    4.8944    1.5102   -0.7725 C   0  0  0  0  0  0  0  0  0  0  0  0
    3.9060   -0.4424    1.3027 H   0  0  0  0  0  0  0  0  0  0  0  0
    2.4216   -1.1932    1.8221 H   0  0  0  0  0  0  0  0  0  0  0  0
    2.2197    2.3494    0.7862 H   0  0  0  0  0  0  0  0  0  0  0  0
    2.3962    4.0430    4.4940 H   0  0  0  0  0  0  0  0  0  0  0  0
    2.8746    2.7279    6.5516 H   0  0  0  0  0  0  0  0  0  0  0  0
    3.4130    0.5761    7.6246 H   0  0  0  0  0  0  0  0  0  0  0  0
    3.6390   -1.4711    6.2447 H   0  0  0  0  0  0  0  0  0  0  0  0
    3.3204   -1.3842    3.8269 H   0  0  0  0  0  0  0  0  0  0  0  0
    2.7608    0.7970   -3.0491 H   0  0  0  0  0  0  0  0  0  0  0  0
    1.2482    0.7000   -2.1942 H   0  0  0  0  0  0  0  0  0  0  0  0
    0.3688   -1.7859   -1.6181 H   0  0  0  0  0  0  0  0  0  0  0  0
   -0.0674   -3.9609   -2.6712 H   0  0  0  0  0  0  0  0  0  0  0  0
    1.1171   -4.6042   -4.7526 H   0  0  0  0  0  0  0  0  0  0  0  0
    3.1616   -0.8219   -4.7647 H   0  0  0  0  0  0  0  0  0  0  0  0
    5.2195   -1.9513   -0.8661 H   0  0  0  0  0  0  0  0  0  0  0  0
    5.6059   -0.9085    0.4960 H   0  0  0  0  0  0  0  0  0  0  0  0
    7.3535   -0.5080   -1.7138 H   0  0  0  0  0  0  0  0  0  0  0  0
    5.0583   -1.1072   -2.9704 H   0  0  0  0  0  0  0  0  0  0  0  0
    5.2033    0.6387   -3.2638 H   0  0  0  0  0  0  0  0  0  0  0  0
    8.1532    1.2249    0.1091 H   0  0  0  0  0  0  0  0  0  0  0  0
    6.7633    0.7436    1.0716 H   0  0  0  0  0  0  0  0  0  0  0  0
    5.9826    3.0830    1.2776 H   0  0  0  0  0  0  0  0  0  0  0  0
    6.9554    4.8161   -0.1355 H   0  0  0  0  0  0  0  0  0  0  0  0
    8.4567    3.8840   -0.4485 H   0  0  0  0  0  0  0  0  0  0  0  0
    7.6200    3.1095    3.0653 H   0  0  0  0  0  0  0  0  0  0  0  0
    8.9642    2.5865    2.0043 H   0  0  0  0  0  0  0  0  0  0  0  0
    4.5309    2.2887   -1.4536 H   0  0  0  0  0  0  0  0  0  0  0  0
    4.5981    1.7689    0.2430 H   0  0  0  0  0  0  0  0  0  0  0  0
  1  2  2  0  0  0  0
  2  3  1  0  0  0  0
  2 14  1  0  0  0  0
  3  4  1  0  0  0  0
  3 34  1  0  0  0  0
  3 35  1  0  0  0  0
  4  5  1  0  0  0  0
  4 13  2  0  0  0  0
  5  6  2  0  0  0  0
  5 36  1  0  0  0  0
  6  7  1  0  0  0  0
  7  8  2  0  0  0  0
  7 37  1  0  0  0  0
  8  9  1  0  0  0  0
  8 13  1  0  0  0  0
  9 10  2  0  0  0  0
  9 38  1  0  0  0  0
 10 11  1  0  0  0  0
 10 39  1  0  0  0  0
 11 12  2  0  0  0  0
 11 40  1  0  0  0  0
 12 13  1  0  0  0  0
 12 41  1  0  0  0  0
 14 15  1  0  0  0  0
 14 23  1  0  0  0  0
 15 16  1  0  0  0  0
 15 42  1  0  0  0  0
 15 43  1  0  0  0  0
 16 17  1  0  0  0  0
 16 22  2  0  0  0  0
 17 18  2  0  0  0  0
 17 44  1  0  0  0  0
 18 19  1  0  0  0  0
 18 45  1  0  0  0  0
 19 20  2  0  0  0  0
 19 46  1  0  0  0  0
 20 21  1  0  0  0  0
 20 22  1  0  0  0  0
 22 47  1  0  0  0  0
 23 24  1  0  0  0  0
 23 26  1  0  0  0  0
 23 33  1  0  0  0  0
 24 25  1  0  0  0  0
 24 48  1  0  0  0  0
 24 49  1  0  0  0  0
 25 26  1  0  0  0  0
 25 27  1  0  0  0  0
 25 50  1  0  0  0  0
 26 51  1  0  0  0  0
 26 52  1  0  0  0  0
 27 28  1  0  0  0  0
 27 33  1  0  0  0  0
 28 29  1  0  0  0  0
 28 53  1  0  0  0  0
 28 54  1  0  0  0  0
 29 30  1  0  0  0  0
 29 32  1  0  0  0  0
 29 55  1  0  0  0  0
 30 31  1  0  0  0  0
 30 56  1  0  0  0  0
 30 57  1  0  0  0  0
 31 32  1  0  0  0  0
 32 58  1  0  0  0  0
 32 59  1  0  0  0  0
 33 60  1  0  0  0  0
 33 61  1  0  0  0  0
M  END
$$$$
