
 OpenBabel07202414153D

 49 52  0  0  1  0  0  0  0  0999 V2000
    1.1172    0.1019    1.4891 C   0  0  0  0  0  0  0  0  0  0  0  0
    2.6383    0.0839    1.6337 C   0  0  1  0  0  0  0  0  0  0  0  0
    2.9454    0.0740    3.0307 O   0  0  0  0  0  0  0  0  0  0  0  0
    3.2197   -1.1559    0.9359 C   0  0  0  0  0  0  0  0  0  0  0  0
    4.6827   -1.2652    0.8905 N   0  0  0  0  0  0  0  0  0  0  0  0
    5.4707   -1.4012    2.1136 C   0  0  0  0  0  0  0  0  0  0  0  0
    6.4616   -2.5742    2.0698 C   0  0  2  0  0  0  0  0  0  0  0  0
    7.5442   -2.3303    3.1507 C   0  0  0  0  0  0  0  0  0  0  0  0
    7.3781   -2.7613    4.2885 O   0  0  0  0  0  0  0  0  0  0  0  0
    8.6181   -1.5638    2.7287 N   0  0  0  0  0  0  0  0  0  0  0  0
    9.7137   -1.0775    3.4997 C   0  0  0  0  0  0  0  0  0  0  0  0
    9.8253   -1.2792    4.8731 C   0  0  0  0  0  0  0  0  0  0  0  0
   10.7593   -0.6950    5.6606 N   0  0  0  0  0  0  0  0  0  0  0  0
   11.6608    0.0985    5.0481 C   0  0  0  0  0  0  0  0  0  0  0  0
   11.7304    0.2903    3.6687 C   0  0  0  0  0  0  0  0  0  0  0  0
   12.7730    1.0509    3.1015 C   0  0  0  0  0  0  0  0  0  0  0  0
   12.8615    1.2130    1.7201 C   0  0  0  0  0  0  0  0  0  0  0  0
   11.9002    0.6438    0.9019 C   0  0  0  0  0  0  0  0  0  0  0  0
   10.8515   -0.1016    1.4587 C   0  0  0  0  0  0  0  0  0  0  0  0
   10.7364   -0.3060    2.8593 C   0  0  0  0  0  0  0  0  0  0  0  0
    7.0251   -2.8061    0.6766 C   0  0  0  0  0  0  0  0  0  0  0  0
    7.9821   -3.8168    0.4637 C   0  0  0  0  0  0  0  0  0  0  0  0
    8.4998   -4.0425   -0.8134 C   0  0  0  0  0  0  0  0  0  0  0  0
    9.6134   -5.3275   -1.0654 Cl  0  0  0  0  0  0  0  0  0  0  0  0
    8.1003   -3.2532   -1.8867 C   0  0  0  0  0  0  0  0  0  0  0  0
    7.1271   -2.2713   -1.6970 C   0  0  0  0  0  0  0  0  0  0  0  0
    6.5589   -2.0737   -0.4305 C   0  0  0  0  0  0  0  0  0  0  0  0
    5.3153   -1.2553   -0.3413 C   0  0  0  0  0  0  0  0  0  0  0  0
    4.8377   -0.7508   -1.3507 O   0  0  0  0  0  0  0  0  0  0  0  0
    0.6856    0.9533    2.0266 H   0  0  0  0  0  0  0  0  0  0  0  0
    0.6726   -0.7995    1.9269 H   0  0  0  0  0  0  0  0  0  0  0  0
    0.8128    0.1596    0.4393 H   0  0  0  0  0  0  0  0  0  0  0  0
    3.0625    1.0000    1.2068 H   0  0  0  0  0  0  0  0  0  0  0  0
    2.5231   -0.7096    3.4235 H   0  0  0  0  0  0  0  0  0  0  0  0
    2.8362   -1.1876   -0.0921 H   0  0  0  0  0  0  0  0  0  0  0  0
    2.8676   -2.0682    1.4312 H   0  0  0  0  0  0  0  0  0  0  0  0
    4.8077   -1.5305    2.9749 H   0  0  0  0  0  0  0  0  0  0  0  0
    5.9961   -0.4475    2.2473 H   0  0  0  0  0  0  0  0  0  0  0  0
    5.9230   -3.4931    2.3378 H   0  0  0  0  0  0  0  0  0  0  0  0
    8.6109   -1.2704    1.7607 H   0  0  0  0  0  0  0  0  0  0  0  0
    9.1488   -1.9222    5.4265 H   0  0  0  0  0  0  0  0  0  0  0  0
   12.3592    0.5827    5.7184 H   0  0  0  0  0  0  0  0  0  0  0  0
   13.5363    1.5009    3.7331 H   0  0  0  0  0  0  0  0  0  0  0  0
   13.6846    1.7773    1.2897 H   0  0  0  0  0  0  0  0  0  0  0  0
   11.9661    0.7610   -0.1779 H   0  0  0  0  0  0  0  0  0  0  0  0
   10.1482   -0.5404    0.7599 H   0  0  0  0  0  0  0  0  0  0  0  0
    8.3034   -4.4515    1.2886 H   0  0  0  0  0  0  0  0  0  0  0  0
    8.5003   -3.4289   -2.8823 H   0  0  0  0  0  0  0  0  0  0  0  0
    6.7646   -1.7061   -2.5550 H   0  0  0  0  0  0  0  0  0  0  0  0
  1  2  1  0  0  0  0
  1 30  1  0  0  0  0
  1 31  1  0  0  0  0
  1 32  1  0  0  0  0
  2  3  1  0  0  0  0
  2  4  1  0  0  0  0
  2 33  1  6  0  0  0
  3 34  1  0  0  0  0
  4  5  1  0  0  0  0
  4 35  1  0  0  0  0
  4 36  1  0  0  0  0
  5  6  1  0  0  0  0
  5 28  1  0  0  0  0
  6  7  1  0  0  0  0
  6 37  1  0  0  0  0
  6 38  1  0  0  0  0
  7 21  1  0  0  0  0
  7  8  1  0  0  0  0
  7 39  1  1  0  0  0
  8  9  2  0  0  0  0
  8 10  1  0  0  0  0
 10 11  1  0  0  0  0
 10 40  1  0  0  0  0
 11 12  1  0  0  0  0
 11 20  2  0  0  0  0
 12 13  2  0  0  0  0
 12 41  1  0  0  0  0
 13 14  1  0  0  0  0
 14 15  2  0  0  0  0
 14 42  1  0  0  0  0
 15 16  1  0  0  0  0
 15 20  1  0  0  0  0
 16 17  2  0  0  0  0
 16 43  1  0  0  0  0
 17 18  1  0  0  0  0
 17 44  1  0  0  0  0
 18 19  2  0  0  0  0
 18 45  1  0  0  0  0
 19 20  1  0  0  0  0
 19 46  1  0  0  0  0
 21 22  1  0  0  0  0
 21 27  2  0  0  0  0
 22 23  2  0  0  0  0
 22 47  1  0  0  0  0
 23 24  1  0  0  0  0
 23 25  1  0  0  0  0
 25 26  2  0  0  0  0
 25 48  1  0  0  0  0
 26 27  1  0  0  0  0
 26 49  1  0  0  0  0
 27 28  1  0  0  0  0
 28 29  2  0  0  0  0
M  END
$$$$
