
 OpenBabel07202414183D

 43 45  0  0  0  0  0  0  0  0999 V2000
   -3.3647    0.0944    0.0127 C   0  0  0  0  0  0  0  0  0  0  0  0
   -1.9533   -0.2626    0.0454 N   0  0  0  0  0  0  0  0  0  0  0  0
   -1.5979   -1.5914    0.0880 C   0  0  0  0  0  0  0  0  0  0  0  0
   -0.3345   -2.0573    0.0609 C   0  0  0  0  0  0  0  0  0  0  0  0
    0.7463   -1.0298   -0.0645 C   0  0  0  0  0  0  0  0  0  0  0  0
    2.1076   -1.3408   -0.2296 C   0  0  0  0  0  0  0  0  0  0  0  0
    3.0787   -0.3283   -0.3250 C   0  0  0  0  0  0  0  0  0  0  0  0
    2.7164    1.0142   -0.2506 C   0  0  0  0  0  0  0  0  0  0  0  0
    1.3752    1.3508   -0.1103 C   0  0  0  0  0  0  0  0  0  0  0  0
    0.4034    0.3402   -0.0380 C   0  0  0  0  0  0  0  0  0  0  0  0
   -1.0207    0.7603    0.0172 C   0  0  0  0  0  0  0  0  0  0  0  0
   -1.3185    1.9522    0.0125 O   0  0  0  0  0  0  0  0  0  0  0  0
   -0.0341   -3.4184    0.1484 N   0  0  0  0  0  0  0  0  0  0  0  0
   -0.9517   -4.4476    0.2545 C   0  0  0  0  0  0  0  0  0  0  0  0
   -2.1692   -4.3223    0.3014 O   0  0  0  0  0  0  0  0  0  0  0  0
   -0.3990   -5.7124    0.2922 N   0  0  0  0  0  0  0  0  0  0  0  0
   -1.3353   -6.8213    0.4149 C   0  0  0  0  0  0  0  0  0  0  0  0
   -0.7356   -8.2255    0.4574 C   0  0  0  0  0  0  0  0  0  0  0  0
    0.0255   -8.6167   -0.7843 C   0  0  0  0  0  0  0  0  0  0  0  0
    1.3608   -9.0324   -0.6944 C   0  0  0  0  0  0  0  0  0  0  0  0
    2.0650   -9.3984   -1.8435 C   0  0  0  0  0  0  0  0  0  0  0  0
    1.4352   -9.3589   -3.0857 C   0  0  0  0  0  0  0  0  0  0  0  0
    0.1037   -8.9686   -3.1882 C   0  0  0  0  0  0  0  0  0  0  0  0
   -0.6012   -8.6056   -2.0397 C   0  0  0  0  0  0  0  0  0  0  0  0
    2.3082   -9.7976   -4.5017 Cl  0  0  0  0  0  0  0  0  0  0  0  0
   -4.0103   -0.7836    0.1123 H   0  0  0  0  0  0  0  0  0  0  0  0
   -3.5747    0.5862   -0.9418 H   0  0  0  0  0  0  0  0  0  0  0  0
   -3.5809    0.7929    0.8260 H   0  0  0  0  0  0  0  0  0  0  0  0
   -2.4503   -2.2513    0.1596 H   0  0  0  0  0  0  0  0  0  0  0  0
    2.4539   -2.3640   -0.3104 H   0  0  0  0  0  0  0  0  0  0  0  0
    4.1260   -0.5893   -0.4637 H   0  0  0  0  0  0  0  0  0  0  0  0
    3.4680    1.7970   -0.3175 H   0  0  0  0  0  0  0  0  0  0  0  0
    1.0845    2.3983   -0.0747 H   0  0  0  0  0  0  0  0  0  0  0  0
    0.9350   -3.6907    0.1372 H   0  0  0  0  0  0  0  0  0  0  0  0
    0.5836   -5.8501    0.4757 H   0  0  0  0  0  0  0  0  0  0  0  0
   -2.0460   -6.7377   -0.4166 H   0  0  0  0  0  0  0  0  0  0  0  0
   -1.9124   -6.6611    1.3350 H   0  0  0  0  0  0  0  0  0  0  0  0
   -1.5551   -8.9466    0.5848 H   0  0  0  0  0  0  0  0  0  0  0  0
   -0.1014   -8.3246    1.3459 H   0  0  0  0  0  0  0  0  0  0  0  0
    1.8622   -9.0794    0.2700 H   0  0  0  0  0  0  0  0  0  0  0  0
    3.1015   -9.7148   -1.7631 H   0  0  0  0  0  0  0  0  0  0  0  0
   -0.3932   -8.9440   -4.1544 H   0  0  0  0  0  0  0  0  0  0  0  0
   -1.6453   -8.3140   -2.1357 H   0  0  0  0  0  0  0  0  0  0  0  0
  1  2  1  0  0  0  0
  1 26  1  0  0  0  0
  1 27  1  0  0  0  0
  1 28  1  0  0  0  0
  2  3  1  0  0  0  0
  2 11  1  0  0  0  0
  3  4  2  0  0  0  0
  3 29  1  0  0  0  0
  4  5  1  0  0  0  0
  4 13  1  0  0  0  0
  5  6  1  0  0  0  0
  5 10  2  0  0  0  0
  6  7  2  0  0  0  0
  6 30  1  0  0  0  0
  7  8  1  0  0  0  0
  7 31  1  0  0  0  0
  8  9  2  0  0  0  0
  8 32  1  0  0  0  0
  9 10  1  0  0  0  0
  9 33  1  0  0  0  0
 10 11  1  0  0  0  0
 11 12  2  0  0  0  0
 13 14  1  0  0  0  0
 13 34  1  0  0  0  0
 14 15  2  0  0  0  0
 14 16  1  0  0  0  0
 16 17  1  0  0  0  0
 16 35  1  0  0  0  0
 17 18  1  0  0  0  0
 17 36  1  0  0  0  0
 17 37  1  0  0  0  0
 18 19  1  0  0  0  0
 18 38  1  0  0  0  0
 18 39  1  0  0  0  0
 19 20  1  0  0  0  0
 19 24  2  0  0  0  0
 20 21  2  0  0  0  0
 20 40  1  0  0  0  0
 21 22  1  0  0  0  0
 21 41  1  0  0  0  0
 22 23  2  0  0  0  0
 22 25  1  0  0  0  0
 23 24  1  0  0  0  0
 23 42  1  0  0  0  0
 24 43  1  0  0  0  0
M  END
$$$$
