
 OpenBabel07202414183D

 63 67  0  0  1  0  0  0  0  0999 V2000
    1.9201   -2.6752   -5.2529 Cl  0  0  0  0  0  0  0  0  0  0  0  0
    1.8038   -3.3727   -3.6839 C   0  0  0  0  0  0  0  0  0  0  0  0
    1.2243   -4.6301   -3.5325 C   0  0  0  0  0  0  0  0  0  0  0  0
    1.1051   -5.1876   -2.2621 C   0  0  0  0  0  0  0  0  0  0  0  0
    1.5660   -4.4828   -1.1452 C   0  0  0  0  0  0  0  0  0  0  0  0
    2.1527   -3.2126   -1.2837 C   0  0  0  0  0  0  0  0  0  0  0  0
    2.5398   -2.4321   -0.0359 C   0  0  2  0  0  0  0  0  0  0  0  0
    1.6735   -1.2695    0.0962 N   0  0  0  0  0  0  0  0  0  0  0  0
    1.2140   -0.8485    1.3241 C   0  0  0  0  0  0  0  0  0  0  0  0
    1.3702   -1.4910    2.3589 O   0  0  0  0  0  0  0  0  0  0  0  0
    0.4126    0.4600    1.2718 C   0  0  2  0  0  0  0  0  0  0  0  0
   -1.0735    0.2223    1.0726 C   0  0  0  0  0  0  0  0  0  0  0  0
   -1.5113    1.4824    0.3693 C   0  0  0  0  0  0  0  0  0  0  0  0
   -0.3054    1.8282   -0.4886 C   0  0  2  0  0  0  0  0  0  0  0  0
   -0.4186    1.3213   -1.9423 C   0  0  0  0  0  0  0  0  0  0  0  0
   -1.3808    0.6670   -2.3367 O   0  0  0  0  0  0  0  0  0  0  0  0
    0.5980    1.7044   -2.8044 N   0  0  0  0  0  0  0  0  0  0  0  0
    1.8207    2.4049   -2.4714 C   0  0  0  0  0  0  0  0  0  0  0  0
    2.0887    3.2277   -3.7188 C   0  0  0  0  0  0  0  0  0  0  0  0
    1.6130    2.3210   -4.8497 C   0  0  0  0  0  0  0  0  0  0  0  0
    0.4908    1.4893   -4.2329 C   0  0  0  0  0  0  0  0  0  0  0  0
    0.8445    1.2875    0.1733 O   0  0  0  0  0  0  0  0  0  0  0  0
    4.0299   -2.0111   -0.0057 C   0  0  0  0  0  0  0  0  0  0  0  0
    4.3953   -0.8592   -0.2383 O   0  0  0  0  0  0  0  0  0  0  0  0
    4.9023   -3.0618    0.2541 N   0  0  0  0  0  0  0  0  0  0  0  0
    6.2910   -2.8830    0.4751 C   0  0  0  0  0  0  0  0  0  0  0  0
    6.7558   -1.8855    1.3343 C   0  0  0  0  0  0  0  0  0  0  0  0
    8.0532   -1.7240    1.6839 N   0  0  0  0  0  0  0  0  0  0  0  0
    8.9361   -2.5859    1.1344 C   0  0  0  0  0  0  0  0  0  0  0  0
    8.5970   -3.6066    0.2423 C   0  0  0  0  0  0  0  0  0  0  0  0
    9.5759   -4.4449   -0.3228 C   0  0  0  0  0  0  0  0  0  0  0  0
    9.2251   -5.4225   -1.2526 C   0  0  0  0  0  0  0  0  0  0  0  0
    7.8950   -5.5651   -1.6330 C   0  0  0  0  0  0  0  0  0  0  0  0
    6.9129   -4.7503   -1.0654 C   0  0  0  0  0  0  0  0  0  0  0  0
    7.2355   -3.7625   -0.1037 C   0  0  0  0  0  0  0  0  0  0  0  0
    2.2798   -2.6700   -2.5740 C   0  0  0  0  0  0  0  0  0  0  0  0
    0.8298   -5.1651   -4.3949 H   0  0  0  0  0  0  0  0  0  0  0  0
    0.6364   -6.1607   -2.1360 H   0  0  0  0  0  0  0  0  0  0  0  0
    1.4278   -4.9240   -0.1601 H   0  0  0  0  0  0  0  0  0  0  0  0
    2.3890   -3.0713    0.8446 H   0  0  0  0  0  0  0  0  0  0  0  0
    1.7692   -0.5321   -0.5961 H   0  0  0  0  0  0  0  0  0  0  0  0
    0.6056    1.0214    2.1932 H   0  0  0  0  0  0  0  0  0  0  0  0
   -1.6042    0.0644    2.0175 H   0  0  0  0  0  0  0  0  0  0  0  0
   -1.2616   -0.6507    0.4369 H   0  0  0  0  0  0  0  0  0  0  0  0
   -1.6628    2.2757    1.1128 H   0  0  0  0  0  0  0  0  0  0  0  0
   -2.4496    1.3692   -0.1815 H   0  0  0  0  0  0  0  0  0  0  0  0
   -0.2082    2.9167   -0.5345 H   0  0  0  0  0  0  0  0  0  0  0  0
    2.6031    1.6500   -2.3223 H   0  0  0  0  0  0  0  0  0  0  0  0
    1.7450    3.0218   -1.5754 H   0  0  0  0  0  0  0  0  0  0  0  0
    3.1378    3.5209   -3.8176 H   0  0  0  0  0  0  0  0  0  0  0  0
    1.4792    4.1399   -3.6959 H   0  0  0  0  0  0  0  0  0  0  0  0
    2.4290    1.6695   -5.1810 H   0  0  0  0  0  0  0  0  0  0  0  0
    1.2696    2.8945   -5.7165 H   0  0  0  0  0  0  0  0  0  0  0  0
    0.6142    0.4217   -4.4498 H   0  0  0  0  0  0  0  0  0  0  0  0
   -0.4975    1.8065   -4.5808 H   0  0  0  0  0  0  0  0  0  0  0  0
    4.5878   -3.9936    0.0149 H   0  0  0  0  0  0  0  0  0  0  0  0
    6.0727   -1.1987    1.8270 H   0  0  0  0  0  0  0  0  0  0  0  0
    9.9672   -2.4181    1.4333 H   0  0  0  0  0  0  0  0  0  0  0  0
   10.6233   -4.3301   -0.0528 H   0  0  0  0  0  0  0  0  0  0  0  0
    9.9887   -6.0564   -1.6937 H   0  0  0  0  0  0  0  0  0  0  0  0
    7.6207   -6.3013   -2.3848 H   0  0  0  0  0  0  0  0  0  0  0  0
    5.8942   -4.8679   -1.4248 H   0  0  0  0  0  0  0  0  0  0  0  0
    2.7232   -1.6847   -2.7168 H   0  0  0  0  0  0  0  0  0  0  0  0
  1  2  1  0  0  0  0
  2  3  1  0  0  0  0
  2 36  2  0  0  0  0
  3  4  2  0  0  0  0
  3 37  1  0  0  0  0
  4  5  1  0  0  0  0
  4 38  1  0  0  0  0
  5  6  2  0  0  0  0
  5 39  1  0  0  0  0
  6 36  1  0  0  0  0
  7 23  1  0  0  0  0
  7  8  1  0  0  0  0
  7  6  1  0  0  0  0
  7 40  1  1  0  0  0
  8  9  1  0  0  0  0
  8 41  1  0  0  0  0
  9 10  2  0  0  0  0
  9 11  1  0  0  0  0
 11 12  1  0  0  0  0
 11 22  1  0  0  0  0
 11 42  1  1  0  0  0
 12 13  1  0  0  0  0
 12 43  1  0  0  0  0
 12 44  1  0  0  0  0
 13 14  1  0  0  0  0
 13 45  1  0  0  0  0
 13 46  1  0  0  0  0
 14 22  1  0  0  0  0
 14 15  1  0  0  0  0
 14 47  1  6  0  0  0
 15 16  2  0  0  0  0
 15 17  1  0  0  0  0
 17 18  1  0  0  0  0
 17 21  1  0  0  0  0
 18 19  1  0  0  0  0
 18 48  1  0  0  0  0
 18 49  1  0  0  0  0
 19 20  1  0  0  0  0
 19 50  1  0  0  0  0
 19 51  1  0  0  0  0
 20 21  1  0  0  0  0
 20 52  1  0  0  0  0
 20 53  1  0  0  0  0
 21 54  1  0  0  0  0
 21 55  1  0  0  0  0
 23 24  2  0  0  0  0
 23 25  1  0  0  0  0
 25 26  1  0  0  0  0
 25 56  1  0  0  0  0
 26 27  1  0  0  0  0
 26 35  2  0  0  0  0
 27 28  2  0  0  0  0
 27 57  1  0  0  0  0
 28 29  1  0  0  0  0
 29 30  2  0  0  0  0
 29 58  1  0  0  0  0
 30 31  1  0  0  0  0
 30 35  1  0  0  0  0
 31 32  2  0  0  0  0
 31 59  1  0  0  0  0
 32 33  1  0  0  0  0
 32 60  1  0  0  0  0
 33 34  2  0  0  0  0
 33 61  1  0  0  0  0
 34 35  1  0  0  0  0
 34 62  1  0  0  0  0
 36 63  1  0  0  0  0
M  END
$$$$
