
 OpenBabel07202414153D

 48 53  0  0  1  0  0  0  0  0999 V2000
    3.2281    0.4465   -1.1527 C   0  0  0  0  0  0  0  0  0  0  0  0
    3.1071   -0.2030    0.2020 C   0  0  1  0  0  0  0  0  0  0  0  0
    4.0406   -1.3856    0.4802 C   0  0  0  0  0  0  0  0  0  0  0  0
    3.2669   -2.0520    1.4639 N   0  0  0  0  0  0  0  0  0  0  0  0
    2.2901   -2.9396    0.7970 C   0  0  0  0  0  0  0  0  0  0  0  0
    2.7406   -3.4648   -0.4421 C   0  0  0  0  0  0  0  0  0  0  0  0
    1.9965   -3.7352   -1.5289 N   0  0  0  0  0  0  0  0  0  0  0  0
    0.6897   -3.8018   -1.3025 C   0  0  0  0  0  0  0  0  0  0  0  0
    0.1532   -3.7432   -0.0300 C   0  0  0  0  0  0  0  0  0  0  0  0
   -1.1183   -4.2852    0.1302 C   0  0  0  0  0  0  0  0  0  0  0  0
   -1.6832   -4.3393    1.3950 C   0  0  0  0  0  0  0  0  0  0  0  0
   -1.0206   -3.7268    2.4606 C   0  0  0  0  0  0  0  0  0  0  0  0
    0.2536   -3.1440    2.2994 C   0  0  0  0  0  0  0  0  0  0  0  0
    0.9284   -3.2241    1.0633 C   0  0  0  0  0  0  0  0  0  0  0  0
    3.0584   -0.9242    2.3869 C   0  0  0  0  0  0  0  0  0  0  0  0
    2.6939   -1.0190    3.5562 O   0  0  0  0  0  0  0  0  0  0  0  0
    3.2880    0.5082    1.5492 C   0  0  2  0  0  0  0  0  0  0  0  0
    2.0528    1.3708    1.9582 C   0  0  0  0  0  0  0  0  0  0  0  0
    2.3437    2.7324    2.3750 N   0  0  0  0  0  0  0  0  0  0  0  0
    1.4041    3.5131    2.9004 N   0  0  0  0  0  0  0  0  0  0  0  0
    1.9221    4.7328    3.0094 N   0  0  0  0  0  0  0  0  0  0  0  0
    3.1973    4.6865    2.5232 C   0  0  0  0  0  0  0  0  0  0  0  0
    3.4969    3.4030    2.1229 C   0  0  0  0  0  0  0  0  0  0  0  0
    4.6242    2.7684    1.4860 C   0  0  0  0  0  0  0  0  0  0  0  0
    5.6092    3.6267    0.9140 C   0  0  0  0  0  0  0  0  0  0  0  0
    6.6420    3.1316    0.1289 C   0  0  0  0  0  0  0  0  0  0  0  0
    6.7344    1.7723   -0.0285 C   0  0  0  0  0  0  0  0  0  0  0  0
    7.9107    1.1141   -1.1025 Cl  0  0  0  0  0  0  0  0  0  0  0  0
    5.7970    0.9201    0.5844 C   0  0  0  0  0  0  0  0  0  0  0  0
    4.6569    1.3682    1.3275 C   0  0  0  0  0  0  0  0  0  0  0  0
    2.6849   -0.1822   -1.8730 H   0  0  0  0  0  0  0  0  0  0  0  0
    4.2506    0.5159   -1.5223 H   0  0  0  0  0  0  0  0  0  0  0  0
    2.7517    1.4293   -1.1580 H   0  0  0  0  0  0  0  0  0  0  0  0
    2.0552   -0.5340    0.1847 H   0  0  0  0  0  0  0  0  0  0  0  0
    4.9446   -1.2434    1.0801 H   0  0  0  0  0  0  0  0  0  0  0  0
    4.4195   -1.8907   -0.4040 H   0  0  0  0  0  0  0  0  0  0  0  0
    3.7960   -3.6089   -0.6502 H   0  0  0  0  0  0  0  0  0  0  0  0
    0.0883   -3.9998   -2.1884 H   0  0  0  0  0  0  0  0  0  0  0  0
   -1.6319   -4.7590   -0.7040 H   0  0  0  0  0  0  0  0  0  0  0  0
   -2.6260   -4.8599    1.5360 H   0  0  0  0  0  0  0  0  0  0  0  0
   -1.4928   -3.7489    3.4353 H   0  0  0  0  0  0  0  0  0  0  0  0
    0.7451   -2.7276    3.1752 H   0  0  0  0  0  0  0  0  0  0  0  0
    1.4987    0.9292    2.7946 H   0  0  0  0  0  0  0  0  0  0  0  0
    1.3512    1.4707    1.1231 H   0  0  0  0  0  0  0  0  0  0  0  0
    3.8117    5.5738    2.4703 H   0  0  0  0  0  0  0  0  0  0  0  0
    5.5305    4.7041    1.0051 H   0  0  0  0  0  0  0  0  0  0  0  0
    7.3277    3.8048   -0.3777 H   0  0  0  0  0  0  0  0  0  0  0  0
    5.9812   -0.0997    0.2816 H   0  0  0  0  0  0  0  0  0  0  0  0
  1 31  1  0  0  0  0
  1 32  1  0  0  0  0
  1 33  1  0  0  0  0
  2  3  1  0  0  0  0
  2 17  1  0  0  0  0
  2  1  1  0  0  0  0
  2 34  1  1  0  0  0
  3  4  1  0  0  0  0
  3 35  1  0  0  0  0
  3 36  1  0  0  0  0
  4 15  1  0  0  0  0
  4  5  1  0  0  0  0
  5  6  1  0  0  0  0
  5 14  2  0  0  0  0
  6  7  2  0  0  0  0
  6 37  1  0  0  0  0
  7  8  1  0  0  0  0
  8  9  2  0  0  0  0
  8 38  1  0  0  0  0
  9 10  1  0  0  0  0
  9 14  1  0  0  0  0
 10 11  2  0  0  0  0
 10 39  1  0  0  0  0
 11 12  1  0  0  0  0
 11 40  1  0  0  0  0
 12 13  2  0  0  0  0
 12 41  1  0  0  0  0
 13 14  1  0  0  0  0
 13 42  1  0  0  0  0
 15 16  2  0  0  0  0
 17 15  1  1  0  0  0
 17 18  1  0  0  0  0
 17 30  1  0  0  0  0
 18 19  1  0  0  0  0
 18 43  1  0  0  0  0
 18 44  1  0  0  0  0
 19 20  1  0  0  0  0
 19 23  1  0  0  0  0
 20 21  2  0  0  0  0
 21 22  1  0  0  0  0
 22 23  2  0  0  0  0
 22 45  1  0  0  0  0
 23 24  1  0  0  0  0
 24 25  1  0  0  0  0
 24 30  2  0  0  0  0
 25 26  2  0  0  0  0
 25 46  1  0  0  0  0
 26 27  1  0  0  0  0
 26 47  1  0  0  0  0
 27 29  2  0  0  0  0
 27 28  1  0  0  0  0
 29 30  1  0  0  0  0
 29 48  1  0  0  0  0
M  END
$$$$
