
 OpenBabel07202414133D

 44 46  0  0  0  0  0  0  0  0999 V2000
    1.0426    0.5838    0.3250 C   0  0  0  0  0  0  0  0  0  0  0  0
    2.4932    0.6761    0.2742 N   0  0  0  0  0  0  0  0  0  0  0  0
    3.0585    1.3171   -0.9065 C   0  0  0  0  0  0  0  0  0  0  0  0
    3.1921   -0.1961    1.1247 C   0  0  0  0  0  0  0  0  0  0  0  0
    2.6021   -0.9556    1.8971 O   0  0  0  0  0  0  0  0  0  0  0  0
    4.6858   -0.2734    1.1216 C   0  0  0  0  0  0  0  0  0  0  0  0
    5.4925    0.8415    0.9324 C   0  0  0  0  0  0  0  0  0  0  0  0
    6.8787    0.7011    0.9136 C   0  0  0  0  0  0  0  0  0  0  0  0
    7.4800   -0.5431    1.1594 C   0  0  0  0  0  0  0  0  0  0  0  0
    8.8672   -0.6592    1.1392 C   0  0  0  0  0  0  0  0  0  0  0  0
    9.5407   -1.7934    1.3936 N   0  0  0  0  0  0  0  0  0  0  0  0
    8.7949   -2.8737    1.7206 C   0  0  0  0  0  0  0  0  0  0  0  0
    7.3983   -2.8960    1.7885 C   0  0  0  0  0  0  0  0  0  0  0  0
    6.6867   -4.0713    2.1719 N   0  0  0  0  0  0  0  0  0  0  0  0
    7.2446   -5.2018    2.7582 C   0  0  0  0  0  0  0  0  0  0  0  0
    8.4166   -5.3282    3.1045 O   0  0  0  0  0  0  0  0  0  0  0  0
    6.2565   -6.3352    2.9821 C   0  0  0  0  0  0  0  0  0  0  0  0
    5.5052   -6.2262    4.2866 C   0  0  0  0  0  0  0  0  0  0  0  0
    6.1909   -6.1318    5.5080 C   0  0  0  0  0  0  0  0  0  0  0  0
    5.4905   -6.0227    6.7119 C   0  0  0  0  0  0  0  0  0  0  0  0
    4.0965   -6.0225    6.7107 C   0  0  0  0  0  0  0  0  0  0  0  0
    3.4094   -6.1469    5.5059 C   0  0  0  0  0  0  0  0  0  0  0  0
    1.6887   -6.1713    5.5018 Cl  0  0  0  0  0  0  0  0  0  0  0  0
    4.1035   -6.2526    4.2994 C   0  0  0  0  0  0  0  0  0  0  0  0
    6.7027   -1.6905    1.4574 C   0  0  0  0  0  0  0  0  0  0  0  0
    5.2889   -1.5172    1.4146 C   0  0  0  0  0  0  0  0  0  0  0  0
    0.5814    1.4299   -0.1921 H   0  0  0  0  0  0  0  0  0  0  0  0
    0.7012    0.5817    1.3652 H   0  0  0  0  0  0  0  0  0  0  0  0
    0.7364   -0.3525   -0.1523 H   0  0  0  0  0  0  0  0  0  0  0  0
    2.2653    1.6599   -1.5782 H   0  0  0  0  0  0  0  0  0  0  0  0
    3.7064    0.6199   -1.4427 H   0  0  0  0  0  0  0  0  0  0  0  0
    3.6206    2.2025   -0.6024 H   0  0  0  0  0  0  0  0  0  0  0  0
    5.0725    1.8343    0.8231 H   0  0  0  0  0  0  0  0  0  0  0  0
    7.4919    1.5821    0.7290 H   0  0  0  0  0  0  0  0  0  0  0  0
    9.5046    0.1913    0.9098 H   0  0  0  0  0  0  0  0  0  0  0  0
    9.4027   -3.7513    1.9125 H   0  0  0  0  0  0  0  0  0  0  0  0
    5.6772   -4.0328    2.1419 H   0  0  0  0  0  0  0  0  0  0  0  0
    6.8126   -7.2818    2.9676 H   0  0  0  0  0  0  0  0  0  0  0  0
    5.5666   -6.3762    2.1302 H   0  0  0  0  0  0  0  0  0  0  0  0
    7.2811   -6.1386    5.5326 H   0  0  0  0  0  0  0  0  0  0  0  0
    6.0336   -5.9369    7.6503 H   0  0  0  0  0  0  0  0  0  0  0  0
    3.5549   -5.9301    7.6481 H   0  0  0  0  0  0  0  0  0  0  0  0
    3.5462   -6.3593    3.3719 H   0  0  0  0  0  0  0  0  0  0  0  0
    4.6284   -2.3558    1.6219 H   0  0  0  0  0  0  0  0  0  0  0  0
  1  2  1  0  0  0  0
  1 27  1  0  0  0  0
  1 28  1  0  0  0  0
  1 29  1  0  0  0  0
  2  3  1  0  0  0  0
  2  4  1  0  0  0  0
  3 30  1  0  0  0  0
  3 31  1  0  0  0  0
  3 32  1  0  0  0  0
  4  5  2  0  0  0  0
  4  6  1  0  0  0  0
  6  7  1  0  0  0  0
  6 26  2  0  0  0  0
  7  8  2  0  0  0  0
  7 33  1  0  0  0  0
  8  9  1  0  0  0  0
  8 34  1  0  0  0  0
  9 10  1  0  0  0  0
  9 25  2  0  0  0  0
 10 11  2  0  0  0  0
 10 35  1  0  0  0  0
 11 12  1  0  0  0  0
 12 13  2  0  0  0  0
 12 36  1  0  0  0  0
 13 14  1  0  0  0  0
 13 25  1  0  0  0  0
 14 15  1  0  0  0  0
 14 37  1  0  0  0  0
 15 16  2  0  0  0  0
 15 17  1  0  0  0  0
 17 18  1  0  0  0  0
 17 38  1  0  0  0  0
 17 39  1  0  0  0  0
 18 19  1  0  0  0  0
 18 24  2  0  0  0  0
 19 20  2  0  0  0  0
 19 40  1  0  0  0  0
 20 21  1  0  0  0  0
 20 41  1  0  0  0  0
 21 22  2  0  0  0  0
 21 42  1  0  0  0  0
 22 23  1  0  0  0  0
 22 24  1  0  0  0  0
 24 43  1  0  0  0  0
 25 26  1  0  0  0  0
 26 44  1  0  0  0  0
M  END
$$$$
