
 OpenBabel07202414143D

 51 52  0  0  1  0  0  0  0  0999 V2000
    3.7076   -3.9165   -3.1838 C   0  0  0  0  0  0  0  0  0  0  0  0
    4.3300   -3.0727   -2.1964 N   0  0  0  0  0  0  0  0  0  0  0  0
    3.8488   -1.8146   -1.9192 C   0  0  0  0  0  0  0  0  0  0  0  0
    2.8416   -1.3731   -2.4798 O   0  0  0  0  0  0  0  0  0  0  0  0
    4.7133   -0.9002   -1.0060 C   0  0  3  0  0  0  0  0  0  0  0  0
    5.2990   -1.4973    0.2340 N   0  0  0  0  0  0  0  0  0  0  0  0
    6.2944   -2.4706    0.1743 C   0  0  0  0  0  0  0  0  0  0  0  0
    6.6888   -2.9771   -0.8762 O   0  0  0  0  0  0  0  0  0  0  0  0
    6.8207   -3.0119    1.4637 C   0  0  0  0  0  0  0  0  0  0  0  0
    8.0894   -3.4288    1.5636 C   0  0  0  0  0  0  0  0  0  0  0  0
    4.9302   -0.8630    1.4628 C   0  0  0  0  0  0  0  0  0  0  0  0
    5.8999   -0.2861    2.2836 C   0  0  0  0  0  0  0  0  0  0  0  0
    5.5541    0.2521    3.5290 C   0  0  0  0  0  0  0  0  0  0  0  0
    4.2302    0.2517    3.9923 C   0  0  0  0  0  0  0  0  0  0  0  0
    3.8345    0.8665    5.3492 C   0  0  0  0  0  0  0  0  0  0  0  0
    5.0318    1.4731    6.1187 C   0  0  0  0  0  0  0  0  0  0  0  0
    2.8191    2.0040    5.1169 C   0  0  0  0  0  0  0  0  0  0  0  0
    3.1965   -0.1919    6.2727 C   0  0  0  0  0  0  0  0  0  0  0  0
    3.2605   -0.3127    3.1398 C   0  0  0  0  0  0  0  0  0  0  0  0
    3.5997   -0.8527    1.8879 C   0  0  0  0  0  0  0  0  0  0  0  0
    5.6724   -0.0517   -1.8397 C   0  0  0  0  0  0  0  0  0  0  0  0
    6.6456   -0.5868   -2.6923 C   0  0  0  0  0  0  0  0  0  0  0  0
    7.4065    0.2463   -3.5105 C   0  0  0  0  0  0  0  0  0  0  0  0
    7.1688    1.6063   -3.4599 C   0  0  0  0  0  0  0  0  0  0  0  0
    6.2552    2.1723   -2.6459 N   0  0  0  0  0  0  0  0  0  0  0  0
    5.5314    1.3359   -1.8628 C   0  0  0  0  0  0  0  0  0  0  0  0
    4.4454   -4.6370   -3.5432 H   0  0  0  0  0  0  0  0  0  0  0  0
    3.3411   -3.3185   -4.0239 H   0  0  0  0  0  0  0  0  0  0  0  0
    2.8705   -4.4415   -2.7181 H   0  0  0  0  0  0  0  0  0  0  0  0
    5.2522   -3.3300   -1.8434 H   0  0  0  0  0  0  0  0  0  0  0  0
    3.9522   -0.1932   -0.6418 H   0  0  0  0  0  0  0  0  0  0  0  0
    6.1527   -3.0624    2.3156 H   0  0  0  0  0  0  0  0  0  0  0  0
    8.7714   -3.3891    0.7190 H   0  0  0  0  0  0  0  0  0  0  0  0
    8.4740   -3.8109    2.5037 H   0  0  0  0  0  0  0  0  0  0  0  0
    6.9397   -0.2420    1.9657 H   0  0  0  0  0  0  0  0  0  0  0  0
    6.3657    0.6720    4.1212 H   0  0  0  0  0  0  0  0  0  0  0  0
    5.5242    2.2639    5.5407 H   0  0  0  0  0  0  0  0  0  0  0  0
    5.7818    0.7103    6.3608 H   0  0  0  0  0  0  0  0  0  0  0  0
    4.7109    1.9204    7.0667 H   0  0  0  0  0  0  0  0  0  0  0  0
    3.2337    2.7762    4.4582 H   0  0  0  0  0  0  0  0  0  0  0  0
    2.5423    2.4861    6.0620 H   0  0  0  0  0  0  0  0  0  0  0  0
    1.8911    1.6432    4.6588 H   0  0  0  0  0  0  0  0  0  0  0  0
    3.8981   -1.0051    6.4927 H   0  0  0  0  0  0  0  0  0  0  0  0
    2.2961   -0.6382    5.8374 H   0  0  0  0  0  0  0  0  0  0  0  0
    2.9015    0.2549    7.2309 H   0  0  0  0  0  0  0  0  0  0  0  0
    2.2143   -0.3454    3.4441 H   0  0  0  0  0  0  0  0  0  0  0  0
    2.8166   -1.3016    1.2803 H   0  0  0  0  0  0  0  0  0  0  0  0
    6.8106   -1.6574   -2.7661 H   0  0  0  0  0  0  0  0  0  0  0  0
    8.1494   -0.1619   -4.1861 H   0  0  0  0  0  0  0  0  0  0  0  0
    7.7142    2.2932   -4.1004 H   0  0  0  0  0  0  0  0  0  0  0  0
    4.7852    1.8413   -1.2541 H   0  0  0  0  0  0  0  0  0  0  0  0
  1  2  1  0  0  0  0
  1 27  1  0  0  0  0
  1 28  1  0  0  0  0
  1 29  1  0  0  0  0
  2  3  1  0  0  0  0
  2 30  1  0  0  0  0
  3  4  2  0  0  0  0
  3  5  1  0  0  0  0
  5  6  1  0  0  0  0
  5 21  1  0  0  0  0
  5 31  1  0  0  0  0
  6  7  1  0  0  0  0
  6 11  1  0  0  0  0
  7  8  2  0  0  0  0
  7  9  1  0  0  0  0
  9 10  2  0  0  0  0
  9 32  1  0  0  0  0
 10 33  1  0  0  0  0
 10 34  1  0  0  0  0
 11 12  1  0  0  0  0
 11 20  2  0  0  0  0
 12 13  2  0  0  0  0
 12 35  1  0  0  0  0
 13 14  1  0  0  0  0
 13 36  1  0  0  0  0
 14 15  1  0  0  0  0
 14 19  2  0  0  0  0
 15 16  1  0  0  0  0
 15 17  1  0  0  0  0
 15 18  1  0  0  0  0
 16 37  1  0  0  0  0
 16 38  1  0  0  0  0
 16 39  1  0  0  0  0
 17 40  1  0  0  0  0
 17 41  1  0  0  0  0
 17 42  1  0  0  0  0
 18 43  1  0  0  0  0
 18 44  1  0  0  0  0
 18 45  1  0  0  0  0
 19 20  1  0  0  0  0
 19 46  1  0  0  0  0
 20 47  1  0  0  0  0
 21 22  1  0  0  0  0
 21 26  2  0  0  0  0
 22 23  2  0  0  0  0
 22 48  1  0  0  0  0
 23 24  1  0  0  0  0
 23 49  1  0  0  0  0
 24 25  2  0  0  0  0
 24 50  1  0  0  0  0
 25 26  1  0  0  0  0
 26 51  1  0  0  0  0
M  END
$$$$
