
 OpenBabel07202414193D

 47 50  0  0  0  0  0  0  0  0999 V2000
    1.0680    0.5155    0.0915 O   0  0  0  0  0  0  0  0  0  0  0  0
    2.1419   -0.0716   -0.0628 C   0  0  0  0  0  0  0  0  0  0  0  0
    2.5793   -1.1071    0.9669 C   0  0  0  0  0  0  0  0  0  0  0  0
    3.6424   -0.5997    1.9182 C   0  0  0  0  0  0  0  0  0  0  0  0
    3.5528    0.7130    2.3938 C   0  0  0  0  0  0  0  0  0  0  0  0
    4.4314    1.2866    3.2396 N   0  0  0  0  0  0  0  0  0  0  0  0
    5.4522    0.5128    3.6564 C   0  0  0  0  0  0  0  0  0  0  0  0
    5.6438   -0.8149    3.2859 C   0  0  0  0  0  0  0  0  0  0  0  0
    6.7319   -1.5575    3.7820 C   0  0  0  0  0  0  0  0  0  0  0  0
    6.9118   -2.8851    3.4136 C   0  0  0  0  0  0  0  0  0  0  0  0
    6.0026   -3.4884    2.5522 C   0  0  0  0  0  0  0  0  0  0  0  0
    4.9192   -2.7603    2.0564 C   0  0  0  0  0  0  0  0  0  0  0  0
    4.7104   -1.4034    2.3989 C   0  0  0  0  0  0  0  0  0  0  0  0
    2.9991    0.2140   -1.1194 N   0  0  0  0  0  0  0  0  0  0  0  0
    4.1730   -0.5791   -1.4843 C   0  0  0  0  0  0  0  0  0  0  0  0
    5.3570    0.3095   -1.8508 C   0  0  0  0  0  0  0  0  0  0  0  0
    5.0076    1.3582   -2.9133 C   0  0  0  0  0  0  0  0  0  0  0  0
    4.8096    0.7229   -4.2947 C   0  0  0  0  0  0  0  0  0  0  0  0
    6.0399    0.0629   -4.9774 C   0  0  0  0  0  0  0  0  0  0  0  0
    5.5613    0.6783   -6.3062 C   0  0  0  0  0  0  0  0  0  0  0  0
    4.8016    1.7283   -5.4790 C   0  0  0  0  0  0  0  0  0  0  0  0
    3.7505    2.1329   -2.4874 C   0  0  0  0  0  0  0  0  0  0  0  0
    2.5883    1.2182   -2.0988 C   0  0  0  0  0  0  0  0  0  0  0  0
    2.8711   -2.0105    0.4266 H   0  0  0  0  0  0  0  0  0  0  0  0
    1.6987   -1.3913    1.5581 H   0  0  0  0  0  0  0  0  0  0  0  0
    2.7387    1.3726    2.0964 H   0  0  0  0  0  0  0  0  0  0  0  0
    6.1398    1.0140    4.3356 H   0  0  0  0  0  0  0  0  0  0  0  0
    7.4448   -1.0971    4.4626 H   0  0  0  0  0  0  0  0  0  0  0  0
    7.7546   -3.4499    3.8037 H   0  0  0  0  0  0  0  0  0  0  0  0
    6.1354   -4.5299    2.2683 H   0  0  0  0  0  0  0  0  0  0  0  0
    4.2328   -3.2847    1.3954 H   0  0  0  0  0  0  0  0  0  0  0  0
    3.8850   -1.2164   -2.3282 H   0  0  0  0  0  0  0  0  0  0  0  0
    4.4793   -1.2473   -0.6802 H   0  0  0  0  0  0  0  0  0  0  0  0
    6.1982   -0.3128   -2.1752 H   0  0  0  0  0  0  0  0  0  0  0  0
    5.6849    0.8352   -0.9436 H   0  0  0  0  0  0  0  0  0  0  0  0
    5.8443    2.0671   -2.9698 H   0  0  0  0  0  0  0  0  0  0  0  0
    3.9408    0.0511   -4.3334 H   0  0  0  0  0  0  0  0  0  0  0  0
    6.0576   -1.0307   -4.9551 H   0  0  0  0  0  0  0  0  0  0  0  0
    7.0112    0.4418   -4.6409 H   0  0  0  0  0  0  0  0  0  0  0  0
    4.9069    0.0224   -6.8909 H   0  0  0  0  0  0  0  0  0  0  0  0
    6.3479    1.0706   -6.9558 H   0  0  0  0  0  0  0  0  0  0  0  0
    3.8121    2.0006   -5.8559 H   0  0  0  0  0  0  0  0  0  0  0  0
    5.3780    2.6443   -5.3040 H   0  0  0  0  0  0  0  0  0  0  0  0
    3.4273    2.8183   -3.2790 H   0  0  0  0  0  0  0  0  0  0  0  0
    4.0067    2.7527   -1.6179 H   0  0  0  0  0  0  0  0  0  0  0  0
    2.1974    0.6845   -2.9725 H   0  0  0  0  0  0  0  0  0  0  0  0
    1.7694    1.8327   -1.7107 H   0  0  0  0  0  0  0  0  0  0  0  0
  1  2  2  0  0  0  0
  2  3  1  0  0  0  0
  2 14  1  0  0  0  0
  3  4  1  0  0  0  0
  3 24  1  0  0  0  0
  3 25  1  0  0  0  0
  4  5  1  0  0  0  0
  4 13  2  0  0  0  0
  5  6  2  0  0  0  0
  5 26  1  0  0  0  0
  6  7  1  0  0  0  0
  7  8  2  0  0  0  0
  7 27  1  0  0  0  0
  8  9  1  0  0  0  0
  8 13  1  0  0  0  0
  9 10  2  0  0  0  0
  9 28  1  0  0  0  0
 10 11  1  0  0  0  0
 10 29  1  0  0  0  0
 11 12  2  0  0  0  0
 11 30  1  0  0  0  0
 12 13  1  0  0  0  0
 12 31  1  0  0  0  0
 14 15  1  0  0  0  0
 14 23  1  0  0  0  0
 15 16  1  0  0  0  0
 15 32  1  0  0  0  0
 15 33  1  0  0  0  0
 16 17  1  0  0  0  0
 16 34  1  0  0  0  0
 16 35  1  0  0  0  0
 17 18  1  0  0  0  0
 17 22  1  0  0  0  0
 17 36  1  0  0  0  0
 18 19  1  0  0  0  0
 18 21  1  0  0  0  0
 18 37  1  0  0  0  0
 19 20  1  0  0  0  0
 19 38  1  0  0  0  0
 19 39  1  0  0  0  0
 20 21  1  0  0  0  0
 20 40  1  0  0  0  0
 20 41  1  0  0  0  0
 21 42  1  0  0  0  0
 21 43  1  0  0  0  0
 22 23  1  0  0  0  0
 22 44  1  0  0  0  0
 22 45  1  0  0  0  0
 23 46  1  0  0  0  0
 23 47  1  0  0  0  0
M  END
$$$$
