
 OpenBabel07202414113D

 48 50  0  0  1  0  0  0  0  0999 V2000
   12.2276    8.7894   -7.0156 C   0  0  0  0  0  0  0  0  0  0  0  0
   12.4268    7.5252   -7.4221 C   0  0  0  0  0  0  0  0  0  0  0  0
   11.3986    6.4968   -7.1074 C   0  0  0  0  0  0  0  0  0  0  0  0
   10.3802    6.8099   -6.5079 O   0  0  0  0  0  0  0  0  0  0  0  0
   11.7478    5.2188   -7.5166 N   0  0  0  0  0  0  0  0  0  0  0  0
   10.9359    4.0677   -7.3417 C   0  0  0  0  0  0  0  0  0  0  0  0
    9.5769    4.1505   -7.0478 C   0  0  0  0  0  0  0  0  0  0  0  0
    8.8128    3.0043   -6.8135 C   0  0  0  0  0  0  0  0  0  0  0  0
    9.4073    1.7432   -6.8686 C   0  0  0  0  0  0  0  0  0  0  0  0
   10.7656    1.6216   -7.1821 C   0  0  0  0  0  0  0  0  0  0  0  0
   11.5165    2.7939   -7.4433 C   0  0  0  0  0  0  0  0  0  0  0  0
   11.5077    0.3179   -7.2061 C   0  0  0  0  0  0  0  0  0  0  0  0
   12.7057    0.3141   -7.4855 O   0  0  0  0  0  0  0  0  0  0  0  0
   10.8282   -0.8493   -6.9039 N   0  0  0  0  0  0  0  0  0  0  0  0
   11.5463   -2.1198   -6.9083 C   0  0  0  0  0  0  0  0  0  0  0  0
   10.7458   -3.3744   -6.4872 C   0  0  2  0  0  0  0  0  0  0  0  0
    9.5837   -3.8071   -7.3628 C   0  0  0  0  0  0  0  0  0  0  0  0
    8.5913   -4.6495   -6.8345 C   0  0  0  0  0  0  0  0  0  0  0  0
    7.5186   -5.0873   -7.6161 C   0  0  0  0  0  0  0  0  0  0  0  0
    7.4134   -4.7082   -8.9596 C   0  0  0  0  0  0  0  0  0  0  0  0
    6.3324   -5.1230   -9.7544 C   0  0  0  0  0  0  0  0  0  0  0  0
    6.2378   -4.7296  -11.0897 C   0  0  0  0  0  0  0  0  0  0  0  0
    7.2273   -3.9264  -11.6483 C   0  0  0  0  0  0  0  0  0  0  0  0
    8.3126   -3.5145  -10.8724 C   0  0  0  0  0  0  0  0  0  0  0  0
    8.4172   -3.8908   -9.5230 C   0  0  0  0  0  0  0  0  0  0  0  0
    9.4939   -3.4634   -8.7214 C   0  0  0  0  0  0  0  0  0  0  0  0
   10.2976   -3.2065   -5.1350 O   0  0  0  0  0  0  0  0  0  0  0  0
    8.6302    0.6440   -6.6061 O   0  0  0  0  0  0  0  0  0  0  0  0
   12.9420    9.5757   -7.2296 H   0  0  0  0  0  0  0  0  0  0  0  0
   11.3381    9.0722   -6.4560 H   0  0  0  0  0  0  0  0  0  0  0  0
   13.3082    7.2525   -7.9837 H   0  0  0  0  0  0  0  0  0  0  0  0
   12.6863    5.0639   -7.8664 H   0  0  0  0  0  0  0  0  0  0  0  0
    9.0625    5.1058   -7.0014 H   0  0  0  0  0  0  0  0  0  0  0  0
    7.7612    3.1326   -6.5736 H   0  0  0  0  0  0  0  0  0  0  0  0
   12.5745    2.7001   -7.6818 H   0  0  0  0  0  0  0  0  0  0  0  0
    9.8145   -0.8035   -6.8132 H   0  0  0  0  0  0  0  0  0  0  0  0
   12.3809   -1.9944   -6.2067 H   0  0  0  0  0  0  0  0  0  0  0  0
   11.9826   -2.2502   -7.9038 H   0  0  0  0  0  0  0  0  0  0  0  0
   11.4520   -4.2160   -6.4717 H   0  0  0  0  0  0  0  0  0  0  0  0
    8.6476   -4.9765   -5.7965 H   0  0  0  0  0  0  0  0  0  0  0  0
    6.7639   -5.7259   -7.1624 H   0  0  0  0  0  0  0  0  0  0  0  0
    5.5513   -5.7530   -9.3348 H   0  0  0  0  0  0  0  0  0  0  0  0
    5.3915   -5.0501  -11.6916 H   0  0  0  0  0  0  0  0  0  0  0  0
    7.1543   -3.6169  -12.6876 H   0  0  0  0  0  0  0  0  0  0  0  0
    9.0749   -2.8867  -11.3286 H   0  0  0  0  0  0  0  0  0  0  0  0
   10.2664   -2.8517   -9.1821 H   0  0  0  0  0  0  0  0  0  0  0  0
    9.7416   -2.4105   -5.1300 H   0  0  0  0  0  0  0  0  0  0  0  0
    7.7297    0.9475   -6.3969 H   0  0  0  0  0  0  0  0  0  0  0  0
  1  2  2  0  0  0  0
  1 29  1  0  0  0  0
  1 30  1  0  0  0  0
  2  3  1  0  0  0  0
  2 31  1  0  0  0  0
  3  4  2  0  0  0  0
  3  5  1  0  0  0  0
  5  6  1  0  0  0  0
  5 32  1  0  0  0  0
  6  7  1  0  0  0  0
  6 11  2  0  0  0  0
  7  8  2  0  0  0  0
  7 33  1  0  0  0  0
  8  9  1  0  0  0  0
  8 34  1  0  0  0  0
  9 10  2  0  0  0  0
  9 28  1  0  0  0  0
 10 11  1  0  0  0  0
 10 12  1  0  0  0  0
 11 35  1  0  0  0  0
 12 13  2  0  0  0  0
 12 14  1  0  0  0  0
 14 15  1  0  0  0  0
 14 36  1  0  0  0  0
 15 37  1  0  0  0  0
 15 38  1  0  0  0  0
 16 27  1  0  0  0  0
 16 17  1  0  0  0  0
 16 15  1  0  0  0  0
 16 39  1  1  0  0  0
 17 18  1  0  0  0  0
 17 26  2  0  0  0  0
 18 19  2  0  0  0  0
 18 40  1  0  0  0  0
 19 20  1  0  0  0  0
 19 41  1  0  0  0  0
 20 21  1  0  0  0  0
 20 25  2  0  0  0  0
 21 22  2  0  0  0  0
 21 42  1  0  0  0  0
 22 23  1  0  0  0  0
 22 43  1  0  0  0  0
 23 24  2  0  0  0  0
 23 44  1  0  0  0  0
 24 25  1  0  0  0  0
 24 45  1  0  0  0  0
 25 26  1  0  0  0  0
 26 46  1  0  0  0  0
 27 47  1  0  0  0  0
 28 48  1  0  0  0  0
M  END
$$$$
