
 OpenBabel07202414203D

 40 43  0  0  1  0  0  0  0  0999 V2000
    3.4510    0.7798   -2.2585 O   0  0  0  0  0  0  0  0  0  0  0  0
    3.6369    0.4508   -0.9481 C   0  0  0  0  0  0  0  0  0  0  0  0
    3.5057    1.4017    0.0533 C   0  0  0  0  0  0  0  0  0  0  0  0
    3.6638    1.0126    1.3778 C   0  0  0  0  0  0  0  0  0  0  0  0
    3.9553   -0.3271    1.7065 C   0  0  0  0  0  0  0  0  0  0  0  0
    4.0720   -0.7121    3.0354 C   0  0  0  0  0  0  0  0  0  0  0  0
    4.3237   -1.9717    3.4391 N   0  0  0  0  0  0  0  0  0  0  0  0
    4.5330   -2.8872    2.4655 C   0  0  0  0  0  0  0  0  0  0  0  0
    4.5035   -2.6263    1.0932 C   0  0  0  0  0  0  0  0  0  0  0  0
    4.8493   -3.6208    0.1247 N   0  0  0  0  0  0  0  0  0  0  0  0
    5.6364   -4.7323    0.3926 C   0  0  0  0  0  0  0  0  0  0  0  0
    6.0720   -5.0292    1.5053 O   0  0  0  0  0  0  0  0  0  0  0  0
    5.9220   -5.6776   -0.7802 C   0  0  3  0  0  0  0  0  0  0  0  0
    4.7826   -6.6943   -0.8919 C   0  0  0  0  0  0  0  0  0  0  0  0
    4.0321   -6.6687   -2.2111 C   0  0  0  0  0  0  0  0  0  0  0  0
    4.8411   -6.4712   -3.3609 O   0  0  0  0  0  0  0  0  0  0  0  0
    5.6880   -5.4056   -3.2776 C   0  0  0  0  0  0  0  0  0  0  0  0
    6.0193   -4.7961   -4.4883 C   0  0  0  0  0  0  0  0  0  0  0  0
    7.0125   -3.8209   -4.5316 C   0  0  0  0  0  0  0  0  0  0  0  0
    7.6943   -3.4901   -3.3648 C   0  0  0  0  0  0  0  0  0  0  0  0
    9.0210   -2.3976   -3.4381 Cl  0  0  0  0  0  0  0  0  0  0  0  0
    7.3323   -4.0666   -2.1438 C   0  0  0  0  0  0  0  0  0  0  0  0
    6.2919   -5.0119   -2.0825 C   0  0  0  0  0  0  0  0  0  0  0  0
    4.1391   -1.3099    0.6895 C   0  0  0  0  0  0  0  0  0  0  0  0
    3.9588   -0.8740   -0.6477 C   0  0  0  0  0  0  0  0  0  0  0  0
    3.1901    1.7151   -2.3122 H   0  0  0  0  0  0  0  0  0  0  0  0
    3.2791    2.4391   -0.1739 H   0  0  0  0  0  0  0  0  0  0  0  0
    3.5575    1.7589    2.1632 H   0  0  0  0  0  0  0  0  0  0  0  0
    3.9573    0.0006    3.8449 H   0  0  0  0  0  0  0  0  0  0  0  0
    4.7134   -3.8819    2.8602 H   0  0  0  0  0  0  0  0  0  0  0  0
    4.7240   -3.3779   -0.8492 H   0  0  0  0  0  0  0  0  0  0  0  0
    6.8208   -6.2382   -0.4809 H   0  0  0  0  0  0  0  0  0  0  0  0
    4.0542   -6.5836   -0.0780 H   0  0  0  0  0  0  0  0  0  0  0  0
    5.2145   -7.6949   -0.7577 H   0  0  0  0  0  0  0  0  0  0  0  0
    3.2459   -5.9071   -2.2039 H   0  0  0  0  0  0  0  0  0  0  0  0
    3.5339   -7.6373   -2.3440 H   0  0  0  0  0  0  0  0  0  0  0  0
    5.5153   -5.1007   -5.4023 H   0  0  0  0  0  0  0  0  0  0  0  0
    7.2735   -3.3581   -5.4795 H   0  0  0  0  0  0  0  0  0  0  0  0
    7.8927   -3.8058   -1.2469 H   0  0  0  0  0  0  0  0  0  0  0  0
    4.0411   -1.5630   -1.4827 H   0  0  0  0  0  0  0  0  0  0  0  0
  1  2  1  0  0  0  0
  1 26  1  0  0  0  0
  2  3  1  0  0  0  0
  2 25  2  0  0  0  0
  3  4  2  0  0  0  0
  3 27  1  0  0  0  0
  4  5  1  0  0  0  0
  4 28  1  0  0  0  0
  5  6  1  0  0  0  0
  5 24  2  0  0  0  0
  6  7  2  0  0  0  0
  6 29  1  0  0  0  0
  7  8  1  0  0  0  0
  8  9  2  0  0  0  0
  8 30  1  0  0  0  0
  9 10  1  0  0  0  0
  9 24  1  0  0  0  0
 10 11  1  0  0  0  0
 10 31  1  0  0  0  0
 11 12  2  0  0  0  0
 11 13  1  0  0  0  0
 13 14  1  0  0  0  0
 13 23  1  0  0  0  0
 13 32  1  0  0  0  0
 14 15  1  0  0  0  0
 14 33  1  0  0  0  0
 14 34  1  0  0  0  0
 15 16  1  0  0  0  0
 15 35  1  0  0  0  0
 15 36  1  0  0  0  0
 16 17  1  0  0  0  0
 17 18  1  0  0  0  0
 17 23  2  0  0  0  0
 18 19  2  0  0  0  0
 18 37  1  0  0  0  0
 19 20  1  0  0  0  0
 19 38  1  0  0  0  0
 20 21  1  0  0  0  0
 20 22  2  0  0  0  0
 22 23  1  0  0  0  0
 22 39  1  0  0  0  0
 24 25  1  0  0  0  0
 25 40  1  0  0  0  0
M  END
$$$$
