
 OpenBabel07202414113D

 53 56  0  0  0  0  0  0  0  0999 V2000
    3.6201    2.5889   -2.5147 C   0  0  0  0  0  0  0  0  0  0  0  0
    2.9690    2.0659   -1.2455 C   0  0  0  0  0  0  0  0  0  0  0  0
    2.1685    2.8009   -0.6632 O   0  0  0  0  0  0  0  0  0  0  0  0
    3.3172    0.7581   -0.8496 N   0  0  0  0  0  0  0  0  0  0  0  0
    2.5772    0.0204    0.1625 C   0  0  0  0  0  0  0  0  0  0  0  0
    1.2900    0.3975    0.5695 C   0  0  0  0  0  0  0  0  0  0  0  0
    0.5834   -0.3196    1.5514 C   0  0  0  0  0  0  0  0  0  0  0  0
    1.1519   -1.4187    2.1867 C   0  0  0  0  0  0  0  0  0  0  0  0
    0.3931   -2.2089    3.0554 N   0  0  0  0  0  0  0  0  0  0  0  0
    2.4044   -1.8437    1.7555 C   0  0  0  0  0  0  0  0  0  0  0  0
    3.1174   -1.1219    0.7845 C   0  0  0  0  0  0  0  0  0  0  0  0
    4.4207    0.0879   -1.4635 C   0  0  0  0  0  0  0  0  0  0  0  0
    5.7197    0.6219   -1.3808 C   0  0  0  0  0  0  0  0  0  0  0  0
    6.7959    0.0089   -2.0455 C   0  0  0  0  0  0  0  0  0  0  0  0
    8.2109    0.5224   -1.8946 C   0  0  0  0  0  0  0  0  0  0  0  0
    8.4212    1.9682   -2.3051 C   0  0  0  0  0  0  0  0  0  0  0  0
    8.4538    2.8710   -1.4734 O   0  0  0  0  0  0  0  0  0  0  0  0
    8.5461    2.1506   -3.6718 N   0  0  0  0  0  0  0  0  0  0  0  0
    8.8073    3.4191   -4.2488 C   0  0  0  0  0  0  0  0  0  0  0  0
    9.7901    4.2601   -3.7212 C   0  0  0  0  0  0  0  0  0  0  0  0
   10.1350    5.4582   -4.2464 N   0  0  0  0  0  0  0  0  0  0  0  0
    9.4359    5.8582   -5.3307 C   0  0  0  0  0  0  0  0  0  0  0  0
    8.4158    5.1212   -5.9341 C   0  0  0  0  0  0  0  0  0  0  0  0
    7.6976    5.6257   -7.0327 C   0  0  0  0  0  0  0  0  0  0  0  0
    6.6520    4.8950   -7.5938 C   0  0  0  0  0  0  0  0  0  0  0  0
    6.3191    3.6518   -7.0710 C   0  0  0  0  0  0  0  0  0  0  0  0
    7.0321    3.1346   -5.9877 C   0  0  0  0  0  0  0  0  0  0  0  0
    8.0962    3.8540   -5.3922 C   0  0  0  0  0  0  0  0  0  0  0  0
    6.5454   -1.1528   -2.7886 C   0  0  0  0  0  0  0  0  0  0  0  0
    5.2630   -1.6928   -2.8578 C   0  0  0  0  0  0  0  0  0  0  0  0
    4.9891   -3.1238   -3.7737 Cl  0  0  0  0  0  0  0  0  0  0  0  0
    4.1989   -1.0810   -2.2009 C   0  0  0  0  0  0  0  0  0  0  0  0
    3.0898    3.4877   -2.8449 H   0  0  0  0  0  0  0  0  0  0  0  0
    3.5511    1.8555   -3.3232 H   0  0  0  0  0  0  0  0  0  0  0  0
    4.6589    2.8698   -2.3312 H   0  0  0  0  0  0  0  0  0  0  0  0
    0.7729    1.2410    0.1220 H   0  0  0  0  0  0  0  0  0  0  0  0
   -0.4236    0.0008    1.8075 H   0  0  0  0  0  0  0  0  0  0  0  0
   -0.3303   -1.6941    3.5486 H   0  0  0  0  0  0  0  0  0  0  0  0
    0.9479   -2.7826    3.6827 H   0  0  0  0  0  0  0  0  0  0  0  0
    2.8507   -2.7409    2.1771 H   0  0  0  0  0  0  0  0  0  0  0  0
    4.1133   -1.4832    0.5442 H   0  0  0  0  0  0  0  0  0  0  0  0
    5.8988    1.5071   -0.7687 H   0  0  0  0  0  0  0  0  0  0  0  0
    8.9095   -0.0964   -2.4718 H   0  0  0  0  0  0  0  0  0  0  0  0
    8.5141    0.4204   -0.8453 H   0  0  0  0  0  0  0  0  0  0  0  0
    8.1181    1.4505   -4.2620 H   0  0  0  0  0  0  0  0  0  0  0  0
   10.3788    3.9703   -2.8546 H   0  0  0  0  0  0  0  0  0  0  0  0
    9.7241    6.8373   -5.7084 H   0  0  0  0  0  0  0  0  0  0  0  0
    7.9341    6.6054   -7.4435 H   0  0  0  0  0  0  0  0  0  0  0  0
    6.0873    5.3043   -8.4276 H   0  0  0  0  0  0  0  0  0  0  0  0
    5.4904    3.0885   -7.4925 H   0  0  0  0  0  0  0  0  0  0  0  0
    6.7113    2.1753   -5.5939 H   0  0  0  0  0  0  0  0  0  0  0  0
    7.3632   -1.6642   -3.3000 H   0  0  0  0  0  0  0  0  0  0  0  0
    3.1972   -1.4984   -2.2766 H   0  0  0  0  0  0  0  0  0  0  0  0
  1  2  1  0  0  0  0
  1 33  1  0  0  0  0
  1 34  1  0  0  0  0
  1 35  1  0  0  0  0
  2  3  2  0  0  0  0
  2  4  1  0  0  0  0
  4  5  1  0  0  0  0
  4 12  1  0  0  0  0
  5  6  2  0  0  0  0
  5 11  1  0  0  0  0
  6  7  1  0  0  0  0
  6 36  1  0  0  0  0
  7  8  2  0  0  0  0
  7 37  1  0  0  0  0
  8  9  1  0  0  0  0
  8 10  1  0  0  0  0
  9 38  1  0  0  0  0
  9 39  1  0  0  0  0
 10 11  2  0  0  0  0
 10 40  1  0  0  0  0
 11 41  1  0  0  0  0
 12 13  2  0  0  0  0
 12 32  1  0  0  0  0
 13 14  1  0  0  0  0
 13 42  1  0  0  0  0
 14 15  1  0  0  0  0
 14 29  2  0  0  0  0
 15 16  1  0  0  0  0
 15 43  1  0  0  0  0
 15 44  1  0  0  0  0
 16 17  2  0  0  0  0
 16 18  1  0  0  0  0
 18 19  1  0  0  0  0
 18 45  1  0  0  0  0
 19 20  2  0  0  0  0
 19 28  1  0  0  0  0
 20 21  1  0  0  0  0
 20 46  1  0  0  0  0
 21 22  2  0  0  0  0
 22 23  1  0  0  0  0
 22 47  1  0  0  0  0
 23 24  2  0  0  0  0
 23 28  1  0  0  0  0
 24 25  1  0  0  0  0
 24 48  1  0  0  0  0
 25 26  2  0  0  0  0
 25 49  1  0  0  0  0
 26 27  1  0  0  0  0
 26 50  1  0  0  0  0
 27 28  2  0  0  0  0
 27 51  1  0  0  0  0
 29 30  1  0  0  0  0
 29 52  1  0  0  0  0
 30 31  1  0  0  0  0
 30 32  2  0  0  0  0
 32 53  1  0  0  0  0
M  END
$$$$
