
 OpenBabel07202414133D

 62 64  0  0  1  0  0  0  0  0999 V2000
   -0.5366    3.1775   -6.1534 C   0  0  0  0  0  0  0  0  0  0  0  0
    0.0280    4.3991   -5.4483 C   0  0  0  0  0  0  0  0  0  0  0  0
    1.1560    4.0536   -4.5103 C   0  0  0  0  0  0  0  0  0  0  0  0
    0.8751    3.7598   -3.1706 C   0  0  0  0  0  0  0  0  0  0  0  0
    1.9059    3.4802   -2.2819 C   0  0  0  0  0  0  0  0  0  0  0  0
    3.2279    3.4966   -2.7204 C   0  0  0  0  0  0  0  0  0  0  0  0
    3.5345    3.7734   -4.0562 C   0  0  0  0  0  0  0  0  0  0  0  0
    4.8577    3.8014   -4.5487 N   0  0  0  0  0  0  0  0  0  0  0  0
    5.9987    3.8272   -3.7710 C   0  0  0  0  0  0  0  0  0  0  0  0
    6.0113    3.9613   -2.5457 O   0  0  0  0  0  0  0  0  0  0  0  0
    7.3496    3.8452   -4.5306 C   0  0  3  0  0  0  0  0  0  0  0  0
    7.3584    3.0320   -5.7893 N   0  0  0  0  0  0  0  0  0  0  0  0
    7.1155    3.4738   -7.0927 C   0  0  0  0  0  0  0  0  0  0  0  0
    7.0833    2.7335   -8.0782 O   0  0  0  0  0  0  0  0  0  0  0  0
    6.8020    4.9107   -7.3161 C   0  0  0  0  0  0  0  0  0  0  0  0
    7.0261    5.4504   -8.5219 C   0  0  0  0  0  0  0  0  0  0  0  0
    7.5069    1.5971   -5.5906 C   0  0  0  0  0  0  0  0  0  0  0  0
    8.3159    0.8307   -6.4410 C   0  0  0  0  0  0  0  0  0  0  0  0
    8.3970   -0.5632   -6.3081 C   0  0  0  0  0  0  0  0  0  0  0  0
    7.6535   -1.2312   -5.3285 C   0  0  0  0  0  0  0  0  0  0  0  0
    7.6239   -2.7464   -5.2693 C   0  0  3  0  0  0  0  0  0  0  0  0
    8.1193   -3.2567   -3.9158 C   0  0  0  0  0  0  0  0  0  0  0  0
    6.2832   -3.2317   -5.4401 O   0  0  0  0  0  0  0  0  0  0  0  0
    5.7787   -3.0465   -6.7584 C   0  0  0  0  0  0  0  0  0  0  0  0
    6.8744   -0.4697   -4.4546 C   0  0  0  0  0  0  0  0  0  0  0  0
    6.8185    0.9218   -4.5712 C   0  0  0  0  0  0  0  0  0  0  0  0
    8.0048    5.2286   -4.5436 C   0  0  0  0  0  0  0  0  0  0  0  0
    9.2882    5.4360   -5.0650 C   0  0  0  0  0  0  0  0  0  0  0  0
    9.9118    6.6761   -4.9101 C   0  0  0  0  0  0  0  0  0  0  0  0
    9.2344    7.6829   -4.2446 C   0  0  0  0  0  0  0  0  0  0  0  0
    7.9868    7.5423   -3.7638 N   0  0  0  0  0  0  0  0  0  0  0  0
    7.4105    6.3282   -3.9103 C   0  0  0  0  0  0  0  0  0  0  0  0
    2.4895    4.0295   -4.9537 C   0  0  0  0  0  0  0  0  0  0  0  0
   -1.3772    3.4687   -6.7916 H   0  0  0  0  0  0  0  0  0  0  0  0
   -0.8988    2.4336   -5.4356 H   0  0  0  0  0  0  0  0  0  0  0  0
    0.2194    2.6986   -6.7841 H   0  0  0  0  0  0  0  0  0  0  0  0
   -0.7714    4.8954   -4.8835 H   0  0  0  0  0  0  0  0  0  0  0  0
    0.3730    5.1330   -6.1863 H   0  0  0  0  0  0  0  0  0  0  0  0
   -0.1507    3.7550   -2.8094 H   0  0  0  0  0  0  0  0  0  0  0  0
    1.6885    3.2569   -1.2411 H   0  0  0  0  0  0  0  0  0  0  0  0
    3.9936    3.2662   -1.9869 H   0  0  0  0  0  0  0  0  0  0  0  0
    4.9594    3.8123   -5.5548 H   0  0  0  0  0  0  0  0  0  0  0  0
    8.0227    3.2897   -3.8554 H   0  0  0  0  0  0  0  0  0  0  0  0
    6.3440    5.5033   -6.5390 H   0  0  0  0  0  0  0  0  0  0  0  0
    7.4566    4.8701   -9.3359 H   0  0  0  0  0  0  0  0  0  0  0  0
    6.7791    6.4863   -8.7262 H   0  0  0  0  0  0  0  0  0  0  0  0
    8.8951    1.3051   -7.2302 H   0  0  0  0  0  0  0  0  0  0  0  0
    9.0178   -1.1222   -7.0050 H   0  0  0  0  0  0  0  0  0  0  0  0
    8.2614   -3.1781   -6.0511 H   0  0  0  0  0  0  0  0  0  0  0  0
    7.4329   -2.9844   -3.1052 H   0  0  0  0  0  0  0  0  0  0  0  0
    9.1124   -2.8648   -3.6743 H   0  0  0  0  0  0  0  0  0  0  0  0
    8.1662   -4.3512   -3.9183 H   0  0  0  0  0  0  0  0  0  0  0  0
    4.7566   -3.4342   -6.7887 H   0  0  0  0  0  0  0  0  0  0  0  0
    6.3837   -3.5991   -7.4829 H   0  0  0  0  0  0  0  0  0  0  0  0
    5.7416   -1.9871   -7.0283 H   0  0  0  0  0  0  0  0  0  0  0  0
    6.2593   -0.9620   -3.7023 H   0  0  0  0  0  0  0  0  0  0  0  0
    6.1455    1.4174   -3.8831 H   0  0  0  0  0  0  0  0  0  0  0  0
    9.8236    4.6333   -5.5670 H   0  0  0  0  0  0  0  0  0  0  0  0
   10.9166    6.8501   -5.2788 H   0  0  0  0  0  0  0  0  0  0  0  0
    9.6909    8.6516   -4.0622 H   0  0  0  0  0  0  0  0  0  0  0  0
    6.4222    6.2819   -3.4569 H   0  0  0  0  0  0  0  0  0  0  0  0
    2.7020    4.2480   -5.9978 H   0  0  0  0  0  0  0  0  0  0  0  0
  1  2  1  0  0  0  0
  1 34  1  0  0  0  0
  1 35  1  0  0  0  0
  1 36  1  0  0  0  0
  2  3  1  0  0  0  0
  2 37  1  0  0  0  0
  2 38  1  0  0  0  0
  3  4  1  0  0  0  0
  3 33  2  0  0  0  0
  4  5  2  0  0  0  0
  4 39  1  0  0  0  0
  5  6  1  0  0  0  0
  5 40  1  0  0  0  0
  6  7  2  0  0  0  0
  6 41  1  0  0  0  0
  7  8  1  0  0  0  0
  7 33  1  0  0  0  0
  8  9  1  0  0  0  0
  8 42  1  0  0  0  0
  9 10  2  0  0  0  0
  9 11  1  0  0  0  0
 11 12  1  0  0  0  0
 11 27  1  0  0  0  0
 11 43  1  0  0  0  0
 12 13  1  0  0  0  0
 12 17  1  0  0  0  0
 13 14  2  0  0  0  0
 13 15  1  0  0  0  0
 15 16  2  0  0  0  0
 15 44  1  0  0  0  0
 16 45  1  0  0  0  0
 16 46  1  0  0  0  0
 17 18  1  0  0  0  0
 17 26  2  0  0  0  0
 18 19  2  0  0  0  0
 18 47  1  0  0  0  0
 19 20  1  0  0  0  0
 19 48  1  0  0  0  0
 20 21  1  0  0  0  0
 20 25  2  0  0  0  0
 21 22  1  0  0  0  0
 21 23  1  0  0  0  0
 21 49  1  0  0  0  0
 22 50  1  0  0  0  0
 22 51  1  0  0  0  0
 22 52  1  0  0  0  0
 23 24  1  0  0  0  0
 24 53  1  0  0  0  0
 24 54  1  0  0  0  0
 24 55  1  0  0  0  0
 25 26  1  0  0  0  0
 25 56  1  0  0  0  0
 26 57  1  0  0  0  0
 27 28  1  0  0  0  0
 27 32  2  0  0  0  0
 28 29  2  0  0  0  0
 28 58  1  0  0  0  0
 29 30  1  0  0  0  0
 29 59  1  0  0  0  0
 30 31  2  0  0  0  0
 30 60  1  0  0  0  0
 31 32  1  0  0  0  0
 32 61  1  0  0  0  0
 33 62  1  0  0  0  0
M  END
$$$$
