
 OpenBabel07202414133D

 63 67  0  0  1  0  0  0  0  0999 V2000
   -0.9428   -2.9847    4.0556 C   0  0  0  0  0  0  0  0  0  0  0  0
    0.3921   -2.9177    3.4220 N   0  0  0  0  0  0  0  0  0  0  0  0
    0.8617   -2.0435    2.4031 C   0  0  0  0  0  0  0  0  0  0  0  0
    1.9146   -2.2630    1.7903 O   0  0  0  0  0  0  0  0  0  0  0  0
    0.0879   -0.8470    1.8749 C   0  0  0  0  0  0  0  0  0  0  0  0
   -0.8183   -0.1894    2.6219 C   0  0  0  0  0  0  0  0  0  0  0  0
    0.3991   -0.3629    0.4193 C   0  0  0  0  0  0  0  0  0  0  0  0
    1.3482    0.8025    0.1895 N   0  0  0  0  0  0  0  0  0  0  0  0
    1.5019    1.7879    1.1856 C   0  0  0  0  0  0  0  0  0  0  0  0
    0.9570    1.6801    2.2913 O   0  0  0  0  0  0  0  0  0  0  0  0
    2.3338    3.0986    0.9945 C   0  0  1  0  0  0  0  0  0  0  0  0
    1.3784    4.2684    0.7406 C   0  0  0  0  0  0  0  0  0  0  0  0
    1.8760    5.5715    1.3501 C   0  0  0  0  0  0  0  0  0  0  0  0
    2.2243    5.4736    2.7298 O   0  0  0  0  0  0  0  0  0  0  0  0
    3.0333    4.4212    3.0473 C   0  0  0  0  0  0  0  0  0  0  0  0
    3.6595    4.4721    4.2951 C   0  0  0  0  0  0  0  0  0  0  0  0
    4.3995    3.3823    4.7627 C   0  0  0  0  0  0  0  0  0  0  0  0
    4.5551    2.2592    3.9586 C   0  0  0  0  0  0  0  0  0  0  0  0
    5.3675    0.8666    4.5594 Cl  0  0  0  0  0  0  0  0  0  0  0  0
    3.9870    2.2270    2.6907 C   0  0  0  0  0  0  0  0  0  0  0  0
    3.1713    3.2891    2.2480 C   0  0  0  0  0  0  0  0  0  0  0  0
    1.9131    1.0281   -1.1514 C   0  0  0  0  0  0  0  0  0  0  0  0
    3.2722    1.3616   -1.2306 C   0  0  0  0  0  0  0  0  0  0  0  0
    3.8735    2.0035   -2.2658 N   0  0  0  0  0  0  0  0  0  0  0  0
    3.1135    2.2409   -3.3488 C   0  0  0  0  0  0  0  0  0  0  0  0
    1.8141    1.7734   -3.4928 C   0  0  0  0  0  0  0  0  0  0  0  0
    1.1662    1.9705   -4.7278 C   0  0  0  0  0  0  0  0  0  0  0  0
   -0.1024    1.4550   -4.9508 C   0  0  0  0  0  0  0  0  0  0  0  0
   -0.7385    0.7630   -3.9265 C   0  0  0  0  0  0  0  0  0  0  0  0
   -0.1126    0.6142   -2.6719 C   0  0  0  0  0  0  0  0  0  0  0  0
    1.1836    1.1125   -2.3906 C   0  0  0  0  0  0  0  0  0  0  0  0
    1.2648   -4.0060    3.8473 C   0  0  0  0  0  0  0  0  0  0  0  0
    2.6359   -3.7853    4.0224 C   0  0  0  0  0  0  0  0  0  0  0  0
    3.5026   -4.8255    4.3755 C   0  0  0  0  0  0  0  0  0  0  0  0
    3.0080   -6.1099    4.5725 C   0  0  0  0  0  0  0  0  0  0  0  0
    1.6395   -6.3398    4.4723 C   0  0  0  0  0  0  0  0  0  0  0  0
    0.7706   -5.2934    4.1299 C   0  0  0  0  0  0  0  0  0  0  0  0
   -1.5128   -2.0667    4.0468 H   0  0  0  0  0  0  0  0  0  0  0  0
   -0.8267   -3.2537    5.1149 H   0  0  0  0  0  0  0  0  0  0  0  0
   -1.5530   -3.7453    3.5592 H   0  0  0  0  0  0  0  0  0  0  0  0
   -0.9251   -0.3354    3.6860 H   0  0  0  0  0  0  0  0  0  0  0  0
   -1.3508    0.6691    2.2230 H   0  0  0  0  0  0  0  0  0  0  0  0
   -0.5650   -0.0448    0.0149 H   0  0  0  0  0  0  0  0  0  0  0  0
    0.7566   -1.2054   -0.1856 H   0  0  0  0  0  0  0  0  0  0  0  0
    3.0502    3.1019    0.1834 H   0  0  0  0  0  0  0  0  0  0  0  0
    0.3822    4.0467    1.1377 H   0  0  0  0  0  0  0  0  0  0  0  0
    1.2481    4.4047   -0.3422 H   0  0  0  0  0  0  0  0  0  0  0  0
    1.0711    6.3140    1.2852 H   0  0  0  0  0  0  0  0  0  0  0  0
    2.7258    5.9839    0.7932 H   0  0  0  0  0  0  0  0  0  0  0  0
    3.5317    5.3469    4.9273 H   0  0  0  0  0  0  0  0  0  0  0  0
    4.8205    3.4021    5.7633 H   0  0  0  0  0  0  0  0  0  0  0  0
    4.0912    1.3262    2.0893 H   0  0  0  0  0  0  0  0  0  0  0  0
    3.9370    1.1979   -0.3946 H   0  0  0  0  0  0  0  0  0  0  0  0
    3.6043    2.8168   -4.1264 H   0  0  0  0  0  0  0  0  0  0  0  0
    1.6600    2.5037   -5.5403 H   0  0  0  0  0  0  0  0  0  0  0  0
   -0.5830    1.5750   -5.9184 H   0  0  0  0  0  0  0  0  0  0  0  0
   -1.7083    0.3179   -4.1068 H   0  0  0  0  0  0  0  0  0  0  0  0
   -0.6665    0.0362   -1.9440 H   0  0  0  0  0  0  0  0  0  0  0  0
    3.0479   -2.7857    3.9060 H   0  0  0  0  0  0  0  0  0  0  0  0
    4.5640   -4.6238    4.4838 H   0  0  0  0  0  0  0  0  0  0  0  0
    3.6872   -6.9253    4.8053 H   0  0  0  0  0  0  0  0  0  0  0  0
    1.2480   -7.3376    4.6381 H   0  0  0  0  0  0  0  0  0  0  0  0
   -0.2867   -5.5324    4.0497 H   0  0  0  0  0  0  0  0  0  0  0  0
  1  2  1  0  0  0  0
  1 38  1  0  0  0  0
  1 39  1  0  0  0  0
  1 40  1  0  0  0  0
  2  3  1  0  0  0  0
  2 32  1  0  0  0  0
  3  4  2  0  0  0  0
  3  5  1  0  0  0  0
  5  6  2  0  0  0  0
  5  7  1  0  0  0  0
  6 41  1  0  0  0  0
  6 42  1  0  0  0  0
  7  8  1  0  0  0  0
  7 43  1  0  0  0  0
  7 44  1  0  0  0  0
  8  9  1  0  0  0  0
  8 22  1  0  0  0  0
  9 10  2  0  0  0  0
 11 12  1  0  0  0  0
 11 21  1  0  0  0  0
 11  9  1  0  0  0  0
 11 45  1  6  0  0  0
 12 13  1  0  0  0  0
 12 46  1  0  0  0  0
 12 47  1  0  0  0  0
 13 14  1  0  0  0  0
 13 48  1  0  0  0  0
 13 49  1  0  0  0  0
 14 15  1  0  0  0  0
 15 16  1  0  0  0  0
 15 21  2  0  0  0  0
 16 17  2  0  0  0  0
 16 50  1  0  0  0  0
 17 18  1  0  0  0  0
 17 51  1  0  0  0  0
 18 19  1  0  0  0  0
 18 20  2  0  0  0  0
 20 21  1  0  0  0  0
 20 52  1  0  0  0  0
 22 23  1  0  0  0  0
 22 31  2  0  0  0  0
 23 24  2  0  0  0  0
 23 53  1  0  0  0  0
 24 25  1  0  0  0  0
 25 26  2  0  0  0  0
 25 54  1  0  0  0  0
 26 27  1  0  0  0  0
 26 31  1  0  0  0  0
 27 28  2  0  0  0  0
 27 55  1  0  0  0  0
 28 29  1  0  0  0  0
 28 56  1  0  0  0  0
 29 30  2  0  0  0  0
 29 57  1  0  0  0  0
 30 31  1  0  0  0  0
 30 58  1  0  0  0  0
 32 33  1  0  0  0  0
 32 37  2  0  0  0  0
 33 34  2  0  0  0  0
 33 59  1  0  0  0  0
 34 35  1  0  0  0  0
 34 60  1  0  0  0  0
 35 36  2  0  0  0  0
 35 61  1  0  0  0  0
 36 37  1  0  0  0  0
 36 62  1  0  0  0  0
 37 63  1  0  0  0  0
M  END
$$$$
