
 OpenBabel07202414203D

 60 64  0  0  0  0  0  0  0  0999 V2000
    1.7215    0.1599    4.2680 O   0  5  0  0  0  0  0  0  0  0  0  0
    2.9303    0.3179    4.0565 N   0  3  0  0  0  0  0  0  0  0  0  0
    3.8329   -0.1556    4.7638 O   0  0  0  0  0  0  0  0  0  0  0  0
    3.3224    1.1246    2.8978 C   0  0  0  0  0  0  0  0  0  0  0  0
    2.3365    1.6463    2.0517 C   0  0  0  0  0  0  0  0  0  0  0  0
    2.7227    2.4216    0.9753 C   0  0  0  0  0  0  0  0  0  0  0  0
    4.0801    2.6819    0.7435 C   0  0  0  0  0  0  0  0  0  0  0  0
    5.0976    2.1784    1.5745 C   0  0  0  0  0  0  0  0  0  0  0  0
    6.4265    2.4385    1.3187 N   0  0  0  0  0  0  0  0  0  0  0  0
    7.5319    1.5354    1.6967 C   0  0  0  0  0  0  0  0  0  0  0  0
    8.4785    2.2042    2.7087 C   0  0  0  0  0  0  0  0  0  0  0  0
    8.9318    3.5239    2.2443 N   0  0  0  0  0  0  0  0  0  0  0  0
   10.2374    3.7844    1.8778 C   0  0  0  0  0  0  0  0  0  0  0  0
   11.0815    2.8118    1.3030 C   0  0  0  0  0  0  0  0  0  0  0  0
   12.4187    3.0934    0.9540 C   0  0  0  0  0  0  0  0  0  0  0  0
   13.3216    2.1302    0.2169 C   0  0  0  0  0  0  0  0  0  0  0  0
   13.1107    0.6505    0.4472 C   0  0  0  0  0  0  0  0  0  0  0  0
   12.5186   -0.0499   -0.3744 O   0  0  0  0  0  0  0  0  0  0  0  0
   13.6498    0.1884    1.6446 N   0  0  0  0  0  0  0  0  0  0  0  0
   13.5176   -1.1901    1.9636 C   0  0  0  0  0  0  0  0  0  0  0  0
   14.0681   -2.1593    1.1256 C   0  0  0  0  0  0  0  0  0  0  0  0
   13.9355   -3.4902    1.3132 N   0  0  0  0  0  0  0  0  0  0  0  0
   13.0586   -3.8588    2.2687 C   0  0  0  0  0  0  0  0  0  0  0  0
   12.3366   -2.9667    3.0621 C   0  0  0  0  0  0  0  0  0  0  0  0
   11.2279   -3.3730    3.8238 C   0  0  0  0  0  0  0  0  0  0  0  0
   10.5522   -2.4628    4.6330 C   0  0  0  0  0  0  0  0  0  0  0  0
   11.0462   -1.1714    4.7795 C   0  0  0  0  0  0  0  0  0  0  0  0
   12.1076   -0.7419    3.9856 C   0  0  0  0  0  0  0  0  0  0  0  0
   12.6923   -1.6034    3.0302 C   0  0  0  0  0  0  0  0  0  0  0  0
   12.9106    4.3870    1.1883 C   0  0  0  0  0  0  0  0  0  0  0  0
   12.0956    5.3570    1.7552 C   0  0  0  0  0  0  0  0  0  0  0  0
   12.7231    6.9367    2.0363 Cl  0  0  0  0  0  0  0  0  0  0  0  0
   10.7786    5.0648    2.0933 C   0  0  0  0  0  0  0  0  0  0  0  0
    7.8435    4.4394    1.8199 C   0  0  0  0  0  0  0  0  0  0  0  0
    6.8777    3.7560    0.8167 C   0  0  0  0  0  0  0  0  0  0  0  0
    4.6849    1.3851    2.6554 C   0  0  0  0  0  0  0  0  0  0  0  0
    1.2790    1.4470    2.2246 H   0  0  0  0  0  0  0  0  0  0  0  0
    1.9749    2.8284    0.2943 H   0  0  0  0  0  0  0  0  0  0  0  0
    4.3400    3.2634   -0.1373 H   0  0  0  0  0  0  0  0  0  0  0  0
    8.0965    1.2979    0.7836 H   0  0  0  0  0  0  0  0  0  0  0  0
    7.1798    0.5746    2.0875 H   0  0  0  0  0  0  0  0  0  0  0  0
    9.3129    1.5312    2.9399 H   0  0  0  0  0  0  0  0  0  0  0  0
    7.9381    2.3507    3.6529 H   0  0  0  0  0  0  0  0  0  0  0  0
   10.6734    1.8316    1.0706 H   0  0  0  0  0  0  0  0  0  0  0  0
   14.3671    2.3385    0.4721 H   0  0  0  0  0  0  0  0  0  0  0  0
   13.2175    2.3140   -0.8600 H   0  0  0  0  0  0  0  0  0  0  0  0
   13.5477    0.8439    2.4068 H   0  0  0  0  0  0  0  0  0  0  0  0
   14.6466   -1.8828    0.2456 H   0  0  0  0  0  0  0  0  0  0  0  0
   12.9354   -4.9346    2.3746 H   0  0  0  0  0  0  0  0  0  0  0  0
   10.8428   -4.3868    3.7242 H   0  0  0  0  0  0  0  0  0  0  0  0
    9.6480   -2.7652    5.1519 H   0  0  0  0  0  0  0  0  0  0  0  0
   10.5765   -0.4852    5.4787 H   0  0  0  0  0  0  0  0  0  0  0  0
   12.4517    0.2816    4.1050 H   0  0  0  0  0  0  0  0  0  0  0  0
   13.9292    4.6429    0.9068 H   0  0  0  0  0  0  0  0  0  0  0  0
   10.1698    5.8351    2.5570 H   0  0  0  0  0  0  0  0  0  0  0  0
    8.2259    5.3534    1.3544 H   0  0  0  0  0  0  0  0  0  0  0  0
    7.2845    4.7430    2.7121 H   0  0  0  0  0  0  0  0  0  0  0  0
    7.3900    3.6022   -0.1402 H   0  0  0  0  0  0  0  0  0  0  0  0
    6.0469    4.4471    0.6319 H   0  0  0  0  0  0  0  0  0  0  0  0
    5.4272    0.9830    3.3362 H   0  0  0  0  0  0  0  0  0  0  0  0
  1  2  1  0  0  0  0
  2  3  2  0  0  0  0
  2  4  1  0  0  0  0
  4  5  2  0  0  0  0
  4 36  1  0  0  0  0
  5  6  1  0  0  0  0
  5 37  1  0  0  0  0
  6  7  2  0  0  0  0
  6 38  1  0  0  0  0
  7  8  1  0  0  0  0
  7 39  1  0  0  0  0
  8  9  1  0  0  0  0
  8 36  2  0  0  0  0
  9 10  1  0  0  0  0
  9 35  1  0  0  0  0
 10 11  1  0  0  0  0
 10 40  1  0  0  0  0
 10 41  1  0  0  0  0
 11 12  1  0  0  0  0
 11 42  1  0  0  0  0
 11 43  1  0  0  0  0
 12 13  1  0  0  0  0
 12 34  1  0  0  0  0
 13 14  2  0  0  0  0
 13 33  1  0  0  0  0
 14 15  1  0  0  0  0
 14 44  1  0  0  0  0
 15 16  1  0  0  0  0
 15 30  2  0  0  0  0
 16 17  1  0  0  0  0
 16 45  1  0  0  0  0
 16 46  1  0  0  0  0
 17 18  2  0  0  0  0
 17 19  1  0  0  0  0
 19 20  1  0  0  0  0
 19 47  1  0  0  0  0
 20 21  2  0  0  0  0
 20 29  1  0  0  0  0
 21 22  1  0  0  0  0
 21 48  1  0  0  0  0
 22 23  2  0  0  0  0
 23 24  1  0  0  0  0
 23 49  1  0  0  0  0
 24 25  2  0  0  0  0
 24 29  1  0  0  0  0
 25 26  1  0  0  0  0
 25 50  1  0  0  0  0
 26 27  2  0  0  0  0
 26 51  1  0  0  0  0
 27 28  1  0  0  0  0
 27 52  1  0  0  0  0
 28 29  2  0  0  0  0
 28 53  1  0  0  0  0
 30 31  1  0  0  0  0
 30 54  1  0  0  0  0
 31 32  1  0  0  0  0
 31 33  2  0  0  0  0
 33 55  1  0  0  0  0
 34 35  1  0  0  0  0
 34 56  1  0  0  0  0
 34 57  1  0  0  0  0
 35 58  1  0  0  0  0
 35 59  1  0  0  0  0
 36 60  1  0  0  0  0
M  CHG  2   1  -1   2   1
M  END
$$$$
