
 OpenBabel07202414193D

 53 56  0  0  0  0  0  0  0  0999 V2000
    1.3508   -0.4355    1.0259 O   0  0  0  0  0  0  0  0  0  0  0  0
    2.4762   -0.1933    0.5852 C   0  0  0  0  0  0  0  0  0  0  0  0
    3.2986    0.9901    1.0889 C   0  0  0  0  0  0  0  0  0  0  0  0
    2.6287    2.2174    1.6842 C   0  0  0  0  0  0  0  0  0  0  0  0
    1.2505    2.4203    1.6884 C   0  0  0  0  0  0  0  0  0  0  0  0
    0.6372    3.5274    2.1674 N   0  0  0  0  0  0  0  0  0  0  0  0
    1.4332    4.4953    2.6735 C   0  0  0  0  0  0  0  0  0  0  0  0
    2.8210    4.4268    2.7242 C   0  0  0  0  0  0  0  0  0  0  0  0
    3.5903    5.4811    3.2544 C   0  0  0  0  0  0  0  0  0  0  0  0
    4.9813    5.4010    3.2892 C   0  0  0  0  0  0  0  0  0  0  0  0
    5.6145    4.2709    2.7937 C   0  0  0  0  0  0  0  0  0  0  0  0
    4.8573    3.2203    2.2644 C   0  0  0  0  0  0  0  0  0  0  0  0
    3.4440    3.2633    2.2189 C   0  0  0  0  0  0  0  0  0  0  0  0
    3.0895   -1.0219   -0.3790 N   0  0  0  0  0  0  0  0  0  0  0  0
    2.2830   -2.1541   -0.8694 C   0  0  0  0  0  0  0  0  0  0  0  0
    1.3638   -1.8819   -2.0456 C   0  0  0  0  0  0  0  0  0  0  0  0
    1.5703   -2.5545   -3.2665 C   0  0  0  0  0  0  0  0  0  0  0  0
    0.6142   -2.5013   -4.2837 C   0  0  0  0  0  0  0  0  0  0  0  0
   -0.5476   -1.7660   -4.0939 C   0  0  0  0  0  0  0  0  0  0  0  0
   -1.4912   -1.7639   -5.0449 F   0  0  0  0  0  0  0  0  0  0  0  0
   -0.7540   -1.0549   -2.9198 C   0  0  0  0  0  0  0  0  0  0  0  0
    0.2013   -1.1081   -1.9007 C   0  0  0  0  0  0  0  0  0  0  0  0
    4.5707   -1.1696   -0.4469 C   0  0  0  0  0  0  0  0  0  0  0  0
    5.0911   -1.2799   -1.8895 C   0  0  0  0  0  0  0  0  0  0  0  0
    6.5999   -1.5287   -1.9388 C   0  0  0  0  0  0  0  0  0  0  0  0
    6.9910   -2.7437   -1.1056 C   0  0  0  0  0  0  0  0  0  0  0  0
    6.5595   -2.5694    0.3457 C   0  0  0  0  0  0  0  0  0  0  0  0
    5.0571   -2.3262    0.4541 C   0  0  0  0  0  0  0  0  0  0  0  0
    3.8798    1.3679    0.2415 H   0  0  0  0  0  0  0  0  0  0  0  0
    3.9643    0.5680    1.8520 H   0  0  0  0  0  0  0  0  0  0  0  0
    0.5518    1.6945    1.2889 H   0  0  0  0  0  0  0  0  0  0  0  0
    0.8957    5.3635    3.0452 H   0  0  0  0  0  0  0  0  0  0  0  0
    3.1064    6.3754    3.6425 H   0  0  0  0  0  0  0  0  0  0  0  0
    5.5660    6.2188    3.7001 H   0  0  0  0  0  0  0  0  0  0  0  0
    6.6995    4.2006    2.8139 H   0  0  0  0  0  0  0  0  0  0  0  0
    5.4023    2.3602    1.8855 H   0  0  0  0  0  0  0  0  0  0  0  0
    1.6846   -2.5623   -0.0466 H   0  0  0  0  0  0  0  0  0  0  0  0
    2.9555   -2.9690   -1.1585 H   0  0  0  0  0  0  0  0  0  0  0  0
    2.4550   -3.1694   -3.4162 H   0  0  0  0  0  0  0  0  0  0  0  0
    0.7520   -3.0549   -5.2072 H   0  0  0  0  0  0  0  0  0  0  0  0
   -1.6723   -0.4918   -2.7865 H   0  0  0  0  0  0  0  0  0  0  0  0
   -0.0038   -0.5840   -0.9704 H   0  0  0  0  0  0  0  0  0  0  0  0
    5.0389   -0.2698   -0.0363 H   0  0  0  0  0  0  0  0  0  0  0  0
    4.8600   -0.3551   -2.4322 H   0  0  0  0  0  0  0  0  0  0  0  0
    4.5897   -2.0893   -2.4272 H   0  0  0  0  0  0  0  0  0  0  0  0
    7.1340   -0.6448   -1.5687 H   0  0  0  0  0  0  0  0  0  0  0  0
    6.9134   -1.6781   -2.9784 H   0  0  0  0  0  0  0  0  0  0  0  0
    8.0751   -2.8951   -1.1533 H   0  0  0  0  0  0  0  0  0  0  0  0
    6.5231   -3.6438   -1.5246 H   0  0  0  0  0  0  0  0  0  0  0  0
    7.1030   -1.7289    0.7941 H   0  0  0  0  0  0  0  0  0  0  0  0
    6.8269   -3.4647    0.9191 H   0  0  0  0  0  0  0  0  0  0  0  0
    4.7958   -2.1165    1.4989 H   0  0  0  0  0  0  0  0  0  0  0  0
    4.5465   -3.2611    0.1971 H   0  0  0  0  0  0  0  0  0  0  0  0
  1  2  2  0  0  0  0
  2  3  1  0  0  0  0
  2 14  1  0  0  0  0
  3  4  1  0  0  0  0
  3 29  1  0  0  0  0
  3 30  1  0  0  0  0
  4  5  1  0  0  0  0
  4 13  2  0  0  0  0
  5  6  2  0  0  0  0
  5 31  1  0  0  0  0
  6  7  1  0  0  0  0
  7  8  2  0  0  0  0
  7 32  1  0  0  0  0
  8  9  1  0  0  0  0
  8 13  1  0  0  0  0
  9 10  2  0  0  0  0
  9 33  1  0  0  0  0
 10 11  1  0  0  0  0
 10 34  1  0  0  0  0
 11 12  2  0  0  0  0
 11 35  1  0  0  0  0
 12 13  1  0  0  0  0
 12 36  1  0  0  0  0
 14 15  1  0  0  0  0
 14 23  1  0  0  0  0
 15 16  1  0  0  0  0
 15 37  1  0  0  0  0
 15 38  1  0  0  0  0
 16 17  1  0  0  0  0
 16 22  2  0  0  0  0
 17 18  2  0  0  0  0
 17 39  1  0  0  0  0
 18 19  1  0  0  0  0
 18 40  1  0  0  0  0
 19 20  1  0  0  0  0
 19 21  2  0  0  0  0
 21 22  1  0  0  0  0
 21 41  1  0  0  0  0
 22 42  1  0  0  0  0
 23 24  1  0  0  0  0
 23 28  1  0  0  0  0
 23 43  1  0  0  0  0
 24 25  1  0  0  0  0
 24 44  1  0  0  0  0
 24 45  1  0  0  0  0
 25 26  1  0  0  0  0
 25 46  1  0  0  0  0
 25 47  1  0  0  0  0
 26 27  1  0  0  0  0
 26 48  1  0  0  0  0
 26 49  1  0  0  0  0
 27 28  1  0  0  0  0
 27 50  1  0  0  0  0
 27 51  1  0  0  0  0
 28 52  1  0  0  0  0
 28 53  1  0  0  0  0
M  END
$$$$
