
 OpenBabel07202414143D

 52 55  0  0  1  0  0  0  0  0999 V2000
    6.5563    3.0297   -0.6020 C   0  0  0  0  0  0  0  0  0  0  0  0
    6.0469    1.8644   -1.2725 N   0  0  0  0  0  0  0  0  0  0  0  0
    5.5078    0.8172   -0.5638 C   0  0  0  0  0  0  0  0  0  0  0  0
    5.4504    0.8088    0.6663 O   0  0  0  0  0  0  0  0  0  0  0  0
    4.8285   -0.2761   -1.3985 C   0  0  0  0  0  0  0  0  0  0  0  0
    5.3739   -0.5627   -2.7383 N   0  0  0  0  0  0  0  0  0  0  0  0
    5.8716   -1.9073   -3.0262 C   0  0  0  0  0  0  0  0  0  0  0  0
    4.9348   -2.7500   -3.9121 C   0  0  3  0  0  0  0  0  0  0  0  0
    3.7613   -3.2165   -3.0721 C   0  0  0  0  0  0  0  0  0  0  0  0
    3.0809   -2.3837   -2.4564 O   0  0  0  0  0  0  0  0  0  0  0  0
    3.2986   -4.4733   -2.9333 N   0  0  0  0  0  0  0  0  0  0  0  0
    3.5423   -5.8018   -3.3145 C   0  0  0  0  0  0  0  0  0  0  0  0
    4.6671   -6.1982   -4.0283 C   0  0  0  0  0  0  0  0  0  0  0  0
    4.9694   -7.4745   -4.3428 N   0  0  0  0  0  0  0  0  0  0  0  0
    4.1233   -8.4211   -3.8912 C   0  0  0  0  0  0  0  0  0  0  0  0
    2.9738   -8.1711   -3.1500 C   0  0  0  0  0  0  0  0  0  0  0  0
    2.2123   -9.2676   -2.7007 C   0  0  0  0  0  0  0  0  0  0  0  0
    1.0768   -9.0847   -1.9289 C   0  0  0  0  0  0  0  0  0  0  0  0
    0.6427   -7.7995   -1.6651 C   0  0  0  0  0  0  0  0  0  0  0  0
    1.3384   -6.6757   -2.1608 C   0  0  0  0  0  0  0  0  0  0  0  0
    0.6182   -5.3632   -1.9398 C   0  0  0  0  0  0  0  0  0  0  0  0
    2.6044   -6.8251   -2.8650 C   0  0  0  0  0  0  0  0  0  0  0  0
    4.4553   -1.9107   -5.0835 C   0  0  0  0  0  0  0  0  0  0  0  0
    3.9052   -2.5370   -6.2145 C   0  0  0  0  0  0  0  0  0  0  0  0
    3.3528   -1.7706   -7.2428 C   0  0  0  0  0  0  0  0  0  0  0  0
    2.6234   -2.5543   -8.5891 Cl  0  0  0  0  0  0  0  0  0  0  0  0
    3.3559   -0.3796   -7.1743 C   0  0  0  0  0  0  0  0  0  0  0  0
    3.9163    0.2554   -6.0656 C   0  0  0  0  0  0  0  0  0  0  0  0
    4.4603   -0.5013   -5.0180 C   0  0  0  0  0  0  0  0  0  0  0  0
    4.8884    0.2166   -3.7811 C   0  0  0  0  0  0  0  0  0  0  0  0
    4.7312    1.4295   -3.6719 O   0  0  0  0  0  0  0  0  0  0  0  0
    6.8895    3.7496   -1.3523 H   0  0  0  0  0  0  0  0  0  0  0  0
    7.3955    2.7356    0.0342 H   0  0  0  0  0  0  0  0  0  0  0  0
    5.7714    3.4718    0.0187 H   0  0  0  0  0  0  0  0  0  0  0  0
    5.7553    1.9439   -2.2483 H   0  0  0  0  0  0  0  0  0  0  0  0
    3.7767    0.0181   -1.5106 H   0  0  0  0  0  0  0  0  0  0  0  0
    4.8593   -1.1953   -0.8033 H   0  0  0  0  0  0  0  0  0  0  0  0
    6.1256   -2.4207   -2.0920 H   0  0  0  0  0  0  0  0  0  0  0  0
    6.8151   -1.7545   -3.5682 H   0  0  0  0  0  0  0  0  0  0  0  0
    5.5178   -3.5838   -4.2905 H   0  0  0  0  0  0  0  0  0  0  0  0
    2.5273   -4.3720   -2.2989 H   0  0  0  0  0  0  0  0  0  0  0  0
    5.4285   -5.5149   -4.3719 H   0  0  0  0  0  0  0  0  0  0  0  0
    4.4153   -9.4381   -4.1492 H   0  0  0  0  0  0  0  0  0  0  0  0
    2.5134  -10.2872   -2.9369 H   0  0  0  0  0  0  0  0  0  0  0  0
    0.5162   -9.9374   -1.5559 H   0  0  0  0  0  0  0  0  0  0  0  0
   -0.2704   -7.6696   -1.0852 H   0  0  0  0  0  0  0  0  0  0  0  0
   -0.4108   -5.5191   -1.5958 H   0  0  0  0  0  0  0  0  0  0  0  0
    0.5363   -4.8130   -2.8836 H   0  0  0  0  0  0  0  0  0  0  0  0
    1.1049   -4.7642   -1.1649 H   0  0  0  0  0  0  0  0  0  0  0  0
    3.8692   -3.6225   -6.2809 H   0  0  0  0  0  0  0  0  0  0  0  0
    2.8991    0.2164   -7.9606 H   0  0  0  0  0  0  0  0  0  0  0  0
    3.8834    1.3422   -5.9989 H   0  0  0  0  0  0  0  0  0  0  0  0
  1  2  1  0  0  0  0
  1 32  1  0  0  0  0
  1 33  1  0  0  0  0
  1 34  1  0  0  0  0
  2  3  1  0  0  0  0
  2 35  1  0  0  0  0
  3  4  2  0  0  0  0
  3  5  1  0  0  0  0
  5  6  1  0  0  0  0
  5 36  1  0  0  0  0
  5 37  1  0  0  0  0
  6  7  1  0  0  0  0
  6 30  1  0  0  0  0
  7  8  1  0  0  0  0
  7 38  1  0  0  0  0
  7 39  1  0  0  0  0
  8  9  1  0  0  0  0
  8 23  1  0  0  0  0
  8 40  1  0  0  0  0
  9 10  2  0  0  0  0
  9 11  1  0  0  0  0
 11 12  1  0  0  0  0
 11 41  1  0  0  0  0
 12 13  1  0  0  0  0
 12 22  2  0  0  0  0
 13 14  2  0  0  0  0
 13 42  1  0  0  0  0
 14 15  1  0  0  0  0
 15 16  2  0  0  0  0
 15 43  1  0  0  0  0
 16 17  1  0  0  0  0
 16 22  1  0  0  0  0
 17 18  2  0  0  0  0
 17 44  1  0  0  0  0
 18 19  1  0  0  0  0
 18 45  1  0  0  0  0
 19 20  2  0  0  0  0
 19 46  1  0  0  0  0
 20 21  1  0  0  0  0
 20 22  1  0  0  0  0
 21 47  1  0  0  0  0
 21 48  1  0  0  0  0
 21 49  1  0  0  0  0
 23 24  1  0  0  0  0
 23 29  2  0  0  0  0
 24 25  2  0  0  0  0
 24 50  1  0  0  0  0
 25 26  1  0  0  0  0
 25 27  1  0  0  0  0
 27 28  2  0  0  0  0
 27 51  1  0  0  0  0
 28 29  1  0  0  0  0
 28 52  1  0  0  0  0
 29 30  1  0  0  0  0
 30 31  2  0  0  0  0
M  END
$$$$
