
 OpenBabel07202414153D

 52 55  0  0  1  0  0  0  0  0999 V2000
    4.3952    1.2202    1.1723 C   0  0  0  0  0  0  0  0  0  0  0  0
    5.1166    1.1529   -0.0543 O   0  0  0  0  0  0  0  0  0  0  0  0
    5.5960   -0.1610   -0.3752 C   0  0  2  0  0  0  0  0  0  0  0  0
    6.4945   -0.0417   -1.6005 C   0  0  0  0  0  0  0  0  0  0  0  0
    4.4414   -1.1331   -0.6548 C   0  0  0  0  0  0  0  0  0  0  0  0
    4.8281   -2.5284   -0.8780 N   0  0  0  0  0  0  0  0  0  0  0  0
    5.6319   -3.2285    0.1229 C   0  0  0  0  0  0  0  0  0  0  0  0
    5.0203   -4.5674    0.5106 C   0  0  1  0  0  0  0  0  0  0  0  0
    3.8620   -4.3564    1.4973 C   0  0  0  0  0  0  0  0  0  0  0  0
    3.9286   -4.8310    2.6226 O   0  0  0  0  0  0  0  0  0  0  0  0
    2.8128   -3.6043    0.9981 N   0  0  0  0  0  0  0  0  0  0  0  0
    1.5810   -3.3194    1.6360 C   0  0  0  0  0  0  0  0  0  0  0  0
    1.3911   -3.5044    3.0050 C   0  0  0  0  0  0  0  0  0  0  0  0
    0.1879   -3.4662    3.6163 N   0  0  0  0  0  0  0  0  0  0  0  0
   -0.8686   -3.1539    2.8392 C   0  0  0  0  0  0  0  0  0  0  0  0
   -0.7801   -2.7534    1.5080 C   0  0  0  0  0  0  0  0  0  0  0  0
   -1.9042   -2.2684    0.8191 C   0  0  0  0  0  0  0  0  0  0  0  0
   -1.8008   -1.8536   -0.5068 C   0  0  0  0  0  0  0  0  0  0  0  0
   -0.5950   -1.9710   -1.1716 C   0  0  0  0  0  0  0  0  0  0  0  0
    0.5298   -2.4649   -0.4960 C   0  0  0  0  0  0  0  0  0  0  0  0
    0.4801   -2.8478    0.8716 C   0  0  0  0  0  0  0  0  0  0  0  0
    4.6400   -5.3427   -0.7362 C   0  0  0  0  0  0  0  0  0  0  0  0
    4.5201   -6.7406   -0.6871 C   0  0  0  0  0  0  0  0  0  0  0  0
    4.1502   -7.4533   -1.8295 C   0  0  0  0  0  0  0  0  0  0  0  0
    4.0073   -9.1655   -1.7563 Cl  0  0  0  0  0  0  0  0  0  0  0  0
    3.8924   -6.7902   -3.0278 C   0  0  0  0  0  0  0  0  0  0  0  0
    4.0215   -5.4020   -3.0940 C   0  0  0  0  0  0  0  0  0  0  0  0
    4.4033   -4.6773   -1.9578 C   0  0  0  0  0  0  0  0  0  0  0  0
    4.4342   -3.1849   -2.0369 C   0  0  0  0  0  0  0  0  0  0  0  0
    4.0119   -2.6111   -3.0325 O   0  0  0  0  0  0  0  0  0  0  0  0
    4.3486    2.2660    1.4870 H   0  0  0  0  0  0  0  0  0  0  0  0
    4.8867    0.6401    1.9599 H   0  0  0  0  0  0  0  0  0  0  0  0
    3.3697    0.8672    1.0291 H   0  0  0  0  0  0  0  0  0  0  0  0
    6.2101   -0.5082    0.4629 H   0  0  0  0  0  0  0  0  0  0  0  0
    5.9204    0.2785   -2.4769 H   0  0  0  0  0  0  0  0  0  0  0  0
    6.9801   -0.9947   -1.8321 H   0  0  0  0  0  0  0  0  0  0  0  0
    7.2719    0.7131   -1.4344 H   0  0  0  0  0  0  0  0  0  0  0  0
    3.8361   -0.7650   -1.4922 H   0  0  0  0  0  0  0  0  0  0  0  0
    3.7559   -1.1520    0.2000 H   0  0  0  0  0  0  0  0  0  0  0  0
    5.7791   -2.5976    1.0041 H   0  0  0  0  0  0  0  0  0  0  0  0
    6.6131   -3.3978   -0.3412 H   0  0  0  0  0  0  0  0  0  0  0  0
    5.7875   -5.1347    1.0517 H   0  0  0  0  0  0  0  0  0  0  0  0
    2.8606   -3.3857    0.0140 H   0  0  0  0  0  0  0  0  0  0  0  0
    2.2185   -3.6825    3.6855 H   0  0  0  0  0  0  0  0  0  0  0  0
   -1.8309   -3.2377    3.3383 H   0  0  0  0  0  0  0  0  0  0  0  0
   -2.8567   -2.1488    1.3335 H   0  0  0  0  0  0  0  0  0  0  0  0
   -2.6648   -1.4266   -1.0165 H   0  0  0  0  0  0  0  0  0  0  0  0
   -0.5049   -1.6633   -2.2120 H   0  0  0  0  0  0  0  0  0  0  0  0
    1.4525   -2.5107   -1.0656 H   0  0  0  0  0  0  0  0  0  0  0  0
    4.7132   -7.2761    0.2411 H   0  0  0  0  0  0  0  0  0  0  0  0
    3.5835   -7.3445   -3.9109 H   0  0  0  0  0  0  0  0  0  0  0  0
    3.8057   -4.8872   -4.0291 H   0  0  0  0  0  0  0  0  0  0  0  0
  1  2  1  0  0  0  0
  1 31  1  0  0  0  0
  1 32  1  0  0  0  0
  1 33  1  0  0  0  0
  3  5  1  0  0  0  0
  3  4  1  0  0  0  0
  3  2  1  0  0  0  0
  3 34  1  1  0  0  0
  4 35  1  0  0  0  0
  4 36  1  0  0  0  0
  4 37  1  0  0  0  0
  5  6  1  0  0  0  0
  5 38  1  0  0  0  0
  5 39  1  0  0  0  0
  6  7  1  0  0  0  0
  6 29  1  0  0  0  0
  7  8  1  0  0  0  0
  7 40  1  0  0  0  0
  7 41  1  0  0  0  0
  8  9  1  0  0  0  0
  8 22  1  0  0  0  0
  8 42  1  1  0  0  0
  9 10  2  0  0  0  0
  9 11  1  0  0  0  0
 11 12  1  0  0  0  0
 11 43  1  0  0  0  0
 12 13  1  0  0  0  0
 12 21  2  0  0  0  0
 13 14  2  0  0  0  0
 13 44  1  0  0  0  0
 14 15  1  0  0  0  0
 15 16  2  0  0  0  0
 15 45  1  0  0  0  0
 16 17  1  0  0  0  0
 16 21  1  0  0  0  0
 17 18  2  0  0  0  0
 17 46  1  0  0  0  0
 18 19  1  0  0  0  0
 18 47  1  0  0  0  0
 19 20  2  0  0  0  0
 19 48  1  0  0  0  0
 20 21  1  0  0  0  0
 20 49  1  0  0  0  0
 22 23  1  0  0  0  0
 22 28  2  0  0  0  0
 23 24  2  0  0  0  0
 23 50  1  0  0  0  0
 24 25  1  0  0  0  0
 24 26  1  0  0  0  0
 26 27  2  0  0  0  0
 26 51  1  0  0  0  0
 27 28  1  0  0  0  0
 27 52  1  0  0  0  0
 28 29  1  0  0  0  0
 29 30  2  0  0  0  0
M  END
$$$$
