
 OpenBabel07202414163D

 37 39  0  0  0  0  0  0  0  0999 V2000
   -0.5501   -4.6587    1.4412 C   0  0  0  0  0  0  0  0  0  0  0  0
   -0.5479   -4.4795   -0.0529 C   0  0  0  0  0  0  0  0  0  0  0  0
   -1.4194   -5.2820   -0.8130 C   0  0  0  0  0  0  0  0  0  0  0  0
   -1.5031   -5.1422   -2.1971 C   0  0  0  0  0  0  0  0  0  0  0  0
   -0.7148   -4.1992   -2.8437 C   0  0  0  0  0  0  0  0  0  0  0  0
    0.1462   -3.3847   -2.1035 C   0  0  0  0  0  0  0  0  0  0  0  0
    0.2413   -3.5054   -0.7046 C   0  0  0  0  0  0  0  0  0  0  0  0
    1.1126   -2.5139    0.0464 C   0  0  0  0  0  0  0  0  0  0  0  0
    2.5610   -2.4660   -0.4118 C   0  0  0  0  0  0  0  0  0  0  0  0
    2.9838   -1.5560   -1.1200 O   0  0  0  0  0  0  0  0  0  0  0  0
    3.3129   -3.5392    0.0318 N   0  0  0  0  0  0  0  0  0  0  0  0
    4.6845   -3.7117   -0.2786 C   0  0  0  0  0  0  0  0  0  0  0  0
    5.5776   -2.6371   -0.2671 C   0  0  0  0  0  0  0  0  0  0  0  0
    6.9044   -2.7413   -0.5105 N   0  0  0  0  0  0  0  0  0  0  0  0
    7.3617   -3.9770   -0.8167 C   0  0  0  0  0  0  0  0  0  0  0  0
    6.5692   -5.1220   -0.8863 C   0  0  0  0  0  0  0  0  0  0  0  0
    7.1054   -6.3704   -1.2516 C   0  0  0  0  0  0  0  0  0  0  0  0
    6.2888   -7.4947   -1.3511 C   0  0  0  0  0  0  0  0  0  0  0  0
    4.9319   -7.3908   -1.0763 C   0  0  0  0  0  0  0  0  0  0  0  0
    4.3886   -6.1614   -0.6999 C   0  0  0  0  0  0  0  0  0  0  0  0
    5.1869   -4.9993   -0.5918 C   0  0  0  0  0  0  0  0  0  0  0  0
   -1.0555   -5.5874    1.7298 H   0  0  0  0  0  0  0  0  0  0  0  0
   -1.0739   -3.8254    1.9190 H   0  0  0  0  0  0  0  0  0  0  0  0
    0.4714   -4.7267    1.8267 H   0  0  0  0  0  0  0  0  0  0  0  0
   -2.0600   -6.0146   -0.3244 H   0  0  0  0  0  0  0  0  0  0  0  0
   -2.1927   -5.7611   -2.7663 H   0  0  0  0  0  0  0  0  0  0  0  0
   -0.7854   -4.0782   -3.9214 H   0  0  0  0  0  0  0  0  0  0  0  0
    0.7281   -2.6315   -2.6326 H   0  0  0  0  0  0  0  0  0  0  0  0
    1.1157   -2.7007    1.1242 H   0  0  0  0  0  0  0  0  0  0  0  0
    0.6856   -1.5121   -0.0809 H   0  0  0  0  0  0  0  0  0  0  0  0
    2.7895   -4.3603    0.3022 H   0  0  0  0  0  0  0  0  0  0  0  0
    5.2524   -1.6312   -0.0137 H   0  0  0  0  0  0  0  0  0  0  0  0
    8.4268   -4.0153   -1.0277 H   0  0  0  0  0  0  0  0  0  0  0  0
    8.1629   -6.4641   -1.4874 H   0  0  0  0  0  0  0  0  0  0  0  0
    6.7101   -8.4478   -1.6590 H   0  0  0  0  0  0  0  0  0  0  0  0
    4.2860   -8.2598   -1.1733 H   0  0  0  0  0  0  0  0  0  0  0  0
    3.3162   -6.1256   -0.5335 H   0  0  0  0  0  0  0  0  0  0  0  0
  1  2  1  0  0  0  0
  1 22  1  0  0  0  0
  1 23  1  0  0  0  0
  1 24  1  0  0  0  0
  2  3  1  0  0  0  0
  2  7  2  0  0  0  0
  3  4  2  0  0  0  0
  3 25  1  0  0  0  0
  4  5  1  0  0  0  0
  4 26  1  0  0  0  0
  5  6  2  0  0  0  0
  5 27  1  0  0  0  0
  6  7  1  0  0  0  0
  6 28  1  0  0  0  0
  7  8  1  0  0  0  0
  8  9  1  0  0  0  0
  8 29  1  0  0  0  0
  8 30  1  0  0  0  0
  9 10  2  0  0  0  0
  9 11  1  0  0  0  0
 11 12  1  0  0  0  0
 11 31  1  0  0  0  0
 12 13  1  0  0  0  0
 12 21  2  0  0  0  0
 13 14  2  0  0  0  0
 13 32  1  0  0  0  0
 14 15  1  0  0  0  0
 15 16  2  0  0  0  0
 15 33  1  0  0  0  0
 16 17  1  0  0  0  0
 16 21  1  0  0  0  0
 17 18  2  0  0  0  0
 17 34  1  0  0  0  0
 18 19  1  0  0  0  0
 18 35  1  0  0  0  0
 19 20  2  0  0  0  0
 19 36  1  0  0  0  0
 20 21  1  0  0  0  0
 20 37  1  0  0  0  0
M  END
$$$$
