
 OpenBabel07202414203D

 39 42  0  0  1  0  0  0  0  0999 V2000
   -3.5016    0.4060   -4.8776 C   0  0  0  0  0  0  0  0  0  0  0  0
   -2.2237    0.6077   -4.3629 C   0  0  0  0  0  0  0  0  0  0  0  0
   -1.9371    1.7651   -3.6304 C   0  0  0  0  0  0  0  0  0  0  0  0
   -2.9209    2.7578   -3.3821 C   0  0  0  0  0  0  0  0  0  0  0  0
   -4.1946    2.5500   -3.9661 C   0  0  0  0  0  0  0  0  0  0  0  0
   -4.4768    1.3796   -4.6917 C   0  0  0  0  0  0  0  0  0  0  0  0
   -5.1756    3.5245   -3.7888 C   0  0  0  0  0  0  0  0  0  0  0  0
   -5.0076    4.6608   -3.0868 N   0  0  0  0  0  0  0  0  0  0  0  0
   -3.8091    4.8175   -2.4821 C   0  0  0  0  0  0  0  0  0  0  0  0
   -2.7463    3.9113   -2.5656 C   0  0  0  0  0  0  0  0  0  0  0  0
   -1.5329    4.1341   -1.8581 N   0  0  0  0  0  0  0  0  0  0  0  0
   -1.4349    4.8814   -0.6887 C   0  0  0  0  0  0  0  0  0  0  0  0
   -2.3976    5.2982   -0.0516 O   0  0  0  0  0  0  0  0  0  0  0  0
    0.0160    5.1977   -0.2738 C   0  0  2  0  0  0  0  0  0  0  0  0
    0.1642    5.3391    1.2407 C   0  0  0  0  0  0  0  0  0  0  0  0
   -0.3933    6.6646    1.7452 C   0  0  0  0  0  0  0  0  0  0  0  0
    0.1324    7.8105    1.0836 O   0  0  0  0  0  0  0  0  0  0  0  0
    0.3587    7.6973   -0.2570 C   0  0  0  0  0  0  0  0  0  0  0  0
    0.4341    6.4824   -0.9435 C   0  0  0  0  0  0  0  0  0  0  0  0
    0.7850    6.4812   -2.3046 C   0  0  0  0  0  0  0  0  0  0  0  0
    0.9680    7.6878   -2.9836 C   0  0  0  0  0  0  0  0  0  0  0  0
    0.8321    8.8958   -2.3097 C   0  0  0  0  0  0  0  0  0  0  0  0
    0.5528    8.8994   -0.9416 C   0  0  0  0  0  0  0  0  0  0  0  0
    1.3318    7.6663   -4.6612 Cl  0  0  0  0  0  0  0  0  0  0  0  0
   -3.7369   -0.5042   -5.4231 H   0  0  0  0  0  0  0  0  0  0  0  0
   -1.4567   -0.1422   -4.5257 H   0  0  0  0  0  0  0  0  0  0  0  0
   -0.9250    1.8673   -3.2521 H   0  0  0  0  0  0  0  0  0  0  0  0
   -5.4701    1.2136   -5.1050 H   0  0  0  0  0  0  0  0  0  0  0  0
   -6.1654    3.4144   -4.2250 H   0  0  0  0  0  0  0  0  0  0  0  0
   -3.7248    5.7504   -1.9314 H   0  0  0  0  0  0  0  0  0  0  0  0
   -0.7362    3.5700   -2.1125 H   0  0  0  0  0  0  0  0  0  0  0  0
    0.6663    4.3739   -0.6000 H   0  0  0  0  0  0  0  0  0  0  0  0
    1.2377    5.3089    1.4840 H   0  0  0  0  0  0  0  0  0  0  0  0
   -0.3109    4.5053    1.7649 H   0  0  0  0  0  0  0  0  0  0  0  0
   -0.1387    6.7685    2.8060 H   0  0  0  0  0  0  0  0  0  0  0  0
   -1.4873    6.7030    1.6932 H   0  0  0  0  0  0  0  0  0  0  0  0
    0.8787    5.5457   -2.8478 H   0  0  0  0  0  0  0  0  0  0  0  0
    0.9373    9.8382   -2.8403 H   0  0  0  0  0  0  0  0  0  0  0  0
    0.4577    9.8424   -0.4097 H   0  0  0  0  0  0  0  0  0  0  0  0
  1  2  1  0  0  0  0
  1  6  2  0  0  0  0
  1 25  1  0  0  0  0
  2  3  2  0  0  0  0
  2 26  1  0  0  0  0
  3  4  1  0  0  0  0
  3 27  1  0  0  0  0
  4  5  1  0  0  0  0
  4 10  2  0  0  0  0
  5  6  1  0  0  0  0
  5  7  2  0  0  0  0
  6 28  1  0  0  0  0
  7  8  1  0  0  0  0
  7 29  1  0  0  0  0
  8  9  2  0  0  0  0
  9 10  1  0  0  0  0
  9 30  1  0  0  0  0
 10 11  1  0  0  0  0
 11 12  1  0  0  0  0
 11 31  1  0  0  0  0
 12 13  2  0  0  0  0
 14 15  1  0  0  0  0
 14 19  1  0  0  0  0
 14 12  1  0  0  0  0
 14 32  1  6  0  0  0
 15 16  1  0  0  0  0
 15 33  1  0  0  0  0
 15 34  1  0  0  0  0
 16 17  1  0  0  0  0
 16 35  1  0  0  0  0
 16 36  1  0  0  0  0
 17 18  1  0  0  0  0
 18 19  1  0  0  0  0
 18 23  2  0  0  0  0
 19 20  2  0  0  0  0
 20 21  1  0  0  0  0
 20 37  1  0  0  0  0
 21 22  2  0  0  0  0
 21 24  1  0  0  0  0
 22 23  1  0  0  0  0
 22 38  1  0  0  0  0
 23 39  1  0  0  0  0
M  END
$$$$
