
 OpenBabel07202414173D

 34 36  0  0  0  0  0  0  0  0999 V2000
   -0.0090    2.9189   -5.4442 Cl  0  0  0  0  0  0  0  0  0  0  0  0
   -0.4091    3.7448   -3.9899 C   0  0  0  0  0  0  0  0  0  0  0  0
   -0.2915    5.1301   -3.9285 C   0  0  0  0  0  0  0  0  0  0  0  0
   -0.6363    5.8002   -2.7542 C   0  0  0  0  0  0  0  0  0  0  0  0
   -1.0817    5.0833   -1.6384 C   0  0  0  0  0  0  0  0  0  0  0  0
   -1.5417    5.9859   -0.2397 Cl  0  0  0  0  0  0  0  0  0  0  0  0
   -1.1621    3.6823   -1.6737 C   0  0  0  0  0  0  0  0  0  0  0  0
   -1.5716    2.8540   -0.4800 C   0  0  0  0  0  0  0  0  0  0  0  0
   -3.0271    2.4395   -0.5063 C   0  0  0  0  0  0  0  0  0  0  0  0
   -3.3678    1.3783   -1.0224 O   0  0  0  0  0  0  0  0  0  0  0  0
   -3.8851    3.3657    0.0719 N   0  0  0  0  0  0  0  0  0  0  0  0
   -5.2800    3.1216    0.1736 C   0  0  0  0  0  0  0  0  0  0  0  0
   -6.1532    4.0949   -0.3101 C   0  0  0  0  0  0  0  0  0  0  0  0
   -7.4949    3.9579   -0.3704 N   0  0  0  0  0  0  0  0  0  0  0  0
   -7.9938    2.7882    0.0890 C   0  0  0  0  0  0  0  0  0  0  0  0
   -7.2351    1.7648    0.6632 C   0  0  0  0  0  0  0  0  0  0  0  0
   -7.8352    0.5983    1.1699 C   0  0  0  0  0  0  0  0  0  0  0  0
   -7.0691   -0.3835    1.7969 C   0  0  0  0  0  0  0  0  0  0  0  0
   -5.6993   -0.2027    1.9353 C   0  0  0  0  0  0  0  0  0  0  0  0
   -5.0930    0.9447    1.4181 C   0  0  0  0  0  0  0  0  0  0  0  0
   -5.8341    1.9424    0.7380 C   0  0  0  0  0  0  0  0  0  0  0  0
   -0.8427    3.0232   -2.8767 C   0  0  0  0  0  0  0  0  0  0  0  0
    0.0602    5.6928   -4.7896 H   0  0  0  0  0  0  0  0  0  0  0  0
   -0.5529    6.8841   -2.7157 H   0  0  0  0  0  0  0  0  0  0  0  0
   -1.3462    3.3546    0.4671 H   0  0  0  0  0  0  0  0  0  0  0  0
   -0.9691    1.9357   -0.4535 H   0  0  0  0  0  0  0  0  0  0  0  0
   -3.5994    4.3331   -0.0403 H   0  0  0  0  0  0  0  0  0  0  0  0
   -5.7852    5.0290   -0.7251 H   0  0  0  0  0  0  0  0  0  0  0  0
   -9.0737    2.6974   -0.0035 H   0  0  0  0  0  0  0  0  0  0  0  0
   -8.9103    0.4501    1.0865 H   0  0  0  0  0  0  0  0  0  0  0  0
   -7.5413   -1.2818    2.1848 H   0  0  0  0  0  0  0  0  0  0  0  0
   -5.0960   -0.9526    2.4401 H   0  0  0  0  0  0  0  0  0  0  0  0
   -4.0211    1.0560    1.5586 H   0  0  0  0  0  0  0  0  0  0  0  0
   -0.9299    1.9390   -2.9433 H   0  0  0  0  0  0  0  0  0  0  0  0
  1  2  1  0  0  0  0
  2  3  1  0  0  0  0
  2 22  2  0  0  0  0
  3  4  2  0  0  0  0
  3 23  1  0  0  0  0
  4  5  1  0  0  0  0
  4 24  1  0  0  0  0
  5  6  1  0  0  0  0
  5  7  2  0  0  0  0
  7  8  1  0  0  0  0
  7 22  1  0  0  0  0
  8  9  1  0  0  0  0
  8 25  1  0  0  0  0
  8 26  1  0  0  0  0
  9 10  2  0  0  0  0
  9 11  1  0  0  0  0
 11 12  1  0  0  0  0
 11 27  1  0  0  0  0
 12 13  1  0  0  0  0
 12 21  2  0  0  0  0
 13 14  2  0  0  0  0
 13 28  1  0  0  0  0
 14 15  1  0  0  0  0
 15 16  2  0  0  0  0
 15 29  1  0  0  0  0
 16 17  1  0  0  0  0
 16 21  1  0  0  0  0
 17 18  2  0  0  0  0
 17 30  1  0  0  0  0
 18 19  1  0  0  0  0
 18 31  1  0  0  0  0
 19 20  2  0  0  0  0
 19 32  1  0  0  0  0
 20 21  1  0  0  0  0
 20 33  1  0  0  0  0
 22 34  1  0  0  0  0
M  END
$$$$
