
 OpenBabel07202414173D

 42 44  0  0  0  0  0  0  0  0999 V2000
    0.9652   -0.7209   -7.5893 Cl  0  0  0  0  0  0  0  0  0  0  0  0
    0.2513    0.3152   -6.3400 C   0  0  0  0  0  0  0  0  0  0  0  0
    1.1581    1.4918   -6.0473 C   0  0  0  0  0  0  0  0  0  0  0  0
    0.7154    2.6354   -6.1325 O   0  0  0  0  0  0  0  0  0  0  0  0
    2.4337    1.1330   -5.6507 N   0  0  0  0  0  0  0  0  0  0  0  0
    3.4221    2.0083   -5.2791 C   0  0  0  0  0  0  0  0  0  0  0  0
    4.6854    1.6711   -5.2560 N   0  0  0  0  0  0  0  0  0  0  0  0
    5.4828    2.7898   -5.0111 C   0  0  0  0  0  0  0  0  0  0  0  0
    6.8905    2.8992   -5.0716 C   0  0  0  0  0  0  0  0  0  0  0  0
    7.9416    1.5155   -5.4173 S   0  0  0  0  0  0  0  0  0  0  0  0
    9.0351    1.5793   -4.4702 O   0  0  0  0  0  0  0  0  0  0  0  0
    7.1793    0.3030   -5.6006 O   0  0  0  0  0  0  0  0  0  0  0  0
    8.6320    1.9154   -6.9128 N   0  0  0  0  0  0  0  0  0  0  0  0
    7.9388    1.5013   -8.1544 C   0  0  0  0  0  0  0  0  0  0  0  0
    6.5896    2.1908   -8.3108 C   0  0  0  0  0  0  0  0  0  0  0  0
    5.8122    1.7400   -9.5143 C   0  0  0  0  0  0  0  0  0  0  0  0
    4.9858    0.6098   -9.4244 C   0  0  0  0  0  0  0  0  0  0  0  0
    4.2062    0.2205  -10.5106 C   0  0  0  0  0  0  0  0  0  0  0  0
    4.2538    0.9523  -11.6953 C   0  0  0  0  0  0  0  0  0  0  0  0
    5.0871    2.0662  -11.7977 C   0  0  0  0  0  0  0  0  0  0  0  0
    5.8678    2.4589  -10.7117 C   0  0  0  0  0  0  0  0  0  0  0  0
    7.5063    4.1516   -4.8710 C   0  0  0  0  0  0  0  0  0  0  0  0
    6.7463    5.2822   -4.5924 C   0  0  0  0  0  0  0  0  0  0  0  0
    5.3600    5.1958   -4.5019 C   0  0  0  0  0  0  0  0  0  0  0  0
    4.7534    3.9524   -4.7342 C   0  0  0  0  0  0  0  0  0  0  0  0
    3.0754    3.5879   -4.7530 S   0  0  0  0  0  0  0  0  0  0  0  0
    0.0921   -0.2675   -5.4288 H   0  0  0  0  0  0  0  0  0  0  0  0
   -0.7131    0.6827   -6.7060 H   0  0  0  0  0  0  0  0  0  0  0  0
    2.7719    0.2044   -5.8769 H   0  0  0  0  0  0  0  0  0  0  0  0
    9.6368    1.7332   -6.8868 H   0  0  0  0  0  0  0  0  0  0  0  0
    7.8560    0.4090   -8.1834 H   0  0  0  0  0  0  0  0  0  0  0  0
    8.5862    1.7766   -8.9974 H   0  0  0  0  0  0  0  0  0  0  0  0
    6.7186    3.2804   -8.3264 H   0  0  0  0  0  0  0  0  0  0  0  0
    5.9571    1.9820   -7.4510 H   0  0  0  0  0  0  0  0  0  0  0  0
    4.9310    0.0413   -8.4966 H   0  0  0  0  0  0  0  0  0  0  0  0
    3.5537   -0.6448  -10.4275 H   0  0  0  0  0  0  0  0  0  0  0  0
    3.6356    0.6576  -12.5386 H   0  0  0  0  0  0  0  0  0  0  0  0
    5.1185    2.6380  -12.7211 H   0  0  0  0  0  0  0  0  0  0  0  0
    6.4999    3.3394  -10.7978 H   0  0  0  0  0  0  0  0  0  0  0  0
    8.5894    4.2436   -4.9406 H   0  0  0  0  0  0  0  0  0  0  0  0
    7.2321    6.2450   -4.4462 H   0  0  0  0  0  0  0  0  0  0  0  0
    4.7562    6.0755   -4.2911 H   0  0  0  0  0  0  0  0  0  0  0  0
  1  2  1  0  0  0  0
  2  3  1  0  0  0  0
  2 27  1  0  0  0  0
  2 28  1  0  0  0  0
  3  4  2  0  0  0  0
  3  5  1  0  0  0  0
  5  6  1  0  0  0  0
  5 29  1  0  0  0  0
  6  7  2  0  0  0  0
  6 26  1  0  0  0  0
  7  8  1  0  0  0  0
  8  9  1  0  0  0  0
  8 25  2  0  0  0  0
  9 10  1  0  0  0  0
  9 22  2  0  0  0  0
 10 11  2  0  0  0  0
 10 12  2  0  0  0  0
 10 13  1  0  0  0  0
 13 14  1  0  0  0  0
 13 30  1  0  0  0  0
 14 15  1  0  0  0  0
 14 31  1  0  0  0  0
 14 32  1  0  0  0  0
 15 16  1  0  0  0  0
 15 33  1  0  0  0  0
 15 34  1  0  0  0  0
 16 17  1  0  0  0  0
 16 21  2  0  0  0  0
 17 18  2  0  0  0  0
 17 35  1  0  0  0  0
 18 19  1  0  0  0  0
 18 36  1  0  0  0  0
 19 20  2  0  0  0  0
 19 37  1  0  0  0  0
 20 21  1  0  0  0  0
 20 38  1  0  0  0  0
 21 39  1  0  0  0  0
 22 23  1  0  0  0  0
 22 40  1  0  0  0  0
 23 24  2  0  0  0  0
 23 41  1  0  0  0  0
 24 25  1  0  0  0  0
 24 42  1  0  0  0  0
 25 26  1  0  0  0  0
M  END
$$$$
