
 OpenBabel07202414183D

 58 63  0  0  1  0  0  0  0  0999 V2000
    1.9977   -0.3025    4.3543 F   0  0  0  0  0  0  0  0  0  0  0  0
    2.9693   -0.4079    3.4386 C   0  0  0  0  0  0  0  0  0  0  0  0
    3.9801   -1.3321    3.6015 C   0  0  0  0  0  0  0  0  0  0  0  0
    5.0025   -1.4452    2.6502 C   0  0  0  0  0  0  0  0  0  0  0  0
    6.2779   -2.5488    3.0475 Cl  0  0  0  0  0  0  0  0  0  0  0  0
    5.0333   -0.6001    1.5141 C   0  0  0  0  0  0  0  0  0  0  0  0
    6.0164   -0.5791    0.4988 C   0  0  0  0  0  0  0  0  0  0  0  0
    7.0795   -1.5466    0.3065 N   0  0  0  0  0  0  0  0  0  0  0  0
    7.0109   -2.6072   -0.6820 C   0  0  0  0  0  0  0  0  0  0  0  0
    8.5235   -2.9613   -0.9551 C   0  0  0  0  0  0  0  0  0  0  0  0
    9.1163   -1.5415   -1.0593 C   0  0  3  0  0  0  0  0  0  0  0  0
    8.7463   -1.1303   -2.5471 C   0  0  0  0  0  0  0  0  0  0  0  0
    8.5021    0.3081   -2.7445 N   0  0  0  0  0  0  0  0  0  0  0  0
    7.0192    0.7943   -3.3531 S   0  0  0  0  0  0  0  0  0  0  0  0
    6.0617   -0.2391   -2.9951 O   0  0  0  0  0  0  0  0  0  0  0  0
    6.8161    2.1665   -2.9558 O   0  0  0  0  0  0  0  0  0  0  0  0
    7.1139    0.7200   -5.1375 C   0  0  0  0  0  0  0  0  0  0  0  0
    7.8751    1.9225   -5.5944 C   0  0  0  0  0  0  0  0  0  0  0  0
    9.2908    1.8922   -5.3259 C   0  0  0  0  0  0  0  0  0  0  0  0
   10.4233    1.8194   -5.1226 N   0  0  0  0  0  0  0  0  0  0  0  0
    7.4650    2.5737   -6.9047 C   0  0  0  0  0  0  0  0  0  0  0  0
    7.1713    3.2697   -5.6131 C   0  0  0  0  0  0  0  0  0  0  0  0
    9.2661    1.1411   -1.7716 C   0  0  0  0  0  0  0  0  0  0  0  0
   10.5732    0.4363   -1.4051 C   0  0  0  0  0  0  0  0  0  0  0  0
   11.7787    1.1191   -1.5079 C   0  0  0  0  0  0  0  0  0  0  0  0
   12.9506    0.4570   -1.1757 C   0  0  0  0  0  0  0  0  0  0  0  0
   12.9046   -0.8580   -0.6912 C   0  0  0  0  0  0  0  0  0  0  0  0
   14.3886   -1.6147   -0.2452 Cl  0  0  0  0  0  0  0  0  0  0  0  0
   11.6971   -1.5700   -0.5812 C   0  0  0  0  0  0  0  0  0  0  0  0
   10.5210   -0.9455   -0.9829 C   0  0  0  0  0  0  0  0  0  0  0  0
    8.3687   -1.0180    0.2143 C   0  0  0  0  0  0  0  0  0  0  0  0
    8.8490   -0.3091    1.0920 O   0  0  0  0  0  0  0  0  0  0  0  0
    6.0369    0.5905   -0.2449 C   0  0  0  0  0  0  0  0  0  0  0  0
    5.1197    1.5749   -0.3064 N   0  0  0  0  0  0  0  0  0  0  0  0
    4.0832    1.4309    0.5070 C   0  0  0  0  0  0  0  0  0  0  0  0
    4.0135    0.4101    1.4498 C   0  0  0  0  0  0  0  0  0  0  0  0
    2.9757    0.4763    2.3661 C   0  0  0  0  0  0  0  0  0  0  0  0
    3.9835   -1.9386    4.4974 H   0  0  0  0  0  0  0  0  0  0  0  0
    6.5137   -2.2416   -1.5863 H   0  0  0  0  0  0  0  0  0  0  0  0
    6.4421   -3.4628   -0.3112 H   0  0  0  0  0  0  0  0  0  0  0  0
    8.6406   -3.5649   -1.8646 H   0  0  0  0  0  0  0  0  0  0  0  0
    8.9392   -3.5343   -0.1191 H   0  0  0  0  0  0  0  0  0  0  0  0
    7.9561   -1.7333   -3.0059 H   0  0  0  0  0  0  0  0  0  0  0  0
    9.6073   -1.3812   -3.1985 H   0  0  0  0  0  0  0  0  0  0  0  0
    6.0690    0.7526   -5.4778 H   0  0  0  0  0  0  0  0  0  0  0  0
    7.5334   -0.2429   -5.4386 H   0  0  0  0  0  0  0  0  0  0  0  0
    6.6235    2.1725   -7.4564 H   0  0  0  0  0  0  0  0  0  0  0  0
    8.2326    3.0074   -7.5364 H   0  0  0  0  0  0  0  0  0  0  0  0
    6.1335    3.3288   -5.2939 H   0  0  0  0  0  0  0  0  0  0  0  0
    7.7484    4.1434   -5.3261 H   0  0  0  0  0  0  0  0  0  0  0  0
    8.7299    1.2601   -0.8279 H   0  0  0  0  0  0  0  0  0  0  0  0
    9.4262    2.1553   -2.1400 H   0  0  0  0  0  0  0  0  0  0  0  0
   11.8021    2.1445   -1.8702 H   0  0  0  0  0  0  0  0  0  0  0  0
   13.8977    0.9754   -1.2987 H   0  0  0  0  0  0  0  0  0  0  0  0
   11.7027   -2.5829   -0.1915 H   0  0  0  0  0  0  0  0  0  0  0  0
    6.8778    0.8048   -0.8575 H   0  0  0  0  0  0  0  0  0  0  0  0
    3.3423    2.2192    0.4266 H   0  0  0  0  0  0  0  0  0  0  0  0
    2.1996    1.2350    2.3034 H   0  0  0  0  0  0  0  0  0  0  0  0
  1  2  1  0  0  0  0
  2  3  1  0  0  0  0
  2 37  2  0  0  0  0
  3  4  2  0  0  0  0
  3 38  1  0  0  0  0
  4  5  1  0  0  0  0
  4  6  1  0  0  0  0
  6  7  1  0  0  0  0
  6 36  2  0  0  0  0
  7  8  1  0  0  0  0
  7 33  2  0  0  0  0
  8  9  1  0  0  0  0
  8 31  1  0  0  0  0
  9 10  1  0  0  0  0
  9 39  1  0  0  0  0
  9 40  1  0  0  0  0
 10 11  1  0  0  0  0
 10 41  1  0  0  0  0
 10 42  1  0  0  0  0
 11 12  1  0  0  0  0
 11 30  1  0  0  0  0
 11 31  1  0  0  0  0
 12 13  1  0  0  0  0
 12 43  1  0  0  0  0
 12 44  1  0  0  0  0
 13 14  1  0  0  0  0
 13 23  1  0  0  0  0
 14 15  2  0  0  0  0
 14 16  2  0  0  0  0
 14 17  1  0  0  0  0
 17 18  1  0  0  0  0
 17 45  1  0  0  0  0
 17 46  1  0  0  0  0
 18 19  1  0  0  0  0
 18 21  1  0  0  0  0
 18 22  1  0  0  0  0
 19 20  3  0  0  0  0
 21 22  1  0  0  0  0
 21 47  1  0  0  0  0
 21 48  1  0  0  0  0
 22 49  1  0  0  0  0
 22 50  1  0  0  0  0
 23 24  1  0  0  0  0
 23 51  1  0  0  0  0
 23 52  1  0  0  0  0
 24 25  1  0  0  0  0
 24 30  2  0  0  0  0
 25 26  2  0  0  0  0
 25 53  1  0  0  0  0
 26 27  1  0  0  0  0
 26 54  1  0  0  0  0
 27 28  1  0  0  0  0
 27 29  2  0  0  0  0
 29 30  1  0  0  0  0
 29 55  1  0  0  0  0
 31 32  2  0  0  0  0
 33 34  1  0  0  0  0
 33 56  1  0  0  0  0
 34 35  2  0  0  0  0
 35 36  1  0  0  0  0
 35 57  1  0  0  0  0
 36 37  1  0  0  0  0
 37 58  1  0  0  0  0
M  END
$$$$
