
 OpenBabel07202414193D

 50 53  0  0  0  0  0  0  0  0999 V2000
    3.0927    2.2688   -1.3650 N   0  0  0  0  0  0  0  0  0  0  0  0
    1.9883    2.4678   -2.1408 C   0  0  0  0  0  0  0  0  0  0  0  0
    1.1494    3.3058   -1.8420 O   0  0  0  0  0  0  0  0  0  0  0  0
    1.8599    1.6510   -3.3794 C   0  0  0  0  0  0  0  0  0  0  0  0
    2.4488    0.3837   -3.5089 C   0  0  0  0  0  0  0  0  0  0  0  0
    2.2692   -0.3852   -4.6790 C   0  0  0  0  0  0  0  0  0  0  0  0
    2.9300   -1.6349   -4.7330 N   0  0  0  0  0  0  0  0  0  0  0  0
    3.5837   -2.2806   -5.7995 C   0  0  0  0  0  0  0  0  0  0  0  0
    3.7374   -3.6719   -5.7812 C   0  0  0  0  0  0  0  0  0  0  0  0
    4.3523   -4.3307   -6.8475 C   0  0  0  0  0  0  0  0  0  0  0  0
    4.5298   -6.0428   -6.8041 Cl  0  0  0  0  0  0  0  0  0  0  0  0
    4.8132   -3.6221   -7.9556 C   0  0  0  0  0  0  0  0  0  0  0  0
    4.6800   -2.2313   -7.9944 C   0  0  0  0  0  0  0  0  0  0  0  0
    5.0901   -1.4493   -9.2199 C   0  0  0  0  0  0  0  0  0  0  0  0
    6.0447   -0.2998   -8.9553 C   0  0  0  0  0  0  0  0  0  0  0  0
    5.9011    0.7829   -9.5185 O   0  0  0  0  0  0  0  0  0  0  0  0
    7.1149   -0.6203   -8.1403 N   0  0  0  0  0  0  0  0  0  0  0  0
    8.1222    0.3084   -7.7912 C   0  0  0  0  0  0  0  0  0  0  0  0
    7.8034    1.6301   -7.4726 C   0  0  0  0  0  0  0  0  0  0  0  0
    8.7043    2.5623   -7.0897 N   0  0  0  0  0  0  0  0  0  0  0  0
    9.9949    2.1666   -7.0626 C   0  0  0  0  0  0  0  0  0  0  0  0
   10.4413    0.8815   -7.3816 C   0  0  0  0  0  0  0  0  0  0  0  0
   11.8091    0.5559   -7.3772 C   0  0  0  0  0  0  0  0  0  0  0  0
   12.2389   -0.7185   -7.7425 C   0  0  0  0  0  0  0  0  0  0  0  0
   11.3089   -1.6830   -8.1096 C   0  0  0  0  0  0  0  0  0  0  0  0
    9.9475   -1.3745   -8.1067 C   0  0  0  0  0  0  0  0  0  0  0  0
    9.4790   -0.0885   -7.7430 C   0  0  0  0  0  0  0  0  0  0  0  0
    4.0870   -1.5748   -6.9021 C   0  0  0  0  0  0  0  0  0  0  0  0
    1.4400    0.1390   -5.6951 C   0  0  0  0  0  0  0  0  0  0  0  0
    0.9481   -0.7786   -7.0796 Cl  0  0  0  0  0  0  0  0  0  0  0  0
    0.8765    1.4135   -5.5726 C   0  0  0  0  0  0  0  0  0  0  0  0
    1.0870    2.1675   -4.4177 C   0  0  0  0  0  0  0  0  0  0  0  0
    3.2113    2.9282   -0.6008 H   0  0  0  0  0  0  0  0  0  0  0  0
    3.9190    1.8102   -1.7094 H   0  0  0  0  0  0  0  0  0  0  0  0
    3.0425   -0.0262   -2.6978 H   0  0  0  0  0  0  0  0  0  0  0  0
    2.6985   -2.2384   -3.9490 H   0  0  0  0  0  0  0  0  0  0  0  0
    3.3601   -4.2534   -4.9449 H   0  0  0  0  0  0  0  0  0  0  0  0
    5.2573   -4.1589   -8.7906 H   0  0  0  0  0  0  0  0  0  0  0  0
    4.1809   -1.0358   -9.6739 H   0  0  0  0  0  0  0  0  0  0  0  0
    5.5553   -2.1039   -9.9664 H   0  0  0  0  0  0  0  0  0  0  0  0
    7.3099   -1.6021   -7.9984 H   0  0  0  0  0  0  0  0  0  0  0  0
    6.7750    1.9821   -7.4779 H   0  0  0  0  0  0  0  0  0  0  0  0
   10.6931    2.9504   -6.7797 H   0  0  0  0  0  0  0  0  0  0  0  0
   12.5522    1.3050   -7.1107 H   0  0  0  0  0  0  0  0  0  0  0  0
   13.3000   -0.9530   -7.7560 H   0  0  0  0  0  0  0  0  0  0  0  0
   11.6402   -2.6716   -8.4162 H   0  0  0  0  0  0  0  0  0  0  0  0
    9.2613   -2.1503   -8.4352 H   0  0  0  0  0  0  0  0  0  0  0  0
    3.9919   -0.4902   -6.9286 H   0  0  0  0  0  0  0  0  0  0  0  0
    0.2484    1.8170   -6.3631 H   0  0  0  0  0  0  0  0  0  0  0  0
    0.6254    3.1502   -4.3258 H   0  0  0  0  0  0  0  0  0  0  0  0
  1  2  1  0  0  0  0
  1 33  1  0  0  0  0
  1 34  1  0  0  0  0
  2  3  2  0  0  0  0
  2  4  1  0  0  0  0
  4  5  2  0  0  0  0
  4 32  1  0  0  0  0
  5  6  1  0  0  0  0
  5 35  1  0  0  0  0
  6  7  1  0  0  0  0
  6 29  2  0  0  0  0
  7  8  1  0  0  0  0
  7 36  1  0  0  0  0
  8  9  2  0  0  0  0
  8 28  1  0  0  0  0
  9 10  1  0  0  0  0
  9 37  1  0  0  0  0
 10 11  1  0  0  0  0
 10 12  2  0  0  0  0
 12 13  1  0  0  0  0
 12 38  1  0  0  0  0
 13 14  1  0  0  0  0
 13 28  2  0  0  0  0
 14 15  1  0  0  0  0
 14 39  1  0  0  0  0
 14 40  1  0  0  0  0
 15 16  2  0  0  0  0
 15 17  1  0  0  0  0
 17 18  1  0  0  0  0
 17 41  1  0  0  0  0
 18 19  2  0  0  0  0
 18 27  1  0  0  0  0
 19 20  1  0  0  0  0
 19 42  1  0  0  0  0
 20 21  2  0  0  0  0
 21 22  1  0  0  0  0
 21 43  1  0  0  0  0
 22 23  2  0  0  0  0
 22 27  1  0  0  0  0
 23 24  1  0  0  0  0
 23 44  1  0  0  0  0
 24 25  2  0  0  0  0
 24 45  1  0  0  0  0
 25 26  1  0  0  0  0
 25 46  1  0  0  0  0
 26 27  2  0  0  0  0
 26 47  1  0  0  0  0
 28 48  1  0  0  0  0
 29 30  1  0  0  0  0
 29 31  1  0  0  0  0
 31 32  2  0  0  0  0
 31 49  1  0  0  0  0
 32 50  1  0  0  0  0
M  END
$$$$
