
 OpenBabel07202414143D

 57 61  0  0  1  0  0  0  0  0999 V2000
    7.3007   -4.5192   -3.5836 C   0  0  0  0  0  0  0  0  0  0  0  0
    5.9451   -4.2028   -3.8690 O   0  0  0  0  0  0  0  0  0  0  0  0
    5.2996   -3.2473   -2.9737 C   0  0  0  0  0  0  0  0  0  0  0  0
    5.9351   -1.8733   -3.0449 C   0  0  0  0  0  0  0  0  0  0  0  0
    5.2939   -0.7015   -1.8697 S   0  0  0  0  0  0  0  0  0  0  0  0
    3.9156   -0.3969   -2.1804 O   0  0  0  0  0  0  0  0  0  0  0  0
    5.6969   -1.0678   -0.5231 O   0  0  0  0  0  0  0  0  0  0  0  0
    6.2038    0.7076   -2.2736 N   0  0  0  0  0  0  0  0  0  0  0  0
    7.6523    0.7025   -1.8898 C   0  0  0  0  0  0  0  0  0  0  0  0
    8.3843    1.8291   -2.6366 C   0  0  2  0  0  0  0  0  0  0  0  0
    9.8589    1.7881   -2.2015 C   0  0  0  0  0  0  0  0  0  0  0  0
   10.2669    2.3483   -1.1927 O   0  0  0  0  0  0  0  0  0  0  0  0
   10.6228    1.0024   -3.0555 N   0  0  0  0  0  0  0  0  0  0  0  0
   11.9794    0.5976   -2.9214 C   0  0  0  0  0  0  0  0  0  0  0  0
   12.7651    0.9072   -1.8126 C   0  0  0  0  0  0  0  0  0  0  0  0
   13.9950    0.3865   -1.5800 N   0  0  0  0  0  0  0  0  0  0  0  0
   14.5046   -0.4224   -2.5312 C   0  0  0  0  0  0  0  0  0  0  0  0
   13.8849   -0.6896   -3.7495 C   0  0  0  0  0  0  0  0  0  0  0  0
   14.5522   -1.4076   -4.7613 C   0  0  0  0  0  0  0  0  0  0  0  0
   13.9445   -1.6317   -5.9936 C   0  0  0  0  0  0  0  0  0  0  0  0
   12.6453   -1.1950   -6.2040 C   0  0  0  0  0  0  0  0  0  0  0  0
   11.9673   -0.4998   -5.1976 C   0  0  0  0  0  0  0  0  0  0  0  0
   12.5758   -0.1932   -3.9515 C   0  0  0  0  0  0  0  0  0  0  0  0
    7.6849    3.1767   -2.4834 C   0  0  0  0  0  0  0  0  0  0  0  0
    8.3222    4.3751   -2.8510 C   0  0  0  0  0  0  0  0  0  0  0  0
    7.6311    5.5868   -2.8088 C   0  0  0  0  0  0  0  0  0  0  0  0
    8.4170    7.0391   -3.2997 Cl  0  0  0  0  0  0  0  0  0  0  0  0
    6.3062    5.6310   -2.3998 C   0  0  0  0  0  0  0  0  0  0  0  0
    5.6531    4.4486   -2.0500 C   0  0  0  0  0  0  0  0  0  0  0  0
    6.3219    3.2115   -2.1120 C   0  0  0  0  0  0  0  0  0  0  0  0
    5.5539    1.9515   -1.7672 C   0  0  0  0  0  0  0  0  0  0  0  0
    4.5812   -3.8418   -1.7815 C   0  0  0  0  0  0  0  0  0  0  0  0
    3.7953   -3.4546   -3.0015 C   0  0  0  0  0  0  0  0  0  0  0  0
    7.9108   -4.1859   -4.4289 H   0  0  0  0  0  0  0  0  0  0  0  0
    7.3975   -5.6029   -3.4884 H   0  0  0  0  0  0  0  0  0  0  0  0
    7.6662   -4.0502   -2.6662 H   0  0  0  0  0  0  0  0  0  0  0  0
    5.8067   -1.4530   -4.0424 H   0  0  0  0  0  0  0  0  0  0  0  0
    6.9997   -1.9651   -2.8208 H   0  0  0  0  0  0  0  0  0  0  0  0
    8.1117   -0.2522   -2.1652 H   0  0  0  0  0  0  0  0  0  0  0  0
    7.7527    0.8151   -0.8028 H   0  0  0  0  0  0  0  0  0  0  0  0
    8.3325    1.6150   -3.7160 H   0  0  0  0  0  0  0  0  0  0  0  0
   10.1426    0.6265   -3.8582 H   0  0  0  0  0  0  0  0  0  0  0  0
   12.4391    1.5939   -1.0377 H   0  0  0  0  0  0  0  0  0  0  0  0
   15.4722   -0.8541   -2.2831 H   0  0  0  0  0  0  0  0  0  0  0  0
   15.5721   -1.7583   -4.6103 H   0  0  0  0  0  0  0  0  0  0  0  0
   14.4877   -2.1333   -6.7907 H   0  0  0  0  0  0  0  0  0  0  0  0
   12.1608   -1.3710   -7.1619 H   0  0  0  0  0  0  0  0  0  0  0  0
   10.9645   -0.1650   -5.4404 H   0  0  0  0  0  0  0  0  0  0  0  0
    9.3566    4.3712   -3.1859 H   0  0  0  0  0  0  0  0  0  0  0  0
    5.7641    6.5728   -2.3649 H   0  0  0  0  0  0  0  0  0  0  0  0
    4.6087    4.4941   -1.7445 H   0  0  0  0  0  0  0  0  0  0  0  0
    4.5616    2.0344   -2.2254 H   0  0  0  0  0  0  0  0  0  0  0  0
    5.4460    1.9003   -0.6773 H   0  0  0  0  0  0  0  0  0  0  0  0
    4.3886   -3.2660   -0.8843 H   0  0  0  0  0  0  0  0  0  0  0  0
    4.7116   -4.8998   -1.5804 H   0  0  0  0  0  0  0  0  0  0  0  0
    3.1202   -2.6147   -2.9433 H   0  0  0  0  0  0  0  0  0  0  0  0
    3.4057   -4.2644   -3.6177 H   0  0  0  0  0  0  0  0  0  0  0  0
  1  2  1  0  0  0  0
  1 34  1  0  0  0  0
  1 35  1  0  0  0  0
  1 36  1  0  0  0  0
  2  3  1  0  0  0  0
  3  4  1  0  0  0  0
  3 32  1  0  0  0  0
  3 33  1  0  0  0  0
  4  5  1  0  0  0  0
  4 37  1  0  0  0  0
  4 38  1  0  0  0  0
  5  6  2  0  0  0  0
  5  7  2  0  0  0  0
  5  8  1  0  0  0  0
  8  9  1  0  0  0  0
  8 31  1  0  0  0  0
  9 10  1  0  0  0  0
  9 39  1  0  0  0  0
  9 40  1  0  0  0  0
 10 24  1  0  0  0  0
 10 11  1  0  0  0  0
 10 41  1  6  0  0  0
 11 12  2  0  0  0  0
 11 13  1  0  0  0  0
 13 14  1  0  0  0  0
 13 42  1  0  0  0  0
 14 15  1  0  0  0  0
 14 23  2  0  0  0  0
 15 16  2  0  0  0  0
 15 43  1  0  0  0  0
 16 17  1  0  0  0  0
 17 18  2  0  0  0  0
 17 44  1  0  0  0  0
 18 19  1  0  0  0  0
 18 23  1  0  0  0  0
 19 20  2  0  0  0  0
 19 45  1  0  0  0  0
 20 21  1  0  0  0  0
 20 46  1  0  0  0  0
 21 22  2  0  0  0  0
 21 47  1  0  0  0  0
 22 23  1  0  0  0  0
 22 48  1  0  0  0  0
 24 25  1  0  0  0  0
 24 30  2  0  0  0  0
 25 26  2  0  0  0  0
 25 49  1  0  0  0  0
 26 27  1  0  0  0  0
 26 28  1  0  0  0  0
 28 29  2  0  0  0  0
 28 50  1  0  0  0  0
 29 30  1  0  0  0  0
 29 51  1  0  0  0  0
 30 31  1  0  0  0  0
 31 52  1  0  0  0  0
 31 53  1  0  0  0  0
 32 33  1  0  0  0  0
 32 54  1  0  0  0  0
 32 55  1  0  0  0  0
 33 56  1  0  0  0  0
 33 57  1  0  0  0  0
M  END
$$$$
