
 OpenBabel07202414143D

 46 49  0  0  0  0  0  0  0  0999 V2000
    0.9651    0.6414   -0.4230 C   0  0  0  0  0  0  0  0  0  0  0  0
    1.8926   -0.0513    0.4354 N   0  0  0  0  0  0  0  0  0  0  0  0
    2.6862    0.6062    1.3559 C   0  0  0  0  0  0  0  0  0  0  0  0
    2.7081    1.9866    1.5854 C   0  0  0  0  0  0  0  0  0  0  0  0
    3.5449    2.6402    2.5861 C   0  0  0  0  0  0  0  0  0  0  0  0
    4.4889    1.9541    3.3489 C   0  0  0  0  0  0  0  0  0  0  0  0
    4.5308    0.6017    2.9164 C   0  0  0  0  0  0  0  0  0  0  0  0
    3.6359   -0.0900    2.0471 C   0  0  0  0  0  0  0  0  0  0  0  0
    5.3906    2.5706    4.4855 N   0  0  0  0  0  0  0  0  0  0  0  0
    6.7485    3.0997    4.0748 C   0  0  0  0  0  0  0  0  0  0  0  0
    8.0287    2.2089    4.0749 C   0  0  0  0  0  0  0  0  0  0  0  0
    9.3892    2.6071    3.7031 C   0  0  0  0  0  0  0  0  0  0  0  0
   10.3606    1.7214    4.1322 C   0  0  0  0  0  0  0  0  0  0  0  0
    9.6785    0.2715    4.7273 S   0  0  0  0  0  0  0  0  0  0  0  0
    8.0834    0.9039    4.5689 C   0  0  0  0  0  0  0  0  0  0  0  0
    5.0033    2.6461    6.0022 C   0  0  0  0  0  0  0  0  0  0  0  0
    3.8606    2.1655    6.3518 O   0  0  0  0  0  0  0  0  0  0  0  0
    6.0076    3.4040    7.2558 C   0  0  0  0  0  0  0  0  0  0  0  0
    5.5994    3.4899    8.8987 N   0  0  0  0  0  0  0  0  0  0  0  0
    4.3169    3.5682    9.7504 C   0  0  0  0  0  0  0  0  0  0  0  0
    3.0382    3.6573   10.6396 C   0  0  0  0  0  0  0  0  0  0  0  0
    2.6645    4.1616   11.9866 C   0  0  0  0  0  0  0  0  0  0  0  0
    3.6396    4.5600   12.8604 C   0  0  0  0  0  0  0  0  0  0  0  0
    4.8738    4.2913   12.3615 C   0  0  0  0  0  0  0  0  0  0  0  0
    5.2317    3.8594   11.0117 C   0  0  0  0  0  0  0  0  0  0  0  0
    6.5387    3.8127   10.7472 N   0  0  0  0  0  0  0  0  0  0  0  0
    6.6219    4.1137    9.4936 N   0  0  0  0  0  0  0  0  0  0  0  0
    0.3795   -0.0747   -1.0111 H   0  0  0  0  0  0  0  0  0  0  0  0
    1.5050    1.2831   -1.1277 H   0  0  0  0  0  0  0  0  0  0  0  0
    0.2655    1.2450    0.1577 H   0  0  0  0  0  0  0  0  0  0  0  0
    1.9298   -1.0645    0.3828 H   0  0  0  0  0  0  0  0  0  0  0  0
    2.0303    2.6103    1.0116 H   0  0  0  0  0  0  0  0  0  0  0  0
    3.4004    3.7035    2.7069 H   0  0  0  0  0  0  0  0  0  0  0  0
    5.3316   -0.0636    3.1653 H   0  0  0  0  0  0  0  0  0  0  0  0
    3.7714   -1.1623    1.8771 H   0  0  0  0  0  0  0  0  0  0  0  0
    6.9601    3.9613    4.7146 H   0  0  0  0  0  0  0  0  0  0  0  0
    6.6010    3.4581    3.0539 H   0  0  0  0  0  0  0  0  0  0  0  0
    9.6582    3.6076    3.3672 H   0  0  0  0  0  0  0  0  0  0  0  0
   11.4363    1.8755    4.1918 H   0  0  0  0  0  0  0  0  0  0  0  0
    7.2789    0.3103    4.9825 H   0  0  0  0  0  0  0  0  0  0  0  0
    6.2232    4.4396    6.9848 H   0  0  0  0  0  0  0  0  0  0  0  0
    6.8800    2.7485    7.3463 H   0  0  0  0  0  0  0  0  0  0  0  0
    2.1111    3.2489   10.1944 H   0  0  0  0  0  0  0  0  0  0  0  0
    1.6388    4.2241   12.3570 H   0  0  0  0  0  0  0  0  0  0  0  0
    3.4692    4.9774   13.8480 H   0  0  0  0  0  0  0  0  0  0  0  0
    5.7208    4.5033   13.0212 H   0  0  0  0  0  0  0  0  0  0  0  0
  1  2  1  0  0  0  0
  1 28  1  0  0  0  0
  1 29  1  0  0  0  0
  1 30  1  0  0  0  0
  2  3  1  0  0  0  0
  2 31  1  0  0  0  0
  3  4  1  0  0  0  0
  3  8  2  0  0  0  0
  4  5  2  0  0  0  0
  4 32  1  0  0  0  0
  5  6  1  0  0  0  0
  5 33  1  0  0  0  0
  6  7  2  0  0  0  0
  6  9  1  0  0  0  0
  7  8  1  0  0  0  0
  7 34  1  0  0  0  0
  8 35  1  0  0  0  0
  9 10  1  0  0  0  0
  9 16  1  0  0  0  0
 10 11  1  0  0  0  0
 10 36  1  0  0  0  0
 10 37  1  0  0  0  0
 11 12  1  0  0  0  0
 11 15  2  0  0  0  0
 12 13  2  0  0  0  0
 12 38  1  0  0  0  0
 13 14  1  0  0  0  0
 13 39  1  0  0  0  0
 14 15  1  0  0  0  0
 15 40  1  0  0  0  0
 16 17  2  0  0  0  0
 16 18  1  0  0  0  0
 18 19  1  0  0  0  0
 18 41  1  0  0  0  0
 18 42  1  0  0  0  0
 19 20  1  0  0  0  0
 19 27  1  0  0  0  0
 20 21  1  0  0  0  0
 20 25  2  0  0  0  0
 21 22  2  0  0  0  0
 21 43  1  0  0  0  0
 22 23  1  0  0  0  0
 22 44  1  0  0  0  0
 23 24  2  0  0  0  0
 23 45  1  0  0  0  0
 24 25  1  0  0  0  0
 24 46  1  0  0  0  0
 25 26  1  0  0  0  0
 26 27  2  0  0  0  0
M  END
$$$$
