
 OpenBabel07202414193D

 59 63  0  0  1  0  0  0  0  0999 V2000
    2.7282    0.2419   -1.1494 O   0  0  0  0  0  0  0  0  0  0  0  0
    2.2695    0.0607   -0.0217 C   0  0  0  0  0  0  0  0  0  0  0  0
    0.8670   -0.5313    0.1152 C   0  0  0  0  0  0  0  0  0  0  0  0
    0.7903   -2.0403    0.0164 C   0  0  0  0  0  0  0  0  0  0  0  0
    1.6068   -2.7041   -0.9018 C   0  0  0  0  0  0  0  0  0  0  0  0
    1.5672   -4.0290   -1.1420 N   0  0  0  0  0  0  0  0  0  0  0  0
    0.6298   -4.7342   -0.4785 C   0  0  0  0  0  0  0  0  0  0  0  0
   -0.2539   -4.1970    0.4517 C   0  0  0  0  0  0  0  0  0  0  0  0
   -1.2160   -5.0076    1.0830 C   0  0  0  0  0  0  0  0  0  0  0  0
   -2.0982   -4.4684    2.0131 C   0  0  0  0  0  0  0  0  0  0  0  0
   -2.0231   -3.1174    2.3219 C   0  0  0  0  0  0  0  0  0  0  0  0
   -1.0766   -2.3003    1.6867 C   0  0  0  0  0  0  0  0  0  0  0  0
   -0.1715   -2.8133    0.7285 C   0  0  0  0  0  0  0  0  0  0  0  0
    2.9237    0.4230    1.1462 N   0  0  0  0  0  0  0  0  0  0  0  0
    2.6170   -0.2097    2.4391 C   0  0  0  0  0  0  0  0  0  0  0  0
    2.4555    0.8604    3.5246 C   0  0  0  0  0  0  0  0  0  0  0  0
    3.6660    1.6847    3.7174 N   0  0  0  0  0  0  0  0  0  0  0  0
    4.8109    0.9406    4.2708 C   0  0  0  0  0  0  0  0  0  0  0  0
    4.5522    0.2509    5.5902 C   0  0  0  0  0  0  0  0  0  0  0  0
    4.6220   -1.1483    5.6809 C   0  0  0  0  0  0  0  0  0  0  0  0
    4.4617   -1.7877    6.9099 C   0  0  0  0  0  0  0  0  0  0  0  0
    4.2284   -1.0363    8.0593 C   0  0  0  0  0  0  0  0  0  0  0  0
    4.1368    0.3528    7.9781 C   0  0  0  0  0  0  0  0  0  0  0  0
    4.2915    0.9944    6.7484 C   0  0  0  0  0  0  0  0  0  0  0  0
    4.0459    2.2684    2.4019 C   0  0  0  0  0  0  0  0  0  0  0  0
    4.1551    1.2595    1.1925 C   0  0  2  0  0  0  0  0  0  0  0  0
    4.5526    2.0562   -0.0417 C   0  0  0  0  0  0  0  0  0  0  0  0
    5.8150    1.8535   -0.6294 C   0  0  0  0  0  0  0  0  0  0  0  0
    6.2367    2.6364   -1.7059 C   0  0  0  0  0  0  0  0  0  0  0  0
    5.4033    3.6306   -2.2130 C   0  0  0  0  0  0  0  0  0  0  0  0
    4.1446    3.8359   -1.6515 C   0  0  0  0  0  0  0  0  0  0  0  0
    3.7227    3.0551   -0.5737 C   0  0  0  0  0  0  0  0  0  0  0  0
    0.2566   -0.1095   -0.6939 H   0  0  0  0  0  0  0  0  0  0  0  0
    0.4117   -0.1357    1.0267 H   0  0  0  0  0  0  0  0  0  0  0  0
    2.3423   -2.1778   -1.5051 H   0  0  0  0  0  0  0  0  0  0  0  0
    0.6125   -5.7943   -0.7322 H   0  0  0  0  0  0  0  0  0  0  0  0
   -1.2838   -6.0684    0.8468 H   0  0  0  0  0  0  0  0  0  0  0  0
   -2.8423   -5.1007    2.4907 H   0  0  0  0  0  0  0  0  0  0  0  0
   -2.7052   -2.6903    3.0539 H   0  0  0  0  0  0  0  0  0  0  0  0
   -1.0701   -1.2535    1.9694 H   0  0  0  0  0  0  0  0  0  0  0  0
    3.4423   -0.8937    2.6733 H   0  0  0  0  0  0  0  0  0  0  0  0
    1.7290   -0.8393    2.4083 H   0  0  0  0  0  0  0  0  0  0  0  0
    2.1243    0.4090    4.4649 H   0  0  0  0  0  0  0  0  0  0  0  0
    1.6347    1.5289    3.2237 H   0  0  0  0  0  0  0  0  0  0  0  0
    5.6356    1.6449    4.4401 H   0  0  0  0  0  0  0  0  0  0  0  0
    5.1982    0.2047    3.5581 H   0  0  0  0  0  0  0  0  0  0  0  0
    4.8199   -1.7500    4.7967 H   0  0  0  0  0  0  0  0  0  0  0  0
    4.5342   -2.8704    6.9721 H   0  0  0  0  0  0  0  0  0  0  0  0
    4.1229   -1.5330    9.0201 H   0  0  0  0  0  0  0  0  0  0  0  0
    3.9565    0.9384    8.8755 H   0  0  0  0  0  0  0  0  0  0  0  0
    4.2226    2.0790    6.6938 H   0  0  0  0  0  0  0  0  0  0  0  0
    4.9771    2.8421    2.5049 H   0  0  0  0  0  0  0  0  0  0  0  0
    3.2752    3.0176    2.1677 H   0  0  0  0  0  0  0  0  0  0  0  0
    4.9690    0.5521    1.4023 H   0  0  0  0  0  0  0  0  0  0  0  0
    6.4857    1.0844   -0.2515 H   0  0  0  0  0  0  0  0  0  0  0  0
    7.2143    2.4694   -2.1504 H   0  0  0  0  0  0  0  0  0  0  0  0
    5.7307    4.2406   -3.0502 H   0  0  0  0  0  0  0  0  0  0  0  0
    3.4885    4.6004   -2.0547 H   0  0  0  0  0  0  0  0  0  0  0  0
    2.7330    3.2238   -0.1572 H   0  0  0  0  0  0  0  0  0  0  0  0
  1  2  2  0  0  0  0
  2  3  1  0  0  0  0
  2 14  1  0  0  0  0
  3  4  1  0  0  0  0
  3 33  1  0  0  0  0
  3 34  1  0  0  0  0
  4  5  1  0  0  0  0
  4 13  2  0  0  0  0
  5  6  2  0  0  0  0
  5 35  1  0  0  0  0
  6  7  1  0  0  0  0
  7  8  2  0  0  0  0
  7 36  1  0  0  0  0
  8  9  1  0  0  0  0
  8 13  1  0  0  0  0
  9 10  2  0  0  0  0
  9 37  1  0  0  0  0
 10 11  1  0  0  0  0
 10 38  1  0  0  0  0
 11 12  2  0  0  0  0
 11 39  1  0  0  0  0
 12 13  1  0  0  0  0
 12 40  1  0  0  0  0
 14 15  1  0  0  0  0
 14 26  1  0  0  0  0
 15 16  1  0  0  0  0
 15 41  1  0  0  0  0
 15 42  1  0  0  0  0
 16 17  1  0  0  0  0
 16 43  1  0  0  0  0
 16 44  1  0  0  0  0
 17 18  1  0  0  0  0
 17 25  1  0  0  0  0
 18 19  1  0  0  0  0
 18 45  1  0  0  0  0
 18 46  1  0  0  0  0
 19 20  1  0  0  0  0
 19 24  2  0  0  0  0
 20 21  2  0  0  0  0
 20 47  1  0  0  0  0
 21 22  1  0  0  0  0
 21 48  1  0  0  0  0
 22 23  2  0  0  0  0
 22 49  1  0  0  0  0
 23 24  1  0  0  0  0
 23 50  1  0  0  0  0
 24 51  1  0  0  0  0
 25 26  1  0  0  0  0
 25 52  1  0  0  0  0
 25 53  1  0  0  0  0
 26 27  1  0  0  0  0
 26 54  1  1  0  0  0
 27 28  1  0  0  0  0
 27 32  2  0  0  0  0
 28 29  2  0  0  0  0
 28 55  1  0  0  0  0
 29 30  1  0  0  0  0
 29 56  1  0  0  0  0
 30 31  2  0  0  0  0
 30 57  1  0  0  0  0
 31 32  1  0  0  0  0
 31 58  1  0  0  0  0
 32 59  1  0  0  0  0
M  END
$$$$
