
 OpenBabel07202414193D

 34 36  0  0  0  0  0  0  0  0999 V2000
    1.7306    0.2204    0.0942 O   0  0  0  0  0  0  0  0  0  0  0  0
    2.9467    0.0264    0.1983 C   0  0  0  0  0  0  0  0  0  0  0  0
    3.4810   -0.9629    1.2101 C   0  0  0  0  0  0  0  0  0  0  0  0
    3.4584   -2.4109    0.7800 C   0  0  0  0  0  0  0  0  0  0  0  0
    4.3710   -3.3061    1.3583 C   0  0  0  0  0  0  0  0  0  0  0  0
    4.3363   -4.6654    1.0415 C   0  0  0  0  0  0  0  0  0  0  0  0
    3.3816   -5.1494    0.1509 C   0  0  0  0  0  0  0  0  0  0  0  0
    2.4647   -4.2747   -0.4251 C   0  0  0  0  0  0  0  0  0  0  0  0
    2.4971   -2.9154   -0.1081 C   0  0  0  0  0  0  0  0  0  0  0  0
    3.7537    0.8030   -0.5772 N   0  0  0  0  0  0  0  0  0  0  0  0
    5.1301    0.8255   -0.8782 C   0  0  0  0  0  0  0  0  0  0  0  0
    5.9765   -0.2714   -0.7383 C   0  0  0  0  0  0  0  0  0  0  0  0
    7.2714   -0.3010   -1.1270 N   0  0  0  0  0  0  0  0  0  0  0  0
    7.7717    0.8394   -1.6562 C   0  0  0  0  0  0  0  0  0  0  0  0
    7.0541    2.0260   -1.7899 C   0  0  0  0  0  0  0  0  0  0  0  0
    7.6691    3.1988   -2.2590 C   0  0  0  0  0  0  0  0  0  0  0  0
    6.9499    4.3868   -2.3639 C   0  0  0  0  0  0  0  0  0  0  0  0
    5.6014    4.4029   -2.0411 C   0  0  0  0  0  0  0  0  0  0  0  0
    4.9786    3.2395   -1.5828 C   0  0  0  0  0  0  0  0  0  0  0  0
    5.6889    2.0197   -1.4223 C   0  0  0  0  0  0  0  0  0  0  0  0
    2.8427   -0.8727    2.1008 H   0  0  0  0  0  0  0  0  0  0  0  0
    4.4784   -0.6548    1.5395 H   0  0  0  0  0  0  0  0  0  0  0  0
    5.1161   -2.9525    2.0694 H   0  0  0  0  0  0  0  0  0  0  0  0
    5.0479   -5.3480    1.4985 H   0  0  0  0  0  0  0  0  0  0  0  0
    3.3451   -6.2092   -0.0864 H   0  0  0  0  0  0  0  0  0  0  0  0
    1.7117   -4.6509   -1.1137 H   0  0  0  0  0  0  0  0  0  0  0  0
    1.7485   -2.2651   -0.5560 H   0  0  0  0  0  0  0  0  0  0  0  0
    3.1858    1.4890   -1.0577 H   0  0  0  0  0  0  0  0  0  0  0  0
    5.6398   -1.2234   -0.3519 H   0  0  0  0  0  0  0  0  0  0  0  0
    8.8092    0.7663   -1.9754 H   0  0  0  0  0  0  0  0  0  0  0  0
    8.7265    3.2023   -2.5178 H   0  0  0  0  0  0  0  0  0  0  0  0
    7.4436    5.2992   -2.6880 H   0  0  0  0  0  0  0  0  0  0  0  0
    5.0290    5.3244   -2.1265 H   0  0  0  0  0  0  0  0  0  0  0  0
    3.9271    3.3205   -1.3217 H   0  0  0  0  0  0  0  0  0  0  0  0
  1  2  2  0  0  0  0
  2  3  1  0  0  0  0
  2 10  1  0  0  0  0
  3  4  1  0  0  0  0
  3 21  1  0  0  0  0
  3 22  1  0  0  0  0
  4  5  1  0  0  0  0
  4  9  2  0  0  0  0
  5  6  2  0  0  0  0
  5 23  1  0  0  0  0
  6  7  1  0  0  0  0
  6 24  1  0  0  0  0
  7  8  2  0  0  0  0
  7 25  1  0  0  0  0
  8  9  1  0  0  0  0
  8 26  1  0  0  0  0
  9 27  1  0  0  0  0
 10 11  1  0  0  0  0
 10 28  1  0  0  0  0
 11 12  1  0  0  0  0
 11 20  2  0  0  0  0
 12 13  2  0  0  0  0
 12 29  1  0  0  0  0
 13 14  1  0  0  0  0
 14 15  2  0  0  0  0
 14 30  1  0  0  0  0
 15 16  1  0  0  0  0
 15 20  1  0  0  0  0
 16 17  2  0  0  0  0
 16 31  1  0  0  0  0
 17 18  1  0  0  0  0
 17 32  1  0  0  0  0
 18 19  2  0  0  0  0
 18 33  1  0  0  0  0
 19 20  1  0  0  0  0
 19 34  1  0  0  0  0
M  END
$$$$
