
 OpenBabel07202414193D

 59 64  0  0  0  0  0  0  0  0999 V2000
    0.4497    6.6966   -1.8030 N   0  0  0  0  0  0  0  0  0  0  0  0
    0.5957    7.0229   -0.4350 C   0  0  0  0  0  0  0  0  0  0  0  0
    0.8768    6.0332    0.5418 C   0  0  0  0  0  0  0  0  0  0  0  0
    1.1103    4.6202    0.1395 C   0  0  0  0  0  0  0  0  0  0  0  0
    1.7619    4.3107   -0.9749 N   0  0  0  0  0  0  0  0  0  0  0  0
    1.8593    2.9508   -0.9973 C   0  0  0  0  0  0  0  0  0  0  0  0
    1.2477    2.3723    0.1018 C   0  0  0  0  0  0  0  0  0  0  0  0
    1.1837    0.9718    0.2532 C   0  0  0  0  0  0  0  0  0  0  0  0
    1.7968    0.1776   -0.7147 C   0  0  0  0  0  0  0  0  0  0  0  0
    2.4229    0.7455   -1.8200 C   0  0  0  0  0  0  0  0  0  0  0  0
    2.4559    2.1343   -1.9810 C   0  0  0  0  0  0  0  0  0  0  0  0
    0.7461    3.4518    0.8378 N   0  0  0  0  0  0  0  0  0  0  0  0
   -0.0323    3.3275    2.0331 C   0  0  0  0  0  0  0  0  0  0  0  0
    0.2889    2.3361    2.9853 C   0  0  0  0  0  0  0  0  0  0  0  0
   -0.4624    2.1824    4.1587 C   0  0  0  0  0  0  0  0  0  0  0  0
   -0.1176    1.1637    5.2325 C   0  0  0  0  0  0  0  0  0  0  0  0
    0.4190   -0.2045    4.7825 C   0  0  0  0  0  0  0  0  0  0  0  0
    1.5698   -0.3855    4.4059 O   0  0  0  0  0  0  0  0  0  0  0  0
   -0.5580   -1.1703    4.8466 N   0  0  0  0  0  0  0  0  0  0  0  0
   -0.4686   -2.5740    4.6616 C   0  0  0  0  0  0  0  0  0  0  0  0
   -1.4996   -3.0717    3.8646 C   0  0  0  0  0  0  0  0  0  0  0  0
   -2.1927   -4.1908    4.1270 N   0  0  0  0  0  0  0  0  0  0  0  0
   -1.7708   -4.8980    5.1928 C   0  0  0  0  0  0  0  0  0  0  0  0
   -0.5981   -4.6412    5.9050 C   0  0  0  0  0  0  0  0  0  0  0  0
   -0.1536   -5.5462    6.8764 C   0  0  0  0  0  0  0  0  0  0  0  0
    1.0464   -5.3290    7.5413 C   0  0  0  0  0  0  0  0  0  0  0  0
    1.7801   -4.1767    7.2766 C   0  0  0  0  0  0  0  0  0  0  0  0
    1.3110   -3.2287    6.3534 C   0  0  0  0  0  0  0  0  0  0  0  0
    0.1122   -3.4492    5.6228 C   0  0  0  0  0  0  0  0  0  0  0  0
   -1.4941    3.1091    4.4012 C   0  0  0  0  0  0  0  0  0  0  0  0
   -1.7972    4.1101    3.4735 C   0  0  0  0  0  0  0  0  0  0  0  0
   -3.0163    5.2708    3.8367 Cl  0  0  0  0  0  0  0  0  0  0  0  0
   -1.1004    4.1984    2.2741 C   0  0  0  0  0  0  0  0  0  0  0  0
    0.9644    6.4361    1.8858 C   0  0  0  0  0  0  0  0  0  0  0  0
    0.6021    7.7297    2.2766 C   0  0  0  0  0  0  0  0  0  0  0  0
    0.2171    8.6642    1.3237 C   0  0  0  0  0  0  0  0  0  0  0  0
    0.2217    8.3143   -0.0253 C   0  0  0  0  0  0  0  0  0  0  0  0
    1.0037    5.8595   -2.0228 H   0  0  0  0  0  0  0  0  0  0  0  0
    0.6880    7.4669   -2.4188 H   0  0  0  0  0  0  0  0  0  0  0  0
    0.6687    0.4989    1.0827 H   0  0  0  0  0  0  0  0  0  0  0  0
    1.7742   -0.9046   -0.6034 H   0  0  0  0  0  0  0  0  0  0  0  0
    2.8870    0.1065   -2.5670 H   0  0  0  0  0  0  0  0  0  0  0  0
    2.9254    2.5825   -2.8484 H   0  0  0  0  0  0  0  0  0  0  0  0
    1.1697    1.7119    2.8479 H   0  0  0  0  0  0  0  0  0  0  0  0
   -1.0323    0.9816    5.8228 H   0  0  0  0  0  0  0  0  0  0  0  0
    0.6082    1.5980    5.9196 H   0  0  0  0  0  0  0  0  0  0  0  0
   -1.5017   -0.8135    4.7312 H   0  0  0  0  0  0  0  0  0  0  0  0
   -1.8613   -2.5009    3.0121 H   0  0  0  0  0  0  0  0  0  0  0  0
   -2.4253   -5.7223    5.4653 H   0  0  0  0  0  0  0  0  0  0  0  0
   -0.7223   -6.4476    7.0937 H   0  0  0  0  0  0  0  0  0  0  0  0
    1.4177   -6.0706    8.2468 H   0  0  0  0  0  0  0  0  0  0  0  0
    2.7387   -4.0290    7.7694 H   0  0  0  0  0  0  0  0  0  0  0  0
    1.9267   -2.3548    6.1472 H   0  0  0  0  0  0  0  0  0  0  0  0
   -2.0578    3.0709    5.3322 H   0  0  0  0  0  0  0  0  0  0  0  0
   -1.3942    4.9581    1.5506 H   0  0  0  0  0  0  0  0  0  0  0  0
    1.2748    5.7368    2.6592 H   0  0  0  0  0  0  0  0  0  0  0  0
    0.6000    7.9968    3.3305 H   0  0  0  0  0  0  0  0  0  0  0  0
   -0.0938    9.6620    1.6266 H   0  0  0  0  0  0  0  0  0  0  0  0
   -0.0883    9.0499   -0.7643 H   0  0  0  0  0  0  0  0  0  0  0  0
  1  2  1  0  0  0  0
  1 38  1  0  0  0  0
  1 39  1  0  0  0  0
  2  3  2  0  0  0  0
  2 37  1  0  0  0  0
  3  4  1  0  0  0  0
  3 34  1  0  0  0  0
  4  5  2  0  0  0  0
  4 12  1  0  0  0  0
  5  6  1  0  0  0  0
  6  7  2  0  0  0  0
  6 11  1  0  0  0  0
  7  8  1  0  0  0  0
  7 12  1  0  0  0  0
  8  9  2  0  0  0  0
  8 40  1  0  0  0  0
  9 10  1  0  0  0  0
  9 41  1  0  0  0  0
 10 11  2  0  0  0  0
 10 42  1  0  0  0  0
 11 43  1  0  0  0  0
 12 13  1  0  0  0  0
 13 14  2  0  0  0  0
 13 33  1  0  0  0  0
 14 15  1  0  0  0  0
 14 44  1  0  0  0  0
 15 16  1  0  0  0  0
 15 30  2  0  0  0  0
 16 17  1  0  0  0  0
 16 45  1  0  0  0  0
 16 46  1  0  0  0  0
 17 18  2  0  0  0  0
 17 19  1  0  0  0  0
 19 20  1  0  0  0  0
 19 47  1  0  0  0  0
 20 21  2  0  0  0  0
 20 29  1  0  0  0  0
 21 22  1  0  0  0  0
 21 48  1  0  0  0  0
 22 23  2  0  0  0  0
 23 24  1  0  0  0  0
 23 49  1  0  0  0  0
 24 25  2  0  0  0  0
 24 29  1  0  0  0  0
 25 26  1  0  0  0  0
 25 50  1  0  0  0  0
 26 27  2  0  0  0  0
 26 51  1  0  0  0  0
 27 28  1  0  0  0  0
 27 52  1  0  0  0  0
 28 29  2  0  0  0  0
 28 53  1  0  0  0  0
 30 31  1  0  0  0  0
 30 54  1  0  0  0  0
 31 32  1  0  0  0  0
 31 33  2  0  0  0  0
 33 55  1  0  0  0  0
 34 35  2  0  0  0  0
 34 56  1  0  0  0  0
 35 36  1  0  0  0  0
 35 57  1  0  0  0  0
 36 37  2  0  0  0  0
 36 58  1  0  0  0  0
 37 59  1  0  0  0  0
M  END
$$$$
