
 OpenBabel07202414153D

 33 34  0  0  0  0  0  0  0  0999 V2000
    5.0705    2.2702   -0.6544 C   0  0  0  0  0  0  0  0  0  0  0  0
    4.2838    1.0670   -0.1972 C   0  0  0  0  0  0  0  0  0  0  0  0
    4.9035   -0.2033   -0.1248 C   0  0  0  0  0  0  0  0  0  0  0  0
    6.2187   -0.4372   -0.5692 N   0  0  0  0  0  0  0  0  0  0  0  0
    4.0912   -1.2996    0.1853 C   0  0  0  0  0  0  0  0  0  0  0  0
    2.7840   -1.2337    0.4967 N   0  0  0  0  0  0  0  0  0  0  0  0
    2.2287   -0.0031    0.4645 C   0  0  0  0  0  0  0  0  0  0  0  0
    2.9066    1.1743    0.1310 C   0  0  0  0  0  0  0  0  0  0  0  0
    2.2428    2.4321    0.0804 N   0  0  0  0  0  0  0  0  0  0  0  0
    0.9995    2.7111    0.6282 C   0  0  0  0  0  0  0  0  0  0  0  0
    0.3267    1.9481    1.3144 O   0  0  0  0  0  0  0  0  0  0  0  0
    0.4970    4.1185    0.3352 C   0  0  0  0  0  0  0  0  0  0  0  0
    0.9453    5.1445    1.3473 C   0  0  0  0  0  0  0  0  0  0  0  0
    0.6973    4.9646    2.7174 C   0  0  0  0  0  0  0  0  0  0  0  0
    1.0830    5.9347    3.6458 C   0  0  0  0  0  0  0  0  0  0  0  0
    1.7110    7.1024    3.2158 C   0  0  0  0  0  0  0  0  0  0  0  0
    1.9461    7.2966    1.8571 C   0  0  0  0  0  0  0  0  0  0  0  0
    2.7073    8.7430    1.3187 Cl  0  0  0  0  0  0  0  0  0  0  0  0
    1.5645    6.3298    0.9244 C   0  0  0  0  0  0  0  0  0  0  0  0
    6.1431    2.1675   -0.4693 H   0  0  0  0  0  0  0  0  0  0  0  0
    4.7817    3.1725   -0.1081 H   0  0  0  0  0  0  0  0  0  0  0  0
    4.9183    2.4297   -1.7263 H   0  0  0  0  0  0  0  0  0  0  0  0
    6.8613    0.3343   -0.4380 H   0  0  0  0  0  0  0  0  0  0  0  0
    6.6160   -1.3045   -0.2177 H   0  0  0  0  0  0  0  0  0  0  0  0
    4.4965   -2.3082    0.1895 H   0  0  0  0  0  0  0  0  0  0  0  0
    1.1671   -0.0190    0.6862 H   0  0  0  0  0  0  0  0  0  0  0  0
    2.7595    3.2167   -0.2916 H   0  0  0  0  0  0  0  0  0  0  0  0
   -0.5999    4.0911    0.3177 H   0  0  0  0  0  0  0  0  0  0  0  0
    0.8088    4.4015   -0.6774 H   0  0  0  0  0  0  0  0  0  0  0  0
    0.1946    4.0657    3.0744 H   0  0  0  0  0  0  0  0  0  0  0  0
    0.8869    5.7806    4.7045 H   0  0  0  0  0  0  0  0  0  0  0  0
    2.0055    7.8560    3.9410 H   0  0  0  0  0  0  0  0  0  0  0  0
    1.7415    6.5113   -0.1332 H   0  0  0  0  0  0  0  0  0  0  0  0
  1  2  1  0  0  0  0
  1 20  1  0  0  0  0
  1 21  1  0  0  0  0
  1 22  1  0  0  0  0
  2  3  1  0  0  0  0
  2  8  2  0  0  0  0
  3  4  1  0  0  0  0
  3  5  2  0  0  0  0
  4 23  1  0  0  0  0
  4 24  1  0  0  0  0
  5  6  1  0  0  0  0
  5 25  1  0  0  0  0
  6  7  2  0  0  0  0
  7  8  1  0  0  0  0
  7 26  1  0  0  0  0
  8  9  1  0  0  0  0
  9 10  1  0  0  0  0
  9 27  1  0  0  0  0
 10 11  2  0  0  0  0
 10 12  1  0  0  0  0
 12 13  1  0  0  0  0
 12 28  1  0  0  0  0
 12 29  1  0  0  0  0
 13 14  1  0  0  0  0
 13 19  2  0  0  0  0
 14 15  2  0  0  0  0
 14 30  1  0  0  0  0
 15 16  1  0  0  0  0
 15 31  1  0  0  0  0
 16 17  2  0  0  0  0
 16 32  1  0  0  0  0
 17 18  1  0  0  0  0
 17 19  1  0  0  0  0
 19 33  1  0  0  0  0
M  END
$$$$
