
 OpenBabel07202414123D

 68 71  0  0  1  0  0  0  0  0999 V2000
    2.3286    1.4522    0.0880 C   0  0  0  0  0  0  0  0  0  0  0  0
    2.4762   -0.0837    0.1640 C   0  0  0  0  0  0  0  0  0  0  0  0
    3.3744   -0.3940    1.3826 C   0  0  0  0  0  0  0  0  0  0  0  0
    1.0667   -0.6620    0.4384 C   0  0  0  0  0  0  0  0  0  0  0  0
    3.0526   -0.7126   -1.1184 C   0  0  0  0  0  0  0  0  0  0  0  0
    3.3317    0.0157   -2.2821 C   0  0  0  0  0  0  0  0  0  0  0  0
    3.7562   -0.6116   -3.4787 C   0  0  0  0  0  0  0  0  0  0  0  0
    3.9354   -1.9969   -3.5736 C   0  0  0  0  0  0  0  0  0  0  0  0
    3.7570   -2.7019   -2.3674 C   0  0  0  0  0  0  0  0  0  0  0  0
    3.3014   -2.0866   -1.1853 C   0  0  0  0  0  0  0  0  0  0  0  0
    4.2166   -2.6941   -4.8415 N   0  0  0  0  0  0  0  0  0  0  0  0
    3.7885   -4.1392   -4.8933 C   0  0  3  0  0  0  0  0  0  0  0  0
    2.6281   -4.4572   -5.8723 C   0  0  0  0  0  0  0  0  0  0  0  0
    1.9097   -3.4435   -6.5437 C   0  0  0  0  0  0  0  0  0  0  0  0
    0.8902   -3.7472   -7.4506 C   0  0  0  0  0  0  0  0  0  0  0  0
    0.5110   -5.0679   -7.6523 C   0  0  0  0  0  0  0  0  0  0  0  0
    1.1491   -6.0812   -6.9427 C   0  0  0  0  0  0  0  0  0  0  0  0
    2.1961   -5.7806   -6.0640 C   0  0  0  0  0  0  0  0  0  0  0  0
    4.9945   -5.1673   -4.7887 C   0  0  0  0  0  0  0  0  0  0  0  0
    4.8239   -6.3208   -4.3834 O   0  0  0  0  0  0  0  0  0  0  0  0
    6.2533   -4.7500   -5.2056 N   0  0  0  0  0  0  0  0  0  0  0  0
    7.3906   -5.6653   -5.2822 C   0  0  0  0  0  0  0  0  0  0  0  0
    8.6196   -5.0000   -5.9265 C   0  0  0  0  0  0  0  0  0  0  0  0
    9.8359   -5.8970   -5.9455 C   0  0  0  0  0  0  0  0  0  0  0  0
   10.7238   -5.9090   -4.8581 C   0  0  0  0  0  0  0  0  0  0  0  0
   11.8379   -6.7551   -4.8520 C   0  0  0  0  0  0  0  0  0  0  0  0
   12.0776   -7.5989   -5.9340 C   0  0  0  0  0  0  0  0  0  0  0  0
   11.2075   -7.5815   -7.0166 C   0  0  0  0  0  0  0  0  0  0  0  0
   10.0942   -6.7424   -7.0339 C   0  0  0  0  0  0  0  0  0  0  0  0
   11.4413   -8.3883   -8.0607 F   0  0  0  0  0  0  0  0  0  0  0  0
    4.7417   -2.0046   -5.9877 C   0  0  0  0  0  0  0  0  0  0  0  0
    5.0658   -0.8176   -5.9491 O   0  0  0  0  0  0  0  0  0  0  0  0
    4.9410   -2.7170   -7.2663 C   0  0  0  0  0  0  0  0  0  0  0  0
    5.2987   -2.2598   -8.5274 C   0  0  0  0  0  0  0  0  0  0  0  0
    5.3338   -3.3875   -9.3914 C   0  0  0  0  0  0  0  0  0  0  0  0
    5.0227   -4.4733   -8.6128 C   0  0  0  0  0  0  0  0  0  0  0  0
    4.8394   -4.0742   -7.3314 O   0  0  0  0  0  0  0  0  0  0  0  0
    1.9206    1.8593    1.0212 H   0  0  0  0  0  0  0  0  0  0  0  0
    1.6476    1.7527   -0.7167 H   0  0  0  0  0  0  0  0  0  0  0  0
    3.2955    1.9392   -0.0834 H   0  0  0  0  0  0  0  0  0  0  0  0
    2.9551    0.0378    2.3002 H   0  0  0  0  0  0  0  0  0  0  0  0
    4.3793    0.0219    1.2495 H   0  0  0  0  0  0  0  0  0  0  0  0
    3.4805   -1.4694    1.5610 H   0  0  0  0  0  0  0  0  0  0  0  0
    0.6471   -0.2566    1.3676 H   0  0  0  0  0  0  0  0  0  0  0  0
    1.0781   -1.7527    0.5419 H   0  0  0  0  0  0  0  0  0  0  0  0
    0.3717   -0.4152   -0.3727 H   0  0  0  0  0  0  0  0  0  0  0  0
    3.2058    1.0949   -2.3100 H   0  0  0  0  0  0  0  0  0  0  0  0
    3.8817    0.0473   -4.3320 H   0  0  0  0  0  0  0  0  0  0  0  0
    3.9655   -3.7644   -2.2799 H   0  0  0  0  0  0  0  0  0  0  0  0
    3.1283   -2.7232   -0.3186 H   0  0  0  0  0  0  0  0  0  0  0  0
    3.2488   -4.3503   -3.9664 H   0  0  0  0  0  0  0  0  0  0  0  0
    2.1409   -2.3917   -6.3961 H   0  0  0  0  0  0  0  0  0  0  0  0
    0.3926   -2.9478   -7.9948 H   0  0  0  0  0  0  0  0  0  0  0  0
   -0.2898   -5.3054   -8.3474 H   0  0  0  0  0  0  0  0  0  0  0  0
    0.8307   -7.1127   -7.0715 H   0  0  0  0  0  0  0  0  0  0  0  0
    2.6608   -6.6024   -5.5223 H   0  0  0  0  0  0  0  0  0  0  0  0
    6.2361   -4.0574   -5.9347 H   0  0  0  0  0  0  0  0  0  0  0  0
    7.0859   -6.5416   -5.8627 H   0  0  0  0  0  0  0  0  0  0  0  0
    7.6132   -5.9977   -4.2632 H   0  0  0  0  0  0  0  0  0  0  0  0
    8.8668   -4.0686   -5.4001 H   0  0  0  0  0  0  0  0  0  0  0  0
    8.3828   -4.6924   -6.9545 H   0  0  0  0  0  0  0  0  0  0  0  0
   10.5547   -5.2549   -4.0049 H   0  0  0  0  0  0  0  0  0  0  0  0
   12.5154   -6.7562   -4.0017 H   0  0  0  0  0  0  0  0  0  0  0  0
   12.9338   -8.2663   -5.9404 H   0  0  0  0  0  0  0  0  0  0  0  0
    9.4428   -6.7602   -7.9023 H   0  0  0  0  0  0  0  0  0  0  0  0
    5.4979   -1.2305   -8.7850 H   0  0  0  0  0  0  0  0  0  0  0  0
    5.5576   -3.4124  -10.4476 H   0  0  0  0  0  0  0  0  0  0  0  0
    4.8927   -5.5315   -8.7988 H   0  0  0  0  0  0  0  0  0  0  0  0
  1  2  1  0  0  0  0
  1 38  1  0  0  0  0
  1 39  1  0  0  0  0
  1 40  1  0  0  0  0
  2  3  1  0  0  0  0
  2  4  1  0  0  0  0
  2  5  1  0  0  0  0
  3 41  1  0  0  0  0
  3 42  1  0  0  0  0
  3 43  1  0  0  0  0
  4 44  1  0  0  0  0
  4 45  1  0  0  0  0
  4 46  1  0  0  0  0
  5  6  1  0  0  0  0
  5 10  2  0  0  0  0
  6  7  2  0  0  0  0
  6 47  1  0  0  0  0
  7  8  1  0  0  0  0
  7 48  1  0  0  0  0
  8  9  2  0  0  0  0
  8 11  1  0  0  0  0
  9 10  1  0  0  0  0
  9 49  1  0  0  0  0
 10 50  1  0  0  0  0
 11 12  1  0  0  0  0
 11 31  1  0  0  0  0
 12 13  1  0  0  0  0
 12 19  1  0  0  0  0
 12 51  1  0  0  0  0
 13 14  1  0  0  0  0
 13 18  2  0  0  0  0
 14 15  2  0  0  0  0
 14 52  1  0  0  0  0
 15 16  1  0  0  0  0
 15 53  1  0  0  0  0
 16 17  2  0  0  0  0
 16 54  1  0  0  0  0
 17 18  1  0  0  0  0
 17 55  1  0  0  0  0
 18 56  1  0  0  0  0
 19 20  2  0  0  0  0
 19 21  1  0  0  0  0
 21 22  1  0  0  0  0
 21 57  1  0  0  0  0
 22 23  1  0  0  0  0
 22 58  1  0  0  0  0
 22 59  1  0  0  0  0
 23 24  1  0  0  0  0
 23 60  1  0  0  0  0
 23 61  1  0  0  0  0
 24 25  1  0  0  0  0
 24 29  2  0  0  0  0
 25 26  2  0  0  0  0
 25 62  1  0  0  0  0
 26 27  1  0  0  0  0
 26 63  1  0  0  0  0
 27 28  2  0  0  0  0
 27 64  1  0  0  0  0
 28 29  1  0  0  0  0
 28 30  1  0  0  0  0
 29 65  1  0  0  0  0
 31 32  2  0  0  0  0
 31 33  1  0  0  0  0
 33 34  2  0  0  0  0
 33 37  1  0  0  0  0
 34 35  1  0  0  0  0
 34 66  1  0  0  0  0
 35 36  2  0  0  0  0
 35 67  1  0  0  0  0
 36 37  1  0  0  0  0
 36 68  1  0  0  0  0
M  END
$$$$
