
 OpenBabel07202414143D

 50 53  0  0  1  0  0  0  0  0999 V2000
    2.5663    0.1377   -3.3660 C   0  0  0  0  0  0  0  0  0  0  0  0
    3.2208    1.3265   -2.9187 O   0  0  0  0  0  0  0  0  0  0  0  0
    4.0976    1.1269   -1.9060 C   0  0  0  0  0  0  0  0  0  0  0  0
    4.3709    0.0459   -1.4077 O   0  0  0  0  0  0  0  0  0  0  0  0
    4.6130    2.3245   -1.5151 N   0  0  0  0  0  0  0  0  0  0  0  0
    5.3476    2.5306   -0.2776 C   0  0  0  0  0  0  0  0  0  0  0  0
    6.9112    2.4203   -0.3583 C   0  0  3  0  0  0  0  0  0  0  0  0
    7.4356    3.5364   -1.3254 C   0  0  0  0  0  0  0  0  0  0  0  0
    6.7468    4.5274   -1.5726 O   0  0  0  0  0  0  0  0  0  0  0  0
    8.7274    3.3637   -1.7989 N   0  0  0  0  0  0  0  0  0  0  0  0
    9.4182    4.1472   -2.7659 C   0  0  0  0  0  0  0  0  0  0  0  0
    8.9288    5.3581   -3.2576 C   0  0  0  0  0  0  0  0  0  0  0  0
    9.4859    6.0597   -4.2737 N   0  0  0  0  0  0  0  0  0  0  0  0
   10.6101    5.5484   -4.8134 C   0  0  0  0  0  0  0  0  0  0  0  0
   11.2557    4.4020   -4.3550 C   0  0  0  0  0  0  0  0  0  0  0  0
   12.4715    3.9793   -4.9267 C   0  0  0  0  0  0  0  0  0  0  0  0
   13.1291    2.8473   -4.4529 C   0  0  0  0  0  0  0  0  0  0  0  0
   12.5695    2.1161   -3.4161 C   0  0  0  0  0  0  0  0  0  0  0  0
   11.3546    2.5182   -2.8504 C   0  0  0  0  0  0  0  0  0  0  0  0
   10.6590    3.6741   -3.2968 C   0  0  0  0  0  0  0  0  0  0  0  0
    7.3406    1.0029   -0.8048 C   0  0  0  0  0  0  0  0  0  0  0  0
    7.0882   -0.0067    0.3026 C   0  0  0  0  0  0  0  0  0  0  0  0
    7.9065    0.2827    1.4379 O   0  0  0  0  0  0  0  0  0  0  0  0
    7.8616    1.5825    1.8637 C   0  0  0  0  0  0  0  0  0  0  0  0
    8.3001    1.7895    3.1760 C   0  0  0  0  0  0  0  0  0  0  0  0
    8.2848    3.0680    3.7309 C   0  0  0  0  0  0  0  0  0  0  0  0
    7.8447    4.1399    2.9634 C   0  0  0  0  0  0  0  0  0  0  0  0
    7.8109    5.7191    3.6454 Cl  0  0  0  0  0  0  0  0  0  0  0  0
    7.4247    3.9434    1.6452 C   0  0  0  0  0  0  0  0  0  0  0  0
    7.4336    2.6566    1.0688 C   0  0  0  0  0  0  0  0  0  0  0  0
    1.8635    0.4129   -4.1575 H   0  0  0  0  0  0  0  0  0  0  0  0
    2.0004   -0.3233   -2.5495 H   0  0  0  0  0  0  0  0  0  0  0  0
    3.2948   -0.5668   -3.7787 H   0  0  0  0  0  0  0  0  0  0  0  0
    4.2268    3.1337   -1.9875 H   0  0  0  0  0  0  0  0  0  0  0  0
    4.9448    1.8313    0.4649 H   0  0  0  0  0  0  0  0  0  0  0  0
    5.0535    3.5296    0.0685 H   0  0  0  0  0  0  0  0  0  0  0  0
    9.2057    2.5256   -1.5184 H   0  0  0  0  0  0  0  0  0  0  0  0
    8.0526    5.8437   -2.8420 H   0  0  0  0  0  0  0  0  0  0  0  0
   10.9965    6.1124   -5.6603 H   0  0  0  0  0  0  0  0  0  0  0  0
   12.9252    4.5440   -5.7397 H   0  0  0  0  0  0  0  0  0  0  0  0
   14.0791    2.5435   -4.8858 H   0  0  0  0  0  0  0  0  0  0  0  0
   13.0786    1.2331   -3.0364 H   0  0  0  0  0  0  0  0  0  0  0  0
   10.9823    1.9097   -2.0321 H   0  0  0  0  0  0  0  0  0  0  0  0
    8.4174    0.9490   -1.0100 H   0  0  0  0  0  0  0  0  0  0  0  0
    6.8481    0.7111   -1.7323 H   0  0  0  0  0  0  0  0  0  0  0  0
    7.3694   -1.0074   -0.0449 H   0  0  0  0  0  0  0  0  0  0  0  0
    6.0424   -0.0669    0.6202 H   0  0  0  0  0  0  0  0  0  0  0  0
    8.6334    0.9451    3.7749 H   0  0  0  0  0  0  0  0  0  0  0  0
    8.6081    3.2161    4.7578 H   0  0  0  0  0  0  0  0  0  0  0  0
    7.0776    4.8037    1.0752 H   0  0  0  0  0  0  0  0  0  0  0  0
  1  2  1  0  0  0  0
  1 31  1  0  0  0  0
  1 32  1  0  0  0  0
  1 33  1  0  0  0  0
  2  3  1  0  0  0  0
  3  4  2  0  0  0  0
  3  5  1  0  0  0  0
  5  6  1  0  0  0  0
  5 34  1  0  0  0  0
  6  7  1  0  0  0  0
  6 35  1  0  0  0  0
  6 36  1  0  0  0  0
  7  8  1  0  0  0  0
  7 21  1  0  0  0  0
  7 30  1  0  0  0  0
  8  9  2  0  0  0  0
  8 10  1  0  0  0  0
 10 11  1  0  0  0  0
 10 37  1  0  0  0  0
 11 12  1  0  0  0  0
 11 20  2  0  0  0  0
 12 13  2  0  0  0  0
 12 38  1  0  0  0  0
 13 14  1  0  0  0  0
 14 15  2  0  0  0  0
 14 39  1  0  0  0  0
 15 16  1  0  0  0  0
 15 20  1  0  0  0  0
 16 17  2  0  0  0  0
 16 40  1  0  0  0  0
 17 18  1  0  0  0  0
 17 41  1  0  0  0  0
 18 19  2  0  0  0  0
 18 42  1  0  0  0  0
 19 20  1  0  0  0  0
 19 43  1  0  0  0  0
 21 22  1  0  0  0  0
 21 44  1  0  0  0  0
 21 45  1  0  0  0  0
 22 23  1  0  0  0  0
 22 46  1  0  0  0  0
 22 47  1  0  0  0  0
 23 24  1  0  0  0  0
 24 25  1  0  0  0  0
 24 30  2  0  0  0  0
 25 26  2  0  0  0  0
 25 48  1  0  0  0  0
 26 27  1  0  0  0  0
 26 49  1  0  0  0  0
 27 28  1  0  0  0  0
 27 29  2  0  0  0  0
 29 30  1  0  0  0  0
 29 50  1  0  0  0  0
M  END
$$$$
