
 OpenBabel07202414173D

 56 61  0  0  1  0  0  0  0  0999 V2000
    0.8590    0.2821   -0.0210 Cl  0  0  0  0  0  0  0  0  0  0  0  0
    2.5736    0.1593    0.0506 C   0  0  0  0  0  0  0  0  0  0  0  0
    3.3434    1.3150    0.0880 C   0  0  0  0  0  0  0  0  0  0  0  0
    4.7291    1.2084    0.1348 C   0  0  0  0  0  0  0  0  0  0  0  0
    5.3556   -0.0515    0.1723 C   0  0  0  0  0  0  0  0  0  0  0  0
    4.5792   -1.2366    0.1644 C   0  0  0  0  0  0  0  0  0  0  0  0
    3.1778   -1.1004    0.0783 C   0  0  0  0  0  0  0  0  0  0  0  0
    5.2540   -2.6125    0.2947 C   0  0  3  0  0  0  0  0  0  0  0  0
    6.7753   -2.5288    0.1087 C   0  0  0  0  0  0  0  0  0  0  0  0
    7.4264   -1.3319    0.7092 N   0  0  0  0  0  0  0  0  0  0  0  0
    7.8162   -1.2541    2.3413 S   0  0  0  0  0  0  0  0  0  0  0  0
    8.7015   -0.1250    2.5103 O   0  0  0  0  0  0  0  0  0  0  0  0
    6.5732   -1.2639    3.0837 O   0  0  0  0  0  0  0  0  0  0  0  0
    8.7544   -2.7740    2.6401 C   0  0  0  0  0  0  0  0  0  0  0  0
   10.1236   -2.5659    2.0226 C   0  0  0  0  0  0  0  0  0  0  0  0
   10.1699   -2.4560    0.5798 C   0  0  0  0  0  0  0  0  0  0  0  0
   10.2000   -2.4026   -0.5789 N   0  0  0  0  0  0  0  0  0  0  0  0
   11.1676   -1.8185    2.8341 C   0  0  0  0  0  0  0  0  0  0  0  0
   11.3032   -3.2980    2.6497 C   0  0  0  0  0  0  0  0  0  0  0  0
    6.8676   -0.0825    0.1638 C   0  0  0  0  0  0  0  0  0  0  0  0
    4.6928   -3.5841   -0.6348 N   0  0  0  0  0  0  0  0  0  0  0  0
    3.8337   -4.4705   -0.0116 C   0  0  0  0  0  0  0  0  0  0  0  0
    3.3744   -5.4391   -0.5913 O   0  0  0  0  0  0  0  0  0  0  0  0
    3.6940   -4.0757    1.2897 N   0  0  0  0  0  0  0  0  0  0  0  0
    2.6593   -4.4536    2.1773 C   0  0  0  0  0  0  0  0  0  0  0  0
    1.9569   -5.6402    1.9419 C   0  0  0  0  0  0  0  0  0  0  0  0
    0.7667   -5.9653    2.4904 N   0  0  0  0  0  0  0  0  0  0  0  0
    0.2350   -5.0633    3.3342 C   0  0  0  0  0  0  0  0  0  0  0  0
    0.8626   -3.8898    3.7375 C   0  0  0  0  0  0  0  0  0  0  0  0
    0.2234   -3.0463    4.6616 C   0  0  0  0  0  0  0  0  0  0  0  0
    0.8165   -1.8589    5.0788 C   0  0  0  0  0  0  0  0  0  0  0  0
    2.0410   -1.4974    4.5504 C   0  0  0  0  0  0  0  0  0  0  0  0
    2.6820   -2.3204    3.6108 C   0  0  0  0  0  0  0  0  0  0  0  0
    2.1264   -3.5624    3.1750 C   0  0  0  0  0  0  0  0  0  0  0  0
    4.8306   -3.3795    1.5762 C   0  0  0  0  0  0  0  0  0  0  0  0
    5.4876   -3.5101    2.6008 O   0  0  0  0  0  0  0  0  0  0  0  0
    2.8745    2.2947    0.0781 H   0  0  0  0  0  0  0  0  0  0  0  0
    5.3258    2.1204    0.1541 H   0  0  0  0  0  0  0  0  0  0  0  0
    2.5281   -1.9710    0.0381 H   0  0  0  0  0  0  0  0  0  0  0  0
    6.9833   -2.4576   -0.9721 H   0  0  0  0  0  0  0  0  0  0  0  0
    7.2718   -3.4548    0.4059 H   0  0  0  0  0  0  0  0  0  0  0  0
    8.2298   -3.6385    2.2302 H   0  0  0  0  0  0  0  0  0  0  0  0
    8.8078   -2.9078    3.7260 H   0  0  0  0  0  0  0  0  0  0  0  0
   10.8930   -1.4492    3.8178 H   0  0  0  0  0  0  0  0  0  0  0  0
   11.8442   -1.1537    2.3064 H   0  0  0  0  0  0  0  0  0  0  0  0
   11.1305   -3.9365    3.5058 H   0  0  0  0  0  0  0  0  0  0  0  0
   12.1049   -3.6454    2.0025 H   0  0  0  0  0  0  0  0  0  0  0  0
    7.2170    0.0280   -0.8697 H   0  0  0  0  0  0  0  0  0  0  0  0
    7.2606    0.7851    0.7075 H   0  0  0  0  0  0  0  0  0  0  0  0
    4.9814   -3.7363   -1.5938 H   0  0  0  0  0  0  0  0  0  0  0  0
    2.3395   -6.4055    1.2720 H   0  0  0  0  0  0  0  0  0  0  0  0
   -0.7632   -5.3164    3.6841 H   0  0  0  0  0  0  0  0  0  0  0  0
   -0.7483   -3.3117    5.0789 H   0  0  0  0  0  0  0  0  0  0  0  0
    0.3145   -1.2141    5.8011 H   0  0  0  0  0  0  0  0  0  0  0  0
    2.5178   -0.5665    4.8644 H   0  0  0  0  0  0  0  0  0  0  0  0
    3.6488   -1.9712    3.2627 H   0  0  0  0  0  0  0  0  0  0  0  0
  1  2  1  0  0  0  0
  2  3  1  0  0  0  0
  2  7  2  0  0  0  0
  3  4  2  0  0  0  0
  3 37  1  0  0  0  0
  4  5  1  0  0  0  0
  4 38  1  0  0  0  0
  5  6  2  0  0  0  0
  5 20  1  0  0  0  0
  6  7  1  0  0  0  0
  6  8  1  0  0  0  0
  7 39  1  0  0  0  0
  8  9  1  0  0  0  0
  8 21  1  0  0  0  0
  8 35  1  0  0  0  0
  9 10  1  0  0  0  0
  9 40  1  0  0  0  0
  9 41  1  0  0  0  0
 10 11  1  0  0  0  0
 10 20  1  0  0  0  0
 11 12  2  0  0  0  0
 11 13  2  0  0  0  0
 11 14  1  0  0  0  0
 14 15  1  0  0  0  0
 14 42  1  0  0  0  0
 14 43  1  0  0  0  0
 15 16  1  0  0  0  0
 15 18  1  0  0  0  0
 15 19  1  0  0  0  0
 16 17  3  0  0  0  0
 18 19  1  0  0  0  0
 18 44  1  0  0  0  0
 18 45  1  0  0  0  0
 19 46  1  0  0  0  0
 19 47  1  0  0  0  0
 20 48  1  0  0  0  0
 20 49  1  0  0  0  0
 21 22  1  0  0  0  0
 21 50  1  0  0  0  0
 22 23  2  0  0  0  0
 22 24  1  0  0  0  0
 24 25  1  0  0  0  0
 24 35  1  0  0  0  0
 25 26  1  0  0  0  0
 25 34  2  0  0  0  0
 26 27  2  0  0  0  0
 26 51  1  0  0  0  0
 27 28  1  0  0  0  0
 28 29  2  0  0  0  0
 28 52  1  0  0  0  0
 29 30  1  0  0  0  0
 29 34  1  0  0  0  0
 30 31  2  0  0  0  0
 30 53  1  0  0  0  0
 31 32  1  0  0  0  0
 31 54  1  0  0  0  0
 32 33  2  0  0  0  0
 32 55  1  0  0  0  0
 33 34  1  0  0  0  0
 33 56  1  0  0  0  0
 35 36  2  0  0  0  0
M  END
$$$$
