
 OpenBabel07202414203D

 38 41  0  0  1  0  0  0  0  0999 V2000
    2.3635   -0.7434   -0.0352 C   0  0  0  0  0  0  0  0  0  0  0  0
    1.1471   -1.4224   -0.0897 C   0  0  0  0  0  0  0  0  0  0  0  0
   -0.0504   -0.7073   -0.1484 C   0  0  0  0  0  0  0  0  0  0  0  0
   -0.0504    0.6940   -0.2114 C   0  0  0  0  0  0  0  0  0  0  0  0
    1.1791    1.3685   -0.1247 C   0  0  0  0  0  0  0  0  0  0  0  0
    2.3736    0.6486   -0.0398 C   0  0  0  0  0  0  0  0  0  0  0  0
    3.8717    1.4880    0.0692 Cl  0  0  0  0  0  0  0  0  0  0  0  0
   -1.3610    1.4516   -0.2725 C   0  0  2  0  0  0  0  0  0  0  0  0
   -2.5293    0.5111   -0.5775 C   0  0  0  0  0  0  0  0  0  0  0  0
   -2.3637   -0.7473    0.2526 C   0  0  0  0  0  0  0  0  0  0  0  0
   -1.1935   -1.4625   -0.1521 O   0  0  0  0  0  0  0  0  0  0  0  0
   -1.3685    2.6489   -1.2296 C   0  0  0  0  0  0  0  0  0  0  0  0
   -1.5352    3.7775   -0.7721 O   0  0  0  0  0  0  0  0  0  0  0  0
   -1.1996    2.3435   -2.5694 N   0  0  0  0  0  0  0  0  0  0  0  0
   -1.1931    3.2628   -3.6621 C   0  0  0  0  0  0  0  0  0  0  0  0
   -1.3719    4.6393   -3.4962 C   0  0  0  0  0  0  0  0  0  0  0  0
   -1.3030    5.5578   -4.4910 N   0  0  0  0  0  0  0  0  0  0  0  0
   -1.0392    5.0950   -5.7286 C   0  0  0  0  0  0  0  0  0  0  0  0
   -0.8730    3.7504   -6.0408 C   0  0  0  0  0  0  0  0  0  0  0  0
   -0.9734    2.8048   -4.9954 C   0  0  0  0  0  0  0  0  0  0  0  0
   -0.8505    1.4650   -5.4056 C   0  0  0  0  0  0  0  0  0  0  0  0
   -0.6163    1.0428   -6.6740 N   0  0  0  0  0  0  0  0  0  0  0  0
   -0.4934    1.9928   -7.6187 C   0  0  0  0  0  0  0  0  0  0  0  0
   -0.6155    3.3426   -7.3575 C   0  0  0  0  0  0  0  0  0  0  0  0
    3.2924   -1.3043    0.0276 H   0  0  0  0  0  0  0  0  0  0  0  0
    1.1298   -2.5090   -0.0606 H   0  0  0  0  0  0  0  0  0  0  0  0
    1.2127    2.4569   -0.1074 H   0  0  0  0  0  0  0  0  0  0  0  0
   -1.5201    1.8575    0.7378 H   0  0  0  0  0  0  0  0  0  0  0  0
   -2.5445    0.2348   -1.6392 H   0  0  0  0  0  0  0  0  0  0  0  0
   -3.4819    1.0044   -0.3550 H   0  0  0  0  0  0  0  0  0  0  0  0
   -3.2206   -1.4110    0.0979 H   0  0  0  0  0  0  0  0  0  0  0  0
   -2.3107   -0.5296    1.3275 H   0  0  0  0  0  0  0  0  0  0  0  0
   -0.9779    1.3787   -2.7799 H   0  0  0  0  0  0  0  0  0  0  0  0
   -1.5816    5.0934   -2.5339 H   0  0  0  0  0  0  0  0  0  0  0  0
   -0.9745    5.8694   -6.4894 H   0  0  0  0  0  0  0  0  0  0  0  0
   -0.9579    0.6405   -4.7080 H   0  0  0  0  0  0  0  0  0  0  0  0
   -0.2942    1.6301   -8.6238 H   0  0  0  0  0  0  0  0  0  0  0  0
   -0.5132    4.0590   -8.1667 H   0  0  0  0  0  0  0  0  0  0  0  0
  1  2  1  0  0  0  0
  1  6  2  0  0  0  0
  1 25  1  0  0  0  0
  2  3  2  0  0  0  0
  2 26  1  0  0  0  0
  3  4  1  0  0  0  0
  3 11  1  0  0  0  0
  4  5  2  0  0  0  0
  4  8  1  0  0  0  0
  5  6  1  0  0  0  0
  5 27  1  0  0  0  0
  6  7  1  0  0  0  0
  8  9  1  0  0  0  0
  8 12  1  0  0  0  0
  8 28  1  1  0  0  0
  9 10  1  0  0  0  0
  9 29  1  0  0  0  0
  9 30  1  0  0  0  0
 10 11  1  0  0  0  0
 10 31  1  0  0  0  0
 10 32  1  0  0  0  0
 12 13  2  0  0  0  0
 12 14  1  0  0  0  0
 14 15  1  0  0  0  0
 14 33  1  0  0  0  0
 15 16  1  0  0  0  0
 15 20  2  0  0  0  0
 16 17  2  0  0  0  0
 16 34  1  0  0  0  0
 17 18  1  0  0  0  0
 18 19  2  0  0  0  0
 18 35  1  0  0  0  0
 19 20  1  0  0  0  0
 19 24  1  0  0  0  0
 20 21  1  0  0  0  0
 21 22  2  0  0  0  0
 21 36  1  0  0  0  0
 22 23  1  0  0  0  0
 23 24  2  0  0  0  0
 23 37  1  0  0  0  0
 24 38  1  0  0  0  0
M  END
$$$$
