
 OpenBabel07202414193D

 44 47  0  0  1  0  0  0  0  0999 V2000
    1.1923    0.5865   -0.5229 O   0  0  0  0  0  0  0  0  0  0  0  0
    2.2009   -0.0023   -0.1306 C   0  0  0  0  0  0  0  0  0  0  0  0
    2.6545    0.1651    1.3173 C   0  0  0  0  0  0  0  0  0  0  0  0
    3.7067    1.2404    1.5057 C   0  0  0  0  0  0  0  0  0  0  0  0
    3.6554    2.3886    0.7067 C   0  0  0  0  0  0  0  0  0  0  0  0
    4.5028    3.4323    0.7987 N   0  0  0  0  0  0  0  0  0  0  0  0
    5.4395    3.3597    1.7637 C   0  0  0  0  0  0  0  0  0  0  0  0
    5.5907    2.2880    2.6408 C   0  0  0  0  0  0  0  0  0  0  0  0
    6.5924    2.3030    3.6273 C   0  0  0  0  0  0  0  0  0  0  0  0
    6.7413    1.2329    4.5040 C   0  0  0  0  0  0  0  0  0  0  0  0
    5.8890    0.1410    4.4031 C   0  0  0  0  0  0  0  0  0  0  0  0
    4.8832    0.1203    3.4289 C   0  0  0  0  0  0  0  0  0  0  0  0
    4.7054    1.1901    2.5179 C   0  0  0  0  0  0  0  0  0  0  0  0
    2.9793   -0.7695   -0.9861 N   0  0  0  0  0  0  0  0  0  0  0  0
    4.1679   -1.5302   -0.6073 C   0  0  0  0  0  0  0  0  0  0  0  0
    5.3724   -1.0813   -1.4258 C   0  0  0  0  0  0  0  0  0  0  0  0
    5.0889   -1.1674   -2.9244 C   0  0  0  0  0  0  0  0  0  0  0  0
    3.7921   -0.4275   -3.3039 C   0  0  1  0  0  0  0  0  0  0  0  0
    3.4809   -0.5879   -4.7178 N   0  0  0  0  0  0  0  0  0  0  0  0
    3.2590   -1.7605   -5.3845 C   0  0  0  0  0  0  0  0  0  0  0  0
    3.0484   -1.3932   -6.6925 C   0  0  0  0  0  0  0  0  0  0  0  0
    3.1292   -0.0332   -6.8338 N   0  0  0  0  0  0  0  0  0  0  0  0
    3.3878    0.4256   -5.6301 C   0  0  0  0  0  0  0  0  0  0  0  0
    2.6173   -0.8566   -2.4067 C   0  0  0  0  0  0  0  0  0  0  0  0
    2.9655   -0.8104    1.6956 H   0  0  0  0  0  0  0  0  0  0  0  0
    1.7751    0.4357    1.9156 H   0  0  0  0  0  0  0  0  0  0  0  0
    2.8973    2.5177   -0.0635 H   0  0  0  0  0  0  0  0  0  0  0  0
    6.0889    4.2298    1.8186 H   0  0  0  0  0  0  0  0  0  0  0  0
    7.2616    3.1564    3.7204 H   0  0  0  0  0  0  0  0  0  0  0  0
    7.5174    1.2556    5.2647 H   0  0  0  0  0  0  0  0  0  0  0  0
    6.0005   -0.6964    5.0878 H   0  0  0  0  0  0  0  0  0  0  0  0
    4.2379   -0.7531    3.4030 H   0  0  0  0  0  0  0  0  0  0  0  0
    3.9460   -2.5874   -0.7953 H   0  0  0  0  0  0  0  0  0  0  0  0
    4.4063   -1.4369    0.4512 H   0  0  0  0  0  0  0  0  0  0  0  0
    6.2377   -1.7055   -1.1769 H   0  0  0  0  0  0  0  0  0  0  0  0
    5.6295   -0.0479   -1.1631 H   0  0  0  0  0  0  0  0  0  0  0  0
    5.0223   -2.2255   -3.2070 H   0  0  0  0  0  0  0  0  0  0  0  0
    5.9368   -0.7493   -3.4810 H   0  0  0  0  0  0  0  0  0  0  0  0
    3.9656    0.6455   -3.1405 H   0  0  0  0  0  0  0  0  0  0  0  0
    3.2778   -2.7288   -4.9046 H   0  0  0  0  0  0  0  0  0  0  0  0
    2.8472   -2.0344   -7.5403 H   0  0  0  0  0  0  0  0  0  0  0  0
    3.5179    1.4691   -5.3719 H   0  0  0  0  0  0  0  0  0  0  0  0
    2.3327   -1.8980   -2.5994 H   0  0  0  0  0  0  0  0  0  0  0  0
    1.7380   -0.2428   -2.6320 H   0  0  0  0  0  0  0  0  0  0  0  0
  1  2  2  0  0  0  0
  2  3  1  0  0  0  0
  2 14  1  0  0  0  0
  3  4  1  0  0  0  0
  3 25  1  0  0  0  0
  3 26  1  0  0  0  0
  4  5  1  0  0  0  0
  4 13  2  0  0  0  0
  5  6  2  0  0  0  0
  5 27  1  0  0  0  0
  6  7  1  0  0  0  0
  7  8  2  0  0  0  0
  7 28  1  0  0  0  0
  8  9  1  0  0  0  0
  8 13  1  0  0  0  0
  9 10  2  0  0  0  0
  9 29  1  0  0  0  0
 10 11  1  0  0  0  0
 10 30  1  0  0  0  0
 11 12  2  0  0  0  0
 11 31  1  0  0  0  0
 12 13  1  0  0  0  0
 12 32  1  0  0  0  0
 14 15  1  0  0  0  0
 14 24  1  0  0  0  0
 15 16  1  0  0  0  0
 15 33  1  0  0  0  0
 15 34  1  0  0  0  0
 16 17  1  0  0  0  0
 16 35  1  0  0  0  0
 16 36  1  0  0  0  0
 17 18  1  0  0  0  0
 17 37  1  0  0  0  0
 17 38  1  0  0  0  0
 18 19  1  0  0  0  0
 18 24  1  0  0  0  0
 18 39  1  1  0  0  0
 19 20  1  0  0  0  0
 19 23  1  0  0  0  0
 20 21  2  0  0  0  0
 20 40  1  0  0  0  0
 21 22  1  0  0  0  0
 21 41  1  0  0  0  0
 22 23  2  0  0  0  0
 23 42  1  0  0  0  0
 24 43  1  0  0  0  0
 24 44  1  0  0  0  0
M  END
$$$$
