
 OpenBabel07202414143D

 57 62  0  0  1  0  0  0  0  0999 V2000
    1.5035    1.7134    0.2544 C   0  0  0  0  0  0  0  0  0  0  0  0
    2.8030    1.0997    0.1822 N   0  0  0  0  0  0  0  0  0  0  0  0
    3.2073    0.4579   -0.9668 C   0  0  0  0  0  0  0  0  0  0  0  0
    2.4972    0.3643   -1.9670 O   0  0  0  0  0  0  0  0  0  0  0  0
    4.6709    0.0162   -0.9902 C   0  0  0  0  0  0  0  0  0  0  0  0
    5.2676   -0.4324    0.2678 N   0  0  0  0  0  0  0  0  0  0  0  0
    5.1008   -1.8134    0.7139 C   0  0  0  0  0  0  0  0  0  0  0  0
    6.4072   -2.4083    1.2812 C   0  0  1  0  0  0  0  0  0  0  0  0
    6.0170   -3.7006    2.0692 C   0  0  0  0  0  0  0  0  0  0  0  0
    5.1823   -3.7223    2.9611 O   0  0  0  0  0  0  0  0  0  0  0  0
    6.7192   -4.7876    1.4897 N   0  0  0  0  0  0  0  0  0  0  0  0
    6.5869   -6.1787    1.8170 C   0  0  0  0  0  0  0  0  0  0  0  0
    6.5731   -7.1148    0.7704 C   0  0  0  0  0  0  0  0  0  0  0  0
    6.5687   -8.4606    0.8910 N   0  0  0  0  0  0  0  0  0  0  0  0
    6.4786   -8.9335    2.1441 C   0  0  0  0  0  0  0  0  0  0  0  0
    6.3446   -8.1373    3.2758 C   0  0  0  0  0  0  0  0  0  0  0  0
    6.1297   -8.7505    4.5232 C   0  0  0  0  0  0  0  0  0  0  0  0
    5.9745   -7.9860    5.6713 C   0  0  0  0  0  0  0  0  0  0  0  0
    6.1086   -6.6089    5.5899 C   0  0  0  0  0  0  0  0  0  0  0  0
    6.3652   -5.9943    4.3551 C   0  0  0  0  0  0  0  0  0  0  0  0
    6.4271   -6.7162    3.1371 C   0  0  0  0  0  0  0  0  0  0  0  0
    7.5028   -4.3318    0.3958 C   0  0  0  0  0  0  0  0  0  0  0  0
    8.4546   -4.9942   -0.3695 C   0  0  0  0  0  0  0  0  0  0  0  0
    9.1480   -4.2845   -1.3576 C   0  0  0  0  0  0  0  0  0  0  0  0
    8.9042   -2.9223   -1.5715 C   0  0  0  0  0  0  0  0  0  0  0  0
    7.9683   -2.2518   -0.7931 C   0  0  0  0  0  0  0  0  0  0  0  0
    7.2911   -2.9689    0.1903 C   0  0  0  0  0  0  0  0  0  0  0  0
    7.2143   -1.3836    2.0874 C   0  0  0  0  0  0  0  0  0  0  0  0
    8.4455   -1.7451    2.6776 C   0  0  0  0  0  0  0  0  0  0  0  0
    9.3450   -0.7650    3.0955 C   0  0  0  0  0  0  0  0  0  0  0  0
   10.5697   -1.1273    3.4971 F   0  0  0  0  0  0  0  0  0  0  0  0
    9.0249    0.5827    3.0248 C   0  0  0  0  0  0  0  0  0  0  0  0
    7.7887    0.9626    2.5101 C   0  0  0  0  0  0  0  0  0  0  0  0
    6.9042   -0.0077    2.0058 C   0  0  0  0  0  0  0  0  0  0  0  0
    5.8067    0.4957    1.1342 C   0  0  0  0  0  0  0  0  0  0  0  0
    5.5011    1.6828    1.1076 O   0  0  0  0  0  0  0  0  0  0  0  0
    1.3099    2.0037    1.2889 H   0  0  0  0  0  0  0  0  0  0  0  0
    0.7425    1.0052   -0.0850 H   0  0  0  0  0  0  0  0  0  0  0  0
    1.4890    2.5958   -0.3914 H   0  0  0  0  0  0  0  0  0  0  0  0
    3.5486    1.4761    0.7679 H   0  0  0  0  0  0  0  0  0  0  0  0
    5.2532    0.8744   -1.3498 H   0  0  0  0  0  0  0  0  0  0  0  0
    4.7861   -0.7902   -1.7223 H   0  0  0  0  0  0  0  0  0  0  0  0
    4.7153   -2.4200   -0.1152 H   0  0  0  0  0  0  0  0  0  0  0  0
    4.3153   -1.7855    1.4811 H   0  0  0  0  0  0  0  0  0  0  0  0
    6.5298   -6.7963   -0.2691 H   0  0  0  0  0  0  0  0  0  0  0  0
    6.5001  -10.0189    2.2140 H   0  0  0  0  0  0  0  0  0  0  0  0
    6.0530   -9.8333    4.6028 H   0  0  0  0  0  0  0  0  0  0  0  0
    5.7580   -8.4636    6.6230 H   0  0  0  0  0  0  0  0  0  0  0  0
    6.0042   -6.0000    6.4843 H   0  0  0  0  0  0  0  0  0  0  0  0
    6.4964   -4.9180    4.3729 H   0  0  0  0  0  0  0  0  0  0  0  0
    8.7229   -6.0323   -0.2014 H   0  0  0  0  0  0  0  0  0  0  0  0
    9.9083   -4.7887   -1.9490 H   0  0  0  0  0  0  0  0  0  0  0  0
    9.4769   -2.3773   -2.3167 H   0  0  0  0  0  0  0  0  0  0  0  0
    7.8257   -1.1823   -0.9126 H   0  0  0  0  0  0  0  0  0  0  0  0
    8.7818   -2.7790    2.7059 H   0  0  0  0  0  0  0  0  0  0  0  0
    9.7570    1.3303    3.3142 H   0  0  0  0  0  0  0  0  0  0  0  0
    7.5612    2.0226    2.4034 H   0  0  0  0  0  0  0  0  0  0  0  0
  1  2  1  0  0  0  0
  1 37  1  0  0  0  0
  1 38  1  0  0  0  0
  1 39  1  0  0  0  0
  2  3  1  0  0  0  0
  2 40  1  0  0  0  0
  3  4  2  0  0  0  0
  3  5  1  0  0  0  0
  5  6  1  0  0  0  0
  5 41  1  0  0  0  0
  5 42  1  0  0  0  0
  6  7  1  0  0  0  0
  6 35  1  0  0  0  0
  7  8  1  0  0  0  0
  7 43  1  0  0  0  0
  7 44  1  0  0  0  0
  8  9  1  1  0  0  0
  8 27  1  0  0  0  0
  8 28  1  0  0  0  0
  9 11  1  0  0  0  0
  9 10  2  0  0  0  0
 11 22  1  0  0  0  0
 11 12  1  0  0  0  0
 12 13  1  0  0  0  0
 12 21  2  0  0  0  0
 13 14  2  0  0  0  0
 13 45  1  0  0  0  0
 14 15  1  0  0  0  0
 15 16  2  0  0  0  0
 15 46  1  0  0  0  0
 16 17  1  0  0  0  0
 16 21  1  0  0  0  0
 17 18  2  0  0  0  0
 17 47  1  0  0  0  0
 18 19  1  0  0  0  0
 18 48  1  0  0  0  0
 19 20  2  0  0  0  0
 19 49  1  0  0  0  0
 20 21  1  0  0  0  0
 20 50  1  0  0  0  0
 22 23  1  0  0  0  0
 22 27  2  0  0  0  0
 23 24  2  0  0  0  0
 23 51  1  0  0  0  0
 24 25  1  0  0  0  0
 24 52  1  0  0  0  0
 25 26  2  0  0  0  0
 25 53  1  0  0  0  0
 26 27  1  0  0  0  0
 26 54  1  0  0  0  0
 28 29  1  0  0  0  0
 28 34  2  0  0  0  0
 29 30  2  0  0  0  0
 29 55  1  0  0  0  0
 30 32  1  0  0  0  0
 30 31  1  0  0  0  0
 32 33  2  0  0  0  0
 32 56  1  0  0  0  0
 33 34  1  0  0  0  0
 33 57  1  0  0  0  0
 34 35  1  0  0  0  0
 35 36  2  0  0  0  0
M  END
$$$$
