
 OpenBabel07202414153D

 46 48  0  0  1  0  0  0  0  0999 V2000
    2.9482    1.2524    0.4146 C   0  0  0  0  0  0  0  0  0  0  0  0
    2.0040    0.0513    0.2799 C   0  0  1  0  0  0  0  0  0  0  0  0
    2.6482   -1.1994    0.7879 N   0  0  0  0  0  0  0  0  0  0  0  0
    3.4916   -1.9348   -0.1672 C   0  0  0  0  0  0  0  0  0  0  0  0
    2.8732   -3.1698   -0.7949 C   0  0  0  0  0  0  0  0  0  0  0  0
    1.5966   -3.6288   -0.4615 C   0  0  0  0  0  0  0  0  0  0  0  0
    1.1223   -4.8472   -0.9567 C   0  0  0  0  0  0  0  0  0  0  0  0
    1.9058   -5.6093   -1.8171 C   0  0  0  0  0  0  0  0  0  0  0  0
    3.1593   -5.1369   -2.2114 C   0  0  0  0  0  0  0  0  0  0  0  0
    3.6396   -3.9264   -1.7068 C   0  0  0  0  0  0  0  0  0  0  0  0
    2.6710   -1.4294    2.1728 C   0  0  0  0  0  0  0  0  0  0  0  0
    2.2351   -0.5791    2.9490 O   0  0  0  0  0  0  0  0  0  0  0  0
    3.3145   -2.7304    2.6518 C   0  0  0  0  0  0  0  0  0  0  0  0
    3.0171   -3.3033    4.0322 C   0  0  0  0  0  0  0  0  0  0  0  0
    1.9969   -2.8410    4.8557 C   0  0  0  0  0  0  0  0  0  0  0  0
    1.6503   -3.3961    6.0454 N   0  0  0  0  0  0  0  0  0  0  0  0
    2.3835   -4.4538    6.4574 C   0  0  0  0  0  0  0  0  0  0  0  0
    3.4627   -4.9825    5.7658 C   0  0  0  0  0  0  0  0  0  0  0  0
    4.2288   -6.0404    6.2929 C   0  0  0  0  0  0  0  0  0  0  0  0
    5.3147   -6.5552    5.5888 C   0  0  0  0  0  0  0  0  0  0  0  0
    5.6175   -6.0462    4.3334 C   0  0  0  0  0  0  0  0  0  0  0  0
    4.8534   -5.0030    3.7965 C   0  0  0  0  0  0  0  0  0  0  0  0
    3.7809   -4.4167    4.5074 C   0  0  0  0  0  0  0  0  0  0  0  0
    0.5771    0.4016    0.7942 C   0  0  0  0  0  0  0  0  0  0  0  0
    0.5372    1.5695    1.4754 F   0  0  0  0  0  0  0  0  0  0  0  0
   -0.2502    0.5591   -0.2786 F   0  0  0  0  0  0  0  0  0  0  0  0
    0.0178   -0.5596    1.5551 F   0  0  0  0  0  0  0  0  0  0  0  0
    3.8764    1.0855   -0.1421 H   0  0  0  0  0  0  0  0  0  0  0  0
    3.2210    1.4330    1.4595 H   0  0  0  0  0  0  0  0  0  0  0  0
    2.4858    2.1640    0.0214 H   0  0  0  0  0  0  0  0  0  0  0  0
    1.8708   -0.1208   -0.7973 H   0  0  0  0  0  0  0  0  0  0  0  0
    4.4079   -2.2425    0.3494 H   0  0  0  0  0  0  0  0  0  0  0  0
    3.8011   -1.2477   -0.9650 H   0  0  0  0  0  0  0  0  0  0  0  0
    0.9559   -3.0674    0.2134 H   0  0  0  0  0  0  0  0  0  0  0  0
    0.1437   -5.2089   -0.6537 H   0  0  0  0  0  0  0  0  0  0  0  0
    1.5456   -6.5673   -2.1792 H   0  0  0  0  0  0  0  0  0  0  0  0
    3.7662   -5.7272   -2.8986 H   0  0  0  0  0  0  0  0  0  0  0  0
    4.6253   -3.5878   -2.0167 H   0  0  0  0  0  0  0  0  0  0  0  0
    4.3927   -2.5441    2.5941 H   0  0  0  0  0  0  0  0  0  0  0  0
    3.0428   -3.5239    1.9497 H   0  0  0  0  0  0  0  0  0  0  0  0
    1.3804   -1.9819    4.6021 H   0  0  0  0  0  0  0  0  0  0  0  0
    2.0586   -4.8790    7.4082 H   0  0  0  0  0  0  0  0  0  0  0  0
    3.9929   -6.4587    7.2698 H   0  0  0  0  0  0  0  0  0  0  0  0
    5.9200   -7.3495    6.0163 H   0  0  0  0  0  0  0  0  0  0  0  0
    6.4522   -6.4524    3.7673 H   0  0  0  0  0  0  0  0  0  0  0  0
    5.1285   -4.6497    2.8087 H   0  0  0  0  0  0  0  0  0  0  0  0
  1  2  1  0  0  0  0
  1 28  1  0  0  0  0
  1 29  1  0  0  0  0
  1 30  1  0  0  0  0
  2  3  1  0  0  0  0
  2 24  1  0  0  0  0
  2 31  1  6  0  0  0
  3  4  1  0  0  0  0
  3 11  1  0  0  0  0
  4  5  1  0  0  0  0
  4 32  1  0  0  0  0
  4 33  1  0  0  0  0
  5  6  1  0  0  0  0
  5 10  2  0  0  0  0
  6  7  2  0  0  0  0
  6 34  1  0  0  0  0
  7  8  1  0  0  0  0
  7 35  1  0  0  0  0
  8  9  2  0  0  0  0
  8 36  1  0  0  0  0
  9 10  1  0  0  0  0
  9 37  1  0  0  0  0
 10 38  1  0  0  0  0
 11 12  2  0  0  0  0
 11 13  1  0  0  0  0
 13 14  1  0  0  0  0
 13 39  1  0  0  0  0
 13 40  1  0  0  0  0
 14 15  1  0  0  0  0
 14 23  2  0  0  0  0
 15 16  2  0  0  0  0
 15 41  1  0  0  0  0
 16 17  1  0  0  0  0
 17 18  2  0  0  0  0
 17 42  1  0  0  0  0
 18 19  1  0  0  0  0
 18 23  1  0  0  0  0
 19 20  2  0  0  0  0
 19 43  1  0  0  0  0
 20 21  1  0  0  0  0
 20 44  1  0  0  0  0
 21 22  2  0  0  0  0
 21 45  1  0  0  0  0
 22 23  1  0  0  0  0
 22 46  1  0  0  0  0
 24 25  1  0  0  0  0
 24 26  1  0  0  0  0
 24 27  1  0  0  0  0
M  END
$$$$
