
 OpenBabel07202414203D

 43 46  0  0  0  0  0  0  0  0999 V2000
    1.3432   -0.3232   -0.0021 C   0  0  0  0  0  0  0  0  0  0  0  0
    0.4336   -1.2141    0.5510 C   0  0  0  0  0  0  0  0  0  0  0  0
   -0.9453   -0.9326    0.5410 C   0  0  0  0  0  0  0  0  0  0  0  0
   -1.4514    0.2326   -0.0439 C   0  0  0  0  0  0  0  0  0  0  0  0
   -0.5038    1.1367   -0.5338 C   0  0  0  0  0  0  0  0  0  0  0  0
    0.8638    0.8310   -0.6021 C   0  0  0  0  0  0  0  0  0  0  0  0
   -2.7944    0.4899   -0.1786 N   0  0  0  0  0  0  0  0  0  0  0  0
   -3.7951   -0.0042    0.7354 C   0  0  0  0  0  0  0  0  0  0  0  0
   -4.7789   -0.9196   -0.0207 C   0  0  0  0  0  0  0  0  0  0  0  0
   -5.4183   -0.3519   -1.1262 N   0  0  0  0  0  0  0  0  0  0  0  0
   -4.4455    0.3248   -2.0641 C   0  0  0  0  0  0  0  0  0  0  0  0
   -3.3670    1.2079   -1.3307 C   0  0  0  0  0  0  0  0  0  0  0  0
   -6.7870   -0.2843   -1.0889 C   0  0  0  0  0  0  0  0  0  0  0  0
   -7.1708    0.2408   -2.1409 O   0  0  0  0  0  0  0  0  0  0  0  0
   -7.7782   -0.8558    0.1483 C   0  0  0  0  0  0  0  0  0  0  0  0
   -7.6842   -1.9736    1.1367 C   0  0  0  0  0  0  0  0  0  0  0  0
   -8.7207   -1.8642    2.0095 N   0  0  0  0  0  0  0  0  0  0  0  0
   -9.8057   -1.0803    1.8617 C   0  0  0  0  0  0  0  0  0  0  0  0
   -9.9735   -0.1012    0.9291 C   0  0  0  0  0  0  0  0  0  0  0  0
   -8.9815    0.0879   -0.0019 C   0  0  0  0  0  0  0  0  0  0  0  0
   -9.3481    1.2598   -0.8960 C   0  0  0  0  0  0  0  0  0  0  0  0
  -10.4869    2.0316   -0.8851 C   0  0  0  0  0  0  0  0  0  0  0  0
  -11.4549    1.7005    0.0829 C   0  0  0  0  0  0  0  0  0  0  0  0
  -11.1370    0.7083    1.0068 C   0  0  0  0  0  0  0  0  0  0  0  0
    2.4108   -0.5222    0.0605 H   0  0  0  0  0  0  0  0  0  0  0  0
    0.8011   -2.1481    0.9665 H   0  0  0  0  0  0  0  0  0  0  0  0
   -1.6140   -1.6577    0.9900 H   0  0  0  0  0  0  0  0  0  0  0  0
   -0.8338    2.1318   -0.8154 H   0  0  0  0  0  0  0  0  0  0  0  0
    1.5477    1.4932   -1.1263 H   0  0  0  0  0  0  0  0  0  0  0  0
   -4.3639    0.8540    1.1292 H   0  0  0  0  0  0  0  0  0  0  0  0
   -3.3943   -0.5743    1.5817 H   0  0  0  0  0  0  0  0  0  0  0  0
   -5.5044   -1.2329    0.7135 H   0  0  0  0  0  0  0  0  0  0  0  0
   -4.2991   -1.8051   -0.4423 H   0  0  0  0  0  0  0  0  0  0  0  0
   -4.9138    0.8938   -2.8650 H   0  0  0  0  0  0  0  0  0  0  0  0
   -3.9155   -0.5280   -2.5126 H   0  0  0  0  0  0  0  0  0  0  0  0
   -3.8804    2.1044   -0.9600 H   0  0  0  0  0  0  0  0  0  0  0  0
   -2.5904    1.5215   -2.0464 H   0  0  0  0  0  0  0  0  0  0  0  0
   -7.6360   -2.8429    1.9238 H   0  0  0  0  0  0  0  0  0  0  0  0
  -10.5245   -1.3430    2.6277 H   0  0  0  0  0  0  0  0  0  0  0  0
   -8.7312    1.6029   -1.7392 H   0  0  0  0  0  0  0  0  0  0  0  0
  -10.7197    2.8325   -1.5729 H   0  0  0  0  0  0  0  0  0  0  0  0
  -12.4238    2.1326    0.0786 H   0  0  0  0  0  0  0  0  0  0  0  0
  -11.7583    0.6057    1.8975 H   0  0  0  0  0  0  0  0  0  0  0  0
  1  2  1  0  0  0  0
  1  6  2  0  0  0  0
  1 25  1  0  0  0  0
  2  3  2  0  0  0  0
  2 26  1  0  0  0  0
  3  4  1  0  0  0  0
  3 27  1  0  0  0  0
  4  5  2  0  0  0  0
  4  7  1  0  0  0  0
  5  6  1  0  0  0  0
  5 28  1  0  0  0  0
  6 29  1  0  0  0  0
  7  8  1  0  0  0  0
  7 12  1  0  0  0  0
  8  9  1  0  0  0  0
  8 30  1  0  0  0  0
  8 31  1  0  0  0  0
  9 10  1  0  0  0  0
  9 32  1  0  0  0  0
  9 33  1  0  0  0  0
 10 11  1  0  0  0  0
 10 13  1  0  0  0  0
 11 12  1  0  0  0  0
 11 34  1  0  0  0  0
 11 35  1  0  0  0  0
 12 36  1  0  0  0  0
 12 37  1  0  0  0  0
 13 14  2  0  0  0  0
 13 15  1  0  0  0  0
 15 16  1  0  0  0  0
 15 20  2  0  0  0  0
 16 17  2  0  0  0  0
 16 38  1  0  0  0  0
 17 18  1  0  0  0  0
 18 19  2  0  0  0  0
 18 39  1  0  0  0  0
 19 20  1  0  0  0  0
 19 24  1  0  0  0  0
 20 21  1  0  0  0  0
 21 22  2  0  0  0  0
 21 40  1  0  0  0  0
 22 23  1  0  0  0  0
 22 41  1  0  0  0  0
 23 24  2  0  0  0  0
 23 42  1  0  0  0  0
 24 43  1  0  0  0  0
M  END
$$$$
