
 OpenBabel07202414183D

 51 54  0  0  1  0  0  0  0  0999 V2000
   -4.4964   -1.6104   -3.4453 C   0  0  0  0  0  0  0  0  0  0  0  0
   -4.3416   -1.9792   -2.0522 N   0  0  0  0  0  0  0  0  0  0  0  0
   -3.4352   -2.9668   -1.6872 C   0  0  0  0  0  0  0  0  0  0  0  0
   -3.1339   -3.2593   -0.4107 C   0  0  0  0  0  0  0  0  0  0  0  0
   -3.8193   -2.4958    0.6533 C   0  0  0  0  0  0  0  0  0  0  0  0
   -3.5252   -2.6691    2.0119 C   0  0  0  0  0  0  0  0  0  0  0  0
   -4.2754   -2.0141    2.9997 C   0  0  0  0  0  0  0  0  0  0  0  0
   -5.3319   -1.1797    2.6425 C   0  0  0  0  0  0  0  0  0  0  0  0
   -5.6105   -0.9545    1.2970 C   0  0  0  0  0  0  0  0  0  0  0  0
   -4.8412   -1.5911    0.3103 C   0  0  0  0  0  0  0  0  0  0  0  0
   -5.1021   -1.2734   -1.1146 C   0  0  0  0  0  0  0  0  0  0  0  0
   -5.9317   -0.4307   -1.4153 O   0  0  0  0  0  0  0  0  0  0  0  0
   -2.4148   -4.4076   -0.0851 N   0  0  0  0  0  0  0  0  0  0  0  0
   -1.0223   -4.4540   -0.0742 C   0  0  0  0  0  0  0  0  0  0  0  0
   -0.3077   -3.4758   -0.2731 O   0  0  0  0  0  0  0  0  0  0  0  0
   -0.4957   -5.7256    0.2011 N   0  0  0  0  0  0  0  0  0  0  0  0
    0.9577   -5.9067    0.1812 C   0  0  0  0  0  0  0  0  0  0  0  0
    1.5796   -5.8581    1.5357 C   0  0  0  0  0  0  0  0  0  0  0  0
    2.2920   -4.8870    2.2104 C   0  0  0  0  0  0  0  0  0  0  0  0
    2.7914   -5.4935    3.3905 C   0  0  0  0  0  0  0  0  0  0  0  0
    2.3440   -6.7930    3.3682 C   0  0  0  0  0  0  0  0  0  0  0  0
    1.6072   -7.0255    2.2513 O   0  0  0  0  0  0  0  0  0  0  0  0
   -1.3131   -6.9176    0.4670 C   0  0  0  0  0  0  0  0  0  0  0  0
   -1.7390   -7.7128   -0.7821 C   0  0  3  0  0  0  0  0  0  0  0  0
   -0.6297   -8.3569   -1.5939 C   0  0  0  0  0  0  0  0  0  0  0  0
   -1.3896   -8.7688   -2.8294 C   0  0  0  0  0  0  0  0  0  0  0  0
   -2.3462   -7.6013   -3.0193 C   0  0  0  0  0  0  0  0  0  0  0  0
   -2.4733   -6.9258   -1.7432 O   0  0  0  0  0  0  0  0  0  0  0  0
   -4.0635   -2.3576   -4.1156 H   0  0  0  0  0  0  0  0  0  0  0  0
   -3.9986   -0.6467   -3.5991 H   0  0  0  0  0  0  0  0  0  0  0  0
   -5.5581   -1.4878   -3.6843 H   0  0  0  0  0  0  0  0  0  0  0  0
   -2.9814   -3.5264   -2.5068 H   0  0  0  0  0  0  0  0  0  0  0  0
   -2.7091   -3.3174    2.3194 H   0  0  0  0  0  0  0  0  0  0  0  0
   -4.0329   -2.1619    4.0464 H   0  0  0  0  0  0  0  0  0  0  0  0
   -5.9298   -0.6888    3.4107 H   0  0  0  0  0  0  0  0  0  0  0  0
   -6.4256   -0.2894    1.0156 H   0  0  0  0  0  0  0  0  0  0  0  0
   -2.7403   -5.2186   -0.6070 H   0  0  0  0  0  0  0  0  0  0  0  0
    1.4253   -5.1608   -0.4674 H   0  0  0  0  0  0  0  0  0  0  0  0
    1.1882   -6.8843   -0.2513 H   0  0  0  0  0  0  0  0  0  0  0  0
    2.4679   -3.8777    1.8637 H   0  0  0  0  0  0  0  0  0  0  0  0
    3.4194   -5.0472    4.1468 H   0  0  0  0  0  0  0  0  0  0  0  0
    2.4724   -7.6385    4.0337 H   0  0  0  0  0  0  0  0  0  0  0  0
   -2.2172   -6.5978    0.9977 H   0  0  0  0  0  0  0  0  0  0  0  0
   -0.7696   -7.5760    1.1531 H   0  0  0  0  0  0  0  0  0  0  0  0
   -2.4298   -8.4966   -0.4416 H   0  0  0  0  0  0  0  0  0  0  0  0
   -0.1453   -9.1901   -1.0775 H   0  0  0  0  0  0  0  0  0  0  0  0
    0.1286   -7.6300   -1.8981 H   0  0  0  0  0  0  0  0  0  0  0  0
   -1.9510   -9.6912   -2.6354 H   0  0  0  0  0  0  0  0  0  0  0  0
   -0.7490   -8.9466   -3.6983 H   0  0  0  0  0  0  0  0  0  0  0  0
   -3.3327   -7.9395   -3.3510 H   0  0  0  0  0  0  0  0  0  0  0  0
   -1.9585   -6.8836   -3.7496 H   0  0  0  0  0  0  0  0  0  0  0  0
  1  2  1  0  0  0  0
  1 29  1  0  0  0  0
  1 30  1  0  0  0  0
  1 31  1  0  0  0  0
  2  3  1  0  0  0  0
  2 11  1  0  0  0  0
  3  4  2  0  0  0  0
  3 32  1  0  0  0  0
  4  5  1  0  0  0  0
  4 13  1  0  0  0  0
  5  6  1  0  0  0  0
  5 10  2  0  0  0  0
  6  7  2  0  0  0  0
  6 33  1  0  0  0  0
  7  8  1  0  0  0  0
  7 34  1  0  0  0  0
  8  9  2  0  0  0  0
  8 35  1  0  0  0  0
  9 10  1  0  0  0  0
  9 36  1  0  0  0  0
 10 11  1  0  0  0  0
 11 12  2  0  0  0  0
 13 14  1  0  0  0  0
 13 37  1  0  0  0  0
 14 15  2  0  0  0  0
 14 16  1  0  0  0  0
 16 17  1  0  0  0  0
 16 23  1  0  0  0  0
 17 18  1  0  0  0  0
 17 38  1  0  0  0  0
 17 39  1  0  0  0  0
 18 19  2  0  0  0  0
 18 22  1  0  0  0  0
 19 20  1  0  0  0  0
 19 40  1  0  0  0  0
 20 21  2  0  0  0  0
 20 41  1  0  0  0  0
 21 22  1  0  0  0  0
 21 42  1  0  0  0  0
 23 24  1  0  0  0  0
 23 43  1  0  0  0  0
 23 44  1  0  0  0  0
 24 25  1  0  0  0  0
 24 28  1  0  0  0  0
 24 45  1  0  0  0  0
 25 26  1  0  0  0  0
 25 46  1  0  0  0  0
 25 47  1  0  0  0  0
 26 27  1  0  0  0  0
 26 48  1  0  0  0  0
 26 49  1  0  0  0  0
 27 28  1  0  0  0  0
 27 50  1  0  0  0  0
 27 51  1  0  0  0  0
M  END
$$$$
