
 OpenBabel07202414183D

 62 67  0  0  1  0  0  0  0  0999 V2000
    2.9243    0.0303    1.7021 F   0  0  0  0  0  0  0  0  0  0  0  0
    2.6199   -0.1681    0.3963 C   0  0  0  0  0  0  0  0  0  0  0  0
    1.2776   -0.0168    0.2773 F   0  0  0  0  0  0  0  0  0  0  0  0
    3.2285    0.8597   -0.3671 O   0  0  0  0  0  0  0  0  0  0  0  0
    4.5043    0.5766   -0.7618 C   0  0  0  0  0  0  0  0  0  0  0  0
    5.4177   -0.1853   -0.0445 C   0  0  0  0  0  0  0  0  0  0  0  0
    6.6557   -0.4841   -0.6077 C   0  0  0  0  0  0  0  0  0  0  0  0
    6.9970   -0.0146   -1.8863 C   0  0  0  0  0  0  0  0  0  0  0  0
    8.1901   -0.4127   -2.4886 C   0  0  0  0  0  0  0  0  0  0  0  0
    8.5552   -0.0802   -3.7400 N   0  0  0  0  0  0  0  0  0  0  0  0
    7.6958    0.7101   -4.4170 C   0  0  0  0  0  0  0  0  0  0  0  0
    6.4988    1.2363   -3.9026 C   0  0  0  0  0  0  0  0  0  0  0  0
    5.8181    2.1674   -4.7132 N   0  0  0  0  0  0  0  0  0  0  0  0
    5.0983    3.3418   -4.3465 C   0  0  0  0  0  0  0  0  0  0  0  0
    5.0237    4.1572   -5.6521 C   0  0  0  0  0  0  0  0  0  0  0  0
    5.5251    3.2009   -6.7884 C   0  0  3  0  0  0  0  0  0  0  0  0
    4.5413    3.1335   -7.9695 C   0  0  0  0  0  0  0  0  0  0  0  0
    5.1122    2.5703   -9.2304 N   0  0  0  0  0  0  0  0  0  0  0  0
    5.4114    0.8996   -9.4441 S   0  0  0  0  0  0  0  0  0  0  0  0
    5.7048    0.7555  -10.8567 O   0  0  0  0  0  0  0  0  0  0  0  0
    6.4035    0.4930   -8.4755 O   0  0  0  0  0  0  0  0  0  0  0  0
    3.8094    0.1152   -9.1436 C   0  0  0  0  0  0  0  0  0  0  0  0
    3.9910   -1.3925   -9.1715 C   0  0  0  0  0  0  0  0  0  0  0  0
    4.6732   -1.9558  -10.3187 C   0  0  0  0  0  0  0  0  0  0  0  0
    5.1697   -2.4623  -11.2302 N   0  0  0  0  0  0  0  0  0  0  0  0
    4.0201   -2.1990   -7.8772 C   0  0  0  0  0  0  0  0  0  0  0  0
    2.7786   -2.2084   -8.7121 C   0  0  0  0  0  0  0  0  0  0  0  0
    6.2473    3.4089   -9.6968 C   0  0  0  0  0  0  0  0  0  0  0  0
    7.2684    3.6923   -8.6176 C   0  0  0  0  0  0  0  0  0  0  0  0
    8.5613    4.0878   -9.0183 C   0  0  0  0  0  0  0  0  0  0  0  0
    9.5460    4.3792   -8.0778 C   0  0  0  0  0  0  0  0  0  0  0  0
    9.2436    4.2869   -6.7285 C   0  0  0  0  0  0  0  0  0  0  0  0
   10.4457    4.6507   -5.5521 Cl  0  0  0  0  0  0  0  0  0  0  0  0
    7.9638    3.9109   -6.3139 C   0  0  0  0  0  0  0  0  0  0  0  0
    6.9465    3.6048   -7.2441 C   0  0  0  0  0  0  0  0  0  0  0  0
    5.4838    1.8827   -6.0263 C   0  0  0  0  0  0  0  0  0  0  0  0
    4.9918    0.8194   -6.3763 O   0  0  0  0  0  0  0  0  0  0  0  0
    6.1147    0.8263   -2.6065 C   0  0  0  0  0  0  0  0  0  0  0  0
    4.8651    1.1061   -2.0099 C   0  0  0  0  0  0  0  0  0  0  0  0
    2.8886   -1.1851    0.0853 H   0  0  0  0  0  0  0  0  0  0  0  0
    5.1894   -0.5640    0.9441 H   0  0  0  0  0  0  0  0  0  0  0  0
    7.3437   -1.1157   -0.0513 H   0  0  0  0  0  0  0  0  0  0  0  0
    8.9010   -1.0552   -1.9740 H   0  0  0  0  0  0  0  0  0  0  0  0
    8.0419    0.9647   -5.4186 H   0  0  0  0  0  0  0  0  0  0  0  0
    5.5660    3.8832   -3.5215 H   0  0  0  0  0  0  0  0  0  0  0  0
    4.0740    3.0570   -4.0811 H   0  0  0  0  0  0  0  0  0  0  0  0
    5.6329    5.0650   -5.5637 H   0  0  0  0  0  0  0  0  0  0  0  0
    3.9953    4.4993   -5.8187 H   0  0  0  0  0  0  0  0  0  0  0  0
    4.2285    4.1606   -8.2180 H   0  0  0  0  0  0  0  0  0  0  0  0
    3.6090    2.6202   -7.7146 H   0  0  0  0  0  0  0  0  0  0  0  0
    3.1439    0.4335   -9.9532 H   0  0  0  0  0  0  0  0  0  0  0  0
    3.3984    0.4498   -8.1908 H   0  0  0  0  0  0  0  0  0  0  0  0
    3.9819   -1.6857   -6.9230 H   0  0  0  0  0  0  0  0  0  0  0  0
    4.6095   -3.1119   -7.8442 H   0  0  0  0  0  0  0  0  0  0  0  0
    1.9072   -1.6987   -8.3166 H   0  0  0  0  0  0  0  0  0  0  0  0
    2.5315   -3.1181   -9.2537 H   0  0  0  0  0  0  0  0  0  0  0  0
    5.8432    4.3628  -10.0587 H   0  0  0  0  0  0  0  0  0  0  0  0
    6.7396    2.9481  -10.5609 H   0  0  0  0  0  0  0  0  0  0  0  0
    8.8106    4.1590  -10.0765 H   0  0  0  0  0  0  0  0  0  0  0  0
   10.5409    4.6711   -8.4038 H   0  0  0  0  0  0  0  0  0  0  0  0
    7.7793    3.8644   -5.2442 H   0  0  0  0  0  0  0  0  0  0  0  0
    4.1137    1.6743   -2.5448 H   0  0  0  0  0  0  0  0  0  0  0  0
  1  2  1  0  0  0  0
  2  3  1  0  0  0  0
  2  4  1  0  0  0  0
  2 40  1  0  0  0  0
  4  5  1  0  0  0  0
  5  6  1  0  0  0  0
  5 39  2  0  0  0  0
  6  7  2  0  0  0  0
  6 41  1  0  0  0  0
  7  8  1  0  0  0  0
  7 42  1  0  0  0  0
  8  9  1  0  0  0  0
  8 38  2  0  0  0  0
  9 10  2  0  0  0  0
  9 43  1  0  0  0  0
 10 11  1  0  0  0  0
 11 12  2  0  0  0  0
 11 44  1  0  0  0  0
 12 13  1  0  0  0  0
 12 38  1  0  0  0  0
 13 14  1  0  0  0  0
 13 36  1  0  0  0  0
 14 15  1  0  0  0  0
 14 45  1  0  0  0  0
 14 46  1  0  0  0  0
 15 16  1  0  0  0  0
 15 47  1  0  0  0  0
 15 48  1  0  0  0  0
 16 17  1  0  0  0  0
 16 35  1  0  0  0  0
 16 36  1  0  0  0  0
 17 18  1  0  0  0  0
 17 49  1  0  0  0  0
 17 50  1  0  0  0  0
 18 19  1  0  0  0  0
 18 28  1  0  0  0  0
 19 20  2  0  0  0  0
 19 21  2  0  0  0  0
 19 22  1  0  0  0  0
 22 23  1  0  0  0  0
 22 51  1  0  0  0  0
 22 52  1  0  0  0  0
 23 24  1  0  0  0  0
 23 26  1  0  0  0  0
 23 27  1  0  0  0  0
 24 25  3  0  0  0  0
 26 27  1  0  0  0  0
 26 53  1  0  0  0  0
 26 54  1  0  0  0  0
 27 55  1  0  0  0  0
 27 56  1  0  0  0  0
 28 29  1  0  0  0  0
 28 57  1  0  0  0  0
 28 58  1  0  0  0  0
 29 30  1  0  0  0  0
 29 35  2  0  0  0  0
 30 31  2  0  0  0  0
 30 59  1  0  0  0  0
 31 32  1  0  0  0  0
 31 60  1  0  0  0  0
 32 33  1  0  0  0  0
 32 34  2  0  0  0  0
 34 35  1  0  0  0  0
 34 61  1  0  0  0  0
 36 37  2  0  0  0  0
 38 39  1  0  0  0  0
 39 62  1  0  0  0  0
M  END
$$$$
