
 OpenBabel07202414123D

 66 69  0  0  1  0  0  0  0  0999 V2000
    3.7578    1.0934    0.1613 C   0  0  0  0  0  0  0  0  0  0  0  0
    2.5506    0.1242    0.1179 C   0  0  0  0  0  0  0  0  0  0  0  0
    1.3523    0.8089    0.8008 C   0  0  0  0  0  0  0  0  0  0  0  0
    2.2102   -0.0724   -1.3798 C   0  0  0  0  0  0  0  0  0  0  0  0
    2.8475   -1.2113    0.8245 C   0  0  0  0  0  0  0  0  0  0  0  0
    3.8077   -1.3237    1.8349 C   0  0  0  0  0  0  0  0  0  0  0  0
    4.1597   -2.5663    2.4051 C   0  0  0  0  0  0  0  0  0  0  0  0
    3.5578   -3.7726    2.0231 C   0  0  0  0  0  0  0  0  0  0  0  0
    4.0165   -5.0949    2.4929 N   0  0  0  0  0  0  0  0  0  0  0  0
    3.5871   -6.2852    1.6867 C   0  0  3  0  0  0  0  0  0  0  0  0
    4.7825   -6.9830    0.9260 C   0  0  0  0  0  0  0  0  0  0  0  0
    5.8170   -7.3771    1.4544 O   0  0  0  0  0  0  0  0  0  0  0  0
    4.6362   -7.0632   -0.4501 N   0  0  0  0  0  0  0  0  0  0  0  0
    5.6244   -7.7394   -1.2904 C   0  0  0  0  0  0  0  0  0  0  0  0
    5.6039   -7.1880   -2.7174 C   0  0  0  0  0  0  0  0  0  0  0  0
    6.6075   -7.8420   -3.6327 C   0  0  0  0  0  0  0  0  0  0  0  0
    7.8990   -7.3098   -3.7697 C   0  0  0  0  0  0  0  0  0  0  0  0
    8.8265   -7.9011   -4.6331 C   0  0  0  0  0  0  0  0  0  0  0  0
    8.4740   -9.0340   -5.3632 C   0  0  0  0  0  0  0  0  0  0  0  0
    7.1979   -9.5653   -5.2243 C   0  0  0  0  0  0  0  0  0  0  0  0
    6.8559  -10.6512   -5.9302 F   0  0  0  0  0  0  0  0  0  0  0  0
    6.2657   -8.9846   -4.3678 C   0  0  0  0  0  0  0  0  0  0  0  0
    2.5261   -7.1901    2.3123 C   0  0  0  0  0  0  0  0  0  0  0  0
    1.9576   -6.9501    3.5754 C   0  0  0  0  0  0  0  0  0  0  0  0
    0.9347   -7.7596    4.0639 C   0  0  0  0  0  0  0  0  0  0  0  0
    0.4503   -8.7602    3.2447 C   0  0  0  0  0  0  0  0  0  0  0  0
    0.9539   -9.0314    2.0225 N   0  0  0  0  0  0  0  0  0  0  0  0
    1.9925   -8.2672    1.6035 C   0  0  0  0  0  0  0  0  0  0  0  0
    4.9287   -5.2255    3.5943 C   0  0  0  0  0  0  0  0  0  0  0  0
    5.3852   -4.2709    4.2157 O   0  0  0  0  0  0  0  0  0  0  0  0
    5.3769   -6.5614    4.0341 C   0  0  0  0  0  0  0  0  0  0  0  0
    6.6034   -6.8745    4.5876 C   0  0  0  0  0  0  0  0  0  0  0  0
    6.5730   -8.2295    4.7269 N   0  0  0  0  0  0  0  0  0  0  0  0
    5.3664   -8.7226    4.4276 N   0  0  0  0  0  0  0  0  0  0  0  0
    4.6306   -7.7101    4.0049 N   0  0  0  0  0  0  0  0  0  0  0  0
    2.4838   -3.6175    1.1227 C   0  0  0  0  0  0  0  0  0  0  0  0
    2.1552   -2.3844    0.5218 C   0  0  0  0  0  0  0  0  0  0  0  0
    3.5733    1.9904   -0.4413 H   0  0  0  0  0  0  0  0  0  0  0  0
    4.6645    0.6152   -0.2291 H   0  0  0  0  0  0  0  0  0  0  0  0
    3.9693    1.4415    1.1782 H   0  0  0  0  0  0  0  0  0  0  0  0
    1.1184    1.7663    0.3191 H   0  0  0  0  0  0  0  0  0  0  0  0
    1.5558    1.0119    1.8583 H   0  0  0  0  0  0  0  0  0  0  0  0
    0.4513    0.1869    0.7506 H   0  0  0  0  0  0  0  0  0  0  0  0
    2.0727    0.8928   -1.8832 H   0  0  0  0  0  0  0  0  0  0  0  0
    1.2797   -0.6308   -1.5262 H   0  0  0  0  0  0  0  0  0  0  0  0
    3.0114   -0.6070   -1.9029 H   0  0  0  0  0  0  0  0  0  0  0  0
    4.3387   -0.4476    2.2018 H   0  0  0  0  0  0  0  0  0  0  0  0
    4.9591   -2.5163    3.1350 H   0  0  0  0  0  0  0  0  0  0  0  0
    3.0321   -5.8977    0.8344 H   0  0  0  0  0  0  0  0  0  0  0  0
    3.8860   -6.5652   -0.9102 H   0  0  0  0  0  0  0  0  0  0  0  0
    5.3786   -8.8076   -1.2832 H   0  0  0  0  0  0  0  0  0  0  0  0
    6.6203   -7.6315   -0.8471 H   0  0  0  0  0  0  0  0  0  0  0  0
    5.7882   -6.1063   -2.6934 H   0  0  0  0  0  0  0  0  0  0  0  0
    4.5989   -7.3013   -3.1443 H   0  0  0  0  0  0  0  0  0  0  0  0
    8.1906   -6.4225   -3.2103 H   0  0  0  0  0  0  0  0  0  0  0  0
    9.8215   -7.4753   -4.7372 H   0  0  0  0  0  0  0  0  0  0  0  0
    9.1822   -9.5038   -6.0382 H   0  0  0  0  0  0  0  0  0  0  0  0
    5.2773   -9.4283   -4.2942 H   0  0  0  0  0  0  0  0  0  0  0  0
    2.3350   -6.1638    4.2242 H   0  0  0  0  0  0  0  0  0  0  0  0
    0.5310   -7.6085    5.0593 H   0  0  0  0  0  0  0  0  0  0  0  0
   -0.3802   -9.3852    3.5603 H   0  0  0  0  0  0  0  0  0  0  0  0
    2.3761   -8.5587    0.6291 H   0  0  0  0  0  0  0  0  0  0  0  0
    7.4767   -6.2834    4.8154 H   0  0  0  0  0  0  0  0  0  0  0  0
    7.2965   -8.8729    5.0137 H   0  0  0  0  0  0  0  0  0  0  0  0
    1.8240   -4.4427    0.8595 H   0  0  0  0  0  0  0  0  0  0  0  0
    1.3371   -2.3769   -0.1989 H   0  0  0  0  0  0  0  0  0  0  0  0
  1  2  1  0  0  0  0
  1 38  1  0  0  0  0
  1 39  1  0  0  0  0
  1 40  1  0  0  0  0
  2  3  1  0  0  0  0
  2  4  1  0  0  0  0
  2  5  1  0  0  0  0
  3 41  1  0  0  0  0
  3 42  1  0  0  0  0
  3 43  1  0  0  0  0
  4 44  1  0  0  0  0
  4 45  1  0  0  0  0
  4 46  1  0  0  0  0
  5  6  1  0  0  0  0
  5 37  2  0  0  0  0
  6  7  2  0  0  0  0
  6 47  1  0  0  0  0
  7  8  1  0  0  0  0
  7 48  1  0  0  0  0
  8  9  1  0  0  0  0
  8 36  2  0  0  0  0
  9 10  1  0  0  0  0
  9 29  1  0  0  0  0
 10 11  1  0  0  0  0
 10 23  1  0  0  0  0
 10 49  1  0  0  0  0
 11 12  2  0  0  0  0
 11 13  1  0  0  0  0
 13 14  1  0  0  0  0
 13 50  1  0  0  0  0
 14 15  1  0  0  0  0
 14 51  1  0  0  0  0
 14 52  1  0  0  0  0
 15 16  1  0  0  0  0
 15 53  1  0  0  0  0
 15 54  1  0  0  0  0
 16 17  1  0  0  0  0
 16 22  2  0  0  0  0
 17 18  2  0  0  0  0
 17 55  1  0  0  0  0
 18 19  1  0  0  0  0
 18 56  1  0  0  0  0
 19 20  2  0  0  0  0
 19 57  1  0  0  0  0
 20 21  1  0  0  0  0
 20 22  1  0  0  0  0
 22 58  1  0  0  0  0
 23 24  1  0  0  0  0
 23 28  2  0  0  0  0
 24 25  2  0  0  0  0
 24 59  1  0  0  0  0
 25 26  1  0  0  0  0
 25 60  1  0  0  0  0
 26 27  2  0  0  0  0
 26 61  1  0  0  0  0
 27 28  1  0  0  0  0
 28 62  1  0  0  0  0
 29 30  2  0  0  0  0
 29 31  1  0  0  0  0
 31 32  2  0  0  0  0
 31 35  1  0  0  0  0
 32 33  1  0  0  0  0
 32 63  1  0  0  0  0
 33 34  1  0  0  0  0
 33 64  1  0  0  0  0
 34 35  2  0  0  0  0
 36 37  1  0  0  0  0
 36 65  1  0  0  0  0
 37 66  1  0  0  0  0
M  END
$$$$
