
 OpenBabel07202414193D

 60 64  0  0  1  0  0  0  0  0999 V2000
    4.9427    1.9477   -0.3772 O   0  0  0  0  0  0  0  0  0  0  0  0
    3.7469    1.7795   -0.1542 C   0  0  0  0  0  0  0  0  0  0  0  0
    3.2611    0.9702    1.0521 C   0  0  0  0  0  0  0  0  0  0  0  0
    2.3862    1.7630    1.9517 N   0  0  0  0  0  0  0  0  0  0  0  0
    1.9566    0.8925    3.0668 C   0  0  0  0  0  0  0  0  0  0  0  0
    1.2525    1.6212    4.1955 C   0  0  0  0  0  0  0  0  0  0  0  0
    0.5130    0.8671    5.1245 C   0  0  0  0  0  0  0  0  0  0  0  0
   -0.1668    1.4912    6.1676 C   0  0  0  0  0  0  0  0  0  0  0  0
   -0.1053    2.8778    6.2905 C   0  0  0  0  0  0  0  0  0  0  0  0
   -0.9903    3.6510    7.5487 Cl  0  0  0  0  0  0  0  0  0  0  0  0
    0.6474    3.6404    5.3968 C   0  0  0  0  0  0  0  0  0  0  0  0
    1.3517    3.0197    4.3499 C   0  0  0  0  0  0  0  0  0  0  0  0
    2.1140    3.8335    3.3047 C   0  0  1  0  0  0  0  0  0  0  0  0
    2.8824    5.0495    3.8474 C   0  0  0  0  0  0  0  0  0  0  0  0
    2.6269    6.1845    3.4456 O   0  0  0  0  0  0  0  0  0  0  0  0
    3.8747    4.7268    4.7514 N   0  0  0  0  0  0  0  0  0  0  0  0
    4.7404    5.5964    5.4704 C   0  0  0  0  0  0  0  0  0  0  0  0
    4.6678    6.9873    5.3910 C   0  0  0  0  0  0  0  0  0  0  0  0
    5.3124    7.8288    6.2363 N   0  0  0  0  0  0  0  0  0  0  0  0
    6.1374    7.2673    7.1447 C   0  0  0  0  0  0  0  0  0  0  0  0
    6.4521    5.9096    7.1738 C   0  0  0  0  0  0  0  0  0  0  0  0
    7.4910    5.4193    7.9942 C   0  0  0  0  0  0  0  0  0  0  0  0
    7.8260    4.0633    7.9739 C   0  0  0  0  0  0  0  0  0  0  0  0
    7.0842    3.1802    7.2023 C   0  0  0  0  0  0  0  0  0  0  0  0
    6.0372    3.6550    6.4103 C   0  0  0  0  0  0  0  0  0  0  0  0
    5.7127    5.0385    6.3438 C   0  0  0  0  0  0  0  0  0  0  0  0
    3.0888    2.9408    2.4995 C   0  0  0  0  0  0  0  0  0  0  0  0
    2.7431    2.2717   -0.9524 N   0  0  0  0  0  0  0  0  0  0  0  0
    3.0071    3.1198   -2.0949 C   0  0  0  0  0  0  0  0  0  0  0  0
    2.3526    4.4659   -1.9204 C   0  0  0  0  0  0  0  0  0  0  0  0
    2.7740    5.3334   -0.8988 C   0  0  0  0  0  0  0  0  0  0  0  0
    2.1281    6.5535   -0.6845 C   0  0  0  0  0  0  0  0  0  0  0  0
    1.0648    6.9282   -1.5028 C   0  0  0  0  0  0  0  0  0  0  0  0
    0.6679    6.0872   -2.5355 C   0  0  0  0  0  0  0  0  0  0  0  0
   -0.3485    6.4508   -3.3288 F   0  0  0  0  0  0  0  0  0  0  0  0
    1.2997    4.8661   -2.7533 C   0  0  0  0  0  0  0  0  0  0  0  0
    4.1401    0.5854    1.5841 H   0  0  0  0  0  0  0  0  0  0  0  0
    2.7051    0.1107    0.6569 H   0  0  0  0  0  0  0  0  0  0  0  0
    2.8157    0.3677    3.5075 H   0  0  0  0  0  0  0  0  0  0  0  0
    1.2692    0.1377    2.6646 H   0  0  0  0  0  0  0  0  0  0  0  0
    0.4489   -0.2161    5.0266 H   0  0  0  0  0  0  0  0  0  0  0  0
   -0.7524    0.8976    6.8634 H   0  0  0  0  0  0  0  0  0  0  0  0
    0.6594    4.7236    5.5080 H   0  0  0  0  0  0  0  0  0  0  0  0
    1.3571    4.2232    2.6103 H   0  0  0  0  0  0  0  0  0  0  0  0
    3.8938    3.7585    5.0511 H   0  0  0  0  0  0  0  0  0  0  0  0
    4.0755    7.5026    4.6434 H   0  0  0  0  0  0  0  0  0  0  0  0
    6.5721    7.9642    7.8547 H   0  0  0  0  0  0  0  0  0  0  0  0
    8.0821    6.0962    8.5959 H   0  0  0  0  0  0  0  0  0  0  0  0
    8.6743    3.7047    8.5508 H   0  0  0  0  0  0  0  0  0  0  0  0
    7.3340    2.1235    7.1930 H   0  0  0  0  0  0  0  0  0  0  0  0
    5.5188    2.9217    5.8006 H   0  0  0  0  0  0  0  0  0  0  0  0
    3.9371    2.6157    3.1167 H   0  0  0  0  0  0  0  0  0  0  0  0
    3.5091    3.5559    1.6966 H   0  0  0  0  0  0  0  0  0  0  0  0
    1.7925    2.2045   -0.6069 H   0  0  0  0  0  0  0  0  0  0  0  0
    2.5979    2.6030   -2.9700 H   0  0  0  0  0  0  0  0  0  0  0  0
    4.0823    3.2464   -2.2611 H   0  0  0  0  0  0  0  0  0  0  0  0
    3.6071    5.0542   -0.2560 H   0  0  0  0  0  0  0  0  0  0  0  0
    2.4507    7.2046    0.1252 H   0  0  0  0  0  0  0  0  0  0  0  0
    0.5454    7.8673   -1.3421 H   0  0  0  0  0  0  0  0  0  0  0  0
    0.9551    4.2381   -3.5693 H   0  0  0  0  0  0  0  0  0  0  0  0
  1  2  2  0  0  0  0
  2  3  1  0  0  0  0
  2 28  1  0  0  0  0
  3  4  1  0  0  0  0
  3 37  1  0  0  0  0
  3 38  1  0  0  0  0
  4  5  1  0  0  0  0
  4 27  1  0  0  0  0
  5  6  1  0  0  0  0
  5 39  1  0  0  0  0
  5 40  1  0  0  0  0
  6  7  1  0  0  0  0
  6 12  2  0  0  0  0
  7  8  2  0  0  0  0
  7 41  1  0  0  0  0
  8  9  1  0  0  0  0
  8 42  1  0  0  0  0
  9 10  1  0  0  0  0
  9 11  2  0  0  0  0
 11 12  1  0  0  0  0
 11 43  1  0  0  0  0
 12 13  1  0  0  0  0
 13 27  1  0  0  0  0
 13 14  1  0  0  0  0
 13 44  1  6  0  0  0
 14 15  2  0  0  0  0
 14 16  1  0  0  0  0
 16 17  1  0  0  0  0
 16 45  1  0  0  0  0
 17 18  1  0  0  0  0
 17 26  2  0  0  0  0
 18 19  2  0  0  0  0
 18 46  1  0  0  0  0
 19 20  1  0  0  0  0
 20 21  2  0  0  0  0
 20 47  1  0  0  0  0
 21 22  1  0  0  0  0
 21 26  1  0  0  0  0
 22 23  2  0  0  0  0
 22 48  1  0  0  0  0
 23 24  1  0  0  0  0
 23 49  1  0  0  0  0
 24 25  2  0  0  0  0
 24 50  1  0  0  0  0
 25 26  1  0  0  0  0
 25 51  1  0  0  0  0
 27 52  1  0  0  0  0
 27 53  1  0  0  0  0
 28 29  1  0  0  0  0
 28 54  1  0  0  0  0
 29 30  1  0  0  0  0
 29 55  1  0  0  0  0
 29 56  1  0  0  0  0
 30 31  1  0  0  0  0
 30 36  2  0  0  0  0
 31 32  2  0  0  0  0
 31 57  1  0  0  0  0
 32 33  1  0  0  0  0
 32 58  1  0  0  0  0
 33 34  2  0  0  0  0
 33 59  1  0  0  0  0
 34 35  1  0  0  0  0
 34 36  1  0  0  0  0
 36 60  1  0  0  0  0
M  END
$$$$
