
 OpenBabel07202414133D

 66 70  0  0  1  0  0  0  0  0999 V2000
    2.0242    8.7265   10.4024 C   0  0  0  0  0  0  0  0  0  0  0  0
    2.5580    9.6120    9.2876 C   0  0  0  0  0  0  0  0  0  0  0  0
    2.0142    9.2499    7.9286 C   0  0  0  0  0  0  0  0  0  0  0  0
    0.8086    9.7986    7.4734 C   0  0  0  0  0  0  0  0  0  0  0  0
    0.3332    9.5085    6.1902 C   0  0  0  0  0  0  0  0  0  0  0  0
    1.0515    8.6592    5.3402 C   0  0  0  0  0  0  0  0  0  0  0  0
    0.5480    8.3387    3.9589 C   0  0  0  0  0  0  0  0  0  0  0  0
    1.4819    8.7429    2.9355 N   0  0  0  0  0  0  0  0  0  0  0  0
    1.4127    8.1976    1.6711 C   0  0  0  0  0  0  0  0  0  0  0  0
    0.6922    7.2437    1.3914 O   0  0  0  0  0  0  0  0  0  0  0  0
    2.3752    8.8101    0.6491 C   0  0  0  0  0  0  0  0  0  0  0  0
    2.5983   10.2547    0.8792 N   0  0  0  0  0  0  0  0  0  0  0  0
    1.3708   11.0727    0.6345 C   0  0  0  0  0  0  0  0  0  0  0  0
    1.5192   12.3384   -0.2708 C   0  0  2  0  0  0  0  0  0  0  0  0
    1.3016   11.9480   -1.7459 C   0  0  0  0  0  0  0  0  0  0  0  0
    0.5259   11.0517   -2.0605 O   0  0  0  0  0  0  0  0  0  0  0  0
    1.9837   12.7336   -2.6496 N   0  0  0  0  0  0  0  0  0  0  0  0
    1.9754   12.6603   -4.0667 C   0  0  0  0  0  0  0  0  0  0  0  0
    1.1173   11.8339   -4.7992 C   0  0  0  0  0  0  0  0  0  0  0  0
    1.0321   11.8208   -6.1518 N   0  0  0  0  0  0  0  0  0  0  0  0
    1.8720   12.6396   -6.8175 C   0  0  0  0  0  0  0  0  0  0  0  0
    2.8330   13.4462   -6.2115 C   0  0  0  0  0  0  0  0  0  0  0  0
    3.7473   14.1928   -6.9775 C   0  0  0  0  0  0  0  0  0  0  0  0
    4.7225   14.9740   -6.3622 C   0  0  0  0  0  0  0  0  0  0  0  0
    4.7691   15.0488   -4.9795 C   0  0  0  0  0  0  0  0  0  0  0  0
    3.8605   14.3203   -4.2114 C   0  0  0  0  0  0  0  0  0  0  0  0
    2.8793   13.4813   -4.8006 C   0  0  0  0  0  0  0  0  0  0  0  0
    2.8415   13.0166    0.0835 C   0  0  0  0  0  0  0  0  0  0  0  0
    2.9634   14.3874    0.3366 C   0  0  0  0  0  0  0  0  0  0  0  0
    4.1608   14.8848    0.8621 C   0  0  0  0  0  0  0  0  0  0  0  0
    4.2948   16.5574    1.2454 Cl  0  0  0  0  0  0  0  0  0  0  0  0
    5.2374   14.0363    1.1233 C   0  0  0  0  0  0  0  0  0  0  0  0
    5.1376   12.6792    0.8261 C   0  0  0  0  0  0  0  0  0  0  0  0
    3.9472   12.1724    0.2999 C   0  0  0  0  0  0  0  0  0  0  0  0
    3.7356   10.6999    0.0649 C   0  0  0  0  0  0  0  0  0  0  0  0
    2.2377    8.0804    5.8119 C   0  0  0  0  0  0  0  0  0  0  0  0
    2.7134    8.3707    7.0934 C   0  0  0  0  0  0  0  0  0  0  0  0
    2.4461    9.0410   11.3629 H   0  0  0  0  0  0  0  0  0  0  0  0
    2.2938    7.6774   10.2427 H   0  0  0  0  0  0  0  0  0  0  0  0
    0.9337    8.7895   10.4765 H   0  0  0  0  0  0  0  0  0  0  0  0
    3.6534    9.5550    9.2695 H   0  0  0  0  0  0  0  0  0  0  0  0
    2.3174   10.6600    9.5046 H   0  0  0  0  0  0  0  0  0  0  0  0
    0.2359   10.4666    8.1134 H   0  0  0  0  0  0  0  0  0  0  0  0
   -0.6033    9.9530    5.8607 H   0  0  0  0  0  0  0  0  0  0  0  0
   -0.3953    8.8572    3.7523 H   0  0  0  0  0  0  0  0  0  0  0  0
    0.3502    7.2634    3.8808 H   0  0  0  0  0  0  0  0  0  0  0  0
    1.9577    9.6383    3.0107 H   0  0  0  0  0  0  0  0  0  0  0  0
    1.9957    8.6272   -0.3631 H   0  0  0  0  0  0  0  0  0  0  0  0
    3.3214    8.2660    0.7679 H   0  0  0  0  0  0  0  0  0  0  0  0
    1.0779   11.4392    1.6287 H   0  0  0  0  0  0  0  0  0  0  0  0
    0.5312   10.4537    0.2985 H   0  0  0  0  0  0  0  0  0  0  0  0
    0.6990   13.0271   -0.0241 H   0  0  0  0  0  0  0  0  0  0  0  0
    2.5894   13.4284   -2.2493 H   0  0  0  0  0  0  0  0  0  0  0  0
    0.4425   11.1256   -4.3278 H   0  0  0  0  0  0  0  0  0  0  0  0
    1.7511   12.6223   -7.8983 H   0  0  0  0  0  0  0  0  0  0  0  0
    3.7227   14.1471   -8.0640 H   0  0  0  0  0  0  0  0  0  0  0  0
    5.4487   15.5184   -6.9595 H   0  0  0  0  0  0  0  0  0  0  0  0
    5.5204   15.6616   -4.4872 H   0  0  0  0  0  0  0  0  0  0  0  0
    3.9627   14.4169   -3.1354 H   0  0  0  0  0  0  0  0  0  0  0  0
    2.1221   15.0597    0.1877 H   0  0  0  0  0  0  0  0  0  0  0  0
    6.1450   14.4185    1.5844 H   0  0  0  0  0  0  0  0  0  0  0  0
    5.9657   12.0136    1.0594 H   0  0  0  0  0  0  0  0  0  0  0  0
    4.6444   10.1483    0.3327 H   0  0  0  0  0  0  0  0  0  0  0  0
    3.5674   10.5257   -1.0071 H   0  0  0  0  0  0  0  0  0  0  0  0
    2.7996    7.3988    5.1757 H   0  0  0  0  0  0  0  0  0  0  0  0
    3.6409    7.9128    7.4295 H   0  0  0  0  0  0  0  0  0  0  0  0
  1  2  1  0  0  0  0
  1 38  1  0  0  0  0
  1 39  1  0  0  0  0
  1 40  1  0  0  0  0
  2  3  1  0  0  0  0
  2 41  1  0  0  0  0
  2 42  1  0  0  0  0
  3  4  1  0  0  0  0
  3 37  2  0  0  0  0
  4  5  2  0  0  0  0
  4 43  1  0  0  0  0
  5  6  1  0  0  0  0
  5 44  1  0  0  0  0
  6  7  1  0  0  0  0
  6 36  2  0  0  0  0
  7  8  1  0  0  0  0
  7 45  1  0  0  0  0
  7 46  1  0  0  0  0
  8  9  1  0  0  0  0
  8 47  1  0  0  0  0
  9 10  2  0  0  0  0
  9 11  1  0  0  0  0
 11 12  1  0  0  0  0
 11 48  1  0  0  0  0
 11 49  1  0  0  0  0
 12 13  1  0  0  0  0
 12 35  1  0  0  0  0
 13 14  1  0  0  0  0
 13 50  1  0  0  0  0
 13 51  1  0  0  0  0
 14 28  1  0  0  0  0
 14 15  1  0  0  0  0
 14 52  1  1  0  0  0
 15 16  2  0  0  0  0
 15 17  1  0  0  0  0
 17 18  1  0  0  0  0
 17 53  1  0  0  0  0
 18 19  1  0  0  0  0
 18 27  2  0  0  0  0
 19 20  2  0  0  0  0
 19 54  1  0  0  0  0
 20 21  1  0  0  0  0
 21 22  2  0  0  0  0
 21 55  1  0  0  0  0
 22 23  1  0  0  0  0
 22 27  1  0  0  0  0
 23 24  2  0  0  0  0
 23 56  1  0  0  0  0
 24 25  1  0  0  0  0
 24 57  1  0  0  0  0
 25 26  2  0  0  0  0
 25 58  1  0  0  0  0
 26 27  1  0  0  0  0
 26 59  1  0  0  0  0
 28 29  1  0  0  0  0
 28 34  2  0  0  0  0
 29 30  2  0  0  0  0
 29 60  1  0  0  0  0
 30 31  1  0  0  0  0
 30 32  1  0  0  0  0
 32 33  2  0  0  0  0
 32 61  1  0  0  0  0
 33 34  1  0  0  0  0
 33 62  1  0  0  0  0
 34 35  1  0  0  0  0
 35 63  1  0  0  0  0
 35 64  1  0  0  0  0
 36 37  1  0  0  0  0
 36 65  1  0  0  0  0
 37 66  1  0  0  0  0
M  END
$$$$
