
 OpenBabel07202414193D

 45 48  0  0  1  0  0  0  0  0999 V2000
    1.7632    0.3153   -0.9109 O   0  0  0  0  0  0  0  0  0  0  0  0
    2.2418   -0.6011   -0.0524 C   0  0  0  0  0  0  0  0  0  0  0  0
    2.0314   -1.7994   -0.1800 O   0  0  0  0  0  0  0  0  0  0  0  0
    3.0490   -0.0303    1.0929 C   0  0  0  0  0  0  0  0  0  0  0  0
    4.5695    0.0841    0.8039 C   0  0  3  0  0  0  0  0  0  0  0  0
    4.7862    1.1360   -0.3230 C   0  0  0  0  0  0  0  0  0  0  0  0
    3.8222    1.7339   -0.8039 O   0  0  0  0  0  0  0  0  0  0  0  0
    6.1086    1.4067   -0.6240 N   0  0  0  0  0  0  0  0  0  0  0  0
    6.6053    2.3570   -1.5598 C   0  0  0  0  0  0  0  0  0  0  0  0
    5.7788    3.0826   -2.4191 C   0  0  0  0  0  0  0  0  0  0  0  0
    6.2172    3.8638   -3.4329 N   0  0  0  0  0  0  0  0  0  0  0  0
    7.5518    3.9571   -3.5870 C   0  0  0  0  0  0  0  0  0  0  0  0
    8.4854    3.3784   -2.7306 C   0  0  0  0  0  0  0  0  0  0  0  0
    9.8617    3.6106   -2.9034 C   0  0  0  0  0  0  0  0  0  0  0  0
   10.7885    3.0864   -2.0072 C   0  0  0  0  0  0  0  0  0  0  0  0
   10.3505    2.3133   -0.9408 C   0  0  0  0  0  0  0  0  0  0  0  0
    8.9864    2.0499   -0.7785 C   0  0  0  0  0  0  0  0  0  0  0  0
    8.0110    2.5680   -1.6706 C   0  0  0  0  0  0  0  0  0  0  0  0
    5.1892   -1.2839    0.4401 C   0  0  0  0  0  0  0  0  0  0  0  0
    5.2656   -2.1686    1.6782 C   0  0  0  0  0  0  0  0  0  0  0  0
    6.1312   -1.6102    2.6680 O   0  0  0  0  0  0  0  0  0  0  0  0
    5.9617   -0.2774    2.9179 C   0  0  0  0  0  0  0  0  0  0  0  0
    6.6157    0.2067    4.0569 C   0  0  0  0  0  0  0  0  0  0  0  0
    6.5621    1.5643    4.3760 C   0  0  0  0  0  0  0  0  0  0  0  0
    5.8415    2.4336    3.5656 C   0  0  0  0  0  0  0  0  0  0  0  0
    5.8009    4.1145    3.9265 Cl  0  0  0  0  0  0  0  0  0  0  0  0
    5.1728    1.9550    2.4418 C   0  0  0  0  0  0  0  0  0  0  0  0
    5.2414    0.5912    2.0875 C   0  0  0  0  0  0  0  0  0  0  0  0
    2.1958    1.1980   -0.8226 H   0  0  0  0  0  0  0  0  0  0  0  0
    2.8533   -0.6704    1.9616 H   0  0  0  0  0  0  0  0  0  0  0  0
    2.6123    0.9381    1.3703 H   0  0  0  0  0  0  0  0  0  0  0  0
    6.8041    0.8837   -0.1152 H   0  0  0  0  0  0  0  0  0  0  0  0
    4.6979    3.0672   -2.3467 H   0  0  0  0  0  0  0  0  0  0  0  0
    7.8611    4.5507   -4.4441 H   0  0  0  0  0  0  0  0  0  0  0  0
   10.2186    4.2270   -3.7267 H   0  0  0  0  0  0  0  0  0  0  0  0
   11.8477    3.2969   -2.1316 H   0  0  0  0  0  0  0  0  0  0  0  0
   11.0681    1.9216   -0.2235 H   0  0  0  0  0  0  0  0  0  0  0  0
    8.7037    1.4662    0.0925 H   0  0  0  0  0  0  0  0  0  0  0  0
    6.2092   -1.1583    0.0552 H   0  0  0  0  0  0  0  0  0  0  0  0
    4.6286   -1.7858   -0.3543 H   0  0  0  0  0  0  0  0  0  0  0  0
    5.6803   -3.1460    1.4067 H   0  0  0  0  0  0  0  0  0  0  0  0
    4.2843   -2.3609    2.1262 H   0  0  0  0  0  0  0  0  0  0  0  0
    7.1732   -0.4753    4.6901 H   0  0  0  0  0  0  0  0  0  0  0  0
    7.0789    1.9320    5.2560 H   0  0  0  0  0  0  0  0  0  0  0  0
    4.6220    2.6632    1.8244 H   0  0  0  0  0  0  0  0  0  0  0  0
  1  2  1  0  0  0  0
  1 29  1  0  0  0  0
  2  3  2  0  0  0  0
  2  4  1  0  0  0  0
  4  5  1  0  0  0  0
  4 30  1  0  0  0  0
  4 31  1  0  0  0  0
  5  6  1  0  0  0  0
  5 19  1  0  0  0  0
  5 28  1  0  0  0  0
  6  7  2  0  0  0  0
  6  8  1  0  0  0  0
  8  9  1  0  0  0  0
  8 32  1  0  0  0  0
  9 10  1  0  0  0  0
  9 18  2  0  0  0  0
 10 11  2  0  0  0  0
 10 33  1  0  0  0  0
 11 12  1  0  0  0  0
 12 13  2  0  0  0  0
 12 34  1  0  0  0  0
 13 14  1  0  0  0  0
 13 18  1  0  0  0  0
 14 15  2  0  0  0  0
 14 35  1  0  0  0  0
 15 16  1  0  0  0  0
 15 36  1  0  0  0  0
 16 17  2  0  0  0  0
 16 37  1  0  0  0  0
 17 18  1  0  0  0  0
 17 38  1  0  0  0  0
 19 20  1  0  0  0  0
 19 39  1  0  0  0  0
 19 40  1  0  0  0  0
 20 21  1  0  0  0  0
 20 41  1  0  0  0  0
 20 42  1  0  0  0  0
 21 22  1  0  0  0  0
 22 23  1  0  0  0  0
 22 28  2  0  0  0  0
 23 24  2  0  0  0  0
 23 43  1  0  0  0  0
 24 25  1  0  0  0  0
 24 44  1  0  0  0  0
 25 26  1  0  0  0  0
 25 27  2  0  0  0  0
 27 28  1  0  0  0  0
 27 45  1  0  0  0  0
M  END
$$$$
