
 OpenBabel07202414173D

 65 71  0  0  1  0  0  0  0  0999 V2000
    0.7902    0.5129    0.0669 Cl  0  0  0  0  0  0  0  0  0  0  0  0
    2.5038    0.3661    0.0779 C   0  0  0  0  0  0  0  0  0  0  0  0
    3.2966    1.5079    0.0711 C   0  0  0  0  0  0  0  0  0  0  0  0
    4.6802    1.3807    0.0822 C   0  0  0  0  0  0  0  0  0  0  0  0
    5.2786    0.1122    0.1098 C   0  0  0  0  0  0  0  0  0  0  0  0
    4.4780   -1.0560    0.1019 C   0  0  0  0  0  0  0  0  0  0  0  0
    3.0818   -0.9027    0.0893 C   0  0  0  0  0  0  0  0  0  0  0  0
    5.1170   -2.4483    0.1514 C   0  0  3  0  0  0  0  0  0  0  0  0
    6.6249   -2.3736   -0.0382 C   0  0  0  0  0  0  0  0  0  0  0  0
    7.3049   -1.2185    0.5274 N   0  0  3  0  0  0  0  0  0  0  0  0
    7.9941   -1.3841    1.8253 C   0  0  0  0  0  0  0  0  0  0  0  0
    9.0423   -2.5231    1.8254 C   0  0  0  0  0  0  0  0  0  0  0  0
    9.1736   -3.2501    2.8083 O   0  0  0  0  0  0  0  0  0  0  0  0
    9.8635   -2.7281    0.7164 N   0  0  0  0  0  0  0  0  0  0  0  0
    9.6629   -2.1115   -0.5670 C   0  0  0  0  0  0  0  0  0  0  0  0
   10.7687   -2.1996   -1.5537 C   0  0  0  0  0  0  0  0  0  0  0  0
   10.5066   -1.4712   -2.8567 C   0  0  0  0  0  0  0  0  0  0  0  0
   10.6077   -2.9663   -2.8485 C   0  0  0  0  0  0  0  0  0  0  0  0
    7.1533   -1.0886    3.0610 C   0  0  0  0  0  0  0  0  0  0  0  0
    8.3329   -0.2305    2.7646 C   0  0  0  0  0  0  0  0  0  0  0  0
    6.7850    0.0460    0.0655 C   0  0  0  0  0  0  0  0  0  0  0  0
    4.5787   -3.4123   -0.9370 C   0  0  0  0  0  0  0  0  0  0  0  0
    3.6694   -4.3908   -0.2293 C   0  0  0  0  0  0  0  0  0  0  0  0
    3.6776   -4.0103    1.1548 N   0  0  0  0  0  0  0  0  0  0  0  0
    2.7132   -4.4931    2.0728 C   0  0  0  0  0  0  0  0  0  0  0  0
    2.1528   -5.7520    1.8239 C   0  0  0  0  0  0  0  0  0  0  0  0
    1.1025   -6.2838    2.4748 N   0  0  0  0  0  0  0  0  0  0  0  0
    0.6158   -5.5467    3.4904 C   0  0  0  0  0  0  0  0  0  0  0  0
    1.1382   -4.3267    3.9193 C   0  0  0  0  0  0  0  0  0  0  0  0
    0.5948   -3.6929    5.0513 C   0  0  0  0  0  0  0  0  0  0  0  0
    1.0676   -2.4571    5.4761 C   0  0  0  0  0  0  0  0  0  0  0  0
    2.0453   -1.8150    4.7359 C   0  0  0  0  0  0  0  0  0  0  0  0
    2.5901   -2.4368    3.5995 C   0  0  0  0  0  0  0  0  0  0  0  0
    2.1980   -3.7501    3.1865 C   0  0  0  0  0  0  0  0  0  0  0  0
    4.7517   -3.1798    1.4435 C   0  0  0  0  0  0  0  0  0  0  0  0
    5.2779   -3.0540    2.5322 O   0  0  0  0  0  0  0  0  0  0  0  0
    2.8487    2.4957    0.0578 H   0  0  0  0  0  0  0  0  0  0  0  0
    5.2939    2.2797    0.0677 H   0  0  0  0  0  0  0  0  0  0  0  0
    2.4289   -1.7704    0.1053 H   0  0  0  0  0  0  0  0  0  0  0  0
    6.8045   -2.3102   -1.1229 H   0  0  0  0  0  0  0  0  0  0  0  0
    7.0898   -3.3166    0.2755 H   0  0  0  0  0  0  0  0  0  0  0  0
   10.3437   -3.6171    0.7599 H   0  0  0  0  0  0  0  0  0  0  0  0
    9.4514   -1.0490   -0.4193 H   0  0  0  0  0  0  0  0  0  0  0  0
    8.8173   -2.6215   -1.0225 H   0  0  0  0  0  0  0  0  0  0  0  0
   11.7467   -2.0813   -1.1124 H   0  0  0  0  0  0  0  0  0  0  0  0
   11.3121   -0.8879   -3.2831 H   0  0  0  0  0  0  0  0  0  0  0  0
    9.5232   -1.0349   -3.0216 H   0  0  0  0  0  0  0  0  0  0  0  0
   11.4878   -3.4096   -3.2963 H   0  0  0  0  0  0  0  0  0  0  0  0
    9.6953   -3.5288   -3.0234 H   0  0  0  0  0  0  0  0  0  0  0  0
    7.1893   -1.7976    3.8785 H   0  0  0  0  0  0  0  0  0  0  0  0
    6.1697   -0.6462    2.9310 H   0  0  0  0  0  0  0  0  0  0  0  0
    9.1678   -0.3412    3.4505 H   0  0  0  0  0  0  0  0  0  0  0  0
    8.1544    0.7945    2.4773 H   0  0  0  0  0  0  0  0  0  0  0  0
    7.0851    0.1772   -0.9835 H   0  0  0  0  0  0  0  0  0  0  0  0
    7.2248    0.8956    0.5940 H   0  0  0  0  0  0  0  0  0  0  0  0
    5.3857   -3.9878   -1.4130 H   0  0  0  0  0  0  0  0  0  0  0  0
    4.0637   -2.8932   -1.7522 H   0  0  0  0  0  0  0  0  0  0  0  0
    4.0821   -5.4061   -0.3142 H   0  0  0  0  0  0  0  0  0  0  0  0
    2.6559   -4.3703   -0.6399 H   0  0  0  0  0  0  0  0  0  0  0  0
    2.5639   -6.4095    1.0630 H   0  0  0  0  0  0  0  0  0  0  0  0
   -0.2643   -5.9741    3.9628 H   0  0  0  0  0  0  0  0  0  0  0  0
   -0.1912   -4.1776    5.6275 H   0  0  0  0  0  0  0  0  0  0  0  0
    0.6680   -1.9972    6.3760 H   0  0  0  0  0  0  0  0  0  0  0  0
    2.4024   -0.8331    5.0366 H   0  0  0  0  0  0  0  0  0  0  0  0
    3.3393   -1.8702    3.0649 H   0  0  0  0  0  0  0  0  0  0  0  0
  1  2  1  0  0  0  0
  2  3  1  0  0  0  0
  2  7  2  0  0  0  0
  3  4  2  0  0  0  0
  3 37  1  0  0  0  0
  4  5  1  0  0  0  0
  4 38  1  0  0  0  0
  5  6  2  0  0  0  0
  5 21  1  0  0  0  0
  6  7  1  0  0  0  0
  6  8  1  0  0  0  0
  7 39  1  0  0  0  0
  8  9  1  0  0  0  0
  8 22  1  0  0  0  0
  8 35  1  0  0  0  0
  9 10  1  0  0  0  0
  9 40  1  0  0  0  0
  9 41  1  0  0  0  0
 10 11  1  0  0  0  0
 10 21  1  0  0  0  0
 11 12  1  0  0  0  0
 11 19  1  0  0  0  0
 11 20  1  0  0  0  0
 12 13  2  0  0  0  0
 12 14  1  0  0  0  0
 14 15  1  0  0  0  0
 14 42  1  0  0  0  0
 15 16  1  0  0  0  0
 15 43  1  0  0  0  0
 15 44  1  0  0  0  0
 16 17  1  0  0  0  0
 16 18  1  0  0  0  0
 16 45  1  0  0  0  0
 17 18  1  0  0  0  0
 17 46  1  0  0  0  0
 17 47  1  0  0  0  0
 18 48  1  0  0  0  0
 18 49  1  0  0  0  0
 19 20  1  0  0  0  0
 19 50  1  0  0  0  0
 19 51  1  0  0  0  0
 20 52  1  0  0  0  0
 20 53  1  0  0  0  0
 21 54  1  0  0  0  0
 21 55  1  0  0  0  0
 22 23  1  0  0  0  0
 22 56  1  0  0  0  0
 22 57  1  0  0  0  0
 23 24  1  0  0  0  0
 23 58  1  0  0  0  0
 23 59  1  0  0  0  0
 24 25  1  0  0  0  0
 24 35  1  0  0  0  0
 25 26  1  0  0  0  0
 25 34  2  0  0  0  0
 26 27  2  0  0  0  0
 26 60  1  0  0  0  0
 27 28  1  0  0  0  0
 28 29  2  0  0  0  0
 28 61  1  0  0  0  0
 29 30  1  0  0  0  0
 29 34  1  0  0  0  0
 30 31  2  0  0  0  0
 30 62  1  0  0  0  0
 31 32  1  0  0  0  0
 31 63  1  0  0  0  0
 32 33  2  0  0  0  0
 32 64  1  0  0  0  0
 33 34  1  0  0  0  0
 33 65  1  0  0  0  0
 35 36  2  0  0  0  0
M  END
$$$$
