
 OpenBabel07202414143D

 65 69  0  0  1  0  0  0  0  0999 V2000
    2.7505  -11.2910   -3.5991 C   0  0  0  0  0  0  0  0  0  0  0  0
    2.7881  -10.2697   -4.5963 O   0  0  0  0  0  0  0  0  0  0  0  0
    3.1272   -9.0400   -4.1171 C   0  0  0  0  0  0  0  0  0  0  0  0
    3.4038   -8.7926   -2.9518 O   0  0  0  0  0  0  0  0  0  0  0  0
    3.1208   -8.0388   -5.2410 C   0  0  0  0  0  0  0  0  0  0  0  0
    3.4299   -6.6401   -4.7138 C   0  0  0  0  0  0  0  0  0  0  0  0
    3.4967   -5.5950   -5.7757 C   0  0  0  0  0  0  0  0  0  0  0  0
    2.7138   -5.6594   -6.8610 N   0  0  0  0  0  0  0  0  0  0  0  0
    3.0526   -4.5683   -7.6382 O   0  0  0  0  0  0  0  0  0  0  0  0
    4.0096   -3.8470   -7.0069 C   0  0  0  0  0  0  0  0  0  0  0  0
    4.3242   -4.4375   -5.8070 C   0  0  0  0  0  0  0  0  0  0  0  0
    5.3216   -3.9899   -4.8062 C   0  0  0  0  0  0  0  0  0  0  0  0
    6.5547   -4.7115   -5.1000 N   0  0  0  0  0  0  0  0  0  0  0  0
    7.6296   -4.3356   -4.1754 C   0  0  0  0  0  0  0  0  0  0  0  0
    8.9788   -5.0759   -4.4825 C   0  0  3  0  0  0  0  0  0  0  0  0
    9.5136   -4.5689   -5.8571 C   0  0  0  0  0  0  0  0  0  0  0  0
    8.9495   -3.6654   -6.4653 O   0  0  0  0  0  0  0  0  0  0  0  0
   10.6269   -5.2417   -6.3254 N   0  0  0  0  0  0  0  0  0  0  0  0
   11.3069   -5.0450   -7.5600 C   0  0  0  0  0  0  0  0  0  0  0  0
   10.9504   -4.0678   -8.4885 C   0  0  0  0  0  0  0  0  0  0  0  0
   11.7205   -3.6918   -9.5379 N   0  0  0  0  0  0  0  0  0  0  0  0
   12.8739   -4.3669   -9.7124 C   0  0  0  0  0  0  0  0  0  0  0  0
   13.2490   -5.4822   -8.9666 C   0  0  0  0  0  0  0  0  0  0  0  0
   14.3793   -6.2430   -9.3121 C   0  0  0  0  0  0  0  0  0  0  0  0
   14.6993   -7.4016   -8.6104 C   0  0  0  0  0  0  0  0  0  0  0  0
   13.9146   -7.7908   -7.5311 C   0  0  0  0  0  0  0  0  0  0  0  0
   12.8119   -7.0185   -7.1547 C   0  0  0  0  0  0  0  0  0  0  0  0
   12.4438   -5.8460   -7.8633 C   0  0  0  0  0  0  0  0  0  0  0  0
    8.7807   -6.6088   -4.5533 C   0  0  0  0  0  0  0  0  0  0  0  0
    8.4439   -7.1662   -3.1857 C   0  0  0  0  0  0  0  0  0  0  0  0
    9.4999   -6.9363   -2.2540 O   0  0  0  0  0  0  0  0  0  0  0  0
   10.0023   -5.6649   -2.2318 C   0  0  0  0  0  0  0  0  0  0  0  0
   10.6486   -5.3120   -1.0445 C   0  0  0  0  0  0  0  0  0  0  0  0
   11.1691   -4.0292   -0.8840 C   0  0  0  0  0  0  0  0  0  0  0  0
   11.0910   -3.1247   -1.9353 C   0  0  0  0  0  0  0  0  0  0  0  0
   11.7096   -1.5288   -1.7235 Cl  0  0  0  0  0  0  0  0  0  0  0  0
   10.4728   -3.4756   -3.1383 C   0  0  0  0  0  0  0  0  0  0  0  0
    9.8916   -4.7507   -3.2939 C   0  0  0  0  0  0  0  0  0  0  0  0
    2.4873  -12.2334   -4.0874 H   0  0  0  0  0  0  0  0  0  0  0  0
    1.9860  -11.0626   -2.8504 H   0  0  0  0  0  0  0  0  0  0  0  0
    3.7321  -11.4070   -3.1287 H   0  0  0  0  0  0  0  0  0  0  0  0
    2.1297   -8.0594   -5.7107 H   0  0  0  0  0  0  0  0  0  0  0  0
    3.8709   -8.3423   -5.9804 H   0  0  0  0  0  0  0  0  0  0  0  0
    4.3874   -6.6674   -4.1757 H   0  0  0  0  0  0  0  0  0  0  0  0
    2.6730   -6.3435   -3.9770 H   0  0  0  0  0  0  0  0  0  0  0  0
    4.3584   -2.9710   -7.5333 H   0  0  0  0  0  0  0  0  0  0  0  0
    4.9665   -4.2165   -3.7931 H   0  0  0  0  0  0  0  0  0  0  0  0
    5.4705   -2.9049   -4.8755 H   0  0  0  0  0  0  0  0  0  0  0  0
    6.8543   -4.4386   -6.0436 H   0  0  0  0  0  0  0  0  0  0  0  0
    7.3051   -4.5522   -3.1489 H   0  0  0  0  0  0  0  0  0  0  0  0
    7.7846   -3.2486   -4.2204 H   0  0  0  0  0  0  0  0  0  0  0  0
   11.0862   -5.8586   -5.6724 H   0  0  0  0  0  0  0  0  0  0  0  0
   10.0174   -3.5186   -8.4327 H   0  0  0  0  0  0  0  0  0  0  0  0
   13.5003   -3.9864  -10.5150 H   0  0  0  0  0  0  0  0  0  0  0  0
   14.9976   -5.9597  -10.1651 H   0  0  0  0  0  0  0  0  0  0  0  0
   15.5445   -8.0098   -8.9139 H   0  0  0  0  0  0  0  0  0  0  0  0
   14.1443   -8.7058   -6.9919 H   0  0  0  0  0  0  0  0  0  0  0  0
   12.2138   -7.3907   -6.3287 H   0  0  0  0  0  0  0  0  0  0  0  0
    9.7007   -7.1077   -4.8826 H   0  0  0  0  0  0  0  0  0  0  0  0
    8.0114   -6.8820   -5.2840 H   0  0  0  0  0  0  0  0  0  0  0  0
    8.3195   -8.2520   -3.2618 H   0  0  0  0  0  0  0  0  0  0  0  0
    7.5075   -6.7693   -2.7811 H   0  0  0  0  0  0  0  0  0  0  0  0
   10.7005   -6.0267   -0.2251 H   0  0  0  0  0  0  0  0  0  0  0  0
   11.6165   -3.7478    0.0671 H   0  0  0  0  0  0  0  0  0  0  0  0
   10.3983   -2.7313   -3.9282 H   0  0  0  0  0  0  0  0  0  0  0  0
  1  2  1  0  0  0  0
  1 39  1  0  0  0  0
  1 40  1  0  0  0  0
  1 41  1  0  0  0  0
  2  3  1  0  0  0  0
  3  4  2  0  0  0  0
  3  5  1  0  0  0  0
  5  6  1  0  0  0  0
  5 42  1  0  0  0  0
  5 43  1  0  0  0  0
  6  7  1  0  0  0  0
  6 44  1  0  0  0  0
  6 45  1  0  0  0  0
  7  8  2  0  0  0  0
  7 11  1  0  0  0  0
  8  9  1  0  0  0  0
  9 10  1  0  0  0  0
 10 11  2  0  0  0  0
 10 46  1  0  0  0  0
 11 12  1  0  0  0  0
 12 13  1  0  0  0  0
 12 47  1  0  0  0  0
 12 48  1  0  0  0  0
 13 14  1  0  0  0  0
 13 49  1  0  0  0  0
 14 15  1  0  0  0  0
 14 50  1  0  0  0  0
 14 51  1  0  0  0  0
 15 16  1  0  0  0  0
 15 29  1  0  0  0  0
 15 38  1  0  0  0  0
 16 17  2  0  0  0  0
 16 18  1  0  0  0  0
 18 19  1  0  0  0  0
 18 52  1  0  0  0  0
 19 20  1  0  0  0  0
 19 28  2  0  0  0  0
 20 21  2  0  0  0  0
 20 53  1  0  0  0  0
 21 22  1  0  0  0  0
 22 23  2  0  0  0  0
 22 54  1  0  0  0  0
 23 24  1  0  0  0  0
 23 28  1  0  0  0  0
 24 25  2  0  0  0  0
 24 55  1  0  0  0  0
 25 26  1  0  0  0  0
 25 56  1  0  0  0  0
 26 27  2  0  0  0  0
 26 57  1  0  0  0  0
 27 28  1  0  0  0  0
 27 58  1  0  0  0  0
 29 30  1  0  0  0  0
 29 59  1  0  0  0  0
 29 60  1  0  0  0  0
 30 31  1  0  0  0  0
 30 61  1  0  0  0  0
 30 62  1  0  0  0  0
 31 32  1  0  0  0  0
 32 33  1  0  0  0  0
 32 38  2  0  0  0  0
 33 34  2  0  0  0  0
 33 63  1  0  0  0  0
 34 35  1  0  0  0  0
 34 64  1  0  0  0  0
 35 36  1  0  0  0  0
 35 37  2  0  0  0  0
 37 38  1  0  0  0  0
 37 65  1  0  0  0  0
M  END
$$$$
