
 OpenBabel07202414173D

 55 59  0  0  1  0  0  0  0  0999 V2000
    0.9383    0.0077   -0.1264 Cl  0  0  0  0  0  0  0  0  0  0  0  0
    2.6541   -0.0115   -0.0014 C   0  0  0  0  0  0  0  0  0  0  0  0
    3.3645    1.1762   -0.1413 C   0  0  0  0  0  0  0  0  0  0  0  0
    4.7542    1.1580   -0.0750 C   0  0  0  0  0  0  0  0  0  0  0  0
    5.4422   -0.0460    0.1413 C   0  0  0  0  0  0  0  0  0  0  0  0
    4.7253   -1.2449    0.3103 C   0  0  0  0  0  0  0  0  0  0  0  0
    3.3227   -1.2145    0.2264 C   0  0  0  0  0  0  0  0  0  0  0  0
    5.4610   -2.5547    0.5831 C   0  0  3  0  0  0  0  0  0  0  0  0
    5.3273   -2.9980    2.0692 C   0  0  0  0  0  0  0  0  0  0  0  0
    4.3271   -2.7201    2.7235 O   0  0  0  0  0  0  0  0  0  0  0  0
    6.3363   -3.8262    2.5344 N   0  0  0  0  0  0  0  0  0  0  0  0
    6.4931   -4.3722    3.8366 C   0  0  0  0  0  0  0  0  0  0  0  0
    5.6013   -4.1438    4.8834 C   0  0  0  0  0  0  0  0  0  0  0  0
    5.8742   -4.4121    6.1822 N   0  0  0  0  0  0  0  0  0  0  0  0
    7.0534   -5.0165    6.4392 C   0  0  0  0  0  0  0  0  0  0  0  0
    7.9293   -5.4820    5.4599 C   0  0  0  0  0  0  0  0  0  0  0  0
    9.0378   -6.2844    5.7914 C   0  0  0  0  0  0  0  0  0  0  0  0
    9.8844   -6.7706    4.7983 C   0  0  0  0  0  0  0  0  0  0  0  0
    9.6606   -6.4250    3.4734 C   0  0  0  0  0  0  0  0  0  0  0  0
    8.5680   -5.6210    3.1390 C   0  0  0  0  0  0  0  0  0  0  0  0
    7.6572   -5.1352    4.1184 C   0  0  0  0  0  0  0  0  0  0  0  0
    6.8840   -2.4637   -0.0062 C   0  0  0  0  0  0  0  0  0  0  0  0
    7.6278   -1.2712    0.5150 N   0  0  0  0  0  0  0  0  0  0  0  0
    9.2984   -1.2841    0.1162 S   0  0  0  0  0  0  0  0  0  0  0  0
    9.8329   -2.5045    0.6845 O   0  0  0  0  0  0  0  0  0  0  0  0
    9.4033   -1.0212   -1.3007 O   0  0  0  0  0  0  0  0  0  0  0  0
    9.9467    0.1172    1.0301 C   0  0  0  0  0  0  0  0  0  0  0  0
   11.4186    0.3147    0.7179 C   0  0  0  0  0  0  0  0  0  0  0  0
   12.0784    1.5215    1.4158 C   0  0  0  0  0  0  0  0  0  0  0  0
   12.8060    1.8075    0.1614 N   0  0  0  0  0  0  0  0  0  0  0  0
   11.7721    1.0623   -0.5875 C   0  0  0  0  0  0  0  0  0  0  0  0
    6.9495   -0.0121    0.1011 C   0  0  0  0  0  0  0  0  0  0  0  0
    2.8447    2.1160   -0.3108 H   0  0  0  0  0  0  0  0  0  0  0  0
    5.3021    2.0895   -0.2064 H   0  0  0  0  0  0  0  0  0  0  0  0
    2.7484   -2.1308    0.3507 H   0  0  0  0  0  0  0  0  0  0  0  0
    4.9479   -3.3451    0.0169 H   0  0  0  0  0  0  0  0  0  0  0  0
    7.1715   -3.8864    1.9792 H   0  0  0  0  0  0  0  0  0  0  0  0
    4.6186   -3.7089    4.7335 H   0  0  0  0  0  0  0  0  0  0  0  0
    7.2773   -5.1293    7.4976 H   0  0  0  0  0  0  0  0  0  0  0  0
    9.2209   -6.5704    6.8240 H   0  0  0  0  0  0  0  0  0  0  0  0
   10.7118   -7.4278    5.0572 H   0  0  0  0  0  0  0  0  0  0  0  0
   10.3211   -6.7955    2.6939 H   0  0  0  0  0  0  0  0  0  0  0  0
    8.4258   -5.4160    2.0806 H   0  0  0  0  0  0  0  0  0  0  0  0
    6.8183   -2.3839   -1.1004 H   0  0  0  0  0  0  0  0  0  0  0  0
    7.4489   -3.3797    0.1902 H   0  0  0  0  0  0  0  0  0  0  0  0
    9.7914   -0.0891    2.0942 H   0  0  0  0  0  0  0  0  0  0  0  0
    9.3829    1.0100    0.7432 H   0  0  0  0  0  0  0  0  0  0  0  0
   12.0073   -0.6026    0.8548 H   0  0  0  0  0  0  0  0  0  0  0  0
   12.7166    1.2803    2.2709 H   0  0  0  0  0  0  0  0  0  0  0  0
   11.3951    2.3280    1.7083 H   0  0  0  0  0  0  0  0  0  0  0  0
   13.7278    1.3692    0.1207 H   0  0  0  0  0  0  0  0  0  0  0  0
   12.1584    0.4463   -1.4042 H   0  0  0  0  0  0  0  0  0  0  0  0
   10.9854    1.7167   -0.9863 H   0  0  0  0  0  0  0  0  0  0  0  0
    7.2370    0.2437   -0.9263 H   0  0  0  0  0  0  0  0  0  0  0  0
    7.2707    0.7862    0.7765 H   0  0  0  0  0  0  0  0  0  0  0  0
  1  2  1  0  0  0  0
  2  3  1  0  0  0  0
  2  7  2  0  0  0  0
  3  4  2  0  0  0  0
  3 33  1  0  0  0  0
  4  5  1  0  0  0  0
  4 34  1  0  0  0  0
  5  6  2  0  0  0  0
  5 32  1  0  0  0  0
  6  7  1  0  0  0  0
  6  8  1  0  0  0  0
  7 35  1  0  0  0  0
  8  9  1  0  0  0  0
  8 22  1  0  0  0  0
  8 36  1  0  0  0  0
  9 10  2  0  0  0  0
  9 11  1  0  0  0  0
 11 12  1  0  0  0  0
 11 37  1  0  0  0  0
 12 13  1  0  0  0  0
 12 21  2  0  0  0  0
 13 14  2  0  0  0  0
 13 38  1  0  0  0  0
 14 15  1  0  0  0  0
 15 16  2  0  0  0  0
 15 39  1  0  0  0  0
 16 17  1  0  0  0  0
 16 21  1  0  0  0  0
 17 18  2  0  0  0  0
 17 40  1  0  0  0  0
 18 19  1  0  0  0  0
 18 41  1  0  0  0  0
 19 20  2  0  0  0  0
 19 42  1  0  0  0  0
 20 21  1  0  0  0  0
 20 43  1  0  0  0  0
 22 23  1  0  0  0  0
 22 44  1  0  0  0  0
 22 45  1  0  0  0  0
 23 24  1  0  0  0  0
 23 32  1  0  0  0  0
 24 25  2  0  0  0  0
 24 26  2  0  0  0  0
 24 27  1  0  0  0  0
 27 28  1  0  0  0  0
 27 46  1  0  0  0  0
 27 47  1  0  0  0  0
 28 29  1  0  0  0  0
 28 31  1  0  0  0  0
 28 48  1  0  0  0  0
 29 30  1  0  0  0  0
 29 49  1  0  0  0  0
 29 50  1  0  0  0  0
 30 31  1  0  0  0  0
 30 51  1  0  0  0  0
 31 52  1  0  0  0  0
 31 53  1  0  0  0  0
 32 54  1  0  0  0  0
 32 55  1  0  0  0  0
M  END
$$$$
