
 OpenBabel07202414113D

 51 53  0  0  0  0  0  0  0  0999 V2000
    0.7234   -2.1254   -2.1469 C   0  0  0  0  0  0  0  0  0  0  0  0
    2.2177   -2.0042   -2.2683 C   0  0  0  0  0  0  0  0  0  0  0  0
    2.7643   -1.0001   -2.7088 O   0  0  0  0  0  0  0  0  0  0  0  0
    2.8963   -3.1251   -1.8442 N   0  0  0  0  0  0  0  0  0  0  0  0
    4.3498   -3.1907   -1.8720 C   0  0  0  0  0  0  0  0  0  0  0  0
    4.9773   -2.5621   -0.6271 C   0  0  0  0  0  0  0  0  0  0  0  0
    6.4783   -2.6173   -0.5692 C   0  0  0  0  0  0  0  0  0  0  0  0
    7.3794   -2.5794   -1.6144 C   0  0  0  0  0  0  0  0  0  0  0  0
    8.6499   -2.6169   -1.0964 N   0  0  0  0  0  0  0  0  0  0  0  0
    8.6146   -2.6470    0.2796 C   0  0  0  0  0  0  0  0  0  0  0  0
    7.2601   -2.6726    0.6319 C   0  0  0  0  0  0  0  0  0  0  0  0
    6.9116   -2.7415    1.9945 C   0  0  0  0  0  0  0  0  0  0  0  0
    7.9136   -2.8012    2.9595 C   0  0  0  0  0  0  0  0  0  0  0  0
    9.2512   -2.7743    2.5807 C   0  0  0  0  0  0  0  0  0  0  0  0
    9.6618   -2.6745    1.2299 C   0  0  0  0  0  0  0  0  0  0  0  0
   11.1437   -2.7111    0.9085 C   0  0  0  0  0  0  0  0  0  0  0  0
   11.9211   -1.4697    0.8893 N   0  0  0  0  0  0  0  0  0  0  0  0
   11.8113   -0.5807    2.0431 C   0  0  0  0  0  0  0  0  0  0  0  0
   10.6231    0.3952    2.0022 C   0  0  0  0  0  0  0  0  0  0  0  0
   10.3888    1.0432    0.7079 N   0  0  0  0  0  0  0  0  0  0  0  0
   10.7825    0.3261   -0.5055 C   0  0  0  0  0  0  0  0  0  0  0  0
   11.9145   -0.6976   -0.3509 C   0  0  0  0  0  0  0  0  0  0  0  0
    9.3609    1.9855    0.5222 C   0  0  0  0  0  0  0  0  0  0  0  0
    9.1459    2.4724   -0.5892 O   0  0  0  0  0  0  0  0  0  0  0  0
    8.5177    2.3132    1.7497 C   0  0  0  0  0  0  0  0  0  0  0  0
    7.2341    3.4844    1.3837 Cl  0  0  0  0  0  0  0  0  0  0  0  0
    0.2492   -1.2262   -2.5510 H   0  0  0  0  0  0  0  0  0  0  0  0
    0.4418   -2.2321   -1.0960 H   0  0  0  0  0  0  0  0  0  0  0  0
    0.3733   -2.9908   -2.7164 H   0  0  0  0  0  0  0  0  0  0  0  0
    2.3847   -3.8647   -1.3806 H   0  0  0  0  0  0  0  0  0  0  0  0
    4.7012   -2.6870   -2.7792 H   0  0  0  0  0  0  0  0  0  0  0  0
    4.6192   -4.2497   -1.9483 H   0  0  0  0  0  0  0  0  0  0  0  0
    4.5667   -3.0769    0.2519 H   0  0  0  0  0  0  0  0  0  0  0  0
    4.6654   -1.5140   -0.5380 H   0  0  0  0  0  0  0  0  0  0  0  0
    7.2283   -2.5182   -2.6840 H   0  0  0  0  0  0  0  0  0  0  0  0
    9.4965   -2.6045   -1.6503 H   0  0  0  0  0  0  0  0  0  0  0  0
    5.8680   -2.7724    2.2936 H   0  0  0  0  0  0  0  0  0  0  0  0
    7.6441   -2.8833    4.0079 H   0  0  0  0  0  0  0  0  0  0  0  0
   10.0074   -2.8423    3.3610 H   0  0  0  0  0  0  0  0  0  0  0  0
   11.2890   -3.2506   -0.0364 H   0  0  0  0  0  0  0  0  0  0  0  0
   11.6171   -3.3675    1.6521 H   0  0  0  0  0  0  0  0  0  0  0  0
   12.7306    0.0200    2.0778 H   0  0  0  0  0  0  0  0  0  0  0  0
   11.8121   -1.1425    2.9840 H   0  0  0  0  0  0  0  0  0  0  0  0
   10.7992    1.1878    2.7396 H   0  0  0  0  0  0  0  0  0  0  0  0
    9.7006   -0.1086    2.2946 H   0  0  0  0  0  0  0  0  0  0  0  0
   11.0760    1.0657   -1.2615 H   0  0  0  0  0  0  0  0  0  0  0  0
    9.8861   -0.1716   -0.8869 H   0  0  0  0  0  0  0  0  0  0  0  0
   12.8639   -0.1446   -0.3849 H   0  0  0  0  0  0  0  0  0  0  0  0
   11.9452   -1.3552   -1.2281 H   0  0  0  0  0  0  0  0  0  0  0  0
    9.1394    2.7407    2.5384 H   0  0  0  0  0  0  0  0  0  0  0  0
    8.0245    1.4035    2.1035 H   0  0  0  0  0  0  0  0  0  0  0  0
  1  2  1  0  0  0  0
  1 27  1  0  0  0  0
  1 28  1  0  0  0  0
  1 29  1  0  0  0  0
  2  3  2  0  0  0  0
  2  4  1  0  0  0  0
  4  5  1  0  0  0  0
  4 30  1  0  0  0  0
  5  6  1  0  0  0  0
  5 31  1  0  0  0  0
  5 32  1  0  0  0  0
  6  7  1  0  0  0  0
  6 33  1  0  0  0  0
  6 34  1  0  0  0  0
  7  8  2  0  0  0  0
  7 11  1  0  0  0  0
  8  9  1  0  0  0  0
  8 35  1  0  0  0  0
  9 10  1  0  0  0  0
  9 36  1  0  0  0  0
 10 11  1  0  0  0  0
 10 15  2  0  0  0  0
 11 12  2  0  0  0  0
 12 13  1  0  0  0  0
 12 37  1  0  0  0  0
 13 14  2  0  0  0  0
 13 38  1  0  0  0  0
 14 15  1  0  0  0  0
 14 39  1  0  0  0  0
 15 16  1  0  0  0  0
 16 17  1  0  0  0  0
 16 40  1  0  0  0  0
 16 41  1  0  0  0  0
 17 18  1  0  0  0  0
 17 22  1  0  0  0  0
 18 19  1  0  0  0  0
 18 42  1  0  0  0  0
 18 43  1  0  0  0  0
 19 20  1  0  0  0  0
 19 44  1  0  0  0  0
 19 45  1  0  0  0  0
 20 21  1  0  0  0  0
 20 23  1  0  0  0  0
 21 22  1  0  0  0  0
 21 46  1  0  0  0  0
 21 47  1  0  0  0  0
 22 48  1  0  0  0  0
 22 49  1  0  0  0  0
 23 24  2  0  0  0  0
 23 25  1  0  0  0  0
 25 26  1  0  0  0  0
 25 50  1  0  0  0  0
 25 51  1  0  0  0  0
M  END
$$$$
