
 OpenBabel07202414123D

 54 57  0  0  0  0  0  0  0  0999 V2000
    6.5560    8.4599    1.8544 C   0  0  0  0  0  0  0  0  0  0  0  0
    5.4079    8.3793    2.8772 C   0  0  0  0  0  0  0  0  0  0  0  0
    5.9105    8.8888    4.2405 C   0  0  0  0  0  0  0  0  0  0  0  0
    4.2744    9.3234    2.4151 C   0  0  0  0  0  0  0  0  0  0  0  0
    4.9041    6.9462    2.9578 C   0  0  0  0  0  0  0  0  0  0  0  0
    5.3092    5.9288    3.8012 C   0  0  0  0  0  0  0  0  0  0  0  0
    4.4068    4.5025    3.4884 S   0  0  0  0  0  0  0  0  0  0  0  0
    3.5714    5.3049    2.2113 C   0  0  0  0  0  0  0  0  0  0  0  0
    2.6146    4.6620    1.4996 N   0  0  0  0  0  0  0  0  0  0  0  0
    1.9444    5.1723    0.3686 C   0  0  0  0  0  0  0  0  0  0  0  0
    0.6222    4.7729    0.1152 C   0  0  0  0  0  0  0  0  0  0  0  0
   -0.1310    5.3471   -0.9264 C   0  0  0  0  0  0  0  0  0  0  0  0
   -1.5759    4.9618   -1.1458 C   0  0  0  0  0  0  0  0  0  0  0  0
   -1.8543    3.7955   -2.0787 C   0  0  0  0  0  0  0  0  0  0  0  0
   -2.9447    3.2258   -2.0364 O   0  0  0  0  0  0  0  0  0  0  0  0
   -0.8418    3.4562   -2.9544 N   0  0  0  0  0  0  0  0  0  0  0  0
   -0.9662    2.3985   -3.8840 C   0  0  0  0  0  0  0  0  0  0  0  0
   -2.1125    2.2645   -4.6738 C   0  0  0  0  0  0  0  0  0  0  0  0
   -2.2854    1.3077   -5.6096 N   0  0  0  0  0  0  0  0  0  0  0  0
   -1.2789    0.4162   -5.7438 C   0  0  0  0  0  0  0  0  0  0  0  0
   -0.0973    0.4314   -4.9981 C   0  0  0  0  0  0  0  0  0  0  0  0
    0.8850   -0.5629   -5.1552 C   0  0  0  0  0  0  0  0  0  0  0  0
    2.0364   -0.5571   -4.3697 C   0  0  0  0  0  0  0  0  0  0  0  0
    2.2249    0.4449   -3.4274 C   0  0  0  0  0  0  0  0  0  0  0  0
    1.2643    1.4439   -3.2701 C   0  0  0  0  0  0  0  0  0  0  0  0
    0.0798    1.4616   -4.0496 C   0  0  0  0  0  0  0  0  0  0  0  0
    0.4668    6.3088   -1.7510 C   0  0  0  0  0  0  0  0  0  0  0  0
    1.7789    6.7049   -1.5149 C   0  0  0  0  0  0  0  0  0  0  0  0
    2.5024    7.9002   -2.5202 Cl  0  0  0  0  0  0  0  0  0  0  0  0
    2.5070    6.1507   -0.4645 C   0  0  0  0  0  0  0  0  0  0  0  0
    3.9371    6.5559    2.0494 N   0  0  0  0  0  0  0  0  0  0  0  0
    6.9403    9.4827    1.7670 H   0  0  0  0  0  0  0  0  0  0  0  0
    6.2242    8.1421    0.8588 H   0  0  0  0  0  0  0  0  0  0  0  0
    7.3912    7.8115    2.1423 H   0  0  0  0  0  0  0  0  0  0  0  0
    6.2495    9.9293    4.1723 H   0  0  0  0  0  0  0  0  0  0  0  0
    6.7545    8.2960    4.6104 H   0  0  0  0  0  0  0  0  0  0  0  0
    5.1173    8.8465    4.9961 H   0  0  0  0  0  0  0  0  0  0  0  0
    4.6170   10.3631    2.3632 H   0  0  0  0  0  0  0  0  0  0  0  0
    3.4223    9.2840    3.1042 H   0  0  0  0  0  0  0  0  0  0  0  0
    3.9024    9.0542    1.4190 H   0  0  0  0  0  0  0  0  0  0  0  0
    6.0611    5.9501    4.5766 H   0  0  0  0  0  0  0  0  0  0  0  0
    2.2737    3.7809    1.8536 H   0  0  0  0  0  0  0  0  0  0  0  0
    0.1510    4.0399    0.7683 H   0  0  0  0  0  0  0  0  0  0  0  0
   -2.1273    5.8247   -1.5395 H   0  0  0  0  0  0  0  0  0  0  0  0
   -2.0248    4.7239   -0.1733 H   0  0  0  0  0  0  0  0  0  0  0  0
    0.0977    3.7244   -2.6952 H   0  0  0  0  0  0  0  0  0  0  0  0
   -2.9374    2.9682   -4.5960 H   0  0  0  0  0  0  0  0  0  0  0  0
   -1.4596   -0.3508   -6.4885 H   0  0  0  0  0  0  0  0  0  0  0  0
    0.7471   -1.3638   -5.8788 H   0  0  0  0  0  0  0  0  0  0  0  0
    2.7796   -1.3422   -4.4841 H   0  0  0  0  0  0  0  0  0  0  0  0
    3.1122    0.4459   -2.7993 H   0  0  0  0  0  0  0  0  0  0  0  0
    1.4402    2.1872   -2.4993 H   0  0  0  0  0  0  0  0  0  0  0  0
   -0.0933    6.7649   -2.5643 H   0  0  0  0  0  0  0  0  0  0  0  0
    3.5233    6.4973   -0.2987 H   0  0  0  0  0  0  0  0  0  0  0  0
  1  2  1  0  0  0  0
  1 32  1  0  0  0  0
  1 33  1  0  0  0  0
  1 34  1  0  0  0  0
  2  3  1  0  0  0  0
  2  4  1  0  0  0  0
  2  5  1  0  0  0  0
  3 35  1  0  0  0  0
  3 36  1  0  0  0  0
  3 37  1  0  0  0  0
  4 38  1  0  0  0  0
  4 39  1  0  0  0  0
  4 40  1  0  0  0  0
  5  6  2  0  0  0  0
  5 31  1  0  0  0  0
  6  7  1  0  0  0  0
  6 41  1  0  0  0  0
  7  8  1  0  0  0  0
  8  9  1  0  0  0  0
  8 31  2  0  0  0  0
  9 10  1  0  0  0  0
  9 42  1  0  0  0  0
 10 11  2  0  0  0  0
 10 30  1  0  0  0  0
 11 12  1  0  0  0  0
 11 43  1  0  0  0  0
 12 13  1  0  0  0  0
 12 27  2  0  0  0  0
 13 14  1  0  0  0  0
 13 44  1  0  0  0  0
 13 45  1  0  0  0  0
 14 15  2  0  0  0  0
 14 16  1  0  0  0  0
 16 17  1  0  0  0  0
 16 46  1  0  0  0  0
 17 18  2  0  0  0  0
 17 26  1  0  0  0  0
 18 19  1  0  0  0  0
 18 47  1  0  0  0  0
 19 20  2  0  0  0  0
 20 21  1  0  0  0  0
 20 48  1  0  0  0  0
 21 22  2  0  0  0  0
 21 26  1  0  0  0  0
 22 23  1  0  0  0  0
 22 49  1  0  0  0  0
 23 24  2  0  0  0  0
 23 50  1  0  0  0  0
 24 25  1  0  0  0  0
 24 51  1  0  0  0  0
 25 26  2  0  0  0  0
 25 52  1  0  0  0  0
 27 28  1  0  0  0  0
 27 53  1  0  0  0  0
 28 29  1  0  0  0  0
 28 30  2  0  0  0  0
 30 54  1  0  0  0  0
M  END
$$$$
