
 OpenBabel07202414113D

 45 48  0  0  1  0  0  0  0  0999 V2000
    1.4758    0.4514   -0.8486 C   0  0  0  0  0  0  0  0  0  0  0  0
    2.6613   -0.0118   -0.0304 C   0  0  0  0  0  0  0  0  0  0  0  0
    2.9227    0.6155    0.9965 O   0  0  0  0  0  0  0  0  0  0  0  0
    3.3530   -1.1460   -0.5031 N   0  0  0  0  0  0  0  0  0  0  0  0
    2.9242   -1.8256   -1.7331 C   0  0  0  0  0  0  0  0  0  0  0  0
    2.9916   -3.3327   -1.6063 C   0  0  0  0  0  0  0  0  0  0  0  0
    4.4335   -3.7550   -1.3700 C   0  0  3  0  0  0  0  0  0  0  0  0
    5.0350   -2.9559   -0.2347 C   0  0  0  0  0  0  0  0  0  0  0  0
    4.5243   -1.6916    0.1534 C   0  0  0  0  0  0  0  0  0  0  0  0
    5.1908   -1.0236    1.1934 C   0  0  0  0  0  0  0  0  0  0  0  0
    6.2883   -1.5904    1.8559 C   0  0  0  0  0  0  0  0  0  0  0  0
    6.7356   -2.8524    1.5013 C   0  0  0  0  0  0  0  0  0  0  0  0
    6.1187   -3.5350    0.4612 C   0  0  0  0  0  0  0  0  0  0  0  0
    8.0593   -3.5657    2.3314 Cl  0  0  0  0  0  0  0  0  0  0  0  0
    5.2005   -3.7262   -2.7018 C   0  0  0  0  0  0  0  0  0  0  0  0
    5.0271   -4.6425   -3.5082 O   0  0  0  0  0  0  0  0  0  0  0  0
    5.9977   -2.6249   -2.9706 N   0  0  0  0  0  0  0  0  0  0  0  0
    6.5805   -2.4389   -4.2569 C   0  0  0  0  0  0  0  0  0  0  0  0
    5.7947   -2.5598   -5.4124 C   0  0  0  0  0  0  0  0  0  0  0  0
    6.2482   -2.3872   -6.6721 N   0  0  0  0  0  0  0  0  0  0  0  0
    7.5668   -2.1393   -6.8010 C   0  0  0  0  0  0  0  0  0  0  0  0
    8.4616   -2.0226   -5.7373 C   0  0  0  0  0  0  0  0  0  0  0  0
    7.9578   -2.1381   -4.4146 C   0  0  0  0  0  0  0  0  0  0  0  0
    8.8921   -2.0180   -3.3593 C   0  0  0  0  0  0  0  0  0  0  0  0
   10.2598   -1.8331   -3.6102 C   0  0  0  0  0  0  0  0  0  0  0  0
   10.7310   -1.7471   -4.9075 C   0  0  0  0  0  0  0  0  0  0  0  0
    9.8349   -1.8294   -5.9691 C   0  0  0  0  0  0  0  0  0  0  0  0
    1.0308    1.3348   -0.3804 H   0  0  0  0  0  0  0  0  0  0  0  0
    0.7029   -0.3221   -0.8731 H   0  0  0  0  0  0  0  0  0  0  0  0
    1.7946    0.7268   -1.8572 H   0  0  0  0  0  0  0  0  0  0  0  0
    3.5547   -1.4482   -2.5460 H   0  0  0  0  0  0  0  0  0  0  0  0
    1.8992   -1.5737   -2.0058 H   0  0  0  0  0  0  0  0  0  0  0  0
    2.5851   -3.8025   -2.5101 H   0  0  0  0  0  0  0  0  0  0  0  0
    2.3648   -3.6573   -0.7652 H   0  0  0  0  0  0  0  0  0  0  0  0
    4.4137   -4.8108   -1.0608 H   0  0  0  0  0  0  0  0  0  0  0  0
    4.8982   -0.0328    1.5257 H   0  0  0  0  0  0  0  0  0  0  0  0
    6.7747   -1.0343    2.6536 H   0  0  0  0  0  0  0  0  0  0  0  0
    6.4661   -4.5331    0.1987 H   0  0  0  0  0  0  0  0  0  0  0  0
    6.4686   -2.2049   -2.1808 H   0  0  0  0  0  0  0  0  0  0  0  0
    4.7326   -2.7743   -5.3458 H   0  0  0  0  0  0  0  0  0  0  0  0
    7.9048   -2.0498   -7.8310 H   0  0  0  0  0  0  0  0  0  0  0  0
    8.5778   -2.1063   -2.3231 H   0  0  0  0  0  0  0  0  0  0  0  0
   10.9542   -1.7734   -2.7707 H   0  0  0  0  0  0  0  0  0  0  0  0
   11.7946   -1.6259   -5.0996 H   0  0  0  0  0  0  0  0  0  0  0  0
   10.2178   -1.7682   -6.9871 H   0  0  0  0  0  0  0  0  0  0  0  0
  1  2  1  0  0  0  0
  1 28  1  0  0  0  0
  1 29  1  0  0  0  0
  1 30  1  0  0  0  0
  2  3  2  0  0  0  0
  2  4  1  0  0  0  0
  4  5  1  0  0  0  0
  4  9  1  0  0  0  0
  5  6  1  0  0  0  0
  5 31  1  0  0  0  0
  5 32  1  0  0  0  0
  6  7  1  0  0  0  0
  6 33  1  0  0  0  0
  6 34  1  0  0  0  0
  7  8  1  0  0  0  0
  7 15  1  0  0  0  0
  7 35  1  0  0  0  0
  8  9  1  0  0  0  0
  8 13  2  0  0  0  0
  9 10  2  0  0  0  0
 10 11  1  0  0  0  0
 10 36  1  0  0  0  0
 11 12  2  0  0  0  0
 11 37  1  0  0  0  0
 12 13  1  0  0  0  0
 12 14  1  0  0  0  0
 13 38  1  0  0  0  0
 15 16  2  0  0  0  0
 15 17  1  0  0  0  0
 17 18  1  0  0  0  0
 17 39  1  0  0  0  0
 18 19  1  0  0  0  0
 18 23  2  0  0  0  0
 19 20  2  0  0  0  0
 19 40  1  0  0  0  0
 20 21  1  0  0  0  0
 21 22  2  0  0  0  0
 21 41  1  0  0  0  0
 22 23  1  0  0  0  0
 22 27  1  0  0  0  0
 23 24  1  0  0  0  0
 24 25  2  0  0  0  0
 24 42  1  0  0  0  0
 25 26  1  0  0  0  0
 25 43  1  0  0  0  0
 26 27  2  0  0  0  0
 26 44  1  0  0  0  0
 27 45  1  0  0  0  0
M  END
$$$$
