
 OpenBabel07202414183D

 50 53  0  0  0  0  0  0  0  0999 V2000
    9.8619    5.4991    5.0576 F   0  0  0  0  0  0  0  0  0  0  0  0
    9.4073    4.5828    5.9379 C   0  0  0  0  0  0  0  0  0  0  0  0
   10.4583    3.9905    6.5419 F   0  0  0  0  0  0  0  0  0  0  0  0
    8.6924    5.2420    6.8766 F   0  0  0  0  0  0  0  0  0  0  0  0
    8.5700    3.5928    5.3534 O   0  0  0  0  0  0  0  0  0  0  0  0
    8.6199    3.3741    4.0108 C   0  0  0  0  0  0  0  0  0  0  0  0
    9.6799    3.6823    3.1650 C   0  0  0  0  0  0  0  0  0  0  0  0
    9.5673    3.4690    1.7845 C   0  0  0  0  0  0  0  0  0  0  0  0
   10.8432    4.1156    0.8035 Cl  0  0  0  0  0  0  0  0  0  0  0  0
    8.4283    2.8481    1.2345 C   0  0  0  0  0  0  0  0  0  0  0  0
    8.2727    2.5205   -0.1289 N   0  0  0  0  0  0  0  0  0  0  0  0
    9.1971    1.9297   -1.0079 C   0  0  0  0  0  0  0  0  0  0  0  0
    9.0642    2.1029   -2.3878 C   0  0  0  0  0  0  0  0  0  0  0  0
   10.0013    1.5453   -3.2597 C   0  0  0  0  0  0  0  0  0  0  0  0
    9.8166    1.7651   -4.9571 Cl  0  0  0  0  0  0  0  0  0  0  0  0
   11.0907    0.8210   -2.7740 C   0  0  0  0  0  0  0  0  0  0  0  0
   11.2513    0.6477   -1.3966 C   0  0  0  0  0  0  0  0  0  0  0  0
   12.4432   -0.0854   -0.8270 C   0  0  0  0  0  0  0  0  0  0  0  0
   12.2882   -1.5757   -0.5718 C   0  0  0  0  0  0  0  0  0  0  0  0
   13.2863   -2.2724   -0.3911 O   0  0  0  0  0  0  0  0  0  0  0  0
   10.9952   -2.0581   -0.5458 N   0  0  0  0  0  0  0  0  0  0  0  0
   10.6761   -3.4143   -0.3074 C   0  0  0  0  0  0  0  0  0  0  0  0
   11.3281   -4.1504    0.6820 C   0  0  0  0  0  0  0  0  0  0  0  0
   11.0348   -5.4313    1.0004 N   0  0  0  0  0  0  0  0  0  0  0  0
   10.0645   -6.0190    0.2672 C   0  0  0  0  0  0  0  0  0  0  0  0
    9.3599   -5.3986   -0.7650 C   0  0  0  0  0  0  0  0  0  0  0  0
    8.3937   -6.0881   -1.5234 C   0  0  0  0  0  0  0  0  0  0  0  0
    7.7356   -5.4624   -2.5810 C   0  0  0  0  0  0  0  0  0  0  0  0
    8.0202   -4.1388   -2.8877 C   0  0  0  0  0  0  0  0  0  0  0  0
    8.9644   -3.4388   -2.1340 C   0  0  0  0  0  0  0  0  0  0  0  0
    9.6572   -4.0496   -1.0588 C   0  0  0  0  0  0  0  0  0  0  0  0
   10.2815    1.1764   -0.5327 C   0  0  0  0  0  0  0  0  0  0  0  0
    7.3793    2.5191    2.1037 C   0  0  0  0  0  0  0  0  0  0  0  0
    7.4770    2.7763    3.4745 C   0  0  0  0  0  0  0  0  0  0  0  0
   10.6046    4.1099    3.5409 H   0  0  0  0  0  0  0  0  0  0  0  0
    7.4637    2.9536   -0.5617 H   0  0  0  0  0  0  0  0  0  0  0  0
    8.2422    2.6891   -2.7897 H   0  0  0  0  0  0  0  0  0  0  0  0
   11.8210    0.4122   -3.4692 H   0  0  0  0  0  0  0  0  0  0  0  0
   12.7274    0.3748    0.1278 H   0  0  0  0  0  0  0  0  0  0  0  0
   13.2956    0.0504   -1.5041 H   0  0  0  0  0  0  0  0  0  0  0  0
   10.2837   -1.4968   -0.9921 H   0  0  0  0  0  0  0  0  0  0  0  0
   12.1048   -3.7066    1.3006 H   0  0  0  0  0  0  0  0  0  0  0  0
    9.8739   -7.0572    0.5333 H   0  0  0  0  0  0  0  0  0  0  0  0
    8.1627   -7.1286   -1.3054 H   0  0  0  0  0  0  0  0  0  0  0  0
    7.0115   -6.0143   -3.1750 H   0  0  0  0  0  0  0  0  0  0  0  0
    7.5266   -3.6514   -3.7248 H   0  0  0  0  0  0  0  0  0  0  0  0
    9.1748   -2.4172   -2.4349 H   0  0  0  0  0  0  0  0  0  0  0  0
   10.3908    1.0155    0.5389 H   0  0  0  0  0  0  0  0  0  0  0  0
    6.4821    2.0374    1.7198 H   0  0  0  0  0  0  0  0  0  0  0  0
    6.6478    2.5088    4.1275 H   0  0  0  0  0  0  0  0  0  0  0  0
  1  2  1  0  0  0  0
  2  3  1  0  0  0  0
  2  4  1  0  0  0  0
  2  5  1  0  0  0  0
  5  6  1  0  0  0  0
  6  7  2  0  0  0  0
  6 34  1  0  0  0  0
  7  8  1  0  0  0  0
  7 35  1  0  0  0  0
  8  9  1  0  0  0  0
  8 10  2  0  0  0  0
 10 11  1  0  0  0  0
 10 33  1  0  0  0  0
 11 12  1  0  0  0  0
 11 36  1  0  0  0  0
 12 13  2  0  0  0  0
 12 32  1  0  0  0  0
 13 14  1  0  0  0  0
 13 37  1  0  0  0  0
 14 15  1  0  0  0  0
 14 16  2  0  0  0  0
 16 17  1  0  0  0  0
 16 38  1  0  0  0  0
 17 18  1  0  0  0  0
 17 32  2  0  0  0  0
 18 19  1  0  0  0  0
 18 39  1  0  0  0  0
 18 40  1  0  0  0  0
 19 20  2  0  0  0  0
 19 21  1  0  0  0  0
 21 22  1  0  0  0  0
 21 41  1  0  0  0  0
 22 23  2  0  0  0  0
 22 31  1  0  0  0  0
 23 24  1  0  0  0  0
 23 42  1  0  0  0  0
 24 25  2  0  0  0  0
 25 26  1  0  0  0  0
 25 43  1  0  0  0  0
 26 27  2  0  0  0  0
 26 31  1  0  0  0  0
 27 28  1  0  0  0  0
 27 44  1  0  0  0  0
 28 29  2  0  0  0  0
 28 45  1  0  0  0  0
 29 30  1  0  0  0  0
 29 46  1  0  0  0  0
 30 31  2  0  0  0  0
 30 47  1  0  0  0  0
 32 48  1  0  0  0  0
 33 34  2  0  0  0  0
 33 49  1  0  0  0  0
 34 50  1  0  0  0  0
M  END
$$$$
