
 OpenBabel07202414203D

 28 30  0  0  0  0  0  0  0  0999 V2000
    1.3870   -0.0878    0.4577 C   0  0  0  0  0  0  0  0  0  0  0  0
    0.6386   -1.2483    0.3122 C   0  0  0  0  0  0  0  0  0  0  0  0
   -0.7542   -1.1741    0.2448 C   0  0  0  0  0  0  0  0  0  0  0  0
   -1.4358    0.0552    0.3107 C   0  0  0  0  0  0  0  0  0  0  0  0
   -0.6618    1.2116    0.4693 C   0  0  0  0  0  0  0  0  0  0  0  0
    0.7363    1.1425    0.5329 C   0  0  0  0  0  0  0  0  0  0  0  0
   -2.8497    0.1719    0.3120 N   0  0  0  0  0  0  0  0  0  0  0  0
   -3.7159   -0.8820    0.1638 C   0  0  0  0  0  0  0  0  0  0  0  0
   -3.4905   -2.0797    0.5943 N   0  0  0  0  0  0  0  0  0  0  0  0
   -4.2419   -3.1088    0.0639 C   0  0  0  0  0  0  0  0  0  0  0  0
   -3.7510   -4.4098    0.1771 C   0  0  0  0  0  0  0  0  0  0  0  0
   -4.3265   -5.4394   -0.5633 C   0  0  0  0  0  0  0  0  0  0  0  0
   -5.4187   -5.1726   -1.3906 C   0  0  0  0  0  0  0  0  0  0  0  0
   -5.9439   -3.8798   -1.4617 C   0  0  0  0  0  0  0  0  0  0  0  0
   -5.3352   -2.8525   -0.7400 C   0  0  0  0  0  0  0  0  0  0  0  0
   -5.7460   -1.4505   -0.8658 C   0  0  0  0  0  0  0  0  0  0  0  0
   -6.8382   -1.1558   -1.3358 O   0  0  0  0  0  0  0  0  0  0  0  0
   -4.8271   -0.5092   -0.5227 O   0  0  0  0  0  0  0  0  0  0  0  0
    2.4696   -0.1458    0.5161 H   0  0  0  0  0  0  0  0  0  0  0  0
    1.1264   -2.2176    0.2583 H   0  0  0  0  0  0  0  0  0  0  0  0
   -1.2765   -2.1159    0.1261 H   0  0  0  0  0  0  0  0  0  0  0  0
   -1.1367    2.1867    0.5467 H   0  0  0  0  0  0  0  0  0  0  0  0
    1.3183    2.0505    0.6527 H   0  0  0  0  0  0  0  0  0  0  0  0
   -3.1757    1.0411   -0.0821 H   0  0  0  0  0  0  0  0  0  0  0  0
   -2.8731   -4.5992    0.7910 H   0  0  0  0  0  0  0  0  0  0  0  0
   -3.8986   -6.4379   -0.5195 H   0  0  0  0  0  0  0  0  0  0  0  0
   -5.8429   -5.9688   -1.9968 H   0  0  0  0  0  0  0  0  0  0  0  0
   -6.7874   -3.6677   -2.1176 H   0  0  0  0  0  0  0  0  0  0  0  0
  1  2  1  0  0  0  0
  1  6  2  0  0  0  0
  1 19  1  0  0  0  0
  2  3  2  0  0  0  0
  2 20  1  0  0  0  0
  3  4  1  0  0  0  0
  3 21  1  0  0  0  0
  4  5  2  0  0  0  0
  4  7  1  0  0  0  0
  5  6  1  0  0  0  0
  5 22  1  0  0  0  0
  6 23  1  0  0  0  0
  7  8  1  0  0  0  0
  7 24  1  0  0  0  0
  8  9  2  0  0  0  0
  8 18  1  0  0  0  0
  9 10  1  0  0  0  0
 10 11  1  0  0  0  0
 10 15  2  0  0  0  0
 11 12  2  0  0  0  0
 11 25  1  0  0  0  0
 12 13  1  0  0  0  0
 12 26  1  0  0  0  0
 13 14  2  0  0  0  0
 13 27  1  0  0  0  0
 14 15  1  0  0  0  0
 14 28  1  0  0  0  0
 15 16  1  0  0  0  0
 16 17  2  0  0  0  0
 16 18  1  0  0  0  0
M  END
$$$$
