
 OpenBabel07202414163D

 47 50  0  0  1  0  0  0  0  0999 V2000
    1.0108   -0.0366    0.6673 C   0  0  0  0  0  0  0  0  0  0  0  0
    2.4826   -0.1223    0.3696 C   0  0  0  0  0  0  0  0  0  0  0  0
    3.1619    1.0722    0.0964 C   0  0  0  0  0  0  0  0  0  0  0  0
    4.4818    1.0239   -0.3167 C   0  0  0  0  0  0  0  0  0  0  0  0
    5.1751   -0.1714   -0.3001 C   0  0  0  0  0  0  0  0  0  0  0  0
    4.5393   -1.3759   -0.0570 C   0  0  0  0  0  0  0  0  0  0  0  0
    3.1622   -1.3610    0.2496 C   0  0  0  0  0  0  0  0  0  0  0  0
    2.4031   -2.6545    0.3696 C   0  0  0  0  0  0  0  0  0  0  0  0
    6.5061   -0.0052   -0.6043 O   0  0  0  0  0  0  0  0  0  0  0  0
    6.6724    1.4548   -0.5701 C   0  0  0  0  0  0  0  0  0  0  0  0
    5.3457    2.0593   -0.9907 C   0  0  3  0  0  0  0  0  0  0  0  0
    4.8022    3.4931   -0.8700 C   0  0  0  0  0  0  0  0  0  0  0  0
    3.6212    3.6419   -1.2245 O   0  0  0  0  0  0  0  0  0  0  0  0
    5.4930    4.6153   -0.4606 N   0  0  0  0  0  0  0  0  0  0  0  0
    4.7182    5.8764   -0.4148 C   0  0  0  0  0  0  0  0  0  0  0  0
    5.0856    6.8158   -1.5604 C   0  0  0  0  0  0  0  0  0  0  0  0
    6.5949    7.0227   -1.6430 C   0  0  0  0  0  0  0  0  0  0  0  0
    7.3231    5.6760   -1.6781 C   0  0  0  0  0  0  0  0  0  0  0  0
    6.9423    4.7681   -0.4910 C   0  0  3  0  0  0  0  0  0  0  0  0
    7.4456    5.2484    0.8429 C   0  0  0  0  0  0  0  0  0  0  0  0
    6.8792    5.1133    2.0987 C   0  0  0  0  0  0  0  0  0  0  0  0
    7.7255    5.7161    2.9821 N   0  0  0  0  0  0  0  0  0  0  0  0
    8.8223    6.2239    2.4010 N   0  0  0  0  0  0  0  0  0  0  0  0
    8.6569    5.9369    1.1106 C   0  0  0  0  0  0  0  0  0  0  0  0
    0.6903    1.0040    0.7935 H   0  0  0  0  0  0  0  0  0  0  0  0
    0.7658   -0.5653    1.5928 H   0  0  0  0  0  0  0  0  0  0  0  0
    0.4397   -0.4577   -0.1656 H   0  0  0  0  0  0  0  0  0  0  0  0
    2.6310    2.0165    0.1493 H   0  0  0  0  0  0  0  0  0  0  0  0
    5.0844   -2.3089   -0.1503 H   0  0  0  0  0  0  0  0  0  0  0  0
    3.0682   -3.5223    0.3296 H   0  0  0  0  0  0  0  0  0  0  0  0
    1.6907   -2.7411   -0.4585 H   0  0  0  0  0  0  0  0  0  0  0  0
    1.8569   -2.6984    1.3171 H   0  0  0  0  0  0  0  0  0  0  0  0
    7.4729    1.7001   -1.2757 H   0  0  0  0  0  0  0  0  0  0  0  0
    6.9967    1.7348    0.4405 H   0  0  0  0  0  0  0  0  0  0  0  0
    5.2534    1.8618   -2.0680 H   0  0  0  0  0  0  0  0  0  0  0  0
    4.9125    6.3590    0.5481 H   0  0  0  0  0  0  0  0  0  0  0  0
    3.6350    5.7007   -0.4379 H   0  0  0  0  0  0  0  0  0  0  0  0
    4.5870    7.7829   -1.4223 H   0  0  0  0  0  0  0  0  0  0  0  0
    4.7287    6.3997   -2.5095 H   0  0  0  0  0  0  0  0  0  0  0  0
    6.9333    7.6150   -0.7837 H   0  0  0  0  0  0  0  0  0  0  0  0
    6.8408    7.6012   -2.5408 H   0  0  0  0  0  0  0  0  0  0  0  0
    8.4050    5.8404   -1.7203 H   0  0  0  0  0  0  0  0  0  0  0  0
    7.0500    5.1659   -2.6126 H   0  0  0  0  0  0  0  0  0  0  0  0
    7.4093    3.8041   -0.6728 H   0  0  0  0  0  0  0  0  0  0  0  0
    5.9540    4.6649    2.4312 H   0  0  0  0  0  0  0  0  0  0  0  0
    7.6227    5.8154    3.9872 H   0  0  0  0  0  0  0  0  0  0  0  0
    9.4238    6.2487    0.4126 H   0  0  0  0  0  0  0  0  0  0  0  0
  1  2  1  0  0  0  0
  1 25  1  0  0  0  0
  1 26  1  0  0  0  0
  1 27  1  0  0  0  0
  2  3  1  0  0  0  0
  2  7  2  0  0  0  0
  3  4  2  0  0  0  0
  3 28  1  0  0  0  0
  4  5  1  0  0  0  0
  4 11  1  0  0  0  0
  5  6  2  0  0  0  0
  5  9  1  0  0  0  0
  6  7  1  0  0  0  0
  6 29  1  0  0  0  0
  7  8  1  0  0  0  0
  8 30  1  0  0  0  0
  8 31  1  0  0  0  0
  8 32  1  0  0  0  0
  9 10  1  0  0  0  0
 10 11  1  0  0  0  0
 10 33  1  0  0  0  0
 10 34  1  0  0  0  0
 11 12  1  0  0  0  0
 11 35  1  0  0  0  0
 12 13  2  0  0  0  0
 12 14  1  0  0  0  0
 14 15  1  0  0  0  0
 14 19  1  0  0  0  0
 15 16  1  0  0  0  0
 15 36  1  0  0  0  0
 15 37  1  0  0  0  0
 16 17  1  0  0  0  0
 16 38  1  0  0  0  0
 16 39  1  0  0  0  0
 17 18  1  0  0  0  0
 17 40  1  0  0  0  0
 17 41  1  0  0  0  0
 18 19  1  0  0  0  0
 18 42  1  0  0  0  0
 18 43  1  0  0  0  0
 19 20  1  0  0  0  0
 19 44  1  0  0  0  0
 20 21  2  0  0  0  0
 20 24  1  0  0  0  0
 21 22  1  0  0  0  0
 21 45  1  0  0  0  0
 22 23  1  0  0  0  0
 22 46  1  0  0  0  0
 23 24  2  0  0  0  0
 24 47  1  0  0  0  0
M  END
$$$$
