
 OpenBabel07202414213D

 32 34  0  0  0  0  0  0  0  0999 V2000
    1.9037   -2.3458   -1.8159 C   0  0  0  0  0  0  0  0  0  0  0  0
    2.1602   -1.2165   -2.5967 C   0  0  0  0  0  0  0  0  0  0  0  0
    2.0867    0.0782   -2.0596 C   0  0  0  0  0  0  0  0  0  0  0  0
    1.7518    0.1874   -0.7008 C   0  0  0  0  0  0  0  0  0  0  0  0
    1.5007   -0.9328    0.0968 C   0  0  0  0  0  0  0  0  0  0  0  0
    1.5699   -2.2149   -0.4641 C   0  0  0  0  0  0  0  0  0  0  0  0
    1.2230   -0.5761    1.3943 N   0  0  0  0  0  0  0  0  0  0  0  0
    1.2992    0.7371    1.4096 C   0  0  0  0  0  0  0  0  0  0  0  0
    1.5911    1.2349    0.1732 N   0  0  0  0  0  0  0  0  0  0  0  0
    1.8611    2.5348   -0.1371 N   0  0  0  0  0  0  0  0  0  0  0  0
    1.1736    3.5719    0.4606 C   0  0  0  0  0  0  0  0  0  0  0  0
    0.2735    3.4319    1.2848 O   0  0  0  0  0  0  0  0  0  0  0  0
    1.5973    4.9557   -0.0030 C   0  0  0  0  0  0  0  0  0  0  0  0
    2.8118    5.5197    0.6962 C   0  0  0  0  0  0  0  0  0  0  0  0
    2.8473    5.6709    2.0911 C   0  0  0  0  0  0  0  0  0  0  0  0
    3.9519    6.2580    2.7174 C   0  0  0  0  0  0  0  0  0  0  0  0
    5.0322    6.7097    1.9588 C   0  0  0  0  0  0  0  0  0  0  0  0
    4.9982    6.5767    0.5742 C   0  0  0  0  0  0  0  0  0  0  0  0
    3.8989    5.9901   -0.0571 C   0  0  0  0  0  0  0  0  0  0  0  0
    6.3146    7.1527   -0.3734 Cl  0  0  0  0  0  0  0  0  0  0  0  0
    1.9644   -3.3385   -2.2575 H   0  0  0  0  0  0  0  0  0  0  0  0
    2.4201   -1.3507   -3.6457 H   0  0  0  0  0  0  0  0  0  0  0  0
    2.2803    0.9470   -2.6791 H   0  0  0  0  0  0  0  0  0  0  0  0
    1.3712   -3.0878    0.1509 H   0  0  0  0  0  0  0  0  0  0  0  0
    1.1428    1.3597    2.2794 H   0  0  0  0  0  0  0  0  0  0  0  0
    2.7350    2.6865   -0.6207 H   0  0  0  0  0  0  0  0  0  0  0  0
    0.7536    5.6402    0.1534 H   0  0  0  0  0  0  0  0  0  0  0  0
    1.7569    4.9187   -1.0874 H   0  0  0  0  0  0  0  0  0  0  0  0
    2.0049    5.3513    2.7049 H   0  0  0  0  0  0  0  0  0  0  0  0
    3.9652    6.3754    3.7990 H   0  0  0  0  0  0  0  0  0  0  0  0
    5.8849    7.1712    2.4510 H   0  0  0  0  0  0  0  0  0  0  0  0
    3.8853    5.9224   -1.1423 H   0  0  0  0  0  0  0  0  0  0  0  0
  1  2  1  0  0  0  0
  1  6  2  0  0  0  0
  1 21  1  0  0  0  0
  2  3  2  0  0  0  0
  2 22  1  0  0  0  0
  3  4  1  0  0  0  0
  3 23  1  0  0  0  0
  4  5  2  0  0  0  0
  4  9  1  0  0  0  0
  5  6  1  0  0  0  0
  5  7  1  0  0  0  0
  6 24  1  0  0  0  0
  7  8  2  0  0  0  0
  8  9  1  0  0  0  0
  8 25  1  0  0  0  0
  9 10  1  0  0  0  0
 10 11  1  0  0  0  0
 10 26  1  0  0  0  0
 11 12  2  0  0  0  0
 11 13  1  0  0  0  0
 13 14  1  0  0  0  0
 13 27  1  0  0  0  0
 13 28  1  0  0  0  0
 14 15  1  0  0  0  0
 14 19  2  0  0  0  0
 15 16  2  0  0  0  0
 15 29  1  0  0  0  0
 16 17  1  0  0  0  0
 16 30  1  0  0  0  0
 17 18  2  0  0  0  0
 17 31  1  0  0  0  0
 18 19  1  0  0  0  0
 18 20  1  0  0  0  0
 19 32  1  0  0  0  0
M  END
$$$$
