
 OpenBabel07202414133D

 43 46  0  0  1  0  0  0  0  0999 V2000
    1.2884   -0.1002   -0.2553 C   0  0  0  0  0  0  0  0  0  0  0  0
    2.7331   -0.1185   -0.0504 N   0  0  0  0  0  0  0  0  0  0  0  0
    3.3649   -1.3532   -0.0580 C   0  0  0  0  0  0  0  0  0  0  0  0
    2.8094   -2.3975   -0.4062 O   0  0  0  0  0  0  0  0  0  0  0  0
    4.7199   -1.4212    0.5857 C   0  0  0  0  0  0  0  0  0  0  0  0
    5.6022   -0.2089    0.3485 C   0  0  3  0  0  0  0  0  0  0  0  0
    6.5551   -0.1523    1.4429 O   0  0  0  0  0  0  0  0  0  0  0  0
    6.4179   -0.3658   -0.9759 C   0  0  0  0  0  0  0  0  0  0  0  0
    5.9594   -0.9268   -1.9641 O   0  0  0  0  0  0  0  0  0  0  0  0
    7.6836    0.2090   -0.8768 N   0  0  0  0  0  0  0  0  0  0  0  0
    8.7571    0.1423   -1.8025 C   0  0  0  0  0  0  0  0  0  0  0  0
    8.6809   -0.5908   -2.9857 C   0  0  0  0  0  0  0  0  0  0  0  0
    9.7240   -0.8162   -3.8184 N   0  0  0  0  0  0  0  0  0  0  0  0
   10.8971   -0.2434   -3.4865 C   0  0  0  0  0  0  0  0  0  0  0  0
   11.0804    0.6010   -2.3945 C   0  0  0  0  0  0  0  0  0  0  0  0
   12.3143    1.2461   -2.1900 C   0  0  0  0  0  0  0  0  0  0  0  0
   12.4925    2.1169   -1.1218 C   0  0  0  0  0  0  0  0  0  0  0  0
   11.4526    2.3217   -0.2280 C   0  0  0  0  0  0  0  0  0  0  0  0
   10.2219    1.6727   -0.4162 C   0  0  0  0  0  0  0  0  0  0  0  0
    9.9914    0.8029   -1.5120 C   0  0  0  0  0  0  0  0  0  0  0  0
    4.8251    1.0892    0.3766 C   0  0  0  0  0  0  0  0  0  0  0  0
    5.4984    2.3125    0.5933 C   0  0  0  0  0  0  0  0  0  0  0  0
    4.8104    3.5192    0.5975 C   0  0  0  0  0  0  0  0  0  0  0  0
    5.6646    4.9876    0.8613 Cl  0  0  0  0  0  0  0  0  0  0  0  0
    3.4416    3.5367    0.3868 C   0  0  0  0  0  0  0  0  0  0  0  0
    2.7614    2.3365    0.1782 C   0  0  0  0  0  0  0  0  0  0  0  0
    3.4350    1.1005    0.1743 C   0  0  0  0  0  0  0  0  0  0  0  0
    0.8777   -1.1042   -0.4001 H   0  0  0  0  0  0  0  0  0  0  0  0
    1.0376    0.5008   -1.1334 H   0  0  0  0  0  0  0  0  0  0  0  0
    0.8116    0.3128    0.6413 H   0  0  0  0  0  0  0  0  0  0  0  0
    5.2224   -2.3385    0.2533 H   0  0  0  0  0  0  0  0  0  0  0  0
    4.5325   -1.5501    1.6612 H   0  0  0  0  0  0  0  0  0  0  0  0
    6.8168   -1.0695    1.6463 H   0  0  0  0  0  0  0  0  0  0  0  0
    7.8814    0.6175    0.0294 H   0  0  0  0  0  0  0  0  0  0  0  0
    7.7616   -1.0573   -3.3254 H   0  0  0  0  0  0  0  0  0  0  0  0
   11.7167   -0.4843   -4.1601 H   0  0  0  0  0  0  0  0  0  0  0  0
   13.1393    1.0945   -2.8855 H   0  0  0  0  0  0  0  0  0  0  0  0
   13.4371    2.6395   -0.9927 H   0  0  0  0  0  0  0  0  0  0  0  0
   11.5815    3.0077    0.6072 H   0  0  0  0  0  0  0  0  0  0  0  0
    9.4372    1.8956    0.3027 H   0  0  0  0  0  0  0  0  0  0  0  0
    6.5706    2.3226    0.7736 H   0  0  0  0  0  0  0  0  0  0  0  0
    2.8969    4.4764    0.3791 H   0  0  0  0  0  0  0  0  0  0  0  0
    1.6883    2.4005    0.0118 H   0  0  0  0  0  0  0  0  0  0  0  0
  1  2  1  0  0  0  0
  1 28  1  0  0  0  0
  1 29  1  0  0  0  0
  1 30  1  0  0  0  0
  2  3  1  0  0  0  0
  2 27  1  0  0  0  0
  3  4  2  0  0  0  0
  3  5  1  0  0  0  0
  5  6  1  0  0  0  0
  5 31  1  0  0  0  0
  5 32  1  0  0  0  0
  6  7  1  0  0  0  0
  6  8  1  0  0  0  0
  6 21  1  0  0  0  0
  7 33  1  0  0  0  0
  8  9  2  0  0  0  0
  8 10  1  0  0  0  0
 10 11  1  0  0  0  0
 10 34  1  0  0  0  0
 11 12  1  0  0  0  0
 11 20  2  0  0  0  0
 12 13  2  0  0  0  0
 12 35  1  0  0  0  0
 13 14  1  0  0  0  0
 14 15  2  0  0  0  0
 14 36  1  0  0  0  0
 15 16  1  0  0  0  0
 15 20  1  0  0  0  0
 16 17  2  0  0  0  0
 16 37  1  0  0  0  0
 17 18  1  0  0  0  0
 17 38  1  0  0  0  0
 18 19  2  0  0  0  0
 18 39  1  0  0  0  0
 19 20  1  0  0  0  0
 19 40  1  0  0  0  0
 21 22  1  0  0  0  0
 21 27  2  0  0  0  0
 22 23  2  0  0  0  0
 22 41  1  0  0  0  0
 23 24  1  0  0  0  0
 23 25  1  0  0  0  0
 25 26  2  0  0  0  0
 25 42  1  0  0  0  0
 26 27  1  0  0  0  0
 26 43  1  0  0  0  0
M  END
$$$$
