
 OpenBabel07202414183D

 40 43  0  0  1  0  0  0  0  0999 V2000
    0.9467    0.0111    0.1112 Cl  0  0  0  0  0  0  0  0  0  0  0  0
    2.6611   -0.1090    0.0449 C   0  0  0  0  0  0  0  0  0  0  0  0
    3.4363    1.0469    0.0696 C   0  0  0  0  0  0  0  0  0  0  0  0
    4.8279    0.9486    0.0313 C   0  0  0  0  0  0  0  0  0  0  0  0
    5.4533   -0.3052   -0.0501 C   0  0  0  0  0  0  0  0  0  0  0  0
    4.6618   -1.4666   -0.1507 C   0  0  0  0  0  0  0  0  0  0  0  0
    3.2631   -1.3594   -0.0560 C   0  0  0  0  0  0  0  0  0  0  0  0
    5.3174   -2.8332   -0.3596 C   0  0  1  0  0  0  0  0  0  0  0  0
    4.7242   -3.6380   -1.5321 C   0  0  0  0  0  0  0  0  0  0  0  0
    4.7215   -4.8681   -1.5177 O   0  0  0  0  0  0  0  0  0  0  0  0
    4.2614   -2.8638   -2.5781 N   0  0  0  0  0  0  0  0  0  0  0  0
    3.7042   -3.2643   -3.8168 C   0  0  0  0  0  0  0  0  0  0  0  0
    3.6001   -4.6013   -4.2034 C   0  0  0  0  0  0  0  0  0  0  0  0
    3.2786   -5.0021   -5.4545 N   0  0  0  0  0  0  0  0  0  0  0  0
    2.9785   -4.0336   -6.3431 C   0  0  0  0  0  0  0  0  0  0  0  0
    2.8777   -2.6785   -6.0297 C   0  0  0  0  0  0  0  0  0  0  0  0
    2.3829   -1.7503   -6.9653 C   0  0  0  0  0  0  0  0  0  0  0  0
    2.2530   -0.4042   -6.6326 C   0  0  0  0  0  0  0  0  0  0  0  0
    2.6513    0.0337   -5.3778 C   0  0  0  0  0  0  0  0  0  0  0  0
    3.1527   -0.8792   -4.4454 C   0  0  0  0  0  0  0  0  0  0  0  0
    3.2709   -2.2694   -4.7376 C   0  0  0  0  0  0  0  0  0  0  0  0
    6.8410   -2.7226   -0.5921 C   0  0  0  0  0  0  0  0  0  0  0  0
    7.4600   -1.7191    0.2802 N   0  0  0  0  0  0  0  0  0  0  0  0
    6.9666   -0.3845   -0.0573 C   0  0  0  0  0  0  0  0  0  0  0  0
    2.9650    2.0244    0.1347 H   0  0  0  0  0  0  0  0  0  0  0  0
    5.4244    1.8578    0.0777 H   0  0  0  0  0  0  0  0  0  0  0  0
    2.6407   -2.2524   -0.0859 H   0  0  0  0  0  0  0  0  0  0  0  0
    5.1385   -3.4042    0.5612 H   0  0  0  0  0  0  0  0  0  0  0  0
    4.3841   -1.8657   -2.4702 H   0  0  0  0  0  0  0  0  0  0  0  0
    3.7740   -5.4211   -3.5171 H   0  0  0  0  0  0  0  0  0  0  0  0
    2.8029   -4.3927   -7.3548 H   0  0  0  0  0  0  0  0  0  0  0  0
    2.0564   -2.0805   -7.9493 H   0  0  0  0  0  0  0  0  0  0  0  0
    1.8270    0.2968   -7.3456 H   0  0  0  0  0  0  0  0  0  0  0  0
    2.5537    1.0831   -5.1105 H   0  0  0  0  0  0  0  0  0  0  0  0
    3.4086   -0.4815   -3.4680 H   0  0  0  0  0  0  0  0  0  0  0  0
    7.0727   -2.4931   -1.6398 H   0  0  0  0  0  0  0  0  0  0  0  0
    7.3029   -3.6967   -0.3871 H   0  0  0  0  0  0  0  0  0  0  0  0
    8.4724   -1.7372    0.1711 H   0  0  0  0  0  0  0  0  0  0  0  0
    7.3389   -0.0725   -1.0388 H   0  0  0  0  0  0  0  0  0  0  0  0
    7.3593    0.3169    0.6888 H   0  0  0  0  0  0  0  0  0  0  0  0
  1  2  1  0  0  0  0
  2  3  1  0  0  0  0
  2  7  2  0  0  0  0
  3  4  2  0  0  0  0
  3 25  1  0  0  0  0
  4  5  1  0  0  0  0
  4 26  1  0  0  0  0
  5  6  2  0  0  0  0
  5 24  1  0  0  0  0
  6  7  1  0  0  0  0
  6  8  1  0  0  0  0
  7 27  1  0  0  0  0
  8 22  1  0  0  0  0
  8  9  1  0  0  0  0
  8 28  1  1  0  0  0
  9 10  2  0  0  0  0
  9 11  1  0  0  0  0
 11 12  1  0  0  0  0
 11 29  1  0  0  0  0
 12 13  1  0  0  0  0
 12 21  2  0  0  0  0
 13 14  2  0  0  0  0
 13 30  1  0  0  0  0
 14 15  1  0  0  0  0
 15 16  2  0  0  0  0
 15 31  1  0  0  0  0
 16 17  1  0  0  0  0
 16 21  1  0  0  0  0
 17 18  2  0  0  0  0
 17 32  1  0  0  0  0
 18 19  1  0  0  0  0
 18 33  1  0  0  0  0
 19 20  2  0  0  0  0
 19 34  1  0  0  0  0
 20 21  1  0  0  0  0
 20 35  1  0  0  0  0
 22 23  1  0  0  0  0
 22 36  1  0  0  0  0
 22 37  1  0  0  0  0
 23 24  1  0  0  0  0
 23 38  1  0  0  0  0
 24 39  1  0  0  0  0
 24 40  1  0  0  0  0
M  END
$$$$
