
 OpenBabel07202414173D

 67 72  0  0  1  0  0  0  0  0999 V2000
    1.0293    0.1662    0.0968 Cl  0  0  0  0  0  0  0  0  0  0  0  0
    2.7454    0.0597    0.1890 C   0  0  0  0  0  0  0  0  0  0  0  0
    3.5163    1.2060    0.0498 C   0  0  0  0  0  0  0  0  0  0  0  0
    4.9046    1.1037    0.1210 C   0  0  0  0  0  0  0  0  0  0  0  0
    5.5167   -0.1400    0.3224 C   0  0  0  0  0  0  0  0  0  0  0  0
    4.7497   -1.3092    0.4287 C   0  0  0  0  0  0  0  0  0  0  0  0
    3.3518   -1.1797    0.3879 C   0  0  0  0  0  0  0  0  0  0  0  0
    5.4216   -2.6767    0.6173 C   0  0  3  0  0  0  0  0  0  0  0  0
    4.8228   -3.7011   -0.4249 C   0  0  0  0  0  0  0  0  0  0  0  0
    5.4410   -5.0414   -0.4157 N   0  0  0  0  0  0  0  0  0  0  0  0
    4.8411   -5.8985   -1.4434 C   0  0  0  0  0  0  0  0  0  0  0  0
    5.3515   -7.2824   -1.2717 C   0  0  0  0  0  0  0  0  0  0  0  0
    6.4922   -7.8899   -1.8479 C   0  0  0  0  0  0  0  0  0  0  0  0
    6.6419   -9.1660   -1.4737 N   0  0  0  0  0  0  0  0  0  0  0  0
    5.5918   -9.3905   -0.6725 N   0  0  0  0  0  0  0  0  0  0  0  0
    5.3985  -10.6820   -0.0325 C   0  0  3  0  0  0  0  0  0  0  0  0
    6.6917  -11.4484    0.2896 C   0  0  0  0  0  0  0  0  0  0  0  0
    7.1631  -12.1427   -0.9875 C   0  0  0  0  0  0  0  0  0  0  0  0
    5.6799  -12.5119   -1.9012 S   0  0  0  0  0  0  0  0  0  0  0  0
    5.7284  -11.8868   -3.2092 O   0  0  0  0  0  0  0  0  0  0  0  0
    5.3892  -13.9232   -1.7547 O   0  0  0  0  0  0  0  0  0  0  0  0
    4.5400  -11.6211   -0.8698 C   0  0  0  0  0  0  0  0  0  0  0  0
    4.7848   -8.3000   -0.5279 C   0  0  0  0  0  0  0  0  0  0  0  0
    5.1742   -3.1840    2.0964 C   0  0  0  0  0  0  0  0  0  0  0  0
    4.6381   -4.2713    2.3300 O   0  0  0  0  0  0  0  0  0  0  0  0
    5.5990   -2.3008    3.0805 N   0  0  0  0  0  0  0  0  0  0  0  0
    5.4301   -2.3527    4.4917 C   0  0  0  0  0  0  0  0  0  0  0  0
    4.7018   -3.3460    5.1407 C   0  0  0  0  0  0  0  0  0  0  0  0
    4.2643   -3.2419    6.4188 N   0  0  0  0  0  0  0  0  0  0  0  0
    4.6798   -2.1661    7.1208 C   0  0  0  0  0  0  0  0  0  0  0  0
    5.6226   -1.2499    6.6660 C   0  0  0  0  0  0  0  0  0  0  0  0
    6.2187   -0.3128    7.5350 C   0  0  0  0  0  0  0  0  0  0  0  0
    7.1461    0.6103    7.0603 C   0  0  0  0  0  0  0  0  0  0  0  0
    7.4415    0.6411    5.7060 C   0  0  0  0  0  0  0  0  0  0  0  0
    6.8642   -0.2961    4.8418 C   0  0  0  0  0  0  0  0  0  0  0  0
    5.9710   -1.3008    5.2980 C   0  0  0  0  0  0  0  0  0  0  0  0
    6.9262   -2.5476    0.2802 C   0  0  0  0  0  0  0  0  0  0  0  0
    7.5560   -1.2737    0.8021 C   0  0  0  0  0  0  0  0  0  0  0  0
    6.8765   -0.1000    0.3689 O   0  0  0  0  0  0  0  0  0  0  0  0
    3.0516    2.1729   -0.1089 H   0  0  0  0  0  0  0  0  0  0  0  0
    5.5132    1.9996    0.0152 H   0  0  0  0  0  0  0  0  0  0  0  0
    2.7139   -2.0536    0.5039 H   0  0  0  0  0  0  0  0  0  0  0  0
    4.9491   -3.2770   -1.4316 H   0  0  0  0  0  0  0  0  0  0  0  0
    3.7449   -3.8198   -0.2687 H   0  0  0  0  0  0  0  0  0  0  0  0
    5.2436   -5.4650    0.4992 H   0  0  0  0  0  0  0  0  0  0  0  0
    5.0825   -5.5237   -2.4487 H   0  0  0  0  0  0  0  0  0  0  0  0
    3.7467   -5.9089   -1.3477 H   0  0  0  0  0  0  0  0  0  0  0  0
    7.2185   -7.4540   -2.5231 H   0  0  0  0  0  0  0  0  0  0  0  0
    4.8788  -10.4554    0.9083 H   0  0  0  0  0  0  0  0  0  0  0  0
    6.4634  -12.2144    1.0421 H   0  0  0  0  0  0  0  0  0  0  0  0
    7.4751  -10.8081    0.7077 H   0  0  0  0  0  0  0  0  0  0  0  0
    7.6871  -13.0733   -0.7647 H   0  0  0  0  0  0  0  0  0  0  0  0
    7.8029  -11.5046   -1.5997 H   0  0  0  0  0  0  0  0  0  0  0  0
    4.0555  -12.3608   -0.2229 H   0  0  0  0  0  0  0  0  0  0  0  0
    3.7832  -11.1254   -1.4855 H   0  0  0  0  0  0  0  0  0  0  0  0
    3.8894   -8.3229    0.0784 H   0  0  0  0  0  0  0  0  0  0  0  0
    5.8829   -1.3842    2.7504 H   0  0  0  0  0  0  0  0  0  0  0  0
    4.3976   -4.2645    4.6502 H   0  0  0  0  0  0  0  0  0  0  0  0
    4.2095   -2.0492    8.0948 H   0  0  0  0  0  0  0  0  0  0  0  0
    5.9998   -0.3315    8.6020 H   0  0  0  0  0  0  0  0  0  0  0  0
    7.6359    1.3010    7.7426 H   0  0  0  0  0  0  0  0  0  0  0  0
    8.1388    1.3794    5.3167 H   0  0  0  0  0  0  0  0  0  0  0  0
    7.1665   -0.2400    3.8023 H   0  0  0  0  0  0  0  0  0  0  0  0
    7.0433   -2.5185   -0.8126 H   0  0  0  0  0  0  0  0  0  0  0  0
    7.4909   -3.4146    0.6409 H   0  0  0  0  0  0  0  0  0  0  0  0
    8.5867   -1.2034    0.4359 H   0  0  0  0  0  0  0  0  0  0  0  0
    7.6412   -1.2650    1.8887 H   0  0  0  0  0  0  0  0  0  0  0  0
  1  2  1  0  0  0  0
  2  3  1  0  0  0  0
  2  7  2  0  0  0  0
  3  4  2  0  0  0  0
  3 40  1  0  0  0  0
  4  5  1  0  0  0  0
  4 41  1  0  0  0  0
  5  6  2  0  0  0  0
  5 39  1  0  0  0  0
  6  7  1  0  0  0  0
  6  8  1  0  0  0  0
  7 42  1  0  0  0  0
  8  9  1  0  0  0  0
  8 24  1  0  0  0  0
  8 37  1  0  0  0  0
  9 10  1  0  0  0  0
  9 43  1  0  0  0  0
  9 44  1  0  0  0  0
 10 11  1  0  0  0  0
 10 45  1  0  0  0  0
 11 12  1  0  0  0  0
 11 46  1  0  0  0  0
 11 47  1  0  0  0  0
 12 13  1  0  0  0  0
 12 23  2  0  0  0  0
 13 14  2  0  0  0  0
 13 48  1  0  0  0  0
 14 15  1  0  0  0  0
 15 16  1  0  0  0  0
 15 23  1  0  0  0  0
 16 17  1  0  0  0  0
 16 22  1  0  0  0  0
 16 49  1  0  0  0  0
 17 18  1  0  0  0  0
 17 50  1  0  0  0  0
 17 51  1  0  0  0  0
 18 19  1  0  0  0  0
 18 52  1  0  0  0  0
 18 53  1  0  0  0  0
 19 20  2  0  0  0  0
 19 21  2  0  0  0  0
 19 22  1  0  0  0  0
 22 54  1  0  0  0  0
 22 55  1  0  0  0  0
 23 56  1  0  0  0  0
 24 25  2  0  0  0  0
 24 26  1  0  0  0  0
 26 27  1  0  0  0  0
 26 57  1  0  0  0  0
 27 28  1  0  0  0  0
 27 36  2  0  0  0  0
 28 29  2  0  0  0  0
 28 58  1  0  0  0  0
 29 30  1  0  0  0  0
 30 31  2  0  0  0  0
 30 59  1  0  0  0  0
 31 32  1  0  0  0  0
 31 36  1  0  0  0  0
 32 33  2  0  0  0  0
 32 60  1  0  0  0  0
 33 34  1  0  0  0  0
 33 61  1  0  0  0  0
 34 35  2  0  0  0  0
 34 62  1  0  0  0  0
 35 36  1  0  0  0  0
 35 63  1  0  0  0  0
 37 38  1  0  0  0  0
 37 64  1  0  0  0  0
 37 65  1  0  0  0  0
 38 39  1  0  0  0  0
 38 66  1  0  0  0  0
 38 67  1  0  0  0  0
M  END
$$$$
