
 OpenBabel07202414183D

 33 34  0  0  0  0  0  0  0  0999 V2000
    0.4574   -0.3025   -4.0020 F   0  0  0  0  0  0  0  0  0  0  0  0
   -0.5092   -0.2515   -3.0772 C   0  0  0  0  0  0  0  0  0  0  0  0
   -1.7694    0.2168   -3.4312 C   0  0  0  0  0  0  0  0  0  0  0  0
   -2.7766    0.2820   -2.4677 C   0  0  0  0  0  0  0  0  0  0  0  0
   -2.4964   -0.0535   -1.1345 C   0  0  0  0  0  0  0  0  0  0  0  0
   -3.4986    0.0962   -0.0450 C   0  0  0  0  0  0  0  0  0  0  0  0
   -3.6217   -0.8382    0.7429 O   0  0  0  0  0  0  0  0  0  0  0  0
   -4.2144    1.2938    0.0800 N   0  0  0  0  0  0  0  0  0  0  0  0
   -4.1276    2.4531   -0.8209 C   0  0  0  0  0  0  0  0  0  0  0  0
   -4.2416    3.7954   -0.0970 C   0  0  0  0  0  0  0  0  0  0  0  0
   -5.3687    3.8227    0.8333 N   0  0  0  0  0  0  0  0  0  0  0  0
   -6.2811    4.8658    0.9717 C   0  0  0  0  0  0  0  0  0  0  0  0
   -7.1543    4.8409    1.8377 O   0  0  0  0  0  0  0  0  0  0  0  0
   -6.1925    6.0439    0.0228 C   0  0  0  0  0  0  0  0  0  0  0  0
   -7.0159    5.6325   -1.4952 Cl  0  0  0  0  0  0  0  0  0  0  0  0
   -5.3977    2.6975    1.7758 C   0  0  0  0  0  0  0  0  0  0  0  0
   -5.3210    1.3478    1.0443 C   0  0  0  0  0  0  0  0  0  0  0  0
   -1.2351   -0.5722   -0.8040 C   0  0  0  0  0  0  0  0  0  0  0  0
   -0.2401   -0.6724   -1.7792 C   0  0  0  0  0  0  0  0  0  0  0  0
   -1.9587    0.5298   -4.4549 H   0  0  0  0  0  0  0  0  0  0  0  0
   -3.7686    0.6083   -2.7595 H   0  0  0  0  0  0  0  0  0  0  0  0
   -4.9514    2.3486   -1.5399 H   0  0  0  0  0  0  0  0  0  0  0  0
   -3.1856    2.4611   -1.3689 H   0  0  0  0  0  0  0  0  0  0  0  0
   -4.3016    4.5887   -0.8457 H   0  0  0  0  0  0  0  0  0  0  0  0
   -3.3400    3.9746    0.4981 H   0  0  0  0  0  0  0  0  0  0  0  0
   -5.1636    6.3391   -0.1810 H   0  0  0  0  0  0  0  0  0  0  0  0
   -6.6973    6.9048    0.4708 H   0  0  0  0  0  0  0  0  0  0  0  0
   -6.2912    2.7274    2.4045 H   0  0  0  0  0  0  0  0  0  0  0  0
   -4.5280    2.8159    2.4309 H   0  0  0  0  0  0  0  0  0  0  0  0
   -6.2416    1.1813    0.4762 H   0  0  0  0  0  0  0  0  0  0  0  0
   -5.2405    0.5395    1.7819 H   0  0  0  0  0  0  0  0  0  0  0  0
   -1.0279   -0.8950    0.2163 H   0  0  0  0  0  0  0  0  0  0  0  0
    0.7407   -1.0665   -1.5335 H   0  0  0  0  0  0  0  0  0  0  0  0
  1  2  1  0  0  0  0
  2  3  1  0  0  0  0
  2 19  2  0  0  0  0
  3  4  2  0  0  0  0
  3 20  1  0  0  0  0
  4  5  1  0  0  0  0
  4 21  1  0  0  0  0
  5  6  1  0  0  0  0
  5 18  2  0  0  0  0
  6  7  2  0  0  0  0
  6  8  1  0  0  0  0
  8  9  1  0  0  0  0
  8 17  1  0  0  0  0
  9 10  1  0  0  0  0
  9 22  1  0  0  0  0
  9 23  1  0  0  0  0
 10 11  1  0  0  0  0
 10 24  1  0  0  0  0
 10 25  1  0  0  0  0
 11 12  1  0  0  0  0
 11 16  1  0  0  0  0
 12 13  2  0  0  0  0
 12 14  1  0  0  0  0
 14 15  1  0  0  0  0
 14 26  1  0  0  0  0
 14 27  1  0  0  0  0
 16 17  1  0  0  0  0
 16 28  1  0  0  0  0
 16 29  1  0  0  0  0
 17 30  1  0  0  0  0
 17 31  1  0  0  0  0
 18 19  1  0  0  0  0
 18 32  1  0  0  0  0
 19 33  1  0  0  0  0
M  END
$$$$
