
 OpenBabel07202414113D

 72 76  0  0  1  0  0  0  0  0999 V2000
    2.1872    0.0494   -1.8360 C   0  0  0  0  0  0  0  0  0  0  0  0
    3.2587    0.5508   -1.1832 C   0  0  0  0  0  0  0  0  0  0  0  0
    3.2554    1.8341   -0.3796 C   0  0  0  0  0  0  0  0  0  0  0  0
    2.0894    2.7425   -0.5535 N   0  0  0  0  0  0  0  0  0  0  0  0
    0.9526    2.4212    0.2370 C   0  0  0  0  0  0  0  0  0  0  0  0
    1.0157    1.5064    1.0734 O   0  0  0  0  0  0  0  0  0  0  0  0
   -0.4422    3.0734    0.0090 C   0  0  2  0  0  0  0  0  0  0  0  0
   -0.8744    3.0852   -1.4663 C   0  0  0  0  0  0  0  0  0  0  0  0
   -0.5859    4.3756   -2.0888 N   0  0  0  0  0  0  0  0  0  0  0  0
   -0.6398    4.3707   -3.5570 C   0  0  0  0  0  0  0  0  0  0  0  0
   -1.9823    3.9111   -4.1406 C   0  0  0  0  0  0  0  0  0  0  0  0
   -2.9430    4.6641   -4.2606 O   0  0  0  0  0  0  0  0  0  0  0  0
   -1.9947    2.5765   -4.5089 N   0  0  0  0  0  0  0  0  0  0  0  0
   -3.1337    1.9533   -5.1237 C   0  0  0  0  0  0  0  0  0  0  0  0
   -1.4136    5.4323   -1.4953 C   0  0  0  0  0  0  0  0  0  0  0  0
   -1.2937    5.4719    0.0173 C   0  0  0  0  0  0  0  0  0  0  0  0
   -1.7136    6.6320    0.6940 C   0  0  0  0  0  0  0  0  0  0  0  0
   -1.6436    6.7078    2.0847 C   0  0  0  0  0  0  0  0  0  0  0  0
   -1.1586    5.6174    2.8022 C   0  0  0  0  0  0  0  0  0  0  0  0
   -1.0721    5.7141    4.5203 Cl  0  0  0  0  0  0  0  0  0  0  0  0
   -0.7505    4.4466    2.1507 C   0  0  0  0  0  0  0  0  0  0  0  0
   -0.8123    4.3586    0.7483 C   0  0  0  0  0  0  0  0  0  0  0  0
    2.4247    4.1346   -0.8205 C   0  0  0  0  0  0  0  0  0  0  0  0
    2.0546    5.1016    0.1176 C   0  0  0  0  0  0  0  0  0  0  0  0
    2.1080    6.4380   -0.0491 N   0  0  0  0  0  0  0  0  0  0  0  0
    2.6271    6.8611   -1.2089 C   0  0  0  0  0  0  0  0  0  0  0  0
    3.2322    6.0264   -2.1391 C   0  0  0  0  0  0  0  0  0  0  0  0
    3.9122    6.6019   -3.2248 C   0  0  0  0  0  0  0  0  0  0  0  0
    4.6176    5.8068   -4.1166 C   0  0  0  0  0  0  0  0  0  0  0  0
    4.6129    4.4289   -3.9496 C   0  0  0  0  0  0  0  0  0  0  0  0
    3.8744    3.8393   -2.9096 C   0  0  0  0  0  0  0  0  0  0  0  0
    3.1694    4.6152   -1.9481 C   0  0  0  0  0  0  0  0  0  0  0  0
    4.5185   -0.2794   -1.3993 C   0  0  0  0  0  0  0  0  0  0  0  0
    4.5663   -0.9870   -2.4162 O   0  0  0  0  0  0  0  0  0  0  0  0
    5.6111   -0.2756   -0.5370 N   0  0  0  0  0  0  0  0  0  0  0  0
    5.9718    0.7204    0.4695 C   0  0  0  0  0  0  0  0  0  0  0  0
    6.8463    1.7818   -0.2105 C   0  0  0  0  0  0  0  0  0  0  0  0
    8.0483    1.1777   -0.7245 O   0  0  0  0  0  0  0  0  0  0  0  0
    7.7534    0.1107   -1.6529 C   0  0  0  0  0  0  0  0  0  0  0  0
    6.8361   -0.9452   -1.0140 C   0  0  0  0  0  0  0  0  0  0  0  0
    1.2151    0.5296   -1.8024 H   0  0  0  0  0  0  0  0  0  0  0  0
    2.2298   -0.8699   -2.4113 H   0  0  0  0  0  0  0  0  0  0  0  0
    4.1629    2.3971   -0.5980 H   0  0  0  0  0  0  0  0  0  0  0  0
    3.2753    1.5649    0.6794 H   0  0  0  0  0  0  0  0  0  0  0  0
   -1.1214    2.3333    0.4663 H   0  0  0  0  0  0  0  0  0  0  0  0
   -1.9554    2.8839   -1.5141 H   0  0  0  0  0  0  0  0  0  0  0  0
   -0.3814    2.2676   -2.0008 H   0  0  0  0  0  0  0  0  0  0  0  0
    0.1611    3.7272   -3.9385 H   0  0  0  0  0  0  0  0  0  0  0  0
   -0.4227    5.3697   -3.9539 H   0  0  0  0  0  0  0  0  0  0  0  0
   -1.2043    1.9939   -4.2650 H   0  0  0  0  0  0  0  0  0  0  0  0
   -3.8516    2.6858   -5.4965 H   0  0  0  0  0  0  0  0  0  0  0  0
   -3.6227    1.3057   -4.3870 H   0  0  0  0  0  0  0  0  0  0  0  0
   -2.7719    1.3367   -5.9521 H   0  0  0  0  0  0  0  0  0  0  0  0
   -2.4752    5.3072   -1.7405 H   0  0  0  0  0  0  0  0  0  0  0  0
   -1.0822    6.4020   -1.8878 H   0  0  0  0  0  0  0  0  0  0  0  0
   -2.0980    7.4836    0.1349 H   0  0  0  0  0  0  0  0  0  0  0  0
   -1.9646    7.6112    2.5989 H   0  0  0  0  0  0  0  0  0  0  0  0
   -0.3832    3.6094    2.7397 H   0  0  0  0  0  0  0  0  0  0  0  0
    1.7127    4.8140    1.1053 H   0  0  0  0  0  0  0  0  0  0  0  0
    2.5798    7.9370   -1.3518 H   0  0  0  0  0  0  0  0  0  0  0  0
    3.9298    7.6827   -3.3569 H   0  0  0  0  0  0  0  0  0  0  0  0
    5.1785    6.2666   -4.9269 H   0  0  0  0  0  0  0  0  0  0  0  0
    5.1893    3.8069   -4.6313 H   0  0  0  0  0  0  0  0  0  0  0  0
    3.9021    2.7568   -2.8459 H   0  0  0  0  0  0  0  0  0  0  0  0
    6.5527    0.2051    1.2445 H   0  0  0  0  0  0  0  0  0  0  0  0
    5.1154    1.1398    0.9774 H   0  0  0  0  0  0  0  0  0  0  0  0
    7.1317    2.5551    0.5074 H   0  0  0  0  0  0  0  0  0  0  0  0
    6.3242    2.2662   -1.0439 H   0  0  0  0  0  0  0  0  0  0  0  0
    8.7060   -0.3401   -1.9461 H   0  0  0  0  0  0  0  0  0  0  0  0
    7.2905    0.5439   -2.5471 H   0  0  0  0  0  0  0  0  0  0  0  0
    7.3304   -1.3881   -0.1393 H   0  0  0  0  0  0  0  0  0  0  0  0
    6.6245   -1.7569   -1.7162 H   0  0  0  0  0  0  0  0  0  0  0  0
  1  2  2  0  0  0  0
  1 41  1  0  0  0  0
  1 42  1  0  0  0  0
  2  3  1  0  0  0  0
  2 33  1  0  0  0  0
  3  4  1  0  0  0  0
  3 43  1  0  0  0  0
  3 44  1  0  0  0  0
  4  5  1  0  0  0  0
  4 23  1  0  0  0  0
  5  6  2  0  0  0  0
  5  7  1  0  0  0  0
  7  8  1  0  0  0  0
  7 22  1  0  0  0  0
  7 45  1  1  0  0  0
  8  9  1  0  0  0  0
  8 46  1  0  0  0  0
  8 47  1  0  0  0  0
  9 10  1  0  0  0  0
  9 15  1  0  0  0  0
 10 11  1  0  0  0  0
 10 48  1  0  0  0  0
 10 49  1  0  0  0  0
 11 12  2  0  0  0  0
 11 13  1  0  0  0  0
 13 14  1  0  0  0  0
 13 50  1  0  0  0  0
 14 51  1  0  0  0  0
 14 52  1  0  0  0  0
 14 53  1  0  0  0  0
 15 16  1  0  0  0  0
 15 54  1  0  0  0  0
 15 55  1  0  0  0  0
 16 17  1  0  0  0  0
 16 22  2  0  0  0  0
 17 18  2  0  0  0  0
 17 56  1  0  0  0  0
 18 19  1  0  0  0  0
 18 57  1  0  0  0  0
 19 20  1  0  0  0  0
 19 21  2  0  0  0  0
 21 22  1  0  0  0  0
 21 58  1  0  0  0  0
 23 24  1  0  0  0  0
 23 32  2  0  0  0  0
 24 25  2  0  0  0  0
 24 59  1  0  0  0  0
 25 26  1  0  0  0  0
 26 27  2  0  0  0  0
 26 60  1  0  0  0  0
 27 28  1  0  0  0  0
 27 32  1  0  0  0  0
 28 29  2  0  0  0  0
 28 61  1  0  0  0  0
 29 30  1  0  0  0  0
 29 62  1  0  0  0  0
 30 31  2  0  0  0  0
 30 63  1  0  0  0  0
 31 32  1  0  0  0  0
 31 64  1  0  0  0  0
 33 34  2  0  0  0  0
 33 35  1  0  0  0  0
 35 36  1  0  0  0  0
 35 40  1  0  0  0  0
 36 37  1  0  0  0  0
 36 65  1  0  0  0  0
 36 66  1  0  0  0  0
 37 38  1  0  0  0  0
 37 67  1  0  0  0  0
 37 68  1  0  0  0  0
 38 39  1  0  0  0  0
 39 40  1  0  0  0  0
 39 69  1  0  0  0  0
 39 70  1  0  0  0  0
 40 71  1  0  0  0  0
 40 72  1  0  0  0  0
M  END
$$$$
