
 OpenBabel07202414133D

 49 51  0  0  0  0  0  0  0  0999 V2000
    1.0064   -0.0663    0.0192 C   0  0  0  0  0  0  0  0  0  0  0  0
    2.4622    0.0452    0.1299 N   0  0  0  0  0  0  0  0  0  0  0  0
    2.8251    1.4298    0.4436 C   0  0  0  0  0  0  0  0  0  0  0  0
    2.9714   -0.9258    1.1251 C   0  0  0  0  0  0  0  0  0  0  0  0
    4.4959   -0.8751    1.2923 C   0  0  0  0  0  0  0  0  0  0  0  0
    4.9632   -1.8815    2.2036 O   0  0  0  0  0  0  0  0  0  0  0  0
    6.3201   -1.8419    2.4215 C   0  0  0  0  0  0  0  0  0  0  0  0
    7.1033   -0.6980    2.2821 C   0  0  0  0  0  0  0  0  0  0  0  0
    8.4812   -0.7500    2.4821 C   0  0  0  0  0  0  0  0  0  0  0  0
    9.1287   -1.9485    2.8341 C   0  0  0  0  0  0  0  0  0  0  0  0
   10.5323   -2.0609    2.9560 C   0  0  0  0  0  0  0  0  0  0  0  0
   11.3569   -0.9138    2.8353 N   0  0  0  0  0  0  0  0  0  0  0  0
   12.5196   -0.8944    2.0839 C   0  0  0  0  0  0  0  0  0  0  0  0
   12.9427   -1.8400    1.4251 O   0  0  0  0  0  0  0  0  0  0  0  0
   13.2442    0.4416    2.1257 C   0  0  0  0  0  0  0  0  0  0  0  0
   12.7282    1.4884    1.1632 C   0  0  0  0  0  0  0  0  0  0  0  0
   12.7225    1.2585   -0.2208 C   0  0  0  0  0  0  0  0  0  0  0  0
   12.3412    2.2681   -1.1112 C   0  0  0  0  0  0  0  0  0  0  0  0
   11.9626    3.5219   -0.6320 C   0  0  0  0  0  0  0  0  0  0  0  0
   11.9616    3.7583    0.7392 C   0  0  0  0  0  0  0  0  0  0  0  0
   11.5117    5.3084    1.3383 Cl  0  0  0  0  0  0  0  0  0  0  0  0
   12.3406    2.7539    1.6339 C   0  0  0  0  0  0  0  0  0  0  0  0
   11.0676   -3.3196    3.2287 C   0  0  0  0  0  0  0  0  0  0  0  0
   10.3259   -4.4333    3.4307 N   0  0  0  0  0  0  0  0  0  0  0  0
    8.9826   -4.2982    3.3097 C   0  0  0  0  0  0  0  0  0  0  0  0
    8.3298   -3.1025    2.9978 C   0  0  0  0  0  0  0  0  0  0  0  0
    6.9289   -3.0292    2.8112 C   0  0  0  0  0  0  0  0  0  0  0  0
    0.6298    0.6058   -0.7606 H   0  0  0  0  0  0  0  0  0  0  0  0
    0.5026    0.1834    0.9600 H   0  0  0  0  0  0  0  0  0  0  0  0
    0.7162   -1.0804   -0.2745 H   0  0  0  0  0  0  0  0  0  0  0  0
    2.3833    2.1211   -0.2832 H   0  0  0  0  0  0  0  0  0  0  0  0
    3.9066    1.5847    0.3678 H   0  0  0  0  0  0  0  0  0  0  0  0
    2.4966    1.7269    1.4457 H   0  0  0  0  0  0  0  0  0  0  0  0
    2.6970   -1.9428    0.8165 H   0  0  0  0  0  0  0  0  0  0  0  0
    2.5014   -0.7679    2.1050 H   0  0  0  0  0  0  0  0  0  0  0  0
    4.7358    0.1107    1.6966 H   0  0  0  0  0  0  0  0  0  0  0  0
    4.9806   -1.0185    0.3176 H   0  0  0  0  0  0  0  0  0  0  0  0
    6.6907    0.2659    2.0074 H   0  0  0  0  0  0  0  0  0  0  0  0
    9.0335    0.1661    2.3079 H   0  0  0  0  0  0  0  0  0  0  0  0
   10.9269   -0.0144    3.0029 H   0  0  0  0  0  0  0  0  0  0  0  0
   14.3044    0.2588    1.9137 H   0  0  0  0  0  0  0  0  0  0  0  0
   13.2037    0.8179    3.1555 H   0  0  0  0  0  0  0  0  0  0  0  0
   13.0396    0.2957   -0.6218 H   0  0  0  0  0  0  0  0  0  0  0  0
   12.3583    2.0822   -2.1832 H   0  0  0  0  0  0  0  0  0  0  0  0
   11.6830    4.3074   -1.3296 H   0  0  0  0  0  0  0  0  0  0  0  0
   12.3595    2.9746    2.6986 H   0  0  0  0  0  0  0  0  0  0  0  0
   12.1380   -3.4655    3.3441 H   0  0  0  0  0  0  0  0  0  0  0  0
    8.4293   -5.2221    3.4568 H   0  0  0  0  0  0  0  0  0  0  0  0
    6.3182   -3.9242    2.9276 H   0  0  0  0  0  0  0  0  0  0  0  0
  1  2  1  0  0  0  0
  1 28  1  0  0  0  0
  1 29  1  0  0  0  0
  1 30  1  0  0  0  0
  2  3  1  0  0  0  0
  2  4  1  0  0  0  0
  3 31  1  0  0  0  0
  3 32  1  0  0  0  0
  3 33  1  0  0  0  0
  4  5  1  0  0  0  0
  4 34  1  0  0  0  0
  4 35  1  0  0  0  0
  5  6  1  0  0  0  0
  5 36  1  0  0  0  0
  5 37  1  0  0  0  0
  6  7  1  0  0  0  0
  7  8  1  0  0  0  0
  7 27  2  0  0  0  0
  8  9  2  0  0  0  0
  8 38  1  0  0  0  0
  9 10  1  0  0  0  0
  9 39  1  0  0  0  0
 10 11  1  0  0  0  0
 10 26  2  0  0  0  0
 11 12  1  0  0  0  0
 11 23  2  0  0  0  0
 12 13  1  0  0  0  0
 12 40  1  0  0  0  0
 13 14  2  0  0  0  0
 13 15  1  0  0  0  0
 15 16  1  0  0  0  0
 15 41  1  0  0  0  0
 15 42  1  0  0  0  0
 16 17  1  0  0  0  0
 16 22  2  0  0  0  0
 17 18  2  0  0  0  0
 17 43  1  0  0  0  0
 18 19  1  0  0  0  0
 18 44  1  0  0  0  0
 19 20  2  0  0  0  0
 19 45  1  0  0  0  0
 20 21  1  0  0  0  0
 20 22  1  0  0  0  0
 22 46  1  0  0  0  0
 23 24  1  0  0  0  0
 23 47  1  0  0  0  0
 24 25  2  0  0  0  0
 25 26  1  0  0  0  0
 25 48  1  0  0  0  0
 26 27  1  0  0  0  0
 27 49  1  0  0  0  0
M  END
$$$$
