
 OpenBabel07202414193D

 44 47  0  0  1  0  0  0  0  0999 V2000
    2.9433   -0.3533   -0.8096 O   0  0  0  0  0  0  0  0  0  0  0  0
    2.4738   -0.2279    0.3243 C   0  0  0  0  0  0  0  0  0  0  0  0
    1.5078   -1.2685    0.9160 C   0  0  0  0  0  0  0  0  0  0  0  0
    0.4828   -1.8620   -0.0332 C   0  0  0  0  0  0  0  0  0  0  0  0
    0.4717   -3.2406   -0.2430 C   0  0  0  0  0  0  0  0  0  0  0  0
   -0.4397   -3.8991   -0.9942 N   0  0  0  0  0  0  0  0  0  0  0  0
   -1.3937   -3.1458   -1.5822 C   0  0  0  0  0  0  0  0  0  0  0  0
   -1.5068   -1.7630   -1.4449 C   0  0  0  0  0  0  0  0  0  0  0  0
   -2.5421   -1.0349   -2.0635 C   0  0  0  0  0  0  0  0  0  0  0  0
   -2.6449    0.3440   -1.8863 C   0  0  0  0  0  0  0  0  0  0  0  0
   -1.7290    0.9985   -1.0759 C   0  0  0  0  0  0  0  0  0  0  0  0
   -0.7115    0.2767   -0.4519 C   0  0  0  0  0  0  0  0  0  0  0  0
   -0.5527   -1.1097   -0.6368 C   0  0  0  0  0  0  0  0  0  0  0  0
    2.8270    0.8454    1.1504 N   0  0  0  0  0  0  0  0  0  0  0  0
    2.5748    0.8996    2.5786 C   0  0  0  0  0  0  0  0  0  0  0  0
    2.9840    2.3007    2.9796 C   0  0  0  0  0  0  0  0  0  0  0  0
    4.1821    2.5806    2.0847 C   0  0  0  0  0  0  0  0  0  0  0  0
    3.8978    1.7956    0.7872 C   0  0  2  0  0  0  0  0  0  0  0  0
    3.6900    2.7131   -0.4084 C   0  0  0  0  0  0  0  0  0  0  0  0
    4.8153    3.1548   -1.1442 C   0  0  0  0  0  0  0  0  0  0  0  0
    6.4387    2.9034   -0.5838 Cl  0  0  0  0  0  0  0  0  0  0  0  0
    4.6835    3.8880   -2.3324 C   0  0  0  0  0  0  0  0  0  0  0  0
    3.4239    4.1933   -2.8272 C   0  0  0  0  0  0  0  0  0  0  0  0
    2.3075    3.8650   -2.0704 C   0  0  0  0  0  0  0  0  0  0  0  0
    2.4460    3.1947   -0.8450 C   0  0  0  0  0  0  0  0  0  0  0  0
    1.0398    3.1990    0.1520 Cl  0  0  0  0  0  0  0  0  0  0  0  0
    0.9332   -0.8663    1.7518 H   0  0  0  0  0  0  0  0  0  0  0  0
    2.1380   -2.0613    1.3378 H   0  0  0  0  0  0  0  0  0  0  0  0
    1.2052   -3.8928    0.2259 H   0  0  0  0  0  0  0  0  0  0  0  0
   -2.1048   -3.7097   -2.1802 H   0  0  0  0  0  0  0  0  0  0  0  0
   -3.2747   -1.5400   -2.6881 H   0  0  0  0  0  0  0  0  0  0  0  0
   -3.4411    0.9017   -2.3699 H   0  0  0  0  0  0  0  0  0  0  0  0
   -1.7986    2.0720   -0.9242 H   0  0  0  0  0  0  0  0  0  0  0  0
   -0.0314    0.8105    0.1974 H   0  0  0  0  0  0  0  0  0  0  0  0
    3.2097    0.1455    3.0594 H   0  0  0  0  0  0  0  0  0  0  0  0
    1.5314    0.7027    2.8272 H   0  0  0  0  0  0  0  0  0  0  0  0
    3.2144    2.3838    4.0448 H   0  0  0  0  0  0  0  0  0  0  0  0
    2.1765    3.0060    2.7586 H   0  0  0  0  0  0  0  0  0  0  0  0
    5.0858    2.1821    2.5625 H   0  0  0  0  0  0  0  0  0  0  0  0
    4.3341    3.6547    1.9372 H   0  0  0  0  0  0  0  0  0  0  0  0
    4.7595    1.1501    0.5711 H   0  0  0  0  0  0  0  0  0  0  0  0
    5.5647    4.2226   -2.8755 H   0  0  0  0  0  0  0  0  0  0  0  0
    3.3130    4.7276   -3.7668 H   0  0  0  0  0  0  0  0  0  0  0  0
    1.3219    4.1638   -2.4216 H   0  0  0  0  0  0  0  0  0  0  0  0
  1  2  2  0  0  0  0
  2  3  1  0  0  0  0
  2 14  1  0  0  0  0
  3  4  1  0  0  0  0
  3 27  1  0  0  0  0
  3 28  1  0  0  0  0
  4  5  1  0  0  0  0
  4 13  2  0  0  0  0
  5  6  2  0  0  0  0
  5 29  1  0  0  0  0
  6  7  1  0  0  0  0
  7  8  2  0  0  0  0
  7 30  1  0  0  0  0
  8  9  1  0  0  0  0
  8 13  1  0  0  0  0
  9 10  2  0  0  0  0
  9 31  1  0  0  0  0
 10 11  1  0  0  0  0
 10 32  1  0  0  0  0
 11 12  2  0  0  0  0
 11 33  1  0  0  0  0
 12 13  1  0  0  0  0
 12 34  1  0  0  0  0
 14 15  1  0  0  0  0
 14 18  1  0  0  0  0
 15 16  1  0  0  0  0
 15 35  1  0  0  0  0
 15 36  1  0  0  0  0
 16 17  1  0  0  0  0
 16 37  1  0  0  0  0
 16 38  1  0  0  0  0
 17 18  1  0  0  0  0
 17 39  1  0  0  0  0
 17 40  1  0  0  0  0
 18 19  1  0  0  0  0
 18 41  1  6  0  0  0
 19 20  1  0  0  0  0
 19 25  2  0  0  0  0
 20 21  1  0  0  0  0
 20 22  2  0  0  0  0
 22 23  1  0  0  0  0
 22 42  1  0  0  0  0
 23 24  2  0  0  0  0
 23 43  1  0  0  0  0
 24 25  1  0  0  0  0
 24 44  1  0  0  0  0
 25 26  1  0  0  0  0
M  END
$$$$
