
 OpenBabel07202414153D

 46 49  0  0  1  0  0  0  0  0999 V2000
    0.8378    0.1238    0.5771 C   0  0  0  0  0  0  0  0  0  0  0  0
    2.2588    0.1207    0.5008 O   0  0  0  0  0  0  0  0  0  0  0  0
    2.7912   -1.2074    0.5667 C   0  0  0  0  0  0  0  0  0  0  0  0
    4.3556   -1.2329    0.4613 C   0  0  3  0  0  0  0  0  0  0  0  0
    4.8279   -2.7029    0.5567 C   0  0  0  0  0  0  0  0  0  0  0  0
    4.6502   -3.2387    1.9657 C   0  0  0  0  0  0  0  0  0  0  0  0
    5.4216   -2.5006    2.9103 O   0  0  0  0  0  0  0  0  0  0  0  0
    5.3719   -1.1387    2.7924 C   0  0  0  0  0  0  0  0  0  0  0  0
    4.9361   -0.4571    1.6453 C   0  0  0  0  0  0  0  0  0  0  0  0
    4.9364    0.9508    1.6792 C   0  0  0  0  0  0  0  0  0  0  0  0
    5.3648    1.6528    2.8160 C   0  0  0  0  0  0  0  0  0  0  0  0
    5.8106    0.9514    3.9411 C   0  0  0  0  0  0  0  0  0  0  0  0
    5.8145   -0.4426    3.9217 C   0  0  0  0  0  0  0  0  0  0  0  0
    6.3485    1.7397    5.3808 Cl  0  0  0  0  0  0  0  0  0  0  0  0
    5.2970    3.3783    2.7760 Cl  0  0  0  0  0  0  0  0  0  0  0  0
    4.7619   -0.7199   -0.9526 C   0  0  0  0  0  0  0  0  0  0  0  0
    3.8948   -0.4333   -1.7767 O   0  0  0  0  0  0  0  0  0  0  0  0
    6.1240   -0.7085   -1.2516 N   0  0  0  0  0  0  0  0  0  0  0  0
    6.7105   -0.3640   -2.5192 C   0  0  0  0  0  0  0  0  0  0  0  0
    5.9429    0.0117   -3.6284 C   0  0  0  0  0  0  0  0  0  0  0  0
    6.4329    0.4404   -4.8169 N   0  0  0  0  0  0  0  0  0  0  0  0
    7.7696    0.5106   -4.9247 C   0  0  0  0  0  0  0  0  0  0  0  0
    8.6557    0.1256   -3.9257 C   0  0  0  0  0  0  0  0  0  0  0  0
    8.1302   -0.3627   -2.6975 C   0  0  0  0  0  0  0  0  0  0  0  0
    9.0832   -0.8277   -1.7529 C   0  0  0  0  0  0  0  0  0  0  0  0
   10.4612   -0.7549   -1.9959 C   0  0  0  0  0  0  0  0  0  0  0  0
   10.9416   -0.2146   -3.1789 C   0  0  0  0  0  0  0  0  0  0  0  0
   10.0406    0.2205   -4.1441 C   0  0  0  0  0  0  0  0  0  0  0  0
    0.4775    1.1212    0.3123 H   0  0  0  0  0  0  0  0  0  0  0  0
    0.5214   -0.1036    1.5993 H   0  0  0  0  0  0  0  0  0  0  0  0
    0.4010   -0.6000   -0.1189 H   0  0  0  0  0  0  0  0  0  0  0  0
    2.3555   -1.8031   -0.2467 H   0  0  0  0  0  0  0  0  0  0  0  0
    2.4546   -1.6402    1.5148 H   0  0  0  0  0  0  0  0  0  0  0  0
    5.8938   -2.7797    0.3052 H   0  0  0  0  0  0  0  0  0  0  0  0
    4.2890   -3.3323   -0.1609 H   0  0  0  0  0  0  0  0  0  0  0  0
    5.0030   -4.2743    2.0054 H   0  0  0  0  0  0  0  0  0  0  0  0
    3.6045   -3.2569    2.2893 H   0  0  0  0  0  0  0  0  0  0  0  0
    4.5479    1.5137    0.8296 H   0  0  0  0  0  0  0  0  0  0  0  0
    6.1402   -0.9999    4.7973 H   0  0  0  0  0  0  0  0  0  0  0  0
    6.7655   -0.8907   -0.4926 H   0  0  0  0  0  0  0  0  0  0  0  0
    4.8599   -0.0063   -3.6304 H   0  0  0  0  0  0  0  0  0  0  0  0
    8.1220    0.8884   -5.8825 H   0  0  0  0  0  0  0  0  0  0  0  0
    8.7695   -1.2823   -0.8177 H   0  0  0  0  0  0  0  0  0  0  0  0
   11.1656   -1.1328   -1.2546 H   0  0  0  0  0  0  0  0  0  0  0  0
   12.0124   -0.1447   -3.3608 H   0  0  0  0  0  0  0  0  0  0  0  0
   10.4276    0.6300   -5.0779 H   0  0  0  0  0  0  0  0  0  0  0  0
  1  2  1  0  0  0  0
  1 29  1  0  0  0  0
  1 30  1  0  0  0  0
  1 31  1  0  0  0  0
  2  3  1  0  0  0  0
  3  4  1  0  0  0  0
  3 32  1  0  0  0  0
  3 33  1  0  0  0  0
  4  5  1  0  0  0  0
  4  9  1  0  0  0  0
  4 16  1  0  0  0  0
  5  6  1  0  0  0  0
  5 34  1  0  0  0  0
  5 35  1  0  0  0  0
  6  7  1  0  0  0  0
  6 36  1  0  0  0  0
  6 37  1  0  0  0  0
  7  8  1  0  0  0  0
  8  9  1  0  0  0  0
  8 13  2  0  0  0  0
  9 10  2  0  0  0  0
 10 11  1  0  0  0  0
 10 38  1  0  0  0  0
 11 12  2  0  0  0  0
 11 15  1  0  0  0  0
 12 13  1  0  0  0  0
 12 14  1  0  0  0  0
 13 39  1  0  0  0  0
 16 17  2  0  0  0  0
 16 18  1  0  0  0  0
 18 19  1  0  0  0  0
 18 40  1  0  0  0  0
 19 20  1  0  0  0  0
 19 24  2  0  0  0  0
 20 21  2  0  0  0  0
 20 41  1  0  0  0  0
 21 22  1  0  0  0  0
 22 23  2  0  0  0  0
 22 42  1  0  0  0  0
 23 24  1  0  0  0  0
 23 28  1  0  0  0  0
 24 25  1  0  0  0  0
 25 26  2  0  0  0  0
 25 43  1  0  0  0  0
 26 27  1  0  0  0  0
 26 44  1  0  0  0  0
 27 28  2  0  0  0  0
 27 45  1  0  0  0  0
 28 46  1  0  0  0  0
M  END
$$$$
