
 OpenBabel07202414193D

 46 50  0  0  0  0  0  0  0  0999 V2000
    1.5729   -0.4224    1.1883 O   0  0  0  0  0  0  0  0  0  0  0  0
    2.5015   -0.0946    0.4291 C   0  0  0  0  0  0  0  0  0  0  0  0
    2.7747   -1.0781   -0.6910 C   0  0  0  0  0  0  0  0  0  0  0  0
    1.9685   -0.8693   -1.9599 C   0  0  0  0  0  0  0  0  0  0  0  0
    1.0239    0.1576   -2.0511 C   0  0  0  0  0  0  0  0  0  0  0  0
    0.2496    0.4011   -3.1288 N   0  0  0  0  0  0  0  0  0  0  0  0
    0.4096   -0.4219   -4.1834 C   0  0  0  0  0  0  0  0  0  0  0  0
    1.3068   -1.4861   -4.2262 C   0  0  0  0  0  0  0  0  0  0  0  0
    1.4163   -2.2960   -5.3711 C   0  0  0  0  0  0  0  0  0  0  0  0
    2.3041   -3.3677   -5.3973 C   0  0  0  0  0  0  0  0  0  0  0  0
    3.0751   -3.6469   -4.2770 C   0  0  0  0  0  0  0  0  0  0  0  0
    2.9769   -2.8436   -3.1350 C   0  0  0  0  0  0  0  0  0  0  0  0
    2.1016   -1.7335   -3.0822 C   0  0  0  0  0  0  0  0  0  0  0  0
    3.1846    1.1128    0.6296 N   0  0  0  0  0  0  0  0  0  0  0  0
    2.7776    1.7967    1.8690 C   0  0  0  0  0  0  0  0  0  0  0  0
    2.2225    3.1592    1.5966 C   0  0  0  0  0  0  0  0  0  0  0  0
    0.8575    3.4650    1.6398 C   0  0  0  0  0  0  0  0  0  0  0  0
    0.4285    4.7725    1.3975 C   0  0  0  0  0  0  0  0  0  0  0  0
    1.3586    5.7727    1.1053 C   0  0  0  0  0  0  0  0  0  0  0  0
    2.7137    5.4563    1.0417 C   0  0  0  0  0  0  0  0  0  0  0  0
    3.6021    6.4233    0.7704 F   0  0  0  0  0  0  0  0  0  0  0  0
    3.1376    4.1510    1.2655 C   0  0  0  0  0  0  0  0  0  0  0  0
    4.4701    3.8344    1.2697 O   0  0  0  0  0  0  0  0  0  0  0  0
    4.8912    2.9657    0.2744 C   0  0  0  0  0  0  0  0  0  0  0  0
    6.0702    3.4459   -0.3315 C   0  0  0  0  0  0  0  0  0  0  0  0
    6.6457    2.7734   -1.3944 C   0  0  0  0  0  0  0  0  0  0  0  0
    6.0072    1.6500   -1.8866 C   0  0  0  0  0  0  0  0  0  0  0  0
    4.8331    1.1662   -1.2792 C   0  0  0  0  0  0  0  0  0  0  0  0
    4.2778    1.7375   -0.1245 C   0  0  0  0  0  0  0  0  0  0  0  0
    2.4720   -2.0592   -0.2923 H   0  0  0  0  0  0  0  0  0  0  0  0
    3.8459   -1.2038   -0.8568 H   0  0  0  0  0  0  0  0  0  0  0  0
    0.8354    0.8476   -1.2320 H   0  0  0  0  0  0  0  0  0  0  0  0
   -0.2369   -0.1948   -5.0274 H   0  0  0  0  0  0  0  0  0  0  0  0
    0.8094   -2.0944   -6.2494 H   0  0  0  0  0  0  0  0  0  0  0  0
    2.3863   -3.9858   -6.2882 H   0  0  0  0  0  0  0  0  0  0  0  0
    3.7591   -4.4936   -4.2874 H   0  0  0  0  0  0  0  0  0  0  0  0
    3.5926   -3.1090   -2.2790 H   0  0  0  0  0  0  0  0  0  0  0  0
    3.6491    1.8463    2.5366 H   0  0  0  0  0  0  0  0  0  0  0  0
    2.0404    1.2390    2.4558 H   0  0  0  0  0  0  0  0  0  0  0  0
    0.1269    2.6906    1.8709 H   0  0  0  0  0  0  0  0  0  0  0  0
   -0.6316    5.0129    1.4445 H   0  0  0  0  0  0  0  0  0  0  0  0
    1.0357    6.7952    0.9305 H   0  0  0  0  0  0  0  0  0  0  0  0
    6.5253    4.3661    0.0305 H   0  0  0  0  0  0  0  0  0  0  0  0
    7.5574    3.1435   -1.8547 H   0  0  0  0  0  0  0  0  0  0  0  0
    6.4149    1.1360   -2.7551 H   0  0  0  0  0  0  0  0  0  0  0  0
    4.3952    0.3341   -1.8019 H   0  0  0  0  0  0  0  0  0  0  0  0
  1  2  2  0  0  0  0
  2  3  1  0  0  0  0
  2 14  1  0  0  0  0
  3  4  1  0  0  0  0
  3 30  1  0  0  0  0
  3 31  1  0  0  0  0
  4  5  1  0  0  0  0
  4 13  2  0  0  0  0
  5  6  2  0  0  0  0
  5 32  1  0  0  0  0
  6  7  1  0  0  0  0
  7  8  2  0  0  0  0
  7 33  1  0  0  0  0
  8  9  1  0  0  0  0
  8 13  1  0  0  0  0
  9 10  2  0  0  0  0
  9 34  1  0  0  0  0
 10 11  1  0  0  0  0
 10 35  1  0  0  0  0
 11 12  2  0  0  0  0
 11 36  1  0  0  0  0
 12 13  1  0  0  0  0
 12 37  1  0  0  0  0
 14 15  1  0  0  0  0
 14 29  1  0  0  0  0
 15 16  1  0  0  0  0
 15 38  1  0  0  0  0
 15 39  1  0  0  0  0
 16 17  1  0  0  0  0
 16 22  2  0  0  0  0
 17 18  2  0  0  0  0
 17 40  1  0  0  0  0
 18 19  1  0  0  0  0
 18 41  1  0  0  0  0
 19 20  2  0  0  0  0
 19 42  1  0  0  0  0
 20 21  1  0  0  0  0
 20 22  1  0  0  0  0
 22 23  1  0  0  0  0
 23 24  1  0  0  0  0
 24 25  1  0  0  0  0
 24 29  2  0  0  0  0
 25 26  2  0  0  0  0
 25 43  1  0  0  0  0
 26 27  1  0  0  0  0
 26 44  1  0  0  0  0
 27 28  2  0  0  0  0
 27 45  1  0  0  0  0
 28 29  1  0  0  0  0
 28 46  1  0  0  0  0
M  END
$$$$
