
 OpenBabel07202414183D

 69 74  0  0  1  0  0  0  0  0999 V2000
    0.9590    0.3125    0.0186 Cl  0  0  0  0  0  0  0  0  0  0  0  0
    2.6641    0.1755   -0.1662 C   0  0  0  0  0  0  0  0  0  0  0  0
    3.4530    1.3178   -0.2086 C   0  0  0  0  0  0  0  0  0  0  0  0
    4.8375    1.1928   -0.3231 C   0  0  0  0  0  0  0  0  0  0  0  0
    5.4350   -0.0699   -0.3787 C   0  0  0  0  0  0  0  0  0  0  0  0
    4.6530   -1.2314   -0.3652 C   0  0  0  0  0  0  0  0  0  0  0  0
    3.2537   -1.0868   -0.2478 C   0  0  0  0  0  0  0  0  0  0  0  0
    5.2997   -2.6383   -0.3652 C   0  0  1  0  0  0  0  0  0  0  0  0
    5.0626   -3.1337    1.0918 C   0  0  0  0  0  0  0  0  0  0  0  0
    5.6128   -4.4818    1.4928 C   0  0  0  0  0  0  0  0  0  0  0  0
    6.4037   -5.0883    0.7721 O   0  0  0  0  0  0  0  0  0  0  0  0
    5.1440   -5.0054    2.6908 N   0  0  0  0  0  0  0  0  0  0  0  0
    5.5916   -6.3483    3.0480 C   0  0  0  0  0  0  0  0  0  0  0  0
    4.6308   -7.0570    4.0141 C   0  0  0  0  0  0  0  0  0  0  0  0
    4.2462   -6.2778    5.1972 N   0  0  3  0  0  0  0  0  0  0  0  0
    5.0915   -6.3581    6.3989 C   0  0  3  0  0  0  0  0  0  0  0  0
    6.5452   -5.9374    6.3153 C   0  0  0  0  0  0  0  0  0  0  0  0
    7.3117   -7.2141    6.0439 C   0  0  0  0  0  0  0  0  0  0  0  0
    6.4942   -8.3091    6.4657 O   0  0  0  0  0  0  0  0  0  0  0  0
    5.2423   -7.7894    6.9382 C   0  0  0  0  0  0  0  0  0  0  0  0
    3.8044   -4.9281    4.8180 C   0  0  0  0  0  0  0  0  0  0  0  0
    4.7071   -4.1737    3.8224 C   0  0  0  0  0  0  0  0  0  0  0  0
    4.6373   -3.5657   -1.4496 C   0  0  0  0  0  0  0  0  0  0  0  0
    3.7174   -3.1656   -2.1607 O   0  0  0  0  0  0  0  0  0  0  0  0
    5.1741   -4.8366   -1.5599 N   0  0  0  0  0  0  0  0  0  0  0  0
    4.7200   -5.9051   -2.3910 C   0  0  0  0  0  0  0  0  0  0  0  0
    3.6581   -5.7784   -3.2889 C   0  0  0  0  0  0  0  0  0  0  0  0
    3.0982   -6.8044   -3.9763 N   0  0  0  0  0  0  0  0  0  0  0  0
    3.6423   -8.0221   -3.7900 C   0  0  0  0  0  0  0  0  0  0  0  0
    4.7666   -8.2708   -3.0065 C   0  0  0  0  0  0  0  0  0  0  0  0
    5.3281   -9.5600   -2.9403 C   0  0  0  0  0  0  0  0  0  0  0  0
    6.4773   -9.7980   -2.1919 C   0  0  0  0  0  0  0  0  0  0  0  0
    7.0656   -8.7558   -1.4917 C   0  0  0  0  0  0  0  0  0  0  0  0
    6.5045   -7.4763   -1.5390 C   0  0  0  0  0  0  0  0  0  0  0  0
    5.3369   -7.1898   -2.2931 C   0  0  0  0  0  0  0  0  0  0  0  0
    6.7908   -2.4794   -0.7422 C   0  0  0  0  0  0  0  0  0  0  0  0
    7.4154   -1.2846   -0.0480 C   0  0  0  0  0  0  0  0  0  0  0  0
    6.7996   -0.0638   -0.4435 O   0  0  0  0  0  0  0  0  0  0  0  0
    3.0027    2.3033   -0.1437 H   0  0  0  0  0  0  0  0  0  0  0  0
    5.4595    2.0841   -0.3491 H   0  0  0  0  0  0  0  0  0  0  0  0
    2.6059   -1.9611   -0.2239 H   0  0  0  0  0  0  0  0  0  0  0  0
    5.4811   -2.4049    1.7994 H   0  0  0  0  0  0  0  0  0  0  0  0
    3.9815   -3.1887    1.2729 H   0  0  0  0  0  0  0  0  0  0  0  0
    6.5911   -6.2392    3.4718 H   0  0  0  0  0  0  0  0  0  0  0  0
    5.6920   -6.9564    2.1419 H   0  0  0  0  0  0  0  0  0  0  0  0
    5.0194   -8.0445    4.2788 H   0  0  0  0  0  0  0  0  0  0  0  0
    3.7026   -7.2621    3.4609 H   0  0  0  0  0  0  0  0  0  0  0  0
    4.5822   -5.7712    7.1736 H   0  0  0  0  0  0  0  0  0  0  0  0
    6.8561   -5.5516    7.2927 H   0  0  0  0  0  0  0  0  0  0  0  0
    6.7747   -5.1473    5.5958 H   0  0  0  0  0  0  0  0  0  0  0  0
    8.2627   -7.2450    6.5811 H   0  0  0  0  0  0  0  0  0  0  0  0
    7.5349   -7.3582    4.9842 H   0  0  0  0  0  0  0  0  0  0  0  0
    5.2902   -7.7809    8.0330 H   0  0  0  0  0  0  0  0  0  0  0  0
    4.4289   -8.4617    6.6475 H   0  0  0  0  0  0  0  0  0  0  0  0
    3.6234   -4.3052    5.7027 H   0  0  0  0  0  0  0  0  0  0  0  0
    2.8199   -5.0407    4.3437 H   0  0  0  0  0  0  0  0  0  0  0  0
    5.6123   -3.8150    4.3233 H   0  0  0  0  0  0  0  0  0  0  0  0
    4.1769   -3.2855    3.4689 H   0  0  0  0  0  0  0  0  0  0  0  0
    5.8909   -5.0853   -0.8803 H   0  0  0  0  0  0  0  0  0  0  0  0
    3.1879   -4.8269   -3.5090 H   0  0  0  0  0  0  0  0  0  0  0  0
    3.1361   -8.8234   -4.3232 H   0  0  0  0  0  0  0  0  0  0  0  0
    4.8833  -10.3852   -3.4934 H   0  0  0  0  0  0  0  0  0  0  0  0
    6.9201  -10.7901   -2.1676 H   0  0  0  0  0  0  0  0  0  0  0  0
    7.9709   -8.9257   -0.9148 H   0  0  0  0  0  0  0  0  0  0  0  0
    7.0296   -6.6984   -0.9938 H   0  0  0  0  0  0  0  0  0  0  0  0
    6.8723   -2.3243   -1.8275 H   0  0  0  0  0  0  0  0  0  0  0  0
    7.3781   -3.3749   -0.5216 H   0  0  0  0  0  0  0  0  0  0  0  0
    8.4712   -1.2148   -0.3308 H   0  0  0  0  0  0  0  0  0  0  0  0
    7.3865   -1.3722    1.0445 H   0  0  0  0  0  0  0  0  0  0  0  0
  1  2  1  0  0  0  0
  2  3  1  0  0  0  0
  2  7  2  0  0  0  0
  3  4  2  0  0  0  0
  3 39  1  0  0  0  0
  4  5  1  0  0  0  0
  4 40  1  0  0  0  0
  5  6  2  0  0  0  0
  5 38  1  0  0  0  0
  6  7  1  0  0  0  0
  6  8  1  0  0  0  0
  7 41  1  0  0  0  0
  8 36  1  0  0  0  0
  8 23  1  6  0  0  0
  8  9  1  0  0  0  0
  9 10  1  0  0  0  0
  9 42  1  0  0  0  0
  9 43  1  0  0  0  0
 10 11  2  0  0  0  0
 10 12  1  0  0  0  0
 12 13  1  0  0  0  0
 12 22  1  0  0  0  0
 13 14  1  0  0  0  0
 13 44  1  0  0  0  0
 13 45  1  0  0  0  0
 14 15  1  0  0  0  0
 14 46  1  0  0  0  0
 14 47  1  0  0  0  0
 15 16  1  0  0  0  0
 15 21  1  0  0  0  0
 16 17  1  0  0  0  0
 16 20  1  0  0  0  0
 16 48  1  0  0  0  0
 17 18  1  0  0  0  0
 17 49  1  0  0  0  0
 17 50  1  0  0  0  0
 18 19  1  0  0  0  0
 18 51  1  0  0  0  0
 18 52  1  0  0  0  0
 19 20  1  0  0  0  0
 20 53  1  0  0  0  0
 20 54  1  0  0  0  0
 21 22  1  0  0  0  0
 21 55  1  0  0  0  0
 21 56  1  0  0  0  0
 22 57  1  0  0  0  0
 22 58  1  0  0  0  0
 23 24  2  0  0  0  0
 23 25  1  0  0  0  0
 25 26  1  0  0  0  0
 25 59  1  0  0  0  0
 26 27  1  0  0  0  0
 26 35  2  0  0  0  0
 27 28  2  0  0  0  0
 27 60  1  0  0  0  0
 28 29  1  0  0  0  0
 29 30  2  0  0  0  0
 29 61  1  0  0  0  0
 30 31  1  0  0  0  0
 30 35  1  0  0  0  0
 31 32  2  0  0  0  0
 31 62  1  0  0  0  0
 32 33  1  0  0  0  0
 32 63  1  0  0  0  0
 33 34  2  0  0  0  0
 33 64  1  0  0  0  0
 34 35  1  0  0  0  0
 34 65  1  0  0  0  0
 36 37  1  0  0  0  0
 36 66  1  0  0  0  0
 36 67  1  0  0  0  0
 37 38  1  0  0  0  0
 37 68  1  0  0  0  0
 37 69  1  0  0  0  0
M  END
$$$$
