
 OpenBabel07202414203D

 40 43  0  0  1  0  0  0  0  0999 V2000
    2.0827    0.5214   -1.0974 O   0  0  0  0  0  0  0  0  0  0  0  0
    1.8277   -0.1786    0.1308 C   0  0  1  0  0  0  0  0  0  0  0  0
    0.2792   -0.4108    0.2370 C   0  0  0  0  0  0  0  0  0  0  0  0
   -0.2096   -1.5318    0.3669 O   0  0  0  0  0  0  0  0  0  0  0  0
   -0.4571    0.7565    0.1312 N   0  0  0  0  0  0  0  0  0  0  0  0
   -1.8638    0.8921    0.0117 C   0  0  0  0  0  0  0  0  0  0  0  0
   -2.7299   -0.2002   -0.0645 C   0  0  0  0  0  0  0  0  0  0  0  0
   -4.0500   -0.1142   -0.3512 N   0  0  0  0  0  0  0  0  0  0  0  0
   -4.5450    1.1250   -0.5381 C   0  0  0  0  0  0  0  0  0  0  0  0
   -3.8101    2.3013   -0.3914 C   0  0  0  0  0  0  0  0  0  0  0  0
   -4.4266    3.5594   -0.5137 C   0  0  0  0  0  0  0  0  0  0  0  0
   -3.6930    4.7302   -0.3272 C   0  0  0  0  0  0  0  0  0  0  0  0
   -2.3391    4.6544   -0.0323 C   0  0  0  0  0  0  0  0  0  0  0  0
   -1.7159    3.4079    0.0742 C   0  0  0  0  0  0  0  0  0  0  0  0
   -2.4298    2.1940   -0.1024 C   0  0  0  0  0  0  0  0  0  0  0  0
    2.5557   -1.5256    0.0911 C   0  0  0  0  0  0  0  0  0  0  0  0
    2.5014   -2.1564    1.4745 C   0  0  0  0  0  0  0  0  0  0  0  0
    3.1573   -1.3599    2.4645 O   0  0  0  0  0  0  0  0  0  0  0  0
    2.9969   -0.0046    2.3644 C   0  0  0  0  0  0  0  0  0  0  0  0
    3.5643    0.7319    3.4072 C   0  0  0  0  0  0  0  0  0  0  0  0
    3.5596    2.1267    3.3736 C   0  0  0  0  0  0  0  0  0  0  0  0
    2.9945    2.7791    2.2860 C   0  0  0  0  0  0  0  0  0  0  0  0
    3.0320    4.4971    2.1990 Cl  0  0  0  0  0  0  0  0  0  0  0  0
    2.4143    2.0501    1.2444 C   0  0  0  0  0  0  0  0  0  0  0  0
    2.3973    0.6409    1.2744 C   0  0  0  0  0  0  0  0  0  0  0  0
    3.0483    0.5418   -1.2227 H   0  0  0  0  0  0  0  0  0  0  0  0
    0.0888    1.5847   -0.0512 H   0  0  0  0  0  0  0  0  0  0  0  0
   -2.3976   -1.2224    0.0793 H   0  0  0  0  0  0  0  0  0  0  0  0
   -5.5975    1.1477   -0.8096 H   0  0  0  0  0  0  0  0  0  0  0  0
   -5.4848    3.6388   -0.7409 H   0  0  0  0  0  0  0  0  0  0  0  0
   -4.1830    5.6973   -0.3972 H   0  0  0  0  0  0  0  0  0  0  0  0
   -1.7649    5.5638    0.1283 H   0  0  0  0  0  0  0  0  0  0  0  0
   -0.6624    3.4102    0.3390 H   0  0  0  0  0  0  0  0  0  0  0  0
    3.6045   -1.3756   -0.2007 H   0  0  0  0  0  0  0  0  0  0  0  0
    2.1186   -2.1917   -0.6613 H   0  0  0  0  0  0  0  0  0  0  0  0
    3.0131   -3.1230    1.4511 H   0  0  0  0  0  0  0  0  0  0  0  0
    1.4820   -2.3543    1.8212 H   0  0  0  0  0  0  0  0  0  0  0  0
    4.0324    0.2143    4.2411 H   0  0  0  0  0  0  0  0  0  0  0  0
    4.0234    2.6894    4.1801 H   0  0  0  0  0  0  0  0  0  0  0  0
    2.0149    2.5893    0.3894 H   0  0  0  0  0  0  0  0  0  0  0  0
  1 26  1  0  0  0  0
  2 16  1  0  0  0  0
  2 25  1  0  0  0  0
  2  3  1  1  0  0  0
  2  1  1  0  0  0  0
  3  4  2  0  0  0  0
  3  5  1  0  0  0  0
  5  6  1  0  0  0  0
  5 27  1  0  0  0  0
  6  7  1  0  0  0  0
  6 15  2  0  0  0  0
  7  8  2  0  0  0  0
  7 28  1  0  0  0  0
  8  9  1  0  0  0  0
  9 10  2  0  0  0  0
  9 29  1  0  0  0  0
 10 11  1  0  0  0  0
 10 15  1  0  0  0  0
 11 12  2  0  0  0  0
 11 30  1  0  0  0  0
 12 13  1  0  0  0  0
 12 31  1  0  0  0  0
 13 14  2  0  0  0  0
 13 32  1  0  0  0  0
 14 15  1  0  0  0  0
 14 33  1  0  0  0  0
 16 17  1  0  0  0  0
 16 34  1  0  0  0  0
 16 35  1  0  0  0  0
 17 18  1  0  0  0  0
 17 36  1  0  0  0  0
 17 37  1  0  0  0  0
 18 19  1  0  0  0  0
 19 20  1  0  0  0  0
 19 25  2  0  0  0  0
 20 21  2  0  0  0  0
 20 38  1  0  0  0  0
 21 22  1  0  0  0  0
 21 39  1  0  0  0  0
 22 23  1  0  0  0  0
 22 24  2  0  0  0  0
 24 25  1  0  0  0  0
 24 40  1  0  0  0  0
M  END
$$$$
