
 OpenBabel07202414183D

 34 36  0  0  0  0  0  0  0  0999 V2000
   -6.3324    3.3827   -2.9570 F   0  0  0  0  0  0  0  0  0  0  0  0
   -5.5313    2.3068   -2.9540 C   0  0  0  0  0  0  0  0  0  0  0  0
   -5.2948    1.6559   -1.7416 C   0  0  0  0  0  0  0  0  0  0  0  0
   -4.4532    0.5347   -1.6912 C   0  0  0  0  0  0  0  0  0  0  0  0
   -4.1149   -0.1004   -0.3602 C   0  0  0  0  0  0  0  0  0  0  0  0
   -4.3840   -1.5910   -0.2758 C   0  0  0  0  0  0  0  0  0  0  0  0
   -3.4862   -2.4164   -0.4498 O   0  0  0  0  0  0  0  0  0  0  0  0
   -5.7037   -1.9088   -0.0108 N   0  0  0  0  0  0  0  0  0  0  0  0
   -6.1434   -3.2497    0.1320 C   0  0  0  0  0  0  0  0  0  0  0  0
   -5.4458   -4.1500    0.9431 C   0  0  0  0  0  0  0  0  0  0  0  0
   -5.8307   -5.4260    1.1741 N   0  0  0  0  0  0  0  0  0  0  0  0
   -6.9467   -5.8383    0.5354 C   0  0  0  0  0  0  0  0  0  0  0  0
   -7.7147   -5.0420   -0.3200 C   0  0  0  0  0  0  0  0  0  0  0  0
   -8.8453   -5.5523   -0.9829 C   0  0  0  0  0  0  0  0  0  0  0  0
   -9.5742   -4.7537   -1.8636 C   0  0  0  0  0  0  0  0  0  0  0  0
   -9.1817   -3.4383   -2.0918 C   0  0  0  0  0  0  0  0  0  0  0  0
   -8.0678   -2.9172   -1.4270 C   0  0  0  0  0  0  0  0  0  0  0  0
   -7.3134   -3.7016   -0.5202 C   0  0  0  0  0  0  0  0  0  0  0  0
   -3.8613    0.0833   -2.8813 C   0  0  0  0  0  0  0  0  0  0  0  0
   -4.1036    0.7409   -4.0955 C   0  0  0  0  0  0  0  0  0  0  0  0
   -4.9369    1.8580   -4.1293 C   0  0  0  0  0  0  0  0  0  0  0  0
   -5.2068    2.6749   -5.6198 Cl  0  0  0  0  0  0  0  0  0  0  0  0
   -5.7570    2.0577   -0.8442 H   0  0  0  0  0  0  0  0  0  0  0  0
   -4.6601    0.3918    0.4529 H   0  0  0  0  0  0  0  0  0  0  0  0
   -3.0501    0.0603   -0.1558 H   0  0  0  0  0  0  0  0  0  0  0  0
   -6.3947   -1.2232   -0.2854 H   0  0  0  0  0  0  0  0  0  0  0  0
   -4.5502   -3.8516    1.4817 H   0  0  0  0  0  0  0  0  0  0  0  0
   -7.2107   -6.8758    0.7266 H   0  0  0  0  0  0  0  0  0  0  0  0
   -9.1530   -6.5846   -0.8332 H   0  0  0  0  0  0  0  0  0  0  0  0
  -10.4324   -5.1628   -2.3866 H   0  0  0  0  0  0  0  0  0  0  0  0
   -9.7290   -2.8207   -2.7966 H   0  0  0  0  0  0  0  0  0  0  0  0
   -7.7799   -1.8995   -1.6656 H   0  0  0  0  0  0  0  0  0  0  0  0
   -3.1862   -0.7726   -2.8732 H   0  0  0  0  0  0  0  0  0  0  0  0
   -3.6231    0.3869   -5.0048 H   0  0  0  0  0  0  0  0  0  0  0  0
  1  2  1  0  0  0  0
  2  3  1  0  0  0  0
  2 21  2  0  0  0  0
  3  4  2  0  0  0  0
  3 23  1  0  0  0  0
  4  5  1  0  0  0  0
  4 19  1  0  0  0  0
  5  6  1  0  0  0  0
  5 24  1  0  0  0  0
  5 25  1  0  0  0  0
  6  7  2  0  0  0  0
  6  8  1  0  0  0  0
  8  9  1  0  0  0  0
  8 26  1  0  0  0  0
  9 10  1  0  0  0  0
  9 18  2  0  0  0  0
 10 11  2  0  0  0  0
 10 27  1  0  0  0  0
 11 12  1  0  0  0  0
 12 13  2  0  0  0  0
 12 28  1  0  0  0  0
 13 14  1  0  0  0  0
 13 18  1  0  0  0  0
 14 15  2  0  0  0  0
 14 29  1  0  0  0  0
 15 16  1  0  0  0  0
 15 30  1  0  0  0  0
 16 17  2  0  0  0  0
 16 31  1  0  0  0  0
 17 18  1  0  0  0  0
 17 32  1  0  0  0  0
 19 20  2  0  0  0  0
 19 33  1  0  0  0  0
 20 21  1  0  0  0  0
 20 34  1  0  0  0  0
 21 22  1  0  0  0  0
M  END
$$$$
