
 OpenBabel07202414123D

 64 66  0  0  1  0  0  0  0  0999 V2000
    8.5878    0.7303    7.7609 C   0  0  0  0  0  0  0  0  0  0  0  0
    8.8393   -0.4613    6.8072 C   0  0  0  0  0  0  0  0  0  0  0  0
    9.6935    0.0375    5.6268 C   0  0  0  0  0  0  0  0  0  0  0  0
    9.6742   -1.4861    7.6112 C   0  0  0  0  0  0  0  0  0  0  0  0
    7.5326   -1.0632    6.2497 C   0  0  0  0  0  0  0  0  0  0  0  0
    6.3511   -0.3199    6.1501 C   0  0  0  0  0  0  0  0  0  0  0  0
    5.1540   -0.8756    5.6511 C   0  0  0  0  0  0  0  0  0  0  0  0
    5.0748   -2.1970    5.1944 C   0  0  0  0  0  0  0  0  0  0  0  0
    6.2803   -2.9189    5.2344 C   0  0  0  0  0  0  0  0  0  0  0  0
    7.4725   -2.3735    5.7574 C   0  0  0  0  0  0  0  0  0  0  0  0
    3.8135   -2.8051    4.7396 N   0  0  0  0  0  0  0  0  0  0  0  0
    3.7086   -4.2970    4.8950 C   0  0  3  0  0  0  0  0  0  0  0  0
    2.6367   -4.7911    5.8789 C   0  0  0  0  0  0  0  0  0  0  0  0
    2.3075   -6.1502    5.9952 C   0  0  0  0  0  0  0  0  0  0  0  0
    1.3968   -6.5812    6.9591 C   0  0  0  0  0  0  0  0  0  0  0  0
    0.8297   -5.6392    7.7945 C   0  0  0  0  0  0  0  0  0  0  0  0
    1.1304   -4.3281    7.7416 N   0  0  0  0  0  0  0  0  0  0  0  0
    2.0389   -3.9425    6.8138 C   0  0  0  0  0  0  0  0  0  0  0  0
    3.8321   -5.1029    3.5500 C   0  0  0  0  0  0  0  0  0  0  0  0
    4.1989   -6.2821    3.5499 O   0  0  0  0  0  0  0  0  0  0  0  0
    3.4358   -4.5012    2.3688 N   0  0  0  0  0  0  0  0  0  0  0  0
    3.5584   -5.2046    1.0901 C   0  0  0  0  0  0  0  0  0  0  0  0
    3.0330   -4.3816   -0.0898 C   0  0  0  0  0  0  0  0  0  0  0  0
    3.1613   -5.0855   -1.4264 C   0  0  0  0  0  0  0  0  0  0  0  0
    4.3257   -4.9439   -2.1990 C   0  0  0  0  0  0  0  0  0  0  0  0
    4.4373   -5.5666   -3.4475 C   0  0  0  0  0  0  0  0  0  0  0  0
    3.3871   -6.3418   -3.9338 C   0  0  0  0  0  0  0  0  0  0  0  0
    2.2380   -6.4928   -3.1672 C   0  0  0  0  0  0  0  0  0  0  0  0
    2.1198   -5.8751   -1.9196 C   0  0  0  0  0  0  0  0  0  0  0  0
    1.2275   -7.2354   -3.6339 F   0  0  0  0  0  0  0  0  0  0  0  0
    2.7517   -1.9909    4.2933 C   0  0  0  0  0  0  0  0  0  0  0  0
    2.8238   -0.7723    4.1386 O   0  0  0  0  0  0  0  0  0  0  0  0
    1.4559   -2.6452    3.9079 C   0  0  0  0  0  0  0  0  0  0  0  0
    0.4064   -1.9047    3.5231 C   0  0  0  0  0  0  0  0  0  0  0  0
    9.5257    1.0940    8.1990 H   0  0  0  0  0  0  0  0  0  0  0  0
    7.9283    0.4420    8.5896 H   0  0  0  0  0  0  0  0  0  0  0  0
    8.1349    1.5846    7.2483 H   0  0  0  0  0  0  0  0  0  0  0  0
   10.6416    0.4681    5.9784 H   0  0  0  0  0  0  0  0  0  0  0  0
    9.1746    0.8125    5.0523 H   0  0  0  0  0  0  0  0  0  0  0  0
    9.9423   -0.7763    4.9349 H   0  0  0  0  0  0  0  0  0  0  0  0
   10.5954   -1.0265    7.9923 H   0  0  0  0  0  0  0  0  0  0  0  0
    9.9891   -2.3427    7.0049 H   0  0  0  0  0  0  0  0  0  0  0  0
    9.1154   -1.8678    8.4722 H   0  0  0  0  0  0  0  0  0  0  0  0
    6.3137    0.7202    6.4645 H   0  0  0  0  0  0  0  0  0  0  0  0
    4.2863   -0.2222    5.6762 H   0  0  0  0  0  0  0  0  0  0  0  0
    6.3624   -3.9275    4.8385 H   0  0  0  0  0  0  0  0  0  0  0  0
    8.3558   -3.0077    5.7548 H   0  0  0  0  0  0  0  0  0  0  0  0
    4.6005   -4.6236    5.4406 H   0  0  0  0  0  0  0  0  0  0  0  0
    2.7736   -6.9044    5.3644 H   0  0  0  0  0  0  0  0  0  0  0  0
    1.1498   -7.6322    7.0633 H   0  0  0  0  0  0  0  0  0  0  0  0
    0.1119   -5.9222    8.5587 H   0  0  0  0  0  0  0  0  0  0  0  0
    2.2699   -2.8810    6.8627 H   0  0  0  0  0  0  0  0  0  0  0  0
    3.3418   -3.4929    2.3426 H   0  0  0  0  0  0  0  0  0  0  0  0
    3.0105   -6.1519    1.1737 H   0  0  0  0  0  0  0  0  0  0  0  0
    4.6166   -5.4565    0.9506 H   0  0  0  0  0  0  0  0  0  0  0  0
    3.5710   -3.4246   -0.1429 H   0  0  0  0  0  0  0  0  0  0  0  0
    1.9847   -4.1154    0.0786 H   0  0  0  0  0  0  0  0  0  0  0  0
    5.1555   -4.3350   -1.8406 H   0  0  0  0  0  0  0  0  0  0  0  0
    5.3400   -5.4414   -4.0420 H   0  0  0  0  0  0  0  0  0  0  0  0
    3.4507   -6.8274   -4.9032 H   0  0  0  0  0  0  0  0  0  0  0  0
    1.1979   -6.0144   -1.3615 H   0  0  0  0  0  0  0  0  0  0  0  0
    1.3419   -3.7179    3.9191 H   0  0  0  0  0  0  0  0  0  0  0  0
    0.4487   -0.8189    3.4911 H   0  0  0  0  0  0  0  0  0  0  0  0
   -0.5294   -2.3737    3.2377 H   0  0  0  0  0  0  0  0  0  0  0  0
  1  2  1  0  0  0  0
  1 35  1  0  0  0  0
  1 36  1  0  0  0  0
  1 37  1  0  0  0  0
  2  3  1  0  0  0  0
  2  4  1  0  0  0  0
  2  5  1  0  0  0  0
  3 38  1  0  0  0  0
  3 39  1  0  0  0  0
  3 40  1  0  0  0  0
  4 41  1  0  0  0  0
  4 42  1  0  0  0  0
  4 43  1  0  0  0  0
  5  6  1  0  0  0  0
  5 10  2  0  0  0  0
  6  7  2  0  0  0  0
  6 44  1  0  0  0  0
  7  8  1  0  0  0  0
  7 45  1  0  0  0  0
  8  9  2  0  0  0  0
  8 11  1  0  0  0  0
  9 10  1  0  0  0  0
  9 46  1  0  0  0  0
 10 47  1  0  0  0  0
 11 12  1  0  0  0  0
 11 31  1  0  0  0  0
 12 13  1  0  0  0  0
 12 19  1  0  0  0  0
 12 48  1  0  0  0  0
 13 14  1  0  0  0  0
 13 18  2  0  0  0  0
 14 15  2  0  0  0  0
 14 49  1  0  0  0  0
 15 16  1  0  0  0  0
 15 50  1  0  0  0  0
 16 17  2  0  0  0  0
 16 51  1  0  0  0  0
 17 18  1  0  0  0  0
 18 52  1  0  0  0  0
 19 20  2  0  0  0  0
 19 21  1  0  0  0  0
 21 22  1  0  0  0  0
 21 53  1  0  0  0  0
 22 23  1  0  0  0  0
 22 54  1  0  0  0  0
 22 55  1  0  0  0  0
 23 24  1  0  0  0  0
 23 56  1  0  0  0  0
 23 57  1  0  0  0  0
 24 25  1  0  0  0  0
 24 29  2  0  0  0  0
 25 26  2  0  0  0  0
 25 58  1  0  0  0  0
 26 27  1  0  0  0  0
 26 59  1  0  0  0  0
 27 28  2  0  0  0  0
 27 60  1  0  0  0  0
 28 29  1  0  0  0  0
 28 30  1  0  0  0  0
 29 61  1  0  0  0  0
 31 32  2  0  0  0  0
 31 33  1  0  0  0  0
 33 34  2  0  0  0  0
 33 62  1  0  0  0  0
 34 63  1  0  0  0  0
 34 64  1  0  0  0  0
M  END
$$$$
