
 OpenBabel07202414173D

 49 53  0  0  1  0  0  0  0  0999 V2000
    0.8964   -0.0169    0.0729 Cl  0  0  0  0  0  0  0  0  0  0  0  0
    2.6123   -0.0516    0.1668 C   0  0  0  0  0  0  0  0  0  0  0  0
    3.3328    1.1235    0.0082 C   0  0  0  0  0  0  0  0  0  0  0  0
    4.7247    1.1088    0.0686 C   0  0  0  0  0  0  0  0  0  0  0  0
    5.4064   -0.0985    0.2920 C   0  0  0  0  0  0  0  0  0  0  0  0
    4.6777   -1.2995    0.4621 C   0  0  0  0  0  0  0  0  0  0  0  0
    3.2755   -1.2583    0.3958 C   0  0  0  0  0  0  0  0  0  0  0  0
    5.4033   -2.6268    0.7182 C   0  0  3  0  0  0  0  0  0  0  0  0
    5.3241   -3.0694    2.2012 C   0  0  0  0  0  0  0  0  0  0  0  0
    4.3189   -2.8138    2.8706 O   0  0  0  0  0  0  0  0  0  0  0  0
    6.3656   -3.8589    2.6626 N   0  0  0  0  0  0  0  0  0  0  0  0
    6.5612   -4.3718    3.9762 C   0  0  0  0  0  0  0  0  0  0  0  0
    5.7049   -4.1009    5.0414 C   0  0  0  0  0  0  0  0  0  0  0  0
    5.9642   -4.4179    6.3314 N   0  0  0  0  0  0  0  0  0  0  0  0
    7.1176   -5.0727    6.5708 C   0  0  0  0  0  0  0  0  0  0  0  0
    8.0050   -5.5041    5.5864 C   0  0  0  0  0  0  0  0  0  0  0  0
    9.1416   -6.2701    5.9151 C   0  0  0  0  0  0  0  0  0  0  0  0
    9.9985   -6.7347    4.9224 C   0  0  0  0  0  0  0  0  0  0  0  0
    9.7435   -6.4206    3.5964 C   0  0  0  0  0  0  0  0  0  0  0  0
    8.6299   -5.6450    3.2615 C   0  0  0  0  0  0  0  0  0  0  0  0
    7.7286   -5.1593    4.2454 C   0  0  0  0  0  0  0  0  0  0  0  0
    6.8156   -2.5128    0.1296 C   0  0  0  0  0  0  0  0  0  0  0  0
    7.5066   -1.3433    0.6649 N   0  0  0  0  0  0  0  0  0  0  0  0
    8.6018   -1.5008    1.4926 C   0  0  0  0  0  0  0  0  0  0  0  0
    8.9399   -2.6092    1.9049 O   0  0  0  0  0  0  0  0  0  0  0  0
    9.3850   -0.2827    1.8657 C   0  0  0  0  0  0  0  0  0  0  0  0
   10.7347   -0.4196    2.5326 C   0  0  0  0  0  0  0  0  0  0  0  0
    9.5705    0.1245    3.3110 C   0  0  0  0  0  0  0  0  0  0  0  0
    6.9194   -0.0635    0.3081 C   0  0  0  0  0  0  0  0  0  0  0  0
    2.8152    2.0713   -0.1589 H   0  0  0  0  0  0  0  0  0  0  0  0
    5.2749    2.0380   -0.0615 H   0  0  0  0  0  0  0  0  0  0  0  0
    2.6962   -2.1713    0.5375 H   0  0  0  0  0  0  0  0  0  0  0  0
    4.8843   -3.4135    0.1506 H   0  0  0  0  0  0  0  0  0  0  0  0
    7.2113   -3.8856    2.1081 H   0  0  0  0  0  0  0  0  0  0  0  0
    4.7644   -3.5790    4.9142 H   0  0  0  0  0  0  0  0  0  0  0  0
    7.3130   -5.2607    7.6248 H   0  0  0  0  0  0  0  0  0  0  0  0
    9.3485   -6.5265    6.9515 H   0  0  0  0  0  0  0  0  0  0  0  0
   10.8594   -7.3427    5.1857 H   0  0  0  0  0  0  0  0  0  0  0  0
   10.4070   -6.7827    2.8131 H   0  0  0  0  0  0  0  0  0  0  0  0
    8.4739   -5.4440    2.2056 H   0  0  0  0  0  0  0  0  0  0  0  0
    6.7567   -2.3718   -0.9608 H   0  0  0  0  0  0  0  0  0  0  0  0
    7.4044   -3.4223    0.2654 H   0  0  0  0  0  0  0  0  0  0  0  0
    9.3435    0.5221    1.1389 H   0  0  0  0  0  0  0  0  0  0  0  0
   11.5121    0.2682    2.2194 H   0  0  0  0  0  0  0  0  0  0  0  0
   11.0925   -1.4102    2.7862 H   0  0  0  0  0  0  0  0  0  0  0  0
    9.5745    1.1807    3.5511 H   0  0  0  0  0  0  0  0  0  0  0  0
    9.1600   -0.5048    4.0938 H   0  0  0  0  0  0  0  0  0  0  0  0
    7.2793    0.1782   -0.6991 H   0  0  0  0  0  0  0  0  0  0  0  0
    7.2407    0.7200    1.0000 H   0  0  0  0  0  0  0  0  0  0  0  0
  1  2  1  0  0  0  0
  2  3  1  0  0  0  0
  2  7  2  0  0  0  0
  3  4  2  0  0  0  0
  3 30  1  0  0  0  0
  4  5  1  0  0  0  0
  4 31  1  0  0  0  0
  5  6  2  0  0  0  0
  5 29  1  0  0  0  0
  6  7  1  0  0  0  0
  6  8  1  0  0  0  0
  7 32  1  0  0  0  0
  8  9  1  0  0  0  0
  8 22  1  0  0  0  0
  8 33  1  0  0  0  0
  9 10  2  0  0  0  0
  9 11  1  0  0  0  0
 11 12  1  0  0  0  0
 11 34  1  0  0  0  0
 12 13  1  0  0  0  0
 12 21  2  0  0  0  0
 13 14  2  0  0  0  0
 13 35  1  0  0  0  0
 14 15  1  0  0  0  0
 15 16  2  0  0  0  0
 15 36  1  0  0  0  0
 16 17  1  0  0  0  0
 16 21  1  0  0  0  0
 17 18  2  0  0  0  0
 17 37  1  0  0  0  0
 18 19  1  0  0  0  0
 18 38  1  0  0  0  0
 19 20  2  0  0  0  0
 19 39  1  0  0  0  0
 20 21  1  0  0  0  0
 20 40  1  0  0  0  0
 22 23  1  0  0  0  0
 22 41  1  0  0  0  0
 22 42  1  0  0  0  0
 23 24  1  0  0  0  0
 23 29  1  0  0  0  0
 24 25  2  0  0  0  0
 24 26  1  0  0  0  0
 26 27  1  0  0  0  0
 26 28  1  0  0  0  0
 26 43  1  0  0  0  0
 27 28  1  0  0  0  0
 27 44  1  0  0  0  0
 27 45  1  0  0  0  0
 28 46  1  0  0  0  0
 28 47  1  0  0  0  0
 29 48  1  0  0  0  0
 29 49  1  0  0  0  0
M  END
$$$$
