
 OpenBabel07202414193D

 40 43  0  0  0  0  0  0  0  0999 V2000
    1.3140    0.0699   -0.2584 O   0  0  0  0  0  0  0  0  0  0  0  0
    2.5409    0.0039   -0.1681 C   0  0  0  0  0  0  0  0  0  0  0  0
    3.2474    0.7729    0.7388 N   0  0  0  0  0  0  0  0  0  0  0  0
    2.4989    1.5779    1.6975 C   0  0  0  0  0  0  0  0  0  0  0  0
    3.3413    2.3498    2.7111 C   0  0  0  0  0  0  0  0  0  0  0  0
    4.2980    3.3243    2.0993 C   0  0  0  0  0  0  0  0  0  0  0  0
    3.9903    4.3488    1.2191 C   0  0  0  0  0  0  0  0  0  0  0  0
    5.1509    5.0058    0.9015 N   0  0  0  0  0  0  0  0  0  0  0  0
    6.1960    4.4440    1.5588 C   0  0  0  0  0  0  0  0  0  0  0  0
    7.4714    4.8681    1.4656 N   0  0  0  0  0  0  0  0  0  0  0  0
    8.3137    4.1417    2.2424 C   0  0  0  0  0  0  0  0  0  0  0  0
    7.9604    3.0677    3.0543 C   0  0  0  0  0  0  0  0  0  0  0  0
    9.1459    2.2305    3.9698 Cl  0  0  0  0  0  0  0  0  0  0  0  0
    6.6293    2.6665    3.1082 C   0  0  0  0  0  0  0  0  0  0  0  0
    5.7195    3.3914    2.3212 C   0  0  0  0  0  0  0  0  0  0  0  0
    3.2641   -1.0327   -0.9392 C   0  0  0  0  0  0  0  0  0  0  0  0
    2.5525   -2.2190   -1.1333 C   0  0  0  0  0  0  0  0  0  0  0  0
    3.0615   -3.3421   -1.6868 N   0  0  0  0  0  0  0  0  0  0  0  0
    4.3658   -3.2946   -2.0151 C   0  0  0  0  0  0  0  0  0  0  0  0
    5.1656   -2.1588   -1.9031 C   0  0  0  0  0  0  0  0  0  0  0  0
    6.5068   -2.2066   -2.2972 C   0  0  0  0  0  0  0  0  0  0  0  0
    7.1700   -1.0304   -2.6128 C   0  0  0  0  0  0  0  0  0  0  0  0
    6.5722    0.1908   -2.3239 C   0  0  0  0  0  0  0  0  0  0  0  0
    5.3386    0.2308   -1.6581 C   0  0  0  0  0  0  0  0  0  0  0  0
    4.5799   -0.9507   -1.4599 C   0  0  0  0  0  0  0  0  0  0  0  0
    4.2466    0.6509    0.8614 H   0  0  0  0  0  0  0  0  0  0  0  0
    1.8321    0.8993    2.2455 H   0  0  0  0  0  0  0  0  0  0  0  0
    1.8603    2.2614    1.1277 H   0  0  0  0  0  0  0  0  0  0  0  0
    3.8865    1.6368    3.3401 H   0  0  0  0  0  0  0  0  0  0  0  0
    2.6700    2.9009    3.3832 H   0  0  0  0  0  0  0  0  0  0  0  0
    3.0464    4.6628    0.7889 H   0  0  0  0  0  0  0  0  0  0  0  0
    5.2381    5.7963    0.2819 H   0  0  0  0  0  0  0  0  0  0  0  0
    9.3482    4.4649    2.1814 H   0  0  0  0  0  0  0  0  0  0  0  0
    6.3163    1.8411    3.7349 H   0  0  0  0  0  0  0  0  0  0  0  0
    1.5107   -2.3074   -0.8308 H   0  0  0  0  0  0  0  0  0  0  0  0
    4.7479   -4.2067   -2.4688 H   0  0  0  0  0  0  0  0  0  0  0  0
    7.0198   -3.1601   -2.4034 H   0  0  0  0  0  0  0  0  0  0  0  0
    8.1372   -1.0748   -3.1075 H   0  0  0  0  0  0  0  0  0  0  0  0
    7.0717    1.1128   -2.6129 H   0  0  0  0  0  0  0  0  0  0  0  0
    4.9352    1.2057   -1.3895 H   0  0  0  0  0  0  0  0  0  0  0  0
  1  2  2  0  0  0  0
  2  3  1  0  0  0  0
  2 16  1  0  0  0  0
  3  4  1  0  0  0  0
  3 26  1  0  0  0  0
  4  5  1  0  0  0  0
  4 27  1  0  0  0  0
  4 28  1  0  0  0  0
  5  6  1  0  0  0  0
  5 29  1  0  0  0  0
  5 30  1  0  0  0  0
  6  7  2  0  0  0  0
  6 15  1  0  0  0  0
  7  8  1  0  0  0  0
  7 31  1  0  0  0  0
  8  9  1  0  0  0  0
  8 32  1  0  0  0  0
  9 10  1  0  0  0  0
  9 15  2  0  0  0  0
 10 11  2  0  0  0  0
 11 12  1  0  0  0  0
 11 33  1  0  0  0  0
 12 13  1  0  0  0  0
 12 14  2  0  0  0  0
 14 15  1  0  0  0  0
 14 34  1  0  0  0  0
 16 17  1  0  0  0  0
 16 25  2  0  0  0  0
 17 18  2  0  0  0  0
 17 35  1  0  0  0  0
 18 19  1  0  0  0  0
 19 20  2  0  0  0  0
 19 36  1  0  0  0  0
 20 21  1  0  0  0  0
 20 25  1  0  0  0  0
 21 22  2  0  0  0  0
 21 37  1  0  0  0  0
 22 23  1  0  0  0  0
 22 38  1  0  0  0  0
 23 24  2  0  0  0  0
 23 39  1  0  0  0  0
 24 25  1  0  0  0  0
 24 40  1  0  0  0  0
M  END
$$$$
