
 OpenBabel07202414153D

 53 56  0  0  1  0  0  0  0  0999 V2000
    3.4720   -1.1330   -0.6191 C   0  0  0  0  0  0  0  0  0  0  0  0
    2.6459    0.0199   -0.0144 C   0  0  2  0  0  0  0  0  0  0  0  0
    2.0583    0.8051   -1.1870 C   0  0  0  0  0  0  0  0  0  0  0  0
    2.8500    1.6302   -1.9988 C   0  0  0  0  0  0  0  0  0  0  0  0
    2.3250    2.1862   -3.1708 C   0  0  0  0  0  0  0  0  0  0  0  0
    1.0048    1.9321   -3.5422 C   0  0  0  0  0  0  0  0  0  0  0  0
    0.2016    1.1299   -2.7372 C   0  0  0  0  0  0  0  0  0  0  0  0
    0.7233    0.5721   -1.5686 C   0  0  0  0  0  0  0  0  0  0  0  0
    3.2856    0.8519    1.0514 N   0  0  0  0  0  0  0  0  0  0  0  0
    2.4001    1.7844    1.7762 C   0  0  0  0  0  0  0  0  0  0  0  0
    1.6536    1.2697    2.9937 C   0  0  0  0  0  0  0  0  0  0  0  0
    1.6624   -0.0614    3.4240 C   0  0  0  0  0  0  0  0  0  0  0  0
    0.8922   -0.4602    4.5268 C   0  0  0  0  0  0  0  0  0  0  0  0
    0.1095    0.4629    5.2199 C   0  0  0  0  0  0  0  0  0  0  0  0
    0.1036    1.7947    4.8190 C   0  0  0  0  0  0  0  0  0  0  0  0
    0.8684    2.1923    3.7179 C   0  0  0  0  0  0  0  0  0  0  0  0
    4.6732    0.8131    1.2614 C   0  0  0  0  0  0  0  0  0  0  0  0
    5.4105    0.1844    0.5060 O   0  0  0  0  0  0  0  0  0  0  0  0
    5.2444    1.5456    2.4800 C   0  0  0  0  0  0  0  0  0  0  0  0
    6.7503    1.5484    2.7534 C   0  0  0  0  0  0  0  0  0  0  0  0
    7.7018    0.9925    1.8950 C   0  0  0  0  0  0  0  0  0  0  0  0
    9.0426    1.1291    2.0218 N   0  0  0  0  0  0  0  0  0  0  0  0
    9.4841    1.8045    3.0959 C   0  0  0  0  0  0  0  0  0  0  0  0
    8.6590    2.3003    4.0965 C   0  0  0  0  0  0  0  0  0  0  0  0
    9.1993    2.8770    5.2597 C   0  0  0  0  0  0  0  0  0  0  0  0
    8.3731    3.3579    6.2646 C   0  0  0  0  0  0  0  0  0  0  0  0
    6.9925    3.3044    6.1018 C   0  0  0  0  0  0  0  0  0  0  0  0
    6.4480    2.7517    4.9371 C   0  0  0  0  0  0  0  0  0  0  0  0
    7.2567    2.1994    3.9184 C   0  0  0  0  0  0  0  0  0  0  0  0
    3.8813   -1.7853    0.1581 H   0  0  0  0  0  0  0  0  0  0  0  0
    4.2966   -0.7671   -1.2442 H   0  0  0  0  0  0  0  0  0  0  0  0
    2.8559   -1.7502   -1.2831 H   0  0  0  0  0  0  0  0  0  0  0  0
    1.8112   -0.4687    0.5045 H   0  0  0  0  0  0  0  0  0  0  0  0
    3.8970    1.7990   -1.7543 H   0  0  0  0  0  0  0  0  0  0  0  0
    2.9572    2.7926   -3.8152 H   0  0  0  0  0  0  0  0  0  0  0  0
    0.6082    2.3435   -4.4672 H   0  0  0  0  0  0  0  0  0  0  0  0
   -0.8216    0.9130   -3.0341 H   0  0  0  0  0  0  0  0  0  0  0  0
    0.0900   -0.0887   -0.9797 H   0  0  0  0  0  0  0  0  0  0  0  0
    1.6611    2.1739    1.0669 H   0  0  0  0  0  0  0  0  0  0  0  0
    2.9827    2.6516    2.0983 H   0  0  0  0  0  0  0  0  0  0  0  0
    2.2564   -0.8114    2.9100 H   0  0  0  0  0  0  0  0  0  0  0  0
    0.8973   -1.5006    4.8427 H   0  0  0  0  0  0  0  0  0  0  0  0
   -0.4935    0.1455    6.0668 H   0  0  0  0  0  0  0  0  0  0  0  0
   -0.5015    2.5223    5.3557 H   0  0  0  0  0  0  0  0  0  0  0  0
    0.8385    3.2395    3.4205 H   0  0  0  0  0  0  0  0  0  0  0  0
    4.7395    1.1255    3.3579 H   0  0  0  0  0  0  0  0  0  0  0  0
    4.9825    2.6027    2.3659 H   0  0  0  0  0  0  0  0  0  0  0  0
    7.4482    0.3894    1.0313 H   0  0  0  0  0  0  0  0  0  0  0  0
   10.5624    1.9318    3.1319 H   0  0  0  0  0  0  0  0  0  0  0  0
   10.2804    2.9270    5.3942 H   0  0  0  0  0  0  0  0  0  0  0  0
    8.7967    3.7598    7.1788 H   0  0  0  0  0  0  0  0  0  0  0  0
    6.3374    3.6942    6.8718 H   0  0  0  0  0  0  0  0  0  0  0  0
    5.3594    2.7334    4.8567 H   0  0  0  0  0  0  0  0  0  0  0  0
  1 30  1  0  0  0  0
  1 31  1  0  0  0  0
  1 32  1  0  0  0  0
  2  9  1  0  0  0  0
  2  3  1  0  0  0  0
  2  1  1  0  0  0  0
  2 33  1  1  0  0  0
  3  4  1  0  0  0  0
  3  8  2  0  0  0  0
  4  5  2  0  0  0  0
  4 34  1  0  0  0  0
  5  6  1  0  0  0  0
  5 35  1  0  0  0  0
  6  7  2  0  0  0  0
  6 36  1  0  0  0  0
  7  8  1  0  0  0  0
  7 37  1  0  0  0  0
  8 38  1  0  0  0  0
  9 10  1  0  0  0  0
  9 17  1  0  0  0  0
 10 11  1  0  0  0  0
 10 39  1  0  0  0  0
 10 40  1  0  0  0  0
 11 12  1  0  0  0  0
 11 16  2  0  0  0  0
 12 13  2  0  0  0  0
 12 41  1  0  0  0  0
 13 14  1  0  0  0  0
 13 42  1  0  0  0  0
 14 15  2  0  0  0  0
 14 43  1  0  0  0  0
 15 16  1  0  0  0  0
 15 44  1  0  0  0  0
 16 45  1  0  0  0  0
 17 18  2  0  0  0  0
 17 19  1  0  0  0  0
 19 20  1  0  0  0  0
 19 46  1  0  0  0  0
 19 47  1  0  0  0  0
 20 21  1  0  0  0  0
 20 29  2  0  0  0  0
 21 22  2  0  0  0  0
 21 48  1  0  0  0  0
 22 23  1  0  0  0  0
 23 24  2  0  0  0  0
 23 49  1  0  0  0  0
 24 25  1  0  0  0  0
 24 29  1  0  0  0  0
 25 26  2  0  0  0  0
 25 50  1  0  0  0  0
 26 27  1  0  0  0  0
 26 51  1  0  0  0  0
 27 28  2  0  0  0  0
 27 52  1  0  0  0  0
 28 29  1  0  0  0  0
 28 53  1  0  0  0  0
M  END
$$$$
