
 OpenBabel07202414133D

 50 53  0  0  1  0  0  0  0  0999 V2000
    2.2819    1.5905   -3.4039 C   0  0  0  0  0  0  0  0  0  0  0  0
    2.1532    1.8405   -1.9685 N   0  0  0  0  0  0  0  0  0  0  0  0
    0.7348    1.7472   -1.5996 C   0  0  0  0  0  0  0  0  0  0  0  0
    2.9691    0.9490   -1.1163 C   0  0  0  0  0  0  0  0  0  0  0  0
    4.5450    1.0472   -1.1641 C   0  0  3  0  0  0  0  0  0  0  0  0
    5.1083    0.5522   -2.5386 C   0  0  0  0  0  0  0  0  0  0  0  0
    5.9423    1.1875   -3.1779 O   0  0  0  0  0  0  0  0  0  0  0  0
    4.6110   -0.6817   -2.9557 N   0  0  0  0  0  0  0  0  0  0  0  0
    4.6710   -1.2459   -4.2649 C   0  0  0  0  0  0  0  0  0  0  0  0
    5.1867   -0.5576   -5.3640 C   0  0  0  0  0  0  0  0  0  0  0  0
    5.1234   -0.9940   -6.6454 N   0  0  0  0  0  0  0  0  0  0  0  0
    4.5575   -2.2002   -6.8476 C   0  0  0  0  0  0  0  0  0  0  0  0
    4.0773   -3.0245   -5.8335 C   0  0  0  0  0  0  0  0  0  0  0  0
    3.5788   -4.3078   -6.1278 C   0  0  0  0  0  0  0  0  0  0  0  0
    3.1166   -5.1409   -5.1138 C   0  0  0  0  0  0  0  0  0  0  0  0
    3.1183   -4.6877   -3.8024 C   0  0  0  0  0  0  0  0  0  0  0  0
    3.6028   -3.4098   -3.5009 C   0  0  0  0  0  0  0  0  0  0  0  0
    4.1150   -2.5420   -4.5019 C   0  0  0  0  0  0  0  0  0  0  0  0
    5.1584    0.0874   -0.1066 C   0  0  0  0  0  0  0  0  0  0  0  0
    4.9369    0.6007    1.3057 C   0  0  0  0  0  0  0  0  0  0  0  0
    5.5745    1.8511    1.5249 O   0  0  0  0  0  0  0  0  0  0  0  0
    5.4426    2.7658    0.5181 C   0  0  0  0  0  0  0  0  0  0  0  0
    5.8403    4.0641    0.8669 C   0  0  0  0  0  0  0  0  0  0  0  0
    5.7724    5.0999   -0.0613 C   0  0  0  0  0  0  0  0  0  0  0  0
    5.3063    4.8325   -1.3419 C   0  0  0  0  0  0  0  0  0  0  0  0
    5.2156    6.1033   -2.4985 Cl  0  0  0  0  0  0  0  0  0  0  0  0
    4.9140    3.5388   -1.6960 C   0  0  0  0  0  0  0  0  0  0  0  0
    4.9843    2.4731   -0.7773 C   0  0  0  0  0  0  0  0  0  0  0  0
    1.6377    2.2736   -3.9690 H   0  0  0  0  0  0  0  0  0  0  0  0
    2.0091    0.5638   -3.6702 H   0  0  0  0  0  0  0  0  0  0  0  0
    3.2915    1.7931   -3.7633 H   0  0  0  0  0  0  0  0  0  0  0  0
    0.1540    2.5112   -2.1285 H   0  0  0  0  0  0  0  0  0  0  0  0
    0.5881    1.9313   -0.5298 H   0  0  0  0  0  0  0  0  0  0  0  0
    0.3134    0.7640   -1.8406 H   0  0  0  0  0  0  0  0  0  0  0  0
    2.6518   -0.0895   -1.2775 H   0  0  0  0  0  0  0  0  0  0  0  0
    2.6712    1.1789   -0.0854 H   0  0  0  0  0  0  0  0  0  0  0  0
    4.0783   -1.2097   -2.2856 H   0  0  0  0  0  0  0  0  0  0  0  0
    5.6680    0.4109   -5.2745 H   0  0  0  0  0  0  0  0  0  0  0  0
    4.5041   -2.4991   -7.8920 H   0  0  0  0  0  0  0  0  0  0  0  0
    3.5703   -4.6764   -7.1524 H   0  0  0  0  0  0  0  0  0  0  0  0
    2.7636   -6.1426   -5.3465 H   0  0  0  0  0  0  0  0  0  0  0  0
    2.7554   -5.3328   -3.0058 H   0  0  0  0  0  0  0  0  0  0  0  0
    3.5953   -3.1243   -2.4544 H   0  0  0  0  0  0  0  0  0  0  0  0
    6.2428    0.0110   -0.2756 H   0  0  0  0  0  0  0  0  0  0  0  0
    4.7521   -0.9260   -0.1973 H   0  0  0  0  0  0  0  0  0  0  0  0
    5.3701   -0.1079    2.0204 H   0  0  0  0  0  0  0  0  0  0  0  0
    3.8775    0.6858    1.5686 H   0  0  0  0  0  0  0  0  0  0  0  0
    6.2024    4.2645    1.8713 H   0  0  0  0  0  0  0  0  0  0  0  0
    6.0825    6.1032    0.2183 H   0  0  0  0  0  0  0  0  0  0  0  0
    4.5608    3.3696   -2.7092 H   0  0  0  0  0  0  0  0  0  0  0  0
  1  2  1  0  0  0  0
  1 29  1  0  0  0  0
  1 30  1  0  0  0  0
  1 31  1  0  0  0  0
  2  3  1  0  0  0  0
  2  4  1  0  0  0  0
  3 32  1  0  0  0  0
  3 33  1  0  0  0  0
  3 34  1  0  0  0  0
  4  5  1  0  0  0  0
  4 35  1  0  0  0  0
  4 36  1  0  0  0  0
  5  6  1  0  0  0  0
  5 19  1  0  0  0  0
  5 28  1  0  0  0  0
  6  7  2  0  0  0  0
  6  8  1  0  0  0  0
  8  9  1  0  0  0  0
  8 37  1  0  0  0  0
  9 10  1  0  0  0  0
  9 18  2  0  0  0  0
 10 11  2  0  0  0  0
 10 38  1  0  0  0  0
 11 12  1  0  0  0  0
 12 13  2  0  0  0  0
 12 39  1  0  0  0  0
 13 14  1  0  0  0  0
 13 18  1  0  0  0  0
 14 15  2  0  0  0  0
 14 40  1  0  0  0  0
 15 16  1  0  0  0  0
 15 41  1  0  0  0  0
 16 17  2  0  0  0  0
 16 42  1  0  0  0  0
 17 18  1  0  0  0  0
 17 43  1  0  0  0  0
 19 20  1  0  0  0  0
 19 44  1  0  0  0  0
 19 45  1  0  0  0  0
 20 21  1  0  0  0  0
 20 46  1  0  0  0  0
 20 47  1  0  0  0  0
 21 22  1  0  0  0  0
 22 23  1  0  0  0  0
 22 28  2  0  0  0  0
 23 24  2  0  0  0  0
 23 48  1  0  0  0  0
 24 25  1  0  0  0  0
 24 49  1  0  0  0  0
 25 26  1  0  0  0  0
 25 27  2  0  0  0  0
 27 28  1  0  0  0  0
 27 50  1  0  0  0  0
M  END
$$$$
