
 OpenBabel07202414163D

 21 21  0  0  0  0  0  0  0  0999 V2000
    1.0288    0.1458    0.0503 C   0  0  0  0  0  0  0  0  0  0  0  0
    2.5295    0.0998    0.0538 C   0  0  0  0  0  0  0  0  0  0  0  0
    3.2041   -1.1056    0.0562 C   0  0  0  0  0  0  0  0  0  0  0  0
    4.6046   -1.1097    0.0637 C   0  0  0  0  0  0  0  0  0  0  0  0
    5.2758    0.0763    0.0667 N   0  3  0  0  0  0  0  0  0  0  0  0
    4.5426    1.2236    0.0639 C   0  0  0  0  0  0  0  0  0  0  0  0
    3.1886    1.2703    0.0575 N   0  0  0  0  0  0  0  0  0  0  0  0
    5.1996    2.5060    0.0694 C   0  0  0  0  0  0  0  0  0  0  0  0
    5.8370    3.4766    0.0732 N   0  0  0  0  0  0  0  0  0  0  0  0
    6.7520    0.1564    0.0722 C   0  0  0  0  0  0  0  0  0  0  0  0
    5.3283   -2.4275    0.0718 C   0  0  0  0  0  0  0  0  0  0  0  0
    0.5963   -0.8600    0.0477 H   0  0  0  0  0  0  0  0  0  0  0  0
    0.6730    0.6710   -0.8412 H   0  0  0  0  0  0  0  0  0  0  0  0
    0.6696    0.6677    0.9424 H   0  0  0  0  0  0  0  0  0  0  0  0
    2.6475   -2.0413    0.0537 H   0  0  0  0  0  0  0  0  0  0  0  0
    7.2068   -0.8334    0.0747 H   0  0  0  0  0  0  0  0  0  0  0  0
    7.0613    0.6863    0.9772 H   0  0  0  0  0  0  0  0  0  0  0  0
    7.0676    0.6841   -0.8322 H   0  0  0  0  0  0  0  0  0  0  0  0
    4.6277   -3.2692    0.0693 H   0  0  0  0  0  0  0  0  0  0  0  0
    5.9427   -2.5147    0.9729 H   0  0  0  0  0  0  0  0  0  0  0  0
    5.9556   -2.5199   -0.8197 H   0  0  0  0  0  0  0  0  0  0  0  0
  1  2  1  0  0  0  0
  1 12  1  0  0  0  0
  1 13  1  0  0  0  0
  1 14  1  0  0  0  0
  2  3  1  0  0  0  0
  2  7  2  0  0  0  0
  3  4  2  0  0  0  0
  3 15  1  0  0  0  0
  4  5  1  0  0  0  0
  4 11  1  0  0  0  0
  5  6  2  0  0  0  0
  5 10  1  0  0  0  0
  6  7  1  0  0  0  0
  6  8  1  0  0  0  0
  8  9  3  0  0  0  0
 10 16  1  0  0  0  0
 10 17  1  0  0  0  0
 10 18  1  0  0  0  0
 11 19  1  0  0  0  0
 11 20  1  0  0  0  0
 11 21  1  0  0  0  0
M  CHG  1   5   1
M  END
$$$$
