
 OpenBabel07202414153D

 49 51  0  0  1  0  0  0  0  0999 V2000
    2.3925    1.6994    0.8909 C   0  0  0  0  0  0  0  0  0  0  0  0
    2.5061    0.5147    0.1060 O   0  0  0  0  0  0  0  0  0  0  0  0
    3.1170    0.6527   -1.1101 C   0  0  0  0  0  0  0  0  0  0  0  0
    3.7097    1.8168   -1.5820 C   0  0  0  0  0  0  0  0  0  0  0  0
    4.2908    1.8475   -2.8522 C   0  0  0  0  0  0  0  0  0  0  0  0
    4.2650    0.7320   -3.6936 C   0  0  0  0  0  0  0  0  0  0  0  0
    4.7510    0.7491   -5.0267 N   0  0  0  0  0  0  0  0  0  0  0  0
    5.1073    1.8827   -5.7280 C   0  0  0  0  0  0  0  0  0  0  0  0
    5.1382    3.0161   -5.2424 O   0  0  0  0  0  0  0  0  0  0  0  0
    5.6265    1.6881   -7.1465 C   0  0  2  0  0  0  0  0  0  0  0  0
    5.4799    3.0554   -7.8732 C   0  0  0  0  0  0  0  0  0  0  0  0
    6.1632    3.0771   -9.1716 N   0  0  0  0  0  0  0  0  0  0  0  0
    6.8113    4.1980   -9.6957 C   0  0  0  0  0  0  0  0  0  0  0  0
    7.2552    4.1788  -10.8440 O   0  0  0  0  0  0  0  0  0  0  0  0
    6.9521    5.4077   -8.7756 C   0  0  0  0  0  0  0  0  0  0  0  0
    7.8649    6.7226   -9.5435 Cl  0  0  0  0  0  0  0  0  0  0  0  0
    5.8526    1.9520  -10.0549 C   0  0  0  0  0  0  0  0  0  0  0  0
    5.9731    0.6043   -9.3282 C   0  0  0  0  0  0  0  0  0  0  0  0
    5.1838    0.5484   -8.0391 N   0  0  0  0  0  0  0  0  0  0  0  0
    3.5059    0.3458   -8.2110 S   0  0  0  0  0  0  0  0  0  0  0  0
    3.0047   -0.1299   -6.9457 O   0  0  0  0  0  0  0  0  0  0  0  0
    2.9555    1.5071   -8.8677 O   0  0  0  0  0  0  0  0  0  0  0  0
    3.1841   -0.9729   -9.2939 C   0  0  0  0  0  0  0  0  0  0  0  0
    3.6341   -2.3100   -9.0673 C   0  0  0  0  0  0  0  0  0  0  0  0
    3.2343   -3.1625  -10.0740 C   0  0  0  0  0  0  0  0  0  0  0  0
    2.3367   -2.3534  -11.2868 S   0  0  0  0  0  0  0  0  0  0  0  0
    2.4641   -0.8567  -10.4635 C   0  0  0  0  0  0  0  0  0  0  0  0
    3.7033   -0.4497   -3.2021 C   0  0  0  0  0  0  0  0  0  0  0  0
    3.1353   -0.4863   -1.9184 C   0  0  0  0  0  0  0  0  0  0  0  0
    1.9009    1.4379    1.8322 H   0  0  0  0  0  0  0  0  0  0  0  0
    1.7722    2.4488    0.3858 H   0  0  0  0  0  0  0  0  0  0  0  0
    3.3784    2.1084    1.1382 H   0  0  0  0  0  0  0  0  0  0  0  0
    3.7373    2.7318   -1.0005 H   0  0  0  0  0  0  0  0  0  0  0  0
    4.7444    2.7866   -3.1463 H   0  0  0  0  0  0  0  0  0  0  0  0
    4.5805   -0.0913   -5.5740 H   0  0  0  0  0  0  0  0  0  0  0  0
    6.7049    1.5189   -6.9948 H   0  0  0  0  0  0  0  0  0  0  0  0
    5.8755    3.8571   -7.2479 H   0  0  0  0  0  0  0  0  0  0  0  0
    4.4275    3.3049   -8.0491 H   0  0  0  0  0  0  0  0  0  0  0  0
    7.4983    5.1281   -7.8703 H   0  0  0  0  0  0  0  0  0  0  0  0
    5.9622    5.7966   -8.5229 H   0  0  0  0  0  0  0  0  0  0  0  0
    6.5195    1.9507  -10.9227 H   0  0  0  0  0  0  0  0  0  0  0  0
    4.8383    2.1070  -10.4368 H   0  0  0  0  0  0  0  0  0  0  0  0
    7.0262    0.4299   -9.0692 H   0  0  0  0  0  0  0  0  0  0  0  0
    5.6913   -0.2176   -9.9917 H   0  0  0  0  0  0  0  0  0  0  0  0
    4.2079   -2.6311   -8.2064 H   0  0  0  0  0  0  0  0  0  0  0  0
    3.4205   -4.2251  -10.1587 H   0  0  0  0  0  0  0  0  0  0  0  0
    1.9991    0.0298  -10.8776 H   0  0  0  0  0  0  0  0  0  0  0  0
    3.6744   -1.3500   -3.8099 H   0  0  0  0  0  0  0  0  0  0  0  0
    2.6860   -1.4073   -1.5545 H   0  0  0  0  0  0  0  0  0  0  0  0
  1  2  1  0  0  0  0
  1 30  1  0  0  0  0
  1 31  1  0  0  0  0
  1 32  1  0  0  0  0
  2  3  1  0  0  0  0
  3  4  1  0  0  0  0
  3 29  2  0  0  0  0
  4  5  2  0  0  0  0
  4 33  1  0  0  0  0
  5  6  1  0  0  0  0
  5 34  1  0  0  0  0
  6  7  1  0  0  0  0
  6 28  2  0  0  0  0
  7  8  1  0  0  0  0
  7 35  1  0  0  0  0
  8  9  2  0  0  0  0
  8 10  1  0  0  0  0
 10 11  1  0  0  0  0
 10 19  1  0  0  0  0
 10 36  1  1  0  0  0
 11 12  1  0  0  0  0
 11 37  1  0  0  0  0
 11 38  1  0  0  0  0
 12 13  1  0  0  0  0
 12 17  1  0  0  0  0
 13 14  2  0  0  0  0
 13 15  1  0  0  0  0
 15 16  1  0  0  0  0
 15 39  1  0  0  0  0
 15 40  1  0  0  0  0
 17 18  1  0  0  0  0
 17 41  1  0  0  0  0
 17 42  1  0  0  0  0
 18 19  1  0  0  0  0
 18 43  1  0  0  0  0
 18 44  1  0  0  0  0
 19 20  1  0  0  0  0
 20 21  2  0  0  0  0
 20 22  2  0  0  0  0
 20 23  1  0  0  0  0
 23 24  1  0  0  0  0
 23 27  2  0  0  0  0
 24 25  2  0  0  0  0
 24 45  1  0  0  0  0
 25 26  1  0  0  0  0
 25 46  1  0  0  0  0
 26 27  1  0  0  0  0
 27 47  1  0  0  0  0
 28 29  1  0  0  0  0
 28 48  1  0  0  0  0
 29 49  1  0  0  0  0
M  END
$$$$
