
 OpenBabel07202414183D

 34 36  0  0  0  0  0  0  0  0999 V2000
   -0.7720   -5.6854   -2.8149 Cl  0  0  0  0  0  0  0  0  0  0  0  0
    0.6030   -4.6511   -2.8529 C   0  0  0  0  0  0  0  0  0  0  0  0
    1.2447   -4.3960   -4.0599 C   0  0  0  0  0  0  0  0  0  0  0  0
    2.3427   -3.5363   -4.0852 C   0  0  0  0  0  0  0  0  0  0  0  0
    2.8022   -2.9407   -2.9047 C   0  0  0  0  0  0  0  0  0  0  0  0
    2.1803   -3.2159   -1.6780 C   0  0  0  0  0  0  0  0  0  0  0  0
    2.5940   -2.5582   -0.3795 C   0  0  0  0  0  0  0  0  0  0  0  0
    4.0555   -2.1677   -0.2594 C   0  0  0  0  0  0  0  0  0  0  0  0
    4.4103   -0.9936   -0.3456 O   0  0  0  0  0  0  0  0  0  0  0  0
    4.9092   -3.2384   -0.0735 N   0  0  0  0  0  0  0  0  0  0  0  0
    6.3087   -3.0821    0.0932 C   0  0  0  0  0  0  0  0  0  0  0  0
    6.8269   -2.0729    0.9098 C   0  0  0  0  0  0  0  0  0  0  0  0
    8.1447   -1.8849    1.1538 N   0  0  0  0  0  0  0  0  0  0  0  0
    8.9921   -2.7206    0.5201 C   0  0  0  0  0  0  0  0  0  0  0  0
    8.6009   -3.7519   -0.3385 C   0  0  0  0  0  0  0  0  0  0  0  0
    9.5467   -4.5535   -1.0034 C   0  0  0  0  0  0  0  0  0  0  0  0
    9.1397   -5.5460   -1.8917 C   0  0  0  0  0  0  0  0  0  0  0  0
    7.7852   -5.7575   -2.1182 C   0  0  0  0  0  0  0  0  0  0  0  0
    6.8359   -4.9795   -1.4561 C   0  0  0  0  0  0  0  0  0  0  0  0
    7.2192   -3.9551   -0.5501 C   0  0  0  0  0  0  0  0  0  0  0  0
    1.0612   -4.0663   -1.6713 C   0  0  0  0  0  0  0  0  0  0  0  0
    0.8865   -4.8460   -4.9820 H   0  0  0  0  0  0  0  0  0  0  0  0
    2.8329   -3.3154   -5.0317 H   0  0  0  0  0  0  0  0  0  0  0  0
    3.6404   -2.2467   -2.9662 H   0  0  0  0  0  0  0  0  0  0  0  0
    2.3717   -3.2259    0.4613 H   0  0  0  0  0  0  0  0  0  0  0  0
    1.9911   -1.6544   -0.2372 H   0  0  0  0  0  0  0  0  0  0  0  0
    4.5728   -4.1407   -0.3823 H   0  0  0  0  0  0  0  0  0  0  0  0
    6.1758   -1.3850    1.4442 H   0  0  0  0  0  0  0  0  0  0  0  0
   10.0443   -2.5246    0.7209 H   0  0  0  0  0  0  0  0  0  0  0  0
   10.6113   -4.3915   -0.8475 H   0  0  0  0  0  0  0  0  0  0  0  0
    9.8798   -6.1416   -2.4207 H   0  0  0  0  0  0  0  0  0  0  0  0
    7.4632   -6.5178   -2.8259 H   0  0  0  0  0  0  0  0  0  0  0  0
    5.7918   -5.1570   -1.6935 H   0  0  0  0  0  0  0  0  0  0  0  0
    0.5306   -4.2621   -0.7416 H   0  0  0  0  0  0  0  0  0  0  0  0
  1  2  1  0  0  0  0
  2  3  1  0  0  0  0
  2 21  2  0  0  0  0
  3  4  2  0  0  0  0
  3 22  1  0  0  0  0
  4  5  1  0  0  0  0
  4 23  1  0  0  0  0
  5  6  2  0  0  0  0
  5 24  1  0  0  0  0
  6  7  1  0  0  0  0
  6 21  1  0  0  0  0
  7  8  1  0  0  0  0
  7 25  1  0  0  0  0
  7 26  1  0  0  0  0
  8  9  2  0  0  0  0
  8 10  1  0  0  0  0
 10 11  1  0  0  0  0
 10 27  1  0  0  0  0
 11 12  1  0  0  0  0
 11 20  2  0  0  0  0
 12 13  2  0  0  0  0
 12 28  1  0  0  0  0
 13 14  1  0  0  0  0
 14 15  2  0  0  0  0
 14 29  1  0  0  0  0
 15 16  1  0  0  0  0
 15 20  1  0  0  0  0
 16 17  2  0  0  0  0
 16 30  1  0  0  0  0
 17 18  1  0  0  0  0
 17 31  1  0  0  0  0
 18 19  2  0  0  0  0
 18 32  1  0  0  0  0
 19 20  1  0  0  0  0
 19 33  1  0  0  0  0
 21 34  1  0  0  0  0
M  END
$$$$
