
 OpenBabel07202414123D

 42 44  0  0  0  0  0  0  0  0999 V2000
    2.0668   -0.9252   -1.4451 C   0  0  0  0  0  0  0  0  0  0  0  0
    3.3911   -0.5085   -0.8353 C   0  0  0  0  0  0  0  0  0  0  0  0
    3.9847    0.5057   -1.2427 O   0  0  0  0  0  0  0  0  0  0  0  0
    3.9704   -1.3284    0.2760 C   0  0  0  0  0  0  0  0  0  0  0  0
    3.3086   -2.4468    0.7943 C   0  0  0  0  0  0  0  0  0  0  0  0
    3.9058   -3.1845    1.8185 C   0  0  0  0  0  0  0  0  0  0  0  0
    5.1605   -2.8176    2.3166 C   0  0  0  0  0  0  0  0  0  0  0  0
    5.8347   -1.7031    1.8097 C   0  0  0  0  0  0  0  0  0  0  0  0
    5.2205   -0.9666    0.7835 C   0  0  0  0  0  0  0  0  0  0  0  0
    7.1192   -1.2940    2.2314 N   0  0  0  0  0  0  0  0  0  0  0  0
    7.8539   -1.7905    3.2968 C   0  0  0  0  0  0  0  0  0  0  0  0
    7.4604   -2.5921    4.1298 O   0  0  0  0  0  0  0  0  0  0  0  0
    9.1264   -1.2135    3.3298 N   0  0  0  0  0  0  0  0  0  0  0  0
    9.8026   -0.8315    4.4687 C   0  0  0  0  0  0  0  0  0  0  0  0
    9.2946   -0.8809    5.7188 C   0  0  0  0  0  0  0  0  0  0  0  0
    9.5257    0.2083    6.5583 N   0  0  0  0  0  0  0  0  0  0  0  0
   10.0569    1.3716    6.0088 C   0  0  0  0  0  0  0  0  0  0  0  0
    9.7095    2.5171    6.2467 O   0  0  0  0  0  0  0  0  0  0  0  0
   11.2014    1.0566    5.1621 C   0  0  0  0  0  0  0  0  0  0  0  0
   11.0820   -0.0785    4.3569 C   0  0  0  0  0  0  0  0  0  0  0  0
   12.2484   -0.5712    3.7563 C   0  0  0  0  0  0  0  0  0  0  0  0
   13.4897    0.0353    4.0368 C   0  0  0  0  0  0  0  0  0  0  0  0
   13.5768    1.1255    4.9106 C   0  0  0  0  0  0  0  0  0  0  0  0
   12.4213    1.6599    5.4612 C   0  0  0  0  0  0  0  0  0  0  0  0
    9.6372    0.0801    7.9884 C   0  0  0  0  0  0  0  0  0  0  0  0
    1.8636   -0.3000   -2.3197 H   0  0  0  0  0  0  0  0  0  0  0  0
    1.2561   -0.7885   -0.7267 H   0  0  0  0  0  0  0  0  0  0  0  0
    2.1157   -1.9617   -1.7861 H   0  0  0  0  0  0  0  0  0  0  0  0
    2.3307   -2.7625    0.4341 H   0  0  0  0  0  0  0  0  0  0  0  0
    3.4013   -4.0561    2.2274 H   0  0  0  0  0  0  0  0  0  0  0  0
    5.5900   -3.4293    3.1056 H   0  0  0  0  0  0  0  0  0  0  0  0
    5.7199   -0.0863    0.3724 H   0  0  0  0  0  0  0  0  0  0  0  0
    7.4491   -0.4211    1.8449 H   0  0  0  0  0  0  0  0  0  0  0  0
    9.4722   -0.8298    2.4627 H   0  0  0  0  0  0  0  0  0  0  0  0
    8.4880   -1.5335    6.0426 H   0  0  0  0  0  0  0  0  0  0  0  0
   12.2323   -1.4805    3.1619 H   0  0  0  0  0  0  0  0  0  0  0  0
   14.4062   -0.3873    3.6290 H   0  0  0  0  0  0  0  0  0  0  0  0
   14.5441    1.5291    5.1980 H   0  0  0  0  0  0  0  0  0  0  0  0
   12.4653    2.4544    6.2021 H   0  0  0  0  0  0  0  0  0  0  0  0
    8.6962   -0.2220    8.4397 H   0  0  0  0  0  0  0  0  0  0  0  0
    9.9745    1.0334    8.4159 H   0  0  0  0  0  0  0  0  0  0  0  0
   10.4269   -0.6528    8.1960 H   0  0  0  0  0  0  0  0  0  0  0  0
  1  2  1  0  0  0  0
  1 26  1  0  0  0  0
  1 27  1  0  0  0  0
  1 28  1  0  0  0  0
  2  3  2  0  0  0  0
  2  4  1  0  0  0  0
  4  5  1  0  0  0  0
  4  9  2  0  0  0  0
  5  6  2  0  0  0  0
  5 29  1  0  0  0  0
  6  7  1  0  0  0  0
  6 30  1  0  0  0  0
  7  8  2  0  0  0  0
  7 31  1  0  0  0  0
  8  9  1  0  0  0  0
  8 10  1  0  0  0  0
  9 32  1  0  0  0  0
 10 11  1  0  0  0  0
 10 33  1  0  0  0  0
 11 12  2  0  0  0  0
 11 13  1  0  0  0  0
 13 14  1  0  0  0  0
 13 34  1  0  0  0  0
 14 15  2  0  0  0  0
 14 20  1  0  0  0  0
 15 16  1  0  0  0  0
 15 35  1  0  0  0  0
 16 17  1  0  0  0  0
 16 25  1  0  0  0  0
 17 18  2  0  0  0  0
 17 19  1  0  0  0  0
 19 20  1  0  0  0  0
 19 24  2  0  0  0  0
 20 21  2  0  0  0  0
 21 22  1  0  0  0  0
 21 36  1  0  0  0  0
 22 23  2  0  0  0  0
 22 37  1  0  0  0  0
 23 24  1  0  0  0  0
 23 38  1  0  0  0  0
 24 39  1  0  0  0  0
 25 40  1  0  0  0  0
 25 41  1  0  0  0  0
 25 42  1  0  0  0  0
M  END
$$$$
