
 OpenBabel07202414123D

 49 52  0  0  0  0  0  0  0  0999 V2000
    3.2297    0.5653    0.7523 C   0  0  0  0  0  0  0  0  0  0  0  0
    4.4299   -0.3455    0.7830 C   0  0  0  0  0  0  0  0  0  0  0  0
    5.6960    0.0988    1.2099 C   0  0  0  0  0  0  0  0  0  0  0  0
    6.0389    1.9010    1.7170 Br  0  0  0  0  0  0  0  0  0  0  0  0
    6.7880   -0.7750    1.2614 C   0  0  0  0  0  0  0  0  0  0  0  0
    6.6457   -2.0947    0.8560 C   0  0  0  0  0  0  0  0  0  0  0  0
    5.4149   -2.5411    0.3854 C   0  0  0  0  0  0  0  0  0  0  0  0
    4.2947   -1.6924    0.3570 C   0  0  0  0  0  0  0  0  0  0  0  0
    3.0660   -2.1466   -0.2016 N   0  0  0  0  0  0  0  0  0  0  0  0
    2.5572   -3.4666   -0.1803 C   0  0  0  0  0  0  0  0  0  0  0  0
    1.7588   -3.9336   -1.2294 C   0  0  0  0  0  0  0  0  0  0  0  0
    1.2111   -5.2173   -1.1758 C   0  0  0  0  0  0  0  0  0  0  0  0
    0.2473   -5.7849   -2.4898 Cl  0  0  0  0  0  0  0  0  0  0  0  0
    1.4458   -6.0556   -0.0909 C   0  0  0  0  0  0  0  0  0  0  0  0
    2.2224   -5.6020    0.9795 C   0  0  0  0  0  0  0  0  0  0  0  0
    2.5274   -6.5043    2.1514 C   0  0  0  0  0  0  0  0  0  0  0  0
    2.2470   -5.8904    3.5097 C   0  0  0  0  0  0  0  0  0  0  0  0
    3.0652   -5.9772    4.4225 O   0  0  0  0  0  0  0  0  0  0  0  0
    0.9860   -5.3409    3.6369 N   0  0  0  0  0  0  0  0  0  0  0  0
    0.5206   -4.6992    4.8085 C   0  0  0  0  0  0  0  0  0  0  0  0
    1.3777   -3.9245    5.5995 C   0  0  0  0  0  0  0  0  0  0  0  0
    0.9943   -3.2566    6.7082 N   0  0  0  0  0  0  0  0  0  0  0  0
   -0.2969   -3.3874    7.0716 C   0  0  0  0  0  0  0  0  0  0  0  0
   -1.2452   -4.1440    6.3737 C   0  0  0  0  0  0  0  0  0  0  0  0
   -2.5653   -4.2714    6.8413 C   0  0  0  0  0  0  0  0  0  0  0  0
   -3.4879   -5.0719    6.1641 C   0  0  0  0  0  0  0  0  0  0  0  0
   -3.0988   -5.7444    5.0137 C   0  0  0  0  0  0  0  0  0  0  0  0
   -1.7916   -5.6157    4.5347 C   0  0  0  0  0  0  0  0  0  0  0  0
   -0.8310   -4.8135    5.2012 C   0  0  0  0  0  0  0  0  0  0  0  0
    2.7598   -4.3055    0.9257 C   0  0  0  0  0  0  0  0  0  0  0  0
    3.3239    1.4147    1.4332 H   0  0  0  0  0  0  0  0  0  0  0  0
    2.3277    0.0344    1.0797 H   0  0  0  0  0  0  0  0  0  0  0  0
    3.0718    0.9476   -0.2618 H   0  0  0  0  0  0  0  0  0  0  0  0
    7.7595   -0.4292    1.6073 H   0  0  0  0  0  0  0  0  0  0  0  0
    7.4950   -2.7737    0.8886 H   0  0  0  0  0  0  0  0  0  0  0  0
    5.3399   -3.5643    0.0268 H   0  0  0  0  0  0  0  0  0  0  0  0
    2.9263   -1.6947   -1.1031 H   0  0  0  0  0  0  0  0  0  0  0  0
    1.5659   -3.3051   -2.0945 H   0  0  0  0  0  0  0  0  0  0  0  0
    1.0232   -7.0571   -0.0815 H   0  0  0  0  0  0  0  0  0  0  0  0
    3.5914   -6.7636    2.1082 H   0  0  0  0  0  0  0  0  0  0  0  0
    1.9616   -7.4416    2.0851 H   0  0  0  0  0  0  0  0  0  0  0  0
    0.3024   -5.5628    2.9233 H   0  0  0  0  0  0  0  0  0  0  0  0
    2.4178   -3.7845    5.3339 H   0  0  0  0  0  0  0  0  0  0  0  0
   -0.5626   -2.8515    7.9799 H   0  0  0  0  0  0  0  0  0  0  0  0
   -2.8841   -3.7599    7.7508 H   0  0  0  0  0  0  0  0  0  0  0  0
   -4.4989   -5.1781    6.5434 H   0  0  0  0  0  0  0  0  0  0  0  0
   -3.8092   -6.3859    4.4921 H   0  0  0  0  0  0  0  0  0  0  0  0
   -1.5335   -6.1827    3.6497 H   0  0  0  0  0  0  0  0  0  0  0  0
    3.3473   -3.9374    1.7670 H   0  0  0  0  0  0  0  0  0  0  0  0
  1  2  1  0  0  0  0
  1 31  1  0  0  0  0
  1 32  1  0  0  0  0
  1 33  1  0  0  0  0
  2  3  2  0  0  0  0
  2  8  1  0  0  0  0
  3  4  1  0  0  0  0
  3  5  1  0  0  0  0
  5  6  2  0  0  0  0
  5 34  1  0  0  0  0
  6  7  1  0  0  0  0
  6 35  1  0  0  0  0
  7  8  2  0  0  0  0
  7 36  1  0  0  0  0
  8  9  1  0  0  0  0
  9 10  1  0  0  0  0
  9 37  1  0  0  0  0
 10 11  2  0  0  0  0
 10 30  1  0  0  0  0
 11 12  1  0  0  0  0
 11 38  1  0  0  0  0
 12 13  1  0  0  0  0
 12 14  2  0  0  0  0
 14 15  1  0  0  0  0
 14 39  1  0  0  0  0
 15 16  1  0  0  0  0
 15 30  2  0  0  0  0
 16 17  1  0  0  0  0
 16 40  1  0  0  0  0
 16 41  1  0  0  0  0
 17 18  2  0  0  0  0
 17 19  1  0  0  0  0
 19 20  1  0  0  0  0
 19 42  1  0  0  0  0
 20 21  2  0  0  0  0
 20 29  1  0  0  0  0
 21 22  1  0  0  0  0
 21 43  1  0  0  0  0
 22 23  2  0  0  0  0
 23 24  1  0  0  0  0
 23 44  1  0  0  0  0
 24 25  2  0  0  0  0
 24 29  1  0  0  0  0
 25 26  1  0  0  0  0
 25 45  1  0  0  0  0
 26 27  2  0  0  0  0
 26 46  1  0  0  0  0
 27 28  1  0  0  0  0
 27 47  1  0  0  0  0
 28 29  2  0  0  0  0
 28 48  1  0  0  0  0
 30 49  1  0  0  0  0
M  END
$$$$
