
 OpenBabel07202414123D

 67 70  0  0  1  0  0  0  0  0999 V2000
    1.7786    1.0381    0.4469 C   0  0  0  0  0  0  0  0  0  0  0  0
    2.6138   -0.1979    0.0496 C   0  0  0  0  0  0  0  0  0  0  0  0
    3.7591   -0.3764    1.0702 C   0  0  0  0  0  0  0  0  0  0  0  0
    1.7040   -1.4411    0.1690 C   0  0  0  0  0  0  0  0  0  0  0  0
    3.1925   -0.0400   -1.3665 C   0  0  0  0  0  0  0  0  0  0  0  0
    2.9599    1.0945   -2.1480 C   0  0  0  0  0  0  0  0  0  0  0  0
    3.4780    1.2187   -3.4550 C   0  0  0  0  0  0  0  0  0  0  0  0
    4.2729    0.2268   -4.0532 C   0  0  0  0  0  0  0  0  0  0  0  0
    4.6197   -0.8294   -3.2000 C   0  0  0  0  0  0  0  0  0  0  0  0
    4.0358   -1.0019   -1.9300 C   0  0  0  0  0  0  0  0  0  0  0  0
    4.6915    0.2531   -5.4695 N   0  0  0  0  0  0  0  0  0  0  0  0
    5.1032   -1.0649   -6.1338 C   0  0  3  0  0  0  0  0  0  0  0  0
    4.1594   -1.5117   -7.2987 C   0  0  0  0  0  0  0  0  0  0  0  0
    3.0435   -0.7432   -7.6822 C   0  0  0  0  0  0  0  0  0  0  0  0
    2.0451   -1.2375   -8.5158 C   0  0  0  0  0  0  0  0  0  0  0  0
    2.2019   -2.5005   -9.0270 C   0  0  0  0  0  0  0  0  0  0  0  0
    3.2874   -3.2576   -8.7815 N   0  0  0  0  0  0  0  0  0  0  0  0
    4.2313   -2.7575   -7.9288 C   0  0  0  0  0  0  0  0  0  0  0  0
    6.6731   -1.2695   -6.2829 C   0  0  0  0  0  0  0  0  0  0  0  0
    7.1856   -2.3989   -6.2467 O   0  0  0  0  0  0  0  0  0  0  0  0
    7.4717   -0.1579   -6.4806 N   0  0  0  0  0  0  0  0  0  0  0  0
    8.9142   -0.2897   -6.6841 C   0  0  0  0  0  0  0  0  0  0  0  0
    9.5885    1.0674   -6.9299 C   0  0  0  0  0  0  0  0  0  0  0  0
   11.0859    1.0005   -7.1456 C   0  0  0  0  0  0  0  0  0  0  0  0
   11.9546    1.1149   -6.0467 C   0  0  0  0  0  0  0  0  0  0  0  0
   13.3408    1.0007   -6.2047 C   0  0  0  0  0  0  0  0  0  0  0  0
   13.8743    0.7725   -7.4653 C   0  0  0  0  0  0  0  0  0  0  0  0
   13.0309    0.6799   -8.5610 C   0  0  0  0  0  0  0  0  0  0  0  0
   11.6465    0.7948   -8.4152 C   0  0  0  0  0  0  0  0  0  0  0  0
   13.5463    0.4505   -9.7761 F   0  0  0  0  0  0  0  0  0  0  0  0
    4.6244    1.4709   -6.2140 C   0  0  0  0  0  0  0  0  0  0  0  0
    4.1964    2.5310   -5.7647 O   0  0  0  0  0  0  0  0  0  0  0  0
    5.1054    1.5128   -7.6139 C   0  0  0  0  0  0  0  0  0  0  0  0
    5.0838    2.6222   -8.4135 C   0  0  0  0  0  0  0  0  0  0  0  0
    5.7114    2.2911   -9.5833 N   0  0  0  0  0  0  0  0  0  0  0  0
    6.0684    0.9672   -9.4611 C   0  0  0  0  0  0  0  0  0  0  0  0
    5.7399    0.4934   -8.3021 N   0  0  0  0  0  0  0  0  0  0  0  0
    1.3766    0.9417    1.4601 H   0  0  0  0  0  0  0  0  0  0  0  0
    0.9273    1.1751   -0.2315 H   0  0  0  0  0  0  0  0  0  0  0  0
    2.3762    1.9567    0.4182 H   0  0  0  0  0  0  0  0  0  0  0  0
    3.3691   -0.6059    2.0682 H   0  0  0  0  0  0  0  0  0  0  0  0
    4.3750    0.5260    1.1599 H   0  0  0  0  0  0  0  0  0  0  0  0
    4.4210   -1.2020    0.7860 H   0  0  0  0  0  0  0  0  0  0  0  0
    1.3943   -1.6065    1.2087 H   0  0  0  0  0  0  0  0  0  0  0  0
    2.2186   -2.3509   -0.1612 H   0  0  0  0  0  0  0  0  0  0  0  0
    0.7894   -1.3360   -0.4257 H   0  0  0  0  0  0  0  0  0  0  0  0
    2.3494    1.9152   -1.7835 H   0  0  0  0  0  0  0  0  0  0  0  0
    3.1844    2.1325   -3.9592 H   0  0  0  0  0  0  0  0  0  0  0  0
    5.3706   -1.5678   -3.4682 H   0  0  0  0  0  0  0  0  0  0  0  0
    4.2537   -1.9286   -1.4040 H   0  0  0  0  0  0  0  0  0  0  0  0
    4.8853   -1.8498   -5.4002 H   0  0  0  0  0  0  0  0  0  0  0  0
    2.8861    0.2675   -7.3278 H   0  0  0  0  0  0  0  0  0  0  0  0
    1.1524   -0.6566   -8.7112 H   0  0  0  0  0  0  0  0  0  0  0  0
    1.4408   -2.9531   -9.6549 H   0  0  0  0  0  0  0  0  0  0  0  0
    5.0343   -3.4673   -7.7497 H   0  0  0  0  0  0  0  0  0  0  0  0
    7.0163    0.5103   -7.0882 H   0  0  0  0  0  0  0  0  0  0  0  0
    9.1027   -0.9772   -7.5167 H   0  0  0  0  0  0  0  0  0  0  0  0
    9.3017   -0.7599   -5.7738 H   0  0  0  0  0  0  0  0  0  0  0  0
    9.3913    1.7303   -6.0759 H   0  0  0  0  0  0  0  0  0  0  0  0
    9.1141    1.5473   -7.7959 H   0  0  0  0  0  0  0  0  0  0  0  0
   11.5527    1.2740   -5.0468 H   0  0  0  0  0  0  0  0  0  0  0  0
   13.9937    1.0700   -5.3387 H   0  0  0  0  0  0  0  0  0  0  0  0
   14.9522    0.6678   -7.6050 H   0  0  0  0  0  0  0  0  0  0  0  0
   11.0309    0.6959   -9.3044 H   0  0  0  0  0  0  0  0  0  0  0  0
    4.7033    3.6197   -8.2268 H   0  0  0  0  0  0  0  0  0  0  0  0
    5.8973    2.8840  -10.3523 H   0  0  0  0  0  0  0  0  0  0  0  0
    6.5931    0.4406  -10.2547 H   0  0  0  0  0  0  0  0  0  0  0  0
  1  2  1  0  0  0  0
  1 38  1  0  0  0  0
  1 39  1  0  0  0  0
  1 40  1  0  0  0  0
  2  3  1  0  0  0  0
  2  4  1  0  0  0  0
  2  5  1  0  0  0  0
  3 41  1  0  0  0  0
  3 42  1  0  0  0  0
  3 43  1  0  0  0  0
  4 44  1  0  0  0  0
  4 45  1  0  0  0  0
  4 46  1  0  0  0  0
  5  6  1  0  0  0  0
  5 10  2  0  0  0  0
  6  7  2  0  0  0  0
  6 47  1  0  0  0  0
  7  8  1  0  0  0  0
  7 48  1  0  0  0  0
  8  9  2  0  0  0  0
  8 11  1  0  0  0  0
  9 10  1  0  0  0  0
  9 49  1  0  0  0  0
 10 50  1  0  0  0  0
 11 12  1  0  0  0  0
 11 31  1  0  0  0  0
 12 13  1  0  0  0  0
 12 19  1  0  0  0  0
 12 51  1  0  0  0  0
 13 14  1  0  0  0  0
 13 18  2  0  0  0  0
 14 15  2  0  0  0  0
 14 52  1  0  0  0  0
 15 16  1  0  0  0  0
 15 53  1  0  0  0  0
 16 17  2  0  0  0  0
 16 54  1  0  0  0  0
 17 18  1  0  0  0  0
 18 55  1  0  0  0  0
 19 20  2  0  0  0  0
 19 21  1  0  0  0  0
 21 22  1  0  0  0  0
 21 56  1  0  0  0  0
 22 23  1  0  0  0  0
 22 57  1  0  0  0  0
 22 58  1  0  0  0  0
 23 24  1  0  0  0  0
 23 59  1  0  0  0  0
 23 60  1  0  0  0  0
 24 25  1  0  0  0  0
 24 29  2  0  0  0  0
 25 26  2  0  0  0  0
 25 61  1  0  0  0  0
 26 27  1  0  0  0  0
 26 62  1  0  0  0  0
 27 28  2  0  0  0  0
 27 63  1  0  0  0  0
 28 29  1  0  0  0  0
 28 30  1  0  0  0  0
 29 64  1  0  0  0  0
 31 32  2  0  0  0  0
 31 33  1  0  0  0  0
 33 34  2  0  0  0  0
 33 37  1  0  0  0  0
 34 35  1  0  0  0  0
 34 65  1  0  0  0  0
 35 36  1  0  0  0  0
 35 66  1  0  0  0  0
 36 37  2  0  0  0  0
 36 67  1  0  0  0  0
M  END
$$$$
