
 OpenBabel07202414143D

 65 69  0  0  1  0  0  0  0  0999 V2000
   13.8999    4.8661   -5.1896 C   0  0  0  0  0  0  0  0  0  0  0  0
   13.5749    6.1087   -5.8819 N   0  0  0  0  0  0  0  0  0  0  0  0
   13.8159    7.5604   -5.0573 S   0  0  0  0  0  0  0  0  0  0  0  0
   15.0865    7.4644   -4.3678 O   0  0  0  0  0  0  0  0  0  0  0  0
   13.5369    8.6359   -5.9784 O   0  0  0  0  0  0  0  0  0  0  0  0
   12.5398    7.5500   -3.8454 C   0  0  0  0  0  0  0  0  0  0  0  0
   12.8457    7.4840   -2.4819 C   0  0  0  0  0  0  0  0  0  0  0  0
   11.8072    7.5030   -1.5396 C   0  0  0  0  0  0  0  0  0  0  0  0
   12.1041    7.3104   -0.0693 C   0  0  0  0  0  0  0  0  0  0  0  0
   11.3497    6.2022    0.5258 N   0  0  0  0  0  0  0  0  0  0  0  0
   11.7009    4.8934   -0.0454 C   0  0  0  0  0  0  0  0  0  0  0  0
   11.0077    3.6438    0.6134 C   0  0  1  0  0  0  0  0  0  0  0  0
    9.4553    3.7924    0.5174 C   0  0  0  0  0  0  0  0  0  0  0  0
    8.9484    4.4844   -0.3655 O   0  0  0  0  0  0  0  0  0  0  0  0
    8.7254    3.0304    1.4188 N   0  0  0  0  0  0  0  0  0  0  0  0
    7.3160    3.0094    1.6210 C   0  0  0  0  0  0  0  0  0  0  0  0
    6.4274    3.7637    0.8545 C   0  0  0  0  0  0  0  0  0  0  0  0
    5.0967    3.8557    1.0857 N   0  0  0  0  0  0  0  0  0  0  0  0
    4.6055    3.1113    2.0940 C   0  0  0  0  0  0  0  0  0  0  0  0
    5.3603    2.2290    2.8617 C   0  0  0  0  0  0  0  0  0  0  0  0
    4.7415    1.3903    3.8085 C   0  0  0  0  0  0  0  0  0  0  0  0
    5.4925    0.5025    4.5721 C   0  0  0  0  0  0  0  0  0  0  0  0
    6.8720    0.4774    4.4279 C   0  0  0  0  0  0  0  0  0  0  0  0
    7.4988    1.3074    3.4896 C   0  0  0  0  0  0  0  0  0  0  0  0
    6.7607    2.1866    2.6525 C   0  0  0  0  0  0  0  0  0  0  0  0
   11.4355    2.4473   -0.2752 C   0  0  0  0  0  0  0  0  0  0  0  0
   11.1936    1.1195    0.4088 C   0  0  0  0  0  0  0  0  0  0  0  0
   11.9104    1.0076    1.6347 O   0  0  0  0  0  0  0  0  0  0  0  0
   11.9321    2.1160    2.4329 C   0  0  0  0  0  0  0  0  0  0  0  0
   12.4488    1.8975    3.7170 C   0  0  0  0  0  0  0  0  0  0  0  0
   12.5265    2.9434    4.6348 C   0  0  0  0  0  0  0  0  0  0  0  0
   12.0716    4.2034    4.2723 C   0  0  0  0  0  0  0  0  0  0  0  0
   12.1788    5.5100    5.3862 Cl  0  0  0  0  0  0  0  0  0  0  0  0
   11.5444    4.4209    2.9993 C   0  0  0  0  0  0  0  0  0  0  0  0
   11.5040    3.3917    2.0391 C   0  0  0  0  0  0  0  0  0  0  0  0
   10.4807    7.6501   -1.9815 C   0  0  0  0  0  0  0  0  0  0  0  0
   10.1874    7.6863   -3.3426 C   0  0  0  0  0  0  0  0  0  0  0  0
   11.2195    7.6189   -4.2698 C   0  0  0  0  0  0  0  0  0  0  0  0
   10.9084    7.5803   -5.5725 F   0  0  0  0  0  0  0  0  0  0  0  0
   13.7361    4.0268   -5.8718 H   0  0  0  0  0  0  0  0  0  0  0  0
   13.2610    4.7197   -4.3157 H   0  0  0  0  0  0  0  0  0  0  0  0
   14.9519    4.8518   -4.8911 H   0  0  0  0  0  0  0  0  0  0  0  0
   12.7109    6.1250   -6.4269 H   0  0  0  0  0  0  0  0  0  0  0  0
   13.8818    7.4030   -2.1568 H   0  0  0  0  0  0  0  0  0  0  0  0
   11.8569    8.2387    0.4595 H   0  0  0  0  0  0  0  0  0  0  0  0
   13.1780    7.1491    0.0935 H   0  0  0  0  0  0  0  0  0  0  0  0
   10.3486    6.3611    0.3846 H   0  0  0  0  0  0  0  0  0  0  0  0
   12.7896    4.7673    0.0313 H   0  0  0  0  0  0  0  0  0  0  0  0
   11.4533    4.8950   -1.1148 H   0  0  0  0  0  0  0  0  0  0  0  0
    9.2633    2.5153    2.0994 H   0  0  0  0  0  0  0  0  0  0  0  0
    6.7433    4.3457   -0.0030 H   0  0  0  0  0  0  0  0  0  0  0  0
    3.5418    3.2472    2.2763 H   0  0  0  0  0  0  0  0  0  0  0  0
    3.6594    1.4042    3.9350 H   0  0  0  0  0  0  0  0  0  0  0  0
    5.0016   -0.1667    5.2744 H   0  0  0  0  0  0  0  0  0  0  0  0
    7.4681   -0.1989    5.0369 H   0  0  0  0  0  0  0  0  0  0  0  0
    8.5788    1.2272    3.4210 H   0  0  0  0  0  0  0  0  0  0  0  0
   12.5132    2.5178   -0.4846 H   0  0  0  0  0  0  0  0  0  0  0  0
   10.9203    2.4685   -1.2433 H   0  0  0  0  0  0  0  0  0  0  0  0
   11.5528    0.3138   -0.2416 H   0  0  0  0  0  0  0  0  0  0  0  0
   10.1317    0.9247    0.5866 H   0  0  0  0  0  0  0  0  0  0  0  0
   12.7917    0.9063    3.9985 H   0  0  0  0  0  0  0  0  0  0  0  0
   12.9455    2.7686    5.6219 H   0  0  0  0  0  0  0  0  0  0  0  0
   11.1850    5.4196    2.7652 H   0  0  0  0  0  0  0  0  0  0  0  0
    9.6627    7.6950   -1.2646 H   0  0  0  0  0  0  0  0  0  0  0  0
    9.1566    7.7472   -3.6789 H   0  0  0  0  0  0  0  0  0  0  0  0
  1  2  1  0  0  0  0
  1 40  1  0  0  0  0
  1 41  1  0  0  0  0
  1 42  1  0  0  0  0
  2  3  1  0  0  0  0
  2 43  1  0  0  0  0
  3  4  2  0  0  0  0
  3  5  2  0  0  0  0
  3  6  1  0  0  0  0
  6  7  1  0  0  0  0
  6 38  2  0  0  0  0
  7  8  2  0  0  0  0
  7 44  1  0  0  0  0
  8  9  1  0  0  0  0
  8 36  1  0  0  0  0
  9 10  1  0  0  0  0
  9 45  1  0  0  0  0
  9 46  1  0  0  0  0
 10 11  1  0  0  0  0
 10 47  1  0  0  0  0
 11 48  1  0  0  0  0
 11 49  1  0  0  0  0
 12 26  1  0  0  0  0
 12 35  1  0  0  0  0
 12 13  1  6  0  0  0
 12 11  1  0  0  0  0
 13 14  2  0  0  0  0
 13 15  1  0  0  0  0
 15 16  1  0  0  0  0
 15 50  1  0  0  0  0
 16 17  1  0  0  0  0
 16 25  2  0  0  0  0
 17 18  2  0  0  0  0
 17 51  1  0  0  0  0
 18 19  1  0  0  0  0
 19 20  2  0  0  0  0
 19 52  1  0  0  0  0
 20 21  1  0  0  0  0
 20 25  1  0  0  0  0
 21 22  2  0  0  0  0
 21 53  1  0  0  0  0
 22 23  1  0  0  0  0
 22 54  1  0  0  0  0
 23 24  2  0  0  0  0
 23 55  1  0  0  0  0
 24 25  1  0  0  0  0
 24 56  1  0  0  0  0
 26 27  1  0  0  0  0
 26 57  1  0  0  0  0
 26 58  1  0  0  0  0
 27 28  1  0  0  0  0
 27 59  1  0  0  0  0
 27 60  1  0  0  0  0
 28 29  1  0  0  0  0
 29 30  1  0  0  0  0
 29 35  2  0  0  0  0
 30 31  2  0  0  0  0
 30 61  1  0  0  0  0
 31 32  1  0  0  0  0
 31 62  1  0  0  0  0
 32 33  1  0  0  0  0
 32 34  2  0  0  0  0
 34 35  1  0  0  0  0
 34 63  1  0  0  0  0
 36 37  2  0  0  0  0
 36 64  1  0  0  0  0
 37 38  1  0  0  0  0
 37 65  1  0  0  0  0
 38 39  1  0  0  0  0
M  END
$$$$
