
 OpenBabel07202414183D

 52 55  0  0  1  0  0  0  0  0999 V2000
   -1.5391   -0.0326    1.7423 Cl  0  0  0  0  0  0  0  0  0  0  0  0
   -0.0797    0.0016    0.8322 C   0  0  0  0  0  0  0  0  0  0  0  0
    0.2618    1.1418    0.1118 C   0  0  0  0  0  0  0  0  0  0  0  0
    1.4397    1.1570   -0.6345 C   0  0  0  0  0  0  0  0  0  0  0  0
    2.2704    0.0315   -0.6610 C   0  0  0  0  0  0  0  0  0  0  0  0
    1.9466   -1.1255    0.0692 C   0  0  0  0  0  0  0  0  0  0  0  0
    2.7936   -2.3955    0.0347 C   0  0  3  0  0  0  0  0  0  0  0  0
    2.3198   -3.2564   -1.0716 N   0  0  0  0  0  0  0  0  0  0  0  0
    2.0704   -4.6085   -0.9137 C   0  0  0  0  0  0  0  0  0  0  0  0
    2.1457   -5.1568    0.1859 O   0  0  0  0  0  0  0  0  0  0  0  0
    1.6032   -5.3854   -2.1744 C   0  0  0  0  0  0  0  0  0  0  0  0
    2.3285   -6.6458   -2.4717 N   0  0  0  0  0  0  0  0  0  0  0  0
    2.2290   -7.7477   -1.6271 C   0  0  0  0  0  0  0  0  0  0  0  0
    2.8987   -8.9011   -1.8333 C   0  0  0  0  0  0  0  0  0  0  0  0
    2.8779   -9.9796   -0.7624 C   0  0  0  0  0  0  0  0  0  0  0  0
    2.8607  -10.8742    0.1261 N   0  0  0  0  0  0  0  0  0  0  0  0
    3.7783   -8.9863   -3.0099 C   0  0  0  0  0  0  0  0  0  0  0  0
    4.4723   -9.9681   -3.2439 O   0  0  0  0  0  0  0  0  0  0  0  0
    3.7773   -7.8833   -3.8278 N   0  0  0  0  0  0  0  0  0  0  0  0
    3.1195   -6.6943   -3.6145 C   0  0  0  0  0  0  0  0  0  0  0  0
    3.2419   -5.7647   -4.4077 O   0  0  0  0  0  0  0  0  0  0  0  0
    4.3286   -2.0916   -0.0605 C   0  0  0  0  0  0  0  0  0  0  0  0
    4.9264   -2.2645   -1.1227 O   0  0  0  0  0  0  0  0  0  0  0  0
    4.9096   -1.6054    1.1192 N   0  0  0  0  0  0  0  0  0  0  0  0
    6.3070   -1.3671    1.3405 C   0  0  0  0  0  0  0  0  0  0  0  0
    7.2378   -1.3897    0.2995 C   0  0  0  0  0  0  0  0  0  0  0  0
    8.5838   -1.3494    0.4522 N   0  0  0  0  0  0  0  0  0  0  0  0
    9.0451   -1.2347    1.7111 C   0  0  0  0  0  0  0  0  0  0  0  0
    8.2345   -1.0640    2.8296 C   0  0  0  0  0  0  0  0  0  0  0  0
    8.8208   -0.8323    4.0850 C   0  0  0  0  0  0  0  0  0  0  0  0
    8.0260   -0.6262    5.2067 C   0  0  0  0  0  0  0  0  0  0  0  0
    6.6450   -0.6785    5.0781 C   0  0  0  0  0  0  0  0  0  0  0  0
    6.0529   -0.9321    3.8305 C   0  0  0  0  0  0  0  0  0  0  0  0
    6.8281   -1.1223    2.6595 C   0  0  0  0  0  0  0  0  0  0  0  0
    0.7519   -1.1212    0.8125 C   0  0  0  0  0  0  0  0  0  0  0  0
   -0.3847    2.0162    0.1217 H   0  0  0  0  0  0  0  0  0  0  0  0
    1.7075    2.0459   -1.2020 H   0  0  0  0  0  0  0  0  0  0  0  0
    3.1760    0.0732   -1.2712 H   0  0  0  0  0  0  0  0  0  0  0  0
    2.6554   -2.9359    0.9789 H   0  0  0  0  0  0  0  0  0  0  0  0
    2.4414   -2.8839   -2.0072 H   0  0  0  0  0  0  0  0  0  0  0  0
    1.6468   -4.7137   -3.0392 H   0  0  0  0  0  0  0  0  0  0  0  0
    0.5420   -5.6353   -2.0372 H   0  0  0  0  0  0  0  0  0  0  0  0
    1.6004   -7.6154   -0.7476 H   0  0  0  0  0  0  0  0  0  0  0  0
    4.3769   -7.9180   -4.6389 H   0  0  0  0  0  0  0  0  0  0  0  0
    4.3135   -1.5536    1.9343 H   0  0  0  0  0  0  0  0  0  0  0  0
    6.9425   -1.4265   -0.7428 H   0  0  0  0  0  0  0  0  0  0  0  0
   10.1302   -1.2730    1.7941 H   0  0  0  0  0  0  0  0  0  0  0  0
    9.9051   -0.7846    4.1952 H   0  0  0  0  0  0  0  0  0  0  0  0
    8.4830   -0.4142    6.1678 H   0  0  0  0  0  0  0  0  0  0  0  0
    6.0201   -0.5098    5.9511 H   0  0  0  0  0  0  0  0  0  0  0  0
    4.9680   -0.9446    3.7977 H   0  0  0  0  0  0  0  0  0  0  0  0
    0.4557   -2.0088    1.3673 H   0  0  0  0  0  0  0  0  0  0  0  0
  1  2  1  0  0  0  0
  2  3  1  0  0  0  0
  2 35  2  0  0  0  0
  3  4  2  0  0  0  0
  3 36  1  0  0  0  0
  4  5  1  0  0  0  0
  4 37  1  0  0  0  0
  5  6  2  0  0  0  0
  5 38  1  0  0  0  0
  6  7  1  0  0  0  0
  6 35  1  0  0  0  0
  7  8  1  0  0  0  0
  7 22  1  0  0  0  0
  7 39  1  0  0  0  0
  8  9  1  0  0  0  0
  8 40  1  0  0  0  0
  9 10  2  0  0  0  0
  9 11  1  0  0  0  0
 11 12  1  0  0  0  0
 11 41  1  0  0  0  0
 11 42  1  0  0  0  0
 12 13  1  0  0  0  0
 12 20  1  0  0  0  0
 13 14  2  0  0  0  0
 13 43  1  0  0  0  0
 14 15  1  0  0  0  0
 14 17  1  0  0  0  0
 15 16  3  0  0  0  0
 17 18  2  0  0  0  0
 17 19  1  0  0  0  0
 19 20  1  0  0  0  0
 19 44  1  0  0  0  0
 20 21  2  0  0  0  0
 22 23  2  0  0  0  0
 22 24  1  0  0  0  0
 24 25  1  0  0  0  0
 24 45  1  0  0  0  0
 25 26  1  0  0  0  0
 25 34  2  0  0  0  0
 26 27  2  0  0  0  0
 26 46  1  0  0  0  0
 27 28  1  0  0  0  0
 28 29  2  0  0  0  0
 28 47  1  0  0  0  0
 29 30  1  0  0  0  0
 29 34  1  0  0  0  0
 30 31  2  0  0  0  0
 30 48  1  0  0  0  0
 31 32  1  0  0  0  0
 31 49  1  0  0  0  0
 32 33  2  0  0  0  0
 32 50  1  0  0  0  0
 33 34  1  0  0  0  0
 33 51  1  0  0  0  0
 35 52  1  0  0  0  0
M  END
$$$$
