
 OpenBabel07202414173D

 56 60  0  0  1  0  0  0  0  0999 V2000
    0.9985   -0.0718    0.0125 Cl  0  0  0  0  0  0  0  0  0  0  0  0
    2.7130   -0.0843    0.1519 C   0  0  0  0  0  0  0  0  0  0  0  0
    3.4252    1.1032    0.0200 C   0  0  0  0  0  0  0  0  0  0  0  0
    4.8182    1.0893    0.1053 C   0  0  0  0  0  0  0  0  0  0  0  0
    5.5123   -0.1113    0.3308 C   0  0  0  0  0  0  0  0  0  0  0  0
    4.7849   -1.3074    0.4802 C   0  0  0  0  0  0  0  0  0  0  0  0
    3.3820   -1.2838    0.3843 C   0  0  0  0  0  0  0  0  0  0  0  0
    5.5066   -2.6183    0.7555 C   0  0  3  0  0  0  0  0  0  0  0  0
    5.4089   -3.0184    2.2555 C   0  0  0  0  0  0  0  0  0  0  0  0
    4.4488   -2.6707    2.9424 O   0  0  0  0  0  0  0  0  0  0  0  0
    6.3940   -3.8765    2.7056 N   0  0  0  0  0  0  0  0  0  0  0  0
    6.5759   -4.3912    4.0178 C   0  0  0  0  0  0  0  0  0  0  0  0
    5.7004   -4.1416    5.0740 C   0  0  0  0  0  0  0  0  0  0  0  0
    5.9686   -4.4308    6.3698 N   0  0  0  0  0  0  0  0  0  0  0  0
    7.1358   -5.0583    6.6197 C   0  0  0  0  0  0  0  0  0  0  0  0
    8.0184   -5.5035    5.6373 C   0  0  0  0  0  0  0  0  0  0  0  0
    9.1435   -6.2826    5.9662 C   0  0  0  0  0  0  0  0  0  0  0  0
   10.0072   -6.7420    4.9747 C   0  0  0  0  0  0  0  0  0  0  0  0
    9.7739   -6.4035    3.6503 C   0  0  0  0  0  0  0  0  0  0  0  0
    8.6639   -5.6249    3.3145 C   0  0  0  0  0  0  0  0  0  0  0  0
    7.7450   -5.1602    4.2938 C   0  0  0  0  0  0  0  0  0  0  0  0
    6.9115   -2.5461    0.1327 C   0  0  0  0  0  0  0  0  0  0  0  0
    7.6941   -1.3759    0.6515 N   0  0  0  0  0  0  0  0  0  0  0  0
    9.3621   -1.4266    0.2427 S   0  0  0  0  0  0  0  0  0  0  0  0
    9.7476   -2.8175    0.2698 O   0  0  0  0  0  0  0  0  0  0  0  0
    9.5679   -0.6094   -0.9336 O   0  0  0  0  0  0  0  0  0  0  0  0
   10.1415   -0.6218    1.6360 C   0  0  0  0  0  0  0  0  0  0  0  0
   11.6373   -0.4499    1.3838 C   0  0  0  0  0  0  0  0  0  0  0  0
   12.3419   -1.6969    1.1514 C   0  0  0  0  0  0  0  0  0  0  0  0
   12.9354   -2.6785    0.9930 N   0  0  0  0  0  0  0  0  0  0  0  0
   12.3578    0.4118    2.4624 C   0  0  0  0  0  0  0  0  0  0  0  0
   13.0526    1.1601    1.3988 N   0  0  0  0  0  0  0  0  0  0  0  0
   12.0437    0.7063    0.4210 C   0  0  0  0  0  0  0  0  0  0  0  0
    7.0271   -0.0879    0.2945 C   0  0  0  0  0  0  0  0  0  0  0  0
    2.9042    2.0397   -0.1604 H   0  0  0  0  0  0  0  0  0  0  0  0
    5.3624    2.0229   -0.0247 H   0  0  0  0  0  0  0  0  0  0  0  0
    2.8099   -2.2024    0.5019 H   0  0  0  0  0  0  0  0  0  0  0  0
    4.9754   -3.4170    0.2193 H   0  0  0  0  0  0  0  0  0  0  0  0
    7.1792   -4.0281    2.0990 H   0  0  0  0  0  0  0  0  0  0  0  0
    4.7286   -3.6800    4.9335 H   0  0  0  0  0  0  0  0  0  0  0  0
    7.3461   -5.2065    7.6763 H   0  0  0  0  0  0  0  0  0  0  0  0
    9.3366   -6.5633    6.9997 H   0  0  0  0  0  0  0  0  0  0  0  0
   10.8550   -7.3708    5.2337 H   0  0  0  0  0  0  0  0  0  0  0  0
   10.4453   -6.7523    2.8686 H   0  0  0  0  0  0  0  0  0  0  0  0
    8.5227   -5.4255    2.2561 H   0  0  0  0  0  0  0  0  0  0  0  0
    6.8324   -2.4543   -0.9582 H   0  0  0  0  0  0  0  0  0  0  0  0
    7.4480   -3.4792    0.3183 H   0  0  0  0  0  0  0  0  0  0  0  0
    9.9558   -1.2414    2.5159 H   0  0  0  0  0  0  0  0  0  0  0  0
    9.6549    0.3494    1.7710 H   0  0  0  0  0  0  0  0  0  0  0  0
   13.0270   -0.1230    3.1471 H   0  0  0  0  0  0  0  0  0  0  0  0
   11.7006    1.0454    3.0701 H   0  0  0  0  0  0  0  0  0  0  0  0
   13.9974    0.8155    1.2010 H   0  0  0  0  0  0  0  0  0  0  0  0
   12.4548    0.4203   -0.5528 H   0  0  0  0  0  0  0  0  0  0  0  0
   11.2666    1.4616    0.2483 H   0  0  0  0  0  0  0  0  0  0  0  0
    7.2921    0.1850   -0.7341 H   0  0  0  0  0  0  0  0  0  0  0  0
    7.3870    0.6905    0.9759 H   0  0  0  0  0  0  0  0  0  0  0  0
  1  2  1  0  0  0  0
  2  3  1  0  0  0  0
  2  7  2  0  0  0  0
  3  4  2  0  0  0  0
  3 35  1  0  0  0  0
  4  5  1  0  0  0  0
  4 36  1  0  0  0  0
  5  6  2  0  0  0  0
  5 34  1  0  0  0  0
  6  7  1  0  0  0  0
  6  8  1  0  0  0  0
  7 37  1  0  0  0  0
  8  9  1  0  0  0  0
  8 22  1  0  0  0  0
  8 38  1  0  0  0  0
  9 10  2  0  0  0  0
  9 11  1  0  0  0  0
 11 12  1  0  0  0  0
 11 39  1  0  0  0  0
 12 13  1  0  0  0  0
 12 21  2  0  0  0  0
 13 14  2  0  0  0  0
 13 40  1  0  0  0  0
 14 15  1  0  0  0  0
 15 16  2  0  0  0  0
 15 41  1  0  0  0  0
 16 17  1  0  0  0  0
 16 21  1  0  0  0  0
 17 18  2  0  0  0  0
 17 42  1  0  0  0  0
 18 19  1  0  0  0  0
 18 43  1  0  0  0  0
 19 20  2  0  0  0  0
 19 44  1  0  0  0  0
 20 21  1  0  0  0  0
 20 45  1  0  0  0  0
 22 23  1  0  0  0  0
 22 46  1  0  0  0  0
 22 47  1  0  0  0  0
 23 24  1  0  0  0  0
 23 34  1  0  0  0  0
 24 25  2  0  0  0  0
 24 26  2  0  0  0  0
 24 27  1  0  0  0  0
 27 28  1  0  0  0  0
 27 48  1  0  0  0  0
 27 49  1  0  0  0  0
 28 29  1  0  0  0  0
 28 31  1  0  0  0  0
 28 33  1  0  0  0  0
 29 30  3  0  0  0  0
 31 32  1  0  0  0  0
 31 50  1  0  0  0  0
 31 51  1  0  0  0  0
 32 33  1  0  0  0  0
 32 52  1  0  0  0  0
 33 53  1  0  0  0  0
 33 54  1  0  0  0  0
 34 55  1  0  0  0  0
 34 56  1  0  0  0  0
M  END
$$$$
