
 OpenBabel07202414183D

 32 34  0  0  0  0  0  0  0  0999 V2000
   -1.3875   -5.2096   -1.8138 Cl  0  0  0  0  0  0  0  0  0  0  0  0
    0.0417   -4.2925   -2.0913 C   0  0  0  0  0  0  0  0  0  0  0  0
    0.4912   -4.0868   -3.3919 C   0  0  0  0  0  0  0  0  0  0  0  0
    1.6351   -3.3209   -3.6112 C   0  0  0  0  0  0  0  0  0  0  0  0
    2.3349   -2.7762   -2.5305 C   0  0  0  0  0  0  0  0  0  0  0  0
    1.9141   -3.0131   -1.2134 C   0  0  0  0  0  0  0  0  0  0  0  0
    2.6221   -2.4262   -0.0142 C   0  0  0  0  0  0  0  0  0  0  0  0
    4.0990   -2.1354   -0.2043 C   0  0  0  0  0  0  0  0  0  0  0  0
    4.4833   -0.9912   -0.4394 O   0  0  0  0  0  0  0  0  0  0  0  0
    4.9191   -3.2478   -0.0971 N   0  0  0  0  0  0  0  0  0  0  0  0
    6.3047   -3.1720   -0.1536 C   0  0  0  0  0  0  0  0  0  0  0  0
    7.1460   -2.0387   -0.1782 C   0  0  0  0  0  0  0  0  0  0  0  0
    8.4414   -2.3460   -0.2322 N   0  0  0  0  0  0  0  0  0  0  0  0
    8.4699   -3.6987   -0.2567 N   0  0  0  0  0  0  0  0  0  0  0  0
    9.6083   -4.4998   -0.3403 C   0  0  0  0  0  0  0  0  0  0  0  0
    9.4975   -5.8375   -0.3570 C   0  0  0  0  0  0  0  0  0  0  0  0
    8.1703   -6.4264   -0.2816 C   0  0  0  0  0  0  0  0  0  0  0  0
    7.0600   -5.6653   -0.1989 C   0  0  0  0  0  0  0  0  0  0  0  0
    7.1768   -4.2403   -0.1901 C   0  0  0  0  0  0  0  0  0  0  0  0
    0.7406   -3.7577   -1.0082 C   0  0  0  0  0  0  0  0  0  0  0  0
   -0.0491   -4.5065   -4.2360 H   0  0  0  0  0  0  0  0  0  0  0  0
    1.9792   -3.1381   -4.6268 H   0  0  0  0  0  0  0  0  0  0  0  0
    3.2073   -2.1570   -2.7387 H   0  0  0  0  0  0  0  0  0  0  0  0
    2.5205   -3.0964    0.8484 H   0  0  0  0  0  0  0  0  0  0  0  0
    2.1287   -1.4839    0.2561 H   0  0  0  0  0  0  0  0  0  0  0  0
    4.5036   -4.1688   -0.0416 H   0  0  0  0  0  0  0  0  0  0  0  0
    6.8699   -0.9924   -0.1503 H   0  0  0  0  0  0  0  0  0  0  0  0
   10.5533   -3.9737   -0.3939 H   0  0  0  0  0  0  0  0  0  0  0  0
   10.3676   -6.4822   -0.4266 H   0  0  0  0  0  0  0  0  0  0  0  0
    8.1055   -7.5109   -0.2941 H   0  0  0  0  0  0  0  0  0  0  0  0
    6.0837   -6.1308   -0.1456 H   0  0  0  0  0  0  0  0  0  0  0  0
    0.3619   -3.9137   -0.0001 H   0  0  0  0  0  0  0  0  0  0  0  0
  1  2  1  0  0  0  0
  2  3  1  0  0  0  0
  2 20  2  0  0  0  0
  3  4  2  0  0  0  0
  3 21  1  0  0  0  0
  4  5  1  0  0  0  0
  4 22  1  0  0  0  0
  5  6  2  0  0  0  0
  5 23  1  0  0  0  0
  6  7  1  0  0  0  0
  6 20  1  0  0  0  0
  7  8  1  0  0  0  0
  7 24  1  0  0  0  0
  7 25  1  0  0  0  0
  8  9  2  0  0  0  0
  8 10  1  0  0  0  0
 10 11  1  0  0  0  0
 10 26  1  0  0  0  0
 11 12  1  0  0  0  0
 11 19  2  0  0  0  0
 12 13  2  0  0  0  0
 12 27  1  0  0  0  0
 13 14  1  0  0  0  0
 14 15  1  0  0  0  0
 14 19  1  0  0  0  0
 15 16  2  0  0  0  0
 15 28  1  0  0  0  0
 16 17  1  0  0  0  0
 16 29  1  0  0  0  0
 17 18  2  0  0  0  0
 17 30  1  0  0  0  0
 18 19  1  0  0  0  0
 18 31  1  0  0  0  0
 20 32  1  0  0  0  0
M  END
$$$$
