
 OpenBabel07202414183D

 44 47  0  0  0  0  0  0  0  0999 V2000
   -0.1149    0.7488    2.9612 Cl  0  0  0  0  0  0  0  0  0  0  0  0
    0.3901    0.2577    1.3897 C   0  0  0  0  0  0  0  0  0  0  0  0
   -0.0131    0.9915    0.2790 C   0  0  0  0  0  0  0  0  0  0  0  0
    0.4028    0.5969   -0.9876 C   0  0  0  0  0  0  0  0  0  0  0  0
    1.2135   -0.5321   -1.1272 C   0  0  0  0  0  0  0  0  0  0  0  0
    1.6268   -1.2917   -0.0200 C   0  0  0  0  0  0  0  0  0  0  0  0
    2.4774   -2.3735   -0.2243 N   0  0  0  0  0  0  0  0  0  0  0  0
    3.2976   -2.8796    0.8823 C   0  0  0  0  0  0  0  0  0  0  0  0
    4.4884   -3.6743    0.3211 C   0  0  0  0  0  0  0  0  0  0  0  0
    4.1095   -4.6930   -0.6819 N   0  0  0  0  0  0  0  0  0  0  0  0
    4.6794   -5.9478   -0.8827 C   0  0  0  0  0  0  0  0  0  0  0  0
    4.3537   -6.6473   -1.8435 O   0  0  0  0  0  0  0  0  0  0  0  0
    5.6562   -6.5028    0.1166 C   0  0  0  0  0  0  0  0  0  0  0  0
    6.6769   -5.7220    0.5073 C   0  0  0  0  0  0  0  0  0  0  0  0
    7.5856   -6.1185    1.5988 C   0  0  0  0  0  0  0  0  0  0  0  0
    8.3617   -5.2979    2.0866 O   0  0  0  0  0  0  0  0  0  0  0  0
    7.4979   -7.3969    2.0433 N   0  0  0  0  0  0  0  0  0  0  0  0
    6.5950   -8.3289    1.5245 C   0  0  0  0  0  0  0  0  0  0  0  0
    6.6792   -9.6532    1.9626 C   0  0  0  0  0  0  0  0  0  0  0  0
    5.8304  -10.6133    1.4207 C   0  0  0  0  0  0  0  0  0  0  0  0
    4.8851  -10.2385    0.4702 C   0  0  0  0  0  0  0  0  0  0  0  0
    4.7843   -8.9035    0.0576 C   0  0  0  0  0  0  0  0  0  0  0  0
    5.6486   -7.9224    0.5659 C   0  0  0  0  0  0  0  0  0  0  0  0
    3.1858   -4.1900   -1.7167 C   0  0  0  0  0  0  0  0  0  0  0  0
    1.9814   -3.4516   -1.1055 C   0  0  0  0  0  0  0  0  0  0  0  0
    1.2041   -0.8687    1.2461 C   0  0  0  0  0  0  0  0  0  0  0  0
   -0.6390    1.8719    0.3925 H   0  0  0  0  0  0  0  0  0  0  0  0
    0.1163    1.1676   -1.8641 H   0  0  0  0  0  0  0  0  0  0  0  0
    1.5640   -0.7980   -2.1232 H   0  0  0  0  0  0  0  0  0  0  0  0
    2.6989   -3.5292    1.5317 H   0  0  0  0  0  0  0  0  0  0  0  0
    3.6986   -2.0584    1.4885 H   0  0  0  0  0  0  0  0  0  0  0  0
    5.0084   -4.1116    1.1716 H   0  0  0  0  0  0  0  0  0  0  0  0
    5.1747   -2.9840   -0.1900 H   0  0  0  0  0  0  0  0  0  0  0  0
    6.8516   -4.7262    0.1242 H   0  0  0  0  0  0  0  0  0  0  0  0
    8.1477   -7.6611    2.7714 H   0  0  0  0  0  0  0  0  0  0  0  0
    7.4194   -9.9523    2.6994 H   0  0  0  0  0  0  0  0  0  0  0  0
    5.9135  -11.6523    1.7289 H   0  0  0  0  0  0  0  0  0  0  0  0
    4.2298  -10.9893    0.0324 H   0  0  0  0  0  0  0  0  0  0  0  0
    4.0367   -8.6650   -0.6948 H   0  0  0  0  0  0  0  0  0  0  0  0
    2.8219   -4.9998   -2.3568 H   0  0  0  0  0  0  0  0  0  0  0  0
    3.7596   -3.5020   -2.3505 H   0  0  0  0  0  0  0  0  0  0  0  0
    1.3798   -4.1543   -0.5132 H   0  0  0  0  0  0  0  0  0  0  0  0
    1.3457   -3.0801   -1.9156 H   0  0  0  0  0  0  0  0  0  0  0  0
    1.4923   -1.4170    2.1380 H   0  0  0  0  0  0  0  0  0  0  0  0
  1  2  1  0  0  0  0
  2  3  1  0  0  0  0
  2 26  2  0  0  0  0
  3  4  2  0  0  0  0
  3 27  1  0  0  0  0
  4  5  1  0  0  0  0
  4 28  1  0  0  0  0
  5  6  2  0  0  0  0
  5 29  1  0  0  0  0
  6  7  1  0  0  0  0
  6 26  1  0  0  0  0
  7  8  1  0  0  0  0
  7 25  1  0  0  0  0
  8  9  1  0  0  0  0
  8 30  1  0  0  0  0
  8 31  1  0  0  0  0
  9 10  1  0  0  0  0
  9 32  1  0  0  0  0
  9 33  1  0  0  0  0
 10 11  1  0  0  0  0
 10 24  1  0  0  0  0
 11 12  2  0  0  0  0
 11 13  1  0  0  0  0
 13 14  2  0  0  0  0
 13 23  1  0  0  0  0
 14 15  1  0  0  0  0
 14 34  1  0  0  0  0
 15 16  2  0  0  0  0
 15 17  1  0  0  0  0
 17 18  1  0  0  0  0
 17 35  1  0  0  0  0
 18 19  1  0  0  0  0
 18 23  2  0  0  0  0
 19 20  2  0  0  0  0
 19 36  1  0  0  0  0
 20 21  1  0  0  0  0
 20 37  1  0  0  0  0
 21 22  2  0  0  0  0
 21 38  1  0  0  0  0
 22 23  1  0  0  0  0
 22 39  1  0  0  0  0
 24 25  1  0  0  0  0
 24 40  1  0  0  0  0
 24 41  1  0  0  0  0
 25 42  1  0  0  0  0
 25 43  1  0  0  0  0
 26 44  1  0  0  0  0
M  END
$$$$
