
 OpenBabel07202414133D

 48 50  0  0  1  0  0  0  0  0999 V2000
    0.8461   -0.1498    1.3574 C   0  0  0  0  0  0  0  0  0  0  0  0
    2.3395   -0.1013    1.3747 N   0  0  0  0  0  0  0  0  0  0  0  0
    2.7972    0.3574    2.6975 C   0  0  0  0  0  0  0  0  0  0  0  0
    2.9902   -1.5292    0.7271 S   0  0  0  0  0  0  0  0  0  0  0  0
    2.6107   -2.6160    1.6030 O   0  0  0  0  0  0  0  0  0  0  0  0
    2.6383   -1.5466   -0.6726 O   0  0  0  0  0  0  0  0  0  0  0  0
    4.6569   -1.3551    0.8348 N   0  0  0  0  0  0  0  0  0  0  0  0
    5.3134   -1.6309    2.1293 C   0  0  0  0  0  0  0  0  0  0  0  0
    6.7943   -1.9408    1.9604 C   0  0  3  0  0  0  0  0  0  0  0  0
    7.1128   -3.3678    1.5159 C   0  0  0  0  0  0  0  0  0  0  0  0
    8.1275   -3.9064    1.9613 O   0  0  0  0  0  0  0  0  0  0  0  0
    6.2792   -3.9302    0.5644 N   0  0  0  0  0  0  0  0  0  0  0  0
    6.4130   -5.2424    0.0285 C   0  0  0  0  0  0  0  0  0  0  0  0
    7.2362   -6.2082    0.6157 C   0  0  0  0  0  0  0  0  0  0  0  0
    7.4602   -7.4530    0.1236 N   0  0  0  0  0  0  0  0  0  0  0  0
    6.8357   -7.7756   -1.0175 C   0  0  0  0  0  0  0  0  0  0  0  0
    5.9612   -6.9231   -1.6619 C   0  0  0  0  0  0  0  0  0  0  0  0
    5.7242   -5.6387   -1.1293 C   0  0  0  0  0  0  0  0  0  0  0  0
    4.7439   -4.7719   -1.8709 C   0  0  0  0  0  0  0  0  0  0  0  0
    4.5895   -3.5350   -1.3294 F   0  0  0  0  0  0  0  0  0  0  0  0
    5.1158   -4.5646   -3.1655 F   0  0  0  0  0  0  0  0  0  0  0  0
    3.4987   -5.3229   -1.9247 F   0  0  0  0  0  0  0  0  0  0  0  0
    7.4985   -0.9104    1.1083 C   0  0  0  0  0  0  0  0  0  0  0  0
    8.8819   -0.7097    1.2692 C   0  0  0  0  0  0  0  0  0  0  0  0
    9.5502    0.2224    0.4835 C   0  0  0  0  0  0  0  0  0  0  0  0
   11.2380    0.4699    0.7012 Cl  0  0  0  0  0  0  0  0  0  0  0  0
    8.8563    0.9535   -0.4756 C   0  0  0  0  0  0  0  0  0  0  0  0
    7.4794    0.7621   -0.6377 C   0  0  0  0  0  0  0  0  0  0  0  0
    6.7826   -0.1665    0.1539 C   0  0  0  0  0  0  0  0  0  0  0  0
    5.2818   -0.3292   -0.0280 C   0  0  0  0  0  0  0  0  0  0  0  0
    0.4339    0.8362    1.5944 H   0  0  0  0  0  0  0  0  0  0  0  0
    0.4784   -0.8642    2.1034 H   0  0  0  0  0  0  0  0  0  0  0  0
    0.4681   -0.4310    0.3709 H   0  0  0  0  0  0  0  0  0  0  0  0
    2.1998    1.2148    3.0296 H   0  0  0  0  0  0  0  0  0  0  0  0
    3.8207    0.7297    2.6350 H   0  0  0  0  0  0  0  0  0  0  0  0
    2.7104   -0.4284    3.4527 H   0  0  0  0  0  0  0  0  0  0  0  0
    4.8317   -2.4738    2.6353 H   0  0  0  0  0  0  0  0  0  0  0  0
    5.2243   -0.7602    2.7832 H   0  0  0  0  0  0  0  0  0  0  0  0
    7.2121   -1.8693    2.9769 H   0  0  0  0  0  0  0  0  0  0  0  0
    5.5893   -3.3093    0.1379 H   0  0  0  0  0  0  0  0  0  0  0  0
    7.7577   -6.0357    1.5514 H   0  0  0  0  0  0  0  0  0  0  0  0
    7.0601   -8.7638   -1.4076 H   0  0  0  0  0  0  0  0  0  0  0  0
    5.4729   -7.2494   -2.5771 H   0  0  0  0  0  0  0  0  0  0  0  0
    9.4346   -1.2881    2.0086 H   0  0  0  0  0  0  0  0  0  0  0  0
    9.3823    1.6725   -1.0993 H   0  0  0  0  0  0  0  0  0  0  0  0
    6.9567    1.3407   -1.3970 H   0  0  0  0  0  0  0  0  0  0  0  0
    5.1183   -0.6204   -1.0729 H   0  0  0  0  0  0  0  0  0  0  0  0
    4.8087    0.6430    0.1496 H   0  0  0  0  0  0  0  0  0  0  0  0
  1  2  1  0  0  0  0
  1 31  1  0  0  0  0
  1 32  1  0  0  0  0
  1 33  1  0  0  0  0
  2  3  1  0  0  0  0
  2  4  1  0  0  0  0
  3 34  1  0  0  0  0
  3 35  1  0  0  0  0
  3 36  1  0  0  0  0
  4  5  2  0  0  0  0
  4  6  2  0  0  0  0
  4  7  1  0  0  0  0
  7  8  1  0  0  0  0
  7 30  1  0  0  0  0
  8  9  1  0  0  0  0
  8 37  1  0  0  0  0
  8 38  1  0  0  0  0
  9 10  1  0  0  0  0
  9 23  1  0  0  0  0
  9 39  1  0  0  0  0
 10 11  2  0  0  0  0
 10 12  1  0  0  0  0
 12 13  1  0  0  0  0
 12 40  1  0  0  0  0
 13 14  1  0  0  0  0
 13 18  2  0  0  0  0
 14 15  2  0  0  0  0
 14 41  1  0  0  0  0
 15 16  1  0  0  0  0
 16 17  2  0  0  0  0
 16 42  1  0  0  0  0
 17 18  1  0  0  0  0
 17 43  1  0  0  0  0
 18 19  1  0  0  0  0
 19 20  1  0  0  0  0
 19 21  1  0  0  0  0
 19 22  1  0  0  0  0
 23 24  1  0  0  0  0
 23 29  2  0  0  0  0
 24 25  2  0  0  0  0
 24 44  1  0  0  0  0
 25 26  1  0  0  0  0
 25 27  1  0  0  0  0
 27 28  2  0  0  0  0
 27 45  1  0  0  0  0
 28 29  1  0  0  0  0
 28 46  1  0  0  0  0
 29 30  1  0  0  0  0
 30 47  1  0  0  0  0
 30 48  1  0  0  0  0
M  END
$$$$
