
 OpenBabel07202414153D

 48 51  0  0  1  0  0  0  0  0999 V2000
    1.6203   -1.0007   -0.9546 C   0  0  0  0  0  0  0  0  0  0  0  0
    2.9061   -0.5883   -0.4853 O   0  0  0  0  0  0  0  0  0  0  0  0
    3.3259   -1.1112    0.7052 C   0  0  0  0  0  0  0  0  0  0  0  0
    2.6127   -2.0118    1.4891 C   0  0  0  0  0  0  0  0  0  0  0  0
    3.1660   -2.4964    2.6764 C   0  0  0  0  0  0  0  0  0  0  0  0
    4.4335   -2.0790    3.0939 C   0  0  0  0  0  0  0  0  0  0  0  0
    5.1690   -1.1591    2.3368 C   0  0  0  0  0  0  0  0  0  0  0  0
    6.5517   -0.6747    2.7412 C   0  0  2  0  0  0  0  0  0  0  0  0
    7.6566   -1.5524    2.1343 C   0  0  0  0  0  0  0  0  0  0  0  0
    8.0170   -2.5291    3.2441 C   0  0  0  0  0  0  0  0  0  0  0  0
    7.8216   -1.7697    4.4671 N   0  0  0  0  0  0  0  0  0  0  0  0
    8.4106   -1.9911    5.7075 C   0  0  0  0  0  0  0  0  0  0  0  0
    8.1558   -1.2528    6.6627 O   0  0  0  0  0  0  0  0  0  0  0  0
    9.3923   -3.1558    5.7647 C   0  0  0  0  0  0  0  0  0  0  0  0
   10.0718   -3.5999    7.0495 C   0  0  0  0  0  0  0  0  0  0  0  0
    9.7979   -3.0587    8.3025 C   0  0  0  0  0  0  0  0  0  0  0  0
   10.2638   -3.5601    9.4708 N   0  0  0  0  0  0  0  0  0  0  0  0
   11.1230   -4.5947    9.3959 C   0  0  0  0  0  0  0  0  0  0  0  0
   11.6115   -5.1194    8.2041 C   0  0  0  0  0  0  0  0  0  0  0  0
   12.6533   -6.0670    8.1904 C   0  0  0  0  0  0  0  0  0  0  0  0
   13.1358   -6.5725    6.9861 C   0  0  0  0  0  0  0  0  0  0  0  0
   12.5330   -6.1929    5.7950 C   0  0  0  0  0  0  0  0  0  0  0  0
   11.4920   -5.2593    5.8041 C   0  0  0  0  0  0  0  0  0  0  0  0
   11.0392   -4.6520    7.0001 C   0  0  0  0  0  0  0  0  0  0  0  0
    6.8974   -0.6608    4.2470 C   0  0  0  0  0  0  0  0  0  0  0  0
    4.5946   -0.6913    1.1344 C   0  0  0  0  0  0  0  0  0  0  0  0
    1.4551   -0.5443   -1.9354 H   0  0  0  0  0  0  0  0  0  0  0  0
    0.8247   -0.6530   -0.2868 H   0  0  0  0  0  0  0  0  0  0  0  0
    1.5773   -2.0874   -1.0873 H   0  0  0  0  0  0  0  0  0  0  0  0
    1.6249   -2.3655    1.2103 H   0  0  0  0  0  0  0  0  0  0  0  0
    2.6071   -3.2050    3.2827 H   0  0  0  0  0  0  0  0  0  0  0  0
    4.8285   -2.4862    4.0200 H   0  0  0  0  0  0  0  0  0  0  0  0
    6.6449    0.3536    2.3645 H   0  0  0  0  0  0  0  0  0  0  0  0
    8.5306   -0.9231    1.9216 H   0  0  0  0  0  0  0  0  0  0  0  0
    7.3808   -2.0637    1.2071 H   0  0  0  0  0  0  0  0  0  0  0  0
    9.0397   -2.9022    3.1477 H   0  0  0  0  0  0  0  0  0  0  0  0
    7.3303   -3.3819    3.2681 H   0  0  0  0  0  0  0  0  0  0  0  0
   10.1869   -2.9070    5.0510 H   0  0  0  0  0  0  0  0  0  0  0  0
    8.8351   -4.0319    5.4046 H   0  0  0  0  0  0  0  0  0  0  0  0
    9.1809   -2.1768    8.4413 H   0  0  0  0  0  0  0  0  0  0  0  0
   11.4251   -5.0013   10.3579 H   0  0  0  0  0  0  0  0  0  0  0  0
   13.1257   -6.3810    9.1191 H   0  0  0  0  0  0  0  0  0  0  0  0
   13.9788   -7.2585    6.9777 H   0  0  0  0  0  0  0  0  0  0  0  0
   12.8815   -6.6058    4.8520 H   0  0  0  0  0  0  0  0  0  0  0  0
   11.0584   -4.9912    4.8446 H   0  0  0  0  0  0  0  0  0  0  0  0
    7.4226    0.2633    4.5149 H   0  0  0  0  0  0  0  0  0  0  0  0
    6.0337   -0.7583    4.9139 H   0  0  0  0  0  0  0  0  0  0  0  0
    5.1369    0.0177    0.5095 H   0  0  0  0  0  0  0  0  0  0  0  0
  1  2  1  0  0  0  0
  1 27  1  0  0  0  0
  1 28  1  0  0  0  0
  1 29  1  0  0  0  0
  2  3  1  0  0  0  0
  3  4  1  0  0  0  0
  3 26  2  0  0  0  0
  4  5  2  0  0  0  0
  4 30  1  0  0  0  0
  5  6  1  0  0  0  0
  5 31  1  0  0  0  0
  6  7  2  0  0  0  0
  6 32  1  0  0  0  0
  7  8  1  0  0  0  0
  7 26  1  0  0  0  0
  8  9  1  0  0  0  0
  8 25  1  0  0  0  0
  8 33  1  6  0  0  0
  9 10  1  0  0  0  0
  9 34  1  0  0  0  0
  9 35  1  0  0  0  0
 10 11  1  0  0  0  0
 10 36  1  0  0  0  0
 10 37  1  0  0  0  0
 11 12  1  0  0  0  0
 11 25  1  0  0  0  0
 12 13  2  0  0  0  0
 12 14  1  0  0  0  0
 14 15  1  0  0  0  0
 14 38  1  0  0  0  0
 14 39  1  0  0  0  0
 15 16  1  0  0  0  0
 15 24  2  0  0  0  0
 16 17  2  0  0  0  0
 16 40  1  0  0  0  0
 17 18  1  0  0  0  0
 18 19  2  0  0  0  0
 18 41  1  0  0  0  0
 19 20  1  0  0  0  0
 19 24  1  0  0  0  0
 20 21  2  0  0  0  0
 20 42  1  0  0  0  0
 21 22  1  0  0  0  0
 21 43  1  0  0  0  0
 22 23  2  0  0  0  0
 22 44  1  0  0  0  0
 23 24  1  0  0  0  0
 23 45  1  0  0  0  0
 25 46  1  0  0  0  0
 25 47  1  0  0  0  0
 26 48  1  0  0  0  0
M  END
$$$$
