
 OpenBabel07202414143D

 45 47  0  0  0  0  0  0  0  0999 V2000
    1.0694   -1.8926   -1.3036 C   0  0  0  0  0  0  0  0  0  0  0  0
    2.4703   -1.6556   -1.4657 O   0  0  0  0  0  0  0  0  0  0  0  0
    3.0429   -0.9451   -0.4512 C   0  0  0  0  0  0  0  0  0  0  0  0
    2.4222   -0.4938    0.4966 O   0  0  0  0  0  0  0  0  0  0  0  0
    4.5196   -0.8623   -0.6150 C   0  0  0  0  0  0  0  0  0  0  0  0
    5.1410   -0.8958   -1.8301 C   0  0  0  0  0  0  0  0  0  0  0  0
    6.6365   -0.9378   -1.8607 C   0  0  0  0  0  0  0  0  0  0  0  0
    7.3640   -1.1177   -3.0442 C   0  0  0  0  0  0  0  0  0  0  0  0
    8.7481   -1.2707   -3.0078 C   0  0  0  0  0  0  0  0  0  0  0  0
    9.4471   -1.2372   -1.8052 C   0  0  0  0  0  0  0  0  0  0  0  0
    8.7495   -1.0194   -0.6225 C   0  0  0  0  0  0  0  0  0  0  0  0
    7.3594   -0.8804   -0.6603 C   0  0  0  0  0  0  0  0  0  0  0  0
    6.6787   -0.7219    0.5386 N   0  0  0  0  0  0  0  0  0  0  0  0
    5.3208   -0.7059    0.6418 C   0  0  0  0  0  0  0  0  0  0  0  0
    4.8237   -0.5972    1.7576 O   0  0  0  0  0  0  0  0  0  0  0  0
    9.4144   -1.4835   -4.1460 F   0  0  0  0  0  0  0  0  0  0  0  0
    4.5321   -1.0016   -3.0957 N   0  0  0  0  0  0  0  0  0  0  0  0
    4.1113    0.2159   -3.8092 C   0  0  0  0  0  0  0  0  0  0  0  0
    4.0725   -0.0192   -5.3181 C   0  0  0  0  0  0  0  0  0  0  0  0
    3.6675    1.2734   -6.0374 C   0  0  0  0  0  0  0  0  0  0  0  0
    3.6434    1.0865   -7.5311 C   0  0  0  0  0  0  0  0  0  0  0  0
    2.4679    0.6799   -8.1748 C   0  0  0  0  0  0  0  0  0  0  0  0
    2.4717    0.4119   -9.5435 C   0  0  0  0  0  0  0  0  0  0  0  0
    3.6468    0.5549  -10.2790 C   0  0  0  0  0  0  0  0  0  0  0  0
    4.8146    0.9855   -9.6522 C   0  0  0  0  0  0  0  0  0  0  0  0
    4.8137    1.2524   -8.2833 C   0  0  0  0  0  0  0  0  0  0  0  0
    0.6289   -1.9855   -2.2991 H   0  0  0  0  0  0  0  0  0  0  0  0
    0.5543   -1.0791   -0.7826 H   0  0  0  0  0  0  0  0  0  0  0  0
    0.9303   -2.8343   -0.7652 H   0  0  0  0  0  0  0  0  0  0  0  0
    6.8689   -1.1743   -4.0102 H   0  0  0  0  0  0  0  0  0  0  0  0
   10.5194   -1.3883   -1.7977 H   0  0  0  0  0  0  0  0  0  0  0  0
    9.2884   -0.9926    0.3208 H   0  0  0  0  0  0  0  0  0  0  0  0
    7.1776   -0.6573    1.4164 H   0  0  0  0  0  0  0  0  0  0  0  0
    3.7107   -1.6124   -3.0190 H   0  0  0  0  0  0  0  0  0  0  0  0
    4.7984    1.0410   -3.5911 H   0  0  0  0  0  0  0  0  0  0  0  0
    3.1137    0.5078   -3.4598 H   0  0  0  0  0  0  0  0  0  0  0  0
    3.3684   -0.8259   -5.5625 H   0  0  0  0  0  0  0  0  0  0  0  0
    5.0559   -0.3548   -5.6728 H   0  0  0  0  0  0  0  0  0  0  0  0
    4.3636    2.0833   -5.7842 H   0  0  0  0  0  0  0  0  0  0  0  0
    2.6797    1.6047   -5.6927 H   0  0  0  0  0  0  0  0  0  0  0  0
    1.5469    0.5540   -7.6105 H   0  0  0  0  0  0  0  0  0  0  0  0
    1.5606    0.0779  -10.0326 H   0  0  0  0  0  0  0  0  0  0  0  0
    3.6539    0.3254  -11.3412 H   0  0  0  0  0  0  0  0  0  0  0  0
    5.7306    1.0995  -10.2257 H   0  0  0  0  0  0  0  0  0  0  0  0
    5.7354    1.5736   -7.8032 H   0  0  0  0  0  0  0  0  0  0  0  0
  1  2  1  0  0  0  0
  1 27  1  0  0  0  0
  1 28  1  0  0  0  0
  1 29  1  0  0  0  0
  2  3  1  0  0  0  0
  3  4  2  0  0  0  0
  3  5  1  0  0  0  0
  5  6  2  0  0  0  0
  5 14  1  0  0  0  0
  6  7  1  0  0  0  0
  6 17  1  0  0  0  0
  7  8  1  0  0  0  0
  7 12  2  0  0  0  0
  8  9  2  0  0  0  0
  8 30  1  0  0  0  0
  9 10  1  0  0  0  0
  9 16  1  0  0  0  0
 10 11  2  0  0  0  0
 10 31  1  0  0  0  0
 11 12  1  0  0  0  0
 11 32  1  0  0  0  0
 12 13  1  0  0  0  0
 13 14  1  0  0  0  0
 13 33  1  0  0  0  0
 14 15  2  0  0  0  0
 17 18  1  0  0  0  0
 17 34  1  0  0  0  0
 18 19  1  0  0  0  0
 18 35  1  0  0  0  0
 18 36  1  0  0  0  0
 19 20  1  0  0  0  0
 19 37  1  0  0  0  0
 19 38  1  0  0  0  0
 20 21  1  0  0  0  0
 20 39  1  0  0  0  0
 20 40  1  0  0  0  0
 21 22  1  0  0  0  0
 21 26  2  0  0  0  0
 22 23  2  0  0  0  0
 22 41  1  0  0  0  0
 23 24  1  0  0  0  0
 23 42  1  0  0  0  0
 24 25  2  0  0  0  0
 24 43  1  0  0  0  0
 25 26  1  0  0  0  0
 25 44  1  0  0  0  0
 26 45  1  0  0  0  0
M  END
$$$$
