
 OpenBabel07202414193D

 40 44  0  0  1  0  0  0  0  0999 V2000
    1.0132    0.1678    0.6747 O   0  0  0  0  0  0  0  0  0  0  0  0
    2.2280    0.1855    0.5696 C   0  0  0  0  0  0  0  0  0  0  0  0
    3.0401   -0.9391    0.4076 N   0  0  0  0  0  0  0  0  0  0  0  0
    4.3784   -0.5854    0.3238 C   0  0  0  0  0  0  0  0  0  0  0  0
    5.4562   -1.4153    0.1028 C   0  0  0  0  0  0  0  0  0  0  0  0
    6.7145   -0.8143   -0.0008 C   0  0  0  0  0  0  0  0  0  0  0  0
    6.8626    0.5767    0.1408 C   0  0  0  0  0  0  0  0  0  0  0  0
    8.4226    1.2845   -0.0348 Cl  0  0  0  0  0  0  0  0  0  0  0  0
    5.7585    1.3998    0.3704 C   0  0  0  0  0  0  0  0  0  0  0  0
    4.5091    0.7992    0.4367 C   0  0  0  0  0  0  0  0  0  0  0  0
    3.1327    1.4150    0.4384 C   0  0  1  0  0  0  0  0  0  0  0  0
    2.9042    2.0420   -0.9255 C   0  0  0  0  0  0  0  0  0  0  0  0
    2.2815    3.3829   -0.6344 C   0  0  0  0  0  0  0  0  0  0  0  0
    2.3755    3.6402    0.7699 N   0  0  0  0  0  0  0  0  0  0  0  0
    2.0776    4.9420    1.3325 C   0  0  0  0  0  0  0  0  0  0  0  0
    2.4115    5.2102    2.6685 C   0  0  0  0  0  0  0  0  0  0  0  0
    2.3523    6.4229    3.2691 N   0  0  0  0  0  0  0  0  0  0  0  0
    1.8715    7.4349    2.5304 C   0  0  0  0  0  0  0  0  0  0  0  0
    1.3774    7.3048    1.2370 C   0  0  0  0  0  0  0  0  0  0  0  0
    0.7723    8.4216    0.6218 C   0  0  0  0  0  0  0  0  0  0  0  0
    0.2241    8.3362   -0.6516 C   0  0  0  0  0  0  0  0  0  0  0  0
    0.3189    7.1474   -1.3382 C   0  0  0  0  0  0  0  0  0  0  0  0
    0.9345    6.0426   -0.7351 C   0  0  0  0  0  0  0  0  0  0  0  0
    1.4792    6.0443    0.5895 C   0  0  0  0  0  0  0  0  0  0  0  0
    2.8692    2.5042    1.4485 C   0  0  0  0  0  0  0  0  0  0  0  0
    3.0692    2.3738    2.6521 O   0  0  0  0  0  0  0  0  0  0  0  0
    2.6727   -1.8789    0.3750 H   0  0  0  0  0  0  0  0  0  0  0  0
    5.3382   -2.4860   -0.0222 H   0  0  0  0  0  0  0  0  0  0  0  0
    7.5873   -1.4337   -0.2068 H   0  0  0  0  0  0  0  0  0  0  0  0
    5.8719    2.4792    0.4417 H   0  0  0  0  0  0  0  0  0  0  0  0
    2.2339    1.4581   -1.5681 H   0  0  0  0  0  0  0  0  0  0  0  0
    3.8211    2.1892   -1.5056 H   0  0  0  0  0  0  0  0  0  0  0  0
    1.2273    3.3287   -0.9151 H   0  0  0  0  0  0  0  0  0  0  0  0
    2.8318    4.1554   -1.1846 H   0  0  0  0  0  0  0  0  0  0  0  0
    2.7744    4.4456    3.3460 H   0  0  0  0  0  0  0  0  0  0  0  0
    1.8787    8.3991    3.0354 H   0  0  0  0  0  0  0  0  0  0  0  0
    0.6897    9.3674    1.1541 H   0  0  0  0  0  0  0  0  0  0  0  0
   -0.2825    9.1876   -1.0975 H   0  0  0  0  0  0  0  0  0  0  0  0
   -0.0945    7.0519   -2.3396 H   0  0  0  0  0  0  0  0  0  0  0  0
    0.9279    5.1664   -1.3628 H   0  0  0  0  0  0  0  0  0  0  0  0
  1  2  2  0  0  0  0
  2  3  1  0  0  0  0
  2 11  1  0  0  0  0
  3  4  1  0  0  0  0
  3 27  1  0  0  0  0
  4  5  1  0  0  0  0
  4 10  2  0  0  0  0
  5  6  2  0  0  0  0
  5 28  1  0  0  0  0
  6  7  1  0  0  0  0
  6 29  1  0  0  0  0
  7  8  1  0  0  0  0
  7  9  2  0  0  0  0
  9 10  1  0  0  0  0
  9 30  1  0  0  0  0
 11 10  1  1  0  0  0
 11 12  1  0  0  0  0
 11 25  1  0  0  0  0
 12 13  1  0  0  0  0
 12 31  1  0  0  0  0
 12 32  1  0  0  0  0
 13 14  1  0  0  0  0
 13 33  1  0  0  0  0
 13 34  1  0  0  0  0
 14 15  1  0  0  0  0
 14 25  1  0  0  0  0
 15 16  1  0  0  0  0
 15 24  2  0  0  0  0
 16 17  2  0  0  0  0
 16 35  1  0  0  0  0
 17 18  1  0  0  0  0
 18 19  2  0  0  0  0
 18 36  1  0  0  0  0
 19 20  1  0  0  0  0
 19 24  1  0  0  0  0
 20 21  2  0  0  0  0
 20 37  1  0  0  0  0
 21 22  1  0  0  0  0
 21 38  1  0  0  0  0
 22 23  2  0  0  0  0
 22 39  1  0  0  0  0
 23 24  1  0  0  0  0
 23 40  1  0  0  0  0
 25 26  2  0  0  0  0
M  END
$$$$
