
 OpenBabel07202414183D

 53 57  0  0  1  0  0  0  0  0999 V2000
    0.1964    3.5172   -3.9233 C   0  0  0  0  0  0  0  0  0  0  0  0
    1.1446    3.4051   -2.8438 N   0  0  0  0  0  0  0  0  0  0  0  0
    2.0713    4.3244   -2.4655 C   0  0  0  0  0  0  0  0  0  0  0  0
    2.7151    3.7917   -1.3766 C   0  0  0  0  0  0  0  0  0  0  0  0
    2.1086    2.5287   -1.1719 C   0  0  0  0  0  0  0  0  0  0  0  0
    2.3970    1.5163   -0.0988 C   0  0  0  0  0  0  0  0  0  0  0  0
    3.8066    1.0416   -0.1080 N   0  0  0  0  0  0  0  0  0  0  0  0
    4.1184    0.3477   -1.3824 C   0  0  0  0  0  0  0  0  0  0  0  0
    5.5925   -0.1018   -1.4337 C   0  0  3  0  0  0  0  0  0  0  0  0
    6.5509    1.1004   -1.5564 C   0  0  0  0  0  0  0  0  0  0  0  0
    7.3709    1.1646   -2.4696 O   0  0  0  0  0  0  0  0  0  0  0  0
    6.3941    2.0341   -0.5488 N   0  0  0  0  0  0  0  0  0  0  0  0
    6.9393    3.3329   -0.4413 C   0  0  0  0  0  0  0  0  0  0  0  0
    7.7313    3.9005   -1.4347 C   0  0  0  0  0  0  0  0  0  0  0  0
    8.0748    5.2095   -1.4744 N   0  0  0  0  0  0  0  0  0  0  0  0
    7.6808    5.9720   -0.4345 C   0  0  0  0  0  0  0  0  0  0  0  0
    7.0317    5.4862    0.6987 C   0  0  0  0  0  0  0  0  0  0  0  0
    6.8182    6.3062    1.8247 C   0  0  0  0  0  0  0  0  0  0  0  0
    6.2183    5.7931    2.9718 C   0  0  0  0  0  0  0  0  0  0  0  0
    5.7782    4.4809    2.9702 C   0  0  0  0  0  0  0  0  0  0  0  0
    5.1925    3.9792    4.0657 F   0  0  0  0  0  0  0  0  0  0  0  0
    5.9585    3.6630    1.8576 C   0  0  0  0  0  0  0  0  0  0  0  0
    6.6231    4.1319    0.6959 C   0  0  0  0  0  0  0  0  0  0  0  0
    5.9141   -0.9652   -0.2317 C   0  0  0  0  0  0  0  0  0  0  0  0
    6.9267   -1.9347   -0.3040 C   0  0  0  0  0  0  0  0  0  0  0  0
    7.2246   -2.7149    0.8114 C   0  0  0  0  0  0  0  0  0  0  0  0
    8.4266   -3.9411    0.7041 Cl  0  0  0  0  0  0  0  0  0  0  0  0
    6.5443   -2.5196    2.0101 C   0  0  0  0  0  0  0  0  0  0  0  0
    5.5322   -1.5613    2.0865 C   0  0  0  0  0  0  0  0  0  0  0  0
    5.1932   -0.7891    0.9649 C   0  0  0  0  0  0  0  0  0  0  0  0
    3.9942    0.1367    1.0493 C   0  0  0  0  0  0  0  0  0  0  0  0
    1.1448    2.2971   -2.0739 N   0  0  0  0  0  0  0  0  0  0  0  0
    0.3865    4.4381   -4.4798 H   0  0  0  0  0  0  0  0  0  0  0  0
   -0.8115    3.5391   -3.4980 H   0  0  0  0  0  0  0  0  0  0  0  0
    0.3167    2.6540   -4.5815 H   0  0  0  0  0  0  0  0  0  0  0  0
    2.1910    5.2687   -2.9822 H   0  0  0  0  0  0  0  0  0  0  0  0
    3.5176    4.2448   -0.8059 H   0  0  0  0  0  0  0  0  0  0  0  0
    1.7065    0.6683   -0.2010 H   0  0  0  0  0  0  0  0  0  0  0  0
    2.1857    1.9931    0.8669 H   0  0  0  0  0  0  0  0  0  0  0  0
    3.9466    1.0123   -2.2375 H   0  0  0  0  0  0  0  0  0  0  0  0
    3.4601   -0.5234   -1.5085 H   0  0  0  0  0  0  0  0  0  0  0  0
    5.7141   -0.7032   -2.3444 H   0  0  0  0  0  0  0  0  0  0  0  0
    5.6255    1.8264    0.0811 H   0  0  0  0  0  0  0  0  0  0  0  0
    8.1137    3.3259   -2.2714 H   0  0  0  0  0  0  0  0  0  0  0  0
    7.9289    7.0257   -0.5346 H   0  0  0  0  0  0  0  0  0  0  0  0
    7.1653    7.3379    1.8294 H   0  0  0  0  0  0  0  0  0  0  0  0
    6.1081    6.4002    3.8648 H   0  0  0  0  0  0  0  0  0  0  0  0
    5.6171    2.6385    1.9466 H   0  0  0  0  0  0  0  0  0  0  0  0
    7.4706   -2.0918   -1.2337 H   0  0  0  0  0  0  0  0  0  0  0  0
    6.7834   -3.1218    2.8826 H   0  0  0  0  0  0  0  0  0  0  0  0
    4.9926   -1.4361    3.0232 H   0  0  0  0  0  0  0  0  0  0  0  0
    4.1172    0.7673    1.9388 H   0  0  0  0  0  0  0  0  0  0  0  0
    3.1101   -0.4945    1.2021 H   0  0  0  0  0  0  0  0  0  0  0  0
  1  2  1  0  0  0  0
  1 33  1  0  0  0  0
  1 34  1  0  0  0  0
  1 35  1  0  0  0  0
  2  3  1  0  0  0  0
  2 32  1  0  0  0  0
  3  4  2  0  0  0  0
  3 36  1  0  0  0  0
  4  5  1  0  0  0  0
  4 37  1  0  0  0  0
  5  6  1  0  0  0  0
  5 32  2  0  0  0  0
  6  7  1  0  0  0  0
  6 38  1  0  0  0  0
  6 39  1  0  0  0  0
  7  8  1  0  0  0  0
  7 31  1  0  0  0  0
  8  9  1  0  0  0  0
  8 40  1  0  0  0  0
  8 41  1  0  0  0  0
  9 10  1  0  0  0  0
  9 24  1  0  0  0  0
  9 42  1  0  0  0  0
 10 11  2  0  0  0  0
 10 12  1  0  0  0  0
 12 13  1  0  0  0  0
 12 43  1  0  0  0  0
 13 14  1  0  0  0  0
 13 23  2  0  0  0  0
 14 15  2  0  0  0  0
 14 44  1  0  0  0  0
 15 16  1  0  0  0  0
 16 17  2  0  0  0  0
 16 45  1  0  0  0  0
 17 18  1  0  0  0  0
 17 23  1  0  0  0  0
 18 19  2  0  0  0  0
 18 46  1  0  0  0  0
 19 20  1  0  0  0  0
 19 47  1  0  0  0  0
 20 21  1  0  0  0  0
 20 22  2  0  0  0  0
 22 23  1  0  0  0  0
 22 48  1  0  0  0  0
 24 25  1  0  0  0  0
 24 30  2  0  0  0  0
 25 26  2  0  0  0  0
 25 49  1  0  0  0  0
 26 27  1  0  0  0  0
 26 28  1  0  0  0  0
 28 29  2  0  0  0  0
 28 50  1  0  0  0  0
 29 30  1  0  0  0  0
 29 51  1  0  0  0  0
 30 31  1  0  0  0  0
 31 52  1  0  0  0  0
 31 53  1  0  0  0  0
M  END
$$$$
