
 OpenBabel07202414173D

 48 50  0  0  1  0  0  0  0  0999 V2000
    0.8531   -0.6309    0.1391 Cl  0  0  0  0  0  0  0  0  0  0  0  0
    2.6139   -0.8398    0.0905 C   0  0  0  0  0  0  0  0  0  0  0  0
    3.1820   -0.6209   -1.3054 C   0  0  0  0  0  0  0  0  0  0  0  0
    2.4748   -0.3456   -2.2740 O   0  0  0  0  0  0  0  0  0  0  0  0
    4.5681   -0.7238   -1.4333 N   0  0  0  0  0  0  0  0  0  0  0  0
    5.4996   -1.0768   -0.3491 C   0  0  0  0  0  0  0  0  0  0  0  0
    6.7704   -0.2048   -0.3610 C   0  0  0  0  0  0  0  0  0  0  0  0
    7.3995   -0.1251   -1.7115 N   0  0  0  0  0  0  0  0  0  0  0  0
    8.3420   -1.4678   -2.1926 S   0  0  0  0  0  0  0  0  0  0  0  0
    7.6006   -2.6746   -1.9239 O   0  0  0  0  0  0  0  0  0  0  0  0
    8.9432   -1.1864   -3.4747 O   0  0  0  0  0  0  0  0  0  0  0  0
    9.7290   -1.5644   -1.1384 C   0  0  0  0  0  0  0  0  0  0  0  0
    9.9980   -2.6544   -0.2565 C   0  0  0  0  0  0  0  0  0  0  0  0
   11.1933   -2.4937    0.4100 C   0  0  0  0  0  0  0  0  0  0  0  0
   11.9742   -1.0296   -0.0125 S   0  0  0  0  0  0  0  0  0  0  0  0
   10.7258   -0.6117   -1.1071 C   0  0  0  0  0  0  0  0  0  0  0  0
    6.3718    0.3507   -2.7231 C   0  0  1  0  0  0  0  0  0  0  0  0
    6.9375    0.7197   -4.0933 C   0  0  0  0  0  0  0  0  0  0  0  0
    6.5742    0.1796   -5.1371 O   0  0  0  0  0  0  0  0  0  0  0  0
    7.8498    1.7504   -4.1267 N   0  0  0  0  0  0  0  0  0  0  0  0
    8.3372    2.4599   -2.9681 C   0  0  0  0  0  0  0  0  0  0  0  0
    9.3303    3.5347   -3.2821 C   0  0  0  0  0  0  0  0  0  0  0  0
    9.0464    4.8686   -2.9602 C   0  0  0  0  0  0  0  0  0  0  0  0
   10.0069    5.8580   -3.1546 C   0  0  0  0  0  0  0  0  0  0  0  0
   11.2557    5.5225   -3.6744 C   0  0  0  0  0  0  0  0  0  0  0  0
   11.5440    4.1989   -4.0055 C   0  0  0  0  0  0  0  0  0  0  0  0
   10.5855    3.2069   -3.8115 C   0  0  0  0  0  0  0  0  0  0  0  0
    5.1760   -0.6079   -2.7806 C   0  0  0  0  0  0  0  0  0  0  0  0
    2.8388   -1.8561    0.4241 H   0  0  0  0  0  0  0  0  0  0  0  0
    3.0393   -0.1061    0.7801 H   0  0  0  0  0  0  0  0  0  0  0  0
    5.7405   -2.1359   -0.4693 H   0  0  0  0  0  0  0  0  0  0  0  0
    5.0254   -0.9737    0.6289 H   0  0  0  0  0  0  0  0  0  0  0  0
    7.4930   -0.5484    0.3850 H   0  0  0  0  0  0  0  0  0  0  0  0
    6.5035    0.8214   -0.0728 H   0  0  0  0  0  0  0  0  0  0  0  0
    9.3641   -3.5265   -0.1385 H   0  0  0  0  0  0  0  0  0  0  0  0
   11.6555   -3.1695    1.1176 H   0  0  0  0  0  0  0  0  0  0  0  0
   10.8005    0.2950   -1.6918 H   0  0  0  0  0  0  0  0  0  0  0  0
    5.9688    1.2981   -2.3335 H   0  0  0  0  0  0  0  0  0  0  0  0
    8.2140    1.9755   -5.0455 H   0  0  0  0  0  0  0  0  0  0  0  0
    8.8214    1.7531   -2.2904 H   0  0  0  0  0  0  0  0  0  0  0  0
    7.4740    2.8796   -2.4403 H   0  0  0  0  0  0  0  0  0  0  0  0
    8.0818    5.1423   -2.5374 H   0  0  0  0  0  0  0  0  0  0  0  0
    9.7842    6.8887   -2.8910 H   0  0  0  0  0  0  0  0  0  0  0  0
   12.0070    6.2938   -3.8180 H   0  0  0  0  0  0  0  0  0  0  0  0
   12.5205    3.9383   -4.4056 H   0  0  0  0  0  0  0  0  0  0  0  0
   10.8259    2.1729   -4.0547 H   0  0  0  0  0  0  0  0  0  0  0  0
    5.4687   -1.6141   -3.0989 H   0  0  0  0  0  0  0  0  0  0  0  0
    4.4407   -0.2454   -3.5065 H   0  0  0  0  0  0  0  0  0  0  0  0
  1  2  1  0  0  0  0
  2  3  1  0  0  0  0
  2 29  1  0  0  0  0
  2 30  1  0  0  0  0
  3  4  2  0  0  0  0
  3  5  1  0  0  0  0
  5  6  1  0  0  0  0
  5 28  1  0  0  0  0
  6  7  1  0  0  0  0
  6 31  1  0  0  0  0
  6 32  1  0  0  0  0
  7  8  1  0  0  0  0
  7 33  1  0  0  0  0
  7 34  1  0  0  0  0
  8  9  1  0  0  0  0
  8 17  1  0  0  0  0
  9 10  2  0  0  0  0
  9 11  2  0  0  0  0
  9 12  1  0  0  0  0
 12 13  1  0  0  0  0
 12 16  2  0  0  0  0
 13 14  2  0  0  0  0
 13 35  1  0  0  0  0
 14 15  1  0  0  0  0
 14 36  1  0  0  0  0
 15 16  1  0  0  0  0
 16 37  1  0  0  0  0
 17 18  1  0  0  0  0
 17 28  1  0  0  0  0
 17 38  1  1  0  0  0
 18 19  2  0  0  0  0
 18 20  1  0  0  0  0
 20 21  1  0  0  0  0
 20 39  1  0  0  0  0
 21 22  1  0  0  0  0
 21 40  1  0  0  0  0
 21 41  1  0  0  0  0
 22 23  1  0  0  0  0
 22 27  2  0  0  0  0
 23 24  2  0  0  0  0
 23 42  1  0  0  0  0
 24 25  1  0  0  0  0
 24 43  1  0  0  0  0
 25 26  2  0  0  0  0
 25 44  1  0  0  0  0
 26 27  1  0  0  0  0
 26 45  1  0  0  0  0
 27 46  1  0  0  0  0
 28 47  1  0  0  0  0
 28 48  1  0  0  0  0
M  END
$$$$
