
 OpenBabel07202414143D

 37 38  0  0  1  0  0  0  0  0999 V2000
    1.1910   -0.1000   -1.9956 C   0  0  0  0  0  0  0  0  0  0  0  0
    2.6050   -0.2359   -1.8460 O   0  0  0  0  0  0  0  0  0  0  0  0
    2.9650   -1.0295   -0.7960 C   0  0  0  0  0  0  0  0  0  0  0  0
    2.1723   -1.5963   -0.0529 O   0  0  0  0  0  0  0  0  0  0  0  0
    4.4683   -1.1964   -0.7384 C   0  0  3  0  0  0  0  0  0  0  0  0
    4.8910   -1.3629    0.7181 C   0  0  0  0  0  0  0  0  0  0  0  0
    4.8312   -0.4017    1.4873 O   0  0  0  0  0  0  0  0  0  0  0  0
    5.3395   -2.6152    1.0964 N   0  0  0  0  0  0  0  0  0  0  0  0
    5.6584   -2.9596    2.4261 C   0  0  0  0  0  0  0  0  0  0  0  0
    4.9033   -2.5115    3.5116 C   0  0  0  0  0  0  0  0  0  0  0  0
    5.1462   -2.8528    4.8003 N   0  0  0  0  0  0  0  0  0  0  0  0
    6.2013   -3.6618    5.0180 C   0  0  0  0  0  0  0  0  0  0  0  0
    7.0185   -4.1535    4.0104 C   0  0  0  0  0  0  0  0  0  0  0  0
    6.7491   -3.8021    2.6826 C   0  0  0  0  0  0  0  0  0  0  0  0
    7.6676   -4.2685    1.5889 C   0  0  0  0  0  0  0  0  0  0  0  0
    4.9921   -2.2718   -1.6895 C   0  0  0  0  0  0  0  0  0  0  0  0
    6.2725   -2.1335   -2.2548 C   0  0  0  0  0  0  0  0  0  0  0  0
    6.7943   -3.1231   -3.0925 C   0  0  0  0  0  0  0  0  0  0  0  0
    6.0438   -4.2618   -3.3748 C   0  0  0  0  0  0  0  0  0  0  0  0
    4.7716   -4.4099   -2.8250 C   0  0  0  0  0  0  0  0  0  0  0  0
    3.8471   -5.8193   -3.1667 Cl  0  0  0  0  0  0  0  0  0  0  0  0
    4.2487   -3.4288   -1.9843 C   0  0  0  0  0  0  0  0  0  0  0  0
    0.9993    0.5090   -2.8827 H   0  0  0  0  0  0  0  0  0  0  0  0
    0.7627    0.4059   -1.1245 H   0  0  0  0  0  0  0  0  0  0  0  0
    0.7256   -1.0803   -2.1412 H   0  0  0  0  0  0  0  0  0  0  0  0
    4.9057   -0.2359   -1.0519 H   0  0  0  0  0  0  0  0  0  0  0  0
    5.6937   -3.2299    0.3751 H   0  0  0  0  0  0  0  0  0  0  0  0
    4.0296   -1.8792    3.3740 H   0  0  0  0  0  0  0  0  0  0  0  0
    6.3872   -3.9082    6.0594 H   0  0  0  0  0  0  0  0  0  0  0  0
    7.8643   -4.7824    4.2673 H   0  0  0  0  0  0  0  0  0  0  0  0
    8.5743   -4.7270    1.9961 H   0  0  0  0  0  0  0  0  0  0  0  0
    7.9894   -3.4171    0.9777 H   0  0  0  0  0  0  0  0  0  0  0  0
    7.1643   -5.0031    0.9530 H   0  0  0  0  0  0  0  0  0  0  0  0
    6.8794   -1.2510   -2.0484 H   0  0  0  0  0  0  0  0  0  0  0  0
    7.7833   -3.0036   -3.5305 H   0  0  0  0  0  0  0  0  0  0  0  0
    6.4452   -5.0276   -4.0345 H   0  0  0  0  0  0  0  0  0  0  0  0
    3.2616   -3.5823   -1.5509 H   0  0  0  0  0  0  0  0  0  0  0  0
  1  2  1  0  0  0  0
  1 23  1  0  0  0  0
  1 24  1  0  0  0  0
  1 25  1  0  0  0  0
  2  3  1  0  0  0  0
  3  4  2  0  0  0  0
  3  5  1  0  0  0  0
  5  6  1  0  0  0  0
  5 16  1  0  0  0  0
  5 26  1  0  0  0  0
  6  7  2  0  0  0  0
  6  8  1  0  0  0  0
  8  9  1  0  0  0  0
  8 27  1  0  0  0  0
  9 10  1  0  0  0  0
  9 14  2  0  0  0  0
 10 11  2  0  0  0  0
 10 28  1  0  0  0  0
 11 12  1  0  0  0  0
 12 13  2  0  0  0  0
 12 29  1  0  0  0  0
 13 14  1  0  0  0  0
 13 30  1  0  0  0  0
 14 15  1  0  0  0  0
 15 31  1  0  0  0  0
 15 32  1  0  0  0  0
 15 33  1  0  0  0  0
 16 17  1  0  0  0  0
 16 22  2  0  0  0  0
 17 18  2  0  0  0  0
 17 34  1  0  0  0  0
 18 19  1  0  0  0  0
 18 35  1  0  0  0  0
 19 20  2  0  0  0  0
 19 36  1  0  0  0  0
 20 21  1  0  0  0  0
 20 22  1  0  0  0  0
 22 37  1  0  0  0  0
M  END
$$$$
