
 OpenBabel07202414163D

 36 38  0  0  1  0  0  0  0  0999 V2000
   -8.2218    3.8696    0.9397 C   0  0  0  0  0  0  0  0  0  0  0  0
   -7.8530    2.5007    0.4271 C   0  0  0  0  0  0  0  0  0  0  0  0
   -8.8795    1.5463    0.3442 C   0  0  0  0  0  0  0  0  0  0  0  0
   -8.5903    0.2732   -0.1193 C   0  0  0  0  0  0  0  0  0  0  0  0
   -7.3726   -0.1067   -0.5359 N   0  0  0  0  0  0  0  0  0  0  0  0
   -6.3932    0.8220   -0.4578 C   0  0  0  0  0  0  0  0  0  0  0  0
   -6.5568    2.1303    0.0225 C   0  0  0  0  0  0  0  0  0  0  0  0
   -5.4750    3.0427    0.0813 N   0  0  0  0  0  0  0  0  0  0  0  0
   -4.1288    2.6954    0.0132 C   0  0  0  0  0  0  0  0  0  0  0  0
   -3.6839    1.5510   -0.0426 O   0  0  0  0  0  0  0  0  0  0  0  0
   -3.1568    3.8746    0.0293 C   0  0  1  0  0  0  0  0  0  0  0  0
   -3.3384    4.6912   -1.2509 C   0  0  0  0  0  0  0  0  0  0  0  0
   -2.6449    6.0284   -1.0950 C   0  0  0  0  0  0  0  0  0  0  0  0
   -3.2290    6.7932   -0.0362 O   0  0  0  0  0  0  0  0  0  0  0  0
   -3.3672    6.1249    1.1494 C   0  0  0  0  0  0  0  0  0  0  0  0
   -3.3137    4.7328    1.2644 C   0  0  0  0  0  0  0  0  0  0  0  0
   -3.4269    4.1454    2.5373 C   0  0  0  0  0  0  0  0  0  0  0  0
   -3.6850    4.9383    3.6546 C   0  0  0  0  0  0  0  0  0  0  0  0
   -3.8008    6.3206    3.5219 C   0  0  0  0  0  0  0  0  0  0  0  0
   -3.6288    6.9114    2.2700 C   0  0  0  0  0  0  0  0  0  0  0  0
   -3.9006    4.2046    5.1938 Cl  0  0  0  0  0  0  0  0  0  0  0  0
   -9.1817    3.8390    1.4697 H   0  0  0  0  0  0  0  0  0  0  0  0
   -8.3236    4.5763    0.1108 H   0  0  0  0  0  0  0  0  0  0  0  0
   -7.4851    4.2415    1.6573 H   0  0  0  0  0  0  0  0  0  0  0  0
   -9.8929    1.7779    0.6554 H   0  0  0  0  0  0  0  0  0  0  0  0
   -9.3563   -0.4942   -0.1683 H   0  0  0  0  0  0  0  0  0  0  0  0
   -5.4441    0.4634   -0.8391 H   0  0  0  0  0  0  0  0  0  0  0  0
   -5.6950    4.0034    0.3146 H   0  0  0  0  0  0  0  0  0  0  0  0
   -2.1340    3.4693    0.0437 H   0  0  0  0  0  0  0  0  0  0  0  0
   -4.4018    4.8717   -1.4501 H   0  0  0  0  0  0  0  0  0  0  0  0
   -2.9421    4.1394   -2.1114 H   0  0  0  0  0  0  0  0  0  0  0  0
   -2.7694    6.6084   -2.0159 H   0  0  0  0  0  0  0  0  0  0  0  0
   -1.5670    5.9177   -0.9233 H   0  0  0  0  0  0  0  0  0  0  0  0
   -3.3456    3.0658    2.6577 H   0  0  0  0  0  0  0  0  0  0  0  0
   -4.0219    6.9397    4.3872 H   0  0  0  0  0  0  0  0  0  0  0  0
   -3.7046    7.9933    2.1660 H   0  0  0  0  0  0  0  0  0  0  0  0
  1  2  1  0  0  0  0
  1 22  1  0  0  0  0
  1 23  1  0  0  0  0
  1 24  1  0  0  0  0
  2  3  1  0  0  0  0
  2  7  2  0  0  0  0
  3  4  2  0  0  0  0
  3 25  1  0  0  0  0
  4  5  1  0  0  0  0
  4 26  1  0  0  0  0
  5  6  2  0  0  0  0
  6  7  1  0  0  0  0
  6 27  1  0  0  0  0
  7  8  1  0  0  0  0
  8  9  1  0  0  0  0
  8 28  1  0  0  0  0
  9 10  2  0  0  0  0
 11 12  1  0  0  0  0
 11 16  1  0  0  0  0
 11  9  1  0  0  0  0
 11 29  1  6  0  0  0
 12 13  1  0  0  0  0
 12 30  1  0  0  0  0
 12 31  1  0  0  0  0
 13 14  1  0  0  0  0
 13 32  1  0  0  0  0
 13 33  1  0  0  0  0
 14 15  1  0  0  0  0
 15 16  1  0  0  0  0
 15 20  2  0  0  0  0
 16 17  2  0  0  0  0
 17 18  1  0  0  0  0
 17 34  1  0  0  0  0
 18 19  2  0  0  0  0
 18 21  1  0  0  0  0
 19 20  1  0  0  0  0
 19 35  1  0  0  0  0
 20 36  1  0  0  0  0
M  END
$$$$
