
 OpenBabel07202414173D

 50 54  0  0  1  0  0  0  0  0999 V2000
    1.0119    0.1500   -0.0169 Cl  0  0  0  0  0  0  0  0  0  0  0  0
    2.7282    0.0845    0.0398 C   0  0  0  0  0  0  0  0  0  0  0  0
    3.4723    1.2453   -0.1011 C   0  0  0  0  0  0  0  0  0  0  0  0
    4.8698    1.1902   -0.0415 C   0  0  0  0  0  0  0  0  0  0  0  0
    5.5610   -0.0141    0.1742 C   0  0  0  0  0  0  0  0  0  0  0  0
    4.7784   -1.1830    0.3216 C   0  0  0  0  0  0  0  0  0  0  0  0
    3.3710   -1.1292    0.2489 C   0  0  0  0  0  0  0  0  0  0  0  0
    5.4335   -2.5168    0.6489 C   0  0  3  0  0  0  0  0  0  0  0  0
    5.3138   -2.9172    2.1334 C   0  0  0  0  0  0  0  0  0  0  0  0
    5.3913   -4.0992    2.4598 O   0  0  0  0  0  0  0  0  0  0  0  0
    5.1862   -1.8580    3.0146 N   0  0  0  0  0  0  0  0  0  0  0  0
    4.8269   -1.8959    4.3844 C   0  0  0  0  0  0  0  0  0  0  0  0
    4.5431   -3.0813    5.0621 C   0  0  0  0  0  0  0  0  0  0  0  0
    4.0125   -3.1404    6.3058 N   0  0  0  0  0  0  0  0  0  0  0  0
    3.8055   -1.9636    6.9305 C   0  0  0  0  0  0  0  0  0  0  0  0
    4.1710   -0.7208    6.4161 C   0  0  0  0  0  0  0  0  0  0  0  0
    4.0480    0.4485    7.1888 C   0  0  0  0  0  0  0  0  0  0  0  0
    4.4398    1.6838    6.6791 C   0  0  0  0  0  0  0  0  0  0  0  0
    4.9180    1.7695    5.3793 C   0  0  0  0  0  0  0  0  0  0  0  0
    5.0293    0.6154    4.5979 C   0  0  0  0  0  0  0  0  0  0  0  0
    4.6830   -0.6691    5.0992 C   0  0  0  0  0  0  0  0  0  0  0  0
    6.8929   -2.5258    0.2048 C   0  0  0  0  0  0  0  0  0  0  0  0
    7.6094   -1.2920    0.7219 C   0  0  0  0  0  0  0  0  0  0  0  0
    6.9458   -0.0680    0.2694 N   0  0  0  0  0  0  0  0  0  0  0  0
    7.7998    1.0325   -0.2026 C   0  0  0  0  0  0  0  0  0  0  0  0
    8.0547    2.1005    0.8014 C   0  0  0  0  0  0  0  0  0  0  0  0
    8.2743    3.4547    0.6720 C   0  0  0  0  0  0  0  0  0  0  0  0
    8.4653    4.0415    1.8953 N   0  0  0  0  0  0  0  0  0  0  0  0
    8.3741    3.0574    2.7682 C   0  0  0  0  0  0  0  0  0  0  0  0
    8.1253    1.8675    2.1511 N   0  0  0  0  0  0  0  0  0  0  0  0
    2.9797    2.2034   -0.2494 H   0  0  0  0  0  0  0  0  0  0  0  0
    5.4022    2.1324   -0.1422 H   0  0  0  0  0  0  0  0  0  0  0  0
    2.7804   -2.0357    0.3745 H   0  0  0  0  0  0  0  0  0  0  0  0
    4.9055   -3.2947    0.0798 H   0  0  0  0  0  0  0  0  0  0  0  0
    5.1887   -0.9376    2.5984 H   0  0  0  0  0  0  0  0  0  0  0  0
    4.7123   -4.0593    4.6245 H   0  0  0  0  0  0  0  0  0  0  0  0
    3.3250   -2.0526    7.9020 H   0  0  0  0  0  0  0  0  0  0  0  0
    3.6715    0.3979    8.2089 H   0  0  0  0  0  0  0  0  0  0  0  0
    4.3735    2.5757    7.2972 H   0  0  0  0  0  0  0  0  0  0  0  0
    5.2126    2.7336    4.9705 H   0  0  0  0  0  0  0  0  0  0  0  0
    5.4179    0.7466    3.5926 H   0  0  0  0  0  0  0  0  0  0  0  0
    6.9412   -2.5368   -0.8926 H   0  0  0  0  0  0  0  0  0  0  0  0
    7.4049   -3.4284    0.5587 H   0  0  0  0  0  0  0  0  0  0  0  0
    8.6508   -1.3242    0.3822 H   0  0  0  0  0  0  0  0  0  0  0  0
    7.6459   -1.2928    1.8172 H   0  0  0  0  0  0  0  0  0  0  0  0
    7.3813    1.4704   -1.1191 H   0  0  0  0  0  0  0  0  0  0  0  0
    8.7745    0.6369   -0.5170 H   0  0  0  0  0  0  0  0  0  0  0  0
    8.3029    4.0420   -0.2371 H   0  0  0  0  0  0  0  0  0  0  0  0
    8.4733    3.1507    3.8394 H   0  0  0  0  0  0  0  0  0  0  0  0
    7.9961    0.9765    2.6044 H   0  0  0  0  0  0  0  0  0  0  0  0
  1  2  1  0  0  0  0
  2  3  1  0  0  0  0
  2  7  2  0  0  0  0
  3  4  2  0  0  0  0
  3 31  1  0  0  0  0
  4  5  1  0  0  0  0
  4 32  1  0  0  0  0
  5  6  2  0  0  0  0
  5 24  1  0  0  0  0
  6  7  1  0  0  0  0
  6  8  1  0  0  0  0
  7 33  1  0  0  0  0
  8  9  1  0  0  0  0
  8 22  1  0  0  0  0
  8 34  1  0  0  0  0
  9 10  2  0  0  0  0
  9 11  1  0  0  0  0
 11 12  1  0  0  0  0
 11 35  1  0  0  0  0
 12 13  1  0  0  0  0
 12 21  2  0  0  0  0
 13 14  2  0  0  0  0
 13 36  1  0  0  0  0
 14 15  1  0  0  0  0
 15 16  2  0  0  0  0
 15 37  1  0  0  0  0
 16 17  1  0  0  0  0
 16 21  1  0  0  0  0
 17 18  2  0  0  0  0
 17 38  1  0  0  0  0
 18 19  1  0  0  0  0
 18 39  1  0  0  0  0
 19 20  2  0  0  0  0
 19 40  1  0  0  0  0
 20 21  1  0  0  0  0
 20 41  1  0  0  0  0
 22 23  1  0  0  0  0
 22 42  1  0  0  0  0
 22 43  1  0  0  0  0
 23 24  1  0  0  0  0
 23 44  1  0  0  0  0
 23 45  1  0  0  0  0
 24 25  1  0  0  0  0
 25 26  1  0  0  0  0
 25 46  1  0  0  0  0
 25 47  1  0  0  0  0
 26 27  2  0  0  0  0
 26 30  1  0  0  0  0
 27 28  1  0  0  0  0
 27 48  1  0  0  0  0
 28 29  2  0  0  0  0
 29 30  1  0  0  0  0
 29 49  1  0  0  0  0
 30 50  1  0  0  0  0
M  END
$$$$
