
 OpenBabel07202414193D

 41 43  0  0  1  0  0  0  0  0999 V2000
    1.1716   -0.0821   -0.3169 O   0  0  0  0  0  0  0  0  0  0  0  0
    2.2765    0.2223    0.1274 C   0  0  0  0  0  0  0  0  0  0  0  0
    2.7523    1.6745    0.1786 C   0  0  0  0  0  0  0  0  0  0  0  0
    1.6454    2.7725   -0.6689 Cl  0  0  0  0  0  0  0  0  0  0  0  0
    3.1505   -0.7520    0.6589 N   0  0  0  0  0  0  0  0  0  0  0  0
    4.2729   -0.3184    1.5109 C   0  0  0  0  0  0  0  0  0  0  0  0
    5.3562   -1.3825    1.7109 C   0  0  0  0  0  0  0  0  0  0  0  0
    4.8435   -2.6887    2.1628 N   0  0  0  0  0  0  0  0  0  0  0  0
    4.3840   -2.6643    3.5693 C   0  0  0  0  0  0  0  0  0  0  0  0
    5.4497   -2.2318    4.5538 C   0  0  0  0  0  0  0  0  0  0  0  0
    5.2953   -1.0594    5.3119 C   0  0  0  0  0  0  0  0  0  0  0  0
    6.2994   -0.6349    6.1866 C   0  0  0  0  0  0  0  0  0  0  0  0
    7.4696   -1.3807    6.3175 C   0  0  0  0  0  0  0  0  0  0  0  0
    7.6287   -2.5518    5.5804 C   0  0  0  0  0  0  0  0  0  0  0  0
    9.0711   -3.4748    5.7495 Cl  0  0  0  0  0  0  0  0  0  0  0  0
    6.6317   -2.9796    4.7036 C   0  0  0  0  0  0  0  0  0  0  0  0
    3.7601   -3.1442    1.2553 C   0  0  2  0  0  0  0  0  0  0  0  0
    4.2953   -3.5592   -0.1259 C   0  0  0  0  0  0  0  0  0  0  0  0
    2.8508   -3.7140   -1.1505 S   0  0  0  0  0  0  0  0  0  0  0  0
    2.4484   -5.1069   -1.1636 O   0  0  0  0  0  0  0  0  0  0  0  0
    3.0603   -2.9541   -2.3633 O   0  0  0  0  0  0  0  0  0  0  0  0
    1.7392   -2.8266   -0.0781 C   0  0  0  0  0  0  0  0  0  0  0  0
    2.6143   -2.1121    0.9665 C   0  0  2  0  0  0  0  0  0  0  0  0
    3.7310    1.7817   -0.2931 H   0  0  0  0  0  0  0  0  0  0  0  0
    2.7892    1.9961    1.2235 H   0  0  0  0  0  0  0  0  0  0  0  0
    3.8458   -0.0148    2.4744 H   0  0  0  0  0  0  0  0  0  0  0  0
    4.7565    0.5625    1.0832 H   0  0  0  0  0  0  0  0  0  0  0  0
    6.1273   -0.9975    2.3872 H   0  0  0  0  0  0  0  0  0  0  0  0
    5.8910   -1.5215    0.7642 H   0  0  0  0  0  0  0  0  0  0  0  0
    4.0704   -3.6741    3.8651 H   0  0  0  0  0  0  0  0  0  0  0  0
    3.5001   -2.0261    3.6877 H   0  0  0  0  0  0  0  0  0  0  0  0
    4.3902   -0.4606    5.2220 H   0  0  0  0  0  0  0  0  0  0  0  0
    6.1718    0.2789    6.7623 H   0  0  0  0  0  0  0  0  0  0  0  0
    8.2487   -1.0465    6.9979 H   0  0  0  0  0  0  0  0  0  0  0  0
    6.7727   -3.8881    4.1233 H   0  0  0  0  0  0  0  0  0  0  0  0
    3.3029   -4.0446    1.6923 H   0  0  0  0  0  0  0  0  0  0  0  0
    4.8289   -4.5113   -0.1021 H   0  0  0  0  0  0  0  0  0  0  0  0
    4.9222   -2.7993   -0.5984 H   0  0  0  0  0  0  0  0  0  0  0  0
    1.1320   -3.5882    0.4252 H   0  0  0  0  0  0  0  0  0  0  0  0
    1.0717   -2.2256   -0.6914 H   0  0  0  0  0  0  0  0  0  0  0  0
    2.0064   -1.9694    1.8697 H   0  0  0  0  0  0  0  0  0  0  0  0
  1  2  2  0  0  0  0
  2  3  1  0  0  0  0
  2  5  1  0  0  0  0
  3  4  1  0  0  0  0
  3 24  1  0  0  0  0
  3 25  1  0  0  0  0
  5  6  1  0  0  0  0
  5 23  1  0  0  0  0
  6  7  1  0  0  0  0
  6 26  1  0  0  0  0
  6 27  1  0  0  0  0
  7  8  1  0  0  0  0
  7 28  1  0  0  0  0
  7 29  1  0  0  0  0
  8  9  1  0  0  0  0
  8 17  1  0  0  0  0
  9 10  1  0  0  0  0
  9 30  1  0  0  0  0
  9 31  1  0  0  0  0
 10 11  1  0  0  0  0
 10 16  2  0  0  0  0
 11 12  2  0  0  0  0
 11 32  1  0  0  0  0
 12 13  1  0  0  0  0
 12 33  1  0  0  0  0
 13 14  2  0  0  0  0
 13 34  1  0  0  0  0
 14 15  1  0  0  0  0
 14 16  1  0  0  0  0
 16 35  1  0  0  0  0
 17 18  1  0  0  0  0
 17 23  1  0  0  0  0
 17 36  1  1  0  0  0
 18 19  1  0  0  0  0
 18 37  1  0  0  0  0
 18 38  1  0  0  0  0
 19 20  2  0  0  0  0
 19 21  2  0  0  0  0
 19 22  1  0  0  0  0
 22 23  1  0  0  0  0
 22 39  1  0  0  0  0
 22 40  1  0  0  0  0
 23 41  1  1  0  0  0
M  END
$$$$
