
 OpenBabel07202414133D

 47 50  0  0  0  0  0  0  0  0999 V2000
    7.6757    0.7972   -2.3891 C   0  0  0  0  0  0  0  0  0  0  0  0
    7.3079   -0.5493   -2.8762 N   0  0  0  0  0  0  0  0  0  0  0  0
    7.5466   -0.6626   -4.3370 C   0  0  0  0  0  0  0  0  0  0  0  0
    7.9654   -1.8255   -1.9556 S   0  0  0  0  0  0  0  0  0  0  0  0
    7.6064   -3.0892   -2.5632 O   0  0  0  0  0  0  0  0  0  0  0  0
    9.3444   -1.4957   -1.6477 O   0  0  0  0  0  0  0  0  0  0  0  0
    7.0577   -1.6964   -0.4259 C   0  0  0  0  0  0  0  0  0  0  0  0
    5.8822   -2.4201   -0.2462 C   0  0  0  0  0  0  0  0  0  0  0  0
    5.1894   -2.3206    0.9614 C   0  0  0  0  0  0  0  0  0  0  0  0
    5.7047   -1.5423    2.0088 C   0  0  0  0  0  0  0  0  0  0  0  0
    6.9328   -0.8749    1.8480 C   0  0  0  0  0  0  0  0  0  0  0  0
    7.5624   -0.1174    2.9686 C   0  0  0  0  0  0  0  0  0  0  0  0
    6.9504    0.2532    3.9408 O   0  0  0  0  0  0  0  0  0  0  0  0
    8.9892    0.1172    2.8706 N   0  0  0  0  0  0  0  0  0  0  0  0
    9.6357    0.8619    3.8530 C   0  0  0  0  0  0  0  0  0  0  0  0
   10.7324    0.5339    4.6490 C   0  0  0  0  0  0  0  0  0  0  0  0
   11.4011   -0.7492    4.7551 C   0  0  0  0  0  0  0  0  0  0  0  0
   12.7495   -0.7903    5.1382 C   0  0  0  0  0  0  0  0  0  0  0  0
   13.3685   -2.0111    5.4101 C   0  0  0  0  0  0  0  0  0  0  0  0
   12.6455   -3.1969    5.2983 C   0  0  0  0  0  0  0  0  0  0  0  0
   11.3188   -3.1696    4.8733 C   0  0  0  0  0  0  0  0  0  0  0  0
   10.7016   -1.9508    4.5924 C   0  0  0  0  0  0  0  0  0  0  0  0
   11.0921    1.5998    5.4707 N   0  0  0  0  0  0  0  0  0  0  0  0
   10.2451    2.5333    5.1470 C   0  0  0  0  0  0  0  0  0  0  0  0
    9.9705    4.1757    5.6335 S   0  0  0  0  0  0  0  0  0  0  0  0
    8.6602    4.2721    4.4509 C   0  0  0  0  0  0  0  0  0  0  0  0
    8.4779    3.1332    3.7668 C   0  0  0  0  0  0  0  0  0  0  0  0
    9.3602    2.1596    4.1839 N   0  0  0  0  0  0  0  0  0  0  0  0
    7.5831   -0.9240    0.6158 C   0  0  0  0  0  0  0  0  0  0  0  0
    7.1536    1.5672   -2.9658 H   0  0  0  0  0  0  0  0  0  0  0  0
    8.7538    0.9590   -2.4805 H   0  0  0  0  0  0  0  0  0  0  0  0
    7.3753    0.9283   -1.3494 H   0  0  0  0  0  0  0  0  0  0  0  0
    7.0652    0.1740   -4.8546 H   0  0  0  0  0  0  0  0  0  0  0  0
    7.1045   -1.5795   -4.7391 H   0  0  0  0  0  0  0  0  0  0  0  0
    8.6172   -0.6338   -4.5629 H   0  0  0  0  0  0  0  0  0  0  0  0
    5.5030   -3.0590   -1.0436 H   0  0  0  0  0  0  0  0  0  0  0  0
    4.2557   -2.8679    1.0887 H   0  0  0  0  0  0  0  0  0  0  0  0
    5.1385   -1.4877    2.9414 H   0  0  0  0  0  0  0  0  0  0  0  0
    9.5716   -0.2739    2.1410 H   0  0  0  0  0  0  0  0  0  0  0  0
   13.3173    0.1315    5.2607 H   0  0  0  0  0  0  0  0  0  0  0  0
   14.4045   -2.0328    5.7397 H   0  0  0  0  0  0  0  0  0  0  0  0
   13.1131   -4.1434    5.5570 H   0  0  0  0  0  0  0  0  0  0  0  0
   10.7555   -4.0963    4.7920 H   0  0  0  0  0  0  0  0  0  0  0  0
    9.6576   -1.9604    4.3010 H   0  0  0  0  0  0  0  0  0  0  0  0
    8.0519    5.1739    4.3510 H   0  0  0  0  0  0  0  0  0  0  0  0
    7.7431    2.9323    3.0072 H   0  0  0  0  0  0  0  0  0  0  0  0
    8.4818   -0.3469    0.4346 H   0  0  0  0  0  0  0  0  0  0  0  0
  1  2  1  0  0  0  0
  1 30  1  0  0  0  0
  1 31  1  0  0  0  0
  1 32  1  0  0  0  0
  2  3  1  0  0  0  0
  2  4  1  0  0  0  0
  3 33  1  0  0  0  0
  3 34  1  0  0  0  0
  3 35  1  0  0  0  0
  4  5  2  0  0  0  0
  4  6  2  0  0  0  0
  4  7  1  0  0  0  0
  7  8  1  0  0  0  0
  7 29  2  0  0  0  0
  8  9  2  0  0  0  0
  8 36  1  0  0  0  0
  9 10  1  0  0  0  0
  9 37  1  0  0  0  0
 10 11  2  0  0  0  0
 10 38  1  0  0  0  0
 11 12  1  0  0  0  0
 11 29  1  0  0  0  0
 12 13  2  0  0  0  0
 12 14  1  0  0  0  0
 14 15  1  0  0  0  0
 14 39  1  0  0  0  0
 15 16  2  0  0  0  0
 15 28  1  0  0  0  0
 16 17  1  0  0  0  0
 16 23  1  0  0  0  0
 17 18  1  0  0  0  0
 17 22  2  0  0  0  0
 18 19  2  0  0  0  0
 18 40  1  0  0  0  0
 19 20  1  0  0  0  0
 19 41  1  0  0  0  0
 20 21  2  0  0  0  0
 20 42  1  0  0  0  0
 21 22  1  0  0  0  0
 21 43  1  0  0  0  0
 22 44  1  0  0  0  0
 23 24  2  0  0  0  0
 24 25  1  0  0  0  0
 24 28  1  0  0  0  0
 25 26  1  0  0  0  0
 26 27  2  0  0  0  0
 26 45  1  0  0  0  0
 27 28  1  0  0  0  0
 27 46  1  0  0  0  0
 29 47  1  0  0  0  0
M  END
$$$$
