
 OpenBabel07202414183D

 56 60  0  0  1  0  0  0  0  0999 V2000
   12.1797   -2.8078    5.4214 C   0  0  0  0  0  0  0  0  0  0  0  0
   11.9240   -3.1960    4.0567 N   0  0  0  0  0  0  0  0  0  0  0  0
   12.9585   -3.3268    3.1880 N   0  0  0  0  0  0  0  0  0  0  0  0
   12.3676   -3.7016    2.0465 C   0  0  0  0  0  0  0  0  0  0  0  0
   10.9803   -3.8004    2.1801 C   0  0  0  0  0  0  0  0  0  0  0  0
   10.7083   -3.4639    3.4845 C   0  0  0  0  0  0  0  0  0  0  0  0
    9.4909   -3.4100    4.0771 N   0  0  0  0  0  0  0  0  0  0  0  0
    8.5177   -3.7141    3.2648 C   0  0  0  0  0  0  0  0  0  0  0  0
    8.6492   -4.0549    1.9178 N   0  0  0  0  0  0  0  0  0  0  0  0
    7.4733   -4.3016    1.0931 C   0  0  0  0  0  0  0  0  0  0  0  0
    7.0282   -5.7619    1.1848 C   0  0  0  0  0  0  0  0  0  0  0  0
    6.7612   -6.2720    2.2726 O   0  0  0  0  0  0  0  0  0  0  0  0
    6.8837   -6.4444   -0.0076 N   0  0  0  0  0  0  0  0  0  0  0  0
    6.4130   -7.8315   -0.0182 C   0  0  3  0  0  0  0  0  0  0  0  0
    5.5675   -8.1505   -1.2738 C   0  0  0  0  0  0  0  0  0  0  0  0
    5.9976   -7.8670   -2.4014 O   0  0  0  0  0  0  0  0  0  0  0  0
    4.3696   -8.8224   -1.2199 N   0  0  0  0  0  0  0  0  0  0  0  0
    3.4511   -9.1292   -0.1805 C   0  0  0  0  0  0  0  0  0  0  0  0
    3.4081   -8.4422    1.0320 C   0  0  0  0  0  0  0  0  0  0  0  0
    2.5642   -8.7074    2.0539 N   0  0  0  0  0  0  0  0  0  0  0  0
    1.6492   -9.6697    1.8434 C   0  0  0  0  0  0  0  0  0  0  0  0
    1.5079  -10.3674    0.6495 C   0  0  0  0  0  0  0  0  0  0  0  0
    0.4556  -11.2857    0.4904 C   0  0  0  0  0  0  0  0  0  0  0  0
    0.2788  -11.9605   -0.7116 C   0  0  0  0  0  0  0  0  0  0  0  0
    1.1823  -11.7590   -1.7461 C   0  0  0  0  0  0  0  0  0  0  0  0
    2.2513  -10.8663   -1.5870 C   0  0  0  0  0  0  0  0  0  0  0  0
    2.4321  -10.1120   -0.3968 C   0  0  0  0  0  0  0  0  0  0  0  0
    7.5600   -8.8194    0.1401 C   0  0  0  0  0  0  0  0  0  0  0  0
    8.6915   -8.8089   -0.6898 C   0  0  0  0  0  0  0  0  0  0  0  0
    9.7221   -9.7344   -0.4902 C   0  0  0  0  0  0  0  0  0  0  0  0
    9.6181  -10.6929    0.5199 C   0  0  0  0  0  0  0  0  0  0  0  0
    8.4871  -10.7274    1.3263 C   0  0  0  0  0  0  0  0  0  0  0  0
    8.3280  -11.9384    2.5371 Cl  0  0  0  0  0  0  0  0  0  0  0  0
    7.4699   -9.7936    1.1505 C   0  0  0  0  0  0  0  0  0  0  0  0
    9.8986   -4.1372    1.3017 C   0  0  0  0  0  0  0  0  0  0  0  0
   10.0647   -4.4429    0.1230 O   0  0  0  0  0  0  0  0  0  0  0  0
   13.2586   -2.7059    5.5734 H   0  0  0  0  0  0  0  0  0  0  0  0
   11.7893   -3.5829    6.0843 H   0  0  0  0  0  0  0  0  0  0  0  0
   11.6909   -1.8493    5.6100 H   0  0  0  0  0  0  0  0  0  0  0  0
   12.9749   -3.8814    1.1694 H   0  0  0  0  0  0  0  0  0  0  0  0
    7.4781   -3.7089    3.6318 H   0  0  0  0  0  0  0  0  0  0  0  0
    7.6640   -4.0190    0.0532 H   0  0  0  0  0  0  0  0  0  0  0  0
    6.6410   -3.6888    1.4600 H   0  0  0  0  0  0  0  0  0  0  0  0
    7.3190   -6.0944   -0.8558 H   0  0  0  0  0  0  0  0  0  0  0  0
    5.8107   -7.9495    0.8715 H   0  0  0  0  0  0  0  0  0  0  0  0
    4.0940   -9.1157   -2.1500 H   0  0  0  0  0  0  0  0  0  0  0  0
    4.0077   -7.5641    1.2346 H   0  0  0  0  0  0  0  0  0  0  0  0
    0.9876   -9.8492    2.6877 H   0  0  0  0  0  0  0  0  0  0  0  0
   -0.2498  -11.4647    1.3008 H   0  0  0  0  0  0  0  0  0  0  0  0
   -0.5594  -12.6415   -0.8370 H   0  0  0  0  0  0  0  0  0  0  0  0
    1.0554  -12.2951   -2.6840 H   0  0  0  0  0  0  0  0  0  0  0  0
    2.9362  -10.7708   -2.4250 H   0  0  0  0  0  0  0  0  0  0  0  0
    8.7810   -8.0870   -1.4998 H   0  0  0  0  0  0  0  0  0  0  0  0
   10.6054   -9.7058   -1.1227 H   0  0  0  0  0  0  0  0  0  0  0  0
   10.4209  -11.4116    0.6653 H   0  0  0  0  0  0  0  0  0  0  0  0
    6.6039   -9.8217    1.8098 H   0  0  0  0  0  0  0  0  0  0  0  0
  1  2  1  0  0  0  0
  1 37  1  0  0  0  0
  1 38  1  0  0  0  0
  1 39  1  0  0  0  0
  2  3  1  0  0  0  0
  2  6  1  0  0  0  0
  3  4  2  0  0  0  0
  4  5  1  0  0  0  0
  4 40  1  0  0  0  0
  5  6  2  0  0  0  0
  5 35  1  0  0  0  0
  6  7  1  0  0  0  0
  7  8  2  0  0  0  0
  8  9  1  0  0  0  0
  8 41  1  0  0  0  0
  9 10  1  0  0  0  0
  9 35  1  0  0  0  0
 10 11  1  0  0  0  0
 10 42  1  0  0  0  0
 10 43  1  0  0  0  0
 11 12  2  0  0  0  0
 11 13  1  0  0  0  0
 13 14  1  0  0  0  0
 13 44  1  0  0  0  0
 14 15  1  0  0  0  0
 14 28  1  0  0  0  0
 14 45  1  0  0  0  0
 15 16  2  0  0  0  0
 15 17  1  0  0  0  0
 17 18  1  0  0  0  0
 17 46  1  0  0  0  0
 18 19  1  0  0  0  0
 18 27  2  0  0  0  0
 19 20  2  0  0  0  0
 19 47  1  0  0  0  0
 20 21  1  0  0  0  0
 21 22  2  0  0  0  0
 21 48  1  0  0  0  0
 22 23  1  0  0  0  0
 22 27  1  0  0  0  0
 23 24  2  0  0  0  0
 23 49  1  0  0  0  0
 24 25  1  0  0  0  0
 24 50  1  0  0  0  0
 25 26  2  0  0  0  0
 25 51  1  0  0  0  0
 26 27  1  0  0  0  0
 26 52  1  0  0  0  0
 28 29  1  0  0  0  0
 28 34  2  0  0  0  0
 29 30  2  0  0  0  0
 29 53  1  0  0  0  0
 30 31  1  0  0  0  0
 30 54  1  0  0  0  0
 31 32  2  0  0  0  0
 31 55  1  0  0  0  0
 32 33  1  0  0  0  0
 32 34  1  0  0  0  0
 34 56  1  0  0  0  0
 35 36  2  0  0  0  0
M  END
$$$$
