
 OpenBabel07202414153D

 48 51  0  0  0  0  0  0  0  0999 V2000
    1.7334    0.5548   -0.1867 C   0  0  0  0  0  0  0  0  0  0  0  0
    2.7188   -0.4577   -0.3638 O   0  0  0  0  0  0  0  0  0  0  0  0
    3.2936   -0.9865    0.7601 C   0  0  0  0  0  0  0  0  0  0  0  0
    2.9748   -0.6618    2.0772 C   0  0  0  0  0  0  0  0  0  0  0  0
    3.6631   -1.2683    3.1434 C   0  0  0  0  0  0  0  0  0  0  0  0
    4.7024   -2.1735    2.8987 C   0  0  0  0  0  0  0  0  0  0  0  0
    5.4688   -2.6670    4.0024 N   0  0  0  0  0  0  0  0  0  0  0  0
    6.7895   -2.0603    4.2349 C   0  0  0  0  0  0  0  0  0  0  0  0
    6.8438   -0.5577    4.1485 C   0  0  0  0  0  0  0  0  0  0  0  0
    6.0217    0.2407    4.9598 C   0  0  0  0  0  0  0  0  0  0  0  0
    6.0549    1.6320    4.8573 C   0  0  0  0  0  0  0  0  0  0  0  0
    6.9399    2.2401    3.9700 C   0  0  0  0  0  0  0  0  0  0  0  0
    7.7928    1.4559    3.1972 C   0  0  0  0  0  0  0  0  0  0  0  0
    8.9161    2.2083    2.1323 Cl  0  0  0  0  0  0  0  0  0  0  0  0
    7.7520    0.0647    3.2811 C   0  0  0  0  0  0  0  0  0  0  0  0
    5.1250   -3.9140    4.5363 C   0  0  0  0  0  0  0  0  0  0  0  0
    4.0289   -4.4456    4.3273 O   0  0  0  0  0  0  0  0  0  0  0  0
    6.1656   -4.6651    5.3410 C   0  0  0  0  0  0  0  0  0  0  0  0
    6.1987   -4.3838    6.7660 N   0  0  0  0  0  0  0  0  0  0  0  0
    7.4182   -4.3431    7.3546 N   0  0  0  0  0  0  0  0  0  0  0  0
    7.2821   -4.7848    8.5962 N   0  0  0  0  0  0  0  0  0  0  0  0
    5.9500   -5.0072    8.8223 C   0  0  0  0  0  0  0  0  0  0  0  0
    5.2885   -5.5410    9.9370 C   0  0  0  0  0  0  0  0  0  0  0  0
    3.8913   -5.6218    9.9077 C   0  0  0  0  0  0  0  0  0  0  0  0
    3.1728   -5.1579    8.8028 C   0  0  0  0  0  0  0  0  0  0  0  0
    3.8213   -4.6673    7.6621 C   0  0  0  0  0  0  0  0  0  0  0  0
    5.2181   -4.6381    7.6959 C   0  0  0  0  0  0  0  0  0  0  0  0
    5.0109   -2.5180    1.5791 C   0  0  0  0  0  0  0  0  0  0  0  0
    4.3046   -1.9295    0.5207 C   0  0  0  0  0  0  0  0  0  0  0  0
    1.3888    0.8642   -1.1800 H   0  0  0  0  0  0  0  0  0  0  0  0
    2.1522    1.4385    0.3071 H   0  0  0  0  0  0  0  0  0  0  0  0
    0.8652    0.1715    0.3589 H   0  0  0  0  0  0  0  0  0  0  0  0
    2.2018    0.0610    2.3140 H   0  0  0  0  0  0  0  0  0  0  0  0
    3.3974   -1.0020    4.1573 H   0  0  0  0  0  0  0  0  0  0  0  0
    7.4969   -2.5303    3.5410 H   0  0  0  0  0  0  0  0  0  0  0  0
    7.1279   -2.3101    5.2456 H   0  0  0  0  0  0  0  0  0  0  0  0
    5.3300   -0.2220    5.6619 H   0  0  0  0  0  0  0  0  0  0  0  0
    5.3914    2.2382    5.4681 H   0  0  0  0  0  0  0  0  0  0  0  0
    6.9653    3.3237    3.8897 H   0  0  0  0  0  0  0  0  0  0  0  0
    8.4264   -0.5312    2.6700 H   0  0  0  0  0  0  0  0  0  0  0  0
    7.1686   -4.5084    4.9296 H   0  0  0  0  0  0  0  0  0  0  0  0
    5.9724   -5.7403    5.2491 H   0  0  0  0  0  0  0  0  0  0  0  0
    5.8527   -5.8987   10.7920 H   0  0  0  0  0  0  0  0  0  0  0  0
    3.3606   -6.0475   10.7565 H   0  0  0  0  0  0  0  0  0  0  0  0
    2.0851   -5.2004    8.8178 H   0  0  0  0  0  0  0  0  0  0  0  0
    3.2530   -4.3340    6.7997 H   0  0  0  0  0  0  0  0  0  0  0  0
    5.7890   -3.2416    1.3559 H   0  0  0  0  0  0  0  0  0  0  0  0
    4.5429   -2.1969   -0.5045 H   0  0  0  0  0  0  0  0  0  0  0  0
  1  2  1  0  0  0  0
  1 30  1  0  0  0  0
  1 31  1  0  0  0  0
  1 32  1  0  0  0  0
  2  3  1  0  0  0  0
  3  4  1  0  0  0  0
  3 29  2  0  0  0  0
  4  5  2  0  0  0  0
  4 33  1  0  0  0  0
  5  6  1  0  0  0  0
  5 34  1  0  0  0  0
  6  7  1  0  0  0  0
  6 28  2  0  0  0  0
  7  8  1  0  0  0  0
  7 16  1  0  0  0  0
  8  9  1  0  0  0  0
  8 35  1  0  0  0  0
  8 36  1  0  0  0  0
  9 10  1  0  0  0  0
  9 15  2  0  0  0  0
 10 11  2  0  0  0  0
 10 37  1  0  0  0  0
 11 12  1  0  0  0  0
 11 38  1  0  0  0  0
 12 13  2  0  0  0  0
 12 39  1  0  0  0  0
 13 14  1  0  0  0  0
 13 15  1  0  0  0  0
 15 40  1  0  0  0  0
 16 17  2  0  0  0  0
 16 18  1  0  0  0  0
 18 19  1  0  0  0  0
 18 41  1  0  0  0  0
 18 42  1  0  0  0  0
 19 20  1  0  0  0  0
 19 27  1  0  0  0  0
 20 21  2  0  0  0  0
 21 22  1  0  0  0  0
 22 23  1  0  0  0  0
 22 27  2  0  0  0  0
 23 24  2  0  0  0  0
 23 43  1  0  0  0  0
 24 25  1  0  0  0  0
 24 44  1  0  0  0  0
 25 26  2  0  0  0  0
 25 45  1  0  0  0  0
 26 27  1  0  0  0  0
 26 46  1  0  0  0  0
 28 29  1  0  0  0  0
 28 47  1  0  0  0  0
 29 48  1  0  0  0  0
M  END
$$$$
