
 OpenBabel07202414153D

 42 45  0  0  1  0  0  0  0  0999 V2000
    0.9786    0.1682    0.0914 C   0  0  0  0  0  0  0  0  0  0  0  0
    2.4872    0.1301    0.1096 C   0  0  0  0  0  0  0  0  0  0  0  0
    3.2594    1.3040    0.0209 C   0  0  0  0  0  0  0  0  0  0  0  0
    2.5512    2.8802   -0.0563 Cl  0  0  0  0  0  0  0  0  0  0  0  0
    4.6549    1.2423   -0.0006 C   0  0  0  0  0  0  0  0  0  0  0  0
    5.3036    0.0119    0.0418 C   0  0  0  0  0  0  0  0  0  0  0  0
    4.5655   -1.1631    0.1435 C   0  0  0  0  0  0  0  0  0  0  0  0
    3.1620   -1.1196    0.1986 C   0  0  0  0  0  0  0  0  0  0  0  0
    2.4075   -2.4118    0.4389 C   0  0  2  0  0  0  0  0  0  0  0  0
    2.0612   -2.5754    1.9318 C   0  0  0  0  0  0  0  0  0  0  0  0
    2.7841   -2.1343    2.8213 O   0  0  0  0  0  0  0  0  0  0  0  0
    0.8898   -3.2836    2.1417 N   0  0  0  0  0  0  0  0  0  0  0  0
    0.2751   -3.5703    3.3915 C   0  0  0  0  0  0  0  0  0  0  0  0
    0.8284   -3.1908    4.6182 C   0  0  0  0  0  0  0  0  0  0  0  0
    0.2738   -3.4444    5.8276 N   0  0  0  0  0  0  0  0  0  0  0  0
   -0.9040   -4.0955    5.8249 C   0  0  0  0  0  0  0  0  0  0  0  0
   -1.5730   -4.5127    4.6767 C   0  0  0  0  0  0  0  0  0  0  0  0
   -2.8182   -5.1598    4.7655 C   0  0  0  0  0  0  0  0  0  0  0  0
   -3.4931   -5.5665    3.6183 C   0  0  0  0  0  0  0  0  0  0  0  0
   -2.9218   -5.3477    2.3732 C   0  0  0  0  0  0  0  0  0  0  0  0
   -1.6813   -4.7116    2.2736 C   0  0  0  0  0  0  0  0  0  0  0  0
   -0.9723   -4.2604    3.4185 C   0  0  0  0  0  0  0  0  0  0  0  0
    3.2306   -3.6023   -0.0433 C   0  0  0  0  0  0  0  0  0  0  0  0
    4.6305   -3.5067    0.5383 C   0  0  0  0  0  0  0  0  0  0  0  0
    5.3065   -2.3139    0.1437 O   0  0  0  0  0  0  0  0  0  0  0  0
    0.5611    1.1766    0.0617 H   0  0  0  0  0  0  0  0  0  0  0  0
    0.5702   -0.3127    0.9853 H   0  0  0  0  0  0  0  0  0  0  0  0
    0.6085   -0.3507   -0.8000 H   0  0  0  0  0  0  0  0  0  0  0  0
    5.2457    2.1529   -0.0533 H   0  0  0  0  0  0  0  0  0  0  0  0
    6.3891   -0.0314    0.0150 H   0  0  0  0  0  0  0  0  0  0  0  0
    1.4795   -2.4040   -0.1439 H   0  0  0  0  0  0  0  0  0  0  0  0
    0.4043   -3.5953    1.3167 H   0  0  0  0  0  0  0  0  0  0  0  0
    1.7636   -2.6481    4.6994 H   0  0  0  0  0  0  0  0  0  0  0  0
   -1.3142   -4.2758    6.8157 H   0  0  0  0  0  0  0  0  0  0  0  0
   -3.2765   -5.3423    5.7360 H   0  0  0  0  0  0  0  0  0  0  0  0
   -4.4622   -6.0517    3.6973 H   0  0  0  0  0  0  0  0  0  0  0  0
   -3.4410   -5.6673    1.4729 H   0  0  0  0  0  0  0  0  0  0  0  0
   -1.2890   -4.5752    1.2715 H   0  0  0  0  0  0  0  0  0  0  0  0
    3.2966   -3.5721   -1.1395 H   0  0  0  0  0  0  0  0  0  0  0  0
    2.7628   -4.5529    0.2352 H   0  0  0  0  0  0  0  0  0  0  0  0
    5.2283   -4.3501    0.1758 H   0  0  0  0  0  0  0  0  0  0  0  0
    4.6294   -3.5725    1.6320 H   0  0  0  0  0  0  0  0  0  0  0  0
  1  2  1  0  0  0  0
  1 26  1  0  0  0  0
  1 27  1  0  0  0  0
  1 28  1  0  0  0  0
  2  3  1  0  0  0  0
  2  8  2  0  0  0  0
  3  4  1  0  0  0  0
  3  5  2  0  0  0  0
  5  6  1  0  0  0  0
  5 29  1  0  0  0  0
  6  7  2  0  0  0  0
  6 30  1  0  0  0  0
  7  8  1  0  0  0  0
  7 25  1  0  0  0  0
  8  9  1  0  0  0  0
  9 10  1  0  0  0  0
  9 23  1  0  0  0  0
  9 31  1  6  0  0  0
 10 11  2  0  0  0  0
 10 12  1  0  0  0  0
 12 13  1  0  0  0  0
 12 32  1  0  0  0  0
 13 14  1  0  0  0  0
 13 22  2  0  0  0  0
 14 15  2  0  0  0  0
 14 33  1  0  0  0  0
 15 16  1  0  0  0  0
 16 17  2  0  0  0  0
 16 34  1  0  0  0  0
 17 18  1  0  0  0  0
 17 22  1  0  0  0  0
 18 19  2  0  0  0  0
 18 35  1  0  0  0  0
 19 20  1  0  0  0  0
 19 36  1  0  0  0  0
 20 21  2  0  0  0  0
 20 37  1  0  0  0  0
 21 22  1  0  0  0  0
 21 38  1  0  0  0  0
 23 24  1  0  0  0  0
 23 39  1  0  0  0  0
 23 40  1  0  0  0  0
 24 25  1  0  0  0  0
 24 41  1  0  0  0  0
 24 42  1  0  0  0  0
M  END
$$$$
