
 OpenBabel07202414173D

 40 43  0  0  1  0  0  0  0  0999 V2000
   10.5789   -2.9678    0.2445 Cl  0  0  0  0  0  0  0  0  0  0  0  0
    8.9999   -3.4765   -0.2071 C   0  0  0  0  0  0  0  0  0  0  0  0
    8.8398   -4.5726   -1.0511 C   0  0  0  0  0  0  0  0  0  0  0  0
    7.5565   -4.9866   -1.4109 C   0  0  0  0  0  0  0  0  0  0  0  0
    6.4372   -4.3181   -0.9143 C   0  0  0  0  0  0  0  0  0  0  0  0
    6.5932   -3.2260   -0.0520 C   0  0  0  0  0  0  0  0  0  0  0  0
    7.8865   -2.8035    0.2950 C   0  0  0  0  0  0  0  0  0  0  0  0
    5.3831   -2.5773    0.5846 C   0  0  3  0  0  0  0  0  0  0  0  0
    5.1266   -3.0485    2.0324 C   0  0  0  0  0  0  0  0  0  0  0  0
    4.5452   -2.3178    2.8311 O   0  0  0  0  0  0  0  0  0  0  0  0
    5.5390   -4.3446    2.2945 N   0  0  0  0  0  0  0  0  0  0  0  0
    5.6047   -5.0237    3.5351 C   0  0  0  0  0  0  0  0  0  0  0  0
    5.2390   -4.4342    4.7421 C   0  0  0  0  0  0  0  0  0  0  0  0
    5.4813   -4.9841    5.9548 N   0  0  0  0  0  0  0  0  0  0  0  0
    6.0556   -6.2044    5.9658 C   0  0  0  0  0  0  0  0  0  0  0  0
    6.3381   -6.9538    4.8256 C   0  0  0  0  0  0  0  0  0  0  0  0
    6.8102   -8.2771    4.9216 C   0  0  0  0  0  0  0  0  0  0  0  0
    7.0843   -9.0239    3.7759 C   0  0  0  0  0  0  0  0  0  0  0  0
    6.9277   -8.4437    2.5214 C   0  0  0  0  0  0  0  0  0  0  0  0
    7.2455   -9.1807    1.3302 C   0  0  0  0  0  0  0  0  0  0  0  0
    7.5137   -9.7579    0.3658 N   0  0  0  0  0  0  0  0  0  0  0  0
    6.4528   -7.1291    2.4194 C   0  0  0  0  0  0  0  0  0  0  0  0
    6.1302   -6.3500    3.5648 C   0  0  0  0  0  0  0  0  0  0  0  0
    4.1619   -2.8311   -0.2930 C   0  0  0  0  0  0  0  0  0  0  0  0
    4.0646   -4.3054   -0.6491 C   0  0  0  0  0  0  0  0  0  0  0  0
    5.2276   -4.8163   -1.3051 O   0  0  0  0  0  0  0  0  0  0  0  0
    9.7058   -5.1086   -1.4315 H   0  0  0  0  0  0  0  0  0  0  0  0
    7.4301   -5.8425   -2.0705 H   0  0  0  0  0  0  0  0  0  0  0  0
    8.0267   -1.9611    0.9699 H   0  0  0  0  0  0  0  0  0  0  0  0
    5.5578   -1.4939    0.6312 H   0  0  0  0  0  0  0  0  0  0  0  0
    5.9861   -4.8239    1.5286 H   0  0  0  0  0  0  0  0  0  0  0  0
    4.7448   -3.4699    4.7986 H   0  0  0  0  0  0  0  0  0  0  0  0
    6.2907   -6.5775    6.9607 H   0  0  0  0  0  0  0  0  0  0  0  0
    6.9392   -8.7445    5.8953 H   0  0  0  0  0  0  0  0  0  0  0  0
    7.4155  -10.0569    3.8727 H   0  0  0  0  0  0  0  0  0  0  0  0
    6.3136   -6.7345    1.4154 H   0  0  0  0  0  0  0  0  0  0  0  0
    4.2693   -2.2546   -1.2228 H   0  0  0  0  0  0  0  0  0  0  0  0
    3.2419   -2.4956    0.1956 H   0  0  0  0  0  0  0  0  0  0  0  0
    3.2208   -4.4565   -1.3308 H   0  0  0  0  0  0  0  0  0  0  0  0
    3.8637   -4.9216    0.2340 H   0  0  0  0  0  0  0  0  0  0  0  0
  1  2  1  0  0  0  0
  2  3  1  0  0  0  0
  2  7  2  0  0  0  0
  3  4  2  0  0  0  0
  3 27  1  0  0  0  0
  4  5  1  0  0  0  0
  4 28  1  0  0  0  0
  5  6  2  0  0  0  0
  5 26  1  0  0  0  0
  6  7  1  0  0  0  0
  6  8  1  0  0  0  0
  7 29  1  0  0  0  0
  8  9  1  0  0  0  0
  8 24  1  0  0  0  0
  8 30  1  0  0  0  0
  9 10  2  0  0  0  0
  9 11  1  0  0  0  0
 11 12  1  0  0  0  0
 11 31  1  0  0  0  0
 12 13  1  0  0  0  0
 12 23  2  0  0  0  0
 13 14  2  0  0  0  0
 13 32  1  0  0  0  0
 14 15  1  0  0  0  0
 15 16  2  0  0  0  0
 15 33  1  0  0  0  0
 16 17  1  0  0  0  0
 16 23  1  0  0  0  0
 17 18  2  0  0  0  0
 17 34  1  0  0  0  0
 18 19  1  0  0  0  0
 18 35  1  0  0  0  0
 19 20  1  0  0  0  0
 19 22  2  0  0  0  0
 20 21  3  0  0  0  0
 22 23  1  0  0  0  0
 22 36  1  0  0  0  0
 24 25  1  0  0  0  0
 24 37  1  0  0  0  0
 24 38  1  0  0  0  0
 25 26  1  0  0  0  0
 25 39  1  0  0  0  0
 25 40  1  0  0  0  0
M  END
$$$$
