
 OpenBabel07202414173D

 50 54  0  0  1  0  0  0  0  0999 V2000
    0.9804   -0.0309    0.0031 Cl  0  0  0  0  0  0  0  0  0  0  0  0
    2.6993   -0.0840    0.0242 C   0  0  0  0  0  0  0  0  0  0  0  0
    3.4257    1.0850   -0.1759 C   0  0  0  0  0  0  0  0  0  0  0  0
    4.8290    1.0633   -0.2381 C   0  0  0  0  0  0  0  0  0  0  0  0
    5.5815    2.1867   -0.5601 O   0  0  0  0  0  0  0  0  0  0  0  0
    4.8051    3.2740   -1.1009 C   0  0  0  0  0  0  0  0  0  0  0  0
    5.5898    4.3899   -1.7209 C   0  0  0  0  0  0  0  0  0  0  0  0
    6.6240    4.1264   -2.7828 C   0  0  0  0  0  0  0  0  0  0  0  0
    7.0364    4.6911   -1.4477 C   0  0  0  0  0  0  0  0  0  0  0  0
    5.4975   -0.1530    0.0273 C   0  0  0  0  0  0  0  0  0  0  0  0
    4.7553   -1.3314    0.2558 C   0  0  0  0  0  0  0  0  0  0  0  0
    3.3527   -1.2900    0.2262 C   0  0  0  0  0  0  0  0  0  0  0  0
    5.4344   -2.6476    0.5821 C   0  0  3  0  0  0  0  0  0  0  0  0
    5.3578   -3.0404    2.0750 C   0  0  0  0  0  0  0  0  0  0  0  0
    5.3873   -4.2275    2.4031 O   0  0  0  0  0  0  0  0  0  0  0  0
    5.3263   -1.9699    2.9487 N   0  0  0  0  0  0  0  0  0  0  0  0
    5.0970   -1.9735    4.3482 C   0  0  0  0  0  0  0  0  0  0  0  0
    4.8546   -3.1363    5.0768 C   0  0  0  0  0  0  0  0  0  0  0  0
    4.4995   -3.1590    6.3835 N   0  0  0  0  0  0  0  0  0  0  0  0
    4.4132   -1.9655    7.0071 C   0  0  0  0  0  0  0  0  0  0  0  0
    4.7113   -0.7394    6.4155 C   0  0  0  0  0  0  0  0  0  0  0  0
    4.6768    0.4545    7.1609 C   0  0  0  0  0  0  0  0  0  0  0  0
    4.9999    1.6737    6.5710 C   0  0  0  0  0  0  0  0  0  0  0  0
    5.3361    1.7172    5.2261 C   0  0  0  0  0  0  0  0  0  0  0  0
    5.3641    0.5391    4.4748 C   0  0  0  0  0  0  0  0  0  0  0  0
    5.0618   -0.7275    5.0450 C   0  0  0  0  0  0  0  0  0  0  0  0
    6.8734   -2.6100    0.0897 C   0  0  0  0  0  0  0  0  0  0  0  0
    7.5329   -1.3160    0.5314 C   0  0  0  0  0  0  0  0  0  0  0  0
    6.8692   -0.1440    0.0418 O   0  0  0  0  0  0  0  0  0  0  0  0
    2.8602    2.0028   -0.2963 H   0  0  0  0  0  0  0  0  0  0  0  0
    4.2111    3.7128   -0.2903 H   0  0  0  0  0  0  0  0  0  0  0  0
    4.1423    2.8962   -1.8895 H   0  0  0  0  0  0  0  0  0  0  0  0
    4.9328    5.2383   -1.8970 H   0  0  0  0  0  0  0  0  0  0  0  0
    6.6285    4.7844   -3.6461 H   0  0  0  0  0  0  0  0  0  0  0  0
    6.9009    3.1019   -3.0018 H   0  0  0  0  0  0  0  0  0  0  0  0
    7.3293    5.7357   -1.4113 H   0  0  0  0  0  0  0  0  0  0  0  0
    7.5888    4.0477   -0.7755 H   0  0  0  0  0  0  0  0  0  0  0  0
    2.7712   -2.1980    0.3744 H   0  0  0  0  0  0  0  0  0  0  0  0
    4.9068   -3.4406    0.0337 H   0  0  0  0  0  0  0  0  0  0  0  0
    5.3584   -1.0541    2.5281 H   0  0  0  0  0  0  0  0  0  0  0  0
    4.9205   -4.1259    4.6362 H   0  0  0  0  0  0  0  0  0  0  0  0
    4.0897   -2.0276    8.0438 H   0  0  0  0  0  0  0  0  0  0  0  0
    4.4173    0.4370    8.2176 H   0  0  0  0  0  0  0  0  0  0  0  0
    4.9983    2.5859    7.1620 H   0  0  0  0  0  0  0  0  0  0  0  0
    5.5920    2.6645    4.7572 H   0  0  0  0  0  0  0  0  0  0  0  0
    5.6575    0.6417    3.4337 H   0  0  0  0  0  0  0  0  0  0  0  0
    6.8730   -2.6502   -1.0076 H   0  0  0  0  0  0  0  0  0  0  0  0
    7.4364   -3.4777    0.4513 H   0  0  0  0  0  0  0  0  0  0  0  0
    8.5578   -1.2911    0.1464 H   0  0  0  0  0  0  0  0  0  0  0  0
    7.6101   -1.2542    1.6229 H   0  0  0  0  0  0  0  0  0  0  0  0
  1  2  1  0  0  0  0
  2  3  1  0  0  0  0
  2 12  2  0  0  0  0
  3  4  2  0  0  0  0
  3 30  1  0  0  0  0
  4  5  1  0  0  0  0
  4 10  1  0  0  0  0
  5  6  1  0  0  0  0
  6  7  1  0  0  0  0
  6 31  1  0  0  0  0
  6 32  1  0  0  0  0
  7  8  1  0  0  0  0
  7  9  1  0  0  0  0
  7 33  1  0  0  0  0
  8  9  1  0  0  0  0
  8 34  1  0  0  0  0
  8 35  1  0  0  0  0
  9 36  1  0  0  0  0
  9 37  1  0  0  0  0
 10 11  2  0  0  0  0
 10 29  1  0  0  0  0
 11 12  1  0  0  0  0
 11 13  1  0  0  0  0
 12 38  1  0  0  0  0
 13 14  1  0  0  0  0
 13 27  1  0  0  0  0
 13 39  1  0  0  0  0
 14 15  2  0  0  0  0
 14 16  1  0  0  0  0
 16 17  1  0  0  0  0
 16 40  1  0  0  0  0
 17 18  1  0  0  0  0
 17 26  2  0  0  0  0
 18 19  2  0  0  0  0
 18 41  1  0  0  0  0
 19 20  1  0  0  0  0
 20 21  2  0  0  0  0
 20 42  1  0  0  0  0
 21 22  1  0  0  0  0
 21 26  1  0  0  0  0
 22 23  2  0  0  0  0
 22 43  1  0  0  0  0
 23 24  1  0  0  0  0
 23 44  1  0  0  0  0
 24 25  2  0  0  0  0
 24 45  1  0  0  0  0
 25 26  1  0  0  0  0
 25 46  1  0  0  0  0
 27 28  1  0  0  0  0
 27 47  1  0  0  0  0
 27 48  1  0  0  0  0
 28 29  1  0  0  0  0
 28 49  1  0  0  0  0
 28 50  1  0  0  0  0
M  END
$$$$
