
 OpenBabel07202414203D

 59 63  0  0  0  0  0  0  0  0999 V2000
   -1.0860   -1.2953   -0.4859 O   0  0  0  0  0  0  0  0  0  0  0  0
   -0.2197   -0.5204    0.2433 C   0  0  0  0  0  0  0  0  0  0  0  0
    1.1016   -0.9755    0.4317 C   0  0  0  0  0  0  0  0  0  0  0  0
    1.4386   -2.2413   -0.0732 N   0  0  0  0  0  0  0  0  0  0  0  0
    2.8516   -2.4930   -0.4566 C   0  0  0  0  0  0  0  0  0  0  0  0
    2.9485   -3.8258   -1.2535 C   0  0  0  0  0  0  0  0  0  0  0  0
    2.3482   -4.9193   -0.4628 N   0  0  0  0  0  0  0  0  0  0  0  0
    2.7327   -6.2382   -0.6096 C   0  0  0  0  0  0  0  0  0  0  0  0
    2.5280   -7.1217    0.4615 C   0  0  0  0  0  0  0  0  0  0  0  0
    2.8905   -8.4741    0.4107 C   0  0  0  0  0  0  0  0  0  0  0  0
    2.6070   -9.3562    1.6002 C   0  0  0  0  0  0  0  0  0  0  0  0
    1.1439   -9.3481    2.0263 C   0  0  0  0  0  0  0  0  0  0  0  0
    0.8290   -9.2166    3.2062 O   0  0  0  0  0  0  0  0  0  0  0  0
    0.2513   -9.5899    0.9972 N   0  0  0  0  0  0  0  0  0  0  0  0
   -1.1497   -9.6495    1.1746 C   0  0  0  0  0  0  0  0  0  0  0  0
   -1.8119   -8.7729    2.0375 C   0  0  0  0  0  0  0  0  0  0  0  0
   -3.1505   -8.7472    2.2238 N   0  0  0  0  0  0  0  0  0  0  0  0
   -3.8657   -9.6684    1.5446 C   0  0  0  0  0  0  0  0  0  0  0  0
   -3.3187  -10.6172    0.6723 C   0  0  0  0  0  0  0  0  0  0  0  0
   -4.1220  -11.5837    0.0424 C   0  0  0  0  0  0  0  0  0  0  0  0
   -3.5531  -12.5458   -0.7904 C   0  0  0  0  0  0  0  0  0  0  0  0
   -2.1823  -12.5447   -1.0118 C   0  0  0  0  0  0  0  0  0  0  0  0
   -1.3779  -11.5828   -0.3984 C   0  0  0  0  0  0  0  0  0  0  0  0
   -1.9221  -10.5955    0.4627 C   0  0  0  0  0  0  0  0  0  0  0  0
    3.5217   -8.9545   -0.7355 C   0  0  0  0  0  0  0  0  0  0  0  0
    3.7515   -8.0899   -1.8059 C   0  0  0  0  0  0  0  0  0  0  0  0
    4.5222   -8.6916   -3.2243 Cl  0  0  0  0  0  0  0  0  0  0  0  0
    3.3612   -6.7476   -1.7475 C   0  0  0  0  0  0  0  0  0  0  0  0
    0.9528   -4.6527   -0.0385 C   0  0  0  0  0  0  0  0  0  0  0  0
    0.9121   -3.3464    0.7796 C   0  0  0  0  0  0  0  0  0  0  0  0
    1.9796   -0.1278    1.1097 C   0  0  0  0  0  0  0  0  0  0  0  0
    1.5399    1.1126    1.5928 C   0  0  0  0  0  0  0  0  0  0  0  0
    0.2166    1.5207    1.4072 C   0  0  0  0  0  0  0  0  0  0  0  0
   -0.6734    0.6979    0.7263 C   0  0  0  0  0  0  0  0  0  0  0  0
   -0.4938   -1.9748   -0.8655 H   0  0  0  0  0  0  0  0  0  0  0  0
    3.4808   -2.5706    0.4406 H   0  0  0  0  0  0  0  0  0  0  0  0
    3.2352   -1.6766   -1.0788 H   0  0  0  0  0  0  0  0  0  0  0  0
    4.0060   -4.0234   -1.4624 H   0  0  0  0  0  0  0  0  0  0  0  0
    2.4196   -3.7257   -2.2096 H   0  0  0  0  0  0  0  0  0  0  0  0
    2.0946   -6.7347    1.3841 H   0  0  0  0  0  0  0  0  0  0  0  0
    3.2087   -8.9967    2.4439 H   0  0  0  0  0  0  0  0  0  0  0  0
    2.9001  -10.3936    1.4054 H   0  0  0  0  0  0  0  0  0  0  0  0
    0.6293   -9.9499    0.1314 H   0  0  0  0  0  0  0  0  0  0  0  0
   -1.2733   -8.0123    2.5969 H   0  0  0  0  0  0  0  0  0  0  0  0
   -4.9343   -9.6369    1.7415 H   0  0  0  0  0  0  0  0  0  0  0  0
   -5.1958  -11.6091    0.2180 H   0  0  0  0  0  0  0  0  0  0  0  0
   -4.1783  -13.3056   -1.2514 H   0  0  0  0  0  0  0  0  0  0  0  0
   -1.7309  -13.3060   -1.6443 H   0  0  0  0  0  0  0  0  0  0  0  0
   -0.3087  -11.6455   -0.5772 H   0  0  0  0  0  0  0  0  0  0  0  0
    3.8428   -9.9910   -0.7981 H   0  0  0  0  0  0  0  0  0  0  0  0
    3.5381   -6.1112   -2.6092 H   0  0  0  0  0  0  0  0  0  0  0  0
    0.5193   -5.4585    0.5621 H   0  0  0  0  0  0  0  0  0  0  0  0
    0.3234   -4.5475   -0.9328 H   0  0  0  0  0  0  0  0  0  0  0  0
    1.5306   -3.4523    1.6816 H   0  0  0  0  0  0  0  0  0  0  0  0
   -0.1190   -3.1665    1.1038 H   0  0  0  0  0  0  0  0  0  0  0  0
    3.0093   -0.4159    1.2915 H   0  0  0  0  0  0  0  0  0  0  0  0
    2.2302    1.7605    2.1278 H   0  0  0  0  0  0  0  0  0  0  0  0
   -0.1190    2.4817    1.7861 H   0  0  0  0  0  0  0  0  0  0  0  0
   -1.7008    1.0023    0.5599 H   0  0  0  0  0  0  0  0  0  0  0  0
  1  2  1  0  0  0  0
  1 35  1  0  0  0  0
  2  3  2  0  0  0  0
  2 34  1  0  0  0  0
  3  4  1  0  0  0  0
  3 31  1  0  0  0  0
  4  5  1  0  0  0  0
  4 30  1  0  0  0  0
  5  6  1  0  0  0  0
  5 36  1  0  0  0  0
  5 37  1  0  0  0  0
  6  7  1  0  0  0  0
  6 38  1  0  0  0  0
  6 39  1  0  0  0  0
  7  8  1  0  0  0  0
  7 29  1  0  0  0  0
  8  9  2  0  0  0  0
  8 28  1  0  0  0  0
  9 10  1  0  0  0  0
  9 40  1  0  0  0  0
 10 11  1  0  0  0  0
 10 25  2  0  0  0  0
 11 12  1  0  0  0  0
 11 41  1  0  0  0  0
 11 42  1  0  0  0  0
 12 13  2  0  0  0  0
 12 14  1  0  0  0  0
 14 15  1  0  0  0  0
 14 43  1  0  0  0  0
 15 16  2  0  0  0  0
 15 24  1  0  0  0  0
 16 17  1  0  0  0  0
 16 44  1  0  0  0  0
 17 18  2  0  0  0  0
 18 19  1  0  0  0  0
 18 45  1  0  0  0  0
 19 20  2  0  0  0  0
 19 24  1  0  0  0  0
 20 21  1  0  0  0  0
 20 46  1  0  0  0  0
 21 22  2  0  0  0  0
 21 47  1  0  0  0  0
 22 23  1  0  0  0  0
 22 48  1  0  0  0  0
 23 24  2  0  0  0  0
 23 49  1  0  0  0  0
 25 26  1  0  0  0  0
 25 50  1  0  0  0  0
 26 27  1  0  0  0  0
 26 28  2  0  0  0  0
 28 51  1  0  0  0  0
 29 30  1  0  0  0  0
 29 52  1  0  0  0  0
 29 53  1  0  0  0  0
 30 54  1  0  0  0  0
 30 55  1  0  0  0  0
 31 32  2  0  0  0  0
 31 56  1  0  0  0  0
 32 33  1  0  0  0  0
 32 57  1  0  0  0  0
 33 34  2  0  0  0  0
 33 58  1  0  0  0  0
 34 59  1  0  0  0  0
M  END
$$$$
