
 OpenBabel07202414143D

 58 61  0  0  1  0  0  0  0  0999 V2000
    1.7656   -2.2227    0.8643 C   0  0  0  0  0  0  0  0  0  0  0  0
    3.0497   -1.7204    0.4423 N   0  0  0  0  0  0  0  0  0  0  0  0
    3.1645   -1.0757   -0.7685 C   0  0  0  0  0  0  0  0  0  0  0  0
    2.1965   -0.8907   -1.4996 O   0  0  0  0  0  0  0  0  0  0  0  0
    4.5938   -0.6929   -1.1834 C   0  0  0  0  0  0  0  0  0  0  0  0
    4.9578   -1.3859   -2.4388 N   0  0  0  0  0  0  0  0  0  0  0  0
    5.0541   -2.8477   -2.2495 C   0  0  0  0  0  0  0  0  0  0  0  0
    5.1696   -3.5466   -3.6115 C   0  0  3  0  0  0  0  0  0  0  0  0
    3.8277   -3.6184   -4.3579 C   0  0  0  0  0  0  0  0  0  0  0  0
    3.5869   -4.6109   -5.0467 O   0  0  0  0  0  0  0  0  0  0  0  0
    3.0098   -2.5015   -4.2462 N   0  0  0  0  0  0  0  0  0  0  0  0
    1.7661   -2.2940   -4.9019 C   0  0  0  0  0  0  0  0  0  0  0  0
    1.1212   -3.3245   -5.5883 C   0  0  0  0  0  0  0  0  0  0  0  0
    0.0224   -3.1778   -6.3618 N   0  0  0  0  0  0  0  0  0  0  0  0
   -0.5125   -1.9461   -6.4030 C   0  0  0  0  0  0  0  0  0  0  0  0
   -0.0628   -0.8626   -5.6548 C   0  0  0  0  0  0  0  0  0  0  0  0
   -0.7815    0.3468   -5.6781 C   0  0  0  0  0  0  0  0  0  0  0  0
   -0.3325    1.4516   -4.9687 C   0  0  0  0  0  0  0  0  0  0  0  0
   -1.0576    2.6776   -5.0607 N   0  0  0  0  0  0  0  0  0  0  0  0
   -2.2715    3.0141   -3.9405 S   0  0  0  0  0  0  0  0  0  0  0  0
   -3.7256    2.4092   -4.7736 C   0  0  0  0  0  0  0  0  0  0  0  0
   -2.0649    2.2582   -2.7264 O   0  0  0  0  0  0  0  0  0  0  0  0
   -2.3636    4.4580   -3.9122 O   0  0  0  0  0  0  0  0  0  0  0  0
    0.8348    1.3607   -4.2242 C   0  0  0  0  0  0  0  0  0  0  0  0
    1.5641    0.1563   -4.2111 C   0  0  0  0  0  0  0  0  0  0  0  0
    1.1252   -1.0110   -4.8983 C   0  0  0  0  0  0  0  0  0  0  0  0
    6.2670   -2.9405   -4.4657 C   0  0  0  0  0  0  0  0  0  0  0  0
    6.8190   -3.6700   -5.5290 C   0  0  0  0  0  0  0  0  0  0  0  0
    7.8390   -3.1157   -6.3042 C   0  0  0  0  0  0  0  0  0  0  0  0
    8.5405   -4.0333   -7.5815 Cl  0  0  0  0  0  0  0  0  0  0  0  0
    8.3067   -1.8326   -6.0379 C   0  0  0  0  0  0  0  0  0  0  0  0
    7.7622   -1.1015   -4.9803 C   0  0  0  0  0  0  0  0  0  0  0  0
    6.7391   -1.6440   -4.1833 C   0  0  0  0  0  0  0  0  0  0  0  0
    6.2282   -0.8669   -2.9815 C   0  0  0  0  0  0  0  0  0  0  0  0
    1.8836   -2.7412    1.8170 H   0  0  0  0  0  0  0  0  0  0  0  0
    1.3825   -2.9168    0.1086 H   0  0  0  0  0  0  0  0  0  0  0  0
    1.0676   -1.3880    0.9695 H   0  0  0  0  0  0  0  0  0  0  0  0
    3.8335   -1.7642    1.0792 H   0  0  0  0  0  0  0  0  0  0  0  0
    5.3070   -0.9118   -0.3802 H   0  0  0  0  0  0  0  0  0  0  0  0
    4.5815    0.3938   -1.3434 H   0  0  0  0  0  0  0  0  0  0  0  0
    4.1690   -3.2439   -1.7394 H   0  0  0  0  0  0  0  0  0  0  0  0
    5.9211   -3.0929   -1.6202 H   0  0  0  0  0  0  0  0  0  0  0  0
    5.4505   -4.5873   -3.3940 H   0  0  0  0  0  0  0  0  0  0  0  0
    3.3802   -1.7273   -3.6974 H   0  0  0  0  0  0  0  0  0  0  0  0
    1.4590   -4.3537   -5.5366 H   0  0  0  0  0  0  0  0  0  0  0  0
   -1.3476   -1.8481   -7.0903 H   0  0  0  0  0  0  0  0  0  0  0  0
   -1.6925    0.4250   -6.2642 H   0  0  0  0  0  0  0  0  0  0  0  0
   -0.4806    3.5081   -5.1875 H   0  0  0  0  0  0  0  0  0  0  0  0
   -3.6849    1.3209   -4.8234 H   0  0  0  0  0  0  0  0  0  0  0  0
   -3.7760    2.8505   -5.7710 H   0  0  0  0  0  0  0  0  0  0  0  0
   -4.5988    2.7196   -4.1938 H   0  0  0  0  0  0  0  0  0  0  0  0
    1.1959    2.2072   -3.6462 H   0  0  0  0  0  0  0  0  0  0  0  0
    2.4760    0.1414   -3.6238 H   0  0  0  0  0  0  0  0  0  0  0  0
    6.4584   -4.6732   -5.7530 H   0  0  0  0  0  0  0  0  0  0  0  0
    9.1054   -1.4045   -6.6374 H   0  0  0  0  0  0  0  0  0  0  0  0
    8.1484   -0.1051   -4.7745 H   0  0  0  0  0  0  0  0  0  0  0  0
    6.0763    0.1753   -3.2875 H   0  0  0  0  0  0  0  0  0  0  0  0
    7.0123   -0.8897   -2.2133 H   0  0  0  0  0  0  0  0  0  0  0  0
  1  2  1  0  0  0  0
  1 35  1  0  0  0  0
  1 36  1  0  0  0  0
  1 37  1  0  0  0  0
  2  3  1  0  0  0  0
  2 38  1  0  0  0  0
  3  4  2  0  0  0  0
  3  5  1  0  0  0  0
  5  6  1  0  0  0  0
  5 39  1  0  0  0  0
  5 40  1  0  0  0  0
  6  7  1  0  0  0  0
  6 34  1  0  0  0  0
  7  8  1  0  0  0  0
  7 41  1  0  0  0  0
  7 42  1  0  0  0  0
  8  9  1  0  0  0  0
  8 27  1  0  0  0  0
  8 43  1  0  0  0  0
  9 10  2  0  0  0  0
  9 11  1  0  0  0  0
 11 12  1  0  0  0  0
 11 44  1  0  0  0  0
 12 13  1  0  0  0  0
 12 26  2  0  0  0  0
 13 14  2  0  0  0  0
 13 45  1  0  0  0  0
 14 15  1  0  0  0  0
 15 16  2  0  0  0  0
 15 46  1  0  0  0  0
 16 17  1  0  0  0  0
 16 26  1  0  0  0  0
 17 18  2  0  0  0  0
 17 47  1  0  0  0  0
 18 19  1  0  0  0  0
 18 24  1  0  0  0  0
 19 20  1  0  0  0  0
 19 48  1  0  0  0  0
 20 21  1  0  0  0  0
 20 22  2  0  0  0  0
 20 23  2  0  0  0  0
 21 49  1  0  0  0  0
 21 50  1  0  0  0  0
 21 51  1  0  0  0  0
 24 25  2  0  0  0  0
 24 52  1  0  0  0  0
 25 26  1  0  0  0  0
 25 53  1  0  0  0  0
 27 28  1  0  0  0  0
 27 33  2  0  0  0  0
 28 29  2  0  0  0  0
 28 54  1  0  0  0  0
 29 30  1  0  0  0  0
 29 31  1  0  0  0  0
 31 32  2  0  0  0  0
 31 55  1  0  0  0  0
 32 33  1  0  0  0  0
 32 56  1  0  0  0  0
 33 34  1  0  0  0  0
 34 57  1  0  0  0  0
 34 58  1  0  0  0  0
M  END
$$$$
