
 OpenBabel07202414153D

 58 61  0  0  1  0  0  0  0  0999 V2000
    1.9659    0.0626   -1.6926 C   0  0  0  0  0  0  0  0  0  0  0  0
    2.1953    0.4423   -0.2265 C   0  0  2  0  0  0  0  0  0  0  0  0
    1.1114   -0.0527    0.7377 C   0  0  0  0  0  0  0  0  0  0  0  0
    0.0662    0.7237    1.2461 C   0  0  0  0  0  0  0  0  0  0  0  0
   -0.8799    0.1714    2.1215 C   0  0  0  0  0  0  0  0  0  0  0  0
   -0.8000   -1.1645    2.5098 C   0  0  0  0  0  0  0  0  0  0  0  0
    0.2212   -1.9600    2.0112 C   0  0  0  0  0  0  0  0  0  0  0  0
    1.1574   -1.4140    1.1329 C   0  0  0  0  0  0  0  0  0  0  0  0
    2.7758    1.8110   -0.0238 N   0  0  0  0  0  0  0  0  0  0  0  0
    1.9913    2.9070   -0.4987 C   0  0  0  0  0  0  0  0  0  0  0  0
    0.8582    2.7404   -0.9626 O   0  0  0  0  0  0  0  0  0  0  0  0
    2.5711    4.3077   -0.3360 C   0  0  0  0  0  0  0  0  0  0  0  0
    2.0778    5.5235   -1.1021 C   0  0  0  0  0  0  0  0  0  0  0  0
    0.8815    5.5669   -1.8088 C   0  0  0  0  0  0  0  0  0  0  0  0
    0.4235    6.6568   -2.4690 N   0  0  0  0  0  0  0  0  0  0  0  0
    1.2151    7.7508   -2.4689 C   0  0  0  0  0  0  0  0  0  0  0  0
    2.4594    7.8261   -1.8530 C   0  0  0  0  0  0  0  0  0  0  0  0
    3.2772    8.9668   -1.9793 C   0  0  0  0  0  0  0  0  0  0  0  0
    4.5186    9.0284   -1.3548 C   0  0  0  0  0  0  0  0  0  0  0  0
    4.9274    7.9791   -0.5439 C   0  0  0  0  0  0  0  0  0  0  0  0
    4.1193    6.8499   -0.4105 C   0  0  0  0  0  0  0  0  0  0  0  0
    2.8847    6.7109   -1.1023 C   0  0  0  0  0  0  0  0  0  0  0  0
    4.2857    1.9382    0.0799 C   0  0  0  0  0  0  0  0  0  0  0  0
    5.1099    0.6395    0.1890 C   0  0  0  0  0  0  0  0  0  0  0  0
    4.9898    0.0003    1.5773 C   0  0  0  0  0  0  0  0  0  0  0  0
    5.4418    0.8975    2.6417 N   0  0  0  0  0  0  0  0  0  0  0  0
    5.1602    0.2755    3.9436 C   0  0  0  0  0  0  0  0  0  0  0  0
    4.7781    2.2035    2.5879 C   0  0  0  0  0  0  0  0  0  0  0  0
    4.8209    2.8486    1.2088 C   0  0  0  0  0  0  0  0  0  0  0  0
    2.8739    0.2556   -2.2754 H   0  0  0  0  0  0  0  0  0  0  0  0
    1.1405    0.6067   -2.1562 H   0  0  0  0  0  0  0  0  0  0  0  0
    1.7462   -1.0078   -1.7845 H   0  0  0  0  0  0  0  0  0  0  0  0
    2.9929   -0.2352    0.0438 H   0  0  0  0  0  0  0  0  0  0  0  0
   -0.0485    1.7656    0.9709 H   0  0  0  0  0  0  0  0  0  0  0  0
   -1.6914    0.7901    2.4968 H   0  0  0  0  0  0  0  0  0  0  0  0
   -1.5374   -1.5832    3.1896 H   0  0  0  0  0  0  0  0  0  0  0  0
    0.2895   -3.0078    2.3008 H   0  0  0  0  0  0  0  0  0  0  0  0
    1.9394   -2.0670    0.7513 H   0  0  0  0  0  0  0  0  0  0  0  0
    3.6142    4.2320   -0.6393 H   0  0  0  0  0  0  0  0  0  0  0  0
    2.4745    4.5551    0.7282 H   0  0  0  0  0  0  0  0  0  0  0  0
    0.2171    4.7124   -1.8920 H   0  0  0  0  0  0  0  0  0  0  0  0
    0.8008    8.6016   -3.0056 H   0  0  0  0  0  0  0  0  0  0  0  0
    2.9556    9.8086   -2.5919 H   0  0  0  0  0  0  0  0  0  0  0  0
    5.1612    9.8958   -1.4929 H   0  0  0  0  0  0  0  0  0  0  0  0
    5.8801    8.0336   -0.0242 H   0  0  0  0  0  0  0  0  0  0  0  0
    4.4786    6.0598    0.2509 H   0  0  0  0  0  0  0  0  0  0  0  0
    4.5722    2.3886   -0.8810 H   0  0  0  0  0  0  0  0  0  0  0  0
    6.1672    0.8818    0.0095 H   0  0  0  0  0  0  0  0  0  0  0  0
    4.8562   -0.0732   -0.6036 H   0  0  0  0  0  0  0  0  0  0  0  0
    5.5956   -0.9132    1.5813 H   0  0  0  0  0  0  0  0  0  0  0  0
    3.9608   -0.3081    1.7816 H   0  0  0  0  0  0  0  0  0  0  0  0
    5.6518   -0.6984    4.0235 H   0  0  0  0  0  0  0  0  0  0  0  0
    4.0845    0.1276    4.0989 H   0  0  0  0  0  0  0  0  0  0  0  0
    5.5401    0.8996    4.7606 H   0  0  0  0  0  0  0  0  0  0  0  0
    5.2984    2.8781    3.2811 H   0  0  0  0  0  0  0  0  0  0  0  0
    3.7340    2.1425    2.9175 H   0  0  0  0  0  0  0  0  0  0  0  0
    5.8651    3.0983    0.9699 H   0  0  0  0  0  0  0  0  0  0  0  0
    4.3159    3.8074    1.2904 H   0  0  0  0  0  0  0  0  0  0  0  0
  1 30  1  0  0  0  0
  1 31  1  0  0  0  0
  1 32  1  0  0  0  0
  2  9  1  0  0  0  0
  2  3  1  0  0  0  0
  2  1  1  0  0  0  0
  2 33  1  1  0  0  0
  3  4  1  0  0  0  0
  3  8  2  0  0  0  0
  4  5  2  0  0  0  0
  4 34  1  0  0  0  0
  5  6  1  0  0  0  0
  5 35  1  0  0  0  0
  6  7  2  0  0  0  0
  6 36  1  0  0  0  0
  7  8  1  0  0  0  0
  7 37  1  0  0  0  0
  8 38  1  0  0  0  0
  9 10  1  0  0  0  0
  9 23  1  0  0  0  0
 10 11  2  0  0  0  0
 10 12  1  0  0  0  0
 12 13  1  0  0  0  0
 12 39  1  0  0  0  0
 12 40  1  0  0  0  0
 13 14  1  0  0  0  0
 13 22  2  0  0  0  0
 14 15  2  0  0  0  0
 14 41  1  0  0  0  0
 15 16  1  0  0  0  0
 16 17  2  0  0  0  0
 16 42  1  0  0  0  0
 17 18  1  0  0  0  0
 17 22  1  0  0  0  0
 18 19  2  0  0  0  0
 18 43  1  0  0  0  0
 19 20  1  0  0  0  0
 19 44  1  0  0  0  0
 20 21  2  0  0  0  0
 20 45  1  0  0  0  0
 21 22  1  0  0  0  0
 21 46  1  0  0  0  0
 23 24  1  0  0  0  0
 23 29  1  0  0  0  0
 23 47  1  0  0  0  0
 24 25  1  0  0  0  0
 24 48  1  0  0  0  0
 24 49  1  0  0  0  0
 25 26  1  0  0  0  0
 25 50  1  0  0  0  0
 25 51  1  0  0  0  0
 26 27  1  0  0  0  0
 26 28  1  0  0  0  0
 27 52  1  0  0  0  0
 27 53  1  0  0  0  0
 27 54  1  0  0  0  0
 28 29  1  0  0  0  0
 28 55  1  0  0  0  0
 28 56  1  0  0  0  0
 29 57  1  0  0  0  0
 29 58  1  0  0  0  0
M  END
$$$$
