
 OpenBabel07202414153D

 47 50  0  0  1  0  0  0  0  0999 V2000
    3.0757   -1.2114   -0.5601 C   0  0  0  0  0  0  0  0  0  0  0  0
    2.4359    0.0654    0.0609 C   0  0  1  0  0  0  0  0  0  0  0  0
    0.8978   -0.0635   -0.1026 C   0  0  0  0  0  0  0  0  0  0  0  0
    0.4190   -1.0350   -0.6925 O   0  0  0  0  0  0  0  0  0  0  0  0
    0.1348    0.9712    0.4198 N   0  0  0  0  0  0  0  0  0  0  0  0
   -1.2801    1.0634    0.3526 C   0  0  0  0  0  0  0  0  0  0  0  0
   -2.0860   -0.0583    0.1273 C   0  0  0  0  0  0  0  0  0  0  0  0
   -3.4362   -0.0389    0.0092 N   0  0  0  0  0  0  0  0  0  0  0  0
   -4.0222    1.1646    0.1047 C   0  0  0  0  0  0  0  0  0  0  0  0
   -3.3379    2.3502    0.3620 C   0  0  0  0  0  0  0  0  0  0  0  0
   -1.9315    2.3050    0.5036 C   0  0  0  0  0  0  0  0  0  0  0  0
   -1.1808    3.5795    0.8339 C   0  0  0  0  0  0  0  0  0  0  0  0
   -1.9495    4.8561    0.4849 C   0  0  0  0  0  0  0  0  0  0  0  0
   -3.3726    4.7922    1.0190 C   0  0  0  0  0  0  0  0  0  0  0  0
   -4.1220    3.6356    0.3721 C   0  0  0  0  0  0  0  0  0  0  0  0
    2.7781    0.0113    1.5652 C   0  0  0  0  0  0  0  0  0  0  0  0
    2.3873    1.2676    2.2428 N   0  0  0  0  0  0  0  0  0  0  0  0
    3.3592    2.5828    1.8238 S   0  0  0  0  0  0  0  0  0  0  0  0
    2.6208    3.7607    2.2104 O   0  0  0  0  0  0  0  0  0  0  0  0
    4.6922    2.2963    2.2962 O   0  0  0  0  0  0  0  0  0  0  0  0
    3.3757    2.4895    0.0546 C   0  0  0  0  0  0  0  0  0  0  0  0
    3.8041    3.6442   -0.6193 C   0  0  0  0  0  0  0  0  0  0  0  0
    3.8647    3.6575   -2.0097 C   0  0  0  0  0  0  0  0  0  0  0  0
    3.4868    2.5240   -2.7199 C   0  0  0  0  0  0  0  0  0  0  0  0
    3.5828    2.5266   -4.4376 Cl  0  0  0  0  0  0  0  0  0  0  0  0
    3.0295    1.3825   -2.0515 C   0  0  0  0  0  0  0  0  0  0  0  0
    2.9665    1.3313   -0.6417 C   0  0  0  0  0  0  0  0  0  0  0  0
    4.1665   -1.1673   -0.5479 H   0  0  0  0  0  0  0  0  0  0  0  0
    2.7611   -1.3714   -1.6005 H   0  0  0  0  0  0  0  0  0  0  0  0
    2.7635   -2.1100   -0.0130 H   0  0  0  0  0  0  0  0  0  0  0  0
    0.6310    1.7653    0.8098 H   0  0  0  0  0  0  0  0  0  0  0  0
   -1.6776   -1.0611    0.0637 H   0  0  0  0  0  0  0  0  0  0  0  0
   -5.0987    1.1539   -0.0430 H   0  0  0  0  0  0  0  0  0  0  0  0
   -0.2251    3.6168    0.3005 H   0  0  0  0  0  0  0  0  0  0  0  0
   -0.9640    3.5732    1.9100 H   0  0  0  0  0  0  0  0  0  0  0  0
   -1.9725    4.9876   -0.6046 H   0  0  0  0  0  0  0  0  0  0  0  0
   -1.4312    5.7265    0.9021 H   0  0  0  0  0  0  0  0  0  0  0  0
   -3.8992    5.7308    0.8114 H   0  0  0  0  0  0  0  0  0  0  0  0
   -3.3557    4.6655    2.1084 H   0  0  0  0  0  0  0  0  0  0  0  0
   -4.3542    3.8937   -0.6695 H   0  0  0  0  0  0  0  0  0  0  0  0
   -5.0753    3.4922    0.8941 H   0  0  0  0  0  0  0  0  0  0  0  0
    3.8492   -0.1701    1.7284 H   0  0  0  0  0  0  0  0  0  0  0  0
    2.2493   -0.8140    2.0574 H   0  0  0  0  0  0  0  0  0  0  0  0
    2.4164    1.1685    3.2624 H   0  0  0  0  0  0  0  0  0  0  0  0
    4.0968    4.5333   -0.0619 H   0  0  0  0  0  0  0  0  0  0  0  0
    4.2061    4.5491   -2.5298 H   0  0  0  0  0  0  0  0  0  0  0  0
    2.7210    0.5298   -2.6546 H   0  0  0  0  0  0  0  0  0  0  0  0
  1 28  1  0  0  0  0
  1 29  1  0  0  0  0
  1 30  1  0  0  0  0
  2 16  1  0  0  0  0
  2 27  1  0  0  0  0
  2  3  1  6  0  0  0
  2  1  1  0  0  0  0
  3  4  2  0  0  0  0
  3  5  1  0  0  0  0
  5  6  1  0  0  0  0
  5 31  1  0  0  0  0
  6  7  1  0  0  0  0
  6 11  2  0  0  0  0
  7  8  2  0  0  0  0
  7 32  1  0  0  0  0
  8  9  1  0  0  0  0
  9 10  2  0  0  0  0
  9 33  1  0  0  0  0
 10 11  1  0  0  0  0
 10 15  1  0  0  0  0
 11 12  1  0  0  0  0
 12 13  1  0  0  0  0
 12 34  1  0  0  0  0
 12 35  1  0  0  0  0
 13 14  1  0  0  0  0
 13 36  1  0  0  0  0
 13 37  1  0  0  0  0
 14 15  1  0  0  0  0
 14 38  1  0  0  0  0
 14 39  1  0  0  0  0
 15 40  1  0  0  0  0
 15 41  1  0  0  0  0
 16 17  1  0  0  0  0
 16 42  1  0  0  0  0
 16 43  1  0  0  0  0
 17 18  1  0  0  0  0
 17 44  1  0  0  0  0
 18 19  2  0  0  0  0
 18 20  2  0  0  0  0
 18 21  1  0  0  0  0
 21 22  1  0  0  0  0
 21 27  2  0  0  0  0
 22 23  2  0  0  0  0
 22 45  1  0  0  0  0
 23 24  1  0  0  0  0
 23 46  1  0  0  0  0
 24 25  1  0  0  0  0
 24 26  2  0  0  0  0
 26 27  1  0  0  0  0
 26 47  1  0  0  0  0
M  END
$$$$
