
 OpenBabel07202414193D

 62 66  0  0  1  0  0  0  0  0999 V2000
   -5.0249    4.4270   -1.0939 F   0  0  0  0  0  0  0  0  0  0  0  0
   -4.3557    3.2576   -1.0912 C   0  0  0  0  0  0  0  0  0  0  0  0
   -2.9667    3.2775   -1.1185 C   0  0  0  0  0  0  0  0  0  0  0  0
   -2.2722    2.0712   -1.1093 C   0  0  0  0  0  0  0  0  0  0  0  0
   -2.9730    0.8634   -1.0859 C   0  0  0  0  0  0  0  0  0  0  0  0
   -4.3738    0.8525   -1.0740 C   0  0  0  0  0  0  0  0  0  0  0  0
   -5.1218   -0.4531   -1.0800 C   0  0  0  0  0  0  0  0  0  0  0  0
   -5.3831   -0.9884    0.3228 C   0  0  0  0  0  0  0  0  0  0  0  0
   -6.1678   -2.2061    0.2715 N   0  0  0  0  0  0  0  0  0  0  0  0
   -5.6148   -3.4341   -0.0051 C   0  0  0  0  0  0  0  0  0  0  0  0
   -4.4229   -3.5704   -0.2823 O   0  0  0  0  0  0  0  0  0  0  0  0
   -6.5622   -4.6582    0.1099 C   0  0  3  0  0  0  0  0  0  0  0  0
   -6.2999   -5.5156    1.3015 N   0  0  0  0  0  0  0  0  0  0  0  0
   -6.4710   -5.2150    2.6717 C   0  0  0  0  0  0  0  0  0  0  0  0
   -6.1960   -6.0612    3.5307 O   0  0  0  0  0  0  0  0  0  0  0  0
   -6.9526   -3.9195    3.1640 C   0  0  0  0  0  0  0  0  0  0  0  0
   -7.1379   -3.6466    4.5079 C   0  0  0  0  0  0  0  0  0  0  0  0
   -7.6902   -2.4125    4.6411 O   0  0  0  0  0  0  0  0  0  0  0  0
   -7.8067   -1.9755    3.3643 C   0  0  0  0  0  0  0  0  0  0  0  0
   -7.3704   -2.8139    2.4481 N   0  0  0  0  0  0  0  0  0  0  0  0
   -5.7653   -6.8259    1.0101 C   0  0  0  0  0  0  0  0  0  0  0  0
   -6.3428   -7.9837    1.5004 C   0  0  0  0  0  0  0  0  0  0  0  0
   -5.8456   -9.2249    1.3123 N   0  0  0  0  0  0  0  0  0  0  0  0
   -4.7005   -9.3134    0.6153 C   0  0  0  0  0  0  0  0  0  0  0  0
   -4.0882  -10.7364    0.4649 C   0  0  0  0  0  0  0  0  0  0  0  0
   -3.2035  -11.0775   -0.7650 C   0  0  0  0  0  0  0  0  0  0  0  0
   -3.8402  -12.4799   -0.7719 C   0  0  0  0  0  0  0  0  0  0  0  0
   -5.0354  -11.8735   -0.0196 C   0  0  0  0  0  0  0  0  0  0  0  0
   -4.0534   -8.2624    0.0749 N   0  0  0  0  0  0  0  0  0  0  0  0
   -4.6049   -7.0408    0.2852 C   0  0  0  0  0  0  0  0  0  0  0  0
   -8.0166   -4.4134   -0.2965 C   0  0  0  0  0  0  0  0  0  0  0  0
   -9.0805   -4.1921    0.5795 C   0  0  0  0  0  0  0  0  0  0  0  0
  -10.3159   -3.7526    0.1077 C   0  0  0  0  0  0  0  0  0  0  0  0
  -10.4940   -3.6396   -1.2555 C   0  0  0  0  0  0  0  0  0  0  0  0
   -9.5338   -3.9391   -2.1503 N   0  0  0  0  0  0  0  0  0  0  0  0
   -8.3272   -4.3065   -1.6564 C   0  0  0  0  0  0  0  0  0  0  0  0
   -5.0646    2.0693   -1.0648 C   0  0  0  0  0  0  0  0  0  0  0  0
   -2.4363    4.2248   -1.1458 H   0  0  0  0  0  0  0  0  0  0  0  0
   -1.1866    2.0666   -1.1294 H   0  0  0  0  0  0  0  0  0  0  0  0
   -2.4175   -0.0735   -1.0899 H   0  0  0  0  0  0  0  0  0  0  0  0
   -4.5636   -1.1903   -1.6699 H   0  0  0  0  0  0  0  0  0  0  0  0
   -6.0762   -0.3228   -1.6065 H   0  0  0  0  0  0  0  0  0  0  0  0
   -5.9590   -0.2635    0.9117 H   0  0  0  0  0  0  0  0  0  0  0  0
   -4.4500   -1.1857    0.8637 H   0  0  0  0  0  0  0  0  0  0  0  0
   -6.9898   -2.2355    0.8719 H   0  0  0  0  0  0  0  0  0  0  0  0
   -6.2087   -5.2639   -0.7412 H   0  0  0  0  0  0  0  0  0  0  0  0
   -6.9698   -4.2028    5.4193 H   0  0  0  0  0  0  0  0  0  0  0  0
   -8.2501   -0.9989    3.2210 H   0  0  0  0  0  0  0  0  0  0  0  0
   -7.2664   -7.9569    2.0710 H   0  0  0  0  0  0  0  0  0  0  0  0
   -3.5774  -11.0304    1.3961 H   0  0  0  0  0  0  0  0  0  0  0  0
   -2.1243  -11.0615   -0.5874 H   0  0  0  0  0  0  0  0  0  0  0  0
   -3.4252  -10.4914   -1.6637 H   0  0  0  0  0  0  0  0  0  0  0  0
   -3.2855  -13.2251   -0.1911 H   0  0  0  0  0  0  0  0  0  0  0  0
   -4.0664  -12.8910   -1.7593 H   0  0  0  0  0  0  0  0  0  0  0  0
   -5.4617  -12.5011    0.7684 H   0  0  0  0  0  0  0  0  0  0  0  0
   -5.8437  -11.5360   -0.6793 H   0  0  0  0  0  0  0  0  0  0  0  0
   -4.0215   -6.2178   -0.1202 H   0  0  0  0  0  0  0  0  0  0  0  0
   -8.9833   -4.3166    1.6484 H   0  0  0  0  0  0  0  0  0  0  0  0
  -11.1127   -3.4937    0.7965 H   0  0  0  0  0  0  0  0  0  0  0  0
  -11.4368   -3.2979   -1.6720 H   0  0  0  0  0  0  0  0  0  0  0  0
   -7.5891   -4.5145   -2.4293 H   0  0  0  0  0  0  0  0  0  0  0  0
   -6.1499    2.1014   -1.0503 H   0  0  0  0  0  0  0  0  0  0  0  0
  1  2  1  0  0  0  0
  2  3  1  0  0  0  0
  2 37  2  0  0  0  0
  3  4  2  0  0  0  0
  3 38  1  0  0  0  0
  4  5  1  0  0  0  0
  4 39  1  0  0  0  0
  5  6  2  0  0  0  0
  5 40  1  0  0  0  0
  6  7  1  0  0  0  0
  6 37  1  0  0  0  0
  7  8  1  0  0  0  0
  7 41  1  0  0  0  0
  7 42  1  0  0  0  0
  8  9  1  0  0  0  0
  8 43  1  0  0  0  0
  8 44  1  0  0  0  0
  9 10  1  0  0  0  0
  9 45  1  0  0  0  0
 10 11  2  0  0  0  0
 10 12  1  0  0  0  0
 12 13  1  0  0  0  0
 12 31  1  0  0  0  0
 12 46  1  0  0  0  0
 13 14  1  0  0  0  0
 13 21  1  0  0  0  0
 14 15  2  0  0  0  0
 14 16  1  0  0  0  0
 16 17  2  0  0  0  0
 16 20  1  0  0  0  0
 17 18  1  0  0  0  0
 17 47  1  0  0  0  0
 18 19  1  0  0  0  0
 19 20  2  0  0  0  0
 19 48  1  0  0  0  0
 21 22  1  0  0  0  0
 21 30  2  0  0  0  0
 22 23  2  0  0  0  0
 22 49  1  0  0  0  0
 23 24  1  0  0  0  0
 24 25  1  0  0  0  0
 24 29  2  0  0  0  0
 25 26  1  0  0  0  0
 25 28  1  0  0  0  0
 25 50  1  0  0  0  0
 26 27  1  0  0  0  0
 26 51  1  0  0  0  0
 26 52  1  0  0  0  0
 27 28  1  0  0  0  0
 27 53  1  0  0  0  0
 27 54  1  0  0  0  0
 28 55  1  0  0  0  0
 28 56  1  0  0  0  0
 29 30  1  0  0  0  0
 30 57  1  0  0  0  0
 31 32  1  0  0  0  0
 31 36  2  0  0  0  0
 32 33  2  0  0  0  0
 32 58  1  0  0  0  0
 33 34  1  0  0  0  0
 33 59  1  0  0  0  0
 34 35  2  0  0  0  0
 34 60  1  0  0  0  0
 35 36  1  0  0  0  0
 36 61  1  0  0  0  0
 37 62  1  0  0  0  0
M  END
$$$$
