
 OpenBabel07202414173D

 51 54  0  0  1  0  0  0  0  0999 V2000
    0.8534    0.0526   -0.4924 Cl  0  0  0  0  0  0  0  0  0  0  0  0
    2.5849    0.2226   -0.8290 C   0  0  0  0  0  0  0  0  0  0  0  0
    3.1837    1.4745   -0.2053 C   0  0  0  0  0  0  0  0  0  0  0  0
    2.5001    2.3300    0.3563 O   0  0  0  0  0  0  0  0  0  0  0  0
    4.5737    1.5977   -0.3070 N   0  0  0  0  0  0  0  0  0  0  0  0
    5.4512    0.7127   -1.0816 C   0  0  0  0  0  0  0  0  0  0  0  0
    6.6910    0.2809   -0.2752 C   0  0  0  0  0  0  0  0  0  0  0  0
    7.4143    1.4363    0.3618 N   0  0  0  0  0  0  0  0  0  0  0  0
    8.3499    2.3995   -0.7163 S   0  0  0  0  0  0  0  0  0  0  0  0
    7.5949    2.6285   -1.9224 O   0  0  0  0  0  0  0  0  0  0  0  0
    8.9159    3.4856    0.0516 O   0  0  0  0  0  0  0  0  0  0  0  0
    9.7408    1.5018   -1.2345 C   0  0  0  0  0  0  0  0  0  0  0  0
   10.0162    1.1420   -2.5904 C   0  0  0  0  0  0  0  0  0  0  0  0
   11.1818    0.4145   -2.7049 C   0  0  0  0  0  0  0  0  0  0  0  0
   11.9720    0.2288   -1.1976 S   0  0  0  0  0  0  0  0  0  0  0  0
   10.7477    1.1047   -0.3805 C   0  0  0  0  0  0  0  0  0  0  0  0
    6.4506    2.2705    1.1949 C   0  0  2  0  0  0  0  0  0  0  0  0
    5.9071    1.5464    2.4349 C   0  0  0  0  0  0  0  0  0  0  0  0
    4.7939    1.8369    2.8730 O   0  0  0  0  0  0  0  0  0  0  0  0
    6.7666    0.6459    3.0564 N   0  0  0  0  0  0  0  0  0  0  0  0
    6.4175   -0.1090    4.2103 C   0  0  0  0  0  0  0  0  0  0  0  0
    5.0879   -0.3145    4.5914 C   0  0  0  0  0  0  0  0  0  0  0  0
    4.7622   -0.9451    5.7924 C   0  0  0  0  0  0  0  0  0  0  0  0
    5.7648   -1.4112    6.6404 C   0  0  0  0  0  0  0  0  0  0  0  0
    5.4378   -2.0042    7.8693 C   0  0  0  0  0  0  0  0  0  0  0  0
    6.4393   -2.4561    8.7244 C   0  0  0  0  0  0  0  0  0  0  0  0
    7.7742   -2.3215    8.3554 C   0  0  0  0  0  0  0  0  0  0  0  0
    8.1115   -1.7375    7.1291 C   0  0  0  0  0  0  0  0  0  0  0  0
    7.1175   -1.2701    6.2516 C   0  0  0  0  0  0  0  0  0  0  0  0
    7.4279   -0.6407    5.0207 C   0  0  0  0  0  0  0  0  0  0  0  0
    5.2435    2.7414    0.3416 C   0  0  0  0  0  0  0  0  0  0  0  0
    2.7143    0.2578   -1.9141 H   0  0  0  0  0  0  0  0  0  0  0  0
    3.0751   -0.6615   -0.4133 H   0  0  0  0  0  0  0  0  0  0  0  0
    5.7210    1.2535   -1.9916 H   0  0  0  0  0  0  0  0  0  0  0  0
    4.9263   -0.1832   -1.4169 H   0  0  0  0  0  0  0  0  0  0  0  0
    7.3792   -0.2999   -0.8958 H   0  0  0  0  0  0  0  0  0  0  0  0
    6.3663   -0.3951    0.5272 H   0  0  0  0  0  0  0  0  0  0  0  0
    9.3954    1.4031   -3.4408 H   0  0  0  0  0  0  0  0  0  0  0  0
   11.6187   -0.0035   -3.6029 H   0  0  0  0  0  0  0  0  0  0  0  0
   10.8345    1.2962    0.6807 H   0  0  0  0  0  0  0  0  0  0  0  0
    6.9784    3.1451    1.5944 H   0  0  0  0  0  0  0  0  0  0  0  0
    7.7379    0.6616    2.7673 H   0  0  0  0  0  0  0  0  0  0  0  0
    4.2561    0.0161    3.9766 H   0  0  0  0  0  0  0  0  0  0  0  0
    3.7125   -1.0387    6.0619 H   0  0  0  0  0  0  0  0  0  0  0  0
    4.3977   -2.1078    8.1723 H   0  0  0  0  0  0  0  0  0  0  0  0
    6.1751   -2.9067    9.6778 H   0  0  0  0  0  0  0  0  0  0  0  0
    8.5562   -2.6657    9.0272 H   0  0  0  0  0  0  0  0  0  0  0  0
    9.1632   -1.6343    6.8735 H   0  0  0  0  0  0  0  0  0  0  0  0
    8.4713   -0.5255    4.7385 H   0  0  0  0  0  0  0  0  0  0  0  0
    5.5668    3.4200   -0.4549 H   0  0  0  0  0  0  0  0  0  0  0  0
    4.5361    3.3104    0.9550 H   0  0  0  0  0  0  0  0  0  0  0  0
  1  2  1  0  0  0  0
  2  3  1  0  0  0  0
  2 32  1  0  0  0  0
  2 33  1  0  0  0  0
  3  4  2  0  0  0  0
  3  5  1  0  0  0  0
  5  6  1  0  0  0  0
  5 31  1  0  0  0  0
  6  7  1  0  0  0  0
  6 34  1  0  0  0  0
  6 35  1  0  0  0  0
  7  8  1  0  0  0  0
  7 36  1  0  0  0  0
  7 37  1  0  0  0  0
  8  9  1  0  0  0  0
  8 17  1  0  0  0  0
  9 10  2  0  0  0  0
  9 11  2  0  0  0  0
  9 12  1  0  0  0  0
 12 13  1  0  0  0  0
 12 16  2  0  0  0  0
 13 14  2  0  0  0  0
 13 38  1  0  0  0  0
 14 15  1  0  0  0  0
 14 39  1  0  0  0  0
 15 16  1  0  0  0  0
 16 40  1  0  0  0  0
 17 31  1  0  0  0  0
 17 18  1  0  0  0  0
 17 41  1  1  0  0  0
 18 19  2  0  0  0  0
 18 20  1  0  0  0  0
 20 21  1  0  0  0  0
 20 42  1  0  0  0  0
 21 22  1  0  0  0  0
 21 30  2  0  0  0  0
 22 23  2  0  0  0  0
 22 43  1  0  0  0  0
 23 24  1  0  0  0  0
 23 44  1  0  0  0  0
 24 25  1  0  0  0  0
 24 29  2  0  0  0  0
 25 26  2  0  0  0  0
 25 45  1  0  0  0  0
 26 27  1  0  0  0  0
 26 46  1  0  0  0  0
 27 28  2  0  0  0  0
 27 47  1  0  0  0  0
 28 29  1  0  0  0  0
 28 48  1  0  0  0  0
 29 30  1  0  0  0  0
 30 49  1  0  0  0  0
 31 50  1  0  0  0  0
 31 51  1  0  0  0  0
M  END
$$$$
