
 OpenBabel07202414163D

 53 57  0  0  0  0  0  0  0  0999 V2000
   -2.0487   -0.2296   -0.1572 Cl  0  0  0  0  0  0  0  0  0  0  0  0
   -0.3313   -0.1247   -0.1411 C   0  0  0  0  0  0  0  0  0  0  0  0
    0.2882    1.1194   -0.1341 C   0  0  0  0  0  0  0  0  0  0  0  0
    1.6855    1.2227   -0.1048 C   0  0  0  0  0  0  0  0  0  0  0  0
    2.3242    2.4784   -0.0178 N   0  0  0  0  0  0  0  0  0  0  0  0
    1.8672    3.6746    0.5679 C   0  0  0  0  0  0  0  0  0  0  0  0
    1.0172    3.6730    1.6825 C   0  0  0  0  0  0  0  0  0  0  0  0
    0.4893    4.8560    2.2121 C   0  0  0  0  0  0  0  0  0  0  0  0
    0.7901    6.0840    1.6126 C   0  0  0  0  0  0  0  0  0  0  0  0
    0.2279    7.2960    2.1025 N   0  0  0  0  0  0  0  0  0  0  0  0
   -0.6119    7.4672    3.1856 C   0  0  0  0  0  0  0  0  0  0  0  0
   -0.9483    8.7985    3.2399 C   0  0  0  0  0  0  0  0  0  0  0  0
   -0.2592    9.3737    2.1647 C   0  0  0  0  0  0  0  0  0  0  0  0
    0.4637    8.4847    1.4819 N   0  0  0  0  0  0  0  0  0  0  0  0
    1.6481    6.0999    0.5011 C   0  0  0  0  0  0  0  0  0  0  0  0
    2.1801    4.9136   -0.0113 C   0  0  0  0  0  0  0  0  0  0  0  0
    2.4497    0.0379   -0.0749 C   0  0  0  0  0  0  0  0  0  0  0  0
    1.8320   -1.2276   -0.0898 C   0  0  0  0  0  0  0  0  0  0  0  0
    2.5771   -2.5350    0.0613 C   0  0  0  0  0  0  0  0  0  0  0  0
    3.9937   -2.5935   -0.4591 C   0  0  0  0  0  0  0  0  0  0  0  0
    4.9556   -2.5861    0.3054 O   0  0  0  0  0  0  0  0  0  0  0  0
    4.0833   -2.6723   -1.8454 N   0  0  0  0  0  0  0  0  0  0  0  0
    5.3670   -2.7682   -2.4404 C   0  0  0  0  0  0  0  0  0  0  0  0
    6.2201   -3.8196   -2.0939 C   0  0  0  0  0  0  0  0  0  0  0  0
    7.4865   -3.9531   -2.5423 N   0  0  0  0  0  0  0  0  0  0  0  0
    7.9722   -2.9085   -3.2431 C   0  0  0  0  0  0  0  0  0  0  0  0
    7.2431   -1.7583   -3.5588 C   0  0  0  0  0  0  0  0  0  0  0  0
    7.8620   -0.6148   -4.0878 C   0  0  0  0  0  0  0  0  0  0  0  0
    7.1101    0.5126   -4.4117 C   0  0  0  0  0  0  0  0  0  0  0  0
    5.7255    0.4750   -4.2995 C   0  0  0  0  0  0  0  0  0  0  0  0
    5.1041   -0.6389   -3.7343 C   0  0  0  0  0  0  0  0  0  0  0  0
    5.8627   -1.7389   -3.2688 C   0  0  0  0  0  0  0  0  0  0  0  0
    0.4291   -1.2887   -0.1146 C   0  0  0  0  0  0  0  0  0  0  0  0
   -0.3247    2.0167   -0.1622 H   0  0  0  0  0  0  0  0  0  0  0  0
    3.1712    2.5642   -0.5667 H   0  0  0  0  0  0  0  0  0  0  0  0
    0.7634    2.7324    2.1686 H   0  0  0  0  0  0  0  0  0  0  0  0
   -0.1638    4.7749    3.0739 H   0  0  0  0  0  0  0  0  0  0  0  0
   -0.9069    6.6457    3.8192 H   0  0  0  0  0  0  0  0  0  0  0  0
   -1.5989    9.2805    3.9566 H   0  0  0  0  0  0  0  0  0  0  0  0
   -0.2512   10.4088    1.8482 H   0  0  0  0  0  0  0  0  0  0  0  0
    1.9083    7.0374    0.0134 H   0  0  0  0  0  0  0  0  0  0  0  0
    2.8232    4.9601   -0.8855 H   0  0  0  0  0  0  0  0  0  0  0  0
    3.5335    0.1127    0.0145 H   0  0  0  0  0  0  0  0  0  0  0  0
    2.0236   -3.3349   -0.4477 H   0  0  0  0  0  0  0  0  0  0  0  0
    2.6027   -2.7987    1.1261 H   0  0  0  0  0  0  0  0  0  0  0  0
    3.3863   -2.1224   -2.3302 H   0  0  0  0  0  0  0  0  0  0  0  0
    5.8957   -4.6086   -1.4208 H   0  0  0  0  0  0  0  0  0  0  0  0
    9.0110   -3.0167   -3.5455 H   0  0  0  0  0  0  0  0  0  0  0  0
    8.9449   -0.5762   -4.1886 H   0  0  0  0  0  0  0  0  0  0  0  0
    7.6060    1.4168   -4.7544 H   0  0  0  0  0  0  0  0  0  0  0  0
    5.1299    1.3272   -4.6161 H   0  0  0  0  0  0  0  0  0  0  0  0
    4.0222   -0.6231   -3.6427 H   0  0  0  0  0  0  0  0  0  0  0  0
   -0.0767   -2.2522   -0.0849 H   0  0  0  0  0  0  0  0  0  0  0  0
  1  2  1  0  0  0  0
  2  3  2  0  0  0  0
  2 33  1  0  0  0  0
  3  4  1  0  0  0  0
  3 34  1  0  0  0  0
  4  5  1  0  0  0  0
  4 17  2  0  0  0  0
  5  6  1  0  0  0  0
  5 35  1  0  0  0  0
  6  7  2  0  0  0  0
  6 16  1  0  0  0  0
  7  8  1  0  0  0  0
  7 36  1  0  0  0  0
  8  9  2  0  0  0  0
  8 37  1  0  0  0  0
  9 10  1  0  0  0  0
  9 15  1  0  0  0  0
 10 11  1  0  0  0  0
 10 14  1  0  0  0  0
 11 12  2  0  0  0  0
 11 38  1  0  0  0  0
 12 13  1  0  0  0  0
 12 39  1  0  0  0  0
 13 14  2  0  0  0  0
 13 40  1  0  0  0  0
 15 16  2  0  0  0  0
 15 41  1  0  0  0  0
 16 42  1  0  0  0  0
 17 18  1  0  0  0  0
 17 43  1  0  0  0  0
 18 19  1  0  0  0  0
 18 33  2  0  0  0  0
 19 20  1  0  0  0  0
 19 44  1  0  0  0  0
 19 45  1  0  0  0  0
 20 21  2  0  0  0  0
 20 22  1  0  0  0  0
 22 23  1  0  0  0  0
 22 46  1  0  0  0  0
 23 24  2  0  0  0  0
 23 32  1  0  0  0  0
 24 25  1  0  0  0  0
 24 47  1  0  0  0  0
 25 26  2  0  0  0  0
 26 27  1  0  0  0  0
 26 48  1  0  0  0  0
 27 28  2  0  0  0  0
 27 32  1  0  0  0  0
 28 29  1  0  0  0  0
 28 49  1  0  0  0  0
 29 30  2  0  0  0  0
 29 50  1  0  0  0  0
 30 31  1  0  0  0  0
 30 51  1  0  0  0  0
 31 32  2  0  0  0  0
 31 52  1  0  0  0  0
 33 53  1  0  0  0  0
M  END
$$$$
