
 OpenBabel07202414183D

 34 36  0  0  0  0  0  0  0  0999 V2000
   -1.3156    5.1383   -5.2107 F   0  0  0  0  0  0  0  0  0  0  0  0
   -1.6952    4.5599   -4.0600 C   0  0  0  0  0  0  0  0  0  0  0  0
   -2.7195    3.6131   -4.0878 C   0  0  0  0  0  0  0  0  0  0  0  0
   -3.1286    2.9910   -2.9060 C   0  0  0  0  0  0  0  0  0  0  0  0
   -2.5365    3.3299   -1.6799 C   0  0  0  0  0  0  0  0  0  0  0  0
   -2.8959    2.6482   -0.3763 C   0  0  0  0  0  0  0  0  0  0  0  0
   -4.3190    2.1359   -0.2528 C   0  0  0  0  0  0  0  0  0  0  0  0
   -4.5752    0.9389   -0.3276 O   0  0  0  0  0  0  0  0  0  0  0  0
   -5.2617    3.1359   -0.0814 N   0  0  0  0  0  0  0  0  0  0  0  0
   -6.6431    2.8678    0.0939 C   0  0  0  0  0  0  0  0  0  0  0  0
   -7.0763    1.8241    0.9147 C   0  0  0  0  0  0  0  0  0  0  0  0
   -8.3715    1.5389    1.1711 N   0  0  0  0  0  0  0  0  0  0  0  0
   -9.2878    2.3093    0.5480 C   0  0  0  0  0  0  0  0  0  0  0  0
   -8.9828    3.3656   -0.3139 C   0  0  0  0  0  0  0  0  0  0  0  0
   -9.9946    4.0944   -0.9647 C   0  0  0  0  0  0  0  0  0  0  0  0
   -9.6724    5.1149   -1.8569 C   0  0  0  0  0  0  0  0  0  0  0  0
   -8.3409    5.4247   -2.1001 C   0  0  0  0  0  0  0  0  0  0  0  0
   -7.3280    4.7173   -1.4490 C   0  0  0  0  0  0  0  0  0  0  0  0
   -7.6204    3.6721   -0.5416 C   0  0  0  0  0  0  0  0  0  0  0  0
   -1.4926    4.2745   -1.6750 C   0  0  0  0  0  0  0  0  0  0  0  0
   -1.0774    4.8890   -2.8598 C   0  0  0  0  0  0  0  0  0  0  0  0
    0.2056    6.0356   -2.8109 Cl  0  0  0  0  0  0  0  0  0  0  0  0
   -3.1714    3.3539   -5.0409 H   0  0  0  0  0  0  0  0  0  0  0  0
   -3.9047    2.2285   -2.9650 H   0  0  0  0  0  0  0  0  0  0  0  0
   -2.7297    3.3383    0.4605 H   0  0  0  0  0  0  0  0  0  0  0  0
   -2.2199    1.7971   -0.2295 H   0  0  0  0  0  0  0  0  0  0  0  0
   -4.9999    4.0635   -0.3885 H   0  0  0  0  0  0  0  0  0  0  0  0
   -6.3708    1.1864    1.4423 H   0  0  0  0  0  0  0  0  0  0  0  0
  -10.3192    2.0345    0.7598 H   0  0  0  0  0  0  0  0  0  0  0  0
  -11.0422    3.8543   -0.7965 H   0  0  0  0  0  0  0  0  0  0  0  0
  -10.4611    5.6587   -2.3707 H   0  0  0  0  0  0  0  0  0  0  0  0
   -8.0839    6.2063   -2.8111 H   0  0  0  0  0  0  0  0  0  0  0  0
   -6.3036    4.9756   -1.6980 H   0  0  0  0  0  0  0  0  0  0  0  0
   -0.9861    4.5214   -0.7436 H   0  0  0  0  0  0  0  0  0  0  0  0
  1  2  1  0  0  0  0
  2  3  1  0  0  0  0
  2 21  2  0  0  0  0
  3  4  2  0  0  0  0
  3 23  1  0  0  0  0
  4  5  1  0  0  0  0
  4 24  1  0  0  0  0
  5  6  1  0  0  0  0
  5 20  2  0  0  0  0
  6  7  1  0  0  0  0
  6 25  1  0  0  0  0
  6 26  1  0  0  0  0
  7  8  2  0  0  0  0
  7  9  1  0  0  0  0
  9 10  1  0  0  0  0
  9 27  1  0  0  0  0
 10 11  1  0  0  0  0
 10 19  2  0  0  0  0
 11 12  2  0  0  0  0
 11 28  1  0  0  0  0
 12 13  1  0  0  0  0
 13 14  2  0  0  0  0
 13 29  1  0  0  0  0
 14 15  1  0  0  0  0
 14 19  1  0  0  0  0
 15 16  2  0  0  0  0
 15 30  1  0  0  0  0
 16 17  1  0  0  0  0
 16 31  1  0  0  0  0
 17 18  2  0  0  0  0
 17 32  1  0  0  0  0
 18 19  1  0  0  0  0
 18 33  1  0  0  0  0
 20 21  1  0  0  0  0
 20 34  1  0  0  0  0
 21 22  1  0  0  0  0
M  END
$$$$
