
 OpenBabel07202414163D

 52 56  0  0  1  0  0  0  0  0999 V2000
    3.8838   -1.7649   -4.6954 C   0  0  0  0  0  0  0  0  0  0  0  0
    3.8441   -1.8618   -3.2109 C   0  0  0  0  0  0  0  0  0  0  0  0
    2.7693   -2.1604   -2.5127 N   0  0  0  0  0  0  0  0  0  0  0  0
    3.0629   -2.1815   -1.1554 C   0  0  0  0  0  0  0  0  0  0  0  0
    1.9668   -2.4564   -0.1586 C   0  0  0  0  0  0  0  0  0  0  0  0
    1.4679   -3.8619   -0.1816 N   0  0  0  0  0  0  0  0  0  0  0  0
    0.6846   -4.1276   -1.4158 C   0  0  0  0  0  0  0  0  0  0  0  0
    0.1298   -5.5653   -1.4643 C   0  0  3  0  0  0  0  0  0  0  0  0
    1.1816   -6.6416   -1.8084 C   0  0  0  0  0  0  0  0  0  0  0  0
    0.8368   -7.6651   -2.3951 O   0  0  0  0  0  0  0  0  0  0  0  0
    2.4648   -6.3697   -1.3674 N   0  0  0  0  0  0  0  0  0  0  0  0
    3.6086   -7.2126   -1.4228 C   0  0  0  0  0  0  0  0  0  0  0  0
    3.5661   -8.5173   -1.9166 C   0  0  0  0  0  0  0  0  0  0  0  0
    4.5772   -9.4140   -1.8118 N   0  0  0  0  0  0  0  0  0  0  0  0
    5.7148   -8.9787   -1.2350 C   0  0  0  0  0  0  0  0  0  0  0  0
    5.9401   -7.6653   -0.8332 C   0  0  0  0  0  0  0  0  0  0  0  0
    7.2090   -7.2555   -0.3744 C   0  0  0  0  0  0  0  0  0  0  0  0
    7.4381   -5.9326   -0.0150 C   0  0  0  0  0  0  0  0  0  0  0  0
    6.3922   -5.0307   -0.0798 C   0  0  0  0  0  0  0  0  0  0  0  0
    6.6034   -3.7544    0.2711 F   0  0  0  0  0  0  0  0  0  0  0  0
    5.1254   -5.4225   -0.5110 C   0  0  0  0  0  0  0  0  0  0  0  0
    4.8609   -6.7522   -0.9188 C   0  0  0  0  0  0  0  0  0  0  0  0
   -0.6358   -5.8993   -0.1987 C   0  0  0  0  0  0  0  0  0  0  0  0
   -1.6319   -6.8924   -0.2074 C   0  0  0  0  0  0  0  0  0  0  0  0
   -2.3702   -7.1572    0.9434 C   0  0  0  0  0  0  0  0  0  0  0  0
   -3.6370   -8.3224    0.9053 Cl  0  0  0  0  0  0  0  0  0  0  0  0
   -2.1131   -6.4626    2.1213 C   0  0  0  0  0  0  0  0  0  0  0  0
   -1.1173   -5.4800    2.1404 C   0  0  0  0  0  0  0  0  0  0  0  0
   -0.3766   -5.1858    0.9819 C   0  0  0  0  0  0  0  0  0  0  0  0
    0.5780   -4.0103    1.0038 C   0  0  0  0  0  0  0  0  0  0  0  0
    4.3696   -1.8415   -0.8553 C   0  0  0  0  0  0  0  0  0  0  0  0
    5.2593   -1.5585   -2.2912 S   0  0  0  0  0  0  0  0  0  0  0  0
    2.8858   -1.9269   -5.1151 H   0  0  0  0  0  0  0  0  0  0  0  0
    4.5550   -2.5189   -5.1180 H   0  0  0  0  0  0  0  0  0  0  0  0
    4.2235   -0.7732   -5.0110 H   0  0  0  0  0  0  0  0  0  0  0  0
    1.1528   -1.7421   -0.3248 H   0  0  0  0  0  0  0  0  0  0  0  0
    2.3775   -2.2494    0.8398 H   0  0  0  0  0  0  0  0  0  0  0  0
    1.3094   -4.0010   -2.3063 H   0  0  0  0  0  0  0  0  0  0  0  0
   -0.1440   -3.4108   -1.4957 H   0  0  0  0  0  0  0  0  0  0  0  0
   -0.5839   -5.5752   -2.2988 H   0  0  0  0  0  0  0  0  0  0  0  0
    2.5636   -5.4984   -0.8561 H   0  0  0  0  0  0  0  0  0  0  0  0
    2.6945   -8.9209   -2.4222 H   0  0  0  0  0  0  0  0  0  0  0  0
    6.4760   -9.7455   -1.1152 H   0  0  0  0  0  0  0  0  0  0  0  0
    8.0339   -7.9646   -0.3255 H   0  0  0  0  0  0  0  0  0  0  0  0
    8.4210   -5.5997    0.3030 H   0  0  0  0  0  0  0  0  0  0  0  0
    4.3654   -4.6569   -0.5656 H   0  0  0  0  0  0  0  0  0  0  0  0
   -1.8465   -7.4426   -1.1229 H   0  0  0  0  0  0  0  0  0  0  0  0
   -2.6880   -6.6612    3.0164 H   0  0  0  0  0  0  0  0  0  0  0  0
   -0.9456   -4.9249    3.0582 H   0  0  0  0  0  0  0  0  0  0  0  0
    1.2128   -4.0970    1.8951 H   0  0  0  0  0  0  0  0  0  0  0  0
   -0.0472   -3.1134    1.1200 H   0  0  0  0  0  0  0  0  0  0  0  0
    4.8414   -1.7560    0.1126 H   0  0  0  0  0  0  0  0  0  0  0  0
  1  2  1  0  0  0  0
  1 33  1  0  0  0  0
  1 34  1  0  0  0  0
  1 35  1  0  0  0  0
  2  3  2  0  0  0  0
  2 32  1  0  0  0  0
  3  4  1  0  0  0  0
  4  5  1  0  0  0  0
  4 31  2  0  0  0  0
  5  6  1  0  0  0  0
  5 36  1  0  0  0  0
  5 37  1  0  0  0  0
  6  7  1  0  0  0  0
  6 30  1  0  0  0  0
  7  8  1  0  0  0  0
  7 38  1  0  0  0  0
  7 39  1  0  0  0  0
  8  9  1  0  0  0  0
  8 23  1  0  0  0  0
  8 40  1  0  0  0  0
  9 10  2  0  0  0  0
  9 11  1  0  0  0  0
 11 12  1  0  0  0  0
 11 41  1  0  0  0  0
 12 13  1  0  0  0  0
 12 22  2  0  0  0  0
 13 14  2  0  0  0  0
 13 42  1  0  0  0  0
 14 15  1  0  0  0  0
 15 16  2  0  0  0  0
 15 43  1  0  0  0  0
 16 17  1  0  0  0  0
 16 22  1  0  0  0  0
 17 18  2  0  0  0  0
 17 44  1  0  0  0  0
 18 19  1  0  0  0  0
 18 45  1  0  0  0  0
 19 20  1  0  0  0  0
 19 21  2  0  0  0  0
 21 22  1  0  0  0  0
 21 46  1  0  0  0  0
 23 24  1  0  0  0  0
 23 29  2  0  0  0  0
 24 25  2  0  0  0  0
 24 47  1  0  0  0  0
 25 26  1  0  0  0  0
 25 27  1  0  0  0  0
 27 28  2  0  0  0  0
 27 48  1  0  0  0  0
 28 29  1  0  0  0  0
 28 49  1  0  0  0  0
 29 30  1  0  0  0  0
 30 50  1  0  0  0  0
 30 51  1  0  0  0  0
 31 32  1  0  0  0  0
 31 52  1  0  0  0  0
M  END
$$$$
