
 OpenBabel07202414193D

 35 37  0  0  1  0  0  0  0  0999 V2000
    2.0946    1.1290    0.5547 O   0  0  0  0  0  0  0  0  0  0  0  0
    2.2502   -0.1463   -0.0666 C   0  0  3  0  0  0  0  0  0  0  0  0
    2.9748   -1.1282    0.8783 C   0  0  0  0  0  0  0  0  0  0  0  0
    3.8729   -1.8646    0.4739 O   0  0  0  0  0  0  0  0  0  0  0  0
    2.5043   -1.1038    2.1807 N   0  0  0  0  0  0  0  0  0  0  0  0
    3.0887   -1.8127    3.2588 C   0  0  0  0  0  0  0  0  0  0  0  0
    4.4754   -1.9579    3.3596 C   0  0  0  0  0  0  0  0  0  0  0  0
    5.1103   -2.5323    4.4064 N   0  0  0  0  0  0  0  0  0  0  0  0
    4.3256   -3.0220    5.3885 C   0  0  0  0  0  0  0  0  0  0  0  0
    2.9291   -2.9683    5.3905 C   0  0  0  0  0  0  0  0  0  0  0  0
    2.1754   -3.5476    6.4278 C   0  0  0  0  0  0  0  0  0  0  0  0
    0.7829   -3.5389    6.3818 C   0  0  0  0  0  0  0  0  0  0  0  0
    0.1306   -2.9568    5.3015 C   0  0  0  0  0  0  0  0  0  0  0  0
    0.8691   -2.3610    4.2754 C   0  0  0  0  0  0  0  0  0  0  0  0
    2.2844   -2.3472    4.2947 C   0  0  0  0  0  0  0  0  0  0  0  0
    0.8990   -0.6606   -0.5278 C   0  0  0  0  0  0  0  0  0  0  0  0
    0.8225   -1.5676   -1.5965 C   0  0  0  0  0  0  0  0  0  0  0  0
   -0.4155   -2.0434   -2.0421 C   0  0  0  0  0  0  0  0  0  0  0  0
   -1.5959   -1.6314   -1.4188 C   0  0  0  0  0  0  0  0  0  0  0  0
   -3.0878   -2.2680   -2.0134 Cl  0  0  0  0  0  0  0  0  0  0  0  0
   -1.5361   -0.7335   -0.3499 C   0  0  0  0  0  0  0  0  0  0  0  0
   -2.9485   -0.1797    0.4777 Cl  0  0  0  0  0  0  0  0  0  0  0  0
   -0.2964   -0.2522    0.0886 C   0  0  0  0  0  0  0  0  0  0  0  0
    2.9888    1.5125    0.6142 H   0  0  0  0  0  0  0  0  0  0  0  0
    2.8908    0.0065   -0.9437 H   0  0  0  0  0  0  0  0  0  0  0  0
    1.5986   -0.6730    2.3299 H   0  0  0  0  0  0  0  0  0  0  0  0
    5.1435   -1.5528    2.6058 H   0  0  0  0  0  0  0  0  0  0  0  0
    4.8707   -3.4872    6.2043 H   0  0  0  0  0  0  0  0  0  0  0  0
    2.6735   -4.0185    7.2726 H   0  0  0  0  0  0  0  0  0  0  0  0
    0.2102   -4.0087    7.1770 H   0  0  0  0  0  0  0  0  0  0  0  0
   -0.9549   -2.9836    5.2440 H   0  0  0  0  0  0  0  0  0  0  0  0
    0.3153   -1.9542    3.4341 H   0  0  0  0  0  0  0  0  0  0  0  0
    1.7278   -1.9062   -2.1001 H   0  0  0  0  0  0  0  0  0  0  0  0
   -0.4518   -2.7368   -2.8796 H   0  0  0  0  0  0  0  0  0  0  0  0
   -0.2668    0.4670    0.9059 H   0  0  0  0  0  0  0  0  0  0  0  0
  1  2  1  0  0  0  0
  1 24  1  0  0  0  0
  2  3  1  0  0  0  0
  2 16  1  0  0  0  0
  2 25  1  0  0  0  0
  3  4  2  0  0  0  0
  3  5  1  0  0  0  0
  5  6  1  0  0  0  0
  5 26  1  0  0  0  0
  6  7  1  0  0  0  0
  6 15  2  0  0  0  0
  7  8  2  0  0  0  0
  7 27  1  0  0  0  0
  8  9  1  0  0  0  0
  9 10  2  0  0  0  0
  9 28  1  0  0  0  0
 10 11  1  0  0  0  0
 10 15  1  0  0  0  0
 11 12  2  0  0  0  0
 11 29  1  0  0  0  0
 12 13  1  0  0  0  0
 12 30  1  0  0  0  0
 13 14  2  0  0  0  0
 13 31  1  0  0  0  0
 14 15  1  0  0  0  0
 14 32  1  0  0  0  0
 16 17  1  0  0  0  0
 16 23  2  0  0  0  0
 17 18  2  0  0  0  0
 17 33  1  0  0  0  0
 18 19  1  0  0  0  0
 18 34  1  0  0  0  0
 19 20  1  0  0  0  0
 19 21  2  0  0  0  0
 21 22  1  0  0  0  0
 21 23  1  0  0  0  0
 23 35  1  0  0  0  0
M  END
$$$$
