
 OpenBabel07202414153D

 69 74  0  0  1  0  0  0  0  0999 V2000
    1.5046    0.2374   -1.0159 C   0  0  0  0  0  0  0  0  0  0  0  0
    2.8637    0.5168   -0.7169 O   0  0  0  0  0  0  0  0  0  0  0  0
    3.3011   -0.1912    0.4408 C   0  0  0  0  0  0  0  0  0  0  0  0
    4.7617    0.1495    0.6894 C   0  0  0  0  0  0  0  0  0  0  0  0
    5.2207   -0.5783    1.8247 O   0  0  0  0  0  0  0  0  0  0  0  0
    6.5051   -0.3192    2.2166 C   0  0  0  0  0  0  0  0  0  0  0  0
    7.4096    0.5060    1.5565 C   0  0  0  0  0  0  0  0  0  0  0  0
    8.6682    0.7376    2.1052 C   0  0  0  0  0  0  0  0  0  0  0  0
    9.0328    0.1464    3.3214 C   0  0  0  0  0  0  0  0  0  0  0  0
   10.2498    0.4610    3.9243 C   0  0  0  0  0  0  0  0  0  0  0  0
   10.6375    0.0073    5.1294 N   0  0  0  0  0  0  0  0  0  0  0  0
    9.7783   -0.8297    5.7512 C   0  0  0  0  0  0  0  0  0  0  0  0
    8.5629   -1.2867    5.2165 C   0  0  0  0  0  0  0  0  0  0  0  0
    7.8855   -2.2874    5.9445 N   0  0  0  0  0  0  0  0  0  0  0  0
    7.2052   -3.4465    5.4662 C   0  0  0  0  0  0  0  0  0  0  0  0
    7.0736   -4.3465    6.7101 C   0  0  0  0  0  0  0  0  0  0  0  0
    7.5685   -3.4906    7.9219 C   0  0  3  0  0  0  0  0  0  0  0  0
    6.5697   -3.5161    9.0925 C   0  0  0  0  0  0  0  0  0  0  0  0
    7.1292   -3.0783   10.4052 N   0  0  0  0  0  0  0  0  0  0  0  0
    7.4353   -1.4384   10.7684 S   0  0  0  0  0  0  0  0  0  0  0  0
    7.7206   -1.4210   12.1882 O   0  0  0  0  0  0  0  0  0  0  0  0
    8.4408   -0.9513    9.8475 O   0  0  0  0  0  0  0  0  0  0  0  0
    5.8373   -0.6200   10.5305 C   0  0  0  0  0  0  0  0  0  0  0  0
    6.0654    0.8714   10.6832 C   0  0  0  0  0  0  0  0  0  0  0  0
    6.6481    1.3194   11.9271 C   0  0  0  0  0  0  0  0  0  0  0  0
    7.0674    1.7356   12.9326 N   0  0  0  0  0  0  0  0  0  0  0  0
    6.2845    1.7156    9.4374 C   0  0  0  0  0  0  0  0  0  0  0  0
    4.9734    1.8076   10.1536 C   0  0  0  0  0  0  0  0  0  0  0  0
    8.2534   -3.9627   10.8058 C   0  0  0  0  0  0  0  0  0  0  0  0
    9.2888   -4.1462    9.7195 C   0  0  0  0  0  0  0  0  0  0  0  0
   10.5757   -4.5777   10.0997 C   0  0  0  0  0  0  0  0  0  0  0  0
   11.5724   -4.7857    9.1495 C   0  0  0  0  0  0  0  0  0  0  0  0
   11.2870   -4.5724    7.8098 C   0  0  0  0  0  0  0  0  0  0  0  0
   12.5042   -4.8318    6.6214 Cl  0  0  0  0  0  0  0  0  0  0  0  0
   10.0130   -4.1580    7.4147 C   0  0  0  0  0  0  0  0  0  0  0  0
    8.9841   -3.9344    8.3557 C   0  0  0  0  0  0  0  0  0  0  0  0
    7.5373   -2.1139    7.2711 C   0  0  0  0  0  0  0  0  0  0  0  0
    7.0552   -1.0808    7.7095 O   0  0  0  0  0  0  0  0  0  0  0  0
    8.1529   -0.7464    3.9819 C   0  0  0  0  0  0  0  0  0  0  0  0
    6.8829   -0.9465    3.4052 C   0  0  0  0  0  0  0  0  0  0  0  0
    1.2279    0.8038   -1.9086 H   0  0  0  0  0  0  0  0  0  0  0  0
    0.8609    0.5483   -0.1879 H   0  0  0  0  0  0  0  0  0  0  0  0
    1.3714   -0.8290   -1.2204 H   0  0  0  0  0  0  0  0  0  0  0  0
    3.1896   -1.2717    0.2913 H   0  0  0  0  0  0  0  0  0  0  0  0
    2.6967    0.0927    1.3109 H   0  0  0  0  0  0  0  0  0  0  0  0
    4.8495    1.2308    0.8571 H   0  0  0  0  0  0  0  0  0  0  0  0
    5.3475   -0.1217   -0.1974 H   0  0  0  0  0  0  0  0  0  0  0  0
    7.1609    1.0106    0.6290 H   0  0  0  0  0  0  0  0  0  0  0  0
    9.3479    1.4153    1.5925 H   0  0  0  0  0  0  0  0  0  0  0  0
   10.9584    1.1379    3.4531 H   0  0  0  0  0  0  0  0  0  0  0  0
   10.1401   -1.1821    6.7149 H   0  0  0  0  0  0  0  0  0  0  0  0
    7.7286   -3.9271    4.6363 H   0  0  0  0  0  0  0  0  0  0  0  0
    6.1930   -3.1645    5.1593 H   0  0  0  0  0  0  0  0  0  0  0  0
    7.6543   -5.2675    6.5769 H   0  0  0  0  0  0  0  0  0  0  0  0
    6.0295   -4.6610    6.8270 H   0  0  0  0  0  0  0  0  0  0  0  0
    6.2380   -4.5555    9.2426 H   0  0  0  0  0  0  0  0  0  0  0  0
    5.6490   -2.9662    8.8733 H   0  0  0  0  0  0  0  0  0  0  0  0
    5.1603   -0.9971   11.3043 H   0  0  0  0  0  0  0  0  0  0  0  0
    5.4326   -0.8664    9.5486 H   0  0  0  0  0  0  0  0  0  0  0  0
    6.2861    1.2395    8.4626 H   0  0  0  0  0  0  0  0  0  0  0  0
    6.9709    2.5545    9.4992 H   0  0  0  0  0  0  0  0  0  0  0  0
    4.0989    1.3923    9.6673 H   0  0  0  0  0  0  0  0  0  0  0  0
    4.7661    2.7289   10.6938 H   0  0  0  0  0  0  0  0  0  0  0  0
    7.8408   -4.9451   11.0681 H   0  0  0  0  0  0  0  0  0  0  0  0
    8.7340   -3.5895   11.7174 H   0  0  0  0  0  0  0  0  0  0  0  0
   10.8113   -4.7438   11.1502 H   0  0  0  0  0  0  0  0  0  0  0  0
   12.5622   -5.1086    9.4608 H   0  0  0  0  0  0  0  0  0  0  0  0
    9.8428   -4.0156    6.3512 H   0  0  0  0  0  0  0  0  0  0  0  0
    6.1286   -1.5337    3.9141 H   0  0  0  0  0  0  0  0  0  0  0  0
  1  2  1  0  0  0  0
  1 41  1  0  0  0  0
  1 42  1  0  0  0  0
  1 43  1  0  0  0  0
  2  3  1  0  0  0  0
  3  4  1  0  0  0  0
  3 44  1  0  0  0  0
  3 45  1  0  0  0  0
  4  5  1  0  0  0  0
  4 46  1  0  0  0  0
  4 47  1  0  0  0  0
  5  6  1  0  0  0  0
  6  7  1  0  0  0  0
  6 40  2  0  0  0  0
  7  8  2  0  0  0  0
  7 48  1  0  0  0  0
  8  9  1  0  0  0  0
  8 49  1  0  0  0  0
  9 10  1  0  0  0  0
  9 39  2  0  0  0  0
 10 11  2  0  0  0  0
 10 50  1  0  0  0  0
 11 12  1  0  0  0  0
 12 13  2  0  0  0  0
 12 51  1  0  0  0  0
 13 14  1  0  0  0  0
 13 39  1  0  0  0  0
 14 15  1  0  0  0  0
 14 37  1  0  0  0  0
 15 16  1  0  0  0  0
 15 52  1  0  0  0  0
 15 53  1  0  0  0  0
 16 17  1  0  0  0  0
 16 54  1  0  0  0  0
 16 55  1  0  0  0  0
 17 18  1  0  0  0  0
 17 36  1  0  0  0  0
 17 37  1  0  0  0  0
 18 19  1  0  0  0  0
 18 56  1  0  0  0  0
 18 57  1  0  0  0  0
 19 20  1  0  0  0  0
 19 29  1  0  0  0  0
 20 21  2  0  0  0  0
 20 22  2  0  0  0  0
 20 23  1  0  0  0  0
 23 24  1  0  0  0  0
 23 58  1  0  0  0  0
 23 59  1  0  0  0  0
 24 25  1  0  0  0  0
 24 27  1  0  0  0  0
 24 28  1  0  0  0  0
 25 26  3  0  0  0  0
 27 28  1  0  0  0  0
 27 60  1  0  0  0  0
 27 61  1  0  0  0  0
 28 62  1  0  0  0  0
 28 63  1  0  0  0  0
 29 30  1  0  0  0  0
 29 64  1  0  0  0  0
 29 65  1  0  0  0  0
 30 31  1  0  0  0  0
 30 36  2  0  0  0  0
 31 32  2  0  0  0  0
 31 66  1  0  0  0  0
 32 33  1  0  0  0  0
 32 67  1  0  0  0  0
 33 34  1  0  0  0  0
 33 35  2  0  0  0  0
 35 36  1  0  0  0  0
 35 68  1  0  0  0  0
 37 38  2  0  0  0  0
 39 40  1  0  0  0  0
 40 69  1  0  0  0  0
M  END
$$$$
