
 OpenBabel07202414153D

 45 47  0  0  0  0  0  0  0  0999 V2000
    2.1475    1.1641    0.5382 C   0  0  0  0  0  0  0  0  0  0  0  0
    2.0930   -0.5471    0.0354 S   0  0  0  0  0  0  0  0  0  0  0  0
    0.7192   -1.0126    0.1123 O   0  0  0  0  0  0  0  0  0  0  0  0
    2.8866   -0.7331   -1.1557 O   0  0  0  0  0  0  0  0  0  0  0  0
    2.9061   -1.3265    1.2895 N   0  0  0  0  0  0  0  0  0  0  0  0
    4.3753   -1.1826    1.2731 C   0  0  0  0  0  0  0  0  0  0  0  0
    5.0517   -1.8958    2.4270 C   0  0  0  0  0  0  0  0  0  0  0  0
    4.8839   -3.3046    2.4625 C   0  0  0  0  0  0  0  0  0  0  0  0
    5.4022   -4.0848    3.4943 C   0  0  0  0  0  0  0  0  0  0  0  0
    6.1078   -3.4705    4.5131 C   0  0  0  0  0  0  0  0  0  0  0  0
    6.7152   -4.4043    5.8232 Cl  0  0  0  0  0  0  0  0  0  0  0  0
    6.3186   -2.0920    4.4847 C   0  0  0  0  0  0  0  0  0  0  0  0
    5.8226   -1.2726    3.4378 C   0  0  0  0  0  0  0  0  0  0  0  0
    6.0830    0.2167    3.6346 C   0  0  0  0  0  0  0  0  0  0  0  0
    6.2705    1.1315    2.4450 C   0  0  0  0  0  0  0  0  0  0  0  0
    5.4533    2.0141    2.1922 O   0  0  0  0  0  0  0  0  0  0  0  0
    7.4058    0.8840    1.6979 N   0  0  0  0  0  0  0  0  0  0  0  0
    7.7447    1.6282    0.5366 C   0  0  0  0  0  0  0  0  0  0  0  0
    7.5957    3.0153    0.4837 C   0  0  0  0  0  0  0  0  0  0  0  0
    7.9522    3.7845   -0.5731 N   0  0  0  0  0  0  0  0  0  0  0  0
    8.4546    3.1354   -1.6450 C   0  0  0  0  0  0  0  0  0  0  0  0
    8.6219    1.7513   -1.7256 C   0  0  0  0  0  0  0  0  0  0  0  0
    9.1010    1.1335   -2.8951 C   0  0  0  0  0  0  0  0  0  0  0  0
    9.1927   -0.2547   -2.9785 C   0  0  0  0  0  0  0  0  0  0  0  0
    8.8177   -1.0384   -1.8952 C   0  0  0  0  0  0  0  0  0  0  0  0
    8.3671   -0.4368   -0.7207 C   0  0  0  0  0  0  0  0  0  0  0  0
    8.2626    0.9699   -0.6028 C   0  0  0  0  0  0  0  0  0  0  0  0
    2.0199    1.7775   -0.3565 H   0  0  0  0  0  0  0  0  0  0  0  0
    3.1190    1.3908    0.9777 H   0  0  0  0  0  0  0  0  0  0  0  0
    1.3508    1.3577    1.2543 H   0  0  0  0  0  0  0  0  0  0  0  0
    2.5588   -2.2827    1.3770 H   0  0  0  0  0  0  0  0  0  0  0  0
    4.6048   -0.1253    1.2872 H   0  0  0  0  0  0  0  0  0  0  0  0
    4.7856   -1.5949    0.3445 H   0  0  0  0  0  0  0  0  0  0  0  0
    4.3208   -3.8085    1.6761 H   0  0  0  0  0  0  0  0  0  0  0  0
    5.2358   -5.1589    3.5022 H   0  0  0  0  0  0  0  0  0  0  0  0
    6.8627   -1.6408    5.3148 H   0  0  0  0  0  0  0  0  0  0  0  0
    6.9983    0.3407    4.2292 H   0  0  0  0  0  0  0  0  0  0  0  0
    5.2642    0.6228    4.2418 H   0  0  0  0  0  0  0  0  0  0  0  0
    7.8569   -0.0122    1.8242 H   0  0  0  0  0  0  0  0  0  0  0  0
    7.2088    3.5813    1.3270 H   0  0  0  0  0  0  0  0  0  0  0  0
    8.7100    3.7828   -2.4803 H   0  0  0  0  0  0  0  0  0  0  0  0
    9.3809    1.7310   -3.7606 H   0  0  0  0  0  0  0  0  0  0  0  0
    9.5376   -0.7248   -3.8957 H   0  0  0  0  0  0  0  0  0  0  0  0
    8.8565   -2.1229   -1.9661 H   0  0  0  0  0  0  0  0  0  0  0  0
    8.0549   -1.0938    0.0854 H   0  0  0  0  0  0  0  0  0  0  0  0
  1  2  1  0  0  0  0
  1 28  1  0  0  0  0
  1 29  1  0  0  0  0
  1 30  1  0  0  0  0
  2  3  2  0  0  0  0
  2  4  2  0  0  0  0
  2  5  1  0  0  0  0
  5  6  1  0  0  0  0
  5 31  1  0  0  0  0
  6  7  1  0  0  0  0
  6 32  1  0  0  0  0
  6 33  1  0  0  0  0
  7  8  1  0  0  0  0
  7 13  2  0  0  0  0
  8  9  2  0  0  0  0
  8 34  1  0  0  0  0
  9 10  1  0  0  0  0
  9 35  1  0  0  0  0
 10 11  1  0  0  0  0
 10 12  2  0  0  0  0
 12 13  1  0  0  0  0
 12 36  1  0  0  0  0
 13 14  1  0  0  0  0
 14 15  1  0  0  0  0
 14 37  1  0  0  0  0
 14 38  1  0  0  0  0
 15 16  2  0  0  0  0
 15 17  1  0  0  0  0
 17 18  1  0  0  0  0
 17 39  1  0  0  0  0
 18 19  1  0  0  0  0
 18 27  2  0  0  0  0
 19 20  2  0  0  0  0
 19 40  1  0  0  0  0
 20 21  1  0  0  0  0
 21 22  2  0  0  0  0
 21 41  1  0  0  0  0
 22 23  1  0  0  0  0
 22 27  1  0  0  0  0
 23 24  2  0  0  0  0
 23 42  1  0  0  0  0
 24 25  1  0  0  0  0
 24 43  1  0  0  0  0
 25 26  2  0  0  0  0
 25 44  1  0  0  0  0
 26 27  1  0  0  0  0
 26 45  1  0  0  0  0
M  END
$$$$
