
 OpenBabel07202414193D

 96102  0  0  1  0  0  0  0  0999 V2000
    2.5788   -1.1598   -2.1130 O   0  0  0  0  0  0  0  0  0  0  0  0
    2.0971   -1.0778   -0.9780 C   0  0  0  0  0  0  0  0  0  0  0  0
    0.5843   -1.0290   -0.7328 C   0  0  0  0  0  0  0  0  0  0  0  0
    0.1808   -0.1598    0.4144 N   0  0  0  0  0  0  0  0  0  0  0  0
    0.6081    1.2301    0.1708 C   0  0  0  0  0  0  0  0  0  0  0  0
    0.0911    2.1977    1.2129 C   0  0  0  0  0  0  0  0  0  0  0  0
    0.7837    3.4053    1.4031 C   0  0  0  0  0  0  0  0  0  0  0  0
    0.3960    4.2959    2.4003 C   0  0  0  0  0  0  0  0  0  0  0  0
   -0.6842    3.9806    3.2175 C   0  0  0  0  0  0  0  0  0  0  0  0
   -1.1171    5.0486    4.4946 Cl  0  0  0  0  0  0  0  0  0  0  0  0
   -1.4099    2.8038    3.0153 C   0  0  0  0  0  0  0  0  0  0  0  0
   -1.0537    1.9158    1.9836 C   0  0  0  0  0  0  0  0  0  0  0  0
   -1.8306    0.6204    1.7552 C   0  0  1  0  0  0  0  0  0  0  0  0
   -3.3639    0.7820    1.6047 C   0  0  0  0  0  0  0  0  0  0  0  0
   -4.1137   -0.1332    1.9430 O   0  0  0  0  0  0  0  0  0  0  0  0
   -3.7876    1.9615    1.0140 N   0  0  0  0  0  0  0  0  0  0  0  0
   -5.1143    2.4820    0.9400 C   0  0  0  0  0  0  0  0  0  0  0  0
   -6.2291    1.8272    1.4642 C   0  0  0  0  0  0  0  0  0  0  0  0
   -7.4483    2.3997    1.6281 N   0  0  0  0  0  0  0  0  0  0  0  0
   -7.5954    3.6578    1.1670 C   0  0  0  0  0  0  0  0  0  0  0  0
   -6.6193    4.3465    0.4529 C   0  0  0  0  0  0  0  0  0  0  0  0
   -6.9112    5.5717   -0.1754 C   0  0  0  0  0  0  0  0  0  0  0  0
   -5.9420    6.2313   -0.9258 C   0  0  0  0  0  0  0  0  0  0  0  0
   -4.6578    5.7097   -0.9972 C   0  0  0  0  0  0  0  0  0  0  0  0
   -4.3525    4.5055   -0.3555 C   0  0  0  0  0  0  0  0  0  0  0  0
   -5.3314    3.7651    0.3549 C   0  0  0  0  0  0  0  0  0  0  0  0
   -1.3018   -0.1821    0.5397 C   0  0  0  0  0  0  0  0  0  0  0  0
    2.8736   -1.0592    0.1579 N   0  0  0  0  0  0  0  0  0  0  0  0
    4.3205   -1.1398    0.1447 C   0  0  0  0  0  0  0  0  0  0  0  0
    4.7919   -2.5816    0.3456 C   0  0  0  0  0  0  0  0  0  0  0  0
    6.3109   -2.7409    0.3496 C   0  0  0  0  0  0  0  0  0  0  0  0
    7.0029   -2.0545    1.5288 C   0  0  0  0  0  0  0  0  0  0  0  0
    8.5310   -2.2140    1.4712 C   0  0  0  0  0  0  0  0  0  0  0  0
    9.1752   -1.6697    0.1826 C   0  0  0  0  0  0  0  0  0  0  0  0
    8.8669   -0.1898    0.0363 C   0  0  0  0  0  0  0  0  0  0  0  0
    9.1635    0.3594   -1.2429 O   0  0  0  0  0  0  0  0  0  0  0  0
    9.1097    1.7322   -1.3013 C   0  0  0  0  0  0  0  0  0  0  0  0
    9.1821    2.2927   -2.5774 C   0  0  0  0  0  0  0  0  0  0  0  0
    9.4061    3.6749   -2.7459 C   0  0  0  0  0  0  0  0  0  0  0  0
    9.7576    4.4733   -1.6479 C   0  0  0  0  0  0  0  0  0  0  0  0
    9.7040    3.8823   -0.3998 C   0  0  0  0  0  0  0  0  0  0  0  0
    9.1792    2.6181   -0.2417 C   0  0  0  0  0  0  0  0  0  0  0  0
    9.0153    2.4649    1.1908 C   0  0  0  0  0  0  0  0  0  0  0  0
    8.0991    1.8767    1.7362 O   0  0  0  0  0  0  0  0  0  0  0  0
    9.9626    3.2328    1.7796 N   0  0  0  0  0  0  0  0  0  0  0  0
   10.5043    2.7687    3.0544 C   0  0  2  0  0  0  0  0  0  0  0  0
   10.6919    3.7569    4.1831 C   0  0  0  0  0  0  0  0  0  0  0  0
   11.9673    4.5614    4.0635 C   0  0  0  0  0  0  0  0  0  0  0  0
   13.1738    3.6933    3.8030 C   0  0  0  0  0  0  0  0  0  0  0  0
   14.3076    4.0361    4.1267 O   0  0  0  0  0  0  0  0  0  0  0  0
   12.9606    2.5035    3.1574 N   0  0  0  0  0  0  0  0  0  0  0  0
   11.7629    1.9347    2.8042 C   0  0  0  0  0  0  0  0  0  0  0  0
   11.7308    0.8318    2.2591 O   0  0  0  0  0  0  0  0  0  0  0  0
   10.3410    4.2094    0.9024 C   0  0  0  0  0  0  0  0  0  0  0  0
   11.1434    5.1085    1.0525 O   0  0  0  0  0  0  0  0  0  0  0  0
    0.2745   -2.0616   -0.5381 H   0  0  0  0  0  0  0  0  0  0  0  0
    0.1084   -0.6871   -1.6579 H   0  0  0  0  0  0  0  0  0  0  0  0
    0.2931    1.5806   -0.8195 H   0  0  0  0  0  0  0  0  0  0  0  0
    1.7023    1.2757    0.2143 H   0  0  0  0  0  0  0  0  0  0  0  0
    1.6525    3.6408    0.7902 H   0  0  0  0  0  0  0  0  0  0  0  0
    0.9571    5.2148    2.5497 H   0  0  0  0  0  0  0  0  0  0  0  0
   -2.2446    2.5756    3.6762 H   0  0  0  0  0  0  0  0  0  0  0  0
   -1.6687    0.0180    2.6607 H   0  0  0  0  0  0  0  0  0  0  0  0
   -3.0586    2.6139    0.7650 H   0  0  0  0  0  0  0  0  0  0  0  0
   -6.1988    0.7948    1.7959 H   0  0  0  0  0  0  0  0  0  0  0  0
   -8.5622    4.1082    1.3826 H   0  0  0  0  0  0  0  0  0  0  0  0
   -7.9125    5.9959   -0.1214 H   0  0  0  0  0  0  0  0  0  0  0  0
   -6.1909    7.1442   -1.4609 H   0  0  0  0  0  0  0  0  0  0  0  0
   -3.8919    6.2264   -1.5703 H   0  0  0  0  0  0  0  0  0  0  0  0
   -3.3376    4.1380   -0.4682 H   0  0  0  0  0  0  0  0  0  0  0  0
   -1.7588    0.1937   -0.3869 H   0  0  0  0  0  0  0  0  0  0  0  0
   -1.6413   -1.2210    0.6506 H   0  0  0  0  0  0  0  0  0  0  0  0
    2.3906   -0.9870    1.0354 H   0  0  0  0  0  0  0  0  0  0  0  0
    4.6847   -0.4888    0.9430 H   0  0  0  0  0  0  0  0  0  0  0  0
    4.7071   -0.7472   -0.8088 H   0  0  0  0  0  0  0  0  0  0  0  0
    4.3880   -3.2029   -0.4639 H   0  0  0  0  0  0  0  0  0  0  0  0
    4.3778   -2.9786    1.2794 H   0  0  0  0  0  0  0  0  0  0  0  0
    6.6967   -2.3627   -0.6030 H   0  0  0  0  0  0  0  0  0  0  0  0
    6.5525   -3.8102    0.3865 H   0  0  0  0  0  0  0  0  0  0  0  0
    6.6335   -2.4734    2.4718 H   0  0  0  0  0  0  0  0  0  0  0  0
    6.7415   -0.9926    1.5690 H   0  0  0  0  0  0  0  0  0  0  0  0
    8.7905   -3.2722    1.5839 H   0  0  0  0  0  0  0  0  0  0  0  0
    8.9617   -1.6941    2.3385 H   0  0  0  0  0  0  0  0  0  0  0  0
    8.8677   -2.2297   -0.7031 H   0  0  0  0  0  0  0  0  0  0  0  0
   10.2641   -1.7975    0.2505 H   0  0  0  0  0  0  0  0  0  0  0  0
    9.4825    0.2614    0.8144 H   0  0  0  0  0  0  0  0  0  0  0  0
    7.8050    0.0047    0.1887 H   0  0  0  0  0  0  0  0  0  0  0  0
    9.0934    1.6475   -3.4500 H   0  0  0  0  0  0  0  0  0  0  0  0
    9.3958    4.0933   -3.7511 H   0  0  0  0  0  0  0  0  0  0  0  0
   10.0798    5.5001   -1.7839 H   0  0  0  0  0  0  0  0  0  0  0  0
    9.7891    2.0275    3.4430 H   0  0  0  0  0  0  0  0  0  0  0  0
   10.7566    3.1744    5.1150 H   0  0  0  0  0  0  0  0  0  0  0  0
    9.8179    4.4071    4.2783 H   0  0  0  0  0  0  0  0  0  0  0  0
   12.1329    5.0897    5.0085 H   0  0  0  0  0  0  0  0  0  0  0  0
   11.8975    5.3113    3.2764 H   0  0  0  0  0  0  0  0  0  0  0  0
   13.7855    1.9455    2.9826 H   0  0  0  0  0  0  0  0  0  0  0  0
  1  2  2  0  0  0  0
  2  3  1  0  0  0  0
  2 28  1  0  0  0  0
  3  4  1  0  0  0  0
  3 56  1  0  0  0  0
  3 57  1  0  0  0  0
  4  5  1  0  0  0  0
  4 27  1  0  0  0  0
  5  6  1  0  0  0  0
  5 58  1  0  0  0  0
  5 59  1  0  0  0  0
  6  7  1  0  0  0  0
  6 12  2  0  0  0  0
  7  8  2  0  0  0  0
  7 60  1  0  0  0  0
  8  9  1  0  0  0  0
  8 61  1  0  0  0  0
  9 10  1  0  0  0  0
  9 11  2  0  0  0  0
 11 12  1  0  0  0  0
 11 62  1  0  0  0  0
 12 13  1  0  0  0  0
 13 27  1  0  0  0  0
 13 14  1  0  0  0  0
 13 63  1  1  0  0  0
 14 15  2  0  0  0  0
 14 16  1  0  0  0  0
 16 17  1  0  0  0  0
 16 64  1  0  0  0  0
 17 18  1  0  0  0  0
 17 26  2  0  0  0  0
 18 19  2  0  0  0  0
 18 65  1  0  0  0  0
 19 20  1  0  0  0  0
 20 21  2  0  0  0  0
 20 66  1  0  0  0  0
 21 22  1  0  0  0  0
 21 26  1  0  0  0  0
 22 23  2  0  0  0  0
 22 67  1  0  0  0  0
 23 24  1  0  0  0  0
 23 68  1  0  0  0  0
 24 25  2  0  0  0  0
 24 69  1  0  0  0  0
 25 26  1  0  0  0  0
 25 70  1  0  0  0  0
 27 71  1  0  0  0  0
 27 72  1  0  0  0  0
 28 29  1  0  0  0  0
 28 73  1  0  0  0  0
 29 30  1  0  0  0  0
 29 74  1  0  0  0  0
 29 75  1  0  0  0  0
 30 31  1  0  0  0  0
 30 76  1  0  0  0  0
 30 77  1  0  0  0  0
 31 32  1  0  0  0  0
 31 78  1  0  0  0  0
 31 79  1  0  0  0  0
 32 33  1  0  0  0  0
 32 80  1  0  0  0  0
 32 81  1  0  0  0  0
 33 34  1  0  0  0  0
 33 82  1  0  0  0  0
 33 83  1  0  0  0  0
 34 35  1  0  0  0  0
 34 84  1  0  0  0  0
 34 85  1  0  0  0  0
 35 36  1  0  0  0  0
 35 86  1  0  0  0  0
 35 87  1  0  0  0  0
 36 37  1  0  0  0  0
 37 38  1  0  0  0  0
 37 42  2  0  0  0  0
 38 39  2  0  0  0  0
 38 88  1  0  0  0  0
 39 40  1  0  0  0  0
 39 89  1  0  0  0  0
 40 41  2  0  0  0  0
 40 90  1  0  0  0  0
 41 42  1  0  0  0  0
 41 54  1  0  0  0  0
 42 43  1  0  0  0  0
 43 44  2  0  0  0  0
 43 45  1  0  0  0  0
 45 46  1  0  0  0  0
 45 54  1  0  0  0  0
 46 47  1  0  0  0  0
 46 52  1  0  0  0  0
 46 91  1  1  0  0  0
 47 48  1  0  0  0  0
 47 92  1  0  0  0  0
 47 93  1  0  0  0  0
 48 49  1  0  0  0  0
 48 94  1  0  0  0  0
 48 95  1  0  0  0  0
 49 50  2  0  0  0  0
 49 51  1  0  0  0  0
 51 52  1  0  0  0  0
 51 96  1  0  0  0  0
 52 53  2  0  0  0  0
 54 55  2  0  0  0  0
M  END
$$$$
