
 OpenBabel07202414133D

 56 59  0  0  0  0  0  0  0  0999 V2000
    8.2225    3.0225    0.3740 C   0  0  0  0  0  0  0  0  0  0  0  0
    8.4195    1.8505    1.3190 C   0  0  0  0  0  0  0  0  0  0  0  0
    7.3472    0.9189    1.1292 O   0  0  0  0  0  0  0  0  0  0  0  0
    7.1834    0.0091    2.1420 C   0  0  0  0  0  0  0  0  0  0  0  0
    5.8750   -0.4657    2.3879 C   0  0  0  0  0  0  0  0  0  0  0  0
    4.7121   -0.0010    1.5305 C   0  0  0  0  0  0  0  0  0  0  0  0
    3.4199   -0.1111    2.2300 N   0  0  0  0  0  0  0  0  0  0  0  0
    2.6061    0.9893    2.4640 C   0  0  0  0  0  0  0  0  0  0  0  0
    3.0935    2.2933    2.6195 C   0  0  0  0  0  0  0  0  0  0  0  0
    2.2509    3.3901    2.9019 C   0  0  0  0  0  0  0  0  0  0  0  0
    2.8870    4.7488    3.0897 C   0  0  0  0  0  0  0  0  0  0  0  0
    2.0335    5.9521    2.7444 C   0  0  0  0  0  0  0  0  0  0  0  0
    1.5285    6.6460    3.6245 O   0  0  0  0  0  0  0  0  0  0  0  0
    1.8868    6.1796    1.3780 N   0  0  0  0  0  0  0  0  0  0  0  0
    1.0949    7.2787    0.9483 C   0  0  0  0  0  0  0  0  0  0  0  0
    1.3905    8.5712    1.3913 C   0  0  0  0  0  0  0  0  0  0  0  0
    0.6400    9.6616    1.1228 N   0  0  0  0  0  0  0  0  0  0  0  0
   -0.5361    9.4256    0.5065 C   0  0  0  0  0  0  0  0  0  0  0  0
   -0.9751    8.1653    0.0909 C   0  0  0  0  0  0  0  0  0  0  0  0
   -2.2885    7.9547   -0.3595 C   0  0  0  0  0  0  0  0  0  0  0  0
   -2.6970    6.6940   -0.7895 C   0  0  0  0  0  0  0  0  0  0  0  0
   -1.7756    5.6560   -0.8573 C   0  0  0  0  0  0  0  0  0  0  0  0
   -0.4806    5.8421   -0.3717 C   0  0  0  0  0  0  0  0  0  0  0  0
   -0.0825    7.0766    0.1944 C   0  0  0  0  0  0  0  0  0  0  0  0
    0.8877    3.1523    3.1040 C   0  0  0  0  0  0  0  0  0  0  0  0
    0.3930    1.8522    3.0023 C   0  0  0  0  0  0  0  0  0  0  0  0
   -1.2839    1.5560    3.2641 Cl  0  0  0  0  0  0  0  0  0  0  0  0
    1.2406    0.7841    2.6965 C   0  0  0  0  0  0  0  0  0  0  0  0
    5.6957   -1.4332    3.3907 C   0  0  0  0  0  0  0  0  0  0  0  0
    6.7725   -1.9060    4.1443 C   0  0  0  0  0  0  0  0  0  0  0  0
    8.0546   -1.4336    3.8910 C   0  0  0  0  0  0  0  0  0  0  0  0
    8.2611   -0.4900    2.8857 C   0  0  0  0  0  0  0  0  0  0  0  0
    8.8023    3.8866    0.7138 H   0  0  0  0  0  0  0  0  0  0  0  0
    7.1682    3.3037    0.2979 H   0  0  0  0  0  0  0  0  0  0  0  0
    8.5654    2.7632   -0.6337 H   0  0  0  0  0  0  0  0  0  0  0  0
    8.4189    2.2267    2.3495 H   0  0  0  0  0  0  0  0  0  0  0  0
    9.3780    1.3708    1.0937 H   0  0  0  0  0  0  0  0  0  0  0  0
    4.6705   -0.6535    0.6489 H   0  0  0  0  0  0  0  0  0  0  0  0
    4.8808    1.0114    1.1498 H   0  0  0  0  0  0  0  0  0  0  0  0
    2.9169   -0.9479    1.9584 H   0  0  0  0  0  0  0  0  0  0  0  0
    4.1646    2.4735    2.5525 H   0  0  0  0  0  0  0  0  0  0  0  0
    3.7978    4.8216    2.4823 H   0  0  0  0  0  0  0  0  0  0  0  0
    3.1965    4.8471    4.1371 H   0  0  0  0  0  0  0  0  0  0  0  0
    1.8389    5.3324    0.8273 H   0  0  0  0  0  0  0  0  0  0  0  0
    2.2693    8.7695    1.9991 H   0  0  0  0  0  0  0  0  0  0  0  0
   -1.1497   10.3113    0.3602 H   0  0  0  0  0  0  0  0  0  0  0  0
   -3.0176    8.7615   -0.3188 H   0  0  0  0  0  0  0  0  0  0  0  0
   -3.7321    6.5242   -1.0729 H   0  0  0  0  0  0  0  0  0  0  0  0
   -2.0733    4.6881   -1.2527 H   0  0  0  0  0  0  0  0  0  0  0  0
    0.2042    5.0008   -0.4239 H   0  0  0  0  0  0  0  0  0  0  0  0
    0.2093    3.9623    3.3670 H   0  0  0  0  0  0  0  0  0  0  0  0
    0.8289   -0.2214    2.6477 H   0  0  0  0  0  0  0  0  0  0  0  0
    4.7049   -1.8270    3.6002 H   0  0  0  0  0  0  0  0  0  0  0  0
    6.6069   -2.6456    4.9237 H   0  0  0  0  0  0  0  0  0  0  0  0
    8.8949   -1.8066    4.4694 H   0  0  0  0  0  0  0  0  0  0  0  0
    9.2806   -0.1702    2.6925 H   0  0  0  0  0  0  0  0  0  0  0  0
  1  2  1  0  0  0  0
  1 33  1  0  0  0  0
  1 34  1  0  0  0  0
  1 35  1  0  0  0  0
  2  3  1  0  0  0  0
  2 36  1  0  0  0  0
  2 37  1  0  0  0  0
  3  4  1  0  0  0  0
  4  5  2  0  0  0  0
  4 32  1  0  0  0  0
  5  6  1  0  0  0  0
  5 29  1  0  0  0  0
  6  7  1  0  0  0  0
  6 38  1  0  0  0  0
  6 39  1  0  0  0  0
  7  8  1  0  0  0  0
  7 40  1  0  0  0  0
  8  9  2  0  0  0  0
  8 28  1  0  0  0  0
  9 10  1  0  0  0  0
  9 41  1  0  0  0  0
 10 11  1  0  0  0  0
 10 25  2  0  0  0  0
 11 12  1  0  0  0  0
 11 42  1  0  0  0  0
 11 43  1  0  0  0  0
 12 13  2  0  0  0  0
 12 14  1  0  0  0  0
 14 15  1  0  0  0  0
 14 44  1  0  0  0  0
 15 16  2  0  0  0  0
 15 24  1  0  0  0  0
 16 17  1  0  0  0  0
 16 45  1  0  0  0  0
 17 18  2  0  0  0  0
 18 19  1  0  0  0  0
 18 46  1  0  0  0  0
 19 20  2  0  0  0  0
 19 24  1  0  0  0  0
 20 21  1  0  0  0  0
 20 47  1  0  0  0  0
 21 22  2  0  0  0  0
 21 48  1  0  0  0  0
 22 23  1  0  0  0  0
 22 49  1  0  0  0  0
 23 24  2  0  0  0  0
 23 50  1  0  0  0  0
 25 26  1  0  0  0  0
 25 51  1  0  0  0  0
 26 27  1  0  0  0  0
 26 28  2  0  0  0  0
 28 52  1  0  0  0  0
 29 30  2  0  0  0  0
 29 53  1  0  0  0  0
 30 31  1  0  0  0  0
 30 54  1  0  0  0  0
 31 32  2  0  0  0  0
 31 55  1  0  0  0  0
 32 56  1  0  0  0  0
M  END
$$$$
