
 OpenBabel07202414123D

 76 81  0  0  1  0  0  0  0  0999 V2000
   -0.1897   -0.6194    1.4386 C   0  0  0  0  0  0  0  0  0  0  0  0
    1.1195    0.1502    1.6309 C   0  0  0  0  0  0  0  0  0  0  0  0
    0.8159    1.5570    2.1495 C   0  0  0  0  0  0  0  0  0  0  0  0
    1.9598   -0.6241    2.5541 N   0  0  0  0  0  0  0  0  0  0  0  0
    3.2764   -0.0248    2.7635 C   0  0  0  0  0  0  0  0  0  0  0  0
    4.0979   -0.8823    3.7216 C   0  0  0  0  0  0  0  0  0  0  0  0
    5.3546   -0.2412    3.9200 O   0  0  0  0  0  0  0  0  0  0  0  0
    6.2127   -0.8695    4.7766 C   0  0  0  0  0  0  0  0  0  0  0  0
    5.9656   -2.0496    5.4665 C   0  0  0  0  0  0  0  0  0  0  0  0
    6.9606   -2.6069    6.2692 C   0  0  0  0  0  0  0  0  0  0  0  0
    8.2083   -1.9841    6.3830 C   0  0  0  0  0  0  0  0  0  0  0  0
    9.2327   -2.5779    7.1162 C   0  0  0  0  0  0  0  0  0  0  0  0
   10.4797   -2.0824    7.2225 N   0  0  0  0  0  0  0  0  0  0  0  0
   10.7112   -0.9150    6.5810 C   0  0  0  0  0  0  0  0  0  0  0  0
    9.7542   -0.1792    5.8636 C   0  0  0  0  0  0  0  0  0  0  0  0
   10.1541    1.0976    5.4057 N   0  0  0  0  0  0  0  0  0  0  0  0
    9.3781    2.2839    5.2490 C   0  0  0  0  0  0  0  0  0  0  0  0
   10.4229    3.3999    5.0860 C   0  0  0  0  0  0  0  0  0  0  0  0
   11.7897    2.6767    4.8386 C   0  0  3  0  0  0  0  0  0  0  0  0
   12.4880    3.1850    3.5648 C   0  0  0  0  0  0  0  0  0  0  0  0
   13.9546    2.8961    3.4980 N   0  0  0  0  0  0  0  0  0  0  0  0
   14.5405    1.3061    3.2604 S   0  0  0  0  0  0  0  0  0  0  0  0
   15.9744    1.4324    3.1504 O   0  0  0  0  0  0  0  0  0  0  0  0
   14.0098    0.4656    4.3110 O   0  0  0  0  0  0  0  0  0  0  0  0
   13.8515    0.8619    1.6433 C   0  0  0  0  0  0  0  0  0  0  0  0
   14.6816    1.5009    0.5440 C   0  0  0  0  0  0  0  0  0  0  0  0
   16.0720    1.0977    0.4656 C   0  0  0  0  0  0  0  0  0  0  0  0
   17.1875    0.7999    0.3571 N   0  0  0  0  0  0  0  0  0  0  0  0
   13.9545    1.6013   -0.7956 C   0  0  0  0  0  0  0  0  0  0  0  0
   14.3480    2.8558   -0.0828 C   0  0  0  0  0  0  0  0  0  0  0  0
   14.6544    3.5625    4.6214 C   0  0  0  0  0  0  0  0  0  0  0  0
   14.0400    3.2414    5.9624 C   0  0  0  0  0  0  0  0  0  0  0  0
   14.8482    3.3950    7.1043 C   0  0  0  0  0  0  0  0  0  0  0  0
   14.3428    3.1348    8.3740 C   0  0  0  0  0  0  0  0  0  0  0  0
   13.0258    2.7200    8.5090 C   0  0  0  0  0  0  0  0  0  0  0  0
   12.3802    2.4222   10.0754 Cl  0  0  0  0  0  0  0  0  0  0  0  0
   12.2115    2.5594    7.3844 C   0  0  0  0  0  0  0  0  0  0  0  0
   12.6937    2.8198    6.0860 C   0  0  0  0  0  0  0  0  0  0  0  0
   11.2715    1.2581    4.5973 C   0  0  0  0  0  0  0  0  0  0  0  0
   11.5562    0.4965    3.6835 O   0  0  0  0  0  0  0  0  0  0  0  0
    8.4658   -0.7437    5.7313 C   0  0  0  0  0  0  0  0  0  0  0  0
    7.4452   -0.2329    4.9157 C   0  0  0  0  0  0  0  0  0  0  0  0
   -0.8461   -0.0954    0.7360 H   0  0  0  0  0  0  0  0  0  0  0  0
   -0.7306   -0.7311    2.3859 H   0  0  0  0  0  0  0  0  0  0  0  0
   -0.0055   -1.6217    1.0354 H   0  0  0  0  0  0  0  0  0  0  0  0
    1.6180    0.2233    0.6569 H   0  0  0  0  0  0  0  0  0  0  0  0
    0.3683    1.5244    3.1492 H   0  0  0  0  0  0  0  0  0  0  0  0
    0.1181    2.0726    1.4813 H   0  0  0  0  0  0  0  0  0  0  0  0
    1.7189    2.1729    2.2008 H   0  0  0  0  0  0  0  0  0  0  0  0
    2.0714   -1.5686    2.1838 H   0  0  0  0  0  0  0  0  0  0  0  0
    3.1992    0.9746    3.2053 H   0  0  0  0  0  0  0  0  0  0  0  0
    3.8167    0.0867    1.8152 H   0  0  0  0  0  0  0  0  0  0  0  0
    4.2499   -1.8778    3.2865 H   0  0  0  0  0  0  0  0  0  0  0  0
    3.5664   -0.9623    4.6780 H   0  0  0  0  0  0  0  0  0  0  0  0
    5.0222   -2.5787    5.3859 H   0  0  0  0  0  0  0  0  0  0  0  0
    6.7605   -3.5450    6.7723 H   0  0  0  0  0  0  0  0  0  0  0  0
    9.0808   -3.5202    7.6372 H   0  0  0  0  0  0  0  0  0  0  0  0
   11.7258   -0.5426    6.7140 H   0  0  0  0  0  0  0  0  0  0  0  0
    8.6899    2.4488    6.0808 H   0  0  0  0  0  0  0  0  0  0  0  0
    8.8275    2.2286    4.3033 H   0  0  0  0  0  0  0  0  0  0  0  0
   10.4350    4.0336    5.9808 H   0  0  0  0  0  0  0  0  0  0  0  0
   10.1394    4.0554    4.2542 H   0  0  0  0  0  0  0  0  0  0  0  0
   12.4016    4.2821    3.5305 H   0  0  0  0  0  0  0  0  0  0  0  0
   11.9923    2.8474    2.6498 H   0  0  0  0  0  0  0  0  0  0  0  0
   12.8021    1.1590    1.5976 H   0  0  0  0  0  0  0  0  0  0  0  0
   13.8914   -0.2282    1.5639 H   0  0  0  0  0  0  0  0  0  0  0  0
   12.8926    1.3844   -0.8492 H   0  0  0  0  0  0  0  0  0  0  0  0
   14.4972    1.2967   -1.6853 H   0  0  0  0  0  0  0  0  0  0  0  0
   13.5635    3.4733    0.3360 H   0  0  0  0  0  0  0  0  0  0  0  0
   15.1519    3.4360   -0.5332 H   0  0  0  0  0  0  0  0  0  0  0  0
   14.6198    4.6458    4.4575 H   0  0  0  0  0  0  0  0  0  0  0  0
   15.7189    3.2993    4.6221 H   0  0  0  0  0  0  0  0  0  0  0  0
   15.8871    3.7077    7.0042 H   0  0  0  0  0  0  0  0  0  0  0  0
   14.9796    3.2544    9.2456 H   0  0  0  0  0  0  0  0  0  0  0  0
   11.1871    2.2362    7.5473 H   0  0  0  0  0  0  0  0  0  0  0  0
    7.6024    0.6476    4.3077 H   0  0  0  0  0  0  0  0  0  0  0  0
  1  2  1  0  0  0  0
  1 43  1  0  0  0  0
  1 44  1  0  0  0  0
  1 45  1  0  0  0  0
  2  3  1  0  0  0  0
  2  4  1  0  0  0  0
  2 46  1  0  0  0  0
  3 47  1  0  0  0  0
  3 48  1  0  0  0  0
  3 49  1  0  0  0  0
  4  5  1  0  0  0  0
  4 50  1  0  0  0  0
  5  6  1  0  0  0  0
  5 51  1  0  0  0  0
  5 52  1  0  0  0  0
  6  7  1  0  0  0  0
  6 53  1  0  0  0  0
  6 54  1  0  0  0  0
  7  8  1  0  0  0  0
  8  9  1  0  0  0  0
  8 42  2  0  0  0  0
  9 10  2  0  0  0  0
  9 55  1  0  0  0  0
 10 11  1  0  0  0  0
 10 56  1  0  0  0  0
 11 12  1  0  0  0  0
 11 41  2  0  0  0  0
 12 13  2  0  0  0  0
 12 57  1  0  0  0  0
 13 14  1  0  0  0  0
 14 15  2  0  0  0  0
 14 58  1  0  0  0  0
 15 16  1  0  0  0  0
 15 41  1  0  0  0  0
 16 17  1  0  0  0  0
 16 39  1  0  0  0  0
 17 18  1  0  0  0  0
 17 59  1  0  0  0  0
 17 60  1  0  0  0  0
 18 19  1  0  0  0  0
 18 61  1  0  0  0  0
 18 62  1  0  0  0  0
 19 20  1  0  0  0  0
 19 38  1  0  0  0  0
 19 39  1  0  0  0  0
 20 21  1  0  0  0  0
 20 63  1  0  0  0  0
 20 64  1  0  0  0  0
 21 22  1  0  0  0  0
 21 31  1  0  0  0  0
 22 23  2  0  0  0  0
 22 24  2  0  0  0  0
 22 25  1  0  0  0  0
 25 26  1  0  0  0  0
 25 65  1  0  0  0  0
 25 66  1  0  0  0  0
 26 27  1  0  0  0  0
 26 29  1  0  0  0  0
 26 30  1  0  0  0  0
 27 28  3  0  0  0  0
 29 30  1  0  0  0  0
 29 67  1  0  0  0  0
 29 68  1  0  0  0  0
 30 69  1  0  0  0  0
 30 70  1  0  0  0  0
 31 32  1  0  0  0  0
 31 71  1  0  0  0  0
 31 72  1  0  0  0  0
 32 33  1  0  0  0  0
 32 38  2  0  0  0  0
 33 34  2  0  0  0  0
 33 73  1  0  0  0  0
 34 35  1  0  0  0  0
 34 74  1  0  0  0  0
 35 36  1  0  0  0  0
 35 37  2  0  0  0  0
 37 38  1  0  0  0  0
 37 75  1  0  0  0  0
 39 40  2  0  0  0  0
 41 42  1  0  0  0  0
 42 76  1  0  0  0  0
M  END
$$$$
