
 OpenBabel07202414193D

 47 50  0  0  1  0  0  0  0  0999 V2000
    1.3089   -0.7319   -0.3893 O   0  0  0  0  0  0  0  0  0  0  0  0
    2.2984   -0.0822   -0.0399 C   0  0  0  0  0  0  0  0  0  0  0  0
    2.7435    1.1070   -0.8839 C   0  0  0  0  0  0  0  0  0  0  0  0
    2.1209    2.4344   -0.5068 C   0  0  0  0  0  0  0  0  0  0  0  0
    0.7986    2.4708   -0.0578 C   0  0  0  0  0  0  0  0  0  0  0  0
    0.1187    3.5958    0.2563 N   0  0  0  0  0  0  0  0  0  0  0  0
    0.7816    4.7582    0.0951 C   0  0  0  0  0  0  0  0  0  0  0  0
    2.0906    4.8698   -0.3651 C   0  0  0  0  0  0  0  0  0  0  0  0
    2.7020    6.1278   -0.5166 C   0  0  0  0  0  0  0  0  0  0  0  0
    4.0074    6.2329   -0.9868 C   0  0  0  0  0  0  0  0  0  0  0  0
    4.7112    5.0811   -1.3156 C   0  0  0  0  0  0  0  0  0  0  0  0
    4.1105    3.8262   -1.1715 C   0  0  0  0  0  0  0  0  0  0  0  0
    2.7877    3.6792   -0.6841 C   0  0  0  0  0  0  0  0  0  0  0  0
    3.0227   -0.4063    1.0979 N   0  0  0  0  0  0  0  0  0  0  0  0
    4.1812    0.3129    1.6155 C   0  0  0  0  0  0  0  0  0  0  0  0
    5.4174   -0.5728    1.4976 C   0  0  0  0  0  0  0  0  0  0  0  0
    5.2087   -1.9211    2.2043 C   0  0  0  0  0  0  0  0  0  0  0  0
    3.9090   -2.6231    1.7570 C   0  0  1  0  0  0  0  0  0  0  0  0
    3.5730   -3.8659    2.6057 C   0  0  0  0  0  0  0  0  0  0  0  0
    4.5961   -4.9663    2.5463 C   0  0  0  0  0  0  0  0  0  0  0  0
    4.3462   -6.2116    3.3648 C   0  0  0  0  0  0  0  0  0  0  0  0
    5.4775   -5.2947    3.7268 C   0  0  0  0  0  0  0  0  0  0  0  0
    2.7185   -1.6419    1.8164 C   0  0  0  0  0  0  0  0  0  0  0  0
    2.4676    0.8878   -1.9240 H   0  0  0  0  0  0  0  0  0  0  0  0
    3.8354    1.1349   -0.8839 H   0  0  0  0  0  0  0  0  0  0  0  0
    0.2062    1.5636    0.0589 H   0  0  0  0  0  0  0  0  0  0  0  0
    0.1970    5.6394    0.3489 H   0  0  0  0  0  0  0  0  0  0  0  0
    2.1577    7.0372   -0.2694 H   0  0  0  0  0  0  0  0  0  0  0  0
    4.4706    7.2093   -1.1006 H   0  0  0  0  0  0  0  0  0  0  0  0
    5.7287    5.1558   -1.6894 H   0  0  0  0  0  0  0  0  0  0  0  0
    4.7032    2.9605   -1.4540 H   0  0  0  0  0  0  0  0  0  0  0  0
    3.9803    0.5512    2.6672 H   0  0  0  0  0  0  0  0  0  0  0  0
    4.3403    1.2644    1.1063 H   0  0  0  0  0  0  0  0  0  0  0  0
    6.2841   -0.0588    1.9273 H   0  0  0  0  0  0  0  0  0  0  0  0
    5.6375   -0.7503    0.4374 H   0  0  0  0  0  0  0  0  0  0  0  0
    5.1839   -1.7533    3.2885 H   0  0  0  0  0  0  0  0  0  0  0  0
    6.0726   -2.5639    1.9995 H   0  0  0  0  0  0  0  0  0  0  0  0
    4.0448   -2.9342    0.7116 H   0  0  0  0  0  0  0  0  0  0  0  0
    2.6271   -4.2850    2.2380 H   0  0  0  0  0  0  0  0  0  0  0  0
    3.3963   -3.5679    3.6473 H   0  0  0  0  0  0  0  0  0  0  0  0
    4.9904   -5.1198    1.5475 H   0  0  0  0  0  0  0  0  0  0  0  0
    4.5877   -7.1717    2.9219 H   0  0  0  0  0  0  0  0  0  0  0  0
    3.4917   -6.2421    4.0329 H   0  0  0  0  0  0  0  0  0  0  0  0
    6.4836   -5.6525    3.5373 H   0  0  0  0  0  0  0  0  0  0  0  0
    5.3806   -4.7184    4.6398 H   0  0  0  0  0  0  0  0  0  0  0  0
    2.4963   -1.3677    2.8555 H   0  0  0  0  0  0  0  0  0  0  0  0
    1.8217   -2.1223    1.4118 H   0  0  0  0  0  0  0  0  0  0  0  0
  1  2  2  0  0  0  0
  2  3  1  0  0  0  0
  2 14  1  0  0  0  0
  3  4  1  0  0  0  0
  3 24  1  0  0  0  0
  3 25  1  0  0  0  0
  4  5  1  0  0  0  0
  4 13  2  0  0  0  0
  5  6  2  0  0  0  0
  5 26  1  0  0  0  0
  6  7  1  0  0  0  0
  7  8  2  0  0  0  0
  7 27  1  0  0  0  0
  8  9  1  0  0  0  0
  8 13  1  0  0  0  0
  9 10  2  0  0  0  0
  9 28  1  0  0  0  0
 10 11  1  0  0  0  0
 10 29  1  0  0  0  0
 11 12  2  0  0  0  0
 11 30  1  0  0  0  0
 12 13  1  0  0  0  0
 12 31  1  0  0  0  0
 14 15  1  0  0  0  0
 14 23  1  0  0  0  0
 15 16  1  0  0  0  0
 15 32  1  0  0  0  0
 15 33  1  0  0  0  0
 16 17  1  0  0  0  0
 16 34  1  0  0  0  0
 16 35  1  0  0  0  0
 17 18  1  0  0  0  0
 17 36  1  0  0  0  0
 17 37  1  0  0  0  0
 18 19  1  0  0  0  0
 18 23  1  0  0  0  0
 18 38  1  6  0  0  0
 19 20  1  0  0  0  0
 19 39  1  0  0  0  0
 19 40  1  0  0  0  0
 20 21  1  0  0  0  0
 20 22  1  0  0  0  0
 20 41  1  0  0  0  0
 21 22  1  0  0  0  0
 21 42  1  0  0  0  0
 21 43  1  0  0  0  0
 22 44  1  0  0  0  0
 22 45  1  0  0  0  0
 23 46  1  0  0  0  0
 23 47  1  0  0  0  0
M  END
$$$$
