
 OpenBabel07202414193D

 55 59  0  0  1  0  0  0  0  0999 V2000
    1.0723    0.2826    0.2444 O   0  0  0  0  0  0  0  0  0  0  0  0
    2.2261   -0.0071   -0.0687 C   0  0  0  0  0  0  0  0  0  0  0  0
    2.8429   -1.3336    0.3593 C   0  0  0  0  0  0  0  0  0  0  0  0
    2.7030   -2.4595   -0.6424 C   0  0  0  0  0  0  0  0  0  0  0  0
    1.5425   -2.5538   -1.4146 C   0  0  0  0  0  0  0  0  0  0  0  0
    1.2985   -3.5279   -2.3127 N   0  0  0  0  0  0  0  0  0  0  0  0
    2.2325   -4.4943   -2.4232 C   0  0  0  0  0  0  0  0  0  0  0  0
    3.4232   -4.5332   -1.7014 C   0  0  0  0  0  0  0  0  0  0  0  0
    4.3402   -5.5866   -1.8683 C   0  0  0  0  0  0  0  0  0  0  0  0
    5.5330   -5.6127   -1.1513 C   0  0  0  0  0  0  0  0  0  0  0  0
    5.8241   -4.5807   -0.2698 C   0  0  0  0  0  0  0  0  0  0  0  0
    4.9133   -3.5339   -0.0902 C   0  0  0  0  0  0  0  0  0  0  0  0
    3.6827   -3.4831   -0.7905 C   0  0  0  0  0  0  0  0  0  0  0  0
    3.0349    0.8561   -0.7880 N   0  0  0  0  0  0  0  0  0  0  0  0
    2.5867    2.2205   -1.0814 C   0  0  0  0  0  0  0  0  0  0  0  0
    2.2965    2.4037   -2.5884 C   0  0  1  0  0  0  0  0  0  0  0  0
    2.0137    3.8620   -2.9019 C   0  0  0  0  0  0  0  0  0  0  0  0
    3.0531    4.7519   -3.2366 C   0  0  0  0  0  0  0  0  0  0  0  0
    2.7866    6.0986   -3.4742 C   0  0  0  0  0  0  0  0  0  0  0  0
    1.4787    6.5634   -3.3786 C   0  0  0  0  0  0  0  0  0  0  0  0
    1.2243    7.8612   -3.5953 F   0  0  0  0  0  0  0  0  0  0  0  0
    0.4388    5.7061   -3.0522 C   0  0  0  0  0  0  0  0  0  0  0  0
    0.7030    4.3538   -2.8138 C   0  0  0  0  0  0  0  0  0  0  0  0
    3.4201    1.9740   -3.3841 O   0  0  0  0  0  0  0  0  0  0  0  0
    3.7556    0.5981   -3.1296 C   0  0  1  0  0  0  0  0  0  0  0  0
    4.9278    0.1831   -3.9903 C   0  0  0  0  0  0  0  0  0  0  0  0
    5.9233    1.1037   -4.3490 C   0  0  0  0  0  0  0  0  0  0  0  0
    7.0579    0.6853   -5.0445 C   0  0  0  0  0  0  0  0  0  0  0  0
    7.2068   -0.6546   -5.3894 C   0  0  0  0  0  0  0  0  0  0  0  0
    6.2165   -1.5768   -5.0563 C   0  0  0  0  0  0  0  0  0  0  0  0
    5.0793   -1.1621   -4.3606 C   0  0  0  0  0  0  0  0  0  0  0  0
    4.1360    0.4111   -1.6448 C   0  0  0  0  0  0  0  0  0  0  0  0
    2.3760   -1.6366    1.3038 H   0  0  0  0  0  0  0  0  0  0  0  0
    3.8900   -1.1258    0.6015 H   0  0  0  0  0  0  0  0  0  0  0  0
    0.7401   -1.8226   -1.3360 H   0  0  0  0  0  0  0  0  0  0  0  0
    1.9827   -5.2739   -3.1394 H   0  0  0  0  0  0  0  0  0  0  0  0
    4.1255   -6.4010   -2.5584 H   0  0  0  0  0  0  0  0  0  0  0  0
    6.2321   -6.4350   -1.2810 H   0  0  0  0  0  0  0  0  0  0  0  0
    6.7590   -4.5884    0.2858 H   0  0  0  0  0  0  0  0  0  0  0  0
    5.1946   -2.7552    0.6135 H   0  0  0  0  0  0  0  0  0  0  0  0
    3.4092    2.8788   -0.7719 H   0  0  0  0  0  0  0  0  0  0  0  0
    1.7127    2.4872   -0.4770 H   0  0  0  0  0  0  0  0  0  0  0  0
    1.4329    1.7934   -2.8875 H   0  0  0  0  0  0  0  0  0  0  0  0
    4.0768    4.3932   -3.3179 H   0  0  0  0  0  0  0  0  0  0  0  0
    3.5834    6.7849   -3.7336 H   0  0  0  0  0  0  0  0  0  0  0  0
   -0.5743    6.0927   -2.9841 H   0  0  0  0  0  0  0  0  0  0  0  0
   -0.1211    3.6925   -2.5530 H   0  0  0  0  0  0  0  0  0  0  0  0
    2.8790   -0.0102   -3.3894 H   0  0  0  0  0  0  0  0  0  0  0  0
    5.8232    2.1510   -4.0768 H   0  0  0  0  0  0  0  0  0  0  0  0
    7.8251    1.4082   -5.3073 H   0  0  0  0  0  0  0  0  0  0  0  0
    8.0971   -0.9809   -5.9212 H   0  0  0  0  0  0  0  0  0  0  0  0
    6.3329   -2.6219   -5.3309 H   0  0  0  0  0  0  0  0  0  0  0  0
    4.3242   -1.8983   -4.0955 H   0  0  0  0  0  0  0  0  0  0  0  0
    5.0077    1.0184   -1.3764 H   0  0  0  0  0  0  0  0  0  0  0  0
    4.3998   -0.6308   -1.4648 H   0  0  0  0  0  0  0  0  0  0  0  0
  1  2  2  0  0  0  0
  2  3  1  0  0  0  0
  2 14  1  0  0  0  0
  3  4  1  0  0  0  0
  3 33  1  0  0  0  0
  3 34  1  0  0  0  0
  4  5  1  0  0  0  0
  4 13  2  0  0  0  0
  5  6  2  0  0  0  0
  5 35  1  0  0  0  0
  6  7  1  0  0  0  0
  7  8  2  0  0  0  0
  7 36  1  0  0  0  0
  8  9  1  0  0  0  0
  8 13  1  0  0  0  0
  9 10  2  0  0  0  0
  9 37  1  0  0  0  0
 10 11  1  0  0  0  0
 10 38  1  0  0  0  0
 11 12  2  0  0  0  0
 11 39  1  0  0  0  0
 12 13  1  0  0  0  0
 12 40  1  0  0  0  0
 14 15  1  0  0  0  0
 14 32  1  0  0  0  0
 15 16  1  0  0  0  0
 15 41  1  0  0  0  0
 15 42  1  0  0  0  0
 16 17  1  0  0  0  0
 16 24  1  0  0  0  0
 16 43  1  6  0  0  0
 17 18  1  0  0  0  0
 17 23  2  0  0  0  0
 18 19  2  0  0  0  0
 18 44  1  0  0  0  0
 19 20  1  0  0  0  0
 19 45  1  0  0  0  0
 20 21  1  0  0  0  0
 20 22  2  0  0  0  0
 22 23  1  0  0  0  0
 22 46  1  0  0  0  0
 23 47  1  0  0  0  0
 24 25  1  0  0  0  0
 25 32  1  0  0  0  0
 25 26  1  0  0  0  0
 25 48  1  6  0  0  0
 26 27  1  0  0  0  0
 26 31  2  0  0  0  0
 27 28  2  0  0  0  0
 27 49  1  0  0  0  0
 28 29  1  0  0  0  0
 28 50  1  0  0  0  0
 29 30  2  0  0  0  0
 29 51  1  0  0  0  0
 30 31  1  0  0  0  0
 30 52  1  0  0  0  0
 31 53  1  0  0  0  0
 32 54  1  0  0  0  0
 32 55  1  0  0  0  0
M  END
$$$$
