
 OpenBabel07202414133D

 67 71  0  0  1  0  0  0  0  0999 V2000
   15.3822    2.1010   -4.8874 C   0  0  0  0  0  0  0  0  0  0  0  0
   14.0696    2.1451   -4.1243 C   0  0  0  0  0  0  0  0  0  0  0  0
   14.2686    1.5266   -2.8497 O   0  0  0  0  0  0  0  0  0  0  0  0
   13.1434    1.0282   -2.2477 C   0  0  0  0  0  0  0  0  0  0  0  0
   11.8467    1.4918   -2.4732 C   0  0  0  0  0  0  0  0  0  0  0  0
   10.7695    0.8814   -1.8285 C   0  0  0  0  0  0  0  0  0  0  0  0
   10.9838   -0.1856   -0.9544 C   0  0  0  0  0  0  0  0  0  0  0  0
   12.2816   -0.6522   -0.6973 C   0  0  0  0  0  0  0  0  0  0  0  0
   12.4997   -1.8229    0.2292 C   0  0  0  0  0  0  0  0  0  0  0  0
   11.9235   -3.0312   -0.3167 N   0  0  0  0  0  0  0  0  0  0  0  0
   11.6393   -4.1336    0.4569 C   0  0  0  0  0  0  0  0  0  0  0  0
   11.8219   -4.1839    1.6717 O   0  0  0  0  0  0  0  0  0  0  0  0
   11.0358   -5.2915   -0.3330 C   0  0  0  0  0  0  0  0  0  0  0  0
   11.9727   -6.3524   -0.6330 N   0  0  0  0  0  0  0  0  0  0  0  0
   13.1503   -6.1307   -1.4518 C   0  0  0  0  0  0  0  0  0  0  0  0
   13.1352   -7.2128   -2.5562 C   0  0  2  0  0  0  0  0  0  0  0  0
   12.1477   -6.6726   -3.6123 C   0  0  0  0  0  0  0  0  0  0  0  0
   12.4098   -5.6694   -4.2718 O   0  0  0  0  0  0  0  0  0  0  0  0
   10.9427   -7.3230   -3.6364 N   0  0  0  0  0  0  0  0  0  0  0  0
    9.7323   -6.9824   -4.2697 C   0  0  0  0  0  0  0  0  0  0  0  0
    9.5477   -5.8523   -5.0652 C   0  0  0  0  0  0  0  0  0  0  0  0
    8.3793   -5.5442   -5.6839 N   0  0  0  0  0  0  0  0  0  0  0  0
    7.3268   -6.3507   -5.4290 C   0  0  0  0  0  0  0  0  0  0  0  0
    7.3523   -7.4367   -4.5418 C   0  0  0  0  0  0  0  0  0  0  0  0
    6.1902   -8.1247   -4.1646 C   0  0  0  0  0  0  0  0  0  0  0  0
    6.2516   -9.1962   -3.2715 C   0  0  0  0  0  0  0  0  0  0  0  0
    7.4826   -9.6399   -2.8118 C   0  0  0  0  0  0  0  0  0  0  0  0
    8.6348   -8.9662   -3.1885 C   0  0  0  0  0  0  0  0  0  0  0  0
    8.6046   -7.8066   -4.0031 C   0  0  0  0  0  0  0  0  0  0  0  0
   12.8750   -8.6097   -1.9303 C   0  0  0  0  0  0  0  0  0  0  0  0
   13.1301   -9.7909   -2.6473 C   0  0  0  0  0  0  0  0  0  0  0  0
   12.9747  -11.0422   -2.0274 C   0  0  0  0  0  0  0  0  0  0  0  0
   13.3349  -12.4836   -2.8981 Cl  0  0  0  0  0  0  0  0  0  0  0  0
   12.5505  -11.1357   -0.7055 C   0  0  0  0  0  0  0  0  0  0  0  0
   12.2617   -9.9834    0.0122 C   0  0  0  0  0  0  0  0  0  0  0  0
   12.4075   -8.7211   -0.5883 C   0  0  0  0  0  0  0  0  0  0  0  0
   12.1000   -7.4857    0.2479 C   0  0  0  0  0  0  0  0  0  0  0  0
   13.3580   -0.0176   -1.3396 C   0  0  0  0  0  0  0  0  0  0  0  0
   15.2759    2.5677   -5.8711 H   0  0  0  0  0  0  0  0  0  0  0  0
   15.7082    1.0644   -5.0254 H   0  0  0  0  0  0  0  0  0  0  0  0
   16.1749    2.6153   -4.3349 H   0  0  0  0  0  0  0  0  0  0  0  0
   13.3138    1.6130   -4.7146 H   0  0  0  0  0  0  0  0  0  0  0  0
   13.7609    3.1871   -3.9818 H   0  0  0  0  0  0  0  0  0  0  0  0
   11.6509    2.3244   -3.1374 H   0  0  0  0  0  0  0  0  0  0  0  0
    9.7580    1.2379   -2.0126 H   0  0  0  0  0  0  0  0  0  0  0  0
   10.1297   -0.6555   -0.4697 H   0  0  0  0  0  0  0  0  0  0  0  0
   12.0627   -1.6137    1.2124 H   0  0  0  0  0  0  0  0  0  0  0  0
   13.5708   -2.0147    0.3817 H   0  0  0  0  0  0  0  0  0  0  0  0
   11.9389   -3.1363   -1.3261 H   0  0  0  0  0  0  0  0  0  0  0  0
   10.6174   -4.9121   -1.2741 H   0  0  0  0  0  0  0  0  0  0  0  0
   10.1704   -5.6732    0.2227 H   0  0  0  0  0  0  0  0  0  0  0  0
   14.0645   -6.2309   -0.8508 H   0  0  0  0  0  0  0  0  0  0  0  0
   13.1770   -5.1240   -1.8807 H   0  0  0  0  0  0  0  0  0  0  0  0
   14.1182   -7.2553   -3.0424 H   0  0  0  0  0  0  0  0  0  0  0  0
   10.9003   -8.1198   -3.0180 H   0  0  0  0  0  0  0  0  0  0  0  0
   10.3280   -5.1179   -5.2257 H   0  0  0  0  0  0  0  0  0  0  0  0
    6.4170   -6.0881   -5.9669 H   0  0  0  0  0  0  0  0  0  0  0  0
    5.2150   -7.8019   -4.5251 H   0  0  0  0  0  0  0  0  0  0  0  0
    5.3416   -9.6823   -2.9305 H   0  0  0  0  0  0  0  0  0  0  0  0
    7.5491  -10.4970   -2.1457 H   0  0  0  0  0  0  0  0  0  0  0  0
    9.5662   -9.3808   -2.8071 H   0  0  0  0  0  0  0  0  0  0  0  0
   13.4707   -9.7527   -3.6794 H   0  0  0  0  0  0  0  0  0  0  0  0
   12.4618  -12.1101   -0.2185 H   0  0  0  0  0  0  0  0  0  0  0  0
   11.9361  -10.0645    1.0466 H   0  0  0  0  0  0  0  0  0  0  0  0
   12.9036   -7.3383    0.9799 H   0  0  0  0  0  0  0  0  0  0  0  0
   11.1686   -7.6645    0.7971 H   0  0  0  0  0  0  0  0  0  0  0  0
   14.3777   -0.3439   -1.1514 H   0  0  0  0  0  0  0  0  0  0  0  0
  1  2  1  0  0  0  0
  1 39  1  0  0  0  0
  1 40  1  0  0  0  0
  1 41  1  0  0  0  0
  2  3  1  0  0  0  0
  2 42  1  0  0  0  0
  2 43  1  0  0  0  0
  3  4  1  0  0  0  0
  4  5  1  0  0  0  0
  4 38  2  0  0  0  0
  5  6  2  0  0  0  0
  5 44  1  0  0  0  0
  6  7  1  0  0  0  0
  6 45  1  0  0  0  0
  7  8  2  0  0  0  0
  7 46  1  0  0  0  0
  8  9  1  0  0  0  0
  8 38  1  0  0  0  0
  9 10  1  0  0  0  0
  9 47  1  0  0  0  0
  9 48  1  0  0  0  0
 10 11  1  0  0  0  0
 10 49  1  0  0  0  0
 11 12  2  0  0  0  0
 11 13  1  0  0  0  0
 13 14  1  0  0  0  0
 13 50  1  0  0  0  0
 13 51  1  0  0  0  0
 14 15  1  0  0  0  0
 14 37  1  0  0  0  0
 15 16  1  0  0  0  0
 15 52  1  0  0  0  0
 15 53  1  0  0  0  0
 16 30  1  0  0  0  0
 16 17  1  0  0  0  0
 16 54  1  6  0  0  0
 17 18  2  0  0  0  0
 17 19  1  0  0  0  0
 19 20  1  0  0  0  0
 19 55  1  0  0  0  0
 20 21  1  0  0  0  0
 20 29  2  0  0  0  0
 21 22  2  0  0  0  0
 21 56  1  0  0  0  0
 22 23  1  0  0  0  0
 23 24  2  0  0  0  0
 23 57  1  0  0  0  0
 24 25  1  0  0  0  0
 24 29  1  0  0  0  0
 25 26  2  0  0  0  0
 25 58  1  0  0  0  0
 26 27  1  0  0  0  0
 26 59  1  0  0  0  0
 27 28  2  0  0  0  0
 27 60  1  0  0  0  0
 28 29  1  0  0  0  0
 28 61  1  0  0  0  0
 30 31  1  0  0  0  0
 30 36  2  0  0  0  0
 31 32  2  0  0  0  0
 31 62  1  0  0  0  0
 32 33  1  0  0  0  0
 32 34  1  0  0  0  0
 34 35  2  0  0  0  0
 34 63  1  0  0  0  0
 35 36  1  0  0  0  0
 35 64  1  0  0  0  0
 36 37  1  0  0  0  0
 37 65  1  0  0  0  0
 37 66  1  0  0  0  0
 38 67  1  0  0  0  0
M  END
$$$$
