
 OpenBabel07202414133D

 48 51  0  0  0  0  0  0  0  0999 V2000
    0.9827    0.3972    0.5821 C   0  0  0  0  0  0  0  0  0  0  0  0
    1.7177   -0.8405    0.3344 N   0  0  0  0  0  0  0  0  0  0  0  0
    1.6268   -1.3959   -1.0119 C   0  0  0  0  0  0  0  0  0  0  0  0
    2.7188   -1.2489    1.2152 C   0  0  0  0  0  0  0  0  0  0  0  0
    2.7102   -0.8771    2.5720 C   0  0  0  0  0  0  0  0  0  0  0  0
    3.6639   -1.3471    3.4950 C   0  0  0  0  0  0  0  0  0  0  0  0
    4.6802   -2.2040    3.0816 C   0  0  0  0  0  0  0  0  0  0  0  0
    5.5814   -2.7633    4.0496 N   0  0  0  0  0  0  0  0  0  0  0  0
    6.8983   -2.1012    4.1235 C   0  0  0  0  0  0  0  0  0  0  0  0
    7.2920   -1.7866    5.5391 C   0  0  0  0  0  0  0  0  0  0  0  0
    6.4796   -1.3862    6.5877 C   0  0  0  0  0  0  0  0  0  0  0  0
    7.3876   -1.2799    8.0409 S   0  0  0  0  0  0  0  0  0  0  0  0
    8.7937   -1.7332    7.1742 C   0  0  0  0  0  0  0  0  0  0  0  0
    8.6259   -1.9547    5.8898 N   0  0  0  0  0  0  0  0  0  0  0  0
    5.3174   -4.0620    4.4806 C   0  0  0  0  0  0  0  0  0  0  0  0
    4.2443   -4.6308    4.2250 O   0  0  0  0  0  0  0  0  0  0  0  0
    6.3245   -4.8209    5.3349 C   0  0  0  0  0  0  0  0  0  0  0  0
    7.4119   -5.4155    4.5866 N   0  0  0  0  0  0  0  0  0  0  0  0
    8.6341   -5.4453    5.1600 N   0  0  0  0  0  0  0  0  0  0  0  0
    9.5265   -5.5225    4.1834 N   0  0  0  0  0  0  0  0  0  0  0  0
    8.8481   -5.6512    3.0041 C   0  0  0  0  0  0  0  0  0  0  0  0
    9.3103   -5.6775    1.6828 C   0  0  0  0  0  0  0  0  0  0  0  0
    8.3770   -5.8487    0.6535 C   0  0  0  0  0  0  0  0  0  0  0  0
    7.0219   -6.0346    0.9388 C   0  0  0  0  0  0  0  0  0  0  0  0
    6.5399   -5.9814    2.2515 C   0  0  0  0  0  0  0  0  0  0  0  0
    7.4823   -5.7330    3.2545 C   0  0  0  0  0  0  0  0  0  0  0  0
    4.7470   -2.5564    1.7336 C   0  0  0  0  0  0  0  0  0  0  0  0
    3.7752   -2.0920    0.8245 C   0  0  0  0  0  0  0  0  0  0  0  0
    0.2733    0.6139   -0.2258 H   0  0  0  0  0  0  0  0  0  0  0  0
    1.6655    1.2508    0.6478 H   0  0  0  0  0  0  0  0  0  0  0  0
    0.3861    0.3328    1.4977 H   0  0  0  0  0  0  0  0  0  0  0  0
    0.7103   -1.0689   -1.5184 H   0  0  0  0  0  0  0  0  0  0  0  0
    1.5820   -2.4903   -0.9824 H   0  0  0  0  0  0  0  0  0  0  0  0
    2.4726   -1.0786   -1.6302 H   0  0  0  0  0  0  0  0  0  0  0  0
    1.9191   -0.2429    2.9613 H   0  0  0  0  0  0  0  0  0  0  0  0
    3.5728   -1.0618    4.5381 H   0  0  0  0  0  0  0  0  0  0  0  0
    6.8923   -1.1662    3.5503 H   0  0  0  0  0  0  0  0  0  0  0  0
    7.6402   -2.7661    3.6698 H   0  0  0  0  0  0  0  0  0  0  0  0
    5.4152   -1.2012    6.5848 H   0  0  0  0  0  0  0  0  0  0  0  0
    9.7570   -1.8355    7.6585 H   0  0  0  0  0  0  0  0  0  0  0  0
    5.8145   -5.6307    5.8636 H   0  0  0  0  0  0  0  0  0  0  0  0
    6.7477   -4.1747    6.1035 H   0  0  0  0  0  0  0  0  0  0  0  0
   10.3656   -5.5447    1.4725 H   0  0  0  0  0  0  0  0  0  0  0  0
    8.7155   -5.8461   -0.3797 H   0  0  0  0  0  0  0  0  0  0  0  0
    6.3208   -6.2029    0.1231 H   0  0  0  0  0  0  0  0  0  0  0  0
    5.4814   -6.1048    2.4628 H   0  0  0  0  0  0  0  0  0  0  0  0
    5.5294   -3.2165    1.3713 H   0  0  0  0  0  0  0  0  0  0  0  0
    3.8669   -2.4161   -0.2086 H   0  0  0  0  0  0  0  0  0  0  0  0
  1  2  1  0  0  0  0
  1 29  1  0  0  0  0
  1 30  1  0  0  0  0
  1 31  1  0  0  0  0
  2  3  1  0  0  0  0
  2  4  1  0  0  0  0
  3 32  1  0  0  0  0
  3 33  1  0  0  0  0
  3 34  1  0  0  0  0
  4  5  1  0  0  0  0
  4 28  2  0  0  0  0
  5  6  2  0  0  0  0
  5 35  1  0  0  0  0
  6  7  1  0  0  0  0
  6 36  1  0  0  0  0
  7  8  1  0  0  0  0
  7 27  2  0  0  0  0
  8  9  1  0  0  0  0
  8 15  1  0  0  0  0
  9 10  1  0  0  0  0
  9 37  1  0  0  0  0
  9 38  1  0  0  0  0
 10 11  2  0  0  0  0
 10 14  1  0  0  0  0
 11 12  1  0  0  0  0
 11 39  1  0  0  0  0
 12 13  1  0  0  0  0
 13 14  2  0  0  0  0
 13 40  1  0  0  0  0
 15 16  2  0  0  0  0
 15 17  1  0  0  0  0
 17 18  1  0  0  0  0
 17 41  1  0  0  0  0
 17 42  1  0  0  0  0
 18 19  1  0  0  0  0
 18 26  1  0  0  0  0
 19 20  2  0  0  0  0
 20 21  1  0  0  0  0
 21 22  1  0  0  0  0
 21 26  2  0  0  0  0
 22 23  2  0  0  0  0
 22 43  1  0  0  0  0
 23 24  1  0  0  0  0
 23 44  1  0  0  0  0
 24 25  2  0  0  0  0
 24 45  1  0  0  0  0
 25 26  1  0  0  0  0
 25 46  1  0  0  0  0
 27 28  1  0  0  0  0
 27 47  1  0  0  0  0
 28 48  1  0  0  0  0
M  END
$$$$
