
 OpenBabel07202414163D

 42 45  0  0  1  0  0  0  0  0999 V2000
    4.7695    4.2808   -0.6683 C   0  0  0  0  0  0  0  0  0  0  0  0
    4.8444    4.4017    0.8181 C   0  0  0  0  0  0  0  0  0  0  0  0
    5.9936    5.0050    1.3944 C   0  0  0  0  0  0  0  0  0  0  0  0
    6.1894    5.1821    2.7947 C   0  0  0  0  0  0  0  0  0  0  0  0
    7.4939    5.8132    3.2753 C   0  0  0  0  0  0  0  0  0  0  0  0
    8.3432    6.1335    2.2528 F   0  0  0  0  0  0  0  0  0  0  0  0
    7.3138    6.9795    3.9602 F   0  0  0  0  0  0  0  0  0  0  0  0
    8.2186    4.9968    4.0932 F   0  0  0  0  0  0  0  0  0  0  0  0
    5.2874    4.8182    3.7556 N   0  0  0  0  0  0  0  0  0  0  0  0
    4.1673    4.2460    3.2562 C   0  0  0  0  0  0  0  0  0  0  0  0
    3.1436    3.8184    3.9898 N   0  0  0  0  0  0  0  0  0  0  0  0
    2.2914    3.3361    3.0796 N   0  0  0  0  0  0  0  0  0  0  0  0
    2.6978    3.4462    1.7677 C   0  0  0  0  0  0  0  0  0  0  0  0
    1.8633    3.0472    0.7209 N   0  0  0  0  0  0  0  0  0  0  0  0
    0.6166    2.4708    0.9690 C   0  0  0  0  0  0  0  0  0  0  0  0
    0.2455    2.1148    2.0927 O   0  0  0  0  0  0  0  0  0  0  0  0
   -0.3962    2.4904   -0.1889 C   0  0  3  0  0  0  0  0  0  0  0  0
   -1.0883    3.8620   -0.1278 C   0  0  0  0  0  0  0  0  0  0  0  0
   -1.2195    4.5405   -1.4764 C   0  0  0  0  0  0  0  0  0  0  0  0
   -0.0043    4.4875   -2.2279 O   0  0  0  0  0  0  0  0  0  0  0  0
    0.4151    3.2081   -2.4600 C   0  0  0  0  0  0  0  0  0  0  0  0
    1.1222    2.9762   -3.6389 C   0  0  0  0  0  0  0  0  0  0  0  0
    1.5539    1.6876   -3.9526 C   0  0  0  0  0  0  0  0  0  0  0  0
    1.2561    0.6350   -3.0907 C   0  0  0  0  0  0  0  0  0  0  0  0
    1.7094   -0.9686   -3.5187 Cl  0  0  0  0  0  0  0  0  0  0  0  0
    0.5958    0.8747   -1.8822 C   0  0  0  0  0  0  0  0  0  0  0  0
    0.2017    2.1797   -1.5402 C   0  0  0  0  0  0  0  0  0  0  0  0
    3.9500    4.0423    1.8413 C   0  0  0  0  0  0  0  0  0  0  0  0
    5.7202    3.8904   -1.0551 H   0  0  0  0  0  0  0  0  0  0  0  0
    4.6027    5.2678   -1.1140 H   0  0  0  0  0  0  0  0  0  0  0  0
    3.9852    3.6020   -1.0014 H   0  0  0  0  0  0  0  0  0  0  0  0
    6.7849    5.3472    0.7205 H   0  0  0  0  0  0  0  0  0  0  0  0
    1.4072    2.9406    3.3923 H   0  0  0  0  0  0  0  0  0  0  0  0
    2.1545    3.2060   -0.2368 H   0  0  0  0  0  0  0  0  0  0  0  0
   -1.1457    1.7128    0.0193 H   0  0  0  0  0  0  0  0  0  0  0  0
   -0.5317    4.5392    0.5330 H   0  0  0  0  0  0  0  0  0  0  0  0
   -2.0788    3.7590    0.3337 H   0  0  0  0  0  0  0  0  0  0  0  0
   -2.0521    4.1285   -2.0610 H   0  0  0  0  0  0  0  0  0  0  0  0
   -1.4470    5.6004   -1.3128 H   0  0  0  0  0  0  0  0  0  0  0  0
    1.3229    3.7976   -4.3220 H   0  0  0  0  0  0  0  0  0  0  0  0
    2.1050    1.5109   -4.8732 H   0  0  0  0  0  0  0  0  0  0  0  0
    0.3926    0.0424   -1.2109 H   0  0  0  0  0  0  0  0  0  0  0  0
  1  2  1  0  0  0  0
  1 29  1  0  0  0  0
  1 30  1  0  0  0  0
  1 31  1  0  0  0  0
  2  3  2  0  0  0  0
  2 28  1  0  0  0  0
  3  4  1  0  0  0  0
  3 32  1  0  0  0  0
  4  5  1  0  0  0  0
  4  9  2  0  0  0  0
  5  6  1  0  0  0  0
  5  7  1  0  0  0  0
  5  8  1  0  0  0  0
  9 10  1  0  0  0  0
 10 11  2  0  0  0  0
 10 28  1  0  0  0  0
 11 12  1  0  0  0  0
 12 13  1  0  0  0  0
 12 33  1  0  0  0  0
 13 14  1  0  0  0  0
 13 28  2  0  0  0  0
 14 15  1  0  0  0  0
 14 34  1  0  0  0  0
 15 16  2  0  0  0  0
 15 17  1  0  0  0  0
 17 18  1  0  0  0  0
 17 27  1  0  0  0  0
 17 35  1  0  0  0  0
 18 19  1  0  0  0  0
 18 36  1  0  0  0  0
 18 37  1  0  0  0  0
 19 20  1  0  0  0  0
 19 38  1  0  0  0  0
 19 39  1  0  0  0  0
 20 21  1  0  0  0  0
 21 22  1  0  0  0  0
 21 27  2  0  0  0  0
 22 23  2  0  0  0  0
 22 40  1  0  0  0  0
 23 24  1  0  0  0  0
 23 41  1  0  0  0  0
 24 25  1  0  0  0  0
 24 26  2  0  0  0  0
 26 27  1  0  0  0  0
 26 42  1  0  0  0  0
M  END
$$$$
