
 OpenBabel07202414133D

 69 72  0  0  0  0  0  0  0  0999 V2000
    1.0609   -0.1635   -0.1051 C   0  0  0  0  0  0  0  0  0  0  0  0
    2.5251   -0.1148   -0.1233 N   0  0  0  0  0  0  0  0  0  0  0  0
    3.3126    0.5665    0.9431 C   0  0  0  0  0  0  0  0  0  0  0  0
    2.4823    1.4636    1.8843 C   0  0  0  0  0  0  0  0  0  0  0  0
    1.9698    2.7135    1.1755 C   0  0  0  0  0  0  0  0  0  0  0  0
    3.0685    3.4491    0.5744 N   0  0  0  0  0  0  0  0  0  0  0  0
    3.1487    4.8145    0.7547 C   0  0  0  0  0  0  0  0  0  0  0  0
    2.3475    5.4470    1.4355 O   0  0  0  0  0  0  0  0  0  0  0  0
    4.2100    5.3748    0.1170 O   0  0  0  0  0  0  0  0  0  0  0  0
    4.4269    6.8045    0.1971 C   0  0  0  0  0  0  0  0  0  0  0  0
    4.6978    7.2529    1.6393 C   0  0  0  0  0  0  0  0  0  0  0  0
    5.6896    7.0724   -0.6372 C   0  0  0  0  0  0  0  0  0  0  0  0
    3.2604    7.5702   -0.4399 C   0  0  0  0  0  0  0  0  0  0  0  0
    3.9213    2.6902   -0.3347 C   0  0  0  0  0  0  0  0  0  0  0  0
    4.4522    1.4482    0.3693 C   0  0  0  0  0  0  0  0  0  0  0  0
    3.1562   -0.8289   -1.1479 C   0  0  0  0  0  0  0  0  0  0  0  0
    2.5732   -0.9214   -2.4252 C   0  0  0  0  0  0  0  0  0  0  0  0
    3.2320   -1.5072   -3.5191 C   0  0  0  0  0  0  0  0  0  0  0  0
    2.5667   -1.5131   -4.8744 C   0  0  0  0  0  0  0  0  0  0  0  0
    2.6666   -0.2304   -5.6887 C   0  0  0  0  0  0  0  0  0  0  0  0
    1.9380   -0.0702   -6.6679 O   0  0  0  0  0  0  0  0  0  0  0  0
    3.6558    0.6576   -5.3157 N   0  0  0  0  0  0  0  0  0  0  0  0
    3.9011    1.8668   -6.0000 C   0  0  0  0  0  0  0  0  0  0  0  0
    2.8549    2.7023   -6.4004 C   0  0  0  0  0  0  0  0  0  0  0  0
    3.0216    3.8924   -7.0153 N   0  0  0  0  0  0  0  0  0  0  0  0
    4.2940    4.2577   -7.2804 C   0  0  0  0  0  0  0  0  0  0  0  0
    5.4246    3.4982   -6.9545 C   0  0  0  0  0  0  0  0  0  0  0  0
    6.7180    3.9191   -7.3059 C   0  0  0  0  0  0  0  0  0  0  0  0
    7.8264    3.1222   -7.0180 C   0  0  0  0  0  0  0  0  0  0  0  0
    7.6547    1.9076   -6.3688 C   0  0  0  0  0  0  0  0  0  0  0  0
    6.3745    1.4876   -6.0010 C   0  0  0  0  0  0  0  0  0  0  0  0
    5.2297    2.2736   -6.2829 C   0  0  0  0  0  0  0  0  0  0  0  0
    4.5164   -2.0226   -3.3379 C   0  0  0  0  0  0  0  0  0  0  0  0
    5.0927   -1.9923   -2.0718 C   0  0  0  0  0  0  0  0  0  0  0  0
    6.6874   -2.6037   -1.8528 Cl  0  0  0  0  0  0  0  0  0  0  0  0
    4.4118   -1.4315   -0.9878 C   0  0  0  0  0  0  0  0  0  0  0  0
    0.6138    0.1753    0.8296 H   0  0  0  0  0  0  0  0  0  0  0  0
    0.6979   -1.1879   -0.2476 H   0  0  0  0  0  0  0  0  0  0  0  0
    0.6474    0.4752   -0.8941 H   0  0  0  0  0  0  0  0  0  0  0  0
    3.7608   -0.2154    1.5698 H   0  0  0  0  0  0  0  0  0  0  0  0
    3.1321    1.7850    2.7107 H   0  0  0  0  0  0  0  0  0  0  0  0
    1.6645    0.9173    2.3624 H   0  0  0  0  0  0  0  0  0  0  0  0
    1.4257    3.3366    1.8952 H   0  0  0  0  0  0  0  0  0  0  0  0
    1.2649    2.4743    0.3746 H   0  0  0  0  0  0  0  0  0  0  0  0
    5.5371    6.6941    2.0684 H   0  0  0  0  0  0  0  0  0  0  0  0
    3.8430    7.0794    2.2987 H   0  0  0  0  0  0  0  0  0  0  0  0
    4.9321    8.3222    1.6862 H   0  0  0  0  0  0  0  0  0  0  0  0
    6.5492    6.5216   -0.2377 H   0  0  0  0  0  0  0  0  0  0  0  0
    5.9415    8.1383   -0.6564 H   0  0  0  0  0  0  0  0  0  0  0  0
    5.5556    6.7303   -1.6700 H   0  0  0  0  0  0  0  0  0  0  0  0
    2.3248    7.4334    0.1090 H   0  0  0  0  0  0  0  0  0  0  0  0
    3.0773    7.2121   -1.4594 H   0  0  0  0  0  0  0  0  0  0  0  0
    3.4628    8.6453   -0.4783 H   0  0  0  0  0  0  0  0  0  0  0  0
    4.7588    3.2932   -0.6940 H   0  0  0  0  0  0  0  0  0  0  0  0
    3.3167    2.4200   -1.2082 H   0  0  0  0  0  0  0  0  0  0  0  0
    5.0905    1.7677    1.2044 H   0  0  0  0  0  0  0  0  0  0  0  0
    5.1111    0.9089   -0.3146 H   0  0  0  0  0  0  0  0  0  0  0  0
    1.5930   -0.4850   -2.6052 H   0  0  0  0  0  0  0  0  0  0  0  0
    1.4973   -1.7167   -4.7319 H   0  0  0  0  0  0  0  0  0  0  0  0
    2.9659   -2.3341   -5.4811 H   0  0  0  0  0  0  0  0  0  0  0  0
    4.3995    0.3038   -4.7285 H   0  0  0  0  0  0  0  0  0  0  0  0
    1.8214    2.4442   -6.1935 H   0  0  0  0  0  0  0  0  0  0  0  0
    4.3868    5.2080   -7.7978 H   0  0  0  0  0  0  0  0  0  0  0  0
    6.8692    4.8578   -7.8316 H   0  0  0  0  0  0  0  0  0  0  0  0
    8.8212    3.4451   -7.3149 H   0  0  0  0  0  0  0  0  0  0  0  0
    8.5130    1.2736   -6.1608 H   0  0  0  0  0  0  0  0  0  0  0  0
    6.2891    0.5156   -5.5279 H   0  0  0  0  0  0  0  0  0  0  0  0
    5.0674   -2.4455   -4.1745 H   0  0  0  0  0  0  0  0  0  0  0  0
    4.8894   -1.4504   -0.0120 H   0  0  0  0  0  0  0  0  0  0  0  0
  1  2  1  0  0  0  0
  1 37  1  0  0  0  0
  1 38  1  0  0  0  0
  1 39  1  0  0  0  0
  2  3  1  0  0  0  0
  2 16  1  0  0  0  0
  3  4  1  0  0  0  0
  3 15  1  0  0  0  0
  3 40  1  0  0  0  0
  4  5  1  0  0  0  0
  4 41  1  0  0  0  0
  4 42  1  0  0  0  0
  5  6  1  0  0  0  0
  5 43  1  0  0  0  0
  5 44  1  0  0  0  0
  6  7  1  0  0  0  0
  6 14  1  0  0  0  0
  7  8  2  0  0  0  0
  7  9  1  0  0  0  0
  9 10  1  0  0  0  0
 10 11  1  0  0  0  0
 10 12  1  0  0  0  0
 10 13  1  0  0  0  0
 11 45  1  0  0  0  0
 11 46  1  0  0  0  0
 11 47  1  0  0  0  0
 12 48  1  0  0  0  0
 12 49  1  0  0  0  0
 12 50  1  0  0  0  0
 13 51  1  0  0  0  0
 13 52  1  0  0  0  0
 13 53  1  0  0  0  0
 14 15  1  0  0  0  0
 14 54  1  0  0  0  0
 14 55  1  0  0  0  0
 15 56  1  0  0  0  0
 15 57  1  0  0  0  0
 16 17  2  0  0  0  0
 16 36  1  0  0  0  0
 17 18  1  0  0  0  0
 17 58  1  0  0  0  0
 18 19  1  0  0  0  0
 18 33  2  0  0  0  0
 19 20  1  0  0  0  0
 19 59  1  0  0  0  0
 19 60  1  0  0  0  0
 20 21  2  0  0  0  0
 20 22  1  0  0  0  0
 22 23  1  0  0  0  0
 22 61  1  0  0  0  0
 23 24  2  0  0  0  0
 23 32  1  0  0  0  0
 24 25  1  0  0  0  0
 24 62  1  0  0  0  0
 25 26  2  0  0  0  0
 26 27  1  0  0  0  0
 26 63  1  0  0  0  0
 27 28  2  0  0  0  0
 27 32  1  0  0  0  0
 28 29  1  0  0  0  0
 28 64  1  0  0  0  0
 29 30  2  0  0  0  0
 29 65  1  0  0  0  0
 30 31  1  0  0  0  0
 30 66  1  0  0  0  0
 31 32  2  0  0  0  0
 31 67  1  0  0  0  0
 33 34  1  0  0  0  0
 33 68  1  0  0  0  0
 34 35  1  0  0  0  0
 34 36  2  0  0  0  0
 36 69  1  0  0  0  0
M  END
$$$$
