
 OpenBabel07202414183D

 53 57  0  0  1  0  0  0  0  0999 V2000
   -1.5467    0.0623    1.6331 Cl  0  0  0  0  0  0  0  0  0  0  0  0
   -0.1069    0.0206    0.6947 C   0  0  0  0  0  0  0  0  0  0  0  0
    0.3024    1.1658    0.0087 C   0  0  0  0  0  0  0  0  0  0  0  0
    1.4751    1.1266   -0.7516 C   0  0  0  0  0  0  0  0  0  0  0  0
    2.2379   -0.0403   -0.8260 C   0  0  0  0  0  0  0  0  0  0  0  0
    1.8471   -1.1937   -0.1294 C   0  0  0  0  0  0  0  0  0  0  0  0
    2.6900   -2.4743   -0.1286 C   0  0  3  0  0  0  0  0  0  0  0  0
    2.3013   -3.3069   -1.2836 N   0  0  0  0  0  0  0  0  0  0  0  0
    1.7368   -4.5566   -1.0977 C   0  0  0  0  0  0  0  0  0  0  0  0
    1.7374   -5.1095    0.0013 O   0  0  0  0  0  0  0  0  0  0  0  0
    1.2651   -5.2959   -2.3545 C   0  0  0  0  0  0  0  0  0  0  0  0
    0.2807   -4.5496   -3.1344 N   0  0  0  0  0  0  0  0  0  0  0  0
   -1.0659   -4.8367   -2.8703 N   0  0  0  0  0  0  0  0  0  0  0  0
   -1.9885   -4.2218   -3.5768 C   0  0  0  0  0  0  0  0  0  0  0  0
   -1.6301   -3.3107   -4.5538 N   0  0  0  0  0  0  0  0  0  0  0  0
   -2.5236   -2.6513   -5.2933 N   0  0  0  0  0  0  0  0  0  0  0  0
   -1.7587   -1.8738   -6.0694 C   0  0  0  0  0  0  0  0  0  0  0  0
   -0.3845   -2.0742   -5.8514 C   0  0  0  0  0  0  0  0  0  0  0  0
   -0.3352   -3.0120   -4.8445 C   0  0  0  0  0  0  0  0  0  0  0  0
    0.7190   -3.6346   -4.1061 C   0  0  0  0  0  0  0  0  0  0  0  0
    1.9082   -3.3636   -4.2598 O   0  0  0  0  0  0  0  0  0  0  0  0
    4.2250   -2.1743    0.0219 C   0  0  0  0  0  0  0  0  0  0  0  0
    4.6279   -1.2644    0.7447 O   0  0  0  0  0  0  0  0  0  0  0  0
    5.0493   -2.9955   -0.7075 N   0  0  0  0  0  0  0  0  0  0  0  0
    6.4735   -2.9683   -0.7359 C   0  0  0  0  0  0  0  0  0  0  0  0
    7.0336   -3.1848   -2.0013 C   0  0  0  0  0  0  0  0  0  0  0  0
    8.3467   -3.3579   -2.2676 N   0  0  0  0  0  0  0  0  0  0  0  0
    9.1435   -3.4324   -1.1845 C   0  0  0  0  0  0  0  0  0  0  0  0
    8.7184   -3.2383    0.1275 C   0  0  0  0  0  0  0  0  0  0  0  0
    9.6369   -3.3729    1.1764 C   0  0  0  0  0  0  0  0  0  0  0  0
    9.4075   -2.7455    2.3892 C   0  0  0  0  0  0  0  0  0  0  0  0
    8.1395   -2.2540    2.6527 C   0  0  0  0  0  0  0  0  0  0  0  0
    7.1097   -2.4395    1.7204 C   0  0  0  0  0  0  0  0  0  0  0  0
    7.3763   -2.8547    0.3785 C   0  0  0  0  0  0  0  0  0  0  0  0
    0.6410   -1.1521    0.6218 C   0  0  0  0  0  0  0  0  0  0  0  0
   -0.2616    2.0940    0.0897 H   0  0  0  0  0  0  0  0  0  0  0  0
    1.8179    2.0286   -1.2525 H   0  0  0  0  0  0  0  0  0  0  0  0
    3.1612   -0.0250   -1.3972 H   0  0  0  0  0  0  0  0  0  0  0  0
    2.4439   -3.0256    0.7900 H   0  0  0  0  0  0  0  0  0  0  0  0
    2.2226   -2.8599   -2.1960 H   0  0  0  0  0  0  0  0  0  0  0  0
    0.8224   -6.2550   -2.0603 H   0  0  0  0  0  0  0  0  0  0  0  0
    2.1442   -5.5087   -2.9735 H   0  0  0  0  0  0  0  0  0  0  0  0
   -3.0558   -4.4281   -3.4008 H   0  0  0  0  0  0  0  0  0  0  0  0
   -2.2364   -1.2173   -6.7860 H   0  0  0  0  0  0  0  0  0  0  0  0
    0.4523   -1.6026   -6.3427 H   0  0  0  0  0  0  0  0  0  0  0  0
    4.5895   -3.4710   -1.4785 H   0  0  0  0  0  0  0  0  0  0  0  0
    6.4149   -3.1807   -2.8938 H   0  0  0  0  0  0  0  0  0  0  0  0
   10.2058   -3.5542   -1.4099 H   0  0  0  0  0  0  0  0  0  0  0  0
   10.4950   -4.0401    1.0658 H   0  0  0  0  0  0  0  0  0  0  0  0
   10.2084   -2.6635    3.1181 H   0  0  0  0  0  0  0  0  0  0  0  0
    7.9376   -1.7721    3.6092 H   0  0  0  0  0  0  0  0  0  0  0  0
    6.1109   -2.1826    2.0465 H   0  0  0  0  0  0  0  0  0  0  0  0
    0.3134   -2.0324    1.1689 H   0  0  0  0  0  0  0  0  0  0  0  0
  1  2  1  0  0  0  0
  2  3  1  0  0  0  0
  2 35  2  0  0  0  0
  3  4  2  0  0  0  0
  3 36  1  0  0  0  0
  4  5  1  0  0  0  0
  4 37  1  0  0  0  0
  5  6  2  0  0  0  0
  5 38  1  0  0  0  0
  6  7  1  0  0  0  0
  6 35  1  0  0  0  0
  7  8  1  0  0  0  0
  7 22  1  0  0  0  0
  7 39  1  0  0  0  0
  8  9  1  0  0  0  0
  8 40  1  0  0  0  0
  9 10  2  0  0  0  0
  9 11  1  0  0  0  0
 11 12  1  0  0  0  0
 11 41  1  0  0  0  0
 11 42  1  0  0  0  0
 12 13  1  0  0  0  0
 12 20  1  0  0  0  0
 13 14  2  0  0  0  0
 14 15  1  0  0  0  0
 14 43  1  0  0  0  0
 15 16  1  0  0  0  0
 15 19  1  0  0  0  0
 16 17  2  0  0  0  0
 17 18  1  0  0  0  0
 17 44  1  0  0  0  0
 18 19  2  0  0  0  0
 18 45  1  0  0  0  0
 19 20  1  0  0  0  0
 20 21  2  0  0  0  0
 22 23  2  0  0  0  0
 22 24  1  0  0  0  0
 24 25  1  0  0  0  0
 24 46  1  0  0  0  0
 25 26  1  0  0  0  0
 25 34  2  0  0  0  0
 26 27  2  0  0  0  0
 26 47  1  0  0  0  0
 27 28  1  0  0  0  0
 28 29  2  0  0  0  0
 28 48  1  0  0  0  0
 29 30  1  0  0  0  0
 29 34  1  0  0  0  0
 30 31  2  0  0  0  0
 30 49  1  0  0  0  0
 31 32  1  0  0  0  0
 31 50  1  0  0  0  0
 32 33  2  0  0  0  0
 32 51  1  0  0  0  0
 33 34  1  0  0  0  0
 33 52  1  0  0  0  0
 35 53  1  0  0  0  0
M  END
$$$$
