
 OpenBabel07202414133D

 53 56  0  0  1  0  0  0  0  0999 V2000
    6.0763    1.2856    2.5064 C   0  0  0  0  0  0  0  0  0  0  0  0
    6.0109    1.0786    1.0698 N   0  0  0  0  0  0  0  0  0  0  0  0
    7.2567    1.1164    0.3299 C   0  0  0  0  0  0  0  0  0  0  0  0
    4.7544    1.1699    0.4705 C   0  0  0  0  0  0  0  0  0  0  0  0
    3.7250    1.2256    1.1540 O   0  0  0  0  0  0  0  0  0  0  0  0
    4.6523    1.1436   -1.0706 C   0  0  0  0  0  0  0  0  0  0  0  0
    5.1637    2.3701   -1.7299 N   0  0  0  0  0  0  0  0  0  0  0  0
    6.1864    2.1761   -2.7589 C   0  0  0  0  0  0  0  0  0  0  0  0
    7.0400    3.4243   -2.8924 C   0  0  0  0  0  0  0  0  0  0  0  0
    6.1760    4.6104   -3.2998 C   0  0  3  0  0  0  0  0  0  0  0  0
    5.9360    4.6022   -4.8155 C   0  0  0  0  0  0  0  0  0  0  0  0
    6.7736    5.1090   -5.5606 O   0  0  0  0  0  0  0  0  0  0  0  0
    4.7994    3.9339   -5.2349 N   0  0  0  0  0  0  0  0  0  0  0  0
    4.2493    3.9147   -6.5431 C   0  0  0  0  0  0  0  0  0  0  0  0
    4.8039    4.6224   -7.6105 C   0  0  0  0  0  0  0  0  0  0  0  0
    4.2234    4.7663   -8.8257 N   0  0  0  0  0  0  0  0  0  0  0  0
    3.0471    4.1354   -9.0089 C   0  0  0  0  0  0  0  0  0  0  0  0
    2.4422    3.3056   -8.0690 C   0  0  0  0  0  0  0  0  0  0  0  0
    1.2701    2.5953   -8.3832 C   0  0  0  0  0  0  0  0  0  0  0  0
    0.6872    1.7384   -7.4549 C   0  0  0  0  0  0  0  0  0  0  0  0
    1.2504    1.6077   -6.1926 C   0  0  0  0  0  0  0  0  0  0  0  0
    2.4064    2.3209   -5.8638 C   0  0  0  0  0  0  0  0  0  0  0  0
    3.0493    3.1832   -6.7940 C   0  0  0  0  0  0  0  0  0  0  0  0
    4.9093    4.6879   -2.4639 C   0  0  0  0  0  0  0  0  0  0  0  0
    4.2019    5.9099   -2.4538 C   0  0  0  0  0  0  0  0  0  0  0  0
    3.0419    6.0415   -1.7035 C   0  0  0  0  0  0  0  0  0  0  0  0
    2.1921    7.5354   -1.6837 Cl  0  0  0  0  0  0  0  0  0  0  0  0
    2.5734    4.9636   -0.9690 C   0  0  0  0  0  0  0  0  0  0  0  0
    3.2690    3.7470   -0.9878 C   0  0  0  0  0  0  0  0  0  0  0  0
    4.4484    3.5675   -1.7289 C   0  0  0  0  0  0  0  0  0  0  0  0
    7.0908    1.1253    2.8815 H   0  0  0  0  0  0  0  0  0  0  0  0
    5.4041    0.5781    3.0017 H   0  0  0  0  0  0  0  0  0  0  0  0
    5.7550    2.3052    2.7395 H   0  0  0  0  0  0  0  0  0  0  0  0
    8.1059    0.9046    0.9854 H   0  0  0  0  0  0  0  0  0  0  0  0
    7.3866    2.1042   -0.1142 H   0  0  0  0  0  0  0  0  0  0  0  0
    7.2357    0.3505   -0.4491 H   0  0  0  0  0  0  0  0  0  0  0  0
    3.6053    0.9723   -1.3519 H   0  0  0  0  0  0  0  0  0  0  0  0
    5.1880    0.2543   -1.4229 H   0  0  0  0  0  0  0  0  0  0  0  0
    5.7170    1.8979   -3.7086 H   0  0  0  0  0  0  0  0  0  0  0  0
    6.8455    1.3431   -2.4910 H   0  0  0  0  0  0  0  0  0  0  0  0
    7.8479    3.2554   -3.6130 H   0  0  0  0  0  0  0  0  0  0  0  0
    7.5143    3.6454   -1.9267 H   0  0  0  0  0  0  0  0  0  0  0  0
    6.7531    5.5238   -3.0944 H   0  0  0  0  0  0  0  0  0  0  0  0
    4.2321    3.5208   -4.5134 H   0  0  0  0  0  0  0  0  0  0  0  0
    5.7551    5.1377   -7.5404 H   0  0  0  0  0  0  0  0  0  0  0  0
    2.5915    4.3157   -9.9796 H   0  0  0  0  0  0  0  0  0  0  0  0
    0.8187    2.6879   -9.3685 H   0  0  0  0  0  0  0  0  0  0  0  0
   -0.1994    1.1688   -7.7200 H   0  0  0  0  0  0  0  0  0  0  0  0
    0.7985    0.9393   -5.4632 H   0  0  0  0  0  0  0  0  0  0  0  0
    2.8110    2.1648   -4.8673 H   0  0  0  0  0  0  0  0  0  0  0  0
    4.5699    6.7591   -3.0275 H   0  0  0  0  0  0  0  0  0  0  0  0
    1.6713    5.0548   -0.3687 H   0  0  0  0  0  0  0  0  0  0  0  0
    2.8509    2.9464   -0.3834 H   0  0  0  0  0  0  0  0  0  0  0  0
  1  2  1  0  0  0  0
  1 31  1  0  0  0  0
  1 32  1  0  0  0  0
  1 33  1  0  0  0  0
  2  3  1  0  0  0  0
  2  4  1  0  0  0  0
  3 34  1  0  0  0  0
  3 35  1  0  0  0  0
  3 36  1  0  0  0  0
  4  5  2  0  0  0  0
  4  6  1  0  0  0  0
  6  7  1  0  0  0  0
  6 37  1  0  0  0  0
  6 38  1  0  0  0  0
  7  8  1  0  0  0  0
  7 30  1  0  0  0  0
  8  9  1  0  0  0  0
  8 39  1  0  0  0  0
  8 40  1  0  0  0  0
  9 10  1  0  0  0  0
  9 41  1  0  0  0  0
  9 42  1  0  0  0  0
 10 11  1  0  0  0  0
 10 24  1  0  0  0  0
 10 43  1  0  0  0  0
 11 12  2  0  0  0  0
 11 13  1  0  0  0  0
 13 14  1  0  0  0  0
 13 44  1  0  0  0  0
 14 15  1  0  0  0  0
 14 23  2  0  0  0  0
 15 16  2  0  0  0  0
 15 45  1  0  0  0  0
 16 17  1  0  0  0  0
 17 18  2  0  0  0  0
 17 46  1  0  0  0  0
 18 19  1  0  0  0  0
 18 23  1  0  0  0  0
 19 20  2  0  0  0  0
 19 47  1  0  0  0  0
 20 21  1  0  0  0  0
 20 48  1  0  0  0  0
 21 22  2  0  0  0  0
 21 49  1  0  0  0  0
 22 23  1  0  0  0  0
 22 50  1  0  0  0  0
 24 25  1  0  0  0  0
 24 30  2  0  0  0  0
 25 26  2  0  0  0  0
 25 51  1  0  0  0  0
 26 27  1  0  0  0  0
 26 28  1  0  0  0  0
 28 29  2  0  0  0  0
 28 52  1  0  0  0  0
 29 30  1  0  0  0  0
 29 53  1  0  0  0  0
M  END
$$$$
