
 OpenBabel07202414143D

 43 46  0  0  1  0  0  0  0  0999 V2000
    0.9169    0.1641   -0.0382 C   0  0  0  0  0  0  0  0  0  0  0  0
    2.3699    0.0451   -0.0791 N   0  0  0  0  0  0  0  0  0  0  0  0
    2.9841    1.0396   -0.9721 C   0  0  0  0  0  0  0  0  0  0  0  0
    2.8545    0.7018   -2.4622 C   0  0  0  0  0  0  0  0  0  0  0  0
    3.2263   -0.6774   -2.7470 N   0  0  0  0  0  0  0  0  0  0  0  0
    3.9936   -0.9872   -3.9023 C   0  0  0  0  0  0  0  0  0  0  0  0
    3.4752   -1.7995   -4.9099 C   0  0  0  0  0  0  0  0  0  0  0  0
    4.1635   -2.1829   -6.0087 N   0  0  0  0  0  0  0  0  0  0  0  0
    5.4520   -1.7809   -6.0796 C   0  0  0  0  0  0  0  0  0  0  0  0
    6.1000   -1.0024   -5.1176 C   0  0  0  0  0  0  0  0  0  0  0  0
    7.4628   -0.6664   -5.2344 C   0  0  0  0  0  0  0  0  0  0  0  0
    8.1088    0.0652   -4.2391 C   0  0  0  0  0  0  0  0  0  0  0  0
    7.4032    0.4621   -3.1142 C   0  0  0  0  0  0  0  0  0  0  0  0
    6.0535    0.1331   -2.9897 C   0  0  0  0  0  0  0  0  0  0  0  0
    5.3571   -0.5888   -3.9913 C   0  0  0  0  0  0  0  0  0  0  0  0
    2.7418   -1.7005   -1.9231 C   0  0  0  0  0  0  0  0  0  0  0  0
    2.4880   -2.8307   -2.3368 O   0  0  0  0  0  0  0  0  0  0  0  0
    2.8485   -1.3309   -0.4123 C   0  0  3  0  0  0  0  0  0  0  0  0
    2.3701   -2.3835    0.5811 C   0  0  0  0  0  0  0  0  0  0  0  0
    1.2740   -3.2263    0.3390 C   0  0  0  0  0  0  0  0  0  0  0  0
    0.8629   -4.1569    1.2967 C   0  0  0  0  0  0  0  0  0  0  0  0
    1.5322   -4.2498    2.5157 C   0  0  0  0  0  0  0  0  0  0  0  0
    2.6134   -3.4127    2.7732 C   0  0  0  0  0  0  0  0  0  0  0  0
    3.4400   -3.5175    4.2786 Cl  0  0  0  0  0  0  0  0  0  0  0  0
    3.0302   -2.4854    1.8202 C   0  0  0  0  0  0  0  0  0  0  0  0
    0.6252    1.2041    0.1499 H   0  0  0  0  0  0  0  0  0  0  0  0
    0.5051   -0.4074    0.8000 H   0  0  0  0  0  0  0  0  0  0  0  0
    0.4343   -0.1665   -0.9624 H   0  0  0  0  0  0  0  0  0  0  0  0
    4.0447    1.1103   -0.7068 H   0  0  0  0  0  0  0  0  0  0  0  0
    2.5763    2.0398   -0.7813 H   0  0  0  0  0  0  0  0  0  0  0  0
    3.4393    1.4016   -3.0691 H   0  0  0  0  0  0  0  0  0  0  0  0
    1.8056    0.8114   -2.7679 H   0  0  0  0  0  0  0  0  0  0  0  0
    2.4551   -2.1719   -4.8644 H   0  0  0  0  0  0  0  0  0  0  0  0
    5.9820   -2.1379   -6.9596 H   0  0  0  0  0  0  0  0  0  0  0  0
    8.0388   -0.9964   -6.0958 H   0  0  0  0  0  0  0  0  0  0  0  0
    9.1644    0.3054   -4.3307 H   0  0  0  0  0  0  0  0  0  0  0  0
    7.9011    1.0146   -2.3189 H   0  0  0  0  0  0  0  0  0  0  0  0
    5.5590    0.4263   -2.0723 H   0  0  0  0  0  0  0  0  0  0  0  0
    3.9425   -1.3076   -0.2702 H   0  0  0  0  0  0  0  0  0  0  0  0
    0.7306   -3.1781   -0.6028 H   0  0  0  0  0  0  0  0  0  0  0  0
    0.0201   -4.8110    1.0877 H   0  0  0  0  0  0  0  0  0  0  0  0
    1.2062   -4.9729    3.2575 H   0  0  0  0  0  0  0  0  0  0  0  0
    3.8711   -1.8307    2.0399 H   0  0  0  0  0  0  0  0  0  0  0  0
  1  2  1  0  0  0  0
  1 26  1  0  0  0  0
  1 27  1  0  0  0  0
  1 28  1  0  0  0  0
  2  3  1  0  0  0  0
  2 18  1  0  0  0  0
  3  4  1  0  0  0  0
  3 29  1  0  0  0  0
  3 30  1  0  0  0  0
  4  5  1  0  0  0  0
  4 31  1  0  0  0  0
  4 32  1  0  0  0  0
  5  6  1  0  0  0  0
  5 16  1  0  0  0  0
  6  7  1  0  0  0  0
  6 15  2  0  0  0  0
  7  8  2  0  0  0  0
  7 33  1  0  0  0  0
  8  9  1  0  0  0  0
  9 10  2  0  0  0  0
  9 34  1  0  0  0  0
 10 11  1  0  0  0  0
 10 15  1  0  0  0  0
 11 12  2  0  0  0  0
 11 35  1  0  0  0  0
 12 13  1  0  0  0  0
 12 36  1  0  0  0  0
 13 14  2  0  0  0  0
 13 37  1  0  0  0  0
 14 15  1  0  0  0  0
 14 38  1  0  0  0  0
 16 17  2  0  0  0  0
 16 18  1  0  0  0  0
 18 19  1  0  0  0  0
 18 39  1  0  0  0  0
 19 20  1  0  0  0  0
 19 25  2  0  0  0  0
 20 21  2  0  0  0  0
 20 40  1  0  0  0  0
 21 22  1  0  0  0  0
 21 41  1  0  0  0  0
 22 23  2  0  0  0  0
 22 42  1  0  0  0  0
 23 24  1  0  0  0  0
 23 25  1  0  0  0  0
 25 43  1  0  0  0  0
M  END
$$$$
