
 OpenBabel07202414183D

 50 53  0  0  0  0  0  0  0  0999 V2000
   10.8713    5.2327    4.5546 F   0  0  0  0  0  0  0  0  0  0  0  0
   10.7598    5.2164    5.9036 C   0  0  0  0  0  0  0  0  0  0  0  0
   12.0061    5.3937    6.4064 F   0  0  0  0  0  0  0  0  0  0  0  0
   10.0302    6.3034    6.2535 F   0  0  0  0  0  0  0  0  0  0  0  0
   10.0183    3.7119    6.5611 S   0  0  0  0  0  0  0  0  0  0  0  0
    9.6895    2.8128    5.0631 C   0  0  0  0  0  0  0  0  0  0  0  0
   10.7219    2.4061    4.2166 C   0  0  0  0  0  0  0  0  0  0  0  0
   10.4328    1.7332    3.0267 C   0  0  0  0  0  0  0  0  0  0  0  0
    9.1140    1.4510    2.6540 C   0  0  0  0  0  0  0  0  0  0  0  0
    8.7998    0.7872    1.4562 N   0  0  0  0  0  0  0  0  0  0  0  0
    9.5450   -0.1407    0.7035 C   0  0  0  0  0  0  0  0  0  0  0  0
    9.4257   -0.1646   -0.7061 C   0  0  0  0  0  0  0  0  0  0  0  0
   10.1385   -1.0866   -1.4830 C   0  0  0  0  0  0  0  0  0  0  0  0
   10.1007   -1.1193   -3.0011 C   0  0  0  0  0  0  0  0  0  0  0  0
    8.8184   -0.6786   -3.7110 C   0  0  0  0  0  0  0  0  0  0  0  0
    8.6863    0.4617   -4.1881 O   0  0  0  0  0  0  0  0  0  0  0  0
    7.8947   -1.6806   -3.8011 N   0  0  0  0  0  0  0  0  0  0  0  0
    6.6165   -1.5048   -4.3912 C   0  0  0  0  0  0  0  0  0  0  0  0
    5.5084   -1.6366   -3.5269 C   0  0  0  0  0  0  0  0  0  0  0  0
    4.2321   -1.4892   -3.8955 N   0  0  0  0  0  0  0  0  0  0  0  0
    4.0829   -1.3769   -5.2190 C   0  0  0  0  0  0  0  0  0  0  0  0
    5.0520   -1.7663   -6.1443 C   0  0  0  0  0  0  0  0  0  0  0  0
    4.7079   -2.4874   -7.2862 C   0  0  0  0  0  0  0  0  0  0  0  0
    5.6489   -2.7137   -8.2758 C   0  0  0  0  0  0  0  0  0  0  0  0
    6.8921   -2.0956   -8.1418 C   0  0  0  0  0  0  0  0  0  0  0  0
    7.2573   -1.5394   -6.9038 C   0  0  0  0  0  0  0  0  0  0  0  0
    6.3792   -1.5393   -5.7892 C   0  0  0  0  0  0  0  0  0  0  0  0
   11.0360   -1.9510   -0.8212 C   0  0  0  0  0  0  0  0  0  0  0  0
   11.1893   -1.8990    0.5645 C   0  0  0  0  0  0  0  0  0  0  0  0
   12.3320   -2.9360    1.3414 Cl  0  0  0  0  0  0  0  0  0  0  0  0
   10.4559   -1.0052    1.3247 C   0  0  0  0  0  0  0  0  0  0  0  0
    8.0897    1.7985    3.5444 C   0  0  0  0  0  0  0  0  0  0  0  0
    8.3732    2.4780    4.7356 C   0  0  0  0  0  0  0  0  0  0  0  0
   11.7610    2.6260    4.4512 H   0  0  0  0  0  0  0  0  0  0  0  0
   11.2564    1.4720    2.3667 H   0  0  0  0  0  0  0  0  0  0  0  0
    7.9130    1.0587    1.0460 H   0  0  0  0  0  0  0  0  0  0  0  0
    8.7919    0.5798   -1.1870 H   0  0  0  0  0  0  0  0  0  0  0  0
   10.2977   -2.1499   -3.3345 H   0  0  0  0  0  0  0  0  0  0  0  0
   10.9307   -0.5060   -3.3885 H   0  0  0  0  0  0  0  0  0  0  0  0
    7.8649   -2.2288   -2.9435 H   0  0  0  0  0  0  0  0  0  0  0  0
    5.6239   -1.8511   -2.4650 H   0  0  0  0  0  0  0  0  0  0  0  0
    3.5292   -0.4488   -5.4784 H   0  0  0  0  0  0  0  0  0  0  0  0
    3.7159   -2.9629   -7.3844 H   0  0  0  0  0  0  0  0  0  0  0  0
    5.4193   -3.3256   -9.1505 H   0  0  0  0  0  0  0  0  0  0  0  0
    7.5849   -2.1073   -8.9745 H   0  0  0  0  0  0  0  0  0  0  0  0
    8.2576   -1.1194   -6.7930 H   0  0  0  0  0  0  0  0  0  0  0  0
   11.6377   -2.6555   -1.3881 H   0  0  0  0  0  0  0  0  0  0  0  0
   10.5737   -0.9949    2.4052 H   0  0  0  0  0  0  0  0  0  0  0  0
    7.0575    1.5393    3.3212 H   0  0  0  0  0  0  0  0  0  0  0  0
    7.5525    2.7503    5.3962 H   0  0  0  0  0  0  0  0  0  0  0  0
  1  2  1  0  0  0  0
  2  3  1  0  0  0  0
  2  4  1  0  0  0  0
  2  5  1  0  0  0  0
  5  6  1  0  0  0  0
  6  7  2  0  0  0  0
  6 33  1  0  0  0  0
  7  8  1  0  0  0  0
  7 34  1  0  0  0  0
  8  9  2  0  0  0  0
  8 35  1  0  0  0  0
  9 10  1  0  0  0  0
  9 32  1  0  0  0  0
 10 11  1  0  0  0  0
 10 36  1  0  0  0  0
 11 12  2  0  0  0  0
 11 31  1  0  0  0  0
 12 13  1  0  0  0  0
 12 37  1  0  0  0  0
 13 14  1  0  0  0  0
 13 28  2  0  0  0  0
 14 15  1  0  0  0  0
 14 38  1  0  0  0  0
 14 39  1  0  0  0  0
 15 16  2  0  0  0  0
 15 17  1  0  0  0  0
 17 18  1  0  0  0  0
 17 40  1  0  0  0  0
 18 19  2  0  0  0  0
 18 27  1  0  0  0  0
 19 20  1  0  0  0  0
 19 41  1  0  0  0  0
 20 21  2  0  0  0  0
 21 22  1  0  0  0  0
 21 42  1  0  0  0  0
 22 23  2  0  0  0  0
 22 27  1  0  0  0  0
 23 24  1  0  0  0  0
 23 43  1  0  0  0  0
 24 25  2  0  0  0  0
 24 44  1  0  0  0  0
 25 26  1  0  0  0  0
 25 45  1  0  0  0  0
 26 27  2  0  0  0  0
 26 46  1  0  0  0  0
 28 29  1  0  0  0  0
 28 47  1  0  0  0  0
 29 30  1  0  0  0  0
 29 31  2  0  0  0  0
 31 48  1  0  0  0  0
 32 33  2  0  0  0  0
 32 49  1  0  0  0  0
 33 50  1  0  0  0  0
M  END
$$$$
