
 OpenBabel07202414133D

 54 57  0  0  1  0  0  0  0  0999 V2000
    0.6462    0.2431    5.2407 C   0  0  0  0  0  0  0  0  0  0  0  0
    0.8931    0.2123    3.7391 C   0  0  0  0  0  0  0  0  0  0  0  0
    1.9102   -0.8484    3.4022 C   0  0  0  0  0  0  0  0  0  0  0  0
    3.2628   -0.4942    3.3325 C   0  0  0  0  0  0  0  0  0  0  0  0
    4.2268   -1.4725    3.1386 C   0  0  0  0  0  0  0  0  0  0  0  0
    3.8461   -2.8086    3.0093 C   0  0  0  0  0  0  0  0  0  0  0  0
    2.4995   -3.1930    3.0431 C   0  0  0  0  0  0  0  0  0  0  0  0
    1.5338   -2.1993    3.2494 C   0  0  0  0  0  0  0  0  0  0  0  0
    2.0842   -4.5496    2.9181 N   0  0  0  0  0  0  0  0  0  0  0  0
    2.8904   -5.5646    2.4118 C   0  0  0  0  0  0  0  0  0  0  0  0
    3.9813   -5.3503    1.8747 O   0  0  0  0  0  0  0  0  0  0  0  0
    2.2977   -7.0290    2.4294 C   0  0  3  0  0  0  0  0  0  0  0  0
    3.0094   -7.8198    1.3333 C   0  0  0  0  0  0  0  0  0  0  0  0
    4.2068   -8.5083    1.5497 C   0  0  0  0  0  0  0  0  0  0  0  0
    4.8579   -9.1277    0.4891 C   0  0  0  0  0  0  0  0  0  0  0  0
    4.3190   -8.9927   -0.7776 C   0  0  0  0  0  0  0  0  0  0  0  0
    3.1913   -8.3008   -1.0429 N   0  0  0  0  0  0  0  0  0  0  0  0
    2.5758   -7.7190    0.0113 C   0  0  0  0  0  0  0  0  0  0  0  0
    2.1940   -7.7285    3.7592 N   0  0  0  0  0  0  0  0  0  0  0  0
    1.5624   -9.0152    3.7644 C   0  0  0  0  0  0  0  0  0  0  0  0
    2.3430  -10.1817    3.7296 C   0  0  0  0  0  0  0  0  0  0  0  0
    1.7892  -11.4408    3.9787 C   0  0  0  0  0  0  0  0  0  0  0  0
    0.4387  -11.5351    4.3504 C   0  0  0  0  0  0  0  0  0  0  0  0
   -0.3354  -10.3715    4.3695 C   0  0  0  0  0  0  0  0  0  0  0  0
    0.1916   -9.1035    4.0369 C   0  0  0  0  0  0  0  0  0  0  0  0
   -1.9239  -10.7818    4.9075 S   0  0  0  0  0  0  0  0  0  0  0  0
   -1.4322  -12.4104    5.1064 C   0  0  0  0  0  0  0  0  0  0  0  0
   -0.2008  -12.6930    4.7531 N   0  0  0  0  0  0  0  0  0  0  0  0
    3.1512   -7.4317    4.7428 C   0  0  0  0  0  0  0  0  0  0  0  0
    4.0360   -6.5924    4.6018 O   0  0  0  0  0  0  0  0  0  0  0  0
    2.9880   -8.1260    6.0662 C   0  0  0  0  0  0  0  0  0  0  0  0
    3.8077   -7.8448    7.0849 C   0  0  0  0  0  0  0  0  0  0  0  0
   -0.0425    1.0515    5.5014 H   0  0  0  0  0  0  0  0  0  0  0  0
    1.5801    0.4001    5.7930 H   0  0  0  0  0  0  0  0  0  0  0  0
    0.2123   -0.7015    5.5859 H   0  0  0  0  0  0  0  0  0  0  0  0
    1.2517    1.1946    3.4056 H   0  0  0  0  0  0  0  0  0  0  0  0
   -0.0420    0.0266    3.1989 H   0  0  0  0  0  0  0  0  0  0  0  0
    3.5750    0.5402    3.4585 H   0  0  0  0  0  0  0  0  0  0  0  0
    5.2806   -1.2089    3.1097 H   0  0  0  0  0  0  0  0  0  0  0  0
    4.6459   -3.5370    2.9139 H   0  0  0  0  0  0  0  0  0  0  0  0
    0.4795   -2.4578    3.2959 H   0  0  0  0  0  0  0  0  0  0  0  0
    1.1111   -4.7492    3.1018 H   0  0  0  0  0  0  0  0  0  0  0  0
    1.2497   -6.9157    2.1125 H   0  0  0  0  0  0  0  0  0  0  0  0
    4.6630   -8.5313    2.5357 H   0  0  0  0  0  0  0  0  0  0  0  0
    5.7798   -9.6750    0.6465 H   0  0  0  0  0  0  0  0  0  0  0  0
    4.8071   -9.4345   -1.6410 H   0  0  0  0  0  0  0  0  0  0  0  0
    1.7135   -7.1149   -0.2608 H   0  0  0  0  0  0  0  0  0  0  0  0
    3.4139  -10.1374    3.5520 H   0  0  0  0  0  0  0  0  0  0  0  0
    2.4077  -12.3345    3.9539 H   0  0  0  0  0  0  0  0  0  0  0  0
   -0.4275   -8.2163    4.1119 H   0  0  0  0  0  0  0  0  0  0  0  0
   -2.1012  -13.1642    5.5020 H   0  0  0  0  0  0  0  0  0  0  0  0
    2.1981   -8.8473    6.2057 H   0  0  0  0  0  0  0  0  0  0  0  0
    4.6037   -7.1098    6.9954 H   0  0  0  0  0  0  0  0  0  0  0  0
    3.6913   -8.3458    8.0390 H   0  0  0  0  0  0  0  0  0  0  0  0
  1  2  1  0  0  0  0
  1 33  1  0  0  0  0
  1 34  1  0  0  0  0
  1 35  1  0  0  0  0
  2  3  1  0  0  0  0
  2 36  1  0  0  0  0
  2 37  1  0  0  0  0
  3  4  1  0  0  0  0
  3  8  2  0  0  0  0
  4  5  2  0  0  0  0
  4 38  1  0  0  0  0
  5  6  1  0  0  0  0
  5 39  1  0  0  0  0
  6  7  2  0  0  0  0
  6 40  1  0  0  0  0
  7  8  1  0  0  0  0
  7  9  1  0  0  0  0
  8 41  1  0  0  0  0
  9 10  1  0  0  0  0
  9 42  1  0  0  0  0
 10 11  2  0  0  0  0
 10 12  1  0  0  0  0
 12 13  1  0  0  0  0
 12 19  1  0  0  0  0
 12 43  1  0  0  0  0
 13 14  1  0  0  0  0
 13 18  2  0  0  0  0
 14 15  2  0  0  0  0
 14 44  1  0  0  0  0
 15 16  1  0  0  0  0
 15 45  1  0  0  0  0
 16 17  2  0  0  0  0
 16 46  1  0  0  0  0
 17 18  1  0  0  0  0
 18 47  1  0  0  0  0
 19 20  1  0  0  0  0
 19 29  1  0  0  0  0
 20 21  1  0  0  0  0
 20 25  2  0  0  0  0
 21 22  2  0  0  0  0
 21 48  1  0  0  0  0
 22 23  1  0  0  0  0
 22 49  1  0  0  0  0
 23 24  2  0  0  0  0
 23 28  1  0  0  0  0
 24 25  1  0  0  0  0
 24 26  1  0  0  0  0
 25 50  1  0  0  0  0
 26 27  1  0  0  0  0
 27 28  2  0  0  0  0
 27 51  1  0  0  0  0
 29 30  2  0  0  0  0
 29 31  1  0  0  0  0
 31 32  2  0  0  0  0
 31 52  1  0  0  0  0
 32 53  1  0  0  0  0
 32 54  1  0  0  0  0
M  END
$$$$
