
 OpenBabel07202414143D

 57 60  0  0  0  0  0  0  0  0999 V2000
    7.3282   -2.6516   -0.0103 C   0  0  0  0  0  0  0  0  0  0  0  0
    6.1619   -1.9066    0.3165 O   0  0  0  0  0  0  0  0  0  0  0  0
    6.0731   -1.4151    1.5912 C   0  0  0  0  0  0  0  0  0  0  0  0
    7.0127   -1.5974    2.6074 C   0  0  0  0  0  0  0  0  0  0  0  0
    6.8193   -1.0289    3.8769 C   0  0  0  0  0  0  0  0  0  0  0  0
    7.7074   -1.1502    4.9160 O   0  0  0  0  0  0  0  0  0  0  0  0
    8.8652   -1.9576    4.7113 C   0  0  0  0  0  0  0  0  0  0  0  0
    5.6590   -0.2714    4.1477 C   0  0  0  0  0  0  0  0  0  0  0  0
    5.3864    0.3158    5.5048 C   0  0  0  0  0  0  0  0  0  0  0  0
    5.3232    1.7836    5.4442 N   0  0  0  0  0  0  0  0  0  0  0  0
    5.5380    2.4993    6.6350 C   0  0  0  0  0  0  0  0  0  0  0  0
    5.9290    3.8489    6.5625 C   0  0  0  0  0  0  0  0  0  0  0  0
    6.1334    4.6249    7.7200 C   0  0  0  0  0  0  0  0  0  0  0  0
    6.5403    6.0791    7.6290 C   0  0  0  0  0  0  0  0  0  0  0  0
    7.8149    6.4298    8.3881 C   0  0  0  0  0  0  0  0  0  0  0  0
    7.8670    7.4075    9.1291 O   0  0  0  0  0  0  0  0  0  0  0  0
    8.8906    5.6184    8.0712 N   0  0  0  0  0  0  0  0  0  0  0  0
   10.1985    5.8558    8.5591 C   0  0  0  0  0  0  0  0  0  0  0  0
   11.2162    5.9918    7.6139 C   0  0  0  0  0  0  0  0  0  0  0  0
   12.5173    6.1888    7.9065 N   0  0  0  0  0  0  0  0  0  0  0  0
   12.8418    6.1089    9.2129 C   0  0  0  0  0  0  0  0  0  0  0  0
   11.9409    5.8132   10.2366 C   0  0  0  0  0  0  0  0  0  0  0  0
   12.3980    5.4802   11.5236 C   0  0  0  0  0  0  0  0  0  0  0  0
   11.4971    5.1863   12.5426 C   0  0  0  0  0  0  0  0  0  0  0  0
   10.1342    5.3123   12.3075 C   0  0  0  0  0  0  0  0  0  0  0  0
    9.6701    5.6056   11.0203 C   0  0  0  0  0  0  0  0  0  0  0  0
   10.5602    5.7881    9.9320 C   0  0  0  0  0  0  0  0  0  0  0  0
    5.9034    4.0435    8.9719 C   0  0  0  0  0  0  0  0  0  0  0  0
    5.4591    2.7277    9.0541 C   0  0  0  0  0  0  0  0  0  0  0  0
    5.1527    2.0303   10.5978 Cl  0  0  0  0  0  0  0  0  0  0  0  0
    5.2554    1.9706    7.9007 C   0  0  0  0  0  0  0  0  0  0  0  0
    4.7139   -0.1096    3.1157 C   0  0  0  0  0  0  0  0  0  0  0  0
    4.9223   -0.6740    1.8557 C   0  0  0  0  0  0  0  0  0  0  0  0
    7.2805   -2.9046   -1.0726 H   0  0  0  0  0  0  0  0  0  0  0  0
    7.3605   -3.5886    0.5571 H   0  0  0  0  0  0  0  0  0  0  0  0
    8.2362   -2.0611    0.1484 H   0  0  0  0  0  0  0  0  0  0  0  0
    7.8943   -2.1931    2.4109 H   0  0  0  0  0  0  0  0  0  0  0  0
    9.4664   -1.9144    5.6234 H   0  0  0  0  0  0  0  0  0  0  0  0
    9.4754   -1.5724    3.8864 H   0  0  0  0  0  0  0  0  0  0  0  0
    8.5835   -3.0008    4.5373 H   0  0  0  0  0  0  0  0  0  0  0  0
    6.1580    0.0011    6.2231 H   0  0  0  0  0  0  0  0  0  0  0  0
    4.4290   -0.0764    5.8693 H   0  0  0  0  0  0  0  0  0  0  0  0
    5.8727    2.1511    4.6714 H   0  0  0  0  0  0  0  0  0  0  0  0
    6.0731    4.3014    5.5830 H   0  0  0  0  0  0  0  0  0  0  0  0
    5.7224    6.6872    8.0346 H   0  0  0  0  0  0  0  0  0  0  0  0
    6.6787    6.3836    6.5847 H   0  0  0  0  0  0  0  0  0  0  0  0
    8.8296    5.1815    7.1588 H   0  0  0  0  0  0  0  0  0  0  0  0
   11.0017    5.9650    6.5496 H   0  0  0  0  0  0  0  0  0  0  0  0
   13.8951    6.2772    9.4242 H   0  0  0  0  0  0  0  0  0  0  0  0
   13.4643    5.3855   11.7200 H   0  0  0  0  0  0  0  0  0  0  0  0
   11.8588    4.8637   13.5154 H   0  0  0  0  0  0  0  0  0  0  0  0
    9.4261    5.1530   13.1170 H   0  0  0  0  0  0  0  0  0  0  0  0
    8.5960    5.6762   10.8733 H   0  0  0  0  0  0  0  0  0  0  0  0
    6.0493    4.6202    9.8827 H   0  0  0  0  0  0  0  0  0  0  0  0
    4.8729    0.9603    8.0076 H   0  0  0  0  0  0  0  0  0  0  0  0
    3.8031    0.4575    3.3008 H   0  0  0  0  0  0  0  0  0  0  0  0
    4.1802   -0.5357    1.0732 H   0  0  0  0  0  0  0  0  0  0  0  0
  1  2  1  0  0  0  0
  1 34  1  0  0  0  0
  1 35  1  0  0  0  0
  1 36  1  0  0  0  0
  2  3  1  0  0  0  0
  3  4  2  0  0  0  0
  3 33  1  0  0  0  0
  4  5  1  0  0  0  0
  4 37  1  0  0  0  0
  5  6  1  0  0  0  0
  5  8  2  0  0  0  0
  6  7  1  0  0  0  0
  7 38  1  0  0  0  0
  7 39  1  0  0  0  0
  7 40  1  0  0  0  0
  8  9  1  0  0  0  0
  8 32  1  0  0  0  0
  9 10  1  0  0  0  0
  9 41  1  0  0  0  0
  9 42  1  0  0  0  0
 10 11  1  0  0  0  0
 10 43  1  0  0  0  0
 11 12  2  0  0  0  0
 11 31  1  0  0  0  0
 12 13  1  0  0  0  0
 12 44  1  0  0  0  0
 13 14  1  0  0  0  0
 13 28  2  0  0  0  0
 14 15  1  0  0  0  0
 14 45  1  0  0  0  0
 14 46  1  0  0  0  0
 15 16  2  0  0  0  0
 15 17  1  0  0  0  0
 17 18  1  0  0  0  0
 17 47  1  0  0  0  0
 18 19  2  0  0  0  0
 18 27  1  0  0  0  0
 19 20  1  0  0  0  0
 19 48  1  0  0  0  0
 20 21  2  0  0  0  0
 21 22  1  0  0  0  0
 21 49  1  0  0  0  0
 22 23  2  0  0  0  0
 22 27  1  0  0  0  0
 23 24  1  0  0  0  0
 23 50  1  0  0  0  0
 24 25  2  0  0  0  0
 24 51  1  0  0  0  0
 25 26  1  0  0  0  0
 25 52  1  0  0  0  0
 26 27  2  0  0  0  0
 26 53  1  0  0  0  0
 28 29  1  0  0  0  0
 28 54  1  0  0  0  0
 29 30  1  0  0  0  0
 29 31  2  0  0  0  0
 31 55  1  0  0  0  0
 32 33  2  0  0  0  0
 32 56  1  0  0  0  0
 33 57  1  0  0  0  0
M  END
$$$$
