
 OpenBabel07202414123D

 64 67  0  0  1  0  0  0  0  0999 V2000
    1.1829    2.7906    0.7399 C   0  0  0  0  0  0  0  0  0  0  0  0
    2.7047    2.8030    0.6277 C   0  0  0  0  0  0  0  0  0  0  0  0
    3.1919    4.1754    0.1632 C   0  0  0  0  0  0  0  0  0  0  0  0
    3.2429    2.4958    1.9243 O   0  0  0  0  0  0  0  0  0  0  0  0
    4.4812    1.9224    1.9970 C   0  0  0  0  0  0  0  0  0  0  0  0
    5.2616    1.5471    0.9182 C   0  0  0  0  0  0  0  0  0  0  0  0
    6.5254    0.9825    1.1175 C   0  0  0  0  0  0  0  0  0  0  0  0
    7.1001    0.8225    2.3888 C   0  0  0  0  0  0  0  0  0  0  0  0
    8.4817    0.3558    2.5172 N   0  0  0  0  0  0  0  0  0  0  0  0
    8.9897   -0.2506    3.7859 C   0  0  3  0  0  0  0  0  0  0  0  0
    9.7078    0.8094    4.6764 C   0  0  0  0  0  0  0  0  0  0  0  0
   10.7451    0.5530    5.2908 O   0  0  0  0  0  0  0  0  0  0  0  0
    9.0016    1.9731    4.9286 N   0  0  0  0  0  0  0  0  0  0  0  0
    9.5070    2.9426    5.8786 C   0  0  0  0  0  0  0  0  0  0  0  0
    8.4689    4.0066    6.2395 C   0  0  0  0  0  0  0  0  0  0  0  0
    9.0957    5.0659    7.1095 C   0  0  0  0  0  0  0  0  0  0  0  0
    9.0032    4.9996    8.5077 C   0  0  0  0  0  0  0  0  0  0  0  0
    9.6848    5.9223    9.3065 C   0  0  0  0  0  0  0  0  0  0  0  0
   10.4626    6.9159    8.7134 C   0  0  0  0  0  0  0  0  0  0  0  0
   10.5389    6.9906    7.3279 C   0  0  0  0  0  0  0  0  0  0  0  0
   11.2918    7.9402    6.7579 F   0  0  0  0  0  0  0  0  0  0  0  0
    9.8630    6.0818    6.5241 C   0  0  0  0  0  0  0  0  0  0  0  0
    8.0616   -1.1591    4.5966 C   0  0  0  0  0  0  0  0  0  0  0  0
    8.1739   -1.2796    5.9942 C   0  0  0  0  0  0  0  0  0  0  0  0
    7.3848   -2.1859    6.6943 C   0  0  0  0  0  0  0  0  0  0  0  0
    6.4997   -2.9636    5.9785 C   0  0  0  0  0  0  0  0  0  0  0  0
    6.3698   -2.9050    4.6356 N   0  0  0  0  0  0  0  0  0  0  0  0
    7.1612   -2.0216    3.9779 C   0  0  0  0  0  0  0  0  0  0  0  0
    9.3923    0.6254    1.4308 C   0  0  0  0  0  0  0  0  0  0  0  0
    9.0757    1.3374    0.4741 O   0  0  0  0  0  0  0  0  0  0  0  0
   10.7673    0.1000    1.3946 C   0  0  0  0  0  0  0  0  0  0  0  0
   11.5837    0.2120    0.2813 C   0  0  0  0  0  0  0  0  0  0  0  0
   12.7949   -0.3348    0.5637 O   0  0  0  0  0  0  0  0  0  0  0  0
   12.6635   -0.7539    1.8488 C   0  0  0  0  0  0  0  0  0  0  0  0
   11.4867   -0.5292    2.3890 N   0  0  0  0  0  0  0  0  0  0  0  0
    6.2669    1.1378    3.4723 C   0  0  0  0  0  0  0  0  0  0  0  0
    4.9821    1.6891    3.2775 C   0  0  0  0  0  0  0  0  0  0  0  0
    0.7177    3.0304   -0.2219 H   0  0  0  0  0  0  0  0  0  0  0  0
    0.8319    3.5034    1.4929 H   0  0  0  0  0  0  0  0  0  0  0  0
    0.8384    1.7983    1.0488 H   0  0  0  0  0  0  0  0  0  0  0  0
    2.9515    2.0340   -0.1110 H   0  0  0  0  0  0  0  0  0  0  0  0
    3.0523    4.9296    0.9448 H   0  0  0  0  0  0  0  0  0  0  0  0
    2.6654    4.5011   -0.7399 H   0  0  0  0  0  0  0  0  0  0  0  0
    4.2628    4.1536   -0.0643 H   0  0  0  0  0  0  0  0  0  0  0  0
    4.9424    1.6762   -0.1089 H   0  0  0  0  0  0  0  0  0  0  0  0
    7.0370    0.6652    0.2121 H   0  0  0  0  0  0  0  0  0  0  0  0
    9.7534   -0.9726    3.5059 H   0  0  0  0  0  0  0  0  0  0  0  0
    8.3642    2.2954    4.2118 H   0  0  0  0  0  0  0  0  0  0  0  0
   10.4018    3.3915    5.4336 H   0  0  0  0  0  0  0  0  0  0  0  0
    9.8279    2.4102    6.7837 H   0  0  0  0  0  0  0  0  0  0  0  0
    7.6113    3.5486    6.7496 H   0  0  0  0  0  0  0  0  0  0  0  0
    8.0628    4.4704    5.3316 H   0  0  0  0  0  0  0  0  0  0  0  0
    8.4167    4.2170    8.9860 H   0  0  0  0  0  0  0  0  0  0  0  0
    9.6236    5.8546   10.3897 H   0  0  0  0  0  0  0  0  0  0  0  0
   11.0163    7.6246    9.3201 H   0  0  0  0  0  0  0  0  0  0  0  0
    9.9607    6.1618    5.4454 H   0  0  0  0  0  0  0  0  0  0  0  0
    8.8967   -0.6972    6.5627 H   0  0  0  0  0  0  0  0  0  0  0  0
    7.4750   -2.2914    7.7693 H   0  0  0  0  0  0  0  0  0  0  0  0
    5.8600   -3.6901    6.4728 H   0  0  0  0  0  0  0  0  0  0  0  0
    7.0354   -2.0364    2.8984 H   0  0  0  0  0  0  0  0  0  0  0  0
   11.4579    0.6301   -0.7075 H   0  0  0  0  0  0  0  0  0  0  0  0
   13.5276   -1.2233    2.2972 H   0  0  0  0  0  0  0  0  0  0  0  0
    6.5737    1.0022    4.5046 H   0  0  0  0  0  0  0  0  0  0  0  0
    4.3762    1.9491    4.1441 H   0  0  0  0  0  0  0  0  0  0  0  0
  1  2  1  0  0  0  0
  1 38  1  0  0  0  0
  1 39  1  0  0  0  0
  1 40  1  0  0  0  0
  2  3  1  0  0  0  0
  2  4  1  0  0  0  0
  2 41  1  0  0  0  0
  3 42  1  0  0  0  0
  3 43  1  0  0  0  0
  3 44  1  0  0  0  0
  4  5  1  0  0  0  0
  5  6  1  0  0  0  0
  5 37  2  0  0  0  0
  6  7  2  0  0  0  0
  6 45  1  0  0  0  0
  7  8  1  0  0  0  0
  7 46  1  0  0  0  0
  8  9  1  0  0  0  0
  8 36  2  0  0  0  0
  9 10  1  0  0  0  0
  9 29  1  0  0  0  0
 10 11  1  0  0  0  0
 10 23  1  0  0  0  0
 10 47  1  0  0  0  0
 11 12  2  0  0  0  0
 11 13  1  0  0  0  0
 13 14  1  0  0  0  0
 13 48  1  0  0  0  0
 14 15  1  0  0  0  0
 14 49  1  0  0  0  0
 14 50  1  0  0  0  0
 15 16  1  0  0  0  0
 15 51  1  0  0  0  0
 15 52  1  0  0  0  0
 16 17  1  0  0  0  0
 16 22  2  0  0  0  0
 17 18  2  0  0  0  0
 17 53  1  0  0  0  0
 18 19  1  0  0  0  0
 18 54  1  0  0  0  0
 19 20  2  0  0  0  0
 19 55  1  0  0  0  0
 20 21  1  0  0  0  0
 20 22  1  0  0  0  0
 22 56  1  0  0  0  0
 23 24  1  0  0  0  0
 23 28  2  0  0  0  0
 24 25  2  0  0  0  0
 24 57  1  0  0  0  0
 25 26  1  0  0  0  0
 25 58  1  0  0  0  0
 26 27  2  0  0  0  0
 26 59  1  0  0  0  0
 27 28  1  0  0  0  0
 28 60  1  0  0  0  0
 29 30  2  0  0  0  0
 29 31  1  0  0  0  0
 31 32  2  0  0  0  0
 31 35  1  0  0  0  0
 32 33  1  0  0  0  0
 32 61  1  0  0  0  0
 33 34  1  0  0  0  0
 34 35  2  0  0  0  0
 34 62  1  0  0  0  0
 36 37  1  0  0  0  0
 36 63  1  0  0  0  0
 37 64  1  0  0  0  0
M  END
$$$$
