
 OpenBabel07202414173D

 67 72  0  0  1  0  0  0  0  0999 V2000
    1.0132    0.0755   -0.0051 Cl  0  0  0  0  0  0  0  0  0  0  0  0
    2.7305   -0.0279    0.0455 C   0  0  0  0  0  0  0  0  0  0  0  0
    3.4985    1.1204   -0.0758 C   0  0  0  0  0  0  0  0  0  0  0  0
    4.8872    1.0272   -0.0290 C   0  0  0  0  0  0  0  0  0  0  0  0
    5.5171   -0.2135    0.1449 C   0  0  0  0  0  0  0  0  0  0  0  0
    4.7608   -1.3715    0.2551 C   0  0  0  0  0  0  0  0  0  0  0  0
    3.3488   -1.2680    0.2156 C   0  0  0  0  0  0  0  0  0  0  0  0
    5.4309   -2.7303    0.4651 C   0  0  3  0  0  0  0  0  0  0  0  0
    4.9249   -3.7660   -0.6182 C   0  0  0  0  0  0  0  0  0  0  0  0
    4.9634   -3.4181   -2.0635 N   0  0  0  0  0  0  0  0  0  0  0  0
    6.3047   -3.2625   -2.6255 C   0  0  0  0  0  0  0  0  0  0  0  0
    6.2759   -2.9666   -4.0772 C   0  0  0  0  0  0  0  0  0  0  0  0
    5.7498   -3.6584   -5.1440 C   0  0  0  0  0  0  0  0  0  0  0  0
    5.9202   -2.7994   -6.1858 N   0  0  0  0  0  0  0  0  0  0  0  0
    5.3196   -2.8539   -7.4941 C   0  0  0  0  0  0  0  0  0  0  0  0
    3.9400   -2.1821   -7.6182 C   0  0  3  0  0  0  0  0  0  0  0  0
    3.9141   -0.7004   -7.2875 C   0  0  0  0  0  0  0  0  0  0  0  0
    3.5004   -0.6464   -5.8322 C   0  0  0  0  0  0  0  0  0  0  0  0
    2.7726   -1.8477   -5.5568 O   0  0  0  0  0  0  0  0  0  0  0  0
    2.8910   -2.7411   -6.6685 C   0  0  0  0  0  0  0  0  0  0  0  0
    6.6910   -1.7534   -5.8488 N   0  0  0  0  0  0  0  0  0  0  0  0
    6.8855   -1.8243   -4.5433 N   0  0  0  0  0  0  0  0  0  0  0  0
    5.0735   -3.2365    1.9125 C   0  0  0  0  0  0  0  0  0  0  0  0
    4.5696   -4.3351    2.1188 O   0  0  0  0  0  0  0  0  0  0  0  0
    5.4587   -2.3375    2.9088 N   0  0  0  0  0  0  0  0  0  0  0  0
    5.3420   -2.4312    4.3141 C   0  0  0  0  0  0  0  0  0  0  0  0
    4.6377   -3.4447    4.9537 C   0  0  0  0  0  0  0  0  0  0  0  0
    4.3543   -3.4508    6.2782 N   0  0  0  0  0  0  0  0  0  0  0  0
    4.8344   -2.4201    7.0078 C   0  0  0  0  0  0  0  0  0  0  0  0
    5.6554   -1.4090    6.5119 C   0  0  0  0  0  0  0  0  0  0  0  0
    6.2109   -0.4311    7.3621 C   0  0  0  0  0  0  0  0  0  0  0  0
    7.0771    0.5415    6.8680 C   0  0  0  0  0  0  0  0  0  0  0  0
    7.3741    0.5653    5.5159 C   0  0  0  0  0  0  0  0  0  0  0  0
    6.7966   -0.3797    4.6622 C   0  0  0  0  0  0  0  0  0  0  0  0
    5.9266   -1.4037    5.1263 C   0  0  0  0  0  0  0  0  0  0  0  0
    6.9783   -2.6546    0.4331 C   0  0  0  0  0  0  0  0  0  0  0  0
    7.5507   -1.2882    0.7552 C   0  0  0  0  0  0  0  0  0  0  0  0
    6.8785   -0.1819    0.1695 O   0  0  0  0  0  0  0  0  0  0  0  0
    3.0243    2.0913   -0.2082 H   0  0  0  0  0  0  0  0  0  0  0  0
    5.4888    1.9287   -0.1214 H   0  0  0  0  0  0  0  0  0  0  0  0
    2.7207   -2.1514    0.3196 H   0  0  0  0  0  0  0  0  0  0  0  0
    3.8715   -3.9971   -0.4114 H   0  0  0  0  0  0  0  0  0  0  0  0
    5.4437   -4.7227   -0.4764 H   0  0  0  0  0  0  0  0  0  0  0  0
    4.4352   -2.5607   -2.2375 H   0  0  0  0  0  0  0  0  0  0  0  0
    6.9127   -4.1559   -2.4458 H   0  0  0  0  0  0  0  0  0  0  0  0
    6.7830   -2.3853   -2.1878 H   0  0  0  0  0  0  0  0  0  0  0  0
    5.2143   -4.5927   -5.2165 H   0  0  0  0  0  0  0  0  0  0  0  0
    5.2489   -3.9122   -7.7710 H   0  0  0  0  0  0  0  0  0  0  0  0
    6.0247   -2.3880   -8.1944 H   0  0  0  0  0  0  0  0  0  0  0  0
    3.6194   -2.3413   -8.6548 H   0  0  0  0  0  0  0  0  0  0  0  0
    3.1327   -0.2194   -7.8897 H   0  0  0  0  0  0  0  0  0  0  0  0
    4.8480   -0.1678   -7.4880 H   0  0  0  0  0  0  0  0  0  0  0  0
    2.8692    0.2209   -5.6149 H   0  0  0  0  0  0  0  0  0  0  0  0
    4.3575   -0.6044   -5.1565 H   0  0  0  0  0  0  0  0  0  0  0  0
    1.9123   -2.7749   -7.1586 H   0  0  0  0  0  0  0  0  0  0  0  0
    3.1097   -3.7490   -6.3052 H   0  0  0  0  0  0  0  0  0  0  0  0
    5.7424   -1.4264    2.5845 H   0  0  0  0  0  0  0  0  0  0  0  0
    4.2313   -4.2985    4.4198 H   0  0  0  0  0  0  0  0  0  0  0  0
    4.5396   -2.4380    8.0546 H   0  0  0  0  0  0  0  0  0  0  0  0
    5.9913   -0.4398    8.4279 H   0  0  0  0  0  0  0  0  0  0  0  0
    7.5271    1.2699    7.5386 H   0  0  0  0  0  0  0  0  0  0  0  0
    8.0598    1.3103    5.1186 H   0  0  0  0  0  0  0  0  0  0  0  0
    7.0804   -0.3086    3.6210 H   0  0  0  0  0  0  0  0  0  0  0  0
    7.3916   -2.9380   -0.5258 H   0  0  0  0  0  0  0  0  0  0  0  0
    7.4188   -3.4033    1.1034 H   0  0  0  0  0  0  0  0  0  0  0  0
    8.5866   -1.2485    0.3990 H   0  0  0  0  0  0  0  0  0  0  0  0
    7.6228   -1.1389    1.8313 H   0  0  0  0  0  0  0  0  0  0  0  0
  1  2  1  0  0  0  0
  2  3  1  0  0  0  0
  2  7  2  0  0  0  0
  3  4  2  0  0  0  0
  3 39  1  0  0  0  0
  4  5  1  0  0  0  0
  4 40  1  0  0  0  0
  5  6  2  0  0  0  0
  5 38  1  0  0  0  0
  6  7  1  0  0  0  0
  6  8  1  0  0  0  0
  7 41  1  0  0  0  0
  8  9  1  0  0  0  0
  8 23  1  0  0  0  0
  8 36  1  0  0  0  0
  9 10  1  0  0  0  0
  9 42  1  0  0  0  0
  9 43  1  0  0  0  0
 10 11  1  0  0  0  0
 10 44  1  0  0  0  0
 11 12  1  0  0  0  0
 11 45  1  0  0  0  0
 11 46  1  0  0  0  0
 12 13  2  0  0  0  0
 12 22  1  0  0  0  0
 13 14  1  0  0  0  0
 13 47  1  0  0  0  0
 14 15  1  0  0  0  0
 14 21  1  0  0  0  0
 15 16  1  0  0  0  0
 15 48  1  0  0  0  0
 15 49  1  0  0  0  0
 16 17  1  0  0  0  0
 16 20  1  0  0  0  0
 16 50  1  0  0  0  0
 17 18  1  0  0  0  0
 17 51  1  0  0  0  0
 17 52  1  0  0  0  0
 18 19  1  0  0  0  0
 18 53  1  0  0  0  0
 18 54  1  0  0  0  0
 19 20  1  0  0  0  0
 20 55  1  0  0  0  0
 20 56  1  0  0  0  0
 21 22  2  0  0  0  0
 23 24  2  0  0  0  0
 23 25  1  0  0  0  0
 25 26  1  0  0  0  0
 25 57  1  0  0  0  0
 26 27  1  0  0  0  0
 26 35  2  0  0  0  0
 27 28  2  0  0  0  0
 27 58  1  0  0  0  0
 28 29  1  0  0  0  0
 29 30  2  0  0  0  0
 29 59  1  0  0  0  0
 30 31  1  0  0  0  0
 30 35  1  0  0  0  0
 31 32  2  0  0  0  0
 31 60  1  0  0  0  0
 32 33  1  0  0  0  0
 32 61  1  0  0  0  0
 33 34  2  0  0  0  0
 33 62  1  0  0  0  0
 34 35  1  0  0  0  0
 34 63  1  0  0  0  0
 36 37  1  0  0  0  0
 36 64  1  0  0  0  0
 36 65  1  0  0  0  0
 37 38  1  0  0  0  0
 37 66  1  0  0  0  0
 37 67  1  0  0  0  0
M  END
$$$$
