
 OpenBabel07202414143D

 51 54  0  0  1  0  0  0  0  0999 V2000
   11.7195    0.5442   -4.9525 C   0  0  0  0  0  0  0  0  0  0  0  0
   12.6097    1.0898   -3.9358 N   0  0  0  0  0  0  0  0  0  0  0  0
   12.2294    2.5805   -3.2550 S   0  0  0  0  0  0  0  0  0  0  0  0
   13.4464    3.0564   -2.6346 O   0  0  0  0  0  0  0  0  0  0  0  0
   11.5183    3.3631   -4.2380 O   0  0  0  0  0  0  0  0  0  0  0  0
   11.0937    2.1365   -1.9647 C   0  0  0  0  0  0  0  0  0  0  0  0
   11.5725    1.8984   -0.6769 C   0  0  0  0  0  0  0  0  0  0  0  0
   10.6652    1.6275    0.3382 C   0  0  0  0  0  0  0  0  0  0  0  0
    9.2818    1.6273    0.0808 C   0  0  0  0  0  0  0  0  0  0  0  0
    8.3942    1.3756    1.1204 C   0  0  0  0  0  0  0  0  0  0  0  0
    7.0606    1.3947    0.9897 N   0  0  0  0  0  0  0  0  0  0  0  0
    6.5764    1.6624   -0.2464 C   0  0  0  0  0  0  0  0  0  0  0  0
    7.3450    1.8994   -1.3955 C   0  0  0  0  0  0  0  0  0  0  0  0
    6.7440    2.1516   -2.6783 N   0  0  0  0  0  0  0  0  0  0  0  0
    5.3932    1.9989   -2.9644 C   0  0  0  0  0  0  0  0  0  0  0  0
    4.5658    1.6481   -2.1173 O   0  0  0  0  0  0  0  0  0  0  0  0
    4.9285    2.2886   -4.4526 C   0  0  3  0  0  0  0  0  0  0  0  0
    5.8221    1.5374   -5.3030 O   0  0  0  0  0  0  0  0  0  0  0  0
    5.5755    1.6279   -6.7051 C   0  0  0  0  0  0  0  0  0  0  0  0
    5.0311    3.7893   -4.7599 C   0  0  0  0  0  0  0  0  0  0  0  0
    3.8982    4.5362   -4.0767 C   0  0  0  0  0  0  0  0  0  0  0  0
    2.6242    4.1133   -4.5681 O   0  0  0  0  0  0  0  0  0  0  0  0
    2.4291    2.7595   -4.5409 C   0  0  0  0  0  0  0  0  0  0  0  0
    1.0978    2.3394   -4.4814 C   0  0  0  0  0  0  0  0  0  0  0  0
    0.7944    0.9817   -4.3737 C   0  0  0  0  0  0  0  0  0  0  0  0
    1.8243    0.0455   -4.3650 C   0  0  0  0  0  0  0  0  0  0  0  0
    1.4604   -1.6244   -4.1645 Cl  0  0  0  0  0  0  0  0  0  0  0  0
    3.1526    0.4552   -4.4778 C   0  0  0  0  0  0  0  0  0  0  0  0
    3.4732    1.8252   -4.5567 C   0  0  0  0  0  0  0  0  0  0  0  0
    8.7594    1.8882   -1.2188 C   0  0  0  0  0  0  0  0  0  0  0  0
    9.7133    2.1257   -2.2385 C   0  0  0  0  0  0  0  0  0  0  0  0
   12.0176   -0.4824   -5.1756 H   0  0  0  0  0  0  0  0  0  0  0  0
   11.7928    1.1261   -5.8765 H   0  0  0  0  0  0  0  0  0  0  0  0
   10.6826    0.5267   -4.6075 H   0  0  0  0  0  0  0  0  0  0  0  0
   13.6132    0.9786   -4.0714 H   0  0  0  0  0  0  0  0  0  0  0  0
   12.6376    1.9350   -0.4561 H   0  0  0  0  0  0  0  0  0  0  0  0
   11.0424    1.4410    1.3432 H   0  0  0  0  0  0  0  0  0  0  0  0
    8.7378    1.1510    2.1271 H   0  0  0  0  0  0  0  0  0  0  0  0
    5.4940    1.6891   -0.2406 H   0  0  0  0  0  0  0  0  0  0  0  0
    7.3501    2.3274   -3.4695 H   0  0  0  0  0  0  0  0  0  0  0  0
    6.1674    0.8544   -7.2037 H   0  0  0  0  0  0  0  0  0  0  0  0
    5.9091    2.5925   -7.0980 H   0  0  0  0  0  0  0  0  0  0  0  0
    4.5239    1.4625   -6.9573 H   0  0  0  0  0  0  0  0  0  0  0  0
    4.9284    3.9729   -5.8341 H   0  0  0  0  0  0  0  0  0  0  0  0
    6.0033    4.1980   -4.4668 H   0  0  0  0  0  0  0  0  0  0  0  0
    3.9820    5.6051   -4.3062 H   0  0  0  0  0  0  0  0  0  0  0  0
    3.9248    4.4392   -2.9852 H   0  0  0  0  0  0  0  0  0  0  0  0
    0.2968    3.0746   -4.4669 H   0  0  0  0  0  0  0  0  0  0  0  0
   -0.2400    0.6657   -4.2704 H   0  0  0  0  0  0  0  0  0  0  0  0
    3.9489   -0.2843   -4.4231 H   0  0  0  0  0  0  0  0  0  0  0  0
    9.3976    2.3202   -3.2580 H   0  0  0  0  0  0  0  0  0  0  0  0
  1  2  1  0  0  0  0
  1 32  1  0  0  0  0
  1 33  1  0  0  0  0
  1 34  1  0  0  0  0
  2  3  1  0  0  0  0
  2 35  1  0  0  0  0
  3  4  2  0  0  0  0
  3  5  2  0  0  0  0
  3  6  1  0  0  0  0
  6  7  1  0  0  0  0
  6 31  2  0  0  0  0
  7  8  2  0  0  0  0
  7 36  1  0  0  0  0
  8  9  1  0  0  0  0
  8 37  1  0  0  0  0
  9 10  1  0  0  0  0
  9 30  2  0  0  0  0
 10 11  2  0  0  0  0
 10 38  1  0  0  0  0
 11 12  1  0  0  0  0
 12 13  2  0  0  0  0
 12 39  1  0  0  0  0
 13 14  1  0  0  0  0
 13 30  1  0  0  0  0
 14 15  1  0  0  0  0
 14 40  1  0  0  0  0
 15 16  2  0  0  0  0
 15 17  1  0  0  0  0
 17 18  1  0  0  0  0
 17 20  1  0  0  0  0
 17 29  1  0  0  0  0
 18 19  1  0  0  0  0
 19 41  1  0  0  0  0
 19 42  1  0  0  0  0
 19 43  1  0  0  0  0
 20 21  1  0  0  0  0
 20 44  1  0  0  0  0
 20 45  1  0  0  0  0
 21 22  1  0  0  0  0
 21 46  1  0  0  0  0
 21 47  1  0  0  0  0
 22 23  1  0  0  0  0
 23 24  1  0  0  0  0
 23 29  2  0  0  0  0
 24 25  2  0  0  0  0
 24 48  1  0  0  0  0
 25 26  1  0  0  0  0
 25 49  1  0  0  0  0
 26 27  1  0  0  0  0
 26 28  2  0  0  0  0
 28 29  1  0  0  0  0
 28 50  1  0  0  0  0
 30 31  1  0  0  0  0
 31 51  1  0  0  0  0
M  END
$$$$
