
 OpenBabel07202414113D

 69 71  0  0  1  0  0  0  0  0999 V2000
    0.7230   -8.8756   -2.6318 C   0  0  0  0  0  0  0  0  0  0  0  0
    0.9778   -7.4031   -2.4575 C   0  0  0  0  0  0  0  0  0  0  0  0
    0.0919   -6.5875   -2.7164 O   0  0  0  0  0  0  0  0  0  0  0  0
    2.2137   -7.0290   -1.9624 N   0  0  0  0  0  0  0  0  0  0  0  0
    3.3520   -7.9376   -1.7606 C   0  0  0  0  0  0  0  0  0  0  0  0
    4.1182   -7.6094   -0.4711 C   0  0  0  0  0  0  0  0  0  0  0  0
    4.4674   -6.1643   -0.3778 N   0  0  0  0  0  0  0  0  0  0  0  0
    5.8435   -5.6635   -1.2117 S   0  0  0  0  0  0  0  0  0  0  0  0
    6.0662   -4.2681   -0.9125 O   0  0  0  0  0  0  0  0  0  0  0  0
    6.8819   -6.6448   -0.9855 O   0  0  0  0  0  0  0  0  0  0  0  0
    5.4164   -5.7583   -2.7718 O   0  0  0  0  0  0  0  0  0  0  0  0
    6.4342   -5.4640   -3.6883 C   0  0  0  0  0  0  0  0  0  0  0  0
    6.0554   -5.5738   -5.1726 C   0  0  0  0  0  0  0  0  0  0  0  0
    4.8868   -5.5922   -5.5367 O   0  0  0  0  0  0  0  0  0  0  0  0
    7.1276   -5.5931   -6.0619 N   0  0  0  0  0  0  0  0  0  0  0  0
    8.5372   -5.7630   -5.6768 C   0  0  0  0  0  0  0  0  0  0  0  0
    9.4345   -4.7427   -6.3834 C   0  0  0  0  0  0  0  0  0  0  0  0
    9.3071   -4.7712   -7.8567 N   0  0  0  0  0  0  0  0  0  0  0  0
    9.8240   -6.0343   -8.4300 C   0  0  0  0  0  0  0  0  0  0  0  0
   11.2708   -6.3327   -8.0781 C   0  0  0  0  0  0  0  0  0  0  0  0
   11.6152   -7.4871   -7.3545 C   0  0  0  0  0  0  0  0  0  0  0  0
   12.9483   -7.7540   -7.0314 C   0  0  0  0  0  0  0  0  0  0  0  0
   13.9528   -6.8753   -7.4362 C   0  0  0  0  0  0  0  0  0  0  0  0
   13.6206   -5.7340   -8.1632 C   0  0  0  0  0  0  0  0  0  0  0  0
   14.8622   -4.6591   -8.6768 Cl  0  0  0  0  0  0  0  0  0  0  0  0
   12.2911   -5.4587   -8.4822 C   0  0  0  0  0  0  0  0  0  0  0  0
    7.8619   -4.5101   -8.1881 C   0  0  1  0  0  0  0  0  0  0  0  0
    7.6490   -4.3286   -9.7064 C   0  0  0  0  0  0  0  0  0  0  0  0
    6.2156   -3.9934  -10.1711 C   0  0  0  0  0  0  0  0  0  0  0  0
    5.6348   -2.7384   -9.5188 C   0  0  0  0  0  0  0  0  0  0  0  0
    6.2076   -3.8263  -11.6946 C   0  0  0  0  0  0  0  0  0  0  0  0
    6.8855   -5.5221   -7.5137 C   0  0  0  0  0  0  0  0  0  0  0  0
    3.2633   -5.2959   -0.5349 C   0  0  0  0  0  0  0  0  0  0  0  0
    2.5120   -5.5973   -1.8371 C   0  0  0  0  0  0  0  0  0  0  0  0
   -0.2901   -9.0227   -3.0175 H   0  0  0  0  0  0  0  0  0  0  0  0
    0.7968   -9.3827   -1.6657 H   0  0  0  0  0  0  0  0  0  0  0  0
    1.4284   -9.3013   -3.3494 H   0  0  0  0  0  0  0  0  0  0  0  0
    4.0011   -7.8478   -2.6381 H   0  0  0  0  0  0  0  0  0  0  0  0
    3.0251   -8.9788   -1.7159 H   0  0  0  0  0  0  0  0  0  0  0  0
    5.0112   -8.2368   -0.3820 H   0  0  0  0  0  0  0  0  0  0  0  0
    3.4918   -7.8516    0.3967 H   0  0  0  0  0  0  0  0  0  0  0  0
    7.2430   -6.1641   -3.4832 H   0  0  0  0  0  0  0  0  0  0  0  0
    6.7710   -4.4313   -3.5349 H   0  0  0  0  0  0  0  0  0  0  0  0
    8.8140   -6.7935   -5.9265 H   0  0  0  0  0  0  0  0  0  0  0  0
    8.6988   -5.6491   -4.6066 H   0  0  0  0  0  0  0  0  0  0  0  0
   10.4729   -4.8737   -6.0621 H   0  0  0  0  0  0  0  0  0  0  0  0
    9.1583   -3.7378   -6.0324 H   0  0  0  0  0  0  0  0  0  0  0  0
    9.7933   -5.9872   -9.5236 H   0  0  0  0  0  0  0  0  0  0  0  0
    9.2042   -6.8924   -8.1481 H   0  0  0  0  0  0  0  0  0  0  0  0
   10.8479   -8.1901   -7.0360 H   0  0  0  0  0  0  0  0  0  0  0  0
   13.2056   -8.6479   -6.4685 H   0  0  0  0  0  0  0  0  0  0  0  0
   14.9892   -7.0866   -7.1857 H   0  0  0  0  0  0  0  0  0  0  0  0
   12.0391   -4.5602   -9.0413 H   0  0  0  0  0  0  0  0  0  0  0  0
    7.6395   -3.5287   -7.7435 H   0  0  0  0  0  0  0  0  0  0  0  0
    7.9512   -5.2398  -10.2346 H   0  0  0  0  0  0  0  0  0  0  0  0
    8.3240   -3.5317  -10.0498 H   0  0  0  0  0  0  0  0  0  0  0  0
    5.5602   -4.8389   -9.9326 H   0  0  0  0  0  0  0  0  0  0  0  0
    6.2708   -1.8645   -9.6933 H   0  0  0  0  0  0  0  0  0  0  0  0
    5.5128   -2.8646   -8.4391 H   0  0  0  0  0  0  0  0  0  0  0  0
    4.6426   -2.5183   -9.9299 H   0  0  0  0  0  0  0  0  0  0  0  0
    6.8451   -2.9914  -12.0060 H   0  0  0  0  0  0  0  0  0  0  0  0
    5.1940   -3.6338  -12.0612 H   0  0  0  0  0  0  0  0  0  0  0  0
    6.5736   -4.7336  -12.1867 H   0  0  0  0  0  0  0  0  0  0  0  0
    7.0133   -6.5304   -7.9239 H   0  0  0  0  0  0  0  0  0  0  0  0
    5.8472   -5.2301   -7.6951 H   0  0  0  0  0  0  0  0  0  0  0  0
    3.5358   -4.2376   -0.4767 H   0  0  0  0  0  0  0  0  0  0  0  0
    2.6039   -5.4918    0.3204 H   0  0  0  0  0  0  0  0  0  0  0  0
    3.0947   -5.3085   -2.7178 H   0  0  0  0  0  0  0  0  0  0  0  0
    1.5959   -4.9999   -1.8670 H   0  0  0  0  0  0  0  0  0  0  0  0
  1  2  1  0  0  0  0
  1 35  1  0  0  0  0
  1 36  1  0  0  0  0
  1 37  1  0  0  0  0
  2  3  2  0  0  0  0
  2  4  1  0  0  0  0
  4  5  1  0  0  0  0
  4 34  1  0  0  0  0
  5  6  1  0  0  0  0
  5 38  1  0  0  0  0
  5 39  1  0  0  0  0
  6  7  1  0  0  0  0
  6 40  1  0  0  0  0
  6 41  1  0  0  0  0
  7  8  1  0  0  0  0
  7 33  1  0  0  0  0
  8  9  2  0  0  0  0
  8 10  2  0  0  0  0
  8 11  1  0  0  0  0
 11 12  1  0  0  0  0
 12 13  1  0  0  0  0
 12 42  1  0  0  0  0
 12 43  1  0  0  0  0
 13 14  2  0  0  0  0
 13 15  1  0  0  0  0
 15 16  1  0  0  0  0
 15 32  1  0  0  0  0
 16 17  1  0  0  0  0
 16 44  1  0  0  0  0
 16 45  1  0  0  0  0
 17 18  1  0  0  0  0
 17 46  1  0  0  0  0
 17 47  1  0  0  0  0
 18 19  1  0  0  0  0
 18 27  1  0  0  0  0
 19 20  1  0  0  0  0
 19 48  1  0  0  0  0
 19 49  1  0  0  0  0
 20 21  1  0  0  0  0
 20 26  2  0  0  0  0
 21 22  2  0  0  0  0
 21 50  1  0  0  0  0
 22 23  1  0  0  0  0
 22 51  1  0  0  0  0
 23 24  2  0  0  0  0
 23 52  1  0  0  0  0
 24 25  1  0  0  0  0
 24 26  1  0  0  0  0
 26 53  1  0  0  0  0
 27 28  1  0  0  0  0
 27 32  1  0  0  0  0
 27 54  1  1  0  0  0
 28 29  1  0  0  0  0
 28 55  1  0  0  0  0
 28 56  1  0  0  0  0
 29 30  1  0  0  0  0
 29 31  1  0  0  0  0
 29 57  1  0  0  0  0
 30 58  1  0  0  0  0
 30 59  1  0  0  0  0
 30 60  1  0  0  0  0
 31 61  1  0  0  0  0
 31 62  1  0  0  0  0
 31 63  1  0  0  0  0
 32 64  1  0  0  0  0
 32 65  1  0  0  0  0
 33 34  1  0  0  0  0
 33 66  1  0  0  0  0
 33 67  1  0  0  0  0
 34 68  1  0  0  0  0
 34 69  1  0  0  0  0
M  END
$$$$
