
 OpenBabel07202414183D

 48 51  0  0  0  0  0  0  0  0999 V2000
    4.3267    0.6651    7.8961 F   0  0  0  0  0  0  0  0  0  0  0  0
    4.6932   -0.6374    8.0452 C   0  0  0  0  0  0  0  0  0  0  0  0
    6.0171   -0.6185    8.3580 F   0  0  0  0  0  0  0  0  0  0  0  0
    4.0505   -1.0832    9.1580 F   0  0  0  0  0  0  0  0  0  0  0  0
    4.4054   -1.4763    6.8399 C   0  0  0  0  0  0  0  0  0  0  0  0
    3.8550   -0.9540    5.6673 C   0  0  0  0  0  0  0  0  0  0  0  0
    3.6411   -1.7920    4.5725 C   0  0  0  0  0  0  0  0  0  0  0  0
    2.9469   -1.1202    3.1412 Cl  0  0  0  0  0  0  0  0  0  0  0  0
    3.9681   -3.1523    4.6704 C   0  0  0  0  0  0  0  0  0  0  0  0
    3.7751   -4.0036    3.5624 N   0  0  0  0  0  0  0  0  0  0  0  0
    3.4996   -5.3806    3.5703 C   0  0  0  0  0  0  0  0  0  0  0  0
    3.9657   -6.2002    2.5380 C   0  0  0  0  0  0  0  0  0  0  0  0
    3.6263   -7.5534    2.5068 C   0  0  0  0  0  0  0  0  0  0  0  0
    4.2091   -8.5490    1.2286 Cl  0  0  0  0  0  0  0  0  0  0  0  0
    2.8112   -8.1095    3.4923 C   0  0  0  0  0  0  0  0  0  0  0  0
    2.3389   -7.3102    4.5383 C   0  0  0  0  0  0  0  0  0  0  0  0
    1.4821   -7.8945    5.6352 C   0  0  0  0  0  0  0  0  0  0  0  0
    0.1745   -7.1625    5.8803 C   0  0  0  0  0  0  0  0  0  0  0  0
   -0.2054   -6.9197    7.0271 O   0  0  0  0  0  0  0  0  0  0  0  0
   -0.5727   -6.9117    4.7451 N   0  0  0  0  0  0  0  0  0  0  0  0
   -1.8137   -6.2325    4.7508 C   0  0  0  0  0  0  0  0  0  0  0  0
   -2.0496   -5.1577    5.6155 C   0  0  0  0  0  0  0  0  0  0  0  0
   -3.1855   -4.4268    5.6339 N   0  0  0  0  0  0  0  0  0  0  0  0
   -4.1518   -4.8010    4.7708 C   0  0  0  0  0  0  0  0  0  0  0  0
   -4.0473   -5.8698    3.8726 C   0  0  0  0  0  0  0  0  0  0  0  0
   -5.1182   -6.2319    3.0393 C   0  0  0  0  0  0  0  0  0  0  0  0
   -5.0189   -7.3367    2.1933 C   0  0  0  0  0  0  0  0  0  0  0  0
   -3.8505   -8.0858    2.1723 C   0  0  0  0  0  0  0  0  0  0  0  0
   -2.7757   -7.7249    2.9875 C   0  0  0  0  0  0  0  0  0  0  0  0
   -2.8441   -6.6100    3.8559 C   0  0  0  0  0  0  0  0  0  0  0  0
    2.7065   -5.9557    4.5737 C   0  0  0  0  0  0  0  0  0  0  0  0
    4.4779   -3.6672    5.8161 N   0  0  0  0  0  0  0  0  0  0  0  0
    4.6948   -2.8315    6.8590 C   0  0  0  0  0  0  0  0  0  0  0  0
    3.5923    0.1004    5.6059 H   0  0  0  0  0  0  0  0  0  0  0  0
    4.2629   -3.6594    2.7443 H   0  0  0  0  0  0  0  0  0  0  0  0
    4.6032   -5.7912    1.7593 H   0  0  0  0  0  0  0  0  0  0  0  0
    2.5557   -9.1655    3.4453 H   0  0  0  0  0  0  0  0  0  0  0  0
    2.0639   -7.8734    6.5651 H   0  0  0  0  0  0  0  0  0  0  0  0
    1.2402   -8.9436    5.4276 H   0  0  0  0  0  0  0  0  0  0  0  0
   -0.3077   -7.3956    3.8979 H   0  0  0  0  0  0  0  0  0  0  0  0
   -1.2894   -4.8135    6.3113 H   0  0  0  0  0  0  0  0  0  0  0  0
   -5.0578   -4.2015    4.8283 H   0  0  0  0  0  0  0  0  0  0  0  0
   -6.0487   -5.6691    3.0589 H   0  0  0  0  0  0  0  0  0  0  0  0
   -5.8620   -7.6212    1.5675 H   0  0  0  0  0  0  0  0  0  0  0  0
   -3.7768   -8.9629    1.5322 H   0  0  0  0  0  0  0  0  0  0  0  0
   -1.8944   -8.3613    2.9581 H   0  0  0  0  0  0  0  0  0  0  0  0
    2.3448   -5.3262    5.3866 H   0  0  0  0  0  0  0  0  0  0  0  0
    5.1273   -3.3076    7.7376 H   0  0  0  0  0  0  0  0  0  0  0  0
  1  2  1  0  0  0  0
  2  3  1  0  0  0  0
  2  4  1  0  0  0  0
  2  5  1  0  0  0  0
  5  6  2  0  0  0  0
  5 33  1  0  0  0  0
  6  7  1  0  0  0  0
  6 34  1  0  0  0  0
  7  8  1  0  0  0  0
  7  9  2  0  0  0  0
  9 10  1  0  0  0  0
  9 32  1  0  0  0  0
 10 11  1  0  0  0  0
 10 35  1  0  0  0  0
 11 12  2  0  0  0  0
 11 31  1  0  0  0  0
 12 13  1  0  0  0  0
 12 36  1  0  0  0  0
 13 14  1  0  0  0  0
 13 15  2  0  0  0  0
 15 16  1  0  0  0  0
 15 37  1  0  0  0  0
 16 17  1  0  0  0  0
 16 31  2  0  0  0  0
 17 18  1  0  0  0  0
 17 38  1  0  0  0  0
 17 39  1  0  0  0  0
 18 19  2  0  0  0  0
 18 20  1  0  0  0  0
 20 21  1  0  0  0  0
 20 40  1  0  0  0  0
 21 22  2  0  0  0  0
 21 30  1  0  0  0  0
 22 23  1  0  0  0  0
 22 41  1  0  0  0  0
 23 24  2  0  0  0  0
 24 25  1  0  0  0  0
 24 42  1  0  0  0  0
 25 26  2  0  0  0  0
 25 30  1  0  0  0  0
 26 27  1  0  0  0  0
 26 43  1  0  0  0  0
 27 28  2  0  0  0  0
 27 44  1  0  0  0  0
 28 29  1  0  0  0  0
 28 45  1  0  0  0  0
 29 30  2  0  0  0  0
 29 46  1  0  0  0  0
 31 47  1  0  0  0  0
 32 33  2  0  0  0  0
 33 48  1  0  0  0  0
M  END
$$$$
