
 OpenBabel07202414123D

 64 67  0  0  0  0  0  0  0  0999 V2000
    7.7560    0.6961    0.8847 C   0  0  0  0  0  0  0  0  0  0  0  0
    6.9878    0.4949    2.2040 C   0  0  0  0  0  0  0  0  0  0  0  0
    7.9731    0.3665    3.3696 C   0  0  0  0  0  0  0  0  0  0  0  0
    5.9457    1.5994    2.3770 C   0  0  0  0  0  0  0  0  0  0  0  0
    6.4522    2.9095    2.5507 C   0  0  0  0  0  0  0  0  0  0  0  0
    5.6048    4.0010    2.6927 C   0  0  0  0  0  0  0  0  0  0  0  0
    4.2361    3.8386    2.6209 C   0  0  0  0  0  0  0  0  0  0  0  0
    3.6733    2.5608    2.4185 C   0  0  0  0  0  0  0  0  0  0  0  0
    2.1569    2.4459    2.2253 C   0  0  0  0  0  0  0  0  0  0  0  0
    1.4136    2.3482    3.5608 C   0  0  0  0  0  0  0  0  0  0  0  0
    1.5528    3.5981    1.4010 C   0  0  0  0  0  0  0  0  0  0  0  0
    4.5347    1.4099    2.3564 C   0  0  0  0  0  0  0  0  0  0  0  0
    3.8927    0.1428    2.3671 N   0  0  0  0  0  0  0  0  0  0  0  0
    4.1344   -1.0914    1.7462 C   0  0  0  0  0  0  0  0  0  0  0  0
    4.8386   -1.1898    0.5463 C   0  0  0  0  0  0  0  0  0  0  0  0
    5.0989   -2.4278   -0.0693 C   0  0  0  0  0  0  0  0  0  0  0  0
    5.8965   -2.4926   -1.3469 C   0  0  0  0  0  0  0  0  0  0  0  0
    5.3140   -1.8030   -2.5688 C   0  0  0  0  0  0  0  0  0  0  0  0
    6.0060   -1.6918   -3.5833 O   0  0  0  0  0  0  0  0  0  0  0  0
    4.0099   -1.3344   -2.4671 N   0  0  0  0  0  0  0  0  0  0  0  0
    3.4829   -0.5543   -3.5231 C   0  0  0  0  0  0  0  0  0  0  0  0
    3.3362   -1.1227   -4.7877 C   0  0  0  0  0  0  0  0  0  0  0  0
    2.9024   -0.4503   -5.8728 N   0  0  0  0  0  0  0  0  0  0  0  0
    2.7463    0.8809   -5.7133 C   0  0  0  0  0  0  0  0  0  0  0  0
    2.9693    1.5736   -4.5201 C   0  0  0  0  0  0  0  0  0  0  0  0
    3.0051    2.9775   -4.4792 C   0  0  0  0  0  0  0  0  0  0  0  0
    3.2524    3.6464   -3.2832 C   0  0  0  0  0  0  0  0  0  0  0  0
    3.3747    2.9244   -2.1033 C   0  0  0  0  0  0  0  0  0  0  0  0
    3.3452    1.5299   -2.1289 C   0  0  0  0  0  0  0  0  0  0  0  0
    3.2345    0.8269   -3.3543 C   0  0  0  0  0  0  0  0  0  0  0  0
    4.6267   -3.5942    0.5380 C   0  0  0  0  0  0  0  0  0  0  0  0
    3.9138   -3.5106    1.7324 C   0  0  0  0  0  0  0  0  0  0  0  0
    3.3370   -4.9505    2.4740 Cl  0  0  0  0  0  0  0  0  0  0  0  0
    3.6686   -2.2715    2.3323 C   0  0  0  0  0  0  0  0  0  0  0  0
    8.3711   -0.1818    0.6560 H   0  0  0  0  0  0  0  0  0  0  0  0
    8.4235    1.5633    0.9294 H   0  0  0  0  0  0  0  0  0  0  0  0
    7.0804    0.8595    0.0388 H   0  0  0  0  0  0  0  0  0  0  0  0
    6.5070   -0.4771    2.1705 H   0  0  0  0  0  0  0  0  0  0  0  0
    8.6554    1.2188    3.4371 H   0  0  0  0  0  0  0  0  0  0  0  0
    8.5845   -0.5333    3.2384 H   0  0  0  0  0  0  0  0  0  0  0  0
    7.4417    0.2723    4.3222 H   0  0  0  0  0  0  0  0  0  0  0  0
    7.5254    3.0848    2.5773 H   0  0  0  0  0  0  0  0  0  0  0  0
    6.0340    5.0019    2.8430 H   0  0  0  0  0  0  0  0  0  0  0  0
    3.6097    4.7157    2.7229 H   0  0  0  0  0  0  0  0  0  0  0  0
    1.9492    1.5390    1.6454 H   0  0  0  0  0  0  0  0  0  0  0  0
    1.5714    3.2403    4.1729 H   0  0  0  0  0  0  0  0  0  0  0  0
    1.7407    1.4804    4.1384 H   0  0  0  0  0  0  0  0  0  0  0  0
    0.3366    2.2472    3.3881 H   0  0  0  0  0  0  0  0  0  0  0  0
    1.5312    4.5400    1.9587 H   0  0  0  0  0  0  0  0  0  0  0  0
    0.5211    3.3663    1.1187 H   0  0  0  0  0  0  0  0  0  0  0  0
    2.1176    3.7696    0.4822 H   0  0  0  0  0  0  0  0  0  0  0  0
    3.2496    0.0798    3.1530 H   0  0  0  0  0  0  0  0  0  0  0  0
    5.1984   -0.2766    0.0774 H   0  0  0  0  0  0  0  0  0  0  0  0
    6.0557   -3.5402   -1.6330 H   0  0  0  0  0  0  0  0  0  0  0  0
    6.8858   -2.0611   -1.1515 H   0  0  0  0  0  0  0  0  0  0  0  0
    3.7201   -1.0571   -1.5415 H   0  0  0  0  0  0  0  0  0  0  0  0
    3.5746   -2.1683   -4.9608 H   0  0  0  0  0  0  0  0  0  0  0  0
    2.4453    1.4041   -6.6177 H   0  0  0  0  0  0  0  0  0  0  0  0
    2.9110    3.5539   -5.3971 H   0  0  0  0  0  0  0  0  0  0  0  0
    3.3570    4.7278   -3.2738 H   0  0  0  0  0  0  0  0  0  0  0  0
    3.5388    3.4446   -1.1641 H   0  0  0  0  0  0  0  0  0  0  0  0
    3.4506    1.0090   -1.1830 H   0  0  0  0  0  0  0  0  0  0  0  0
    4.8149   -4.5647    0.0892 H   0  0  0  0  0  0  0  0  0  0  0  0
    3.1227   -2.2419    3.2731 H   0  0  0  0  0  0  0  0  0  0  0  0
  1  2  1  0  0  0  0
  1 35  1  0  0  0  0
  1 36  1  0  0  0  0
  1 37  1  0  0  0  0
  2  3  1  0  0  0  0
  2  4  1  0  0  0  0
  2 38  1  0  0  0  0
  3 39  1  0  0  0  0
  3 40  1  0  0  0  0
  3 41  1  0  0  0  0
  4  5  2  0  0  0  0
  4 12  1  0  0  0  0
  5  6  1  0  0  0  0
  5 42  1  0  0  0  0
  6  7  2  0  0  0  0
  6 43  1  0  0  0  0
  7  8  1  0  0  0  0
  7 44  1  0  0  0  0
  8  9  1  0  0  0  0
  8 12  2  0  0  0  0
  9 10  1  0  0  0  0
  9 11  1  0  0  0  0
  9 45  1  0  0  0  0
 10 46  1  0  0  0  0
 10 47  1  0  0  0  0
 10 48  1  0  0  0  0
 11 49  1  0  0  0  0
 11 50  1  0  0  0  0
 11 51  1  0  0  0  0
 12 13  1  0  0  0  0
 13 14  1  0  0  0  0
 13 52  1  0  0  0  0
 14 15  2  0  0  0  0
 14 34  1  0  0  0  0
 15 16  1  0  0  0  0
 15 53  1  0  0  0  0
 16 17  1  0  0  0  0
 16 31  2  0  0  0  0
 17 18  1  0  0  0  0
 17 54  1  0  0  0  0
 17 55  1  0  0  0  0
 18 19  2  0  0  0  0
 18 20  1  0  0  0  0
 20 21  1  0  0  0  0
 20 56  1  0  0  0  0
 21 22  2  0  0  0  0
 21 30  1  0  0  0  0
 22 23  1  0  0  0  0
 22 57  1  0  0  0  0
 23 24  2  0  0  0  0
 24 25  1  0  0  0  0
 24 58  1  0  0  0  0
 25 26  2  0  0  0  0
 25 30  1  0  0  0  0
 26 27  1  0  0  0  0
 26 59  1  0  0  0  0
 27 28  2  0  0  0  0
 27 60  1  0  0  0  0
 28 29  1  0  0  0  0
 28 61  1  0  0  0  0
 29 30  2  0  0  0  0
 29 62  1  0  0  0  0
 31 32  1  0  0  0  0
 31 63  1  0  0  0  0
 32 33  1  0  0  0  0
 32 34  2  0  0  0  0
 34 64  1  0  0  0  0
M  END
$$$$
