
 OpenBabel07202414173D

 70 75  0  0  1  0  0  0  0  0999 V2000
    0.9815   -0.0338    0.1025 Cl  0  0  0  0  0  0  0  0  0  0  0  0
    2.6964   -0.1272   -0.0071 C   0  0  0  0  0  0  0  0  0  0  0  0
    3.4470    1.0438    0.0390 C   0  0  0  0  0  0  0  0  0  0  0  0
    4.8352    0.9665    0.0056 C   0  0  0  0  0  0  0  0  0  0  0  0
    5.4733   -0.2810   -0.0784 C   0  0  0  0  0  0  0  0  0  0  0  0
    4.7164   -1.4620   -0.2136 C   0  0  0  0  0  0  0  0  0  0  0  0
    3.3182   -1.3723   -0.1342 C   0  0  0  0  0  0  0  0  0  0  0  0
    5.4244   -2.8105   -0.3536 C   0  0  1  0  0  0  0  0  0  0  0  0
    4.8511   -3.6895   -1.4841 C   0  0  0  0  0  0  0  0  0  0  0  0
    4.4465   -3.2041   -2.5369 O   0  0  0  0  0  0  0  0  0  0  0  0
    4.8687   -5.0505   -1.1939 N   0  0  0  0  0  0  0  0  0  0  0  0
    4.2199   -6.0972   -1.9186 C   0  0  0  0  0  0  0  0  0  0  0  0
    3.4068   -5.8572   -3.0306 C   0  0  0  0  0  0  0  0  0  0  0  0
    2.6335   -6.7894   -3.6400 N   0  0  0  0  0  0  0  0  0  0  0  0
    2.7007   -8.0429   -3.1523 C   0  0  0  0  0  0  0  0  0  0  0  0
    3.5520   -8.4432   -2.1260 C   0  0  0  0  0  0  0  0  0  0  0  0
    3.6359   -9.7967   -1.7571 C   0  0  0  0  0  0  0  0  0  0  0  0
    4.5113  -10.2043   -0.7593 C   0  0  0  0  0  0  0  0  0  0  0  0
    5.2900   -9.2601   -0.1007 C   0  0  0  0  0  0  0  0  0  0  0  0
    5.2019   -7.9057   -0.4485 C   0  0  0  0  0  0  0  0  0  0  0  0
    4.3368   -7.4522   -1.4802 C   0  0  0  0  0  0  0  0  0  0  0  0
    6.9531   -2.6586   -0.5779 C   0  0  0  0  0  0  0  0  0  0  0  0
    7.5027   -1.6437    0.3396 N   0  0  0  0  0  0  0  0  0  0  0  0
    8.9718   -1.5365    0.3631 C   0  0  0  0  0  0  0  0  0  0  0  0
    9.6836   -2.8589    0.6316 C   0  0  0  0  0  0  0  0  0  0  0  0
    9.6052   -3.4479    1.7106 O   0  0  0  0  0  0  0  0  0  0  0  0
   10.4269   -3.4222   -0.3653 N   0  0  0  0  0  0  0  0  0  0  0  0
   10.7580   -2.8564   -1.6688 C   0  0  0  0  0  0  0  0  0  0  0  0
   11.9392   -1.9041   -1.5129 C   0  0  0  0  0  0  0  0  0  0  0  0
   13.2030   -2.3806   -1.1281 C   0  0  0  0  0  0  0  0  0  0  0  0
   14.2548   -1.4941   -0.8894 C   0  0  0  0  0  0  0  0  0  0  0  0
   14.0606   -0.1220   -1.0329 C   0  0  0  0  0  0  0  0  0  0  0  0
   12.8228    0.3656   -1.4425 C   0  0  0  0  0  0  0  0  0  0  0  0
   11.7721   -0.5190   -1.6914 C   0  0  0  0  0  0  0  0  0  0  0  0
   10.9469   -3.9058   -2.7554 C   0  0  0  0  0  0  0  0  0  0  0  0
   10.9126   -5.2896   -2.5134 C   0  0  0  0  0  0  0  0  0  0  0  0
   11.0717   -6.2022   -3.5573 C   0  0  0  0  0  0  0  0  0  0  0  0
   11.2528   -5.7498   -4.8614 C   0  0  0  0  0  0  0  0  0  0  0  0
   11.2606   -4.3843   -5.1261 C   0  0  0  0  0  0  0  0  0  0  0  0
   11.1051   -3.4707   -4.0842 C   0  0  0  0  0  0  0  0  0  0  0  0
    6.9766   -0.3229   -0.0526 C   0  0  0  0  0  0  0  0  0  0  0  0
    2.9636    2.0131    0.1153 H   0  0  0  0  0  0  0  0  0  0  0  0
    5.4228    1.8809    0.0597 H   0  0  0  0  0  0  0  0  0  0  0  0
    2.7071   -2.2705   -0.1731 H   0  0  0  0  0  0  0  0  0  0  0  0
    5.2694   -3.3279    0.6043 H   0  0  0  0  0  0  0  0  0  0  0  0
    5.2985   -5.3209   -0.3209 H   0  0  0  0  0  0  0  0  0  0  0  0
    3.3180   -4.8790   -3.4912 H   0  0  0  0  0  0  0  0  0  0  0  0
    2.0300   -8.7482   -3.6382 H   0  0  0  0  0  0  0  0  0  0  0  0
    3.0339  -10.5486   -2.2657 H   0  0  0  0  0  0  0  0  0  0  0  0
    4.5960  -11.2579   -0.5006 H   0  0  0  0  0  0  0  0  0  0  0  0
    5.9831   -9.5757    0.6755 H   0  0  0  0  0  0  0  0  0  0  0  0
    5.8576   -7.2186    0.0847 H   0  0  0  0  0  0  0  0  0  0  0  0
    7.1741   -2.4011   -1.6235 H   0  0  0  0  0  0  0  0  0  0  0  0
    7.4123   -3.6382   -0.3973 H   0  0  0  0  0  0  0  0  0  0  0  0
    9.2747   -0.8656    1.1781 H   0  0  0  0  0  0  0  0  0  0  0  0
    9.3245   -1.0621   -0.5490 H   0  0  0  0  0  0  0  0  0  0  0  0
   10.9973   -4.1874   -0.0290 H   0  0  0  0  0  0  0  0  0  0  0  0
    9.8804   -2.2903   -2.0017 H   0  0  0  0  0  0  0  0  0  0  0  0
   13.3730   -3.4475   -1.0005 H   0  0  0  0  0  0  0  0  0  0  0  0
   15.2248   -1.8751   -0.5806 H   0  0  0  0  0  0  0  0  0  0  0  0
   14.8758    0.5668   -0.8267 H   0  0  0  0  0  0  0  0  0  0  0  0
   12.6738    1.4364   -1.5597 H   0  0  0  0  0  0  0  0  0  0  0  0
   10.8160   -0.1096   -2.0099 H   0  0  0  0  0  0  0  0  0  0  0  0
   10.7464   -5.6870   -1.5161 H   0  0  0  0  0  0  0  0  0  0  0  0
   11.0460   -7.2707   -3.3549 H   0  0  0  0  0  0  0  0  0  0  0  0
   11.3776   -6.4612   -5.6732 H   0  0  0  0  0  0  0  0  0  0  0  0
   11.3815   -4.0294   -6.1457 H   0  0  0  0  0  0  0  0  0  0  0  0
   11.1010   -2.4066   -4.3188 H   0  0  0  0  0  0  0  0  0  0  0  0
    7.3439   -0.0287   -1.0460 H   0  0  0  0  0  0  0  0  0  0  0  0
    7.3303    0.4231    0.6711 H   0  0  0  0  0  0  0  0  0  0  0  0
  1  2  1  0  0  0  0
  2  3  1  0  0  0  0
  2  7  2  0  0  0  0
  3  4  2  0  0  0  0
  3 42  1  0  0  0  0
  4  5  1  0  0  0  0
  4 43  1  0  0  0  0
  5  6  2  0  0  0  0
  5 41  1  0  0  0  0
  6  7  1  0  0  0  0
  6  8  1  0  0  0  0
  7 44  1  0  0  0  0
  8 22  1  0  0  0  0
  8  9  1  0  0  0  0
  8 45  1  1  0  0  0
  9 10  2  0  0  0  0
  9 11  1  0  0  0  0
 11 12  1  0  0  0  0
 11 46  1  0  0  0  0
 12 13  1  0  0  0  0
 12 21  2  0  0  0  0
 13 14  2  0  0  0  0
 13 47  1  0  0  0  0
 14 15  1  0  0  0  0
 15 16  2  0  0  0  0
 15 48  1  0  0  0  0
 16 17  1  0  0  0  0
 16 21  1  0  0  0  0
 17 18  2  0  0  0  0
 17 49  1  0  0  0  0
 18 19  1  0  0  0  0
 18 50  1  0  0  0  0
 19 20  2  0  0  0  0
 19 51  1  0  0  0  0
 20 21  1  0  0  0  0
 20 52  1  0  0  0  0
 22 23  1  0  0  0  0
 22 53  1  0  0  0  0
 22 54  1  0  0  0  0
 23 24  1  0  0  0  0
 23 41  1  0  0  0  0
 24 25  1  0  0  0  0
 24 55  1  0  0  0  0
 24 56  1  0  0  0  0
 25 26  2  0  0  0  0
 25 27  1  0  0  0  0
 27 28  1  0  0  0  0
 27 57  1  0  0  0  0
 28 29  1  0  0  0  0
 28 35  1  0  0  0  0
 28 58  1  0  0  0  0
 29 30  1  0  0  0  0
 29 34  2  0  0  0  0
 30 31  2  0  0  0  0
 30 59  1  0  0  0  0
 31 32  1  0  0  0  0
 31 60  1  0  0  0  0
 32 33  2  0  0  0  0
 32 61  1  0  0  0  0
 33 34  1  0  0  0  0
 33 62  1  0  0  0  0
 34 63  1  0  0  0  0
 35 36  1  0  0  0  0
 35 40  2  0  0  0  0
 36 37  2  0  0  0  0
 36 64  1  0  0  0  0
 37 38  1  0  0  0  0
 37 65  1  0  0  0  0
 38 39  2  0  0  0  0
 38 66  1  0  0  0  0
 39 40  1  0  0  0  0
 39 67  1  0  0  0  0
 40 68  1  0  0  0  0
 41 69  1  0  0  0  0
 41 70  1  0  0  0  0
M  END
$$$$
