
 OpenBabel07202414133D

 52 55  0  0  0  0  0  0  0  0999 V2000
    5.8443    0.7864    0.3406 C   0  0  0  0  0  0  0  0  0  0  0  0
    6.6482    1.9386   -0.0599 N   0  0  0  0  0  0  0  0  0  0  0  0
    7.6398    2.4162    0.9033 C   0  0  0  0  0  0  0  0  0  0  0  0
    6.1409    2.8675   -0.9715 C   0  0  0  0  0  0  0  0  0  0  0  0
    4.8623    2.7549   -1.5270 C   0  0  0  0  0  0  0  0  0  0  0  0
    4.2932    3.7865   -2.2880 C   0  0  0  0  0  0  0  0  0  0  0  0
    5.0960    4.8739   -2.5971 C   0  0  0  0  0  0  0  0  0  0  0  0
    6.3757    4.9912   -2.1914 N   0  0  0  0  0  0  0  0  0  0  0  0
    6.8484    4.0038   -1.3865 C   0  0  0  0  0  0  0  0  0  0  0  0
    2.8419    3.7354   -2.6784 C   0  0  0  0  0  0  0  0  0  0  0  0
    1.9322    4.2644   -1.6463 N   0  0  0  0  0  0  0  0  0  0  0  0
    1.4242    3.3493   -0.7067 C   0  0  0  0  0  0  0  0  0  0  0  0
    0.1461    2.8217   -0.8974 C   0  0  0  0  0  0  0  0  0  0  0  0
   -0.4881    2.1608    0.1530 C   0  0  0  0  0  0  0  0  0  0  0  0
    0.1587    2.0218    1.3842 C   0  0  0  0  0  0  0  0  0  0  0  0
    1.4545    2.5112    1.5534 C   0  0  0  0  0  0  0  0  0  0  0  0
    2.1031    3.1643    0.5068 C   0  0  0  0  0  0  0  0  0  0  0  0
    2.2065    2.4229    3.0985 Cl  0  0  0  0  0  0  0  0  0  0  0  0
    1.5561    5.5980   -1.7206 C   0  0  0  0  0  0  0  0  0  0  0  0
    2.1623    6.3461   -2.4998 O   0  0  0  0  0  0  0  0  0  0  0  0
    0.4019    6.1882   -0.9017 C   0  0  0  0  0  0  0  0  0  0  0  0
    0.0862    5.8257    0.3446 C   0  0  0  0  0  0  0  0  0  0  0  0
   -0.8849    6.5388    1.2047 C   0  0  0  0  0  0  0  0  0  0  0  0
   -1.3550    6.0183    2.2112 O   0  0  0  0  0  0  0  0  0  0  0  0
   -1.1181    7.8328    0.8640 N   0  0  0  0  0  0  0  0  0  0  0  0
   -0.6736    8.3611   -0.3496 C   0  0  0  0  0  0  0  0  0  0  0  0
   -0.1964    7.4897   -1.3374 C   0  0  0  0  0  0  0  0  0  0  0  0
   -0.0306    7.9743   -2.6318 C   0  0  0  0  0  0  0  0  0  0  0  0
    0.1259    9.3471   -2.8018 C   0  0  0  0  0  0  0  0  0  0  0  0
   -0.1266   10.2173   -1.7455 C   0  0  0  0  0  0  0  0  0  0  0  0
   -0.6593    9.7199   -0.5597 C   0  0  0  0  0  0  0  0  0  0  0  0
    6.2520    0.2934    1.2294 H   0  0  0  0  0  0  0  0  0  0  0  0
    5.8369    0.0417   -0.4628 H   0  0  0  0  0  0  0  0  0  0  0  0
    4.8141    1.0629    0.5897 H   0  0  0  0  0  0  0  0  0  0  0  0
    7.7874    1.7043    1.7225 H   0  0  0  0  0  0  0  0  0  0  0  0
    7.3303    3.3651    1.3572 H   0  0  0  0  0  0  0  0  0  0  0  0
    8.6132    2.5458    0.4189 H   0  0  0  0  0  0  0  0  0  0  0  0
    4.2477    1.8837   -1.3259 H   0  0  0  0  0  0  0  0  0  0  0  0
    4.7252    5.7086   -3.1879 H   0  0  0  0  0  0  0  0  0  0  0  0
    7.8709    4.1757   -1.0633 H   0  0  0  0  0  0  0  0  0  0  0  0
    2.5532    2.7025   -2.9112 H   0  0  0  0  0  0  0  0  0  0  0  0
    2.6954    4.2926   -3.6131 H   0  0  0  0  0  0  0  0  0  0  0  0
   -0.3865    2.9945   -1.8294 H   0  0  0  0  0  0  0  0  0  0  0  0
   -1.5088    1.8076    0.0313 H   0  0  0  0  0  0  0  0  0  0  0  0
   -0.3700    1.5675    2.2186 H   0  0  0  0  0  0  0  0  0  0  0  0
    3.0732    3.6278    0.6742 H   0  0  0  0  0  0  0  0  0  0  0  0
    0.5603    5.0432    0.9044 H   0  0  0  0  0  0  0  0  0  0  0  0
   -1.6523    8.3891    1.5177 H   0  0  0  0  0  0  0  0  0  0  0  0
    0.1486    7.3075   -3.4704 H   0  0  0  0  0  0  0  0  0  0  0  0
    0.5322    9.7168   -3.7401 H   0  0  0  0  0  0  0  0  0  0  0  0
    0.0925   11.2749   -1.8510 H   0  0  0  0  0  0  0  0  0  0  0  0
   -0.9435   10.4168    0.2366 H   0  0  0  0  0  0  0  0  0  0  0  0
  1  2  1  0  0  0  0
  1 32  1  0  0  0  0
  1 33  1  0  0  0  0
  1 34  1  0  0  0  0
  2  3  1  0  0  0  0
  2  4  1  0  0  0  0
  3 35  1  0  0  0  0
  3 36  1  0  0  0  0
  3 37  1  0  0  0  0
  4  5  1  0  0  0  0
  4  9  2  0  0  0  0
  5  6  2  0  0  0  0
  5 38  1  0  0  0  0
  6  7  1  0  0  0  0
  6 10  1  0  0  0  0
  7  8  2  0  0  0  0
  7 39  1  0  0  0  0
  8  9  1  0  0  0  0
  9 40  1  0  0  0  0
 10 11  1  0  0  0  0
 10 41  1  0  0  0  0
 10 42  1  0  0  0  0
 11 12  1  0  0  0  0
 11 19  1  0  0  0  0
 12 13  1  0  0  0  0
 12 17  2  0  0  0  0
 13 14  2  0  0  0  0
 13 43  1  0  0  0  0
 14 15  1  0  0  0  0
 14 44  1  0  0  0  0
 15 16  2  0  0  0  0
 15 45  1  0  0  0  0
 16 17  1  0  0  0  0
 16 18  1  0  0  0  0
 17 46  1  0  0  0  0
 19 20  2  0  0  0  0
 19 21  1  0  0  0  0
 21 22  2  0  0  0  0
 21 27  1  0  0  0  0
 22 23  1  0  0  0  0
 22 47  1  0  0  0  0
 23 24  2  0  0  0  0
 23 25  1  0  0  0  0
 25 26  1  0  0  0  0
 25 48  1  0  0  0  0
 26 27  1  0  0  0  0
 26 31  2  0  0  0  0
 27 28  2  0  0  0  0
 28 29  1  0  0  0  0
 28 49  1  0  0  0  0
 29 30  2  0  0  0  0
 29 50  1  0  0  0  0
 30 31  1  0  0  0  0
 30 51  1  0  0  0  0
 31 52  1  0  0  0  0
M  END
$$$$
