
 OpenBabel07202414173D

 51 55  0  0  1  0  0  0  0  0999 V2000
    1.0020   -0.1169   -0.1181 Cl  0  0  0  0  0  0  0  0  0  0  0  0
    2.7222   -0.1082   -0.1036 C   0  0  0  0  0  0  0  0  0  0  0  0
    3.4036    1.1041   -0.1208 C   0  0  0  0  0  0  0  0  0  0  0  0
    4.7972    1.1129   -0.0920 C   0  0  0  0  0  0  0  0  0  0  0  0
    5.5202   -0.0895   -0.0257 C   0  0  0  0  0  0  0  0  0  0  0  0
    4.8305   -1.3157   -0.0089 C   0  0  0  0  0  0  0  0  0  0  0  0
    3.4242   -1.3119   -0.0588 C   0  0  0  0  0  0  0  0  0  0  0  0
    5.5946   -2.6328    0.1627 C   0  0  3  0  0  0  0  0  0  0  0  0
    5.4246   -3.1629    1.6047 C   0  0  0  0  0  0  0  0  0  0  0  0
    4.3699   -2.9458    2.2052 O   0  0  0  0  0  0  0  0  0  0  0  0
    6.4452   -3.9298    2.1542 N   0  0  0  0  0  0  0  0  0  0  0  0
    6.3889   -4.4612    3.4693 C   0  0  0  0  0  0  0  0  0  0  0  0
    5.2142   -4.6427    4.2138 C   0  0  0  0  0  0  0  0  0  0  0  0
    5.1403   -5.0085    5.5208 N   0  0  0  0  0  0  0  0  0  0  0  0
    6.2885   -5.2085    6.2003 C   0  0  0  0  0  0  0  0  0  0  0  0
    7.5128   -5.1309    5.5372 C   0  0  0  0  0  0  0  0  0  0  0  0
    8.8647   -5.2652    5.9089 C   0  0  0  0  0  0  0  0  0  0  0  0
    9.6958   -5.1205    4.8758 N   0  0  0  0  0  0  0  0  0  0  0  0
    8.8736   -4.8715    3.8398 N   0  0  0  0  0  0  0  0  0  0  0  0
    7.5452   -4.8036    4.1794 C   0  0  0  0  0  0  0  0  0  0  0  0
    7.0307   -2.4532   -0.3379 C   0  0  0  0  0  0  0  0  0  0  0  0
    7.6947   -1.3039    0.3627 N   0  0  0  0  0  0  0  0  0  0  0  0
    9.3924   -1.3007    0.1732 S   0  0  0  0  0  0  0  0  0  0  0  0
    9.8185   -2.5826    0.6968 O   0  0  0  0  0  0  0  0  0  0  0  0
    9.6579   -0.9171   -1.1960 O   0  0  0  0  0  0  0  0  0  0  0  0
    9.9398    0.0117    1.2842 C   0  0  0  0  0  0  0  0  0  0  0  0
   11.4285    0.1866    1.0829 C   0  0  0  0  0  0  0  0  0  0  0  0
   12.2573   -0.9598    1.3794 C   0  0  0  0  0  0  0  0  0  0  0  0
   12.9438   -1.8541    1.6359 N   0  0  0  0  0  0  0  0  0  0  0  0
   11.9246    1.1801    0.0439 C   0  0  0  0  0  0  0  0  0  0  0  0
   12.0270    1.5286    1.4961 C   0  0  0  0  0  0  0  0  0  0  0  0
    7.0294   -0.0241   -0.0042 C   0  0  0  0  0  0  0  0  0  0  0  0
    2.8574    2.0431   -0.1479 H   0  0  0  0  0  0  0  0  0  0  0  0
    5.3177    2.0688   -0.1054 H   0  0  0  0  0  0  0  0  0  0  0  0
    2.8729   -2.2492   -0.0076 H   0  0  0  0  0  0  0  0  0  0  0  0
    5.1208   -3.3865   -0.4823 H   0  0  0  0  0  0  0  0  0  0  0  0
    7.3633   -3.8768    1.7345 H   0  0  0  0  0  0  0  0  0  0  0  0
    4.2317   -4.4994    3.7718 H   0  0  0  0  0  0  0  0  0  0  0  0
    6.1900   -5.4338    7.2560 H   0  0  0  0  0  0  0  0  0  0  0  0
    9.2737   -5.4588    6.8924 H   0  0  0  0  0  0  0  0  0  0  0  0
    9.2940   -4.7594    2.9229 H   0  0  0  0  0  0  0  0  0  0  0  0
    7.0276   -2.2549   -1.4192 H   0  0  0  0  0  0  0  0  0  0  0  0
    7.5975   -3.3782   -0.1972 H   0  0  0  0  0  0  0  0  0  0  0  0
    9.6922   -0.2760    2.3071 H   0  0  0  0  0  0  0  0  0  0  0  0
    9.4130    0.9323    1.0110 H   0  0  0  0  0  0  0  0  0  0  0  0
   11.2043    1.7329   -0.5563 H   0  0  0  0  0  0  0  0  0  0  0  0
   12.8412    0.9611   -0.4956 H   0  0  0  0  0  0  0  0  0  0  0  0
   11.3750    2.3038    1.8851 H   0  0  0  0  0  0  0  0  0  0  0  0
   13.0201    1.5475    1.9387 H   0  0  0  0  0  0  0  0  0  0  0  0
    7.3666    0.3097   -0.9924 H   0  0  0  0  0  0  0  0  0  0  0  0
    7.3040    0.7248    0.7456 H   0  0  0  0  0  0  0  0  0  0  0  0
  1  2  1  0  0  0  0
  2  3  1  0  0  0  0
  2  7  2  0  0  0  0
  3  4  2  0  0  0  0
  3 33  1  0  0  0  0
  4  5  1  0  0  0  0
  4 34  1  0  0  0  0
  5  6  2  0  0  0  0
  5 32  1  0  0  0  0
  6  7  1  0  0  0  0
  6  8  1  0  0  0  0
  7 35  1  0  0  0  0
  8  9  1  0  0  0  0
  8 21  1  0  0  0  0
  8 36  1  0  0  0  0
  9 10  2  0  0  0  0
  9 11  1  0  0  0  0
 11 12  1  0  0  0  0
 11 37  1  0  0  0  0
 12 13  1  0  0  0  0
 12 20  2  0  0  0  0
 13 14  2  0  0  0  0
 13 38  1  0  0  0  0
 14 15  1  0  0  0  0
 15 16  2  0  0  0  0
 15 39  1  0  0  0  0
 16 17  1  0  0  0  0
 16 20  1  0  0  0  0
 17 18  2  0  0  0  0
 17 40  1  0  0  0  0
 18 19  1  0  0  0  0
 19 20  1  0  0  0  0
 19 41  1  0  0  0  0
 21 22  1  0  0  0  0
 21 42  1  0  0  0  0
 21 43  1  0  0  0  0
 22 23  1  0  0  0  0
 22 32  1  0  0  0  0
 23 24  2  0  0  0  0
 23 25  2  0  0  0  0
 23 26  1  0  0  0  0
 26 27  1  0  0  0  0
 26 44  1  0  0  0  0
 26 45  1  0  0  0  0
 27 28  1  0  0  0  0
 27 30  1  0  0  0  0
 27 31  1  0  0  0  0
 28 29  3  0  0  0  0
 30 31  1  0  0  0  0
 30 46  1  0  0  0  0
 30 47  1  0  0  0  0
 31 48  1  0  0  0  0
 31 49  1  0  0  0  0
 32 50  1  0  0  0  0
 32 51  1  0  0  0  0
M  END
$$$$
