
 OpenBabel07202414193D

 40 43  0  0  1  0  0  0  0  0999 V2000
    1.2707   -0.0002   -0.6755 O   0  0  0  0  0  0  0  0  0  0  0  0
    2.4158   -0.0139   -0.2578 C   0  0  0  0  0  0  0  0  0  0  0  0
    3.0245   -1.2093    0.4854 C   0  0  0  0  0  0  0  0  0  0  0  0
    3.1308   -2.4725   -0.3313 C   0  0  0  0  0  0  0  0  0  0  0  0
    1.9459   -3.0573   -0.7778 C   0  0  0  0  0  0  0  0  0  0  0  0
    1.8720   -4.2195   -1.4530 N   0  0  0  0  0  0  0  0  0  0  0  0
    3.0356   -4.8608   -1.6778 C   0  0  0  0  0  0  0  0  0  0  0  0
    4.2911   -4.3950   -1.2788 C   0  0  0  0  0  0  0  0  0  0  0  0
    5.4549   -5.1444   -1.5229 C   0  0  0  0  0  0  0  0  0  0  0  0
    6.7020   -4.6724   -1.1226 C   0  0  0  0  0  0  0  0  0  0  0  0
    6.7996   -3.4304   -0.5126 C   0  0  0  0  0  0  0  0  0  0  0  0
    5.6456   -2.6779   -0.2731 C   0  0  0  0  0  0  0  0  0  0  0  0
    4.3528   -3.1479   -0.6118 C   0  0  0  0  0  0  0  0  0  0  0  0
    3.2892    1.0663   -0.3868 N   0  0  0  0  0  0  0  0  0  0  0  0
    2.8449    2.3093   -0.9870 C   0  0  0  0  0  0  0  0  0  0  0  0
    3.8016    2.5107   -2.1521 C   0  0  0  0  0  0  0  0  0  0  0  0
    5.1234    1.9351   -1.6381 C   0  0  1  0  0  0  0  0  0  0  0  0
    5.9181    2.9223   -0.8724 C   0  0  0  0  0  0  0  0  0  0  0  0
    5.6396    4.1830   -0.5992 N   0  0  0  0  0  0  0  0  0  0  0  0
    6.7103    4.6086    0.1322 C   0  0  0  0  0  0  0  0  0  0  0  0
    7.6111    3.5837    0.2830 C   0  0  0  0  0  0  0  0  0  0  0  0
    7.1136    2.4907   -0.3630 O   0  0  0  0  0  0  0  0  0  0  0  0
    4.6728    0.7907   -0.7458 C   0  0  0  0  0  0  0  0  0  0  0  0
    2.4278   -1.3844    1.3837 H   0  0  0  0  0  0  0  0  0  0  0  0
    4.0004   -0.9164    0.8714 H   0  0  0  0  0  0  0  0  0  0  0  0
    0.9832   -2.5838   -0.5960 H   0  0  0  0  0  0  0  0  0  0  0  0
    2.9287   -5.7991   -2.2114 H   0  0  0  0  0  0  0  0  0  0  0  0
    5.3938   -6.1111   -2.0175 H   0  0  0  0  0  0  0  0  0  0  0  0
    7.5932   -5.2724   -1.2865 H   0  0  0  0  0  0  0  0  0  0  0  0
    7.7696   -3.0457   -0.2088 H   0  0  0  0  0  0  0  0  0  0  0  0
    5.7895   -1.7071    0.1887 H   0  0  0  0  0  0  0  0  0  0  0  0
    2.9608    3.1082   -0.2433 H   0  0  0  0  0  0  0  0  0  0  0  0
    1.7987    2.2754   -1.3010 H   0  0  0  0  0  0  0  0  0  0  0  0
    3.8633    3.5577   -2.4581 H   0  0  0  0  0  0  0  0  0  0  0  0
    3.4538    1.9235   -3.0114 H   0  0  0  0  0  0  0  0  0  0  0  0
    5.7338    1.5523   -2.4637 H   0  0  0  0  0  0  0  0  0  0  0  0
    6.7758    5.6193    0.5088 H   0  0  0  0  0  0  0  0  0  0  0  0
    8.5625    3.4712    0.7711 H   0  0  0  0  0  0  0  0  0  0  0  0
    5.2762    0.6531    0.1592 H   0  0  0  0  0  0  0  0  0  0  0  0
    4.6770   -0.1423   -1.3180 H   0  0  0  0  0  0  0  0  0  0  0  0
  1  2  2  0  0  0  0
  2  3  1  0  0  0  0
  2 14  1  0  0  0  0
  3  4  1  0  0  0  0
  3 24  1  0  0  0  0
  3 25  1  0  0  0  0
  4  5  1  0  0  0  0
  4 13  2  0  0  0  0
  5  6  2  0  0  0  0
  5 26  1  0  0  0  0
  6  7  1  0  0  0  0
  7  8  2  0  0  0  0
  7 27  1  0  0  0  0
  8  9  1  0  0  0  0
  8 13  1  0  0  0  0
  9 10  2  0  0  0  0
  9 28  1  0  0  0  0
 10 11  1  0  0  0  0
 10 29  1  0  0  0  0
 11 12  2  0  0  0  0
 11 30  1  0  0  0  0
 12 13  1  0  0  0  0
 12 31  1  0  0  0  0
 14 15  1  0  0  0  0
 14 23  1  0  0  0  0
 15 16  1  0  0  0  0
 15 32  1  0  0  0  0
 15 33  1  0  0  0  0
 16 17  1  0  0  0  0
 16 34  1  0  0  0  0
 16 35  1  0  0  0  0
 17 18  1  0  0  0  0
 17 23  1  0  0  0  0
 17 36  1  6  0  0  0
 18 19  2  0  0  0  0
 18 22  1  0  0  0  0
 19 20  1  0  0  0  0
 20 21  2  0  0  0  0
 20 37  1  0  0  0  0
 21 22  1  0  0  0  0
 21 38  1  0  0  0  0
 23 39  1  0  0  0  0
 23 40  1  0  0  0  0
M  END
$$$$
