
 OpenBabel07202414123D

 69 72  0  0  1  0  0  0  0  0999 V2000
    2.4892    2.1511    3.0704 C   0  0  0  0  0  0  0  0  0  0  0  0
    2.0280    1.1872    1.9774 C   0  0  0  0  0  0  0  0  0  0  0  0
    0.7047    1.7044    1.3805 C   0  0  0  0  0  0  0  0  0  0  0  0
    3.0526    1.0047    0.8390 C   0  0  0  0  0  0  0  0  0  0  0  0
    4.5294    0.6447    1.1678 C   0  0  2  0  0  0  0  0  0  0  0  0
    5.3190    0.6921   -0.1837 C   0  0  0  0  0  0  0  0  0  0  0  0
    6.7590    0.5380    0.0093 N   0  0  0  0  0  0  0  0  0  0  0  0
    7.6265    1.2767   -0.7858 C   0  0  0  0  0  0  0  0  0  0  0  0
    7.2196    2.0064   -1.6934 O   0  0  0  0  0  0  0  0  0  0  0  0
    9.1227    1.2281   -0.4796 C   0  0  0  0  0  0  0  0  0  0  0  0
    9.7709    0.1830   -1.1744 O   0  0  0  0  0  0  0  0  0  0  0  0
   11.3855    0.1173   -1.0200 S   0  0  0  0  0  0  0  0  0  0  0  0
   11.9196    1.3935   -1.4286 O   0  0  0  0  0  0  0  0  0  0  0  0
   11.6581   -0.4162    0.2982 O   0  0  0  0  0  0  0  0  0  0  0  0
   11.8816   -1.0280   -2.1576 N   0  0  0  0  0  0  0  0  0  0  0  0
   11.5853   -0.7271   -3.5867 C   0  0  0  0  0  0  0  0  0  0  0  0
   10.1718   -1.1918   -3.9648 C   0  0  0  0  0  0  0  0  0  0  0  0
    9.9578   -2.5759   -3.6424 O   0  0  0  0  0  0  0  0  0  0  0  0
   10.1905   -2.8367   -2.2503 C   0  0  0  0  0  0  0  0  0  0  0  0
   11.6188   -2.4586   -1.8565 C   0  0  0  0  0  0  0  0  0  0  0  0
    7.1255   -0.6256    0.8125 C   0  0  0  0  0  0  0  0  0  0  0  0
    6.3238   -0.6728    2.1334 C   0  0  0  0  0  0  0  0  0  0  0  0
    4.8425   -0.5563    2.0053 N   0  0  0  0  0  0  0  0  0  0  0  0
    4.2352   -1.8405    1.5882 C   0  0  0  0  0  0  0  0  0  0  0  0
    4.3578   -2.9625    2.6407 C   0  0  0  0  0  0  0  0  0  0  0  0
    3.9135   -2.6729    3.9472 C   0  0  0  0  0  0  0  0  0  0  0  0
    3.9350   -3.6376    4.9522 C   0  0  0  0  0  0  0  0  0  0  0  0
    3.4452   -3.2323    6.5561 Cl  0  0  0  0  0  0  0  0  0  0  0  0
    4.3580   -4.9294    4.6809 C   0  0  0  0  0  0  0  0  0  0  0  0
    4.8116   -5.2669    3.4053 C   0  0  0  0  0  0  0  0  0  0  0  0
    5.2435   -6.5871    3.1744 C   0  0  0  0  0  0  0  0  0  0  0  0
    5.7594   -6.9665    1.9423 C   0  0  0  0  0  0  0  0  0  0  0  0
    5.8485   -6.0272    0.9273 C   0  0  0  0  0  0  0  0  0  0  0  0
    5.3878   -4.7157    1.1304 C   0  0  0  0  0  0  0  0  0  0  0  0
    4.8538   -4.2893    2.3628 C   0  0  0  0  0  0  0  0  0  0  0  0
    1.6482    2.4541    3.7064 H   0  0  0  0  0  0  0  0  0  0  0  0
    2.9300    3.0613    2.6511 H   0  0  0  0  0  0  0  0  0  0  0  0
    3.2286    1.6739    3.7199 H   0  0  0  0  0  0  0  0  0  0  0  0
    1.8267    0.2146    2.4390 H   0  0  0  0  0  0  0  0  0  0  0  0
    0.8566    2.6196    0.7953 H   0  0  0  0  0  0  0  0  0  0  0  0
   -0.0259    1.9332    2.1643 H   0  0  0  0  0  0  0  0  0  0  0  0
    0.2561    0.9552    0.7198 H   0  0  0  0  0  0  0  0  0  0  0  0
    3.0862    1.9653    0.3000 H   0  0  0  0  0  0  0  0  0  0  0  0
    2.6534    0.2828    0.1154 H   0  0  0  0  0  0  0  0  0  0  0  0
    4.9040    1.4932    1.7592 H   0  0  0  0  0  0  0  0  0  0  0  0
    5.1174    1.6457   -0.6864 H   0  0  0  0  0  0  0  0  0  0  0  0
    4.9863   -0.1070   -0.8573 H   0  0  0  0  0  0  0  0  0  0  0  0
    9.2858    1.1375    0.5992 H   0  0  0  0  0  0  0  0  0  0  0  0
    9.5375    2.1953   -0.7839 H   0  0  0  0  0  0  0  0  0  0  0  0
   12.3221   -1.2708   -4.1926 H   0  0  0  0  0  0  0  0  0  0  0  0
   11.7215    0.3360   -3.8063 H   0  0  0  0  0  0  0  0  0  0  0  0
   10.0281   -1.0822   -5.0444 H   0  0  0  0  0  0  0  0  0  0  0  0
    9.3989   -0.5913   -3.4760 H   0  0  0  0  0  0  0  0  0  0  0  0
   10.0345   -3.9073   -2.0854 H   0  0  0  0  0  0  0  0  0  0  0  0
    9.4461   -2.3015   -1.6520 H   0  0  0  0  0  0  0  0  0  0  0  0
   12.3299   -3.0518   -2.4458 H   0  0  0  0  0  0  0  0  0  0  0  0
   11.8186   -2.6890   -0.8058 H   0  0  0  0  0  0  0  0  0  0  0  0
    8.1961   -0.6418    1.0231 H   0  0  0  0  0  0  0  0  0  0  0  0
    6.9108   -1.5103    0.2002 H   0  0  0  0  0  0  0  0  0  0  0  0
    6.6583    0.1662    2.7583 H   0  0  0  0  0  0  0  0  0  0  0  0
    6.6068   -1.5738    2.6887 H   0  0  0  0  0  0  0  0  0  0  0  0
    4.6294   -2.1508    0.6174 H   0  0  0  0  0  0  0  0  0  0  0  0
    3.1558   -1.7030    1.4454 H   0  0  0  0  0  0  0  0  0  0  0  0
    3.5546   -1.6724    4.1857 H   0  0  0  0  0  0  0  0  0  0  0  0
    4.3499   -5.6767    5.4773 H   0  0  0  0  0  0  0  0  0  0  0  0
    5.1812   -7.3365    3.9631 H   0  0  0  0  0  0  0  0  0  0  0  0
    6.0964   -7.9871    1.7829 H   0  0  0  0  0  0  0  0  0  0  0  0
    6.2698   -6.3136   -0.0343 H   0  0  0  0  0  0  0  0  0  0  0  0
    5.4879   -4.0297    0.2943 H   0  0  0  0  0  0  0  0  0  0  0  0
  1  2  1  0  0  0  0
  1 36  1  0  0  0  0
  1 37  1  0  0  0  0
  1 38  1  0  0  0  0
  2  3  1  0  0  0  0
  2  4  1  0  0  0  0
  2 39  1  0  0  0  0
  3 40  1  0  0  0  0
  3 41  1  0  0  0  0
  3 42  1  0  0  0  0
  4  5  1  0  0  0  0
  4 43  1  0  0  0  0
  4 44  1  0  0  0  0
  5  6  1  0  0  0  0
  5 23  1  0  0  0  0
  5 45  1  1  0  0  0
  6  7  1  0  0  0  0
  6 46  1  0  0  0  0
  6 47  1  0  0  0  0
  7  8  1  0  0  0  0
  7 21  1  0  0  0  0
  8  9  2  0  0  0  0
  8 10  1  0  0  0  0
 10 11  1  0  0  0  0
 10 48  1  0  0  0  0
 10 49  1  0  0  0  0
 11 12  1  0  0  0  0
 12 13  2  0  0  0  0
 12 14  2  0  0  0  0
 12 15  1  0  0  0  0
 15 16  1  0  0  0  0
 15 20  1  0  0  0  0
 16 17  1  0  0  0  0
 16 50  1  0  0  0  0
 16 51  1  0  0  0  0
 17 18  1  0  0  0  0
 17 52  1  0  0  0  0
 17 53  1  0  0  0  0
 18 19  1  0  0  0  0
 19 20  1  0  0  0  0
 19 54  1  0  0  0  0
 19 55  1  0  0  0  0
 20 56  1  0  0  0  0
 20 57  1  0  0  0  0
 21 22  1  0  0  0  0
 21 58  1  0  0  0  0
 21 59  1  0  0  0  0
 22 23  1  0  0  0  0
 22 60  1  0  0  0  0
 22 61  1  0  0  0  0
 23 24  1  0  0  0  0
 24 25  1  0  0  0  0
 24 62  1  0  0  0  0
 24 63  1  0  0  0  0
 25 26  1  0  0  0  0
 25 35  2  0  0  0  0
 26 27  2  0  0  0  0
 26 64  1  0  0  0  0
 27 28  1  0  0  0  0
 27 29  1  0  0  0  0
 29 30  2  0  0  0  0
 29 65  1  0  0  0  0
 30 31  1  0  0  0  0
 30 35  1  0  0  0  0
 31 32  2  0  0  0  0
 31 66  1  0  0  0  0
 32 33  1  0  0  0  0
 32 67  1  0  0  0  0
 33 34  2  0  0  0  0
 33 68  1  0  0  0  0
 34 35  1  0  0  0  0
 34 69  1  0  0  0  0
M  END
$$$$
