
 OpenBabel07202414173D

 66 71  0  0  1  0  0  0  0  0999 V2000
    1.0578    0.1481   -0.0400 Cl  0  0  0  0  0  0  0  0  0  0  0  0
    2.7726    0.0014    0.0249 C   0  0  0  0  0  0  0  0  0  0  0  0
    3.5667    1.1312   -0.1193 C   0  0  0  0  0  0  0  0  0  0  0  0
    4.9520    0.9925   -0.0841 C   0  0  0  0  0  0  0  0  0  0  0  0
    5.5361   -0.2682    0.0895 C   0  0  0  0  0  0  0  0  0  0  0  0
    4.7507   -1.4256    0.2113 C   0  0  0  0  0  0  0  0  0  0  0  0
    3.3502   -1.2597    0.1984 C   0  0  0  0  0  0  0  0  0  0  0  0
    5.3957   -2.8240    0.3343 C   0  0  3  0  0  0  0  0  0  0  0  0
    4.8309   -3.7481   -0.7953 C   0  0  0  0  0  0  0  0  0  0  0  0
    5.3087   -5.1990   -0.7977 C   0  0  0  0  0  0  0  0  0  0  0  0
    6.1158   -5.6207    0.0255 O   0  0  0  0  0  0  0  0  0  0  0  0
    4.7559   -6.0329   -1.7556 N   0  0  0  0  0  0  0  0  0  0  0  0
    3.7354   -5.6930   -2.7359 C   0  0  0  0  0  0  0  0  0  0  0  0
    2.8786   -6.9435   -2.7949 C   0  0  0  0  0  0  0  0  0  0  0  0
    3.8996   -8.0656   -2.6610 C   0  0  0  0  0  0  0  0  0  0  0  0
    4.9967   -7.4900   -1.7429 C   0  0  3  0  0  0  0  0  0  0  0  0
    6.4069   -7.8868   -2.2210 C   0  0  0  0  0  0  0  0  0  0  0  0
    6.6259   -9.3225   -2.2582 N   0  0  0  0  0  0  0  0  0  0  0  0
    6.8399  -10.0858   -3.3734 C   0  0  0  0  0  0  0  0  0  0  0  0
    6.9902  -11.3698   -2.9057 C   0  0  0  0  0  0  0  0  0  0  0  0
    6.8777  -11.3977   -1.5369 N   0  0  0  0  0  0  0  0  0  0  0  0
    6.6747  -10.1539   -1.1757 C   0  0  0  0  0  0  0  0  0  0  0  0
    5.1597   -3.3761    1.7872 C   0  0  0  0  0  0  0  0  0  0  0  0
    5.9434   -3.1203    2.6991 O   0  0  0  0  0  0  0  0  0  0  0  0
    3.9642   -4.0616    1.9756 N   0  0  0  0  0  0  0  0  0  0  0  0
    3.5314   -4.7713    3.1322 C   0  0  0  0  0  0  0  0  0  0  0  0
    4.2559   -4.8079    4.3236 C   0  0  0  0  0  0  0  0  0  0  0  0
    3.9606   -5.6092    5.3759 N   0  0  0  0  0  0  0  0  0  0  0  0
    2.8684   -6.3894    5.2551 C   0  0  0  0  0  0  0  0  0  0  0  0
    1.9970   -6.3643    4.1687 C   0  0  0  0  0  0  0  0  0  0  0  0
    0.8173   -7.1327    4.1713 C   0  0  0  0  0  0  0  0  0  0  0  0
   -0.0696   -7.0808    3.0998 C   0  0  0  0  0  0  0  0  0  0  0  0
    0.2251   -6.2807    2.0056 C   0  0  0  0  0  0  0  0  0  0  0  0
    1.4020   -5.5249    1.9875 C   0  0  0  0  0  0  0  0  0  0  0  0
    2.3239   -5.5346    3.0696 C   0  0  0  0  0  0  0  0  0  0  0  0
    6.9273   -2.6897    0.1051 C   0  0  0  0  0  0  0  0  0  0  0  0
    7.4894   -1.4076    0.6920 C   0  0  0  0  0  0  0  0  0  0  0  0
    6.9022   -0.2660    0.0752 O   0  0  0  0  0  0  0  0  0  0  0  0
    3.1229    2.1143   -0.2553 H   0  0  0  0  0  0  0  0  0  0  0  0
    5.5852    1.8702   -0.1878 H   0  0  0  0  0  0  0  0  0  0  0  0
    2.6844   -2.1087    0.3156 H   0  0  0  0  0  0  0  0  0  0  0  0
    5.0739   -3.3165   -1.7756 H   0  0  0  0  0  0  0  0  0  0  0  0
    3.7388   -3.7793   -0.7356 H   0  0  0  0  0  0  0  0  0  0  0  0
    4.2449   -5.5190   -3.6905 H   0  0  0  0  0  0  0  0  0  0  0  0
    3.1556   -4.8066   -2.4773 H   0  0  0  0  0  0  0  0  0  0  0  0
    2.2949   -7.0120   -3.7168 H   0  0  0  0  0  0  0  0  0  0  0  0
    2.1867   -6.9673   -1.9445 H   0  0  0  0  0  0  0  0  0  0  0  0
    4.2922   -8.3155   -3.6534 H   0  0  0  0  0  0  0  0  0  0  0  0
    3.4546   -8.9736   -2.2408 H   0  0  0  0  0  0  0  0  0  0  0  0
    4.8391   -7.8368   -0.7138 H   0  0  0  0  0  0  0  0  0  0  0  0
    7.1849   -7.4656   -1.5745 H   0  0  0  0  0  0  0  0  0  0  0  0
    6.5878   -7.4998   -3.2316 H   0  0  0  0  0  0  0  0  0  0  0  0
    6.8722   -9.6762   -4.3745 H   0  0  0  0  0  0  0  0  0  0  0  0
    7.1829  -12.2724   -3.4696 H   0  0  0  0  0  0  0  0  0  0  0  0
    6.5591   -9.8038   -0.1590 H   0  0  0  0  0  0  0  0  0  0  0  0
    3.3977   -4.2177    1.1632 H   0  0  0  0  0  0  0  0  0  0  0  0
    5.1301   -4.1896    4.4961 H   0  0  0  0  0  0  0  0  0  0  0  0
    2.7008   -7.0561    6.0980 H   0  0  0  0  0  0  0  0  0  0  0  0
    0.5693   -7.7597    5.0261 H   0  0  0  0  0  0  0  0  0  0  0  0
   -0.9932   -7.6536    3.1264 H   0  0  0  0  0  0  0  0  0  0  0  0
   -0.4673   -6.2301    1.1688 H   0  0  0  0  0  0  0  0  0  0  0  0
    1.5575   -4.8975    1.1163 H   0  0  0  0  0  0  0  0  0  0  0  0
    7.1339   -2.6740   -0.9738 H   0  0  0  0  0  0  0  0  0  0  0  0
    7.4711   -3.5435    0.5242 H   0  0  0  0  0  0  0  0  0  0  0  0
    8.5635   -1.3605    0.4787 H   0  0  0  0  0  0  0  0  0  0  0  0
    7.3819   -1.3359    1.7790 H   0  0  0  0  0  0  0  0  0  0  0  0
  1  2  1  0  0  0  0
  2  3  1  0  0  0  0
  2  7  2  0  0  0  0
  3  4  2  0  0  0  0
  3 39  1  0  0  0  0
  4  5  1  0  0  0  0
  4 40  1  0  0  0  0
  5  6  2  0  0  0  0
  5 38  1  0  0  0  0
  6  7  1  0  0  0  0
  6  8  1  0  0  0  0
  7 41  1  0  0  0  0
  8  9  1  0  0  0  0
  8 23  1  0  0  0  0
  8 36  1  0  0  0  0
  9 10  1  0  0  0  0
  9 42  1  0  0  0  0
  9 43  1  0  0  0  0
 10 11  2  0  0  0  0
 10 12  1  0  0  0  0
 12 13  1  0  0  0  0
 12 16  1  0  0  0  0
 13 14  1  0  0  0  0
 13 44  1  0  0  0  0
 13 45  1  0  0  0  0
 14 15  1  0  0  0  0
 14 46  1  0  0  0  0
 14 47  1  0  0  0  0
 15 16  1  0  0  0  0
 15 48  1  0  0  0  0
 15 49  1  0  0  0  0
 16 17  1  0  0  0  0
 16 50  1  0  0  0  0
 17 18  1  0  0  0  0
 17 51  1  0  0  0  0
 17 52  1  0  0  0  0
 18 19  1  0  0  0  0
 18 22  1  0  0  0  0
 19 20  2  0  0  0  0
 19 53  1  0  0  0  0
 20 21  1  0  0  0  0
 20 54  1  0  0  0  0
 21 22  2  0  0  0  0
 22 55  1  0  0  0  0
 23 24  2  0  0  0  0
 23 25  1  0  0  0  0
 25 26  1  0  0  0  0
 25 56  1  0  0  0  0
 26 27  1  0  0  0  0
 26 35  2  0  0  0  0
 27 28  2  0  0  0  0
 27 57  1  0  0  0  0
 28 29  1  0  0  0  0
 29 30  2  0  0  0  0
 29 58  1  0  0  0  0
 30 31  1  0  0  0  0
 30 35  1  0  0  0  0
 31 32  2  0  0  0  0
 31 59  1  0  0  0  0
 32 33  1  0  0  0  0
 32 60  1  0  0  0  0
 33 34  2  0  0  0  0
 33 61  1  0  0  0  0
 34 35  1  0  0  0  0
 34 62  1  0  0  0  0
 36 37  1  0  0  0  0
 36 63  1  0  0  0  0
 36 64  1  0  0  0  0
 37 38  1  0  0  0  0
 37 65  1  0  0  0  0
 37 66  1  0  0  0  0
M  END
$$$$
