
 OpenBabel07202414163D

 45 48  0  0  0  0  0  0  0  0999 V2000
    0.8730   -1.6877    2.6167 Cl  0  0  0  0  0  0  0  0  0  0  0  0
    0.8688   -0.7353    1.1824 C   0  0  0  0  0  0  0  0  0  0  0  0
    1.5830    0.4632    1.1494 C   0  0  0  0  0  0  0  0  0  0  0  0
    1.5765    1.2461   -0.0098 C   0  0  0  0  0  0  0  0  0  0  0  0
    2.3109    2.5658   -0.0753 C   0  0  0  0  0  0  0  0  0  0  0  0
    1.4401    3.7536   -0.4282 C   0  0  0  0  0  0  0  0  0  0  0  0
    1.8617    4.6376   -1.1803 O   0  0  0  0  0  0  0  0  0  0  0  0
    0.2263    3.8172    0.2277 N   0  0  0  0  0  0  0  0  0  0  0  0
   -0.6946    4.8720    0.0221 C   0  0  0  0  0  0  0  0  0  0  0  0
   -1.0164    5.3040   -1.2663 C   0  0  0  0  0  0  0  0  0  0  0  0
   -1.9217    6.2683   -1.5447 N   0  0  0  0  0  0  0  0  0  0  0  0
   -2.5085    6.8615   -0.4816 C   0  0  0  0  0  0  0  0  0  0  0  0
   -2.2548    6.5329    0.8519 C   0  0  0  0  0  0  0  0  0  0  0  0
   -2.8753    7.2188    1.9116 C   0  0  0  0  0  0  0  0  0  0  0  0
   -2.5747    6.9041    3.2358 C   0  0  0  0  0  0  0  0  0  0  0  0
   -1.6522    5.9050    3.5167 C   0  0  0  0  0  0  0  0  0  0  0  0
   -1.0352    5.2119    2.4739 C   0  0  0  0  0  0  0  0  0  0  0  0
   -1.3266    5.5029    1.1191 C   0  0  0  0  0  0  0  0  0  0  0  0
    0.8858    0.7799   -1.1386 C   0  0  0  0  0  0  0  0  0  0  0  0
    0.1750   -0.4263   -1.1150 C   0  0  0  0  0  0  0  0  0  0  0  0
   -0.4978   -0.9083   -2.2518 N   0  0  0  0  0  0  0  0  0  0  0  0
   -0.1182   -0.8300   -3.6018 C   0  0  0  0  0  0  0  0  0  0  0  0
   -1.0831   -0.8159   -4.6066 C   0  0  0  0  0  0  0  0  0  0  0  0
   -0.6700   -0.7436   -5.9326 C   0  0  0  0  0  0  0  0  0  0  0  0
   -1.9875   -0.7382   -7.2941 Br  0  0  0  0  0  0  0  0  0  0  0  0
    0.6204   -0.6830   -6.3139 N   0  0  0  0  0  0  0  0  0  0  0  0
    1.5435   -0.6942   -5.3339 C   0  0  0  0  0  0  0  0  0  0  0  0
    1.2267   -0.7650   -3.9874 C   0  0  0  0  0  0  0  0  0  0  0  0
    0.1573   -1.1736    0.0657 C   0  0  0  0  0  0  0  0  0  0  0  0
    2.1452    0.7770    2.0264 H   0  0  0  0  0  0  0  0  0  0  0  0
    3.0925    2.4757   -0.8394 H   0  0  0  0  0  0  0  0  0  0  0  0
    2.8133    2.7815    0.8776 H   0  0  0  0  0  0  0  0  0  0  0  0
    0.1378    3.2767    1.0773 H   0  0  0  0  0  0  0  0  0  0  0  0
   -0.5724    4.8408   -2.1441 H   0  0  0  0  0  0  0  0  0  0  0  0
   -3.2083    7.6504   -0.7445 H   0  0  0  0  0  0  0  0  0  0  0  0
   -3.5856    8.0184    1.7095 H   0  0  0  0  0  0  0  0  0  0  0  0
   -3.0509    7.4492    4.0468 H   0  0  0  0  0  0  0  0  0  0  0  0
   -1.3940    5.6743    4.5478 H   0  0  0  0  0  0  0  0  0  0  0  0
   -0.2917    4.4672    2.7411 H   0  0  0  0  0  0  0  0  0  0  0  0
    0.8799    1.3811   -2.0470 H   0  0  0  0  0  0  0  0  0  0  0  0
   -1.4754   -1.1235   -2.0817 H   0  0  0  0  0  0  0  0  0  0  0  0
   -2.1401   -0.8527   -4.3626 H   0  0  0  0  0  0  0  0  0  0  0  0
    2.5787   -0.6519   -5.6631 H   0  0  0  0  0  0  0  0  0  0  0  0
    2.0255   -0.7962   -3.2539 H   0  0  0  0  0  0  0  0  0  0  0  0
   -0.3797   -2.1179    0.1023 H   0  0  0  0  0  0  0  0  0  0  0  0
  1  2  1  0  0  0  0
  2  3  2  0  0  0  0
  2 29  1  0  0  0  0
  3  4  1  0  0  0  0
  3 30  1  0  0  0  0
  4  5  1  0  0  0  0
  4 19  2  0  0  0  0
  5  6  1  0  0  0  0
  5 31  1  0  0  0  0
  5 32  1  0  0  0  0
  6  7  2  0  0  0  0
  6  8  1  0  0  0  0
  8  9  1  0  0  0  0
  8 33  1  0  0  0  0
  9 10  2  0  0  0  0
  9 18  1  0  0  0  0
 10 11  1  0  0  0  0
 10 34  1  0  0  0  0
 11 12  2  0  0  0  0
 12 13  1  0  0  0  0
 12 35  1  0  0  0  0
 13 14  2  0  0  0  0
 13 18  1  0  0  0  0
 14 15  1  0  0  0  0
 14 36  1  0  0  0  0
 15 16  2  0  0  0  0
 15 37  1  0  0  0  0
 16 17  1  0  0  0  0
 16 38  1  0  0  0  0
 17 18  2  0  0  0  0
 17 39  1  0  0  0  0
 19 20  1  0  0  0  0
 19 40  1  0  0  0  0
 20 21  1  0  0  0  0
 20 29  2  0  0  0  0
 21 22  1  0  0  0  0
 21 41  1  0  0  0  0
 22 23  2  0  0  0  0
 22 28  1  0  0  0  0
 23 24  1  0  0  0  0
 23 42  1  0  0  0  0
 24 25  1  0  0  0  0
 24 26  2  0  0  0  0
 26 27  1  0  0  0  0
 27 28  2  0  0  0  0
 27 43  1  0  0  0  0
 28 44  1  0  0  0  0
 29 45  1  0  0  0  0
M  END
$$$$
