
 OpenBabel07202414113D

 24 24  0  0  1  0  0  0  0  0999 V2000
    0.2149    0.9158    2.2447 C   0  0  0  0  0  0  0  0  0  0  0  0
    0.5363   -0.3821    1.4872 C   0  0  2  0  0  0  0  0  0  0  0  0
   -0.7260   -1.2806    1.4010 C   0  0  2  0  0  0  0  0  0  0  0  0
   -0.3732   -2.6165    0.7212 C   0  0  1  0  0  0  0  0  0  0  0  0
    0.8243   -3.2476    1.4554 C   0  0  2  0  0  0  0  0  0  0  0  0
    1.9973   -2.2438    1.5245 C   0  0  2  0  0  0  0  0  0  0  0  0
    1.5932   -1.0450    2.1741 O   0  0  0  0  0  0  0  0  0  0  0  0
    2.7669   -1.9149   -0.1104 S   0  0  0  0  0  0  0  0  0  0  0  0
    4.2593   -0.3958    0.7804 Au  0  0  0  0  0  0  0  0  0  0  0  0
    1.2210   -4.4677    0.8786 O   0  0  0  0  0  0  0  0  0  0  0  0
   -1.4779   -3.4867    0.7056 O   0  0  0  0  0  0  0  0  0  0  0  0
   -1.7736   -0.6366    0.7183 O   0  0  0  0  0  0  0  0  0  0  0  0
    1.3635    1.7080    2.3852 O   0  0  0  0  0  0  0  0  0  0  0  0
   -0.5834    1.4968    1.7304 H   0  0  0  0  0  0  0  0  0  0  0  0
   -0.1567    0.6672    3.2622 H   0  0  0  0  0  0  0  0  0  0  0  0
    0.8669   -0.0872    0.4668 H   0  0  0  0  0  0  0  0  0  0  0  0
   -1.0675   -1.4945    2.4378 H   0  0  0  0  0  0  0  0  0  0  0  0
   -0.0828   -2.4133   -0.3327 H   0  0  0  0  0  0  0  0  0  0  0  0
    0.5098   -3.4599    2.5026 H   0  0  0  0  0  0  0  0  0  0  0  0
    2.7879   -2.7200    2.1424 H   0  0  0  0  0  0  0  0  0  0  0  0
    1.2877   -4.3384   -0.1029 H   0  0  0  0  0  0  0  0  0  0  0  0
   -1.7300   -3.6726    1.6479 H   0  0  0  0  0  0  0  0  0  0  0  0
   -1.4496   -0.4253   -0.1966 H   0  0  0  0  0  0  0  0  0  0  0  0
    1.6296    1.9935    1.4728 H   0  0  0  0  0  0  0  0  0  0  0  0
  1 13  1  0  0  0  0
  1 14  1  0  0  0  0
  1 15  1  0  0  0  0
  2  3  1  0  0  0  0
  2  7  1  0  0  0  0
  2  1  1  0  0  0  0
  2 16  1  6  0  0  0
  3  4  1  0  0  0  0
  3 12  1  0  0  0  0
  3 17  1  1  0  0  0
  4  5  1  0  0  0  0
  4 11  1  0  0  0  0
  4 18  1  6  0  0  0
  5  6  1  0  0  0  0
  5 10  1  0  0  0  0
  5 19  1  1  0  0  0
  6  7  1  0  0  0  0
  6  8  1  0  0  0  0
  6 20  1  1  0  0  0
  8  9  1  0  0  0  0
 10 21  1  0  0  0  0
 11 22  1  0  0  0  0
 12 23  1  0  0  0  0
 13 24  1  0  0  0  0
M  END
$$$$
