
 OpenBabel07202414183D

 43 46  0  0  0  0  0  0  0  0999 V2000
   -2.0881   -0.0877   -0.0599 Cl  0  0  0  0  0  0  0  0  0  0  0  0
   -0.3686   -0.0325   -0.1068 C   0  0  0  0  0  0  0  0  0  0  0  0
    0.2792    1.2019   -0.0540 C   0  0  0  0  0  0  0  0  0  0  0  0
    1.6707    1.2511   -0.0314 C   0  0  0  0  0  0  0  0  0  0  0  0
    2.4008    0.0631   -0.0381 C   0  0  0  0  0  0  0  0  0  0  0  0
    1.7546   -1.1731   -0.1098 C   0  0  0  0  0  0  0  0  0  0  0  0
    2.5265   -2.3605   -0.0681 N   0  0  0  0  0  0  0  0  0  0  0  0
    2.2590   -3.4178   -1.0418 C   0  0  0  0  0  0  0  0  0  0  0  0
    3.5128   -4.2632   -1.2867 C   0  0  0  0  0  0  0  0  0  0  0  0
    3.9346   -4.8739   -0.0266 N   0  0  0  0  0  0  0  0  0  0  0  0
    4.2624   -6.2285   -0.0089 C   0  0  0  0  0  0  0  0  0  0  0  0
    4.2265   -6.8873   -1.0501 O   0  0  0  0  0  0  0  0  0  0  0  0
    4.5790   -6.9329    1.2946 C   0  0  0  0  0  0  0  0  0  0  0  0
    5.3959   -6.3437    2.1855 C   0  0  0  0  0  0  0  0  0  0  0  0
    5.6304   -6.8846    3.5379 C   0  0  0  0  0  0  0  0  0  0  0  0
    6.2307   -6.2228    4.3762 O   0  0  0  0  0  0  0  0  0  0  0  0
    5.1342   -8.1215    3.7980 N   0  0  0  0  0  0  0  0  0  0  0  0
    4.4449   -8.8836    2.8526 C   0  0  0  0  0  0  0  0  0  0  0  0
    4.0994  -10.1960    3.1900 C   0  0  0  0  0  0  0  0  0  0  0  0
    3.4635  -11.0038    2.2539 C   0  0  0  0  0  0  0  0  0  0  0  0
    3.1556  -10.4853    0.9985 C   0  0  0  0  0  0  0  0  0  0  0  0
    3.4794   -9.1601    0.6769 C   0  0  0  0  0  0  0  0  0  0  0  0
    4.1424   -8.3308    1.5917 C   0  0  0  0  0  0  0  0  0  0  0  0
    4.1128   -3.9153    1.0647 C   0  0  0  0  0  0  0  0  0  0  0  0
    3.3826   -2.5718    1.0102 C   0  0  0  0  0  0  0  0  0  0  0  0
    3.5696   -1.7582    1.9191 O   0  0  0  0  0  0  0  0  0  0  0  0
    0.3598   -1.2217   -0.1622 C   0  0  0  0  0  0  0  0  0  0  0  0
   -0.2907    2.1261   -0.0128 H   0  0  0  0  0  0  0  0  0  0  0  0
    2.1859    2.2056    0.0178 H   0  0  0  0  0  0  0  0  0  0  0  0
    3.4898    0.1143   -0.0005 H   0  0  0  0  0  0  0  0  0  0  0  0
    1.9414   -2.9625   -1.9875 H   0  0  0  0  0  0  0  0  0  0  0  0
    1.4483   -4.0457   -0.6553 H   0  0  0  0  0  0  0  0  0  0  0  0
    4.3421   -3.6367   -1.6414 H   0  0  0  0  0  0  0  0  0  0  0  0
    3.3097   -5.0125   -2.0566 H   0  0  0  0  0  0  0  0  0  0  0  0
    5.8944   -5.4017    2.0214 H   0  0  0  0  0  0  0  0  0  0  0  0
    5.3207   -8.4908    4.7206 H   0  0  0  0  0  0  0  0  0  0  0  0
    4.3469  -10.6052    4.1656 H   0  0  0  0  0  0  0  0  0  0  0  0
    3.2192  -12.0347    2.4983 H   0  0  0  0  0  0  0  0  0  0  0  0
    2.6735  -11.1219    0.2576 H   0  0  0  0  0  0  0  0  0  0  0  0
    3.2223   -8.8187   -0.3232 H   0  0  0  0  0  0  0  0  0  0  0  0
    5.1791   -3.6596    1.0759 H   0  0  0  0  0  0  0  0  0  0  0  0
    3.8202   -4.3806    2.0087 H   0  0  0  0  0  0  0  0  0  0  0  0
   -0.1645   -2.1724   -0.1603 H   0  0  0  0  0  0  0  0  0  0  0  0
  1  2  1  0  0  0  0
  2  3  1  0  0  0  0
  2 27  2  0  0  0  0
  3  4  2  0  0  0  0
  3 28  1  0  0  0  0
  4  5  1  0  0  0  0
  4 29  1  0  0  0  0
  5  6  2  0  0  0  0
  5 30  1  0  0  0  0
  6  7  1  0  0  0  0
  6 27  1  0  0  0  0
  7  8  1  0  0  0  0
  7 25  1  0  0  0  0
  8  9  1  0  0  0  0
  8 31  1  0  0  0  0
  8 32  1  0  0  0  0
  9 10  1  0  0  0  0
  9 33  1  0  0  0  0
  9 34  1  0  0  0  0
 10 11  1  0  0  0  0
 10 24  1  0  0  0  0
 11 12  2  0  0  0  0
 11 13  1  0  0  0  0
 13 14  2  0  0  0  0
 13 23  1  0  0  0  0
 14 15  1  0  0  0  0
 14 35  1  0  0  0  0
 15 16  2  0  0  0  0
 15 17  1  0  0  0  0
 17 18  1  0  0  0  0
 17 36  1  0  0  0  0
 18 19  1  0  0  0  0
 18 23  2  0  0  0  0
 19 20  2  0  0  0  0
 19 37  1  0  0  0  0
 20 21  1  0  0  0  0
 20 38  1  0  0  0  0
 21 22  2  0  0  0  0
 21 39  1  0  0  0  0
 22 23  1  0  0  0  0
 22 40  1  0  0  0  0
 24 25  1  0  0  0  0
 24 41  1  0  0  0  0
 24 42  1  0  0  0  0
 25 26  2  0  0  0  0
 27 43  1  0  0  0  0
M  END
$$$$
