
 OpenBabel07202414143D

 42 45  0  0  1  0  0  0  0  0999 V2000
    1.3140    0.6927    0.4060 C   0  0  0  0  0  0  0  0  0  0  0  0
    2.5336    0.5261   -0.3529 N   0  0  0  0  0  0  0  0  0  0  0  0
    3.3576   -0.6743   -0.2735 C   0  0  1  0  0  0  0  0  0  0  0  0
    2.8283   -1.8317   -1.1332 C   0  0  0  0  0  0  0  0  0  0  0  0
    3.6606   -3.0902   -1.0061 C   0  0  0  0  0  0  0  0  0  0  0  0
    3.8226   -3.7142    0.2391 C   0  0  0  0  0  0  0  0  0  0  0  0
    4.6586   -4.8240    0.3754 C   0  0  0  0  0  0  0  0  0  0  0  0
    5.3258   -5.3372   -0.7338 C   0  0  0  0  0  0  0  0  0  0  0  0
    5.1453   -4.7501   -1.9840 C   0  0  0  0  0  0  0  0  0  0  0  0
    4.3159   -3.6336   -2.1216 C   0  0  0  0  0  0  0  0  0  0  0  0
    4.6492   -0.1342   -0.8833 C   0  0  0  0  0  0  0  0  0  0  0  0
    5.7250   -0.7204   -0.8493 O   0  0  0  0  0  0  0  0  0  0  0  0
    4.3952    1.0961   -1.4342 N   0  0  0  0  0  0  0  0  0  0  0  0
    5.3792    1.8313   -2.1207 C   0  0  0  0  0  0  0  0  0  0  0  0
    5.8113    3.0629   -1.6372 C   0  0  0  0  0  0  0  0  0  0  0  0
    6.8407    3.7630   -2.1672 N   0  0  0  0  0  0  0  0  0  0  0  0
    7.4095    3.2492   -3.2817 C   0  0  0  0  0  0  0  0  0  0  0  0
    6.9805    2.0904   -3.9308 C   0  0  0  0  0  0  0  0  0  0  0  0
    7.5151    1.6996   -5.1734 C   0  0  0  0  0  0  0  0  0  0  0  0
    7.0330    0.5711   -5.8341 C   0  0  0  0  0  0  0  0  0  0  0  0
    6.0488   -0.2060   -5.2391 C   0  0  0  0  0  0  0  0  0  0  0  0
    5.5248    0.1643   -3.9983 C   0  0  0  0  0  0  0  0  0  0  0  0
    5.9562    1.3343   -3.3224 C   0  0  0  0  0  0  0  0  0  0  0  0
    3.2105    1.5861   -0.9486 C   0  0  0  0  0  0  0  0  0  0  0  0
    2.8003    2.7362   -0.9962 O   0  0  0  0  0  0  0  0  0  0  0  0
    1.0574   -0.2327    0.9266 H   0  0  0  0  0  0  0  0  0  0  0  0
    0.5096    0.9674   -0.2824 H   0  0  0  0  0  0  0  0  0  0  0  0
    1.4484    1.5038    1.1275 H   0  0  0  0  0  0  0  0  0  0  0  0
    3.5166   -0.9186    0.7798 H   0  0  0  0  0  0  0  0  0  0  0  0
    2.7932   -1.5231   -2.1880 H   0  0  0  0  0  0  0  0  0  0  0  0
    1.7941   -2.0720   -0.8595 H   0  0  0  0  0  0  0  0  0  0  0  0
    3.3182   -3.3308    1.1221 H   0  0  0  0  0  0  0  0  0  0  0  0
    4.8003   -5.2800    1.3517 H   0  0  0  0  0  0  0  0  0  0  0  0
    5.9904   -6.1900   -0.6225 H   0  0  0  0  0  0  0  0  0  0  0  0
    5.6649   -5.1531   -2.8499 H   0  0  0  0  0  0  0  0  0  0  0  0
    4.2093   -3.1836   -3.1059 H   0  0  0  0  0  0  0  0  0  0  0  0
    5.3717    3.5175   -0.7542 H   0  0  0  0  0  0  0  0  0  0  0  0
    8.2414    3.8325   -3.6700 H   0  0  0  0  0  0  0  0  0  0  0  0
    8.2837    2.3002   -5.6555 H   0  0  0  0  0  0  0  0  0  0  0  0
    7.4175    0.3060   -6.8157 H   0  0  0  0  0  0  0  0  0  0  0  0
    5.6719   -1.0912   -5.7453 H   0  0  0  0  0  0  0  0  0  0  0  0
    4.7436   -0.4635   -3.5798 H   0  0  0  0  0  0  0  0  0  0  0  0
  1  2  1  0  0  0  0
  1 26  1  0  0  0  0
  1 27  1  0  0  0  0
  1 28  1  0  0  0  0
  2  3  1  0  0  0  0
  2 24  1  0  0  0  0
  3  4  1  0  0  0  0
  3 11  1  0  0  0  0
  3 29  1  1  0  0  0
  4  5  1  0  0  0  0
  4 30  1  0  0  0  0
  4 31  1  0  0  0  0
  5  6  1  0  0  0  0
  5 10  2  0  0  0  0
  6  7  2  0  0  0  0
  6 32  1  0  0  0  0
  7  8  1  0  0  0  0
  7 33  1  0  0  0  0
  8  9  2  0  0  0  0
  8 34  1  0  0  0  0
  9 10  1  0  0  0  0
  9 35  1  0  0  0  0
 10 36  1  0  0  0  0
 11 12  2  0  0  0  0
 11 13  1  0  0  0  0
 13 14  1  0  0  0  0
 13 24  1  0  0  0  0
 14 15  1  0  0  0  0
 14 23  2  0  0  0  0
 15 16  2  0  0  0  0
 15 37  1  0  0  0  0
 16 17  1  0  0  0  0
 17 18  2  0  0  0  0
 17 38  1  0  0  0  0
 18 19  1  0  0  0  0
 18 23  1  0  0  0  0
 19 20  2  0  0  0  0
 19 39  1  0  0  0  0
 20 21  1  0  0  0  0
 20 40  1  0  0  0  0
 21 22  2  0  0  0  0
 21 41  1  0  0  0  0
 22 23  1  0  0  0  0
 22 42  1  0  0  0  0
 24 25  2  0  0  0  0
M  END
$$$$
