
 OpenBabel07202414173D

 39 42  0  0  1  0  0  0  0  0999 V2000
    1.0756   -0.2536    0.0830 Cl  0  0  0  0  0  0  0  0  0  0  0  0
    2.7906   -0.1780    0.1937 C   0  0  0  0  0  0  0  0  0  0  0  0
    3.4450    1.0333   -0.0061 C   0  0  0  0  0  0  0  0  0  0  0  0
    4.8375    1.0768    0.0345 C   0  0  0  0  0  0  0  0  0  0  0  0
    5.5673   -0.0970    0.2733 C   0  0  0  0  0  0  0  0  0  0  0  0
    4.9250   -1.3226    0.5065 C   0  0  0  0  0  0  0  0  0  0  0  0
    3.5169   -1.3417    0.4593 C   0  0  0  0  0  0  0  0  0  0  0  0
    5.6500   -2.6291    0.7558 C   0  0  3  0  0  0  0  0  0  0  0  0
    5.6146   -3.1004    2.2271 C   0  0  0  0  0  0  0  0  0  0  0  0
    5.6035   -2.3320    3.1807 O   0  0  0  0  0  0  0  0  0  0  0  0
    5.6625   -4.4803    2.2997 N   0  0  0  0  0  0  0  0  0  0  0  0
    5.6528   -5.2596    3.4408 C   0  0  0  0  0  0  0  0  0  0  0  0
    5.5054   -4.9739    4.8107 C   0  0  0  0  0  0  0  0  0  0  0  0
    5.5359   -6.0769    5.5724 N   0  0  0  0  0  0  0  0  0  0  0  0
    5.7660   -7.0964    4.7045 N   0  0  0  0  0  0  0  0  0  0  0  0
    5.9606   -8.4483    5.0054 C   0  0  0  0  0  0  0  0  0  0  0  0
    6.2522   -9.3243    4.0277 C   0  0  0  0  0  0  0  0  0  0  0  0
    6.3276   -8.8487    2.6585 C   0  0  0  0  0  0  0  0  0  0  0  0
    6.1023   -7.5587    2.3509 C   0  0  0  0  0  0  0  0  0  0  0  0
    5.8308   -6.6224    3.3919 C   0  0  0  0  0  0  0  0  0  0  0  0
    7.0816   -2.6714    0.2011 C   0  0  0  0  0  0  0  0  0  0  0  0
    7.9375   -1.5379    0.7343 C   0  0  0  0  0  0  0  0  0  0  0  0
    7.3350    0.0287    0.1704 S   0  0  0  0  0  0  0  0  0  0  0  0
    7.7508    1.0396    1.1180 O   0  0  0  0  0  0  0  0  0  0  0  0
    7.6449    0.1367   -1.2437 O   0  0  0  0  0  0  0  0  0  0  0  0
    2.8811    1.9401   -0.2089 H   0  0  0  0  0  0  0  0  0  0  0  0
    5.3535    2.0194   -0.1422 H   0  0  0  0  0  0  0  0  0  0  0  0
    2.9760   -2.2755    0.6072 H   0  0  0  0  0  0  0  0  0  0  0  0
    5.0942   -3.3844    0.1788 H   0  0  0  0  0  0  0  0  0  0  0  0
    5.7214   -5.0016    1.4353 H   0  0  0  0  0  0  0  0  0  0  0  0
    5.3693   -4.0181    5.2954 H   0  0  0  0  0  0  0  0  0  0  0  0
    5.8814   -8.7229    6.0483 H   0  0  0  0  0  0  0  0  0  0  0  0
    6.4365  -10.3740    4.2280 H   0  0  0  0  0  0  0  0  0  0  0  0
    6.5742   -9.5648    1.8808 H   0  0  0  0  0  0  0  0  0  0  0  0
    6.1573   -7.2271    1.3205 H   0  0  0  0  0  0  0  0  0  0  0  0
    7.0402   -2.6146   -0.8949 H   0  0  0  0  0  0  0  0  0  0  0  0
    7.5600   -3.6268    0.4472 H   0  0  0  0  0  0  0  0  0  0  0  0
    8.9656   -1.6291    0.3677 H   0  0  0  0  0  0  0  0  0  0  0  0
    7.9631   -1.5229    1.8273 H   0  0  0  0  0  0  0  0  0  0  0  0
  1  2  1  0  0  0  0
  2  3  1  0  0  0  0
  2  7  2  0  0  0  0
  3  4  2  0  0  0  0
  3 26  1  0  0  0  0
  4  5  1  0  0  0  0
  4 27  1  0  0  0  0
  5  6  2  0  0  0  0
  5 23  1  0  0  0  0
  6  7  1  0  0  0  0
  6  8  1  0  0  0  0
  7 28  1  0  0  0  0
  8  9  1  0  0  0  0
  8 21  1  0  0  0  0
  8 29  1  0  0  0  0
  9 10  2  0  0  0  0
  9 11  1  0  0  0  0
 11 12  1  0  0  0  0
 11 30  1  0  0  0  0
 12 13  1  0  0  0  0
 12 20  2  0  0  0  0
 13 14  2  0  0  0  0
 13 31  1  0  0  0  0
 14 15  1  0  0  0  0
 15 16  1  0  0  0  0
 15 20  1  0  0  0  0
 16 17  2  0  0  0  0
 16 32  1  0  0  0  0
 17 18  1  0  0  0  0
 17 33  1  0  0  0  0
 18 19  2  0  0  0  0
 18 34  1  0  0  0  0
 19 20  1  0  0  0  0
 19 35  1  0  0  0  0
 21 22  1  0  0  0  0
 21 36  1  0  0  0  0
 21 37  1  0  0  0  0
 22 23  1  0  0  0  0
 22 38  1  0  0  0  0
 22 39  1  0  0  0  0
 23 24  2  0  0  0  0
 23 25  2  0  0  0  0
M  END
$$$$
