
 OpenBabel07202414183D

 53 56  0  0  0  0  0  0  0  0999 V2000
   -1.3943   -2.9213    2.7200 Cl  0  0  0  0  0  0  0  0  0  0  0  0
    0.2159   -3.5201    2.8101 C   0  0  0  0  0  0  0  0  0  0  0  0
    0.8233   -3.6925    4.0489 C   0  0  0  0  0  0  0  0  0  0  0  0
    2.1189   -4.2030    4.1138 C   0  0  0  0  0  0  0  0  0  0  0  0
    2.8106   -4.5317    2.9421 C   0  0  0  0  0  0  0  0  0  0  0  0
    2.2162   -4.3389    1.6850 C   0  0  0  0  0  0  0  0  0  0  0  0
    2.8874   -4.7314    0.3869 C   0  0  0  0  0  0  0  0  0  0  0  0
    4.4042   -4.6837    0.3696 C   0  0  0  0  0  0  0  0  0  0  0  0
    5.0810   -5.7072    0.4229 O   0  0  0  0  0  0  0  0  0  0  0  0
    4.9191   -3.4008    0.3091 N   0  0  0  0  0  0  0  0  0  0  0  0
    6.3109   -3.1392    0.2677 C   0  0  0  0  0  0  0  0  0  0  0  0
    7.1623   -3.8720   -0.5606 C   0  0  0  0  0  0  0  0  0  0  0  0
    8.4899   -3.6412   -0.6906 N   0  0  0  0  0  0  0  0  0  0  0  0
    9.0038   -2.6554    0.0731 C   0  0  0  0  0  0  0  0  0  0  0  0
    8.2621   -1.8756    0.9610 C   0  0  0  0  0  0  0  0  0  0  0  0
    8.8694   -0.9008    1.7740 C   0  0  0  0  0  0  0  0  0  0  0  0
    8.1137   -0.1621    2.6879 C   0  0  0  0  0  0  0  0  0  0  0  0
    6.7419   -0.3687    2.7770 C   0  0  0  0  0  0  0  0  0  0  0  0
    5.8916    0.2866    3.6231 O   0  0  0  0  0  0  0  0  0  0  0  0
    6.2905    1.6139    3.9747 C   0  0  0  0  0  0  0  0  0  0  0  0
    5.0271    2.4669    4.1791 C   0  0  0  0  0  0  0  0  0  0  0  0
    5.3281    3.8767    4.4832 N   0  0  0  0  0  0  0  0  0  0  0  0
    4.1026    4.6411    4.7669 C   0  0  0  0  0  0  0  0  0  0  0  0
    3.6964    5.2514    3.4406 C   0  0  0  0  0  0  0  0  0  0  0  0
    5.0270    5.6074    2.8155 C   0  0  0  0  0  0  0  0  0  0  0  0
    5.9947    4.5696    3.3632 C   0  0  0  0  0  0  0  0  0  0  0  0
    6.1348   -1.3407    1.9833 C   0  0  0  0  0  0  0  0  0  0  0  0
    6.8716   -2.1085    1.0526 C   0  0  0  0  0  0  0  0  0  0  0  0
    0.9015   -3.8416    1.6375 C   0  0  0  0  0  0  0  0  0  0  0  0
    0.2914   -3.4441    4.9650 H   0  0  0  0  0  0  0  0  0  0  0  0
    2.5897   -4.3592    5.0838 H   0  0  0  0  0  0  0  0  0  0  0  0
    3.8063   -4.9657    3.0317 H   0  0  0  0  0  0  0  0  0  0  0  0
    2.5373   -4.0748   -0.4200 H   0  0  0  0  0  0  0  0  0  0  0  0
    2.5809   -5.7508    0.1263 H   0  0  0  0  0  0  0  0  0  0  0  0
    4.3129   -2.6629    0.6438 H   0  0  0  0  0  0  0  0  0  0  0  0
    6.7858   -4.6703   -1.1945 H   0  0  0  0  0  0  0  0  0  0  0  0
   10.0768   -2.5165   -0.0392 H   0  0  0  0  0  0  0  0  0  0  0  0
    9.9438   -0.7284    1.7211 H   0  0  0  0  0  0  0  0  0  0  0  0
    8.6220    0.5526    3.3272 H   0  0  0  0  0  0  0  0  0  0  0  0
    6.8993    2.0515    3.1785 H   0  0  0  0  0  0  0  0  0  0  0  0
    6.8813    1.5759    4.8963 H   0  0  0  0  0  0  0  0  0  0  0  0
    4.4658    2.0234    5.0131 H   0  0  0  0  0  0  0  0  0  0  0  0
    4.3746    2.3745    3.3003 H   0  0  0  0  0  0  0  0  0  0  0  0
    4.3512    5.4380    5.4788 H   0  0  0  0  0  0  0  0  0  0  0  0
    3.3007    4.0466    5.2180 H   0  0  0  0  0  0  0  0  0  0  0  0
    3.0516    6.1266    3.5581 H   0  0  0  0  0  0  0  0  0  0  0  0
    3.1705    4.5160    2.8203 H   0  0  0  0  0  0  0  0  0  0  0  0
    5.3391    6.6103    3.1280 H   0  0  0  0  0  0  0  0  0  0  0  0
    4.9797    5.5883    1.7222 H   0  0  0  0  0  0  0  0  0  0  0  0
    6.9073    5.0526    3.7296 H   0  0  0  0  0  0  0  0  0  0  0  0
    6.2933    3.9037    2.5478 H   0  0  0  0  0  0  0  0  0  0  0  0
    5.0714   -1.4979    2.1240 H   0  0  0  0  0  0  0  0  0  0  0  0
    0.3986   -3.7240    0.6807 H   0  0  0  0  0  0  0  0  0  0  0  0
  1  2  1  0  0  0  0
  2  3  1  0  0  0  0
  2 29  2  0  0  0  0
  3  4  2  0  0  0  0
  3 30  1  0  0  0  0
  4  5  1  0  0  0  0
  4 31  1  0  0  0  0
  5  6  2  0  0  0  0
  5 32  1  0  0  0  0
  6  7  1  0  0  0  0
  6 29  1  0  0  0  0
  7  8  1  0  0  0  0
  7 33  1  0  0  0  0
  7 34  1  0  0  0  0
  8  9  2  0  0  0  0
  8 10  1  0  0  0  0
 10 11  1  0  0  0  0
 10 35  1  0  0  0  0
 11 12  1  0  0  0  0
 11 28  2  0  0  0  0
 12 13  2  0  0  0  0
 12 36  1  0  0  0  0
 13 14  1  0  0  0  0
 14 15  2  0  0  0  0
 14 37  1  0  0  0  0
 15 16  1  0  0  0  0
 15 28  1  0  0  0  0
 16 17  2  0  0  0  0
 16 38  1  0  0  0  0
 17 18  1  0  0  0  0
 17 39  1  0  0  0  0
 18 19  1  0  0  0  0
 18 27  2  0  0  0  0
 19 20  1  0  0  0  0
 20 21  1  0  0  0  0
 20 40  1  0  0  0  0
 20 41  1  0  0  0  0
 21 22  1  0  0  0  0
 21 42  1  0  0  0  0
 21 43  1  0  0  0  0
 22 23  1  0  0  0  0
 22 26  1  0  0  0  0
 23 24  1  0  0  0  0
 23 44  1  0  0  0  0
 23 45  1  0  0  0  0
 24 25  1  0  0  0  0
 24 46  1  0  0  0  0
 24 47  1  0  0  0  0
 25 26  1  0  0  0  0
 25 48  1  0  0  0  0
 25 49  1  0  0  0  0
 26 50  1  0  0  0  0
 26 51  1  0  0  0  0
 27 28  1  0  0  0  0
 27 52  1  0  0  0  0
 29 53  1  0  0  0  0
M  END
$$$$
