
 OpenBabel07202414193D

 50 53  0  0  0  0  0  0  0  0999 V2000
    1.7758   -0.1227    1.6005 O   0  0  0  0  0  0  0  0  0  0  0  0
    2.5536   -0.1083    0.6408 C   0  0  0  0  0  0  0  0  0  0  0  0
    2.8822   -1.4273   -0.0561 C   0  0  0  0  0  0  0  0  0  0  0  0
    1.8659   -1.8254   -1.1023 C   0  0  0  0  0  0  0  0  0  0  0  0
    0.5420   -2.0102   -0.6892 C   0  0  0  0  0  0  0  0  0  0  0  0
   -0.4775   -2.3557   -1.5011 N   0  0  0  0  0  0  0  0  0  0  0  0
   -0.1751   -2.5140   -2.8049 C   0  0  0  0  0  0  0  0  0  0  0  0
    1.0996   -2.3651   -3.3478 C   0  0  0  0  0  0  0  0  0  0  0  0
    1.3239   -2.5376   -4.7249 C   0  0  0  0  0  0  0  0  0  0  0  0
    2.6024   -2.4095   -5.2601 C   0  0  0  0  0  0  0  0  0  0  0  0
    3.6716   -2.1343   -4.4189 C   0  0  0  0  0  0  0  0  0  0  0  0
    3.4576   -1.9617   -3.0479 C   0  0  0  0  0  0  0  0  0  0  0  0
    2.1655   -2.0400   -2.4748 C   0  0  0  0  0  0  0  0  0  0  0  0
    3.1558    1.0648    0.2074 N   0  0  0  0  0  0  0  0  0  0  0  0
    3.9371    1.2379   -1.0149 C   0  0  0  0  0  0  0  0  0  0  0  0
    5.2635    1.9388   -0.7188 C   0  0  0  0  0  0  0  0  0  0  0  0
    5.0814    3.2676    0.0433 C   0  0  0  0  0  0  0  0  0  0  0  0
    4.5566    4.4175   -0.8522 C   0  0  0  0  0  0  0  0  0  0  0  0
    5.5134    4.7922   -1.9956 C   0  0  0  0  0  0  0  0  0  0  0  0
    5.3310    6.2902   -2.2460 C   0  0  0  0  0  0  0  0  0  0  0  0
    4.3532    6.7895   -1.1927 C   0  0  0  0  0  0  0  0  0  0  0  0
    4.3886    5.7394   -0.0973 C   0  0  0  0  0  0  0  0  0  0  0  0
    4.1960    3.0128    1.2809 C   0  0  0  0  0  0  0  0  0  0  0  0
    2.8869    2.3054    0.9334 C   0  0  0  0  0  0  0  0  0  0  0  0
    2.8824   -2.2043    0.7220 H   0  0  0  0  0  0  0  0  0  0  0  0
    3.9128   -1.4250   -0.4115 H   0  0  0  0  0  0  0  0  0  0  0  0
    0.2525   -1.8823    0.3535 H   0  0  0  0  0  0  0  0  0  0  0  0
   -1.0243   -2.7831   -3.4283 H   0  0  0  0  0  0  0  0  0  0  0  0
    0.4965   -2.7719   -5.3926 H   0  0  0  0  0  0  0  0  0  0  0  0
    2.7633   -2.5345   -6.3269 H   0  0  0  0  0  0  0  0  0  0  0  0
    4.6771   -2.0559   -4.8254 H   0  0  0  0  0  0  0  0  0  0  0  0
    4.3332   -1.7728   -2.4353 H   0  0  0  0  0  0  0  0  0  0  0  0
    3.3314    1.8266   -1.7128 H   0  0  0  0  0  0  0  0  0  0  0  0
    4.1397    0.2888   -1.5020 H   0  0  0  0  0  0  0  0  0  0  0  0
    5.8242    2.0870   -1.6475 H   0  0  0  0  0  0  0  0  0  0  0  0
    5.8722    1.2698   -0.0948 H   0  0  0  0  0  0  0  0  0  0  0  0
    6.0720    3.5699    0.4110 H   0  0  0  0  0  0  0  0  0  0  0  0
    3.5889    4.1446   -1.2924 H   0  0  0  0  0  0  0  0  0  0  0  0
    5.2976    4.2137   -2.9004 H   0  0  0  0  0  0  0  0  0  0  0  0
    6.5578    4.5956   -1.7256 H   0  0  0  0  0  0  0  0  0  0  0  0
    4.9554    6.4909   -3.2548 H   0  0  0  0  0  0  0  0  0  0  0  0
    6.2942    6.8047   -2.1505 H   0  0  0  0  0  0  0  0  0  0  0  0
    3.3458    6.8559   -1.6191 H   0  0  0  0  0  0  0  0  0  0  0  0
    4.6224    7.7818   -0.8169 H   0  0  0  0  0  0  0  0  0  0  0  0
    3.4712    5.7631    0.4991 H   0  0  0  0  0  0  0  0  0  0  0  0
    5.2387    5.9197    0.5713 H   0  0  0  0  0  0  0  0  0  0  0  0
    3.9871    3.9415    1.8210 H   0  0  0  0  0  0  0  0  0  0  0  0
    4.7586    2.3772    1.9780 H   0  0  0  0  0  0  0  0  0  0  0  0
    2.2535    2.9345    0.2977 H   0  0  0  0  0  0  0  0  0  0  0  0
    2.3296    2.1150    1.8558 H   0  0  0  0  0  0  0  0  0  0  0  0
  1  2  2  0  0  0  0
  2  3  1  0  0  0  0
  2 14  1  0  0  0  0
  3  4  1  0  0  0  0
  3 25  1  0  0  0  0
  3 26  1  0  0  0  0
  4  5  1  0  0  0  0
  4 13  2  0  0  0  0
  5  6  2  0  0  0  0
  5 27  1  0  0  0  0
  6  7  1  0  0  0  0
  7  8  2  0  0  0  0
  7 28  1  0  0  0  0
  8  9  1  0  0  0  0
  8 13  1  0  0  0  0
  9 10  2  0  0  0  0
  9 29  1  0  0  0  0
 10 11  1  0  0  0  0
 10 30  1  0  0  0  0
 11 12  2  0  0  0  0
 11 31  1  0  0  0  0
 12 13  1  0  0  0  0
 12 32  1  0  0  0  0
 14 15  1  0  0  0  0
 14 24  1  0  0  0  0
 15 16  1  0  0  0  0
 15 33  1  0  0  0  0
 15 34  1  0  0  0  0
 16 17  1  0  0  0  0
 16 35  1  0  0  0  0
 16 36  1  0  0  0  0
 17 18  1  0  0  0  0
 17 23  1  0  0  0  0
 17 37  1  0  0  0  0
 18 19  1  0  0  0  0
 18 22  1  0  0  0  0
 18 38  1  0  0  0  0
 19 20  1  0  0  0  0
 19 39  1  0  0  0  0
 19 40  1  0  0  0  0
 20 21  1  0  0  0  0
 20 41  1  0  0  0  0
 20 42  1  0  0  0  0
 21 22  1  0  0  0  0
 21 43  1  0  0  0  0
 21 44  1  0  0  0  0
 22 45  1  0  0  0  0
 22 46  1  0  0  0  0
 23 24  1  0  0  0  0
 23 47  1  0  0  0  0
 23 48  1  0  0  0  0
 24 49  1  0  0  0  0
 24 50  1  0  0  0  0
M  END
$$$$
