
 OpenBabel07202414133D

 54 56  0  0  1  0  0  0  0  0999 V2000
    0.8450  -10.8727    0.9226 C   0  0  0  0  0  0  0  0  0  0  0  0
    0.9145  -10.4549    2.3812 C   0  0  0  0  0  0  0  0  0  0  0  0
    1.7720   -9.3090    2.4719 O   0  0  0  0  0  0  0  0  0  0  0  0
    3.1012   -9.5490    2.6056 C   0  0  0  0  0  0  0  0  0  0  0  0
    3.6159  -10.6010    2.9458 O   0  0  0  0  0  0  0  0  0  0  0  0
    3.8697   -8.3539    2.1508 C   0  0  0  0  0  0  0  0  0  0  0  0
    3.2078   -7.2323    1.6363 C   0  0  0  0  0  0  0  0  0  0  0  0
    3.9403   -6.1750    1.1136 C   0  0  0  0  0  0  0  0  0  0  0  0
    5.3363   -6.2138    1.1277 C   0  0  0  0  0  0  0  0  0  0  0  0
    6.0232   -7.3024    1.6703 C   0  0  0  0  0  0  0  0  0  0  0  0
    7.4378   -7.3523    1.7503 N   0  0  0  0  0  0  0  0  0  0  0  0
    8.3344   -6.3383    1.4086 C   0  0  0  0  0  0  0  0  0  0  0  0
    8.0458   -5.2281    0.9719 O   0  0  0  0  0  0  0  0  0  0  0  0
    9.7791   -6.6716    1.7781 C   0  0  2  0  0  0  0  0  0  0  0  0
   10.7416   -5.4798    1.5302 C   0  0  0  0  0  0  0  0  0  0  0  0
   12.1038   -5.7872    2.0254 N   0  0  0  0  0  0  0  0  0  0  0  0
   12.9533   -4.8966    2.6846 C   0  0  0  0  0  0  0  0  0  0  0  0
   14.1023   -5.2305    2.9787 O   0  0  0  0  0  0  0  0  0  0  0  0
   12.3825   -3.5300    3.0375 C   0  0  0  0  0  0  0  0  0  0  0  0
   13.5334   -2.5629    3.9866 Cl  0  0  0  0  0  0  0  0  0  0  0  0
   12.6641   -7.0688    1.5783 C   0  0  0  0  0  0  0  0  0  0  0  0
   11.6789   -8.2254    1.7843 C   0  0  0  0  0  0  0  0  0  0  0  0
   10.3261   -7.9556    1.1877 N   0  0  0  0  0  0  0  0  0  0  0  0
   10.2373   -8.0501   -0.5226 S   0  0  0  0  0  0  0  0  0  0  0  0
    8.8454   -8.1456   -0.8904 O   0  0  0  0  0  0  0  0  0  0  0  0
   11.1122   -7.0562   -1.0944 O   0  0  0  0  0  0  0  0  0  0  0  0
   10.9122   -9.5616   -1.0288 C   0  0  0  0  0  0  0  0  0  0  0  0
   12.0282   -9.6963   -1.9103 C   0  0  0  0  0  0  0  0  0  0  0  0
   12.3577  -11.0204   -2.1212 C   0  0  0  0  0  0  0  0  0  0  0  0
   11.3277  -12.0817   -1.2563 S   0  0  0  0  0  0  0  0  0  0  0  0
   10.4313  -10.7797   -0.6052 C   0  0  0  0  0  0  0  0  0  0  0  0
    5.2790   -8.3852    2.1663 C   0  0  0  0  0  0  0  0  0  0  0  0
    0.1706  -11.7206    0.7820 H   0  0  0  0  0  0  0  0  0  0  0  0
    1.8384  -11.1438    0.5499 H   0  0  0  0  0  0  0  0  0  0  0  0
    0.4975  -10.0372    0.3039 H   0  0  0  0  0  0  0  0  0  0  0  0
    1.2528  -11.2734    3.0248 H   0  0  0  0  0  0  0  0  0  0  0  0
   -0.0795  -10.1492    2.7253 H   0  0  0  0  0  0  0  0  0  0  0  0
    2.1224   -7.1770    1.6087 H   0  0  0  0  0  0  0  0  0  0  0  0
    3.4282   -5.3181    0.6820 H   0  0  0  0  0  0  0  0  0  0  0  0
    5.8540   -5.3736    0.6797 H   0  0  0  0  0  0  0  0  0  0  0  0
    7.8422   -8.2201    2.0862 H   0  0  0  0  0  0  0  0  0  0  0  0
    9.7524   -6.8259    2.8686 H   0  0  0  0  0  0  0  0  0  0  0  0
   10.3541   -4.5809    2.0158 H   0  0  0  0  0  0  0  0  0  0  0  0
   10.8282   -5.2316    0.4676 H   0  0  0  0  0  0  0  0  0  0  0  0
   11.4875   -3.6489    3.6523 H   0  0  0  0  0  0  0  0  0  0  0  0
   12.1554   -2.9758    2.1239 H   0  0  0  0  0  0  0  0  0  0  0  0
   13.5865   -7.3021    2.1198 H   0  0  0  0  0  0  0  0  0  0  0  0
   12.9429   -6.9575    0.5264 H   0  0  0  0  0  0  0  0  0  0  0  0
   11.5284   -8.3799    2.8613 H   0  0  0  0  0  0  0  0  0  0  0  0
   12.0899   -9.1641    1.4039 H   0  0  0  0  0  0  0  0  0  0  0  0
   12.5614   -8.8720   -2.3662 H   0  0  0  0  0  0  0  0  0  0  0  0
   13.1518  -11.4136   -2.7426 H   0  0  0  0  0  0  0  0  0  0  0  0
    9.5930  -10.9737    0.0586 H   0  0  0  0  0  0  0  0  0  0  0  0
    5.7784   -9.2657    2.5664 H   0  0  0  0  0  0  0  0  0  0  0  0
  1  2  1  0  0  0  0
  1 33  1  0  0  0  0
  1 34  1  0  0  0  0
  1 35  1  0  0  0  0
  2  3  1  0  0  0  0
  2 36  1  0  0  0  0
  2 37  1  0  0  0  0
  3  4  1  0  0  0  0
  4  5  2  0  0  0  0
  4  6  1  0  0  0  0
  6  7  1  0  0  0  0
  6 32  2  0  0  0  0
  7  8  2  0  0  0  0
  7 38  1  0  0  0  0
  8  9  1  0  0  0  0
  8 39  1  0  0  0  0
  9 10  2  0  0  0  0
  9 40  1  0  0  0  0
 10 11  1  0  0  0  0
 10 32  1  0  0  0  0
 11 12  1  0  0  0  0
 11 41  1  0  0  0  0
 12 13  2  0  0  0  0
 12 14  1  0  0  0  0
 14 15  1  0  0  0  0
 14 23  1  0  0  0  0
 14 42  1  1  0  0  0
 15 16  1  0  0  0  0
 15 43  1  0  0  0  0
 15 44  1  0  0  0  0
 16 17  1  0  0  0  0
 16 21  1  0  0  0  0
 17 18  2  0  0  0  0
 17 19  1  0  0  0  0
 19 20  1  0  0  0  0
 19 45  1  0  0  0  0
 19 46  1  0  0  0  0
 21 22  1  0  0  0  0
 21 47  1  0  0  0  0
 21 48  1  0  0  0  0
 22 23  1  0  0  0  0
 22 49  1  0  0  0  0
 22 50  1  0  0  0  0
 23 24  1  0  0  0  0
 24 25  2  0  0  0  0
 24 26  2  0  0  0  0
 24 27  1  0  0  0  0
 27 28  1  0  0  0  0
 27 31  2  0  0  0  0
 28 29  2  0  0  0  0
 28 51  1  0  0  0  0
 29 30  1  0  0  0  0
 29 52  1  0  0  0  0
 30 31  1  0  0  0  0
 31 53  1  0  0  0  0
 32 54  1  0  0  0  0
M  END
$$$$
