
 OpenBabel07202414193D

 57 61  0  0  0  0  0  0  0  0999 V2000
    1.2522   -0.7082    0.6793 O   0  0  0  0  0  0  0  0  0  0  0  0
    2.4129   -0.4148    0.3781 C   0  0  0  0  0  0  0  0  0  0  0  0
    3.1763    0.6335    1.1839 C   0  0  0  0  0  0  0  0  0  0  0  0
    3.3792    0.2518    2.5702 N   0  0  0  0  0  0  0  0  0  0  0  0
    4.6184   -0.0575    3.0058 N   0  0  0  0  0  0  0  0  0  0  0  0
    4.5689   -0.1619    4.3279 N   0  0  0  0  0  0  0  0  0  0  0  0
    3.2880    0.0997    4.7287 C   0  0  0  0  0  0  0  0  0  0  0  0
    2.7194    0.1468    6.0098 C   0  0  0  0  0  0  0  0  0  0  0  0
    1.3571    0.4514    6.1265 C   0  0  0  0  0  0  0  0  0  0  0  0
    0.5804    0.7050    4.9924 C   0  0  0  0  0  0  0  0  0  0  0  0
    1.1345    0.6720    3.7078 C   0  0  0  0  0  0  0  0  0  0  0  0
    2.4954    0.3635    3.6153 C   0  0  0  0  0  0  0  0  0  0  0  0
    3.0427   -0.9381   -0.7619 N   0  0  0  0  0  0  0  0  0  0  0  0
    2.3227   -1.9242   -1.5787 C   0  0  0  0  0  0  0  0  0  0  0  0
    1.5387   -1.3362   -2.7352 C   0  0  0  0  0  0  0  0  0  0  0  0
    2.1369   -1.1703   -3.9940 C   0  0  0  0  0  0  0  0  0  0  0  0
    1.3829   -0.7428   -5.0926 C   0  0  0  0  0  0  0  0  0  0  0  0
    0.0250   -0.4711   -4.9458 C   0  0  0  0  0  0  0  0  0  0  0  0
   -0.5770   -0.6068   -3.6947 C   0  0  0  0  0  0  0  0  0  0  0  0
    0.1769   -1.0282   -2.5941 C   0  0  0  0  0  0  0  0  0  0  0  0
    4.4563   -1.0127   -0.8172 C   0  0  0  0  0  0  0  0  0  0  0  0
    5.1607   -1.6816    0.1807 C   0  0  0  0  0  0  0  0  0  0  0  0
    6.5519   -1.5850    0.2324 C   0  0  0  0  0  0  0  0  0  0  0  0
    7.2802   -0.8354   -0.7030 C   0  0  0  0  0  0  0  0  0  0  0  0
    8.6492   -0.7322   -0.6047 N   0  0  0  0  0  0  0  0  0  0  0  0
    9.5243   -0.4460   -1.7465 C   0  0  0  0  0  0  0  0  0  0  0  0
   10.7676   -1.3477   -1.6383 C   0  0  0  0  0  0  0  0  0  0  0  0
   11.4509   -1.1795   -0.3844 O   0  0  0  0  0  0  0  0  0  0  0  0
   10.5699   -1.4804    0.7138 C   0  0  0  0  0  0  0  0  0  0  0  0
    9.3279   -0.5767    0.6960 C   0  0  0  0  0  0  0  0  0  0  0  0
    6.5470   -0.2359   -1.7394 C   0  0  0  0  0  0  0  0  0  0  0  0
    5.1490   -0.3212   -1.8048 C   0  0  0  0  0  0  0  0  0  0  0  0
    2.5901    1.5585    1.1777 H   0  0  0  0  0  0  0  0  0  0  0  0
    4.1491    0.8945    0.7615 H   0  0  0  0  0  0  0  0  0  0  0  0
    3.3271   -0.0462    6.8871 H   0  0  0  0  0  0  0  0  0  0  0  0
    0.8986    0.4886    7.1121 H   0  0  0  0  0  0  0  0  0  0  0  0
   -0.4779    0.9317    5.1082 H   0  0  0  0  0  0  0  0  0  0  0  0
    0.5273    0.8587    2.8281 H   0  0  0  0  0  0  0  0  0  0  0  0
    1.6387   -2.4953   -0.9377 H   0  0  0  0  0  0  0  0  0  0  0  0
    3.0284   -2.6661   -1.9765 H   0  0  0  0  0  0  0  0  0  0  0  0
    3.1873   -1.4052   -4.1404 H   0  0  0  0  0  0  0  0  0  0  0  0
    1.8521   -0.6386   -6.0680 H   0  0  0  0  0  0  0  0  0  0  0  0
   -0.5680   -0.1671   -5.8048 H   0  0  0  0  0  0  0  0  0  0  0  0
   -1.6384   -0.4038   -3.5808 H   0  0  0  0  0  0  0  0  0  0  0  0
   -0.3121   -1.1472   -1.6277 H   0  0  0  0  0  0  0  0  0  0  0  0
    4.6468   -2.2586    0.9460 H   0  0  0  0  0  0  0  0  0  0  0  0
    7.0630   -2.1204    1.0287 H   0  0  0  0  0  0  0  0  0  0  0  0
    9.8230    0.6086   -1.7163 H   0  0  0  0  0  0  0  0  0  0  0  0
    9.0397   -0.6431   -2.7081 H   0  0  0  0  0  0  0  0  0  0  0  0
   11.4725   -1.1088   -2.4383 H   0  0  0  0  0  0  0  0  0  0  0  0
   10.4861   -2.4041   -1.7471 H   0  0  0  0  0  0  0  0  0  0  0  0
   11.1319   -1.3292    1.6404 H   0  0  0  0  0  0  0  0  0  0  0  0
   10.2832   -2.5380    0.6621 H   0  0  0  0  0  0  0  0  0  0  0  0
    9.6400    0.4708    0.7988 H   0  0  0  0  0  0  0  0  0  0  0  0
    8.6928   -0.8050    1.5571 H   0  0  0  0  0  0  0  0  0  0  0  0
    7.0512    0.3655   -2.4908 H   0  0  0  0  0  0  0  0  0  0  0  0
    4.6170    0.2118   -2.5877 H   0  0  0  0  0  0  0  0  0  0  0  0
  1  2  2  0  0  0  0
  2  3  1  0  0  0  0
  2 13  1  0  0  0  0
  3  4  1  0  0  0  0
  3 33  1  0  0  0  0
  3 34  1  0  0  0  0
  4  5  1  0  0  0  0
  4 12  1  0  0  0  0
  5  6  2  0  0  0  0
  6  7  1  0  0  0  0
  7  8  1  0  0  0  0
  7 12  2  0  0  0  0
  8  9  2  0  0  0  0
  8 35  1  0  0  0  0
  9 10  1  0  0  0  0
  9 36  1  0  0  0  0
 10 11  2  0  0  0  0
 10 37  1  0  0  0  0
 11 12  1  0  0  0  0
 11 38  1  0  0  0  0
 13 14  1  0  0  0  0
 13 21  1  0  0  0  0
 14 15  1  0  0  0  0
 14 39  1  0  0  0  0
 14 40  1  0  0  0  0
 15 16  1  0  0  0  0
 15 20  2  0  0  0  0
 16 17  2  0  0  0  0
 16 41  1  0  0  0  0
 17 18  1  0  0  0  0
 17 42  1  0  0  0  0
 18 19  2  0  0  0  0
 18 43  1  0  0  0  0
 19 20  1  0  0  0  0
 19 44  1  0  0  0  0
 20 45  1  0  0  0  0
 21 22  1  0  0  0  0
 21 32  2  0  0  0  0
 22 23  2  0  0  0  0
 22 46  1  0  0  0  0
 23 24  1  0  0  0  0
 23 47  1  0  0  0  0
 24 25  1  0  0  0  0
 24 31  2  0  0  0  0
 25 26  1  0  0  0  0
 25 30  1  0  0  0  0
 26 27  1  0  0  0  0
 26 48  1  0  0  0  0
 26 49  1  0  0  0  0
 27 28  1  0  0  0  0
 27 50  1  0  0  0  0
 27 51  1  0  0  0  0
 28 29  1  0  0  0  0
 29 30  1  0  0  0  0
 29 52  1  0  0  0  0
 29 53  1  0  0  0  0
 30 54  1  0  0  0  0
 30 55  1  0  0  0  0
 31 32  1  0  0  0  0
 31 56  1  0  0  0  0
 32 57  1  0  0  0  0
M  END
$$$$
