
 OpenBabel07202414143D

 43 46  0  0  1  0  0  0  0  0999 V2000
    1.4234   -0.2078    0.2950 C   0  0  0  0  0  0  0  0  0  0  0  0
    2.8501   -0.1713    0.0352 N   0  0  0  0  0  0  0  0  0  0  0  0
    3.6823   -1.3636    0.1764 C   0  0  0  0  0  0  0  0  0  0  0  0
    4.5431   -1.5870   -1.0691 C   0  0  2  0  0  0  0  0  0  0  0  0
    5.6157   -2.6708   -0.8652 C   0  0  0  0  0  0  0  0  0  0  0  0
    5.5865   -3.6720   -1.5778 O   0  0  0  0  0  0  0  0  0  0  0  0
    6.5861   -2.4156    0.0952 N   0  0  0  0  0  0  0  0  0  0  0  0
    7.7124   -3.2503    0.3913 C   0  0  0  0  0  0  0  0  0  0  0  0
    8.1077   -4.2996   -0.4456 C   0  0  0  0  0  0  0  0  0  0  0  0
    9.0662   -5.2092   -0.1517 N   0  0  0  0  0  0  0  0  0  0  0  0
    9.7231   -5.0371    1.0102 C   0  0  0  0  0  0  0  0  0  0  0  0
    9.5365   -3.9527    1.8614 C   0  0  0  0  0  0  0  0  0  0  0  0
   10.3762   -3.7698    2.9752 C   0  0  0  0  0  0  0  0  0  0  0  0
   10.1997   -2.6839    3.8251 C   0  0  0  0  0  0  0  0  0  0  0  0
    9.1580   -1.7959    3.5925 C   0  0  0  0  0  0  0  0  0  0  0  0
    8.3158   -1.9691    2.4873 C   0  0  0  0  0  0  0  0  0  0  0  0
    8.4900   -3.0335    1.5677 C   0  0  0  0  0  0  0  0  0  0  0  0
    5.1196   -0.2859   -1.6067 C   0  0  0  0  0  0  0  0  0  0  0  0
    6.0538   -0.3123   -2.6584 C   0  0  0  0  0  0  0  0  0  0  0  0
    6.5433    0.8769   -3.2047 C   0  0  0  0  0  0  0  0  0  0  0  0
    7.4538    0.8354   -4.3117 C   0  0  0  0  0  0  0  0  0  0  0  0
    8.1729    0.8000   -5.2138 N   0  0  0  0  0  0  0  0  0  0  0  0
    6.1165    2.1085   -2.6982 C   0  0  0  0  0  0  0  0  0  0  0  0
    5.1641    2.1502   -1.6861 C   0  0  0  0  0  0  0  0  0  0  0  0
    4.6365    0.9540   -1.1650 C   0  0  0  0  0  0  0  0  0  0  0  0
    3.4141    1.0427   -0.3169 C   0  0  0  0  0  0  0  0  0  0  0  0
    2.8983    2.1284   -0.0776 O   0  0  0  0  0  0  0  0  0  0  0  0
    1.0756   -1.2275    0.4752 H   0  0  0  0  0  0  0  0  0  0  0  0
    0.9146    0.1857   -0.5939 H   0  0  0  0  0  0  0  0  0  0  0  0
    1.1804    0.4399    1.1403 H   0  0  0  0  0  0  0  0  0  0  0  0
    3.0547   -2.2395    0.3726 H   0  0  0  0  0  0  0  0  0  0  0  0
    4.2993   -1.2038    1.0690 H   0  0  0  0  0  0  0  0  0  0  0  0
    3.8679   -1.9592   -1.8541 H   0  0  0  0  0  0  0  0  0  0  0  0
    6.4433   -1.6262    0.7061 H   0  0  0  0  0  0  0  0  0  0  0  0
    7.6792   -4.4497   -1.4308 H   0  0  0  0  0  0  0  0  0  0  0  0
   10.4379   -5.8225    1.2397 H   0  0  0  0  0  0  0  0  0  0  0  0
   11.1960   -4.4597    3.1681 H   0  0  0  0  0  0  0  0  0  0  0  0
   10.8747   -2.5308    4.6631 H   0  0  0  0  0  0  0  0  0  0  0  0
    9.0047   -0.9560    4.2658 H   0  0  0  0  0  0  0  0  0  0  0  0
    7.5300   -1.2330    2.3545 H   0  0  0  0  0  0  0  0  0  0  0  0
    6.3679   -1.2646   -3.0887 H   0  0  0  0  0  0  0  0  0  0  0  0
    6.4836    3.0404   -3.1248 H   0  0  0  0  0  0  0  0  0  0  0  0
    4.7775    3.1097   -1.3474 H   0  0  0  0  0  0  0  0  0  0  0  0
  1  2  1  0  0  0  0
  1 28  1  0  0  0  0
  1 29  1  0  0  0  0
  1 30  1  0  0  0  0
  2  3  1  0  0  0  0
  2 26  1  0  0  0  0
  3  4  1  0  0  0  0
  3 31  1  0  0  0  0
  3 32  1  0  0  0  0
  4 18  1  0  0  0  0
  4  5  1  0  0  0  0
  4 33  1  6  0  0  0
  5  6  2  0  0  0  0
  5  7  1  0  0  0  0
  7  8  1  0  0  0  0
  7 34  1  0  0  0  0
  8  9  1  0  0  0  0
  8 17  2  0  0  0  0
  9 10  2  0  0  0  0
  9 35  1  0  0  0  0
 10 11  1  0  0  0  0
 11 12  2  0  0  0  0
 11 36  1  0  0  0  0
 12 13  1  0  0  0  0
 12 17  1  0  0  0  0
 13 14  2  0  0  0  0
 13 37  1  0  0  0  0
 14 15  1  0  0  0  0
 14 38  1  0  0  0  0
 15 16  2  0  0  0  0
 15 39  1  0  0  0  0
 16 17  1  0  0  0  0
 16 40  1  0  0  0  0
 18 19  1  0  0  0  0
 18 25  2  0  0  0  0
 19 20  2  0  0  0  0
 19 41  1  0  0  0  0
 20 21  1  0  0  0  0
 20 23  1  0  0  0  0
 21 22  3  0  0  0  0
 23 24  2  0  0  0  0
 23 42  1  0  0  0  0
 24 25  1  0  0  0  0
 24 43  1  0  0  0  0
 25 26  1  0  0  0  0
 26 27  2  0  0  0  0
M  END
$$$$
