
 OpenBabel07202414123D

 62 64  0  0  0  0  0  0  0  0999 V2000
    6.3397    1.7086    2.7305 C   0  0  0  0  0  0  0  0  0  0  0  0
    5.4195    1.0077    1.7330 C   0  0  0  0  0  0  0  0  0  0  0  0
    4.1049    1.7762    1.6080 C   0  0  0  0  0  0  0  0  0  0  0  0
    6.0931    0.9521    0.4602 O   0  0  0  0  0  0  0  0  0  0  0  0
    5.8115   -0.0816   -0.4018 C   0  0  0  0  0  0  0  0  0  0  0  0
    4.9114   -1.1093   -0.1314 C   0  0  0  0  0  0  0  0  0  0  0  0
    4.6908   -2.1128   -1.0760 C   0  0  0  0  0  0  0  0  0  0  0  0
    3.6183   -3.4051   -0.7046 Cl  0  0  0  0  0  0  0  0  0  0  0  0
    5.3176   -2.0670   -2.3158 C   0  0  0  0  0  0  0  0  0  0  0  0
    6.1926   -1.0232   -2.6240 C   0  0  0  0  0  0  0  0  0  0  0  0
    6.7162   -0.9123   -3.9543 N   0  0  0  0  0  0  0  0  0  0  0  0
    8.1740   -1.0257   -4.1567 C   0  0  0  0  0  0  0  0  0  0  0  0
    8.7378    0.1854   -4.9203 C   0  0  0  0  0  0  0  0  0  0  0  0
   10.2404    0.1344   -5.2962 C   0  0  0  0  0  0  0  0  0  0  0  0
   11.1582   -0.0772   -4.0824 C   0  0  0  0  0  0  0  0  0  0  0  0
   12.6419    0.0606   -4.4318 C   0  0  0  0  0  0  0  0  0  0  0  0
   12.9462    1.3909   -5.1096 C   0  0  0  0  0  0  0  0  0  0  0  0
   12.0886    1.5762   -6.3535 C   0  0  0  0  0  0  0  0  0  0  0  0
   10.6025    1.4425   -6.0341 C   0  0  0  0  0  0  0  0  0  0  0  0
    5.8972   -1.1268   -5.0849 C   0  0  0  0  0  0  0  0  0  0  0  0
    6.3482   -1.5142   -6.1618 O   0  0  0  0  0  0  0  0  0  0  0  0
    4.5807   -0.7388   -4.9008 N   0  0  0  0  0  0  0  0  0  0  0  0
    3.5890   -0.8021   -5.9066 C   0  0  0  0  0  0  0  0  0  0  0  0
    3.5402   -1.8363   -6.8425 C   0  0  0  0  0  0  0  0  0  0  0  0
    2.5940   -1.9556   -7.8069 N   0  0  0  0  0  0  0  0  0  0  0  0
    1.6585   -0.9879   -7.8533 C   0  0  0  0  0  0  0  0  0  0  0  0
    1.6172    0.0847   -6.9761 C   0  0  0  0  0  0  0  0  0  0  0  0
    2.5964    0.1894   -5.9786 C   0  0  0  0  0  0  0  0  0  0  0  0
    2.5938    1.3867   -5.0716 C   0  0  0  0  0  0  0  0  0  0  0  0
    6.4725   -0.0523   -1.6455 C   0  0  0  0  0  0  0  0  0  0  0  0
    5.8609    1.7955    3.7122 H   0  0  0  0  0  0  0  0  0  0  0  0
    6.6202    2.7071    2.3844 H   0  0  0  0  0  0  0  0  0  0  0  0
    7.2659    1.1356    2.8535 H   0  0  0  0  0  0  0  0  0  0  0  0
    5.2426    0.0111    2.1507 H   0  0  0  0  0  0  0  0  0  0  0  0
    4.2542    2.7350    1.0992 H   0  0  0  0  0  0  0  0  0  0  0  0
    3.6593    1.9672    2.5910 H   0  0  0  0  0  0  0  0  0  0  0  0
    3.3747    1.2145    1.0164 H   0  0  0  0  0  0  0  0  0  0  0  0
    4.3567   -1.1724    0.7958 H   0  0  0  0  0  0  0  0  0  0  0  0
    5.1240   -2.8577   -3.0398 H   0  0  0  0  0  0  0  0  0  0  0  0
    8.3615   -1.9387   -4.7367 H   0  0  0  0  0  0  0  0  0  0  0  0
    8.6728   -1.1465   -3.1903 H   0  0  0  0  0  0  0  0  0  0  0  0
    8.5427    1.0859   -4.3246 H   0  0  0  0  0  0  0  0  0  0  0  0
    8.1736    0.3167   -5.8529 H   0  0  0  0  0  0  0  0  0  0  0  0
   10.3995   -0.7024   -5.9918 H   0  0  0  0  0  0  0  0  0  0  0  0
   10.9944   -1.0742   -3.6580 H   0  0  0  0  0  0  0  0  0  0  0  0
   10.9067    0.6502   -3.3004 H   0  0  0  0  0  0  0  0  0  0  0  0
   12.9429   -0.7611   -5.0937 H   0  0  0  0  0  0  0  0  0  0  0  0
   13.2435   -0.0294   -3.5200 H   0  0  0  0  0  0  0  0  0  0  0  0
   14.0072    1.4377   -5.3812 H   0  0  0  0  0  0  0  0  0  0  0  0
   12.7611    2.2134   -4.4075 H   0  0  0  0  0  0  0  0  0  0  0  0
   12.3731    0.8372   -7.1120 H   0  0  0  0  0  0  0  0  0  0  0  0
   12.2816    2.5655   -6.7860 H   0  0  0  0  0  0  0  0  0  0  0  0
   10.0311    1.5115   -6.9680 H   0  0  0  0  0  0  0  0  0  0  0  0
   10.3023    2.3006   -5.4185 H   0  0  0  0  0  0  0  0  0  0  0  0
    4.4400   -0.0780   -4.1510 H   0  0  0  0  0  0  0  0  0  0  0  0
    4.2654   -2.6454   -6.8328 H   0  0  0  0  0  0  0  0  0  0  0  0
    0.9222   -1.0930   -8.6448 H   0  0  0  0  0  0  0  0  0  0  0  0
    0.8425    0.8363   -7.0884 H   0  0  0  0  0  0  0  0  0  0  0  0
    1.8761    2.1428   -5.4070 H   0  0  0  0  0  0  0  0  0  0  0  0
    3.5800    1.8641   -5.0724 H   0  0  0  0  0  0  0  0  0  0  0  0
    2.3309    1.0932   -4.0511 H   0  0  0  0  0  0  0  0  0  0  0  0
    7.1521    0.7686   -1.8681 H   0  0  0  0  0  0  0  0  0  0  0  0
  1  2  1  0  0  0  0
  1 31  1  0  0  0  0
  1 32  1  0  0  0  0
  1 33  1  0  0  0  0
  2  3  1  0  0  0  0
  2  4  1  0  0  0  0
  2 34  1  0  0  0  0
  3 35  1  0  0  0  0
  3 36  1  0  0  0  0
  3 37  1  0  0  0  0
  4  5  1  0  0  0  0
  5  6  1  0  0  0  0
  5 30  2  0  0  0  0
  6  7  2  0  0  0  0
  6 38  1  0  0  0  0
  7  8  1  0  0  0  0
  7  9  1  0  0  0  0
  9 10  2  0  0  0  0
  9 39  1  0  0  0  0
 10 11  1  0  0  0  0
 10 30  1  0  0  0  0
 11 12  1  0  0  0  0
 11 20  1  0  0  0  0
 12 13  1  0  0  0  0
 12 40  1  0  0  0  0
 12 41  1  0  0  0  0
 13 14  1  0  0  0  0
 13 42  1  0  0  0  0
 13 43  1  0  0  0  0
 14 15  1  0  0  0  0
 14 19  1  0  0  0  0
 14 44  1  0  0  0  0
 15 16  1  0  0  0  0
 15 45  1  0  0  0  0
 15 46  1  0  0  0  0
 16 17  1  0  0  0  0
 16 47  1  0  0  0  0
 16 48  1  0  0  0  0
 17 18  1  0  0  0  0
 17 49  1  0  0  0  0
 17 50  1  0  0  0  0
 18 19  1  0  0  0  0
 18 51  1  0  0  0  0
 18 52  1  0  0  0  0
 19 53  1  0  0  0  0
 19 54  1  0  0  0  0
 20 21  2  0  0  0  0
 20 22  1  0  0  0  0
 22 23  1  0  0  0  0
 22 55  1  0  0  0  0
 23 24  1  0  0  0  0
 23 28  2  0  0  0  0
 24 25  2  0  0  0  0
 24 56  1  0  0  0  0
 25 26  1  0  0  0  0
 26 27  2  0  0  0  0
 26 57  1  0  0  0  0
 27 28  1  0  0  0  0
 27 58  1  0  0  0  0
 28 29  1  0  0  0  0
 29 59  1  0  0  0  0
 29 60  1  0  0  0  0
 29 61  1  0  0  0  0
 30 62  1  0  0  0  0
M  END
$$$$
