
 OpenBabel07202414193D

 40 43  0  0  1  0  0  0  0  0999 V2000
    3.2567    0.9909   -1.8791 F   0  0  0  0  0  0  0  0  0  0  0  0
    3.3492    0.5847   -0.6067 C   0  0  0  0  0  0  0  0  0  0  0  0
    3.0773    1.4834    0.4130 C   0  0  0  0  0  0  0  0  0  0  0  0
    3.1539    1.0517    1.7311 C   0  0  0  0  0  0  0  0  0  0  0  0
    3.5024   -0.2803    2.0223 C   0  0  0  0  0  0  0  0  0  0  0  0
    3.5443   -0.7248    3.3446 C   0  0  0  0  0  0  0  0  0  0  0  0
    3.8346   -1.9806    3.7199 N   0  0  0  0  0  0  0  0  0  0  0  0
    4.1639   -2.8422    2.7301 C   0  0  0  0  0  0  0  0  0  0  0  0
    4.2151   -2.5261    1.3696 C   0  0  0  0  0  0  0  0  0  0  0  0
    4.6617   -3.4652    0.3893 N   0  0  0  0  0  0  0  0  0  0  0  0
    5.4553   -4.5718    0.6583 C   0  0  0  0  0  0  0  0  0  0  0  0
    5.8592   -4.8833    1.7788 O   0  0  0  0  0  0  0  0  0  0  0  0
    5.7550   -5.5050   -0.5178 C   0  0  1  0  0  0  0  0  0  0  0  0
    4.5719   -6.4918   -0.6295 C   0  0  0  0  0  0  0  0  0  0  0  0
    4.1195   -6.8321   -2.0387 C   0  0  0  0  0  0  0  0  0  0  0  0
    5.1928   -6.7501   -3.0118 N   0  0  0  0  0  0  0  0  0  0  0  0
    5.7841   -5.4740   -3.0278 C   0  0  0  0  0  0  0  0  0  0  0  0
    6.1470   -4.9300   -4.2628 C   0  0  0  0  0  0  0  0  0  0  0  0
    6.9482   -3.7924   -4.3234 C   0  0  0  0  0  0  0  0  0  0  0  0
    7.3068   -3.1454   -5.8833 Cl  0  0  0  0  0  0  0  0  0  0  0  0
    7.4428   -3.2404   -3.1389 C   0  0  0  0  0  0  0  0  0  0  0  0
    8.5850   -1.9443   -3.1426 Cl  0  0  0  0  0  0  0  0  0  0  0  0
    7.0474   -3.7634   -1.8961 C   0  0  0  0  0  0  0  0  0  0  0  0
    6.1675   -4.8569   -1.8275 C   0  0  0  0  0  0  0  0  0  0  0  0
    3.8127   -1.2051    0.9973 C   0  0  0  0  0  0  0  0  0  0  0  0
    3.7184   -0.7317   -0.3338 C   0  0  0  0  0  0  0  0  0  0  0  0
    2.8014    2.5073    0.1766 H   0  0  0  0  0  0  0  0  0  0  0  0
    2.9377    1.7563    2.5317 H   0  0  0  0  0  0  0  0  0  0  0  0
    3.3266   -0.0515    4.1742 H   0  0  0  0  0  0  0  0  0  0  0  0
    4.3631   -3.8435    3.0999 H   0  0  0  0  0  0  0  0  0  0  0  0
    4.5550   -3.2101   -0.5804 H   0  0  0  0  0  0  0  0  0  0  0  0
    6.6369   -6.0882   -0.2119 H   0  0  0  0  0  0  0  0  0  0  0  0
    3.6940   -6.1332   -0.0761 H   0  0  0  0  0  0  0  0  0  0  0  0
    4.8632   -7.4181   -0.1169 H   0  0  0  0  0  0  0  0  0  0  0  0
    3.3079   -6.1648   -2.3517 H   0  0  0  0  0  0  0  0  0  0  0  0
    3.7063   -7.8473   -2.0559 H   0  0  0  0  0  0  0  0  0  0  0  0
    5.9208   -7.4432   -2.8150 H   0  0  0  0  0  0  0  0  0  0  0  0
    5.7952   -5.4093   -5.1744 H   0  0  0  0  0  0  0  0  0  0  0  0
    7.4676   -3.3364   -0.9862 H   0  0  0  0  0  0  0  0  0  0  0  0
    3.9170   -1.3664   -1.1919 H   0  0  0  0  0  0  0  0  0  0  0  0
  1  2  1  0  0  0  0
  2  3  1  0  0  0  0
  2 26  2  0  0  0  0
  3  4  2  0  0  0  0
  3 27  1  0  0  0  0
  4  5  1  0  0  0  0
  4 28  1  0  0  0  0
  5  6  1  0  0  0  0
  5 25  2  0  0  0  0
  6  7  2  0  0  0  0
  6 29  1  0  0  0  0
  7  8  1  0  0  0  0
  8  9  2  0  0  0  0
  8 30  1  0  0  0  0
  9 10  1  0  0  0  0
  9 25  1  0  0  0  0
 10 11  1  0  0  0  0
 10 31  1  0  0  0  0
 11 12  2  0  0  0  0
 11 13  1  0  0  0  0
 13 14  1  0  0  0  0
 13 24  1  0  0  0  0
 13 32  1  1  0  0  0
 14 15  1  0  0  0  0
 14 33  1  0  0  0  0
 14 34  1  0  0  0  0
 15 16  1  0  0  0  0
 15 35  1  0  0  0  0
 15 36  1  0  0  0  0
 16 17  1  0  0  0  0
 16 37  1  0  0  0  0
 17 18  1  0  0  0  0
 17 24  2  0  0  0  0
 18 19  2  0  0  0  0
 18 38  1  0  0  0  0
 19 20  1  0  0  0  0
 19 21  1  0  0  0  0
 21 22  1  0  0  0  0
 21 23  2  0  0  0  0
 23 24  1  0  0  0  0
 23 39  1  0  0  0  0
 25 26  1  0  0  0  0
 26 40  1  0  0  0  0
M  END
$$$$
