
 OpenBabel07202414173D

 54 56  0  0  0  0  0  0  0  0999 V2000
    0.8789   -1.8567    3.7023 Cl  0  0  0  0  0  0  0  0  0  0  0  0
    2.3057   -2.1706    2.6940 C   0  0  0  0  0  0  0  0  0  0  0  0
    3.5165   -1.3902    3.1740 C   0  0  0  0  0  0  0  0  0  0  0  0
    3.4512   -0.5229    4.0394 O   0  0  0  0  0  0  0  0  0  0  0  0
    4.7354   -1.7428    2.5938 N   0  0  0  0  0  0  0  0  0  0  0  0
    4.9193   -2.5554    1.3791 C   0  0  0  0  0  0  0  0  0  0  0  0
    6.1153   -3.5296    1.5253 C   0  0  0  0  0  0  0  0  0  0  0  0
    7.3797   -2.8975    1.9827 N   0  0  0  0  0  0  0  0  0  0  0  0
    7.9545   -2.0475    0.9175 C   0  0  0  0  0  0  0  0  0  0  0  0
    9.2433   -1.3330    1.2886 C   0  0  0  0  0  0  0  0  0  0  0  0
    9.1413   -0.0575    1.8918 C   0  0  0  0  0  0  0  0  0  0  0  0
   10.2629    0.6391    2.3236 C   0  0  0  0  0  0  0  0  0  0  0  0
   10.0703    2.1441    3.1365 Cl  0  0  0  0  0  0  0  0  0  0  0  0
   11.5248    0.1106    2.1156 C   0  0  0  0  0  0  0  0  0  0  0  0
   11.6524   -1.1353    1.4896 C   0  0  0  0  0  0  0  0  0  0  0  0
   10.5276   -1.8850    1.0907 C   0  0  0  0  0  0  0  0  0  0  0  0
   10.7660   -3.2529    0.4831 C   0  0  0  0  0  0  0  0  0  0  0  0
   10.9420   -3.2203   -0.9604 N   0  0  0  0  0  0  0  0  0  0  0  0
   11.2722   -4.3958   -1.5910 C   0  0  0  0  0  0  0  0  0  0  0  0
   11.3261   -5.4569   -0.9712 O   0  0  0  0  0  0  0  0  0  0  0  0
   11.4997   -4.3293   -2.9483 N   0  0  0  0  0  0  0  0  0  0  0  0
   11.3698   -3.1646   -3.8286 C   0  0  0  0  0  0  0  0  0  0  0  0
   10.2351   -3.3959   -4.8335 C   0  0  0  0  0  0  0  0  0  0  0  0
   10.4579   -4.5956   -5.5935 O   0  0  0  0  0  0  0  0  0  0  0  0
   10.5418   -5.7426   -4.7281 C   0  0  0  0  0  0  0  0  0  0  0  0
   11.6725   -5.5811   -3.7017 C   0  0  0  0  0  0  0  0  0  0  0  0
    7.0769   -2.1705    3.2402 C   0  0  0  0  0  0  0  0  0  0  0  0
    5.9537   -1.1254    3.1088 C   0  0  0  0  0  0  0  0  0  0  0  0
    2.0659   -1.8875    1.6670 H   0  0  0  0  0  0  0  0  0  0  0  0
    2.5111   -3.2432    2.7612 H   0  0  0  0  0  0  0  0  0  0  0  0
    5.0939   -1.8583    0.5501 H   0  0  0  0  0  0  0  0  0  0  0  0
    4.0161   -3.1138    1.1301 H   0  0  0  0  0  0  0  0  0  0  0  0
    6.2764   -4.0731    0.5843 H   0  0  0  0  0  0  0  0  0  0  0  0
    5.8354   -4.2929    2.2621 H   0  0  0  0  0  0  0  0  0  0  0  0
    7.2404   -1.2894    0.5752 H   0  0  0  0  0  0  0  0  0  0  0  0
    8.1465   -2.6649    0.0319 H   0  0  0  0  0  0  0  0  0  0  0  0
    8.1675    0.3905    2.0588 H   0  0  0  0  0  0  0  0  0  0  0  0
   12.4080    0.6502    2.4484 H   0  0  0  0  0  0  0  0  0  0  0  0
   12.6579   -1.5371    1.3438 H   0  0  0  0  0  0  0  0  0  0  0  0
    9.9574   -3.9465    0.7309 H   0  0  0  0  0  0  0  0  0  0  0  0
   11.6732   -3.6831    0.9232 H   0  0  0  0  0  0  0  0  0  0  0  0
   11.3396   -2.3766   -1.3359 H   0  0  0  0  0  0  0  0  0  0  0  0
   12.3214   -3.0758   -4.3661 H   0  0  0  0  0  0  0  0  0  0  0  0
   11.2044   -2.2381   -3.2772 H   0  0  0  0  0  0  0  0  0  0  0  0
   10.1850   -2.5618   -5.5401 H   0  0  0  0  0  0  0  0  0  0  0  0
    9.2666   -3.4712   -4.3259 H   0  0  0  0  0  0  0  0  0  0  0  0
   10.7264   -6.6185   -5.3581 H   0  0  0  0  0  0  0  0  0  0  0  0
    9.5734   -5.8818   -4.2336 H   0  0  0  0  0  0  0  0  0  0  0  0
   12.6353   -5.5102   -4.2213 H   0  0  0  0  0  0  0  0  0  0  0  0
   11.7062   -6.4558   -3.0451 H   0  0  0  0  0  0  0  0  0  0  0  0
    7.9779   -1.7246    3.6713 H   0  0  0  0  0  0  0  0  0  0  0  0
    6.7574   -2.9143    3.9845 H   0  0  0  0  0  0  0  0  0  0  0  0
    6.2133   -0.3215    2.4147 H   0  0  0  0  0  0  0  0  0  0  0  0
    5.7819   -0.6596    4.0851 H   0  0  0  0  0  0  0  0  0  0  0  0
  1  2  1  0  0  0  0
  2  3  1  0  0  0  0
  2 29  1  0  0  0  0
  2 30  1  0  0  0  0
  3  4  2  0  0  0  0
  3  5  1  0  0  0  0
  5  6  1  0  0  0  0
  5 28  1  0  0  0  0
  6  7  1  0  0  0  0
  6 31  1  0  0  0  0
  6 32  1  0  0  0  0
  7  8  1  0  0  0  0
  7 33  1  0  0  0  0
  7 34  1  0  0  0  0
  8  9  1  0  0  0  0
  8 27  1  0  0  0  0
  9 10  1  0  0  0  0
  9 35  1  0  0  0  0
  9 36  1  0  0  0  0
 10 11  1  0  0  0  0
 10 16  2  0  0  0  0
 11 12  2  0  0  0  0
 11 37  1  0  0  0  0
 12 13  1  0  0  0  0
 12 14  1  0  0  0  0
 14 15  2  0  0  0  0
 14 38  1  0  0  0  0
 15 16  1  0  0  0  0
 15 39  1  0  0  0  0
 16 17  1  0  0  0  0
 17 18  1  0  0  0  0
 17 40  1  0  0  0  0
 17 41  1  0  0  0  0
 18 19  1  0  0  0  0
 18 42  1  0  0  0  0
 19 20  2  0  0  0  0
 19 21  1  0  0  0  0
 21 22  1  0  0  0  0
 21 26  1  0  0  0  0
 22 23  1  0  0  0  0
 22 43  1  0  0  0  0
 22 44  1  0  0  0  0
 23 24  1  0  0  0  0
 23 45  1  0  0  0  0
 23 46  1  0  0  0  0
 24 25  1  0  0  0  0
 25 26  1  0  0  0  0
 25 47  1  0  0  0  0
 25 48  1  0  0  0  0
 26 49  1  0  0  0  0
 26 50  1  0  0  0  0
 27 28  1  0  0  0  0
 27 51  1  0  0  0  0
 27 52  1  0  0  0  0
 28 53  1  0  0  0  0
 28 54  1  0  0  0  0
M  END
$$$$
