
 OpenBabel07202414133D

 38 40  0  0  0  0  0  0  0  0999 V2000
    0.7730   -0.9526    0.4391 C   0  0  0  0  0  0  0  0  0  0  0  0
    2.2916   -1.0537    0.4835 C   0  0  0  0  0  0  0  0  0  0  0  0
    2.8756   -1.1454   -0.9285 C   0  0  0  0  0  0  0  0  0  0  0  0
    4.3824   -1.2210   -0.9331 C   0  0  0  0  0  0  0  0  0  0  0  0
    5.1531   -2.3380   -0.9638 C   0  0  0  0  0  0  0  0  0  0  0  0
    6.5411   -2.2637   -1.0238 N   0  0  0  0  0  0  0  0  0  0  0  0
    7.2185   -1.0765   -1.0502 C   0  0  0  0  0  0  0  0  0  0  0  0
    6.5402    0.0812   -0.9831 C   0  0  0  0  0  0  0  0  0  0  0  0
    5.0836    0.1157   -0.9577 C   0  0  0  0  0  0  0  0  0  0  0  0
    4.4520    1.1667   -0.9631 O   0  0  0  0  0  0  0  0  0  0  0  0
    7.5280    1.1590   -0.8689 C   0  0  0  0  0  0  0  0  0  0  0  0
    7.2611    2.3412   -0.7543 O   0  0  0  0  0  0  0  0  0  0  0  0
    8.7768    0.5224   -0.9185 N   0  0  0  0  0  0  0  0  0  0  0  0
    8.5913   -0.8670   -1.1087 N   0  0  0  0  0  0  0  0  0  0  0  0
   10.0515    1.1242   -0.9320 C   0  0  0  0  0  0  0  0  0  0  0  0
   10.2102    2.4535   -0.5054 C   0  0  0  0  0  0  0  0  0  0  0  0
   11.4490    3.0950   -0.5691 C   0  0  0  0  0  0  0  0  0  0  0  0
   12.5543    2.4161   -1.0664 C   0  0  0  0  0  0  0  0  0  0  0  0
   12.4236    1.0891   -1.4736 C   0  0  0  0  0  0  0  0  0  0  0  0
   11.1832    0.4413   -1.3945 C   0  0  0  0  0  0  0  0  0  0  0  0
    4.5844   -3.7338   -0.9156 C   0  0  0  0  0  0  0  0  0  0  0  0
    0.3639   -0.8797    1.4515 H   0  0  0  0  0  0  0  0  0  0  0  0
    0.3365   -1.8342   -0.0412 H   0  0  0  0  0  0  0  0  0  0  0  0
    0.4554   -0.0660   -0.1195 H   0  0  0  0  0  0  0  0  0  0  0  0
    2.5750   -1.9368    1.0683 H   0  0  0  0  0  0  0  0  0  0  0  0
    2.6918   -0.1776    1.0079 H   0  0  0  0  0  0  0  0  0  0  0  0
    2.5462   -0.2770   -1.5140 H   0  0  0  0  0  0  0  0  0  0  0  0
    2.4446   -2.0039   -1.4543 H   0  0  0  0  0  0  0  0  0  0  0  0
    7.0723   -3.1186   -1.1492 H   0  0  0  0  0  0  0  0  0  0  0  0
    9.0832   -1.4299   -0.4159 H   0  0  0  0  0  0  0  0  0  0  0  0
    9.3732    3.0208   -0.1048 H   0  0  0  0  0  0  0  0  0  0  0  0
   11.5369    4.1281   -0.2415 H   0  0  0  0  0  0  0  0  0  0  0  0
   13.5121    2.9242   -1.1428 H   0  0  0  0  0  0  0  0  0  0  0  0
   13.2866    0.5644   -1.8755 H   0  0  0  0  0  0  0  0  0  0  0  0
   11.1096   -0.5815   -1.7512 H   0  0  0  0  0  0  0  0  0  0  0  0
    3.4927   -3.7628   -0.8969 H   0  0  0  0  0  0  0  0  0  0  0  0
    4.9334   -4.2453   -0.0115 H   0  0  0  0  0  0  0  0  0  0  0  0
    4.9148   -4.3082   -1.7867 H   0  0  0  0  0  0  0  0  0  0  0  0
  1  2  1  0  0  0  0
  1 22  1  0  0  0  0
  1 23  1  0  0  0  0
  1 24  1  0  0  0  0
  2  3  1  0  0  0  0
  2 25  1  0  0  0  0
  2 26  1  0  0  0  0
  3  4  1  0  0  0  0
  3 27  1  0  0  0  0
  3 28  1  0  0  0  0
  4  5  2  0  0  0  0
  4  9  1  0  0  0  0
  5  6  1  0  0  0  0
  5 21  1  0  0  0  0
  6  7  1  0  0  0  0
  6 29  1  0  0  0  0
  7  8  2  0  0  0  0
  7 14  1  0  0  0  0
  8  9  1  0  0  0  0
  8 11  1  0  0  0  0
  9 10  2  0  0  0  0
 11 12  2  0  0  0  0
 11 13  1  0  0  0  0
 13 14  1  0  0  0  0
 13 15  1  0  0  0  0
 14 30  1  0  0  0  0
 15 16  1  0  0  0  0
 15 20  2  0  0  0  0
 16 17  2  0  0  0  0
 16 31  1  0  0  0  0
 17 18  1  0  0  0  0
 17 32  1  0  0  0  0
 18 19  2  0  0  0  0
 18 33  1  0  0  0  0
 19 20  1  0  0  0  0
 19 34  1  0  0  0  0
 20 35  1  0  0  0  0
 21 36  1  0  0  0  0
 21 37  1  0  0  0  0
 21 38  1  0  0  0  0
M  END
$$$$
