
 OpenBabel07202414213D

 11 11  0  0  0  0  0  0  0  0999 V2000
   -1.1655    0.6881   -0.0233 C   0  0  0  0  0  0  0  0  0  0  0  0
   -1.1088   -0.6821   -0.0367 C   0  0  0  0  0  0  0  0  0  0  0  0
    0.0454   -1.3724    0.0104 N   0  0  0  0  0  0  0  0  0  0  0  0
    1.1767   -0.6397    0.0725 C   0  0  0  0  0  0  0  0  0  0  0  0
    1.2423    0.6997    0.0858 N   0  0  0  0  0  0  0  0  0  0  0  0
    0.0536    1.3199    0.0361 C   0  0  0  0  0  0  0  0  0  0  0  0
    0.1474    3.0327    0.0571 Cl  0  0  0  0  0  0  0  0  0  0  0  0
    2.4211   -1.3597    0.1521 C   0  0  0  0  0  0  0  0  0  0  0  0
    3.4256   -1.9437    0.2220 N   0  0  0  0  0  0  0  0  0  0  0  0
   -2.1012    1.2279   -0.0562 H   0  0  0  0  0  0  0  0  0  0  0  0
   -2.0118   -1.2849   -0.0839 H   0  0  0  0  0  0  0  0  0  0  0  0
  1  2  1  0  0  0  0
  1  6  2  0  0  0  0
  1 10  1  0  0  0  0
  2  3  2  0  0  0  0
  2 11  1  0  0  0  0
  3  4  1  0  0  0  0
  4  5  2  0  0  0  0
  4  8  1  0  0  0  0
  5  6  1  0  0  0  0
  6  7  1  0  0  0  0
  8  9  3  0  0  0  0
M  END
$$$$
