
 OpenBabel07202414183D

 39 42  0  0  1  0  0  0  0  0999 V2000
    3.3232    0.7899   -2.2094 F   0  0  0  0  0  0  0  0  0  0  0  0
    3.5110    0.4567   -0.9241 C   0  0  0  0  0  0  0  0  0  0  0  0
    3.3892    1.4298    0.0557 C   0  0  0  0  0  0  0  0  0  0  0  0
    3.5734    1.0663    1.3819 C   0  0  0  0  0  0  0  0  0  0  0  0
    3.8654   -0.2701    1.7243 C   0  0  0  0  0  0  0  0  0  0  0  0
    3.9934   -0.6197    3.0656 C   0  0  0  0  0  0  0  0  0  0  0  0
    4.2431   -1.8646    3.5051 N   0  0  0  0  0  0  0  0  0  0  0  0
    4.4167   -2.8211    2.5615 C   0  0  0  0  0  0  0  0  0  0  0  0
    4.3645   -2.6087    1.1830 C   0  0  0  0  0  0  0  0  0  0  0  0
    4.7130   -3.6359    0.2407 N   0  0  0  0  0  0  0  0  0  0  0  0
    5.3223   -4.8654    0.5413 C   0  0  0  0  0  0  0  0  0  0  0  0
    5.4897   -5.3129    1.6717 O   0  0  0  0  0  0  0  0  0  0  0  0
    5.9159   -5.5679   -0.6970 C   0  0  3  0  0  0  0  0  0  0  0  0
    7.2299   -4.8352   -1.0348 C   0  0  0  0  0  0  0  0  0  0  0  0
    8.4890   -5.6695   -0.8612 C   0  0  0  0  0  0  0  0  0  0  0  0
    8.3774   -6.9885   -1.3673 O   0  0  0  0  0  0  0  0  0  0  0  0
    7.3287   -7.6764   -0.8275 C   0  0  0  0  0  0  0  0  0  0  0  0
    7.5308   -9.0495   -0.6732 C   0  0  0  0  0  0  0  0  0  0  0  0
    6.4564   -9.8636   -0.3405 C   0  0  0  0  0  0  0  0  0  0  0  0
    6.6662  -11.1841   -0.2200 F   0  0  0  0  0  0  0  0  0  0  0  0
    5.1902   -9.3118   -0.1788 C   0  0  0  0  0  0  0  0  0  0  0  0
    3.8314  -10.3426    0.0605 Cl  0  0  0  0  0  0  0  0  0  0  0  0
    5.0077   -7.9226   -0.2622 C   0  0  0  0  0  0  0  0  0  0  0  0
    6.0876   -7.0720   -0.5600 C   0  0  0  0  0  0  0  0  0  0  0  0
    4.0186   -1.2819    0.7421 C   0  0  0  0  0  0  0  0  0  0  0  0
    3.8214   -0.8714   -0.6021 C   0  0  0  0  0  0  0  0  0  0  0  0
    3.1716    2.4573   -0.2211 H   0  0  0  0  0  0  0  0  0  0  0  0
    3.4811    1.8315    2.1492 H   0  0  0  0  0  0  0  0  0  0  0  0
    3.8952    0.1199    3.8575 H   0  0  0  0  0  0  0  0  0  0  0  0
    4.5973   -3.7975    2.9960 H   0  0  0  0  0  0  0  0  0  0  0  0
    4.6367   -3.3861   -0.7351 H   0  0  0  0  0  0  0  0  0  0  0  0
    5.2125   -5.4102   -1.5267 H   0  0  0  0  0  0  0  0  0  0  0  0
    7.3577   -3.9241   -0.4353 H   0  0  0  0  0  0  0  0  0  0  0  0
    7.1695   -4.4989   -2.0765 H   0  0  0  0  0  0  0  0  0  0  0  0
    8.8135   -5.7167    0.1842 H   0  0  0  0  0  0  0  0  0  0  0  0
    9.3019   -5.1920   -1.4215 H   0  0  0  0  0  0  0  0  0  0  0  0
    8.5114   -9.4861   -0.8369 H   0  0  0  0  0  0  0  0  0  0  0  0
    4.0090   -7.5162   -0.1250 H   0  0  0  0  0  0  0  0  0  0  0  0
    3.8867   -1.5695   -1.4298 H   0  0  0  0  0  0  0  0  0  0  0  0
  1  2  1  0  0  0  0
  2  3  1  0  0  0  0
  2 26  2  0  0  0  0
  3  4  2  0  0  0  0
  3 27  1  0  0  0  0
  4  5  1  0  0  0  0
  4 28  1  0  0  0  0
  5  6  1  0  0  0  0
  5 25  2  0  0  0  0
  6  7  2  0  0  0  0
  6 29  1  0  0  0  0
  7  8  1  0  0  0  0
  8  9  2  0  0  0  0
  8 30  1  0  0  0  0
  9 10  1  0  0  0  0
  9 25  1  0  0  0  0
 10 11  1  0  0  0  0
 10 31  1  0  0  0  0
 11 12  2  0  0  0  0
 11 13  1  0  0  0  0
 13 14  1  0  0  0  0
 13 24  1  0  0  0  0
 13 32  1  0  0  0  0
 14 15  1  0  0  0  0
 14 33  1  0  0  0  0
 14 34  1  0  0  0  0
 15 16  1  0  0  0  0
 15 35  1  0  0  0  0
 15 36  1  0  0  0  0
 16 17  1  0  0  0  0
 17 18  1  0  0  0  0
 17 24  2  0  0  0  0
 18 19  2  0  0  0  0
 18 37  1  0  0  0  0
 19 20  1  0  0  0  0
 19 21  1  0  0  0  0
 21 22  1  0  0  0  0
 21 23  2  0  0  0  0
 23 24  1  0  0  0  0
 23 38  1  0  0  0  0
 25 26  1  0  0  0  0
 26 39  1  0  0  0  0
M  END
$$$$
