
 OpenBabel07202414203D

 37 39  0  0  1  0  0  0  0  0999 V2000
    2.4573   -0.7429   -0.1562 C   0  0  0  0  0  0  0  0  0  0  0  0
    1.2239   -1.3973   -0.1601 C   0  0  0  0  0  0  0  0  0  0  0  0
    0.0402   -0.6648   -0.0873 C   0  0  0  0  0  0  0  0  0  0  0  0
    0.0814    0.7334   -0.0367 C   0  0  0  0  0  0  0  0  0  0  0  0
    1.3233    1.3895   -0.0580 C   0  0  0  0  0  0  0  0  0  0  0  0
    2.5015    0.6482   -0.1063 C   0  0  0  0  0  0  0  0  0  0  0  0
    4.0191    1.4565   -0.0704 Cl  0  0  0  0  0  0  0  0  0  0  0  0
   -1.1887    1.5291    0.1396 C   0  0  3  0  0  0  0  0  0  0  0  0
   -2.3928    0.6893   -0.2791 C   0  0  0  0  0  0  0  0  0  0  0  0
   -2.2922   -0.6914    0.3452 C   0  0  0  0  0  0  0  0  0  0  0  0
   -1.1164   -1.3943   -0.0672 O   0  0  0  0  0  0  0  0  0  0  0  0
   -1.3893    2.0706    1.5645 C   0  0  0  0  0  0  0  0  0  0  0  0
   -2.1072    3.0589    1.7344 O   0  0  0  0  0  0  0  0  0  0  0  0
   -0.7699    1.3616    2.5778 N   0  0  0  0  0  0  0  0  0  0  0  0
   -0.8060    1.6351    3.9634 C   0  0  0  0  0  0  0  0  0  0  0  0
   -1.7186    2.5130    4.5441 C   0  0  0  0  0  0  0  0  0  0  0  0
   -1.7640    2.8090    5.8685 N   0  0  0  0  0  0  0  0  0  0  0  0
   -0.8525    2.2079    6.6517 C   0  0  0  0  0  0  0  0  0  0  0  0
    0.0840    1.3047    6.1829 C   0  0  0  0  0  0  0  0  0  0  0  0
    0.1098    0.9847    4.8153 C   0  0  0  0  0  0  0  0  0  0  0  0
    1.1762    0.0308    4.3411 C   0  0  0  0  0  0  0  0  0  0  0  0
    0.6893   -0.7758    3.2736 O   0  0  0  0  0  0  0  0  0  0  0  0
    3.3751   -1.3228   -0.1847 H   0  0  0  0  0  0  0  0  0  0  0  0
    1.1847   -2.4830   -0.1936 H   0  0  0  0  0  0  0  0  0  0  0  0
    1.3689    2.4759   -0.0079 H   0  0  0  0  0  0  0  0  0  0  0  0
   -1.1355    2.4048   -0.5219 H   0  0  0  0  0  0  0  0  0  0  0  0
   -2.3921    0.5842   -1.3725 H   0  0  0  0  0  0  0  0  0  0  0  0
   -3.3347    1.1716    0.0055 H   0  0  0  0  0  0  0  0  0  0  0  0
   -3.1528   -1.2928    0.0328 H   0  0  0  0  0  0  0  0  0  0  0  0
   -2.3190   -0.6502    1.4402 H   0  0  0  0  0  0  0  0  0  0  0  0
   -0.1618    0.5782    2.3312 H   0  0  0  0  0  0  0  0  0  0  0  0
   -2.4896    3.0112    3.9679 H   0  0  0  0  0  0  0  0  0  0  0  0
   -0.8954    2.4777    7.7032 H   0  0  0  0  0  0  0  0  0  0  0  0
    0.7979    0.8695    6.8776 H   0  0  0  0  0  0  0  0  0  0  0  0
    1.4920   -0.6339    5.1535 H   0  0  0  0  0  0  0  0  0  0  0  0
    2.0501    0.5899    3.9906 H   0  0  0  0  0  0  0  0  0  0  0  0
    0.9529   -1.6926    3.4686 H   0  0  0  0  0  0  0  0  0  0  0  0
  1  2  1  0  0  0  0
  1  6  2  0  0  0  0
  1 23  1  0  0  0  0
  2  3  2  0  0  0  0
  2 24  1  0  0  0  0
  3  4  1  0  0  0  0
  3 11  1  0  0  0  0
  4  5  2  0  0  0  0
  4  8  1  0  0  0  0
  5  6  1  0  0  0  0
  5 25  1  0  0  0  0
  6  7  1  0  0  0  0
  8  9  1  0  0  0  0
  8 12  1  0  0  0  0
  8 26  1  0  0  0  0
  9 10  1  0  0  0  0
  9 27  1  0  0  0  0
  9 28  1  0  0  0  0
 10 11  1  0  0  0  0
 10 29  1  0  0  0  0
 10 30  1  0  0  0  0
 12 13  2  0  0  0  0
 12 14  1  0  0  0  0
 14 15  1  0  0  0  0
 14 31  1  0  0  0  0
 15 16  1  0  0  0  0
 15 20  2  0  0  0  0
 16 17  2  0  0  0  0
 16 32  1  0  0  0  0
 17 18  1  0  0  0  0
 18 19  2  0  0  0  0
 18 33  1  0  0  0  0
 19 20  1  0  0  0  0
 19 34  1  0  0  0  0
 20 21  1  0  0  0  0
 21 22  1  0  0  0  0
 21 35  1  0  0  0  0
 21 36  1  0  0  0  0
 22 37  1  0  0  0  0
M  END
$$$$
