
 OpenBabel07202414193D

 47 50  0  0  1  0  0  0  0  0999 V2000
    1.1931    0.4272   -0.5996 O   0  0  0  0  0  0  0  0  0  0  0  0
    2.2109   -0.0319   -0.0748 C   0  0  0  0  0  0  0  0  0  0  0  0
    2.6833    0.5653    1.2450 C   0  0  0  0  0  0  0  0  0  0  0  0
    2.0912   -0.0800    2.4783 C   0  0  0  0  0  0  0  0  0  0  0  0
    0.7651   -0.5263    2.4516 C   0  0  0  0  0  0  0  0  0  0  0  0
    0.1119   -1.0679    3.4998 N   0  0  0  0  0  0  0  0  0  0  0  0
    0.7977   -1.1520    4.6557 C   0  0  0  0  0  0  0  0  0  0  0  0
    2.1121   -0.7231    4.8285 C   0  0  0  0  0  0  0  0  0  0  0  0
    2.7480   -0.8372    6.0778 C   0  0  0  0  0  0  0  0  0  0  0  0
    4.0588   -0.4006    6.2486 C   0  0  0  0  0  0  0  0  0  0  0  0
    4.7388    0.1616    5.1776 C   0  0  0  0  0  0  0  0  0  0  0  0
    4.1121    0.2843    3.9323 C   0  0  0  0  0  0  0  0  0  0  0  0
    2.7849   -0.1662    3.7163 C   0  0  0  0  0  0  0  0  0  0  0  0
    2.9151   -1.0797   -0.6547 N   0  0  0  0  0  0  0  0  0  0  0  0
    2.4829   -1.5247   -1.9959 C   0  0  0  0  0  0  0  0  0  0  0  0
    3.5869   -1.3421   -3.0337 C   0  0  0  0  0  0  0  0  0  0  0  0
    3.2027   -1.8725   -4.2211 F   0  0  0  0  0  0  0  0  0  0  0  0
    3.8157   -0.0220   -3.2500 F   0  0  0  0  0  0  0  0  0  0  0  0
    4.8775   -2.0064   -2.5816 C   0  0  0  0  0  0  0  0  0  0  0  0
    5.2886   -1.5439   -1.1701 C   0  0  2  0  0  0  0  0  0  0  0  0
    6.5357   -2.2655   -0.6606 C   0  0  0  0  0  0  0  0  0  0  0  0
    6.3269   -3.7660   -0.5727 C   0  0  0  0  0  0  0  0  0  0  0  0
    5.0235   -4.1963    0.0956 C   0  0  0  0  0  0  0  0  0  0  0  0
    3.9074   -3.1639    0.3032 C   0  0  0  0  0  0  0  0  0  0  0  0
    4.1534   -1.7116   -0.1421 C   0  0  2  0  0  0  0  0  0  0  0  0
    2.3816    1.6210    1.2436 H   0  0  0  0  0  0  0  0  0  0  0  0
    3.7719    0.5909    1.2518 H   0  0  0  0  0  0  0  0  0  0  0  0
    0.1512   -0.4483    1.5559 H   0  0  0  0  0  0  0  0  0  0  0  0
    0.2325   -1.5836    5.4776 H   0  0  0  0  0  0  0  0  0  0  0  0
    2.2210   -1.2655    6.9276 H   0  0  0  0  0  0  0  0  0  0  0  0
    4.5419   -0.4940    7.2178 H   0  0  0  0  0  0  0  0  0  0  0  0
    5.7606    0.5119    5.3078 H   0  0  0  0  0  0  0  0  0  0  0  0
    4.6863    0.7460    3.1348 H   0  0  0  0  0  0  0  0  0  0  0  0
    1.5901   -0.9886   -2.3294 H   0  0  0  0  0  0  0  0  0  0  0  0
    2.1979   -2.5804   -1.9312 H   0  0  0  0  0  0  0  0  0  0  0  0
    5.6778   -1.7688   -3.2925 H   0  0  0  0  0  0  0  0  0  0  0  0
    4.7335   -3.0912   -2.6249 H   0  0  0  0  0  0  0  0  0  0  0  0
    5.5251   -0.4722   -1.2354 H   0  0  0  0  0  0  0  0  0  0  0  0
    6.8033   -1.8797    0.3317 H   0  0  0  0  0  0  0  0  0  0  0  0
    7.3890   -2.0530   -1.3159 H   0  0  0  0  0  0  0  0  0  0  0  0
    7.1747   -4.2223   -0.0460 H   0  0  0  0  0  0  0  0  0  0  0  0
    6.3642   -4.1922   -1.5829 H   0  0  0  0  0  0  0  0  0  0  0  0
    5.2648   -4.6414    1.0705 H   0  0  0  0  0  0  0  0  0  0  0  0
    4.6091   -5.0292   -0.4888 H   0  0  0  0  0  0  0  0  0  0  0  0
    3.6645   -3.1413    1.3754 H   0  0  0  0  0  0  0  0  0  0  0  0
    2.9955   -3.5637   -0.1556 H   0  0  0  0  0  0  0  0  0  0  0  0
    4.4760   -1.1851    0.7592 H   0  0  0  0  0  0  0  0  0  0  0  0
  1  2  2  0  0  0  0
  2  3  1  0  0  0  0
  2 14  1  0  0  0  0
  3  4  1  0  0  0  0
  3 26  1  0  0  0  0
  3 27  1  0  0  0  0
  4  5  1  0  0  0  0
  4 13  2  0  0  0  0
  5  6  2  0  0  0  0
  5 28  1  0  0  0  0
  6  7  1  0  0  0  0
  7  8  2  0  0  0  0
  7 29  1  0  0  0  0
  8  9  1  0  0  0  0
  8 13  1  0  0  0  0
  9 10  2  0  0  0  0
  9 30  1  0  0  0  0
 10 11  1  0  0  0  0
 10 31  1  0  0  0  0
 11 12  2  0  0  0  0
 11 32  1  0  0  0  0
 12 13  1  0  0  0  0
 12 33  1  0  0  0  0
 14 15  1  0  0  0  0
 14 25  1  0  0  0  0
 15 16  1  0  0  0  0
 15 34  1  0  0  0  0
 15 35  1  0  0  0  0
 16 17  1  0  0  0  0
 16 18  1  0  0  0  0
 16 19  1  0  0  0  0
 19 20  1  0  0  0  0
 19 36  1  0  0  0  0
 19 37  1  0  0  0  0
 20 21  1  0  0  0  0
 20 25  1  0  0  0  0
 20 38  1  6  0  0  0
 21 22  1  0  0  0  0
 21 39  1  0  0  0  0
 21 40  1  0  0  0  0
 22 23  1  0  0  0  0
 22 41  1  0  0  0  0
 22 42  1  0  0  0  0
 23 24  1  0  0  0  0
 23 43  1  0  0  0  0
 23 44  1  0  0  0  0
 24 25  1  0  0  0  0
 24 45  1  0  0  0  0
 24 46  1  0  0  0  0
 25 47  1  1  0  0  0
M  END
$$$$
