
 OpenBabel07202414153D

 38 40  0  0  0  0  0  0  0  0999 V2000
    1.0262    0.0189    0.8713 C   0  0  0  0  0  0  0  0  0  0  0  0
    2.2286    0.1889    0.1255 O   0  0  0  0  0  0  0  0  0  0  0  0
    2.9438    1.3312    0.3712 C   0  0  0  0  0  0  0  0  0  0  0  0
    2.7202    2.2035    1.4281 C   0  0  0  0  0  0  0  0  0  0  0  0
    3.5294    3.3253    1.5803 C   0  0  0  0  0  0  0  0  0  0  0  0
    4.5770    3.5832    0.6826 C   0  0  0  0  0  0  0  0  0  0  0  0
    5.3807    4.7042    0.8645 C   0  0  0  0  0  0  0  0  0  0  0  0
    6.4184    5.0364    0.0767 N   0  0  0  0  0  0  0  0  0  0  0  0
    6.6573    4.2167   -0.9727 C   0  0  0  0  0  0  0  0  0  0  0  0
    5.9138    3.0758   -1.2891 C   0  0  0  0  0  0  0  0  0  0  0  0
    6.2181    2.2771   -2.4317 N   0  0  0  0  0  0  0  0  0  0  0  0
    7.0951    2.6234   -3.4542 C   0  0  0  0  0  0  0  0  0  0  0  0
    7.7007    3.6870   -3.5568 O   0  0  0  0  0  0  0  0  0  0  0  0
    7.2416    1.5647   -4.5342 C   0  0  0  0  0  0  0  0  0  0  0  0
    6.1458    1.6550   -5.5682 C   0  0  0  0  0  0  0  0  0  0  0  0
    5.9689    2.8302   -6.3170 C   0  0  0  0  0  0  0  0  0  0  0  0
    4.9221    2.9382   -7.2334 C   0  0  0  0  0  0  0  0  0  0  0  0
    4.0483    1.8686   -7.4205 C   0  0  0  0  0  0  0  0  0  0  0  0
    4.2357    0.6887   -6.7033 C   0  0  0  0  0  0  0  0  0  0  0  0
    3.1634   -0.6355   -6.9355 Cl  0  0  0  0  0  0  0  0  0  0  0  0
    5.2816    0.5745   -5.7855 C   0  0  0  0  0  0  0  0  0  0  0  0
    4.8382    2.7240   -0.4137 C   0  0  0  0  0  0  0  0  0  0  0  0
    3.9873    1.5910   -0.5360 C   0  0  0  0  0  0  0  0  0  0  0  0
    0.5477   -0.9056    0.5341 H   0  0  0  0  0  0  0  0  0  0  0  0
    0.3299    0.8438    0.6843 H   0  0  0  0  0  0  0  0  0  0  0  0
    1.2296   -0.0891    1.9425 H   0  0  0  0  0  0  0  0  0  0  0  0
    1.9356    2.0404    2.1599 H   0  0  0  0  0  0  0  0  0  0  0  0
    3.3396    3.9989    2.4143 H   0  0  0  0  0  0  0  0  0  0  0  0
    5.2141    5.3935    1.6881 H   0  0  0  0  0  0  0  0  0  0  0  0
    7.5187    4.5329   -1.5487 H   0  0  0  0  0  0  0  0  0  0  0  0
    5.6697    1.4416   -2.5693 H   0  0  0  0  0  0  0  0  0  0  0  0
    7.2683    0.5743   -4.0654 H   0  0  0  0  0  0  0  0  0  0  0  0
    8.2143    1.6991   -5.0222 H   0  0  0  0  0  0  0  0  0  0  0  0
    6.6383    3.6792   -6.1775 H   0  0  0  0  0  0  0  0  0  0  0  0
    4.7838    3.8602   -7.7932 H   0  0  0  0  0  0  0  0  0  0  0  0
    3.2254    1.9605   -8.1244 H   0  0  0  0  0  0  0  0  0  0  0  0
    5.4147   -0.3556   -5.2385 H   0  0  0  0  0  0  0  0  0  0  0  0
    4.1170    0.8816   -1.3476 H   0  0  0  0  0  0  0  0  0  0  0  0
  1  2  1  0  0  0  0
  1 24  1  0  0  0  0
  1 25  1  0  0  0  0
  1 26  1  0  0  0  0
  2  3  1  0  0  0  0
  3  4  1  0  0  0  0
  3 23  2  0  0  0  0
  4  5  2  0  0  0  0
  4 27  1  0  0  0  0
  5  6  1  0  0  0  0
  5 28  1  0  0  0  0
  6  7  1  0  0  0  0
  6 22  2  0  0  0  0
  7  8  2  0  0  0  0
  7 29  1  0  0  0  0
  8  9  1  0  0  0  0
  9 10  2  0  0  0  0
  9 30  1  0  0  0  0
 10 11  1  0  0  0  0
 10 22  1  0  0  0  0
 11 12  1  0  0  0  0
 11 31  1  0  0  0  0
 12 13  2  0  0  0  0
 12 14  1  0  0  0  0
 14 15  1  0  0  0  0
 14 32  1  0  0  0  0
 14 33  1  0  0  0  0
 15 16  1  0  0  0  0
 15 21  2  0  0  0  0
 16 17  2  0  0  0  0
 16 34  1  0  0  0  0
 17 18  1  0  0  0  0
 17 35  1  0  0  0  0
 18 19  2  0  0  0  0
 18 36  1  0  0  0  0
 19 20  1  0  0  0  0
 19 21  1  0  0  0  0
 21 37  1  0  0  0  0
 22 23  1  0  0  0  0
 23 38  1  0  0  0  0
M  END
$$$$
