
 OpenBabel07202414153D

 61 66  0  0  1  0  0  0  0  0999 V2000
    2.6299   -0.0128   -1.4376 C   0  0  0  0  0  0  0  0  0  0  0  0
    2.5972   -0.1360    0.0883 C   0  0  1  0  0  0  0  0  0  0  0  0
    3.1029   -1.5012    0.5183 C   0  0  0  0  0  0  0  0  0  0  0  0
    3.9901   -1.3011    1.6336 N   0  0  0  0  0  0  0  0  0  0  0  0
    4.5879   -2.4447    2.2612 C   0  0  0  0  0  0  0  0  0  0  0  0
    3.7732   -3.5774    2.4193 C   0  0  0  0  0  0  0  0  0  0  0  0
    4.1723   -4.7973    2.8313 N   0  0  0  0  0  0  0  0  0  0  0  0
    5.4579   -4.8872    3.2068 C   0  0  0  0  0  0  0  0  0  0  0  0
    6.3493   -3.8178    3.2411 C   0  0  0  0  0  0  0  0  0  0  0  0
    7.6261   -4.0022    3.7928 C   0  0  0  0  0  0  0  0  0  0  0  0
    8.5375   -2.9556    3.8359 C   0  0  0  0  0  0  0  0  0  0  0  0
    8.2102   -1.7482    3.2391 C   0  0  0  0  0  0  0  0  0  0  0  0
    6.9504   -1.5683    2.6574 C   0  0  0  0  0  0  0  0  0  0  0  0
    5.9392   -2.5605    2.7158 C   0  0  0  0  0  0  0  0  0  0  0  0
    4.2181    0.0436    1.9060 C   0  0  0  0  0  0  0  0  0  0  0  0
    4.9304    0.4862    2.7983 O   0  0  0  0  0  0  0  0  0  0  0  0
    3.3611    0.9265    0.9704 C   0  0  2  0  0  0  0  0  0  0  0  0
    2.2674    1.6461    1.8210 C   0  0  0  0  0  0  0  0  0  0  0  0
    2.6144    3.0155    2.2997 N   0  0  0  0  0  0  0  0  0  0  0  0
    3.6175    3.1139    3.6721 S   0  0  0  0  0  0  0  0  0  0  0  0
    3.2453    2.0213    4.5467 O   0  0  0  0  0  0  0  0  0  0  0  0
    4.9666    3.3380    3.2098 O   0  0  0  0  0  0  0  0  0  0  0  0
    3.0380    4.6133    4.4690 C   0  0  0  0  0  0  0  0  0  0  0  0
    3.9033    4.7973    5.7002 C   0  0  0  0  0  0  0  0  0  0  0  0
    5.2771    5.1886    5.4574 C   0  0  0  0  0  0  0  0  0  0  0  0
    6.3615    5.5670    5.2985 N   0  0  0  0  0  0  0  0  0  0  0  0
    3.2596    5.4738    6.9085 C   0  0  0  0  0  0  0  0  0  0  0  0
    3.5891    4.0144    6.9666 C   0  0  0  0  0  0  0  0  0  0  0  0
    2.9460    3.8992    1.1632 C   0  0  0  0  0  0  0  0  0  0  0  0
    3.9544    3.3053    0.2076 C   0  0  0  0  0  0  0  0  0  0  0  0
    4.6433    4.1757   -0.6570 C   0  0  0  0  0  0  0  0  0  0  0  0
    5.6028    3.6880   -1.5411 C   0  0  0  0  0  0  0  0  0  0  0  0
    5.9070    2.3329   -1.5384 C   0  0  0  0  0  0  0  0  0  0  0  0
    7.0722    1.7182   -2.6449 Cl  0  0  0  0  0  0  0  0  0  0  0  0
    5.2426    1.4576   -0.6774 C   0  0  0  0  0  0  0  0  0  0  0  0
    4.2081    1.9151    0.1610 C   0  0  0  0  0  0  0  0  0  0  0  0
    1.9380   -0.7373   -1.8841 H   0  0  0  0  0  0  0  0  0  0  0  0
    3.6140   -0.2404   -1.8577 H   0  0  0  0  0  0  0  0  0  0  0  0
    2.3207    0.9830   -1.7672 H   0  0  0  0  0  0  0  0  0  0  0  0
    1.5289   -0.1155    0.3461 H   0  0  0  0  0  0  0  0  0  0  0  0
    3.6647   -2.0135   -0.2717 H   0  0  0  0  0  0  0  0  0  0  0  0
    2.2447   -2.1209    0.7954 H   0  0  0  0  0  0  0  0  0  0  0  0
    2.7020   -3.5300    2.2503 H   0  0  0  0  0  0  0  0  0  0  0  0
    5.7660   -5.8880    3.5000 H   0  0  0  0  0  0  0  0  0  0  0  0
    7.9061   -4.9590    4.2288 H   0  0  0  0  0  0  0  0  0  0  0  0
    9.4986   -3.0847    4.3253 H   0  0  0  0  0  0  0  0  0  0  0  0
    8.9239   -0.9281    3.2383 H   0  0  0  0  0  0  0  0  0  0  0  0
    6.7720   -0.6115    2.1767 H   0  0  0  0  0  0  0  0  0  0  0  0
    1.9182    1.0239    2.6523 H   0  0  0  0  0  0  0  0  0  0  0  0
    1.3722    1.8021    1.1975 H   0  0  0  0  0  0  0  0  0  0  0  0
    1.9847    4.4604    4.7261 H   0  0  0  0  0  0  0  0  0  0  0  0
    3.1386    5.4559    3.7813 H   0  0  0  0  0  0  0  0  0  0  0  0
    2.2147    5.7572    6.8620 H   0  0  0  0  0  0  0  0  0  0  0  0
    3.8619    6.1458    7.5144 H   0  0  0  0  0  0  0  0  0  0  0  0
    2.7665    3.3064    6.9588 H   0  0  0  0  0  0  0  0  0  0  0  0
    4.4152    3.6954    7.5961 H   0  0  0  0  0  0  0  0  0  0  0  0
    3.2978    4.8678    1.5349 H   0  0  0  0  0  0  0  0  0  0  0  0
    2.0208    4.1038    0.6082 H   0  0  0  0  0  0  0  0  0  0  0  0
    4.4397    5.2450   -0.6410 H   0  0  0  0  0  0  0  0  0  0  0  0
    6.1163    4.3696   -2.2137 H   0  0  0  0  0  0  0  0  0  0  0  0
    5.5112    0.4035   -0.6961 H   0  0  0  0  0  0  0  0  0  0  0  0
  1 37  1  0  0  0  0
  1 38  1  0  0  0  0
  1 39  1  0  0  0  0
  2  3  1  0  0  0  0
  2 17  1  0  0  0  0
  2  1  1  0  0  0  0
  2 40  1  1  0  0  0
  3  4  1  0  0  0  0
  3 41  1  0  0  0  0
  3 42  1  0  0  0  0
  4  5  1  0  0  0  0
  4 15  1  0  0  0  0
  5  6  1  0  0  0  0
  5 14  2  0  0  0  0
  6  7  2  0  0  0  0
  6 43  1  0  0  0  0
  7  8  1  0  0  0  0
  8  9  2  0  0  0  0
  8 44  1  0  0  0  0
  9 10  1  0  0  0  0
  9 14  1  0  0  0  0
 10 11  2  0  0  0  0
 10 45  1  0  0  0  0
 11 12  1  0  0  0  0
 11 46  1  0  0  0  0
 12 13  2  0  0  0  0
 12 47  1  0  0  0  0
 13 14  1  0  0  0  0
 13 48  1  0  0  0  0
 15 16  2  0  0  0  0
 17 15  1  1  0  0  0
 17 18  1  0  0  0  0
 17 36  1  0  0  0  0
 18 19  1  0  0  0  0
 18 49  1  0  0  0  0
 18 50  1  0  0  0  0
 19 20  1  0  0  0  0
 19 29  1  0  0  0  0
 20 21  2  0  0  0  0
 20 22  2  0  0  0  0
 20 23  1  0  0  0  0
 23 24  1  0  0  0  0
 23 51  1  0  0  0  0
 23 52  1  0  0  0  0
 24 25  1  0  0  0  0
 24 27  1  0  0  0  0
 24 28  1  0  0  0  0
 25 26  3  0  0  0  0
 27 28  1  0  0  0  0
 27 53  1  0  0  0  0
 27 54  1  0  0  0  0
 28 55  1  0  0  0  0
 28 56  1  0  0  0  0
 29 30  1  0  0  0  0
 29 57  1  0  0  0  0
 29 58  1  0  0  0  0
 30 31  1  0  0  0  0
 30 36  2  0  0  0  0
 31 32  2  0  0  0  0
 31 59  1  0  0  0  0
 32 33  1  0  0  0  0
 32 60  1  0  0  0  0
 33 34  1  0  0  0  0
 33 35  2  0  0  0  0
 35 36  1  0  0  0  0
 35 61  1  0  0  0  0
M  END
$$$$
