
 OpenBabel07202414203D

 49 51  0  0  0  0  0  0  0  0999 V2000
   -0.0708   -0.3022   -0.9724 C   0  0  0  0  0  0  0  0  0  0  0  0
    0.6235    0.9103   -0.9766 C   0  0  0  0  0  0  0  0  0  0  0  0
    1.5821    1.1894    0.0086 C   0  0  0  0  0  0  0  0  0  0  0  0
    1.8467    0.2284    0.9895 C   0  0  0  0  0  0  0  0  0  0  0  0
    1.1291   -0.9714    1.0072 C   0  0  0  0  0  0  0  0  0  0  0  0
    0.1723   -1.2420    0.0267 C   0  0  0  0  0  0  0  0  0  0  0  0
    1.3968   -2.1109    2.2667 Cl  0  0  0  0  0  0  0  0  0  0  0  0
    2.2655    2.4445    0.0373 N   0  0  0  0  0  0  0  0  0  0  0  0
    3.7472    2.4288   -0.0142 C   0  0  0  0  0  0  0  0  0  0  0  0
    4.3852    3.1982    1.1583 C   0  0  0  0  0  0  0  0  0  0  0  0
    5.9326    3.3015    1.1723 C   0  0  0  0  0  0  0  0  0  0  0  0
    6.3483    4.0914    2.4337 C   0  0  0  0  0  0  0  0  0  0  0  0
    7.8516    4.3314    2.5368 C   0  0  0  0  0  0  0  0  0  0  0  0
    8.4007    4.9945    1.2806 C   0  0  0  0  0  0  0  0  0  0  0  0
    8.0400    4.1894    0.0374 C   0  0  0  0  0  0  0  0  0  0  0  0
    6.5269    3.9686   -0.0829 C   0  0  0  0  0  0  0  0  0  0  0  0
    1.6378    3.6829   -0.1874 C   0  0  0  0  0  0  0  0  0  0  0  0
    2.2983    4.6665   -0.5260 O   0  0  0  0  0  0  0  0  0  0  0  0
    0.2881    3.7249    0.1073 N   0  0  0  0  0  0  0  0  0  0  0  0
   -0.5356    4.8755    0.1308 C   0  0  0  0  0  0  0  0  0  0  0  0
   -0.1245    6.1369   -0.2936 C   0  0  0  0  0  0  0  0  0  0  0  0
   -0.9690    7.2378   -0.1538 C   0  0  0  0  0  0  0  0  0  0  0  0
   -2.2238    7.0381    0.3910 C   0  0  0  0  0  0  0  0  0  0  0  0
   -2.6848    5.8298    0.7771 N   0  0  0  0  0  0  0  0  0  0  0  0
   -1.8326    4.7834    0.6366 C   0  0  0  0  0  0  0  0  0  0  0  0
   -0.8043   -0.5162   -1.7512 H   0  0  0  0  0  0  0  0  0  0  0  0
    0.4271    1.6227   -1.7765 H   0  0  0  0  0  0  0  0  0  0  0  0
    2.5694    0.4297    1.7768 H   0  0  0  0  0  0  0  0  0  0  0  0
   -0.3819   -2.1794    0.0396 H   0  0  0  0  0  0  0  0  0  0  0  0
    4.0356    2.8923   -0.9647 H   0  0  0  0  0  0  0  0  0  0  0  0
    4.1188    1.3974   -0.0363 H   0  0  0  0  0  0  0  0  0  0  0  0
    4.0610    2.7180    2.0907 H   0  0  0  0  0  0  0  0  0  0  0  0
    3.9809    4.2158    1.1953 H   0  0  0  0  0  0  0  0  0  0  0  0
    6.3469    2.2873    1.2464 H   0  0  0  0  0  0  0  0  0  0  0  0
    6.0105    3.5604    3.3300 H   0  0  0  0  0  0  0  0  0  0  0  0
    5.8422    5.0662    2.4353 H   0  0  0  0  0  0  0  0  0  0  0  0
    8.3660    3.3759    2.7024 H   0  0  0  0  0  0  0  0  0  0  0  0
    8.0630    4.9625    3.4059 H   0  0  0  0  0  0  0  0  0  0  0  0
    9.4898    5.0927    1.3611 H   0  0  0  0  0  0  0  0  0  0  0  0
    7.9966    6.0108    1.1925 H   0  0  0  0  0  0  0  0  0  0  0  0
    8.5512    3.2192    0.0749 H   0  0  0  0  0  0  0  0  0  0  0  0
    8.4123    4.7095   -0.8527 H   0  0  0  0  0  0  0  0  0  0  0  0
    6.3373    3.3508   -0.9676 H   0  0  0  0  0  0  0  0  0  0  0  0
    6.0402    4.9365   -0.2568 H   0  0  0  0  0  0  0  0  0  0  0  0
   -0.1107    2.8789    0.4984 H   0  0  0  0  0  0  0  0  0  0  0  0
    0.8534    6.3100   -0.7306 H   0  0  0  0  0  0  0  0  0  0  0  0
   -0.6411    8.2255   -0.4567 H   0  0  0  0  0  0  0  0  0  0  0  0
   -2.9070    7.8708    0.5364 H   0  0  0  0  0  0  0  0  0  0  0  0
   -2.2432    3.8370    0.9755 H   0  0  0  0  0  0  0  0  0  0  0  0
  1  2  1  0  0  0  0
  1  6  2  0  0  0  0
  1 26  1  0  0  0  0
  2  3  2  0  0  0  0
  2 27  1  0  0  0  0
  3  4  1  0  0  0  0
  3  8  1  0  0  0  0
  4  5  2  0  0  0  0
  4 28  1  0  0  0  0
  5  6  1  0  0  0  0
  5  7  1  0  0  0  0
  6 29  1  0  0  0  0
  8  9  1  0  0  0  0
  8 17  1  0  0  0  0
  9 10  1  0  0  0  0
  9 30  1  0  0  0  0
  9 31  1  0  0  0  0
 10 11  1  0  0  0  0
 10 32  1  0  0  0  0
 10 33  1  0  0  0  0
 11 12  1  0  0  0  0
 11 16  1  0  0  0  0
 11 34  1  0  0  0  0
 12 13  1  0  0  0  0
 12 35  1  0  0  0  0
 12 36  1  0  0  0  0
 13 14  1  0  0  0  0
 13 37  1  0  0  0  0
 13 38  1  0  0  0  0
 14 15  1  0  0  0  0
 14 39  1  0  0  0  0
 14 40  1  0  0  0  0
 15 16  1  0  0  0  0
 15 41  1  0  0  0  0
 15 42  1  0  0  0  0
 16 43  1  0  0  0  0
 16 44  1  0  0  0  0
 17 18  2  0  0  0  0
 17 19  1  0  0  0  0
 19 20  1  0  0  0  0
 19 45  1  0  0  0  0
 20 21  1  0  0  0  0
 20 25  2  0  0  0  0
 21 22  2  0  0  0  0
 21 46  1  0  0  0  0
 22 23  1  0  0  0  0
 22 47  1  0  0  0  0
 23 24  2  0  0  0  0
 23 48  1  0  0  0  0
 24 25  1  0  0  0  0
 25 49  1  0  0  0  0
M  END
$$$$
