
 OpenBabel07202414153D

 38 40  0  0  0  0  0  0  0  0999 V2000
    6.6059    5.0338    1.9145 C   0  0  0  0  0  0  0  0  0  0  0  0
    5.8879    3.8054    1.8014 O   0  0  0  0  0  0  0  0  0  0  0  0
    6.6471    2.6645    1.7334 C   0  0  0  0  0  0  0  0  0  0  0  0
    7.9908    2.5940    2.1263 C   0  0  0  0  0  0  0  0  0  0  0  0
    8.7098    1.4042    1.9917 C   0  0  0  0  0  0  0  0  0  0  0  0
    8.0913    0.2822    1.4535 C   0  0  0  0  0  0  0  0  0  0  0  0
    6.7465    0.3275    1.0884 C   0  0  0  0  0  0  0  0  0  0  0  0
    5.9986    1.5079    1.2578 C   0  0  0  0  0  0  0  0  0  0  0  0
    4.5135    1.4793    0.9611 C   0  0  0  0  0  0  0  0  0  0  0  0
    4.1494    1.7371   -0.4871 C   0  0  0  0  0  0  0  0  0  0  0  0
    3.8996    0.8190   -1.2636 O   0  0  0  0  0  0  0  0  0  0  0  0
    4.1454    3.0788   -0.8211 N   0  0  0  0  0  0  0  0  0  0  0  0
    3.8463    3.5405   -2.1253 C   0  0  0  0  0  0  0  0  0  0  0  0
    2.7353    3.0657   -2.8259 C   0  0  0  0  0  0  0  0  0  0  0  0
    2.3573    3.5063   -4.0491 N   0  0  0  0  0  0  0  0  0  0  0  0
    3.1477    4.4404   -4.6205 C   0  0  0  0  0  0  0  0  0  0  0  0
    4.2992    4.9728   -4.0352 C   0  0  0  0  0  0  0  0  0  0  0  0
    4.6554    4.5219   -2.7406 C   0  0  0  0  0  0  0  0  0  0  0  0
    5.8512    5.0246   -2.1770 C   0  0  0  0  0  0  0  0  0  0  0  0
    6.6542    5.9411   -2.8539 C   0  0  0  0  0  0  0  0  0  0  0  0
    6.2784    6.3851   -4.1186 C   0  0  0  0  0  0  0  0  0  0  0  0
    5.1082    5.9068   -4.7033 C   0  0  0  0  0  0  0  0  0  0  0  0
    8.9858   -1.1744    1.2658 Cl  0  0  0  0  0  0  0  0  0  0  0  0
    5.8784    5.8501    1.8949 H   0  0  0  0  0  0  0  0  0  0  0  0
    7.2807    5.1659    1.0625 H   0  0  0  0  0  0  0  0  0  0  0  0
    7.1501    5.1040    2.8621 H   0  0  0  0  0  0  0  0  0  0  0  0
    8.5091    3.4418    2.5631 H   0  0  0  0  0  0  0  0  0  0  0  0
    9.7489    1.3627    2.3092 H   0  0  0  0  0  0  0  0  0  0  0  0
    6.2709   -0.5647    0.6853 H   0  0  0  0  0  0  0  0  0  0  0  0
    3.9727    2.1875    1.5998 H   0  0  0  0  0  0  0  0  0  0  0  0
    4.1103    0.4942    1.2302 H   0  0  0  0  0  0  0  0  0  0  0  0
    4.7048    3.6744   -0.2223 H   0  0  0  0  0  0  0  0  0  0  0  0
    2.0683    2.3233   -2.3932 H   0  0  0  0  0  0  0  0  0  0  0  0
    2.8242    4.7530   -5.6108 H   0  0  0  0  0  0  0  0  0  0  0  0
    6.2016    4.6745   -1.2102 H   0  0  0  0  0  0  0  0  0  0  0  0
    7.5743    6.2940   -2.4034 H   0  0  0  0  0  0  0  0  0  0  0  0
    6.9081    7.0901   -4.6559 H   0  0  0  0  0  0  0  0  0  0  0  0
    4.8412    6.2481   -5.7012 H   0  0  0  0  0  0  0  0  0  0  0  0
  1  2  1  0  0  0  0
  1 24  1  0  0  0  0
  1 25  1  0  0  0  0
  1 26  1  0  0  0  0
  2  3  1  0  0  0  0
  3  4  1  0  0  0  0
  3  8  2  0  0  0  0
  4  5  2  0  0  0  0
  4 27  1  0  0  0  0
  5  6  1  0  0  0  0
  5 28  1  0  0  0  0
  6  7  2  0  0  0  0
  6 23  1  0  0  0  0
  7  8  1  0  0  0  0
  7 29  1  0  0  0  0
  8  9  1  0  0  0  0
  9 10  1  0  0  0  0
  9 30  1  0  0  0  0
  9 31  1  0  0  0  0
 10 11  2  0  0  0  0
 10 12  1  0  0  0  0
 12 13  1  0  0  0  0
 12 32  1  0  0  0  0
 13 14  1  0  0  0  0
 13 18  2  0  0  0  0
 14 15  2  0  0  0  0
 14 33  1  0  0  0  0
 15 16  1  0  0  0  0
 16 17  2  0  0  0  0
 16 34  1  0  0  0  0
 17 18  1  0  0  0  0
 17 22  1  0  0  0  0
 18 19  1  0  0  0  0
 19 20  2  0  0  0  0
 19 35  1  0  0  0  0
 20 21  1  0  0  0  0
 20 36  1  0  0  0  0
 21 22  2  0  0  0  0
 21 37  1  0  0  0  0
 22 38  1  0  0  0  0
M  END
$$$$
