
 OpenBabel07202414153D

 39 42  0  0  1  0  0  0  0  0999 V2000
    3.0436   -0.3250    1.5517 C   0  0  0  0  0  0  0  0  0  0  0  0
    2.6327   -0.0117    0.1103 C   0  0  1  0  0  0  0  0  0  0  0  0
    3.0600    1.4260   -0.2461 C   0  0  0  0  0  0  0  0  0  0  0  0
    3.0963    1.6718   -1.7494 C   0  0  0  0  0  0  0  0  0  0  0  0
    4.0548    0.6749   -2.3531 C   0  0  1  0  0  0  0  0  0  0  0  0
    3.6063   -0.6688   -2.1239 N   0  0  0  0  0  0  0  0  0  0  0  0
    3.1463   -1.1251   -0.8308 C   0  0  0  0  0  0  0  0  0  0  0  0
    3.6934   -1.4473   -3.2702 C   0  0  0  0  0  0  0  0  0  0  0  0
    3.3886   -2.6293   -3.3137 O   0  0  0  0  0  0  0  0  0  0  0  0
    4.0681   -0.6186   -4.3083 N   0  0  0  0  0  0  0  0  0  0  0  0
    4.0805   -1.0026   -5.6698 C   0  0  0  0  0  0  0  0  0  0  0  0
    3.3663   -0.2303   -6.5940 C   0  0  0  0  0  0  0  0  0  0  0  0
    3.2741   -0.4985   -7.9130 N   0  0  0  0  0  0  0  0  0  0  0  0
    3.9537   -1.5786   -8.3493 C   0  0  0  0  0  0  0  0  0  0  0  0
    4.7322   -2.4078   -7.5392 C   0  0  0  0  0  0  0  0  0  0  0  0
    5.4497   -3.4848   -8.0986 C   0  0  0  0  0  0  0  0  0  0  0  0
    6.2553   -4.2893   -7.3017 C   0  0  0  0  0  0  0  0  0  0  0  0
    6.3545   -4.0284   -5.9410 C   0  0  0  0  0  0  0  0  0  0  0  0
    5.6469   -2.9627   -5.3789 C   0  0  0  0  0  0  0  0  0  0  0  0
    4.8007   -2.1248   -6.1564 C   0  0  0  0  0  0  0  0  0  0  0  0
    4.1205    0.6869   -3.8702 C   0  0  0  0  0  0  0  0  0  0  0  0
    4.2783    1.7011   -4.5381 O   0  0  0  0  0  0  0  0  0  0  0  0
    2.6571    0.4298    2.2444 H   0  0  0  0  0  0  0  0  0  0  0  0
    4.1361   -0.3422    1.6499 H   0  0  0  0  0  0  0  0  0  0  0  0
    2.6624   -1.3022    1.8637 H   0  0  0  0  0  0  0  0  0  0  0  0
    1.5349   -0.0338    0.0656 H   0  0  0  0  0  0  0  0  0  0  0  0
    4.0531    1.6386    0.1705 H   0  0  0  0  0  0  0  0  0  0  0  0
    2.3694    2.1382    0.2222 H   0  0  0  0  0  0  0  0  0  0  0  0
    3.4195    2.6968   -1.9614 H   0  0  0  0  0  0  0  0  0  0  0  0
    2.0916    1.5566   -2.1760 H   0  0  0  0  0  0  0  0  0  0  0  0
    5.0714    0.7799   -1.9541 H   0  0  0  0  0  0  0  0  0  0  0  0
    3.9656   -1.6954   -0.3807 H   0  0  0  0  0  0  0  0  0  0  0  0
    2.3351   -1.8447   -1.0054 H   0  0  0  0  0  0  0  0  0  0  0  0
    2.7906    0.6380   -6.2838 H   0  0  0  0  0  0  0  0  0  0  0  0
    3.8629   -1.7577   -9.4167 H   0  0  0  0  0  0  0  0  0  0  0  0
    5.3912   -3.6895   -9.1652 H   0  0  0  0  0  0  0  0  0  0  0  0
    6.8097   -5.1141   -7.7423 H   0  0  0  0  0  0  0  0  0  0  0  0
    6.9872   -4.6498   -5.3126 H   0  0  0  0  0  0  0  0  0  0  0  0
    5.7696   -2.7900   -4.3137 H   0  0  0  0  0  0  0  0  0  0  0  0
  1 23  1  0  0  0  0
  1 24  1  0  0  0  0
  1 25  1  0  0  0  0
  2  3  1  0  0  0  0
  2  7  1  0  0  0  0
  2  1  1  0  0  0  0
  2 26  1  6  0  0  0
  3  4  1  0  0  0  0
  3 27  1  0  0  0  0
  3 28  1  0  0  0  0
  4  5  1  0  0  0  0
  4 29  1  0  0  0  0
  4 30  1  0  0  0  0
  5  6  1  0  0  0  0
  5 21  1  0  0  0  0
  5 31  1  1  0  0  0
  6  7  1  0  0  0  0
  6  8  1  0  0  0  0
  7 32  1  0  0  0  0
  7 33  1  0  0  0  0
  8  9  2  0  0  0  0
  8 10  1  0  0  0  0
 10 11  1  0  0  0  0
 10 21  1  0  0  0  0
 11 12  1  0  0  0  0
 11 20  2  0  0  0  0
 12 13  2  0  0  0  0
 12 34  1  0  0  0  0
 13 14  1  0  0  0  0
 14 15  2  0  0  0  0
 14 35  1  0  0  0  0
 15 16  1  0  0  0  0
 15 20  1  0  0  0  0
 16 17  2  0  0  0  0
 16 36  1  0  0  0  0
 17 18  1  0  0  0  0
 17 37  1  0  0  0  0
 18 19  2  0  0  0  0
 18 38  1  0  0  0  0
 19 20  1  0  0  0  0
 19 39  1  0  0  0  0
 21 22  2  0  0  0  0
M  END
$$$$
