
 OpenBabel07202414123D

 64 66  0  0  1  0  0  0  0  0999 V2000
   -1.1882    8.7801   -2.9447 C   0  0  0  0  0  0  0  0  0  0  0  0
   -0.6425    7.9057   -4.1053 C   0  0  0  0  0  0  0  0  0  0  0  0
   -1.7624    6.9674   -4.5859 C   0  0  0  0  0  0  0  0  0  0  0  0
   -0.2900    8.8935   -5.2407 C   0  0  0  0  0  0  0  0  0  0  0  0
    0.5545    7.0343   -3.6855 C   0  0  0  0  0  0  0  0  0  0  0  0
    0.7060    6.6124   -2.3668 C   0  0  0  0  0  0  0  0  0  0  0  0
    1.8385    5.8967   -1.9445 C   0  0  0  0  0  0  0  0  0  0  0  0
    2.8785    5.5259   -2.8095 C   0  0  0  0  0  0  0  0  0  0  0  0
    4.1453    4.9383   -2.3213 N   0  0  0  0  0  0  0  0  0  0  0  0
    5.3600    5.0729   -3.2069 C   0  0  1  0  0  0  0  0  0  0  0  0
    6.4469    6.0423   -2.6136 C   0  0  0  0  0  0  0  0  0  0  0  0
    7.1174    5.7794   -1.6162 O   0  0  0  0  0  0  0  0  0  0  0  0
    6.6923    7.2082   -3.3229 N   0  0  0  0  0  0  0  0  0  0  0  0
    7.7203    8.1460   -2.8660 C   0  0  0  0  0  0  0  0  0  0  0  0
    9.1420    7.7253   -3.2754 C   0  0  0  0  0  0  0  0  0  0  0  0
   10.2250    8.6601   -2.7711 C   0  0  0  0  0  0  0  0  0  0  0  0
   10.7997    8.4542   -1.5061 C   0  0  0  0  0  0  0  0  0  0  0  0
   11.8286    9.2791   -1.0414 C   0  0  0  0  0  0  0  0  0  0  0  0
   12.2859   10.3367   -1.8296 C   0  0  0  0  0  0  0  0  0  0  0  0
   11.7020   10.5563   -3.0812 C   0  0  0  0  0  0  0  0  0  0  0  0
   12.1341   11.5655   -3.8390 F   0  0  0  0  0  0  0  0  0  0  0  0
   10.6792    9.7263   -3.5457 C   0  0  0  0  0  0  0  0  0  0  0  0
    5.9500    3.7744   -3.7786 C   0  0  0  0  0  0  0  0  0  0  0  0
    5.1712    2.6394   -4.0368 C   0  0  0  0  0  0  0  0  0  0  0  0
    5.6863    1.5919   -4.8071 C   0  0  0  0  0  0  0  0  0  0  0  0
    6.9767    1.6985   -5.2945 C   0  0  0  0  0  0  0  0  0  0  0  0
    7.7843    2.7391   -5.0168 N   0  0  0  0  0  0  0  0  0  0  0  0
    7.2616    3.7396   -4.2666 C   0  0  0  0  0  0  0  0  0  0  0  0
    4.2117    4.4256   -1.0072 C   0  0  0  0  0  0  0  0  0  0  0  0
    3.2606    4.3529   -0.2257 O   0  0  0  0  0  0  0  0  0  0  0  0
    5.4994    3.9018   -0.4759 C   0  0  0  0  0  0  0  0  0  0  0  0
    5.7189    3.9522    0.8477 C   0  0  0  0  0  0  0  0  0  0  0  0
    2.6257    5.7892   -4.1658 C   0  0  0  0  0  0  0  0  0  0  0  0
    1.5079    6.5497   -4.5910 C   0  0  0  0  0  0  0  0  0  0  0  0
   -2.0087    9.4243   -3.2835 H   0  0  0  0  0  0  0  0  0  0  0  0
   -0.4051    9.4323   -2.5379 H   0  0  0  0  0  0  0  0  0  0  0  0
   -1.5909    8.1834   -2.1197 H   0  0  0  0  0  0  0  0  0  0  0  0
   -2.6591    7.5285   -4.8703 H   0  0  0  0  0  0  0  0  0  0  0  0
   -2.0479    6.2562   -3.8021 H   0  0  0  0  0  0  0  0  0  0  0  0
   -1.4429    6.3847   -5.4576 H   0  0  0  0  0  0  0  0  0  0  0  0
   -1.1525    9.5230   -5.4955 H   0  0  0  0  0  0  0  0  0  0  0  0
    0.0071    8.3838   -6.1623 H   0  0  0  0  0  0  0  0  0  0  0  0
    0.5271    9.5611   -4.9449 H   0  0  0  0  0  0  0  0  0  0  0  0
   -0.0404    6.8359   -1.6087 H   0  0  0  0  0  0  0  0  0  0  0  0
    1.8485    5.6926   -0.8807 H   0  0  0  0  0  0  0  0  0  0  0  0
    5.0498    5.5883   -4.1206 H   0  0  0  0  0  0  0  0  0  0  0  0
    5.9646    7.5711   -3.9286 H   0  0  0  0  0  0  0  0  0  0  0  0
    7.6463    8.2324   -1.7748 H   0  0  0  0  0  0  0  0  0  0  0  0
    7.4771    9.1233   -3.2933 H   0  0  0  0  0  0  0  0  0  0  0  0
    9.2064    7.6627   -4.3698 H   0  0  0  0  0  0  0  0  0  0  0  0
    9.3604    6.7109   -2.9183 H   0  0  0  0  0  0  0  0  0  0  0  0
   10.4573    7.6310   -0.8812 H   0  0  0  0  0  0  0  0  0  0  0  0
   12.2745    9.1003   -0.0701 H   0  0  0  0  0  0  0  0  0  0  0  0
   13.0832   10.9844   -1.4930 H   0  0  0  0  0  0  0  0  0  0  0  0
   10.2608    9.9300   -4.5275 H   0  0  0  0  0  0  0  0  0  0  0  0
    4.1482    2.5655   -3.6746 H   0  0  0  0  0  0  0  0  0  0  0  0
    5.0830    0.7229   -5.0483 H   0  0  0  0  0  0  0  0  0  0  0  0
    7.4021    0.9383   -5.9448 H   0  0  0  0  0  0  0  0  0  0  0  0
    7.9663    4.5514   -4.1012 H   0  0  0  0  0  0  0  0  0  0  0  0
    6.2389    3.4743   -1.1330 H   0  0  0  0  0  0  0  0  0  0  0  0
    4.9915    4.3860    1.5308 H   0  0  0  0  0  0  0  0  0  0  0  0
    6.6374    3.5732    1.2802 H   0  0  0  0  0  0  0  0  0  0  0  0
    3.2565    5.3886   -4.9544 H   0  0  0  0  0  0  0  0  0  0  0  0
    1.3991    6.7408   -5.6566 H   0  0  0  0  0  0  0  0  0  0  0  0
  1  2  1  0  0  0  0
  1 35  1  0  0  0  0
  1 36  1  0  0  0  0
  1 37  1  0  0  0  0
  2  3  1  0  0  0  0
  2  4  1  0  0  0  0
  2  5  1  0  0  0  0
  3 38  1  0  0  0  0
  3 39  1  0  0  0  0
  3 40  1  0  0  0  0
  4 41  1  0  0  0  0
  4 42  1  0  0  0  0
  4 43  1  0  0  0  0
  5  6  1  0  0  0  0
  5 34  2  0  0  0  0
  6  7  2  0  0  0  0
  6 44  1  0  0  0  0
  7  8  1  0  0  0  0
  7 45  1  0  0  0  0
  8  9  1  0  0  0  0
  8 33  2  0  0  0  0
  9 10  1  0  0  0  0
  9 29  1  0  0  0  0
 10 11  1  0  0  0  0
 10 23  1  0  0  0  0
 10 46  1  6  0  0  0
 11 12  2  0  0  0  0
 11 13  1  0  0  0  0
 13 14  1  0  0  0  0
 13 47  1  0  0  0  0
 14 15  1  0  0  0  0
 14 48  1  0  0  0  0
 14 49  1  0  0  0  0
 15 16  1  0  0  0  0
 15 50  1  0  0  0  0
 15 51  1  0  0  0  0
 16 17  1  0  0  0  0
 16 22  2  0  0  0  0
 17 18  2  0  0  0  0
 17 52  1  0  0  0  0
 18 19  1  0  0  0  0
 18 53  1  0  0  0  0
 19 20  2  0  0  0  0
 19 54  1  0  0  0  0
 20 21  1  0  0  0  0
 20 22  1  0  0  0  0
 22 55  1  0  0  0  0
 23 24  1  0  0  0  0
 23 28  2  0  0  0  0
 24 25  2  0  0  0  0
 24 56  1  0  0  0  0
 25 26  1  0  0  0  0
 25 57  1  0  0  0  0
 26 27  2  0  0  0  0
 26 58  1  0  0  0  0
 27 28  1  0  0  0  0
 28 59  1  0  0  0  0
 29 30  2  0  0  0  0
 29 31  1  0  0  0  0
 31 32  2  0  0  0  0
 31 60  1  0  0  0  0
 32 61  1  0  0  0  0
 32 62  1  0  0  0  0
 33 34  1  0  0  0  0
 33 63  1  0  0  0  0
 34 64  1  0  0  0  0
M  END
$$$$
