
 OpenBabel07202414123D

 60 63  0  0  1  0  0  0  0  0999 V2000
    1.2504    0.5906    0.6735 C   0  0  0  0  0  0  0  0  0  0  0  0
    2.7265    0.2122    0.6259 C   0  0  0  0  0  0  0  0  0  0  0  0
    3.0055   -0.9677    1.5557 C   0  0  0  0  0  0  0  0  0  0  0  0
    3.0663   -0.1225   -0.7303 O   0  0  0  0  0  0  0  0  0  0  0  0
    4.3616    0.0725   -1.1410 C   0  0  0  0  0  0  0  0  0  0  0  0
    5.3744    0.6110   -0.3529 C   0  0  0  0  0  0  0  0  0  0  0  0
    6.6759    0.7116   -0.8392 C   0  0  0  0  0  0  0  0  0  0  0  0
    6.9996    0.2499   -2.1185 C   0  0  0  0  0  0  0  0  0  0  0  0
    8.3680    0.1504   -2.4936 N   0  0  0  0  0  0  0  0  0  0  0  0
    8.8859    0.9427   -3.6451 C   0  0  3  0  0  0  0  0  0  0  0  0
    9.0380    0.1613   -4.9867 C   0  0  0  0  0  0  0  0  0  0  0  0
    9.4237    0.7123   -6.0194 O   0  0  0  0  0  0  0  0  0  0  0  0
    8.6831   -1.1694   -4.9754 N   0  0  0  0  0  0  0  0  0  0  0  0
    8.7602   -1.9589   -6.1932 C   0  0  0  0  0  0  0  0  0  0  0  0
    7.7325   -3.0881   -6.1901 C   0  0  0  0  0  0  0  0  0  0  0  0
    7.8111   -3.9134   -7.4301 C   0  0  0  0  0  0  0  0  0  0  0  0
    7.1617   -3.7673   -8.6408 C   0  0  0  0  0  0  0  0  0  0  0  0
    7.5388   -4.8141   -9.5299 C   0  0  0  0  0  0  0  0  0  0  0  0
    8.4150   -5.7044   -9.0748 N   0  0  0  0  0  0  0  0  0  0  0  0
    8.8182   -5.2969   -7.5196 S   0  0  0  0  0  0  0  0  0  0  0  0
    8.2400    2.3085   -3.8891 C   0  0  0  0  0  0  0  0  0  0  0  0
    8.7662    3.4810   -3.3320 C   0  0  0  0  0  0  0  0  0  0  0  0
    8.2660    4.7247   -3.7217 C   0  0  0  0  0  0  0  0  0  0  0  0
    7.2334    4.7608   -4.6429 C   0  0  0  0  0  0  0  0  0  0  0  0
    6.6660    3.6586   -5.1689 N   0  0  0  0  0  0  0  0  0  0  0  0
    7.1830    2.4667   -4.7879 C   0  0  0  0  0  0  0  0  0  0  0  0
    9.3128   -0.5294   -1.6790 C   0  0  0  0  0  0  0  0  0  0  0  0
   10.5218   -0.4552   -1.9304 O   0  0  0  0  0  0  0  0  0  0  0  0
    8.8712   -1.3711   -0.5611 C   0  0  0  0  0  0  0  0  0  0  0  0
    9.6108   -1.6295    0.5758 C   0  0  0  0  0  0  0  0  0  0  0  0
    8.8725   -2.4093    1.4141 O   0  0  0  0  0  0  0  0  0  0  0  0
    7.7195   -2.6212    0.7246 C   0  0  0  0  0  0  0  0  0  0  0  0
    7.6725   -2.0623   -0.4648 N   0  0  0  0  0  0  0  0  0  0  0  0
    5.9789   -0.2268   -2.9427 C   0  0  0  0  0  0  0  0  0  0  0  0
    4.6660   -0.3258   -2.4477 C   0  0  0  0  0  0  0  0  0  0  0  0
    0.9493    0.8434    1.6961 H   0  0  0  0  0  0  0  0  0  0  0  0
    0.6127   -0.2172    0.3031 H   0  0  0  0  0  0  0  0  0  0  0  0
    1.0682    1.4663    0.0408 H   0  0  0  0  0  0  0  0  0  0  0  0
    3.2571    1.1057    0.9689 H   0  0  0  0  0  0  0  0  0  0  0  0
    2.5791   -1.8960    1.1605 H   0  0  0  0  0  0  0  0  0  0  0  0
    2.5963   -0.7904    2.5557 H   0  0  0  0  0  0  0  0  0  0  0  0
    4.0819   -1.1368    1.6623 H   0  0  0  0  0  0  0  0  0  0  0  0
    5.2147    0.9329    0.6686 H   0  0  0  0  0  0  0  0  0  0  0  0
    7.4415    1.1080   -0.1772 H   0  0  0  0  0  0  0  0  0  0  0  0
    9.9337    1.1767   -3.4066 H   0  0  0  0  0  0  0  0  0  0  0  0
    8.7502   -1.6500   -4.0854 H   0  0  0  0  0  0  0  0  0  0  0  0
    9.7826   -2.3441   -6.2687 H   0  0  0  0  0  0  0  0  0  0  0  0
    8.5933   -1.3084   -7.0611 H   0  0  0  0  0  0  0  0  0  0  0  0
    6.7245   -2.6615   -6.1024 H   0  0  0  0  0  0  0  0  0  0  0  0
    7.8717   -3.7141   -5.3000 H   0  0  0  0  0  0  0  0  0  0  0  0
    6.4647   -2.9742   -8.8768 H   0  0  0  0  0  0  0  0  0  0  0  0
    7.1756   -4.9500  -10.5408 H   0  0  0  0  0  0  0  0  0  0  0  0
    9.6032    3.4426   -2.6383 H   0  0  0  0  0  0  0  0  0  0  0  0
    8.6903    5.6467   -3.3394 H   0  0  0  0  0  0  0  0  0  0  0  0
    6.8343    5.7041   -5.0052 H   0  0  0  0  0  0  0  0  0  0  0  0
    6.7262    1.6159   -5.2875 H   0  0  0  0  0  0  0  0  0  0  0  0
   10.5880   -1.3358    0.9288 H   0  0  0  0  0  0  0  0  0  0  0  0
    6.9638   -3.2200    1.2179 H   0  0  0  0  0  0  0  0  0  0  0  0
    6.1866   -0.6024   -3.9399 H   0  0  0  0  0  0  0  0  0  0  0  0
    3.8893   -0.7567   -3.0747 H   0  0  0  0  0  0  0  0  0  0  0  0
  1  2  1  0  0  0  0
  1 36  1  0  0  0  0
  1 37  1  0  0  0  0
  1 38  1  0  0  0  0
  2  3  1  0  0  0  0
  2  4  1  0  0  0  0
  2 39  1  0  0  0  0
  3 40  1  0  0  0  0
  3 41  1  0  0  0  0
  3 42  1  0  0  0  0
  4  5  1  0  0  0  0
  5  6  1  0  0  0  0
  5 35  2  0  0  0  0
  6  7  2  0  0  0  0
  6 43  1  0  0  0  0
  7  8  1  0  0  0  0
  7 44  1  0  0  0  0
  8  9  1  0  0  0  0
  8 34  2  0  0  0  0
  9 10  1  0  0  0  0
  9 27  1  0  0  0  0
 10 11  1  0  0  0  0
 10 21  1  0  0  0  0
 10 45  1  0  0  0  0
 11 12  2  0  0  0  0
 11 13  1  0  0  0  0
 13 14  1  0  0  0  0
 13 46  1  0  0  0  0
 14 15  1  0  0  0  0
 14 47  1  0  0  0  0
 14 48  1  0  0  0  0
 15 16  1  0  0  0  0
 15 49  1  0  0  0  0
 15 50  1  0  0  0  0
 16 17  2  0  0  0  0
 16 20  1  0  0  0  0
 17 18  1  0  0  0  0
 17 51  1  0  0  0  0
 18 19  2  0  0  0  0
 18 52  1  0  0  0  0
 19 20  1  0  0  0  0
 21 22  1  0  0  0  0
 21 26  2  0  0  0  0
 22 23  2  0  0  0  0
 22 53  1  0  0  0  0
 23 24  1  0  0  0  0
 23 54  1  0  0  0  0
 24 25  2  0  0  0  0
 24 55  1  0  0  0  0
 25 26  1  0  0  0  0
 26 56  1  0  0  0  0
 27 28  2  0  0  0  0
 27 29  1  0  0  0  0
 29 30  2  0  0  0  0
 29 33  1  0  0  0  0
 30 31  1  0  0  0  0
 30 57  1  0  0  0  0
 31 32  1  0  0  0  0
 32 33  2  0  0  0  0
 32 58  1  0  0  0  0
 34 35  1  0  0  0  0
 34 59  1  0  0  0  0
 35 60  1  0  0  0  0
M  END
$$$$
