
 OpenBabel07202414173D

 60 64  0  0  1  0  0  0  0  0999 V2000
    0.8926    0.0205    0.1591 Cl  0  0  0  0  0  0  0  0  0  0  0  0
    2.6071   -0.0683    0.0395 C   0  0  0  0  0  0  0  0  0  0  0  0
    3.3599    1.1008    0.1033 C   0  0  0  0  0  0  0  0  0  0  0  0
    4.7499    1.0251    0.0717 C   0  0  0  0  0  0  0  0  0  0  0  0
    5.3900   -0.2198   -0.0274 C   0  0  0  0  0  0  0  0  0  0  0  0
    4.6278   -1.3936   -0.1900 C   0  0  0  0  0  0  0  0  0  0  0  0
    3.2290   -1.3089   -0.1101 C   0  0  0  0  0  0  0  0  0  0  0  0
    5.3288   -2.7381   -0.3458 C   0  0  1  0  0  0  0  0  0  0  0  0
    4.7824   -3.6040   -1.4932 C   0  0  0  0  0  0  0  0  0  0  0  0
    4.3618   -3.1200   -2.5414 O   0  0  0  0  0  0  0  0  0  0  0  0
    4.8635   -4.9636   -1.2202 N   0  0  0  0  0  0  0  0  0  0  0  0
    4.2864   -6.0342   -1.9603 C   0  0  0  0  0  0  0  0  0  0  0  0
    3.4823   -5.8339   -3.0837 C   0  0  0  0  0  0  0  0  0  0  0  0
    2.7618   -6.8040   -3.6960 N   0  0  0  0  0  0  0  0  0  0  0  0
    2.8837   -8.0499   -3.1985 C   0  0  0  0  0  0  0  0  0  0  0  0
    3.7464   -8.4039   -2.1649 C   0  0  0  0  0  0  0  0  0  0  0  0
    3.9080   -9.7519   -1.7923 C   0  0  0  0  0  0  0  0  0  0  0  0
    4.7996  -10.1116   -0.7856 C   0  0  0  0  0  0  0  0  0  0  0  0
    5.5110   -9.1248   -0.1204 C   0  0  0  0  0  0  0  0  0  0  0  0
    5.3462   -7.7794   -0.4729 C   0  0  0  0  0  0  0  0  0  0  0  0
    4.4699   -7.3760   -1.5147 C   0  0  0  0  0  0  0  0  0  0  0  0
    6.8545   -2.5948   -0.5563 C   0  0  0  0  0  0  0  0  0  0  0  0
    7.4089   -1.6082    0.3860 N   0  0  0  0  0  0  0  0  0  0  0  0
    8.8826   -1.5460    0.4172 C   0  0  0  0  0  0  0  0  0  0  0  0
    9.5474   -2.9257    0.5924 C   0  0  0  0  0  0  0  0  0  0  0  0
    9.3879   -3.6251    1.5900 O   0  0  0  0  0  0  0  0  0  0  0  0
   10.3287   -3.3890   -0.4404 N   0  0  0  0  0  0  0  0  0  0  0  0
   10.5051   -2.6990   -1.6922 C   0  0  0  0  0  0  0  0  0  0  0  0
   11.4083   -3.3581   -2.6885 C   0  0  0  0  0  0  0  0  0  0  0  0
   10.9088   -4.3105   -3.5949 C   0  0  0  0  0  0  0  0  0  0  0  0
    9.2981   -4.9316   -3.4704 Cl  0  0  0  0  0  0  0  0  0  0  0  0
   11.6936   -4.7695   -4.6561 C   0  0  0  0  0  0  0  0  0  0  0  0
   12.9939   -4.2997   -4.8208 C   0  0  0  0  0  0  0  0  0  0  0  0
   13.5260   -3.4037   -3.8987 C   0  0  0  0  0  0  0  0  0  0  0  0
   12.7468   -2.9479   -2.8328 C   0  0  0  0  0  0  0  0  0  0  0  0
   13.4962   -1.8389   -1.7344 Cl  0  0  0  0  0  0  0  0  0  0  0  0
    6.8971   -0.2732    0.0161 C   0  0  0  0  0  0  0  0  0  0  0  0
    2.8745    2.0680    0.1945 H   0  0  0  0  0  0  0  0  0  0  0  0
    5.3351    1.9396    0.1427 H   0  0  0  0  0  0  0  0  0  0  0  0
    2.6201   -2.2082   -0.1618 H   0  0  0  0  0  0  0  0  0  0  0  0
    5.1624   -3.2686    0.6031 H   0  0  0  0  0  0  0  0  0  0  0  0
    5.2889   -5.2186   -0.3394 H   0  0  0  0  0  0  0  0  0  0  0  0
    3.3586   -4.8617   -3.5483 H   0  0  0  0  0  0  0  0  0  0  0  0
    2.2471   -8.7889   -3.6828 H   0  0  0  0  0  0  0  0  0  0  0  0
    3.3573  -10.5396   -2.3079 H   0  0  0  0  0  0  0  0  0  0  0  0
    4.9458  -11.1576   -0.5290 H   0  0  0  0  0  0  0  0  0  0  0  0
    6.2132   -9.3939    0.6648 H   0  0  0  0  0  0  0  0  0  0  0  0
    5.9524   -7.0602    0.0623 H   0  0  0  0  0  0  0  0  0  0  0  0
    7.0848   -2.3166   -1.5943 H   0  0  0  0  0  0  0  0  0  0  0  0
    7.2994   -3.5840   -0.3955 H   0  0  0  0  0  0  0  0  0  0  0  0
    9.2111   -0.9333    1.2656 H   0  0  0  0  0  0  0  0  0  0  0  0
    9.2426   -1.0322   -0.4749 H   0  0  0  0  0  0  0  0  0  0  0  0
   10.7134   -4.3181   -0.2991 H   0  0  0  0  0  0  0  0  0  0  0  0
   10.8731   -1.6937   -1.4689 H   0  0  0  0  0  0  0  0  0  0  0  0
    9.5153   -2.5365   -2.1341 H   0  0  0  0  0  0  0  0  0  0  0  0
   11.2859   -5.4781   -5.3741 H   0  0  0  0  0  0  0  0  0  0  0  0
   13.5923   -4.6308   -5.6657 H   0  0  0  0  0  0  0  0  0  0  0  0
   14.5450   -3.0443   -4.0257 H   0  0  0  0  0  0  0  0  0  0  0  0
    7.2764    0.0382   -0.9676 H   0  0  0  0  0  0  0  0  0  0  0  0
    7.2488    0.4546    0.7584 H   0  0  0  0  0  0  0  0  0  0  0  0
  1  2  1  0  0  0  0
  2  3  1  0  0  0  0
  2  7  2  0  0  0  0
  3  4  2  0  0  0  0
  3 38  1  0  0  0  0
  4  5  1  0  0  0  0
  4 39  1  0  0  0  0
  5  6  2  0  0  0  0
  5 37  1  0  0  0  0
  6  7  1  0  0  0  0
  6  8  1  0  0  0  0
  7 40  1  0  0  0  0
  8 22  1  0  0  0  0
  8  9  1  0  0  0  0
  8 41  1  1  0  0  0
  9 10  2  0  0  0  0
  9 11  1  0  0  0  0
 11 12  1  0  0  0  0
 11 42  1  0  0  0  0
 12 13  1  0  0  0  0
 12 21  2  0  0  0  0
 13 14  2  0  0  0  0
 13 43  1  0  0  0  0
 14 15  1  0  0  0  0
 15 16  2  0  0  0  0
 15 44  1  0  0  0  0
 16 17  1  0  0  0  0
 16 21  1  0  0  0  0
 17 18  2  0  0  0  0
 17 45  1  0  0  0  0
 18 19  1  0  0  0  0
 18 46  1  0  0  0  0
 19 20  2  0  0  0  0
 19 47  1  0  0  0  0
 20 21  1  0  0  0  0
 20 48  1  0  0  0  0
 22 23  1  0  0  0  0
 22 49  1  0  0  0  0
 22 50  1  0  0  0  0
 23 24  1  0  0  0  0
 23 37  1  0  0  0  0
 24 25  1  0  0  0  0
 24 51  1  0  0  0  0
 24 52  1  0  0  0  0
 25 26  2  0  0  0  0
 25 27  1  0  0  0  0
 27 28  1  0  0  0  0
 27 53  1  0  0  0  0
 28 29  1  0  0  0  0
 28 54  1  0  0  0  0
 28 55  1  0  0  0  0
 29 30  1  0  0  0  0
 29 35  2  0  0  0  0
 30 31  1  0  0  0  0
 30 32  2  0  0  0  0
 32 33  1  0  0  0  0
 32 56  1  0  0  0  0
 33 34  2  0  0  0  0
 33 57  1  0  0  0  0
 34 35  1  0  0  0  0
 34 58  1  0  0  0  0
 35 36  1  0  0  0  0
 37 59  1  0  0  0  0
 37 60  1  0  0  0  0
M  END
$$$$
