
 OpenBabel07202414123D

 61 64  0  0  1  0  0  0  0  0999 V2000
    0.8811   -1.1753   -0.6701 C   0  0  0  0  0  0  0  0  0  0  0  0
    2.1268   -0.6584    0.0478 C   0  0  0  0  0  0  0  0  0  0  0  0
    1.7316    0.2463    1.2090 C   0  0  0  0  0  0  0  0  0  0  0  0
    2.8240   -1.7944    0.5679 O   0  0  0  0  0  0  0  0  0  0  0  0
    4.1872   -1.7986    0.5989 C   0  0  0  0  0  0  0  0  0  0  0  0
    5.0377   -0.7508    0.2635 C   0  0  0  0  0  0  0  0  0  0  0  0
    6.4311   -0.9325    0.2765 C   0  0  0  0  0  0  0  0  0  0  0  0
    7.0058   -2.1643    0.6152 C   0  0  0  0  0  0  0  0  0  0  0  0
    8.4399   -2.3454    0.5572 N   0  0  0  0  0  0  0  0  0  0  0  0
    8.9802   -3.6392    0.0483 C   0  0  3  0  0  0  0  0  0  0  0  0
    9.2215   -4.6763    1.1827 C   0  0  0  0  0  0  0  0  0  0  0  0
    9.7070   -5.7881    0.9760 O   0  0  0  0  0  0  0  0  0  0  0  0
    8.7914   -4.2954    2.4365 N   0  0  0  0  0  0  0  0  0  0  0  0
    8.7978   -5.1922    3.5666 C   0  0  0  0  0  0  0  0  0  0  0  0
   10.0868   -5.0802    4.3708 C   0  0  0  0  0  0  0  0  0  0  0  0
   10.0563   -5.9626    5.5682 C   0  0  0  0  0  0  0  0  0  0  0  0
    9.5950   -5.6519    6.8641 C   0  0  0  0  0  0  0  0  0  0  0  0
    9.6864   -6.6873    7.7001 N   0  0  0  0  0  0  0  0  0  0  0  0
   10.2105   -7.6646    6.9410 N   0  0  0  0  0  0  0  0  0  0  0  0
   10.4480   -7.2795    5.6499 C   0  0  0  0  0  0  0  0  0  0  0  0
    8.3271   -4.2337   -1.2017 C   0  0  0  0  0  0  0  0  0  0  0  0
    8.7022   -3.7832   -2.4784 C   0  0  0  0  0  0  0  0  0  0  0  0
    8.3002   -4.4851   -3.6135 C   0  0  0  0  0  0  0  0  0  0  0  0
    7.4944   -5.5968   -3.4463 C   0  0  0  0  0  0  0  0  0  0  0  0
    7.0483   -6.0197   -2.2472 N   0  0  0  0  0  0  0  0  0  0  0  0
    7.4802   -5.3394   -1.1592 C   0  0  0  0  0  0  0  0  0  0  0  0
    9.2741   -1.3526    1.1548 C   0  0  0  0  0  0  0  0  0  0  0  0
    8.7969   -0.3509    1.6955 O   0  0  0  0  0  0  0  0  0  0  0  0
   10.7374   -1.5307    1.2477 C   0  0  0  0  0  0  0  0  0  0  0  0
   11.5847   -0.6462    1.8880 C   0  0  0  0  0  0  0  0  0  0  0  0
   12.8617   -1.1082    1.7980 O   0  0  0  0  0  0  0  0  0  0  0  0
   12.7362   -2.2723    1.1112 C   0  0  0  0  0  0  0  0  0  0  0  0
   11.5049   -2.5813    0.7743 N   0  0  0  0  0  0  0  0  0  0  0  0
    6.1375   -3.1888    1.0118 C   0  0  0  0  0  0  0  0  0  0  0  0
    4.7494   -3.0037    1.0124 C   0  0  0  0  0  0  0  0  0  0  0  0
    0.2648   -0.3484   -1.0380 H   0  0  0  0  0  0  0  0  0  0  0  0
    0.2722   -1.8050   -0.0129 H   0  0  0  0  0  0  0  0  0  0  0  0
    1.1681   -1.7947   -1.5273 H   0  0  0  0  0  0  0  0  0  0  0  0
    2.7100   -0.1071   -0.6967 H   0  0  0  0  0  0  0  0  0  0  0  0
    1.3338   -0.3390    2.0457 H   0  0  0  0  0  0  0  0  0  0  0  0
    0.9835    0.9857    0.9083 H   0  0  0  0  0  0  0  0  0  0  0  0
    2.6070    0.7834    1.5885 H   0  0  0  0  0  0  0  0  0  0  0  0
    4.6619    0.2249   -0.0215 H   0  0  0  0  0  0  0  0  0  0  0  0
    7.0552   -0.0928   -0.0214 H   0  0  0  0  0  0  0  0  0  0  0  0
    9.9763   -3.4359   -0.3356 H   0  0  0  0  0  0  0  0  0  0  0  0
    8.4449   -3.3537    2.5743 H   0  0  0  0  0  0  0  0  0  0  0  0
    8.6426   -6.2190    3.2132 H   0  0  0  0  0  0  0  0  0  0  0  0
    7.9299   -4.9226    4.1800 H   0  0  0  0  0  0  0  0  0  0  0  0
   10.2356   -4.0379    4.6838 H   0  0  0  0  0  0  0  0  0  0  0  0
   10.9484   -5.3343    3.7381 H   0  0  0  0  0  0  0  0  0  0  0  0
    9.1890   -4.7172    7.2323 H   0  0  0  0  0  0  0  0  0  0  0  0
   10.3746   -8.5717    7.3640 H   0  0  0  0  0  0  0  0  0  0  0  0
   10.8547   -7.9658    4.9241 H   0  0  0  0  0  0  0  0  0  0  0  0
    9.3661   -2.9291   -2.5940 H   0  0  0  0  0  0  0  0  0  0  0  0
    8.6370   -4.1949   -4.6028 H   0  0  0  0  0  0  0  0  0  0  0  0
    7.1909   -6.2052   -4.2934 H   0  0  0  0  0  0  0  0  0  0  0  0
    7.1393   -5.7678   -0.2211 H   0  0  0  0  0  0  0  0  0  0  0  0
   11.4468    0.2836    2.4225 H   0  0  0  0  0  0  0  0  0  0  0  0
   13.6445   -2.8229    0.9104 H   0  0  0  0  0  0  0  0  0  0  0  0
    6.4939   -4.1484    1.3673 H   0  0  0  0  0  0  0  0  0  0  0  0
    4.1006   -3.8179    1.3302 H   0  0  0  0  0  0  0  0  0  0  0  0
  1  2  1  0  0  0  0
  1 36  1  0  0  0  0
  1 37  1  0  0  0  0
  1 38  1  0  0  0  0
  2  3  1  0  0  0  0
  2  4  1  0  0  0  0
  2 39  1  0  0  0  0
  3 40  1  0  0  0  0
  3 41  1  0  0  0  0
  3 42  1  0  0  0  0
  4  5  1  0  0  0  0
  5  6  1  0  0  0  0
  5 35  2  0  0  0  0
  6  7  2  0  0  0  0
  6 43  1  0  0  0  0
  7  8  1  0  0  0  0
  7 44  1  0  0  0  0
  8  9  1  0  0  0  0
  8 34  2  0  0  0  0
  9 10  1  0  0  0  0
  9 27  1  0  0  0  0
 10 11  1  0  0  0  0
 10 21  1  0  0  0  0
 10 45  1  0  0  0  0
 11 12  2  0  0  0  0
 11 13  1  0  0  0  0
 13 14  1  0  0  0  0
 13 46  1  0  0  0  0
 14 15  1  0  0  0  0
 14 47  1  0  0  0  0
 14 48  1  0  0  0  0
 15 16  1  0  0  0  0
 15 49  1  0  0  0  0
 15 50  1  0  0  0  0
 16 17  1  0  0  0  0
 16 20  2  0  0  0  0
 17 18  2  0  0  0  0
 17 51  1  0  0  0  0
 18 19  1  0  0  0  0
 19 20  1  0  0  0  0
 19 52  1  0  0  0  0
 20 53  1  0  0  0  0
 21 22  1  0  0  0  0
 21 26  2  0  0  0  0
 22 23  2  0  0  0  0
 22 54  1  0  0  0  0
 23 24  1  0  0  0  0
 23 55  1  0  0  0  0
 24 25  2  0  0  0  0
 24 56  1  0  0  0  0
 25 26  1  0  0  0  0
 26 57  1  0  0  0  0
 27 28  2  0  0  0  0
 27 29  1  0  0  0  0
 29 30  2  0  0  0  0
 29 33  1  0  0  0  0
 30 31  1  0  0  0  0
 30 58  1  0  0  0  0
 31 32  1  0  0  0  0
 32 33  2  0  0  0  0
 32 59  1  0  0  0  0
 34 35  1  0  0  0  0
 34 60  1  0  0  0  0
 35 61  1  0  0  0  0
M  END
$$$$
