
 OpenBabel07202414173D

 54 58  0  0  1  0  0  0  0  0999 V2000
    1.0134    0.2480   -0.0881 Cl  0  0  0  0  0  0  0  0  0  0  0  0
    2.7200    0.1304    0.0644 C   0  0  0  0  0  0  0  0  0  0  0  0
    3.5142    1.2714   -0.0559 C   0  0  0  0  0  0  0  0  0  0  0  0
    4.9002    1.1814    0.0853 C   0  0  0  0  0  0  0  0  0  0  0  0
    5.4948   -0.0611    0.3335 C   0  0  0  0  0  0  0  0  0  0  0  0
    4.6910   -1.2189    0.4328 C   0  0  0  0  0  0  0  0  0  0  0  0
    3.3026   -1.1129    0.3098 C   0  0  0  0  0  0  0  0  0  0  0  0
    5.3315   -2.5779    0.6612 C   0  0  3  0  0  0  0  0  0  0  0  0
    5.3146   -3.0065    2.1397 C   0  0  0  0  0  0  0  0  0  0  0  0
    5.3978   -2.1898    3.0557 O   0  0  0  0  0  0  0  0  0  0  0  0
    5.1852   -4.3769    2.2969 N   0  0  0  0  0  0  0  0  0  0  0  0
    5.1319   -5.1105    3.5145 C   0  0  0  0  0  0  0  0  0  0  0  0
    5.1135   -4.5073    4.7712 C   0  0  0  0  0  0  0  0  0  0  0  0
    5.2833   -5.1707    5.9399 N   0  0  0  0  0  0  0  0  0  0  0  0
    5.4414   -6.5079    5.8593 C   0  0  0  0  0  0  0  0  0  0  0  0
    5.3323   -7.2444    4.6811 C   0  0  0  0  0  0  0  0  0  0  0  0
    5.3846   -8.6502    4.6908 C   0  0  0  0  0  0  0  0  0  0  0  0
    5.2118   -9.3787    3.5159 C   0  0  0  0  0  0  0  0  0  0  0  0
    4.9980   -8.7085    2.3197 C   0  0  0  0  0  0  0  0  0  0  0  0
    4.9734   -7.3110    2.2954 C   0  0  0  0  0  0  0  0  0  0  0  0
    5.1490   -6.5354    3.4708 C   0  0  0  0  0  0  0  0  0  0  0  0
    6.7334   -2.5164    0.0587 C   0  0  0  0  0  0  0  0  0  0  0  0
    7.4997   -1.4271    0.6447 N   0  0  0  0  0  0  0  0  0  0  0  0
    8.6343   -1.6503    1.5479 C   0  0  0  0  0  0  0  0  0  0  0  0
    8.8523   -3.0431    2.1688 C   0  0  0  0  0  0  0  0  0  0  0  0
    8.2497   -4.0593    1.8367 O   0  0  0  0  0  0  0  0  0  0  0  0
    9.8441   -3.0955    3.1318 N   0  0  0  0  0  0  0  0  0  0  0  0
   10.2214   -4.3903    3.7265 C   0  0  0  0  0  0  0  0  0  0  0  0
    9.1208   -5.1390    4.5014 C   0  0  0  0  0  0  0  0  0  0  0  0
   10.0602   -5.4139    5.5818 O   0  0  0  0  0  0  0  0  0  0  0  0
   10.9056   -4.3352    5.0945 C   0  0  0  0  0  0  0  0  0  0  0  0
    6.9686   -0.1398    0.5875 C   0  0  0  0  0  0  0  0  0  0  0  0
    7.6241    0.8708    0.8077 O   0  0  0  0  0  0  0  0  0  0  0  0
    3.0557    2.2398   -0.2459 H   0  0  0  0  0  0  0  0  0  0  0  0
    5.5141    2.0753    0.0127 H   0  0  0  0  0  0  0  0  0  0  0  0
    2.6725   -1.9953    0.4074 H   0  0  0  0  0  0  0  0  0  0  0  0
    4.7588   -3.3149    0.0862 H   0  0  0  0  0  0  0  0  0  0  0  0
    5.3780   -4.9314    1.4755 H   0  0  0  0  0  0  0  0  0  0  0  0
    4.9703   -3.4401    4.9034 H   0  0  0  0  0  0  0  0  0  0  0  0
    5.6485   -6.9925    6.8107 H   0  0  0  0  0  0  0  0  0  0  0  0
    5.5356   -9.1912    5.6241 H   0  0  0  0  0  0  0  0  0  0  0  0
    5.2265  -10.4653    3.5381 H   0  0  0  0  0  0  0  0  0  0  0  0
    4.8394   -9.2702    1.4021 H   0  0  0  0  0  0  0  0  0  0  0  0
    4.7656   -6.8415    1.3388 H   0  0  0  0  0  0  0  0  0  0  0  0
    6.6369   -2.2666   -1.0113 H   0  0  0  0  0  0  0  0  0  0  0  0
    7.2629   -3.4652    0.0530 H   0  0  0  0  0  0  0  0  0  0  0  0
    8.5235   -0.9461    2.3850 H   0  0  0  0  0  0  0  0  0  0  0  0
    9.5427   -1.3658    1.0030 H   0  0  0  0  0  0  0  0  0  0  0  0
   10.2970   -2.2301    3.4049 H   0  0  0  0  0  0  0  0  0  0  0  0
   10.7486   -5.0231    3.0024 H   0  0  0  0  0  0  0  0  0  0  0  0
    8.7527   -6.0536    4.0281 H   0  0  0  0  0  0  0  0  0  0  0  0
    8.2793   -4.5388    4.8623 H   0  0  0  0  0  0  0  0  0  0  0  0
   11.9639   -4.6068    5.0938 H   0  0  0  0  0  0  0  0  0  0  0  0
   10.7505   -3.4240    5.6809 H   0  0  0  0  0  0  0  0  0  0  0  0
  1  2  1  0  0  0  0
  2  3  1  0  0  0  0
  2  7  2  0  0  0  0
  3  4  2  0  0  0  0
  3 34  1  0  0  0  0
  4  5  1  0  0  0  0
  4 35  1  0  0  0  0
  5  6  2  0  0  0  0
  5 32  1  0  0  0  0
  6  7  1  0  0  0  0
  6  8  1  0  0  0  0
  7 36  1  0  0  0  0
  8  9  1  0  0  0  0
  8 22  1  0  0  0  0
  8 37  1  0  0  0  0
  9 10  2  0  0  0  0
  9 11  1  0  0  0  0
 11 12  1  0  0  0  0
 11 38  1  0  0  0  0
 12 13  1  0  0  0  0
 12 21  2  0  0  0  0
 13 14  2  0  0  0  0
 13 39  1  0  0  0  0
 14 15  1  0  0  0  0
 15 16  2  0  0  0  0
 15 40  1  0  0  0  0
 16 17  1  0  0  0  0
 16 21  1  0  0  0  0
 17 18  2  0  0  0  0
 17 41  1  0  0  0  0
 18 19  1  0  0  0  0
 18 42  1  0  0  0  0
 19 20  2  0  0  0  0
 19 43  1  0  0  0  0
 20 21  1  0  0  0  0
 20 44  1  0  0  0  0
 22 23  1  0  0  0  0
 22 45  1  0  0  0  0
 22 46  1  0  0  0  0
 23 24  1  0  0  0  0
 23 32  1  0  0  0  0
 24 25  1  0  0  0  0
 24 47  1  0  0  0  0
 24 48  1  0  0  0  0
 25 26  2  0  0  0  0
 25 27  1  0  0  0  0
 27 28  1  0  0  0  0
 27 49  1  0  0  0  0
 28 29  1  0  0  0  0
 28 31  1  0  0  0  0
 28 50  1  0  0  0  0
 29 30  1  0  0  0  0
 29 51  1  0  0  0  0
 29 52  1  0  0  0  0
 30 31  1  0  0  0  0
 31 53  1  0  0  0  0
 31 54  1  0  0  0  0
 32 33  2  0  0  0  0
M  END
$$$$
