
 OpenBabel07202414203D

 36 40  0  0  0  0  0  0  0  0999 V2000
    0.9944    0.0364    0.0926 S   0  0  0  0  0  0  0  0  0  0  0  0
    0.6241    0.0079   -1.6091 C   0  0  0  0  0  0  0  0  0  0  0  0
    1.3499    0.5585   -2.5607 N   0  0  0  0  0  0  0  0  0  0  0  0
    0.6460    0.3929   -3.7386 N   0  0  0  0  0  0  0  0  0  0  0  0
   -0.4717   -0.2453   -3.4364 C   0  0  0  0  0  0  0  0  0  0  0  0
   -1.4889   -0.5881   -4.3917 C   0  0  0  0  0  0  0  0  0  0  0  0
   -1.4898   -0.3156   -5.7486 C   0  0  0  0  0  0  0  0  0  0  0  0
   -2.6660   -0.7903   -6.4050 C   0  0  0  0  0  0  0  0  0  0  0  0
   -3.5267   -1.4130   -5.5286 C   0  0  0  0  0  0  0  0  0  0  0  0
   -2.9164   -1.4200   -3.9304 S   0  0  0  0  0  0  0  0  0  0  0  0
   -0.5464   -0.5159   -2.0897 O   0  0  0  0  0  0  0  0  0  0  0  0
    2.7306    0.0876    0.0011 C   0  0  0  0  0  0  0  0  0  0  0  0
    3.3924    1.2579    0.0323 C   0  0  0  0  0  0  0  0  0  0  0  0
    4.8914    1.1763    0.0137 C   0  0  0  0  0  0  0  0  0  0  0  0
    5.6374    2.4711   -0.0174 C   0  0  0  0  0  0  0  0  0  0  0  0
    6.9055    2.5367    0.5803 C   0  0  0  0  0  0  0  0  0  0  0  0
    7.6446    3.7220    0.5395 C   0  0  0  0  0  0  0  0  0  0  0  0
    7.1265    4.8444   -0.1024 C   0  0  0  0  0  0  0  0  0  0  0  0
    5.8718    4.7840   -0.7073 C   0  0  0  0  0  0  0  0  0  0  0  0
    5.1294    3.6002   -0.6705 C   0  0  0  0  0  0  0  0  0  0  0  0
    5.5683    0.0645    0.0406 N   0  0  0  0  0  0  0  0  0  0  0  0
    4.8574   -1.0983    0.0375 C   0  0  0  0  0  0  0  0  0  0  0  0
    5.3007   -2.3356    0.0809 N   0  0  0  0  0  0  0  0  0  0  0  0
    4.1661   -3.0810    0.0555 C   0  0  0  0  0  0  0  0  0  0  0  0
    3.0218   -2.4018   -0.0007 N   0  0  0  0  0  0  0  0  0  0  0  0
    3.4560   -1.1103   -0.0040 N   0  0  0  0  0  0  0  0  0  0  0  0
   -0.6826    0.2057   -6.2512 H   0  0  0  0  0  0  0  0  0  0  0  0
   -2.8670   -0.6796   -7.4634 H   0  0  0  0  0  0  0  0  0  0  0  0
   -4.4856   -1.8641   -5.7499 H   0  0  0  0  0  0  0  0  0  0  0  0
    2.8951    2.2157    0.1009 H   0  0  0  0  0  0  0  0  0  0  0  0
    7.3291    1.6650    1.0753 H   0  0  0  0  0  0  0  0  0  0  0  0
    8.6294    3.7641    0.9999 H   0  0  0  0  0  0  0  0  0  0  0  0
    7.7069    5.7632   -0.1449 H   0  0  0  0  0  0  0  0  0  0  0  0
    5.4774    5.6561   -1.2232 H   0  0  0  0  0  0  0  0  0  0  0  0
    4.1753    3.5764   -1.1884 H   0  0  0  0  0  0  0  0  0  0  0  0
    4.1740   -4.1636    0.0814 H   0  0  0  0  0  0  0  0  0  0  0  0
  1  2  1  0  0  0  0
  1 12  1  0  0  0  0
  2  3  2  0  0  0  0
  2 11  1  0  0  0  0
  3  4  1  0  0  0  0
  4  5  2  0  0  0  0
  5  6  1  0  0  0  0
  5 11  1  0  0  0  0
  6  7  2  0  0  0  0
  6 10  1  0  0  0  0
  7  8  1  0  0  0  0
  7 27  1  0  0  0  0
  8  9  2  0  0  0  0
  8 28  1  0  0  0  0
  9 10  1  0  0  0  0
  9 29  1  0  0  0  0
 12 13  2  0  0  0  0
 12 26  1  0  0  0  0
 13 14  1  0  0  0  0
 13 30  1  0  0  0  0
 14 15  1  0  0  0  0
 14 21  2  0  0  0  0
 15 16  1  0  0  0  0
 15 20  2  0  0  0  0
 16 17  2  0  0  0  0
 16 31  1  0  0  0  0
 17 18  1  0  0  0  0
 17 32  1  0  0  0  0
 18 19  2  0  0  0  0
 18 33  1  0  0  0  0
 19 20  1  0  0  0  0
 19 34  1  0  0  0  0
 20 35  1  0  0  0  0
 21 22  1  0  0  0  0
 22 23  2  0  0  0  0
 22 26  1  0  0  0  0
 23 24  1  0  0  0  0
 24 25  2  0  0  0  0
 24 36  1  0  0  0  0
 25 26  1  0  0  0  0
M  END
$$$$
