
 OpenBabel07202414143D

 55 59  0  0  1  0  0  0  0  0999 V2000
    8.1676    1.6850   -0.0069 C   0  0  0  0  0  0  0  0  0  0  0  0
    7.1221    1.2635    0.8813 N   0  0  0  0  0  0  0  0  0  0  0  0
    6.1406    0.4222    0.4292 C   0  0  0  0  0  0  0  0  0  0  0  0
    6.0475    0.0616   -0.7429 O   0  0  0  0  0  0  0  0  0  0  0  0
    5.0821    0.0434    1.4488 C   0  0  0  0  0  0  0  0  0  0  0  0
    5.4476   -0.0056    2.8674 N   0  0  0  0  0  0  0  0  0  0  0  0
    6.0184   -1.2085    3.5017 C   0  0  0  0  0  0  0  0  0  0  0  0
    5.1301   -1.7411    4.6490 C   0  0  2  0  0  0  0  0  0  0  0  0
    5.8767   -2.8392    5.4988 C   0  0  0  0  0  0  0  0  0  0  0  0
    7.0343   -2.7678    5.8619 O   0  0  0  0  0  0  0  0  0  0  0  0
    4.9196   -3.8391    5.8316 N   0  0  0  0  0  0  0  0  0  0  0  0
    5.1751   -5.1291    6.4379 C   0  0  0  0  0  0  0  0  0  0  0  0
    6.4652   -5.6523    6.4656 C   0  0  0  0  0  0  0  0  0  0  0  0
    6.7438   -6.9750    6.5663 N   0  0  0  0  0  0  0  0  0  0  0  0
    5.6979   -7.8127    6.7308 C   0  0  0  0  0  0  0  0  0  0  0  0
    4.3863   -7.4016    6.9421 C   0  0  0  0  0  0  0  0  0  0  0  0
    3.3764   -8.3367    7.2702 C   0  0  0  0  0  0  0  0  0  0  0  0
    2.0672   -7.9291    7.4974 C   0  0  0  0  0  0  0  0  0  0  0  0
    1.7570   -6.5823    7.4182 C   0  0  0  0  0  0  0  0  0  0  0  0
    2.7627   -5.6519    7.1253 C   0  0  0  0  0  0  0  0  0  0  0  0
    4.1048   -6.0217    6.8229 C   0  0  0  0  0  0  0  0  0  0  0  0
    3.7831   -3.7680    4.9476 C   0  0  0  0  0  0  0  0  0  0  0  0
    3.8454   -2.4742    4.1628 C   0  0  2  0  0  0  0  0  0  0  0  0
    3.6953   -2.8426    2.6904 C   0  0  0  0  0  0  0  0  0  0  0  0
    4.7398   -0.5355    5.5342 C   0  0  0  0  0  0  0  0  0  0  0  0
    4.2106   -0.6875    6.8129 C   0  0  0  0  0  0  0  0  0  0  0  0
    3.7466    0.3279    7.5798 N   0  0  0  0  0  0  0  0  0  0  0  0
    3.8247    1.5768    7.0789 C   0  0  0  0  0  0  0  0  0  0  0  0
    4.3532    1.8597    5.8414 C   0  0  0  0  0  0  0  0  0  0  0  0
    4.7995    0.7911    5.0582 C   0  0  0  0  0  0  0  0  0  0  0  0
    5.1587    1.0953    3.6488 C   0  0  0  0  0  0  0  0  0  0  0  0
    5.0785    2.2320    3.1922 O   0  0  0  0  0  0  0  0  0  0  0  0
    8.7990    2.4111    0.5057 H   0  0  0  0  0  0  0  0  0  0  0  0
    7.7359    2.1232   -0.9116 H   0  0  0  0  0  0  0  0  0  0  0  0
    8.7529    0.8032   -0.2835 H   0  0  0  0  0  0  0  0  0  0  0  0
    6.9690    1.7369    1.7681 H   0  0  0  0  0  0  0  0  0  0  0  0
    4.7214   -0.9359    1.1429 H   0  0  0  0  0  0  0  0  0  0  0  0
    4.2540    0.7548    1.3300 H   0  0  0  0  0  0  0  0  0  0  0  0
    6.9943   -0.8974    3.9054 H   0  0  0  0  0  0  0  0  0  0  0  0
    6.2415   -1.9611    2.7386 H   0  0  0  0  0  0  0  0  0  0  0  0
    7.3494   -5.0393    6.3276 H   0  0  0  0  0  0  0  0  0  0  0  0
    5.9545   -8.8691    6.6946 H   0  0  0  0  0  0  0  0  0  0  0  0
    3.6206   -9.3919    7.3832 H   0  0  0  0  0  0  0  0  0  0  0  0
    1.3023   -8.6545    7.7628 H   0  0  0  0  0  0  0  0  0  0  0  0
    0.7399   -6.2451    7.6056 H   0  0  0  0  0  0  0  0  0  0  0  0
    2.4800   -4.6054    7.1904 H   0  0  0  0  0  0  0  0  0  0  0  0
    2.8339   -3.7858    5.4747 H   0  0  0  0  0  0  0  0  0  0  0  0
    3.8377   -4.6441    4.2862 H   0  0  0  0  0  0  0  0  0  0  0  0
    2.9571   -1.8800    4.4155 H   0  0  0  0  0  0  0  0  0  0  0  0
    4.5935   -3.3158    2.2814 H   0  0  0  0  0  0  0  0  0  0  0  0
    3.4208   -1.9676    2.1091 H   0  0  0  0  0  0  0  0  0  0  0  0
    2.8672   -3.5472    2.5504 H   0  0  0  0  0  0  0  0  0  0  0  0
    4.0989   -1.6608    7.2825 H   0  0  0  0  0  0  0  0  0  0  0  0
    3.4175    2.3631    7.7083 H   0  0  0  0  0  0  0  0  0  0  0  0
    4.3661    2.8813    5.4695 H   0  0  0  0  0  0  0  0  0  0  0  0
  1  2  1  0  0  0  0
  1 33  1  0  0  0  0
  1 34  1  0  0  0  0
  1 35  1  0  0  0  0
  2  3  1  0  0  0  0
  2 36  1  0  0  0  0
  3  4  2  0  0  0  0
  3  5  1  0  0  0  0
  5  6  1  0  0  0  0
  5 37  1  0  0  0  0
  5 38  1  0  0  0  0
  6  7  1  0  0  0  0
  6 31  1  0  0  0  0
  7  8  1  0  0  0  0
  7 39  1  0  0  0  0
  7 40  1  0  0  0  0
  8  9  1  1  0  0  0
  8 23  1  0  0  0  0
  8 25  1  0  0  0  0
  9 10  2  0  0  0  0
  9 11  1  0  0  0  0
 11 12  1  0  0  0  0
 11 22  1  0  0  0  0
 12 13  1  0  0  0  0
 12 21  2  0  0  0  0
 13 14  2  0  0  0  0
 13 41  1  0  0  0  0
 14 15  1  0  0  0  0
 15 16  2  0  0  0  0
 15 42  1  0  0  0  0
 16 17  1  0  0  0  0
 16 21  1  0  0  0  0
 17 18  2  0  0  0  0
 17 43  1  0  0  0  0
 18 19  1  0  0  0  0
 18 44  1  0  0  0  0
 19 20  2  0  0  0  0
 19 45  1  0  0  0  0
 20 21  1  0  0  0  0
 20 46  1  0  0  0  0
 22 23  1  0  0  0  0
 22 47  1  0  0  0  0
 22 48  1  0  0  0  0
 23 24  1  0  0  0  0
 23 49  1  1  0  0  0
 24 50  1  0  0  0  0
 24 51  1  0  0  0  0
 24 52  1  0  0  0  0
 25 26  1  0  0  0  0
 25 30  2  0  0  0  0
 26 27  2  0  0  0  0
 26 53  1  0  0  0  0
 27 28  1  0  0  0  0
 28 29  2  0  0  0  0
 28 54  1  0  0  0  0
 29 30  1  0  0  0  0
 29 55  1  0  0  0  0
 30 31  1  0  0  0  0
 31 32  2  0  0  0  0
M  END
$$$$
