
 OpenBabel07202414203D

 44 47  0  0  1  0  0  0  0  0999 V2000
   -3.0429    4.5442   -2.5495 C   0  0  0  0  0  0  0  0  0  0  0  0
   -2.5893    4.4224   -1.2407 C   0  0  0  0  0  0  0  0  0  0  0  0
   -2.4270    3.1590   -0.6827 C   0  0  0  0  0  0  0  0  0  0  0  0
   -2.7441    2.0000   -1.4193 C   0  0  0  0  0  0  0  0  0  0  0  0
   -3.1299    2.1336   -2.7566 C   0  0  0  0  0  0  0  0  0  0  0  0
   -3.2841    3.4042   -3.3155 C   0  0  0  0  0  0  0  0  0  0  0  0
   -2.8432    0.6936   -0.6594 C   0  0  2  0  0  0  0  0  0  0  0  0
   -1.5235    0.2070    0.0142 C   0  0  0  0  0  0  0  0  0  0  0  0
   -1.3734    0.3220    1.2367 O   0  0  0  0  0  0  0  0  0  0  0  0
   -0.5279   -0.3346   -0.7737 N   0  0  0  0  0  0  0  0  0  0  0  0
    0.6815   -0.8058   -0.1340 C   0  0  0  0  0  0  0  0  0  0  0  0
    1.6663   -1.3731   -1.1049 C   0  0  0  0  0  0  0  0  0  0  0  0
    2.7373   -0.7386   -1.7069 C   0  0  0  0  0  0  0  0  0  0  0  0
    3.5440   -1.6313   -2.4722 C   0  0  0  0  0  0  0  0  0  0  0  0
    3.0597   -2.9192   -2.4375 C   0  0  0  0  0  0  0  0  0  0  0  0
    1.6337   -3.0431   -1.4997 S   0  0  0  0  0  0  0  0  0  0  0  0
   -3.7350   -0.3209   -1.2396 N   0  0  0  0  0  0  0  0  0  0  0  0
   -4.7385   -0.9108   -0.3655 C   0  0  0  0  0  0  0  0  0  0  0  0
   -4.1990   -2.2755   -0.1695 C   0  0  0  0  0  0  0  0  0  0  0  0
   -4.3032   -3.1148    0.9194 C   0  0  0  0  0  0  0  0  0  0  0  0
   -3.5227   -4.2721    0.9145 C   0  0  0  0  0  0  0  0  0  0  0  0
   -2.6995   -4.5930   -0.1835 C   0  0  0  0  0  0  0  0  0  0  0  0
   -2.6100   -3.7402   -1.2844 C   0  0  0  0  0  0  0  0  0  0  0  0
   -3.3560   -2.5825   -1.2366 C   0  0  0  0  0  0  0  0  0  0  0  0
   -3.1043   -1.3312   -1.9761 C   0  0  0  0  0  0  0  0  0  0  0  0
   -2.2724   -1.2067   -2.8525 O   0  0  0  0  0  0  0  0  0  0  0  0
   -3.2157    5.5295   -2.9719 H   0  0  0  0  0  0  0  0  0  0  0  0
   -2.3972    5.3070   -0.6387 H   0  0  0  0  0  0  0  0  0  0  0  0
   -2.1134    3.0793    0.3584 H   0  0  0  0  0  0  0  0  0  0  0  0
   -3.3607    1.2593   -3.3606 H   0  0  0  0  0  0  0  0  0  0  0  0
   -3.6293    3.5015   -4.3402 H   0  0  0  0  0  0  0  0  0  0  0  0
   -3.4213    1.0229    0.2175 H   0  0  0  0  0  0  0  0  0  0  0  0
   -0.7213   -0.5691   -1.7482 H   0  0  0  0  0  0  0  0  0  0  0  0
    0.4146   -1.5418    0.6342 H   0  0  0  0  0  0  0  0  0  0  0  0
    1.1311    0.0480    0.3882 H   0  0  0  0  0  0  0  0  0  0  0  0
    2.9543    0.3152   -1.5766 H   0  0  0  0  0  0  0  0  0  0  0  0
    4.4407   -1.3456   -3.0092 H   0  0  0  0  0  0  0  0  0  0  0  0
    3.4775   -3.7954   -2.9153 H   0  0  0  0  0  0  0  0  0  0  0  0
   -5.6834   -0.9580   -0.9237 H   0  0  0  0  0  0  0  0  0  0  0  0
   -4.8919   -0.3452    0.5562 H   0  0  0  0  0  0  0  0  0  0  0  0
   -4.8959   -2.8436    1.7879 H   0  0  0  0  0  0  0  0  0  0  0  0
   -3.5153   -4.9140    1.7924 H   0  0  0  0  0  0  0  0  0  0  0  0
   -2.0766   -5.4833   -0.1450 H   0  0  0  0  0  0  0  0  0  0  0  0
   -1.9105   -3.9221   -2.0925 H   0  0  0  0  0  0  0  0  0  0  0  0
  1  2  1  0  0  0  0
  1  6  2  0  0  0  0
  1 27  1  0  0  0  0
  2  3  2  0  0  0  0
  2 28  1  0  0  0  0
  3  4  1  0  0  0  0
  3 29  1  0  0  0  0
  4  5  2  0  0  0  0
  5  6  1  0  0  0  0
  5 30  1  0  0  0  0
  6 31  1  0  0  0  0
  7 17  1  0  0  0  0
  7  8  1  0  0  0  0
  7  4  1  0  0  0  0
  7 32  1  1  0  0  0
  8  9  2  0  0  0  0
  8 10  1  0  0  0  0
 10 11  1  0  0  0  0
 10 33  1  0  0  0  0
 11 12  1  0  0  0  0
 11 34  1  0  0  0  0
 11 35  1  0  0  0  0
 12 13  2  0  0  0  0
 12 16  1  0  0  0  0
 13 14  1  0  0  0  0
 13 36  1  0  0  0  0
 14 15  2  0  0  0  0
 14 37  1  0  0  0  0
 15 16  1  0  0  0  0
 15 38  1  0  0  0  0
 17 18  1  0  0  0  0
 17 25  1  0  0  0  0
 18 19  1  0  0  0  0
 18 39  1  0  0  0  0
 18 40  1  0  0  0  0
 19 20  1  0  0  0  0
 19 24  2  0  0  0  0
 20 21  2  0  0  0  0
 20 41  1  0  0  0  0
 21 22  1  0  0  0  0
 21 42  1  0  0  0  0
 22 23  2  0  0  0  0
 22 43  1  0  0  0  0
 23 24  1  0  0  0  0
 23 44  1  0  0  0  0
 24 25  1  0  0  0  0
 25 26  2  0  0  0  0
M  END
$$$$
