
 OpenBabel07202414163D

 49 52  0  0  1  0  0  0  0  0999 V2000
    0.5283    0.7859   -2.1230 C   0  0  0  0  0  0  0  0  0  0  0  0
    0.2008    0.3800   -0.7094 C   0  0  0  0  0  0  0  0  0  0  0  0
    0.9736   -0.6619   -0.1598 C   0  0  0  0  0  0  0  0  0  0  0  0
    0.7224   -1.0976    1.1300 C   0  0  0  0  0  0  0  0  0  0  0  0
   -0.2524   -0.5888    1.8962 N   0  0  0  0  0  0  0  0  0  0  0  0
   -0.9893    0.4164    1.3546 C   0  0  0  0  0  0  0  0  0  0  0  0
   -0.8138    0.9718    0.0787 C   0  0  0  0  0  0  0  0  0  0  0  0
   -1.5990    2.0734   -0.4026 N   0  0  0  0  0  0  0  0  0  0  0  0
   -2.3249    2.9061    0.4339 C   0  0  0  0  0  0  0  0  0  0  0  0
   -2.3521    2.8264    1.6430 O   0  0  0  0  0  0  0  0  0  0  0  0
   -3.1706    4.0624   -0.1923 C   0  0  3  0  0  0  0  0  0  0  0  0
   -2.7168    4.5715   -1.5326 C   0  0  0  0  0  0  0  0  0  0  0  0
   -2.5360    3.7872   -2.4712 O   0  0  0  0  0  0  0  0  0  0  0  0
   -2.3560    6.0375   -1.7012 C   0  0  0  0  0  0  0  0  0  0  0  0
   -1.5376    6.2956   -2.7386 C   0  0  0  0  0  0  0  0  0  0  0  0
   -0.8137    7.5803   -2.8348 C   0  0  0  0  0  0  0  0  0  0  0  0
   -0.2899    7.9365   -3.8802 O   0  0  0  0  0  0  0  0  0  0  0  0
   -0.7010    8.2826   -1.6588 N   0  0  0  0  0  0  0  0  0  0  0  0
   -1.6598    8.1396   -0.6360 C   0  0  0  0  0  0  0  0  0  0  0  0
   -1.8012    9.1688    0.2873 C   0  0  0  0  0  0  0  0  0  0  0  0
   -3.0843    9.5774    0.6001 C   0  0  0  0  0  0  0  0  0  0  0  0
   -4.1467    8.7207    0.3183 C   0  0  0  0  0  0  0  0  0  0  0  0
   -3.9140    7.4705   -0.2704 C   0  0  0  0  0  0  0  0  0  0  0  0
   -2.6601    7.1675   -0.8084 C   0  0  0  0  0  0  0  0  0  0  0  0
   -4.6630    3.7389   -0.1296 C   0  0  0  0  0  0  0  0  0  0  0  0
   -5.4026    4.1433    0.9976 C   0  0  0  0  0  0  0  0  0  0  0  0
   -6.7691    3.8726    1.0993 C   0  0  0  0  0  0  0  0  0  0  0  0
   -7.4195    3.1833    0.0796 C   0  0  0  0  0  0  0  0  0  0  0  0
   -6.6936    2.7537   -1.0299 C   0  0  0  0  0  0  0  0  0  0  0  0
   -7.4960    1.8847   -2.2830 Cl  0  0  0  0  0  0  0  0  0  0  0  0
   -5.3253    3.0199   -1.1379 C   0  0  0  0  0  0  0  0  0  0  0  0
    1.5019    0.3923   -2.4219 H   0  0  0  0  0  0  0  0  0  0  0  0
    0.5822    1.8719   -2.2192 H   0  0  0  0  0  0  0  0  0  0  0  0
   -0.2217    0.3806   -2.8090 H   0  0  0  0  0  0  0  0  0  0  0  0
    1.7755   -1.1293   -0.7186 H   0  0  0  0  0  0  0  0  0  0  0  0
    1.3115   -1.8903    1.5816 H   0  0  0  0  0  0  0  0  0  0  0  0
   -1.7763    0.7466    2.0228 H   0  0  0  0  0  0  0  0  0  0  0  0
   -1.5234    2.3021   -1.3861 H   0  0  0  0  0  0  0  0  0  0  0  0
   -2.9882    4.8818    0.5142 H   0  0  0  0  0  0  0  0  0  0  0  0
   -1.2896    5.5732   -3.5111 H   0  0  0  0  0  0  0  0  0  0  0  0
   -0.2039    9.1672   -1.7366 H   0  0  0  0  0  0  0  0  0  0  0  0
   -0.9406    9.6535    0.7293 H   0  0  0  0  0  0  0  0  0  0  0  0
   -3.2494   10.5520    1.0740 H   0  0  0  0  0  0  0  0  0  0  0  0
   -5.1572    9.0340    0.5805 H   0  0  0  0  0  0  0  0  0  0  0  0
   -4.7531    6.8056   -0.4054 H   0  0  0  0  0  0  0  0  0  0  0  0
   -4.9116    4.6601    1.8196 H   0  0  0  0  0  0  0  0  0  0  0  0
   -7.3222    4.1894    1.9788 H   0  0  0  0  0  0  0  0  0  0  0  0
   -8.4822    2.9707    0.1612 H   0  0  0  0  0  0  0  0  0  0  0  0
   -4.7883    2.6550   -2.0112 H   0  0  0  0  0  0  0  0  0  0  0  0
  1  2  1  0  0  0  0
  1 32  1  0  0  0  0
  1 33  1  0  0  0  0
  1 34  1  0  0  0  0
  2  3  1  0  0  0  0
  2  7  2  0  0  0  0
  3  4  2  0  0  0  0
  3 35  1  0  0  0  0
  4  5  1  0  0  0  0
  4 36  1  0  0  0  0
  5  6  2  0  0  0  0
  6  7  1  0  0  0  0
  6 37  1  0  0  0  0
  7  8  1  0  0  0  0
  8  9  1  0  0  0  0
  8 38  1  0  0  0  0
  9 10  2  0  0  0  0
  9 11  1  0  0  0  0
 11 12  1  0  0  0  0
 11 25  1  0  0  0  0
 11 39  1  0  0  0  0
 12 13  2  0  0  0  0
 12 14  1  0  0  0  0
 14 15  2  0  0  0  0
 14 24  1  0  0  0  0
 15 16  1  0  0  0  0
 15 40  1  0  0  0  0
 16 17  2  0  0  0  0
 16 18  1  0  0  0  0
 18 19  1  0  0  0  0
 18 41  1  0  0  0  0
 19 20  1  0  0  0  0
 19 24  2  0  0  0  0
 20 21  2  0  0  0  0
 20 42  1  0  0  0  0
 21 22  1  0  0  0  0
 21 43  1  0  0  0  0
 22 23  2  0  0  0  0
 22 44  1  0  0  0  0
 23 24  1  0  0  0  0
 23 45  1  0  0  0  0
 25 26  1  0  0  0  0
 25 31  2  0  0  0  0
 26 27  2  0  0  0  0
 26 46  1  0  0  0  0
 27 28  1  0  0  0  0
 27 47  1  0  0  0  0
 28 29  2  0  0  0  0
 28 48  1  0  0  0  0
 29 30  1  0  0  0  0
 29 31  1  0  0  0  0
 31 49  1  0  0  0  0
M  END
$$$$
