
 OpenBabel07202414113D

 44 45  0  0  1  0  0  0  0  0999 V2000
    6.0880   -3.3606    3.9087 C   0  0  0  0  0  0  0  0  0  0  0  0
    7.0639   -2.8702    3.1316 C   0  0  0  0  0  0  0  0  0  0  0  0
    8.4902   -3.1391    3.4591 C   0  0  0  0  0  0  0  0  0  0  0  0
    8.8364   -3.7742    4.4473 O   0  0  0  0  0  0  0  0  0  0  0  0
    9.3619   -2.6084    2.5404 N   0  0  0  0  0  0  0  0  0  0  0  0
   10.7820   -2.8318    2.6823 C   0  0  0  0  0  0  0  0  0  0  0  0
   11.5763   -2.1103    1.6219 C   0  0  0  0  0  0  0  0  0  0  0  0
   12.0012   -0.7869    1.8159 C   0  0  0  0  0  0  0  0  0  0  0  0
   12.7526   -0.1177    0.8362 C   0  0  0  0  0  0  0  0  0  0  0  0
   13.0702   -0.7595   -0.3669 C   0  0  0  0  0  0  0  0  0  0  0  0
   12.6498   -2.0835   -0.5587 C   0  0  0  0  0  0  0  0  0  0  0  0
   11.9046   -2.7496    0.4207 C   0  0  0  0  0  0  0  0  0  0  0  0
   13.8242   -0.1077   -1.4840 C   0  0  0  0  0  0  0  0  0  0  0  0
   14.4336   -0.8037   -2.2896 O   0  0  0  0  0  0  0  0  0  0  0  0
   13.7275    1.2602   -1.5969 N   0  0  0  0  0  0  0  0  0  0  0  0
   14.3333    2.0819   -2.6562 C   0  0  2  0  0  0  0  0  0  0  0  0
   14.2052    1.5383   -4.1056 C   0  0  0  0  0  0  0  0  0  0  0  0
   15.0806    0.4685   -4.4374 O   0  0  0  0  0  0  0  0  0  0  0  0
   15.7025    2.5817   -2.2244 C   0  0  0  0  0  0  0  0  0  0  0  0
   15.8681    3.9268   -1.8390 C   0  0  0  0  0  0  0  0  0  0  0  0
   17.0677    4.3736   -1.2740 C   0  0  0  0  0  0  0  0  0  0  0  0
   18.1216    3.4809   -1.0960 C   0  0  0  0  0  0  0  0  0  0  0  0
   17.9896    2.1623   -1.5238 C   0  0  0  0  0  0  0  0  0  0  0  0
   16.7969    1.7142   -2.0903 C   0  0  0  0  0  0  0  0  0  0  0  0
   18.9950    1.2891   -1.3635 F   0  0  0  0  0  0  0  0  0  0  0  0
   19.6996    4.0659   -0.2341 Br  0  0  0  0  0  0  0  0  0  0  0  0
    5.0427   -3.1620    3.6801 H   0  0  0  0  0  0  0  0  0  0  0  0
    6.3018   -3.9625    4.7829 H   0  0  0  0  0  0  0  0  0  0  0  0
    6.8310   -2.2701    2.2643 H   0  0  0  0  0  0  0  0  0  0  0  0
    9.0221   -2.1532    1.7063 H   0  0  0  0  0  0  0  0  0  0  0  0
   10.9663   -3.9122    2.6343 H   0  0  0  0  0  0  0  0  0  0  0  0
   11.0915   -2.5060    3.6822 H   0  0  0  0  0  0  0  0  0  0  0  0
   11.7616   -0.2742    2.7469 H   0  0  0  0  0  0  0  0  0  0  0  0
   13.0984    0.8884    1.0512 H   0  0  0  0  0  0  0  0  0  0  0  0
   12.8998   -2.6062   -1.4802 H   0  0  0  0  0  0  0  0  0  0  0  0
   11.5937   -3.7780    0.2408 H   0  0  0  0  0  0  0  0  0  0  0  0
   13.2663    1.7757   -0.8633 H   0  0  0  0  0  0  0  0  0  0  0  0
   13.6744    2.9622   -2.6611 H   0  0  0  0  0  0  0  0  0  0  0  0
   13.1785    1.1969   -4.2845 H   0  0  0  0  0  0  0  0  0  0  0  0
   14.4089    2.3447   -4.8185 H   0  0  0  0  0  0  0  0  0  0  0  0
   14.9076   -0.2425   -3.7799 H   0  0  0  0  0  0  0  0  0  0  0  0
   15.0512    4.6381   -1.9484 H   0  0  0  0  0  0  0  0  0  0  0  0
   17.1586    5.4091   -0.9540 H   0  0  0  0  0  0  0  0  0  0  0  0
   16.7270    0.6717   -2.3903 H   0  0  0  0  0  0  0  0  0  0  0  0
  1  2  2  0  0  0  0
  1 27  1  0  0  0  0
  1 28  1  0  0  0  0
  2  3  1  0  0  0  0
  2 29  1  0  0  0  0
  3  4  2  0  0  0  0
  3  5  1  0  0  0  0
  5  6  1  0  0  0  0
  5 30  1  0  0  0  0
  6  7  1  0  0  0  0
  6 31  1  0  0  0  0
  6 32  1  0  0  0  0
  7  8  1  0  0  0  0
  7 12  2  0  0  0  0
  8  9  2  0  0  0  0
  8 33  1  0  0  0  0
  9 10  1  0  0  0  0
  9 34  1  0  0  0  0
 10 11  2  0  0  0  0
 10 13  1  0  0  0  0
 11 12  1  0  0  0  0
 11 35  1  0  0  0  0
 12 36  1  0  0  0  0
 13 14  2  0  0  0  0
 13 15  1  0  0  0  0
 15 37  1  0  0  0  0
 16 19  1  0  0  0  0
 16 17  1  0  0  0  0
 16 15  1  0  0  0  0
 16 38  1  6  0  0  0
 17 18  1  0  0  0  0
 17 39  1  0  0  0  0
 17 40  1  0  0  0  0
 18 41  1  0  0  0  0
 19 20  1  0  0  0  0
 19 24  2  0  0  0  0
 20 21  2  0  0  0  0
 20 42  1  0  0  0  0
 21 22  1  0  0  0  0
 21 43  1  0  0  0  0
 22 23  2  0  0  0  0
 22 26  1  0  0  0  0
 23 24  1  0  0  0  0
 23 25  1  0  0  0  0
 24 44  1  0  0  0  0
M  END
$$$$
