
 OpenBabel07202414153D

 47 49  0  0  0  0  0  0  0  0999 V2000
    6.2814   -0.7817   -7.6489 C   0  0  0  0  0  0  0  0  0  0  0  0
    5.6299   -0.4950   -6.4130 O   0  0  0  0  0  0  0  0  0  0  0  0
    6.0493    0.6102   -5.7247 C   0  0  0  0  0  0  0  0  0  0  0  0
    6.6720    1.6912   -6.3779 C   0  0  0  0  0  0  0  0  0  0  0  0
    7.0579    2.8361   -5.6772 C   0  0  0  0  0  0  0  0  0  0  0  0
    6.8275    2.9162   -4.3111 C   0  0  0  0  0  0  0  0  0  0  0  0
    6.2018    1.8543   -3.6545 C   0  0  0  0  0  0  0  0  0  0  0  0
    5.7939    0.6985   -4.3389 C   0  0  0  0  0  0  0  0  0  0  0  0
    5.1609   -0.1999   -3.5055 O   0  0  0  0  0  0  0  0  0  0  0  0
    4.8675   -1.5106   -4.0029 C   0  0  0  0  0  0  0  0  0  0  0  0
    4.3395   -2.4188   -2.8543 C   0  0  0  0  0  0  0  0  0  0  0  0
    3.8419   -3.7714   -3.1930 N   0  0  0  0  0  0  0  0  0  0  0  0
    4.3531   -4.4599   -4.2540 C   0  0  0  0  0  0  0  0  0  0  0  0
    5.0296   -3.8762   -5.1088 O   0  0  0  0  0  0  0  0  0  0  0  0
    4.1944   -5.9333   -4.3455 C   0  0  0  0  0  0  0  0  0  0  0  0
    4.9252   -6.2967   -5.4288 C   0  0  0  0  0  0  0  0  0  0  0  0
    5.7106   -7.5178   -5.0781 C   0  0  0  0  0  0  0  0  0  0  0  0
    6.9121   -7.5833   -5.2027 O   0  0  0  0  0  0  0  0  0  0  0  0
    4.9254   -8.5288   -4.6043 N   0  0  0  0  0  0  0  0  0  0  0  0
    3.5753   -8.2685   -4.3328 C   0  0  0  0  0  0  0  0  0  0  0  0
    2.6406   -9.1227   -4.8975 C   0  0  0  0  0  0  0  0  0  0  0  0
    1.3138   -8.7177   -4.9245 C   0  0  0  0  0  0  0  0  0  0  0  0
    0.9311   -7.6098   -4.1748 C   0  0  0  0  0  0  0  0  0  0  0  0
    1.8907   -6.8177   -3.5243 C   0  0  0  0  0  0  0  0  0  0  0  0
    1.5469   -6.0863   -2.4099 O   0  0  0  0  0  0  0  0  0  0  0  0
    0.6432   -6.8408   -1.5590 C   0  0  0  0  0  0  0  0  0  0  0  0
    3.2320   -6.9753   -3.8807 C   0  0  0  0  0  0  0  0  0  0  0  0
    5.9618   -1.7752   -7.9773 H   0  0  0  0  0  0  0  0  0  0  0  0
    7.3710   -0.8007   -7.5345 H   0  0  0  0  0  0  0  0  0  0  0  0
    5.9813   -0.0710   -8.4260 H   0  0  0  0  0  0  0  0  0  0  0  0
    6.8528    1.6847   -7.4468 H   0  0  0  0  0  0  0  0  0  0  0  0
    7.5269    3.6669   -6.2041 H   0  0  0  0  0  0  0  0  0  0  0  0
    7.1231    3.8021   -3.7584 H   0  0  0  0  0  0  0  0  0  0  0  0
    6.0242    1.9284   -2.5835 H   0  0  0  0  0  0  0  0  0  0  0  0
    5.8010   -1.9280   -4.3940 H   0  0  0  0  0  0  0  0  0  0  0  0
    4.0981   -1.4409   -4.7793 H   0  0  0  0  0  0  0  0  0  0  0  0
    3.5249   -1.9077   -2.3304 H   0  0  0  0  0  0  0  0  0  0  0  0
    5.1403   -2.5558   -2.1194 H   0  0  0  0  0  0  0  0  0  0  0  0
    3.3487   -4.2964   -2.4759 H   0  0  0  0  0  0  0  0  0  0  0  0
    4.3924   -6.5420   -6.3319 H   0  0  0  0  0  0  0  0  0  0  0  0
    5.4312   -9.2387   -4.0854 H   0  0  0  0  0  0  0  0  0  0  0  0
    2.9579   -9.9899   -5.4657 H   0  0  0  0  0  0  0  0  0  0  0  0
    0.5792   -9.2804   -5.4907 H   0  0  0  0  0  0  0  0  0  0  0  0
   -0.1279   -7.3861   -4.0717 H   0  0  0  0  0  0  0  0  0  0  0  0
    0.7118   -6.4692   -0.5320 H   0  0  0  0  0  0  0  0  0  0  0  0
    0.8854   -7.9145   -1.5253 H   0  0  0  0  0  0  0  0  0  0  0  0
   -0.3922   -6.7101   -1.8952 H   0  0  0  0  0  0  0  0  0  0  0  0
  1  2  1  0  0  0  0
  1 28  1  0  0  0  0
  1 29  1  0  0  0  0
  1 30  1  0  0  0  0
  2  3  1  0  0  0  0
  3  4  1  0  0  0  0
  3  8  2  0  0  0  0
  4  5  2  0  0  0  0
  4 31  1  0  0  0  0
  5  6  1  0  0  0  0
  5 32  1  0  0  0  0
  6  7  2  0  0  0  0
  6 33  1  0  0  0  0
  7  8  1  0  0  0  0
  7 34  1  0  0  0  0
  8  9  1  0  0  0  0
  9 10  1  0  0  0  0
 10 11  1  0  0  0  0
 10 35  1  0  0  0  0
 10 36  1  0  0  0  0
 11 12  1  0  0  0  0
 11 37  1  0  0  0  0
 11 38  1  0  0  0  0
 12 13  1  0  0  0  0
 12 39  1  0  0  0  0
 13 14  2  0  0  0  0
 13 15  1  0  0  0  0
 15 16  2  0  0  0  0
 15 27  1  0  0  0  0
 16 17  1  0  0  0  0
 16 40  1  0  0  0  0
 17 18  2  0  0  0  0
 17 19  1  0  0  0  0
 19 20  1  0  0  0  0
 19 41  1  0  0  0  0
 20 21  1  0  0  0  0
 20 27  2  0  0  0  0
 21 22  2  0  0  0  0
 21 42  1  0  0  0  0
 22 23  1  0  0  0  0
 22 43  1  0  0  0  0
 23 24  2  0  0  0  0
 23 44  1  0  0  0  0
 24 25  1  0  0  0  0
 24 27  1  0  0  0  0
 25 26  1  0  0  0  0
 26 45  1  0  0  0  0
 26 46  1  0  0  0  0
 26 47  1  0  0  0  0
M  END
$$$$
