
 OpenBabel07202414133D

 77 82  0  0  1  0  0  0  0  0999 V2000
    2.0052   -8.2889    1.1181 C   0  0  0  0  0  0  0  0  0  0  0  0
    3.2210   -7.5102    1.3498 N   0  0  0  0  0  0  0  0  0  0  0  0
    3.9620   -8.0664    2.4836 C   0  0  0  0  0  0  0  0  0  0  0  0
    4.0751   -7.4662    0.1451 C   0  0  0  0  0  0  0  0  0  0  0  0
    3.4124   -6.8092   -1.0936 C   0  0  3  0  0  0  0  0  0  0  0  0
    3.0191   -5.4578   -0.8178 O   0  0  0  0  0  0  0  0  0  0  0  0
    4.3632   -6.8048   -2.2906 C   0  0  0  0  0  0  0  0  0  0  0  0
    5.5335   -6.0804   -1.9140 O   0  0  0  0  0  0  0  0  0  0  0  0
    6.4764   -5.9201   -2.8835 C   0  0  0  0  0  0  0  0  0  0  0  0
    6.2462   -5.9382   -4.2496 C   0  0  0  0  0  0  0  0  0  0  0  0
    7.2912   -5.6620   -5.1222 C   0  0  0  0  0  0  0  0  0  0  0  0
    8.5706   -5.3696   -4.6328 C   0  0  0  0  0  0  0  0  0  0  0  0
    9.5808   -5.0227   -5.5227 C   0  0  0  0  0  0  0  0  0  0  0  0
   10.8237   -4.6813   -5.1544 N   0  0  0  0  0  0  0  0  0  0  0  0
   11.0810   -4.7174   -3.8267 C   0  0  0  0  0  0  0  0  0  0  0  0
   10.1681   -5.0819   -2.8166 C   0  0  0  0  0  0  0  0  0  0  0  0
   10.6696   -5.2006   -1.4898 N   0  0  0  0  0  0  0  0  0  0  0  0
   10.0527   -5.6873   -0.3009 C   0  0  0  0  0  0  0  0  0  0  0  0
   11.2141   -5.9696    0.6653 C   0  0  0  0  0  0  0  0  0  0  0  0
   12.4798   -5.3539   -0.0006 C   0  0  3  0  0  0  0  0  0  0  0  0
   13.2453   -4.4343    0.9651 C   0  0  0  0  0  0  0  0  0  0  0  0
   14.6478   -4.1354    0.5478 N   0  0  0  0  0  0  0  0  0  0  0  0
   14.9871   -3.1316   -0.7944 S   0  0  0  0  0  0  0  0  0  0  0  0
   16.4257   -2.9571   -0.7514 O   0  0  0  0  0  0  0  0  0  0  0  0
   14.3997   -3.7138   -1.9716 O   0  0  0  0  0  0  0  0  0  0  0  0
   14.2435   -1.5256   -0.3607 C   0  0  0  0  0  0  0  0  0  0  0  0
   14.3850   -0.6643   -1.5993 C   0  0  0  0  0  0  0  0  0  0  0  0
   15.7302   -0.4837   -2.0908 C   0  0  0  0  0  0  0  0  0  0  0  0
   16.8011   -0.2927   -2.4924 N   0  0  0  0  0  0  0  0  0  0  0  0
   13.2460   -0.6198   -2.6032 C   0  0  0  0  0  0  0  0  0  0  0  0
   13.5044    0.5771   -1.7414 C   0  0  0  0  0  0  0  0  0  0  0  0
   15.4425   -5.3931    0.4991 C   0  0  0  0  0  0  0  0  0  0  0  0
   14.7813   -6.4732   -0.3263 C   0  0  0  0  0  0  0  0  0  0  0  0
   15.5950   -7.5052   -0.8365 C   0  0  0  0  0  0  0  0  0  0  0  0
   15.0494   -8.5314   -1.6029 C   0  0  0  0  0  0  0  0  0  0  0  0
   13.6855   -8.5364   -1.8562 C   0  0  0  0  0  0  0  0  0  0  0  0
   12.9933   -9.8037   -2.7926 Cl  0  0  0  0  0  0  0  0  0  0  0  0
   12.8639   -7.5254   -1.3501 C   0  0  0  0  0  0  0  0  0  0  0  0
   13.3872   -6.4700   -0.5743 C   0  0  0  0  0  0  0  0  0  0  0  0
   11.7865   -4.5009   -1.0563 C   0  0  0  0  0  0  0  0  0  0  0  0
   11.9644   -3.3160   -1.2972 O   0  0  0  0  0  0  0  0  0  0  0  0
    8.8495   -5.3853   -3.2402 C   0  0  0  0  0  0  0  0  0  0  0  0
    7.7532   -5.6469   -2.3930 C   0  0  0  0  0  0  0  0  0  0  0  0
    1.3841   -8.3104    2.0194 H   0  0  0  0  0  0  0  0  0  0  0  0
    2.2323   -9.3200    0.8251 H   0  0  0  0  0  0  0  0  0  0  0  0
    1.3818   -7.8347    0.3424 H   0  0  0  0  0  0  0  0  0  0  0  0
    3.3122   -8.1678    3.3604 H   0  0  0  0  0  0  0  0  0  0  0  0
    4.7777   -7.3963    2.7770 H   0  0  0  0  0  0  0  0  0  0  0  0
    4.3855   -9.0518    2.2579 H   0  0  0  0  0  0  0  0  0  0  0  0
    4.3996   -8.4801   -0.1249 H   0  0  0  0  0  0  0  0  0  0  0  0
    4.9770   -6.8950    0.4023 H   0  0  0  0  0  0  0  0  0  0  0  0
    2.5134   -7.3538   -1.3941 H   0  0  0  0  0  0  0  0  0  0  0  0
    3.8208   -4.9918   -0.5183 H   0  0  0  0  0  0  0  0  0  0  0  0
    3.8551   -6.3098   -3.1240 H   0  0  0  0  0  0  0  0  0  0  0  0
    4.6387   -7.8305   -2.5637 H   0  0  0  0  0  0  0  0  0  0  0  0
    5.2626   -6.1086   -4.6703 H   0  0  0  0  0  0  0  0  0  0  0  0
    7.0884   -5.6425   -6.1913 H   0  0  0  0  0  0  0  0  0  0  0  0
    9.4056   -4.9857   -6.5953 H   0  0  0  0  0  0  0  0  0  0  0  0
   12.1128   -4.4546   -3.5982 H   0  0  0  0  0  0  0  0  0  0  0  0
    9.4420   -6.5780   -0.4452 H   0  0  0  0  0  0  0  0  0  0  0  0
    9.4509   -4.8631    0.1097 H   0  0  0  0  0  0  0  0  0  0  0  0
   11.3057   -7.0512    0.8204 H   0  0  0  0  0  0  0  0  0  0  0  0
   10.9997   -5.5369    1.6492 H   0  0  0  0  0  0  0  0  0  0  0  0
   13.3192   -4.9398    1.9415 H   0  0  0  0  0  0  0  0  0  0  0  0
   12.7099   -3.5023    1.1775 H   0  0  0  0  0  0  0  0  0  0  0  0
   14.8203   -1.1157    0.4766 H   0  0  0  0  0  0  0  0  0  0  0  0
   13.2044   -1.6425   -0.0496 H   0  0  0  0  0  0  0  0  0  0  0  0
   12.3338   -1.1739   -2.4136 H   0  0  0  0  0  0  0  0  0  0  0  0
   13.5028   -0.5814   -3.6576 H   0  0  0  0  0  0  0  0  0  0  0  0
   12.7783    0.8129   -0.9733 H   0  0  0  0  0  0  0  0  0  0  0  0
   13.9202    1.4559   -2.2286 H   0  0  0  0  0  0  0  0  0  0  0  0
   15.5870   -5.7584    1.5232 H   0  0  0  0  0  0  0  0  0  0  0  0
   16.4486   -5.1945    0.1140 H   0  0  0  0  0  0  0  0  0  0  0  0
   16.6691   -7.5031   -0.6522 H   0  0  0  0  0  0  0  0  0  0  0  0
   15.6908   -9.3127   -2.0021 H   0  0  0  0  0  0  0  0  0  0  0  0
   11.8027   -7.5828   -1.5740 H   0  0  0  0  0  0  0  0  0  0  0  0
    7.8404   -5.5910   -1.3170 H   0  0  0  0  0  0  0  0  0  0  0  0
  1  2  1  0  0  0  0
  1 44  1  0  0  0  0
  1 45  1  0  0  0  0
  1 46  1  0  0  0  0
  2  3  1  0  0  0  0
  2  4  1  0  0  0  0
  3 47  1  0  0  0  0
  3 48  1  0  0  0  0
  3 49  1  0  0  0  0
  4  5  1  0  0  0  0
  4 50  1  0  0  0  0
  4 51  1  0  0  0  0
  5  6  1  0  0  0  0
  5  7  1  0  0  0  0
  5 52  1  0  0  0  0
  6 53  1  0  0  0  0
  7  8  1  0  0  0  0
  7 54  1  0  0  0  0
  7 55  1  0  0  0  0
  8  9  1  0  0  0  0
  9 10  1  0  0  0  0
  9 43  2  0  0  0  0
 10 11  2  0  0  0  0
 10 56  1  0  0  0  0
 11 12  1  0  0  0  0
 11 57  1  0  0  0  0
 12 13  1  0  0  0  0
 12 42  2  0  0  0  0
 13 14  2  0  0  0  0
 13 58  1  0  0  0  0
 14 15  1  0  0  0  0
 15 16  2  0  0  0  0
 15 59  1  0  0  0  0
 16 17  1  0  0  0  0
 16 42  1  0  0  0  0
 17 18  1  0  0  0  0
 17 40  1  0  0  0  0
 18 19  1  0  0  0  0
 18 60  1  0  0  0  0
 18 61  1  0  0  0  0
 19 20  1  0  0  0  0
 19 62  1  0  0  0  0
 19 63  1  0  0  0  0
 20 21  1  0  0  0  0
 20 39  1  0  0  0  0
 20 40  1  0  0  0  0
 21 22  1  0  0  0  0
 21 64  1  0  0  0  0
 21 65  1  0  0  0  0
 22 23  1  0  0  0  0
 22 32  1  0  0  0  0
 23 24  2  0  0  0  0
 23 25  2  0  0  0  0
 23 26  1  0  0  0  0
 26 27  1  0  0  0  0
 26 66  1  0  0  0  0
 26 67  1  0  0  0  0
 27 28  1  0  0  0  0
 27 30  1  0  0  0  0
 27 31  1  0  0  0  0
 28 29  3  0  0  0  0
 30 31  1  0  0  0  0
 30 68  1  0  0  0  0
 30 69  1  0  0  0  0
 31 70  1  0  0  0  0
 31 71  1  0  0  0  0
 32 33  1  0  0  0  0
 32 72  1  0  0  0  0
 32 73  1  0  0  0  0
 33 34  1  0  0  0  0
 33 39  2  0  0  0  0
 34 35  2  0  0  0  0
 34 74  1  0  0  0  0
 35 36  1  0  0  0  0
 35 75  1  0  0  0  0
 36 37  1  0  0  0  0
 36 38  2  0  0  0  0
 38 39  1  0  0  0  0
 38 76  1  0  0  0  0
 40 41  2  0  0  0  0
 42 43  1  0  0  0  0
 43 77  1  0  0  0  0
M  END
$$$$
