
 OpenBabel07202414153D

 51 54  0  0  0  0  0  0  0  0999 V2000
    6.9254   -0.4993   -3.3653 C   0  0  0  0  0  0  0  0  0  0  0  0
    6.1587   -0.2483   -2.1888 O   0  0  0  0  0  0  0  0  0  0  0  0
    6.8777    0.1185   -1.0818 C   0  0  0  0  0  0  0  0  0  0  0  0
    8.1199    0.7544   -1.1182 C   0  0  0  0  0  0  0  0  0  0  0  0
    8.7610    1.0930    0.0721 C   0  0  0  0  0  0  0  0  0  0  0  0
    8.1629    0.8066    1.3011 C   0  0  0  0  0  0  0  0  0  0  0  0
    6.9062    0.1835    1.3647 C   0  0  0  0  0  0  0  0  0  0  0  0
    6.2310   -0.0447    2.7120 C   0  0  0  0  0  0  0  0  0  0  0  0
    7.0844   -0.7771    3.6570 N   0  0  0  0  0  0  0  0  0  0  0  0
    7.0933   -2.2401    3.4628 C   0  0  0  0  0  0  0  0  0  0  0  0
    5.9518   -3.0489    4.1416 C   0  0  0  0  0  0  0  0  0  0  0  0
    5.7439   -2.6473    5.5364 N   0  0  0  0  0  0  0  0  0  0  0  0
    5.2103   -3.4548    6.5368 C   0  0  0  0  0  0  0  0  0  0  0  0
    5.3035   -3.1911    7.7337 O   0  0  0  0  0  0  0  0  0  0  0  0
    4.2788   -4.5268    6.0770 C   0  0  0  0  0  0  0  0  0  0  0  0
    3.0342   -4.1474    6.4501 C   0  0  0  0  0  0  0  0  0  0  0  0
    1.9545   -4.9005    5.7623 C   0  0  0  0  0  0  0  0  0  0  0  0
    0.9442   -4.3411    5.3652 O   0  0  0  0  0  0  0  0  0  0  0  0
    2.1624   -6.2470    5.6797 N   0  0  0  0  0  0  0  0  0  0  0  0
    3.3631   -6.8131    6.1726 C   0  0  0  0  0  0  0  0  0  0  0  0
    3.3697   -8.1278    6.6296 C   0  0  0  0  0  0  0  0  0  0  0  0
    4.5583   -8.6311    7.1544 C   0  0  0  0  0  0  0  0  0  0  0  0
    5.7347   -7.8786    7.0807 C   0  0  0  0  0  0  0  0  0  0  0  0
    5.7147   -6.5556    6.6209 C   0  0  0  0  0  0  0  0  0  0  0  0
    4.4985   -5.9833    6.2699 C   0  0  0  0  0  0  0  0  0  0  0  0
    5.6885   -1.2033    5.7553 C   0  0  0  0  0  0  0  0  0  0  0  0
    6.8358   -0.4451    5.0708 C   0  0  0  0  0  0  0  0  0  0  0  0
    6.2689   -0.1427    0.1578 C   0  0  0  0  0  0  0  0  0  0  0  0
    6.2563   -0.9207   -4.1222 H   0  0  0  0  0  0  0  0  0  0  0  0
    7.7140   -1.2346   -3.1706 H   0  0  0  0  0  0  0  0  0  0  0  0
    7.3441    0.4241   -3.7791 H   0  0  0  0  0  0  0  0  0  0  0  0
    8.6007    1.0173   -2.0546 H   0  0  0  0  0  0  0  0  0  0  0  0
    9.7272    1.5905    0.0435 H   0  0  0  0  0  0  0  0  0  0  0  0
    8.6776    1.0830    2.2191 H   0  0  0  0  0  0  0  0  0  0  0  0
    5.2529   -0.5252    2.5928 H   0  0  0  0  0  0  0  0  0  0  0  0
    6.0265    0.9656    3.0943 H   0  0  0  0  0  0  0  0  0  0  0  0
    8.0412   -2.5946    3.8899 H   0  0  0  0  0  0  0  0  0  0  0  0
    7.1446   -2.4952    2.3977 H   0  0  0  0  0  0  0  0  0  0  0  0
    6.2125   -4.1135    4.1226 H   0  0  0  0  0  0  0  0  0  0  0  0
    5.0089   -2.9191    3.6004 H   0  0  0  0  0  0  0  0  0  0  0  0
    2.8491   -4.1791    7.5409 H   0  0  0  0  0  0  0  0  0  0  0  0
    1.4636   -6.8133    5.2465 H   0  0  0  0  0  0  0  0  0  0  0  0
    2.4516   -8.7017    6.6964 H   0  0  0  0  0  0  0  0  0  0  0  0
    4.5627   -9.6011    7.6412 H   0  0  0  0  0  0  0  0  0  0  0  0
    6.6689   -8.3039    7.4416 H   0  0  0  0  0  0  0  0  0  0  0  0
    6.6345   -5.9789    6.5966 H   0  0  0  0  0  0  0  0  0  0  0  0
    5.6896   -0.9796    6.8271 H   0  0  0  0  0  0  0  0  0  0  0  0
    4.7232   -0.8612    5.3594 H   0  0  0  0  0  0  0  0  0  0  0  0
    7.7586   -0.6762    5.6186 H   0  0  0  0  0  0  0  0  0  0  0  0
    6.6864    0.6342    5.1989 H   0  0  0  0  0  0  0  0  0  0  0  0
    5.2838   -0.6036    0.1678 H   0  0  0  0  0  0  0  0  0  0  0  0
  1  2  1  0  0  0  0
  1 29  1  0  0  0  0
  1 30  1  0  0  0  0
  1 31  1  0  0  0  0
  2  3  1  0  0  0  0
  3  4  1  0  0  0  0
  3 28  2  0  0  0  0
  4  5  2  0  0  0  0
  4 32  1  0  0  0  0
  5  6  1  0  0  0  0
  5 33  1  0  0  0  0
  6  7  2  0  0  0  0
  6 34  1  0  0  0  0
  7  8  1  0  0  0  0
  7 28  1  0  0  0  0
  8  9  1  0  0  0  0
  8 35  1  0  0  0  0
  8 36  1  0  0  0  0
  9 10  1  0  0  0  0
  9 27  1  0  0  0  0
 10 11  1  0  0  0  0
 10 37  1  0  0  0  0
 10 38  1  0  0  0  0
 11 12  1  0  0  0  0
 11 39  1  0  0  0  0
 11 40  1  0  0  0  0
 12 13  1  0  0  0  0
 12 26  1  0  0  0  0
 13 14  2  0  0  0  0
 13 15  1  0  0  0  0
 15 16  2  0  0  0  0
 15 25  1  0  0  0  0
 16 17  1  0  0  0  0
 16 41  1  0  0  0  0
 17 18  2  0  0  0  0
 17 19  1  0  0  0  0
 19 20  1  0  0  0  0
 19 42  1  0  0  0  0
 20 21  1  0  0  0  0
 20 25  2  0  0  0  0
 21 22  2  0  0  0  0
 21 43  1  0  0  0  0
 22 23  1  0  0  0  0
 22 44  1  0  0  0  0
 23 24  2  0  0  0  0
 23 45  1  0  0  0  0
 24 25  1  0  0  0  0
 24 46  1  0  0  0  0
 26 27  1  0  0  0  0
 26 47  1  0  0  0  0
 26 48  1  0  0  0  0
 27 49  1  0  0  0  0
 27 50  1  0  0  0  0
 28 51  1  0  0  0  0
M  END
$$$$
