
 OpenBabel07202414133D

 66 70  0  0  1  0  0  0  0  0999 V2000
    3.1665    3.1053   -1.0427 C   0  0  0  0  0  0  0  0  0  0  0  0
    3.6121    2.3653    0.1426 N   0  0  0  0  0  0  0  0  0  0  0  0
    3.0669    2.7323    1.4618 C   0  0  0  0  0  0  0  0  0  0  0  0
    1.5724    3.0915    1.4822 C   0  0  0  0  0  0  0  0  0  0  0  0
    1.0422    3.3345    2.8753 C   0  0  0  0  0  0  0  0  0  0  0  0
    1.0415    4.6260    3.4246 C   0  0  0  0  0  0  0  0  0  0  0  0
    0.5041    4.8562    4.6931 C   0  0  0  0  0  0  0  0  0  0  0  0
   -0.0262    3.7991    5.4286 C   0  0  0  0  0  0  0  0  0  0  0  0
   -0.0053    2.5082    4.9041 C   0  0  0  0  0  0  0  0  0  0  0  0
    0.5301    2.2757    3.6353 C   0  0  0  0  0  0  0  0  0  0  0  0
    4.5856    1.3846   -0.0605 C   0  0  0  0  0  0  0  0  0  0  0  0
    4.9585    1.0823   -1.2101 O   0  0  0  0  0  0  0  0  0  0  0  0
    5.1898    0.6137    1.1454 C   0  0  0  0  0  0  0  0  0  0  0  0
    5.8938    1.4917    2.0861 N   0  0  0  0  0  0  0  0  0  0  0  0
    6.3774    0.8095    3.3012 C   0  0  0  0  0  0  0  0  0  0  0  0
    6.4987    1.9121    4.3376 C   0  0  0  0  0  0  0  0  0  0  0  0
    5.8740    1.8084    5.5856 C   0  0  0  0  0  0  0  0  0  0  0  0
    5.5915    2.9614    6.3109 C   0  0  0  0  0  0  0  0  0  0  0  0
    5.9546    4.2069    5.7891 C   0  0  0  0  0  0  0  0  0  0  0  0
    5.3785    5.6368    6.5601 Cl  0  0  0  0  0  0  0  0  0  0  0  0
    6.6940    4.3062    4.6101 C   0  0  0  0  0  0  0  0  0  0  0  0
    7.0158    3.1488    3.8888 C   0  0  0  0  0  0  0  0  0  0  0  0
    7.7437    3.1815    2.5409 C   0  0  1  0  0  0  0  0  0  0  0  0
    9.2594    2.8773    2.6239 C   0  0  0  0  0  0  0  0  0  0  0  0
    9.8569    2.3188    1.6895 O   0  0  0  0  0  0  0  0  0  0  0  0
    9.8965    3.3828    3.7537 N   0  0  0  0  0  0  0  0  0  0  0  0
   11.2850    3.4201    4.0562 C   0  0  0  0  0  0  0  0  0  0  0  0
   12.2758    2.9451    3.2067 C   0  0  0  0  0  0  0  0  0  0  0  0
   13.5967    3.2206    3.3564 N   0  0  0  0  0  0  0  0  0  0  0  0
   13.9528    3.8651    4.4858 C   0  0  0  0  0  0  0  0  0  0  0  0
   13.0874    4.1150    5.5456 C   0  0  0  0  0  0  0  0  0  0  0  0
   13.5672    4.4575    6.8252 C   0  0  0  0  0  0  0  0  0  0  0  0
   12.6810    4.7405    7.8612 C   0  0  0  0  0  0  0  0  0  0  0  0
   11.3208    4.7928    7.5954 C   0  0  0  0  0  0  0  0  0  0  0  0
   10.8396    4.4345    6.3306 C   0  0  0  0  0  0  0  0  0  0  0  0
   11.7043    3.9969    5.2957 C   0  0  0  0  0  0  0  0  0  0  0  0
    7.0350    2.2351    1.5009 C   0  0  0  0  0  0  0  0  0  0  0  0
    2.6029    4.0031   -0.7876 H   0  0  0  0  0  0  0  0  0  0  0  0
    2.5348    2.4364   -1.6456 H   0  0  0  0  0  0  0  0  0  0  0  0
    4.0216    3.4113   -1.6471 H   0  0  0  0  0  0  0  0  0  0  0  0
    3.6618    3.5727    1.8410 H   0  0  0  0  0  0  0  0  0  0  0  0
    3.2201    1.8946    2.1468 H   0  0  0  0  0  0  0  0  0  0  0  0
    0.9906    2.2886    1.0076 H   0  0  0  0  0  0  0  0  0  0  0  0
    1.3695    3.9884    0.8848 H   0  0  0  0  0  0  0  0  0  0  0  0
    1.4449    5.4658    2.8627 H   0  0  0  0  0  0  0  0  0  0  0  0
    0.4930    5.8622    5.1039 H   0  0  0  0  0  0  0  0  0  0  0  0
   -0.4572    3.9810    6.4099 H   0  0  0  0  0  0  0  0  0  0  0  0
   -0.4144    1.6823    5.4799 H   0  0  0  0  0  0  0  0  0  0  0  0
    0.5301    1.2634    3.2378 H   0  0  0  0  0  0  0  0  0  0  0  0
    5.8592   -0.1555    0.7576 H   0  0  0  0  0  0  0  0  0  0  0  0
    4.3576    0.0972    1.6414 H   0  0  0  0  0  0  0  0  0  0  0  0
    7.3460    0.3091    3.1542 H   0  0  0  0  0  0  0  0  0  0  0  0
    5.6629    0.0577    3.6524 H   0  0  0  0  0  0  0  0  0  0  0  0
    5.5100    0.8470    5.9460 H   0  0  0  0  0  0  0  0  0  0  0  0
    5.0194    2.8948    7.2319 H   0  0  0  0  0  0  0  0  0  0  0  0
    6.9432    5.2886    4.2153 H   0  0  0  0  0  0  0  0  0  0  0  0
    7.6689    4.2056    2.1445 H   0  0  0  0  0  0  0  0  0  0  0  0
    9.2916    3.8460    4.4008 H   0  0  0  0  0  0  0  0  0  0  0  0
   12.0643    2.3112    2.3514 H   0  0  0  0  0  0  0  0  0  0  0  0
   14.9868    4.1998    4.5138 H   0  0  0  0  0  0  0  0  0  0  0  0
   14.6350    4.4368    7.0376 H   0  0  0  0  0  0  0  0  0  0  0  0
   13.0494    4.9300    8.8660 H   0  0  0  0  0  0  0  0  0  0  0  0
   10.6241    5.0851    8.3759 H   0  0  0  0  0  0  0  0  0  0  0  0
    9.7630    4.4799    6.1919 H   0  0  0  0  0  0  0  0  0  0  0  0
    7.7338    1.5211    1.0546 H   0  0  0  0  0  0  0  0  0  0  0  0
    6.6692    2.8658    0.6825 H   0  0  0  0  0  0  0  0  0  0  0  0
  1  2  1  0  0  0  0
  1 38  1  0  0  0  0
  1 39  1  0  0  0  0
  1 40  1  0  0  0  0
  2  3  1  0  0  0  0
  2 11  1  0  0  0  0
  3  4  1  0  0  0  0
  3 41  1  0  0  0  0
  3 42  1  0  0  0  0
  4  5  1  0  0  0  0
  4 43  1  0  0  0  0
  4 44  1  0  0  0  0
  5  6  1  0  0  0  0
  5 10  2  0  0  0  0
  6  7  2  0  0  0  0
  6 45  1  0  0  0  0
  7  8  1  0  0  0  0
  7 46  1  0  0  0  0
  8  9  2  0  0  0  0
  8 47  1  0  0  0  0
  9 10  1  0  0  0  0
  9 48  1  0  0  0  0
 10 49  1  0  0  0  0
 11 12  2  0  0  0  0
 11 13  1  0  0  0  0
 13 14  1  0  0  0  0
 13 50  1  0  0  0  0
 13 51  1  0  0  0  0
 14 15  1  0  0  0  0
 14 37  1  0  0  0  0
 15 16  1  0  0  0  0
 15 52  1  0  0  0  0
 15 53  1  0  0  0  0
 16 17  1  0  0  0  0
 16 22  2  0  0  0  0
 17 18  2  0  0  0  0
 17 54  1  0  0  0  0
 18 19  1  0  0  0  0
 18 55  1  0  0  0  0
 19 20  1  0  0  0  0
 19 21  2  0  0  0  0
 21 22  1  0  0  0  0
 21 56  1  0  0  0  0
 22 23  1  0  0  0  0
 23 24  1  0  0  0  0
 23 37  1  0  0  0  0
 23 57  1  6  0  0  0
 24 25  2  0  0  0  0
 24 26  1  0  0  0  0
 26 27  1  0  0  0  0
 26 58  1  0  0  0  0
 27 28  1  0  0  0  0
 27 36  2  0  0  0  0
 28 29  2  0  0  0  0
 28 59  1  0  0  0  0
 29 30  1  0  0  0  0
 30 31  2  0  0  0  0
 30 60  1  0  0  0  0
 31 32  1  0  0  0  0
 31 36  1  0  0  0  0
 32 33  2  0  0  0  0
 32 61  1  0  0  0  0
 33 34  1  0  0  0  0
 33 62  1  0  0  0  0
 34 35  2  0  0  0  0
 34 63  1  0  0  0  0
 35 36  1  0  0  0  0
 35 64  1  0  0  0  0
 37 65  1  0  0  0  0
 37 66  1  0  0  0  0
M  END
$$$$
