
 OpenBabel07202414133D

 55 59  0  0  0  0  0  0  0  0999 V2000
   -0.3995    5.4207   -1.2501 C   0  0  0  0  0  0  0  0  0  0  0  0
   -1.3973    4.3285   -1.0672 C   0  0  0  0  0  0  0  0  0  0  0  0
   -2.7307    4.2063   -1.4275 C   0  0  0  0  0  0  0  0  0  0  0  0
   -3.5500    5.2061   -2.1136 C   0  0  0  0  0  0  0  0  0  0  0  0
   -3.0407    6.0471   -3.1109 C   0  0  0  0  0  0  0  0  0  0  0  0
   -3.8470    7.0274   -3.6993 C   0  0  0  0  0  0  0  0  0  0  0  0
   -5.1843    7.1434   -3.3283 C   0  0  0  0  0  0  0  0  0  0  0  0
   -6.1689    8.3555   -4.0489 Cl  0  0  0  0  0  0  0  0  0  0  0  0
   -5.7263    6.2792   -2.3823 C   0  0  0  0  0  0  0  0  0  0  0  0
   -4.9113    5.3168   -1.7778 C   0  0  0  0  0  0  0  0  0  0  0  0
   -3.3286    3.0232   -1.0196 N   0  0  0  0  0  0  0  0  0  0  0  0
   -2.4914    2.2432   -0.3770 C   0  0  0  0  0  0  0  0  0  0  0  0
   -2.7769    1.0369    0.1776 N   0  0  0  0  0  0  0  0  0  0  0  0
   -3.9669    0.3025    0.0258 C   0  0  0  0  0  0  0  0  0  0  0  0
   -4.3659   -0.5865    1.0462 C   0  0  0  0  0  0  0  0  0  0  0  0
   -5.5912   -1.2695    0.9884 C   0  0  0  0  0  0  0  0  0  0  0  0
   -6.0739   -2.1279    2.1337 C   0  0  0  0  0  0  0  0  0  0  0  0
   -5.1800   -3.2859    2.5295 C   0  0  0  0  0  0  0  0  0  0  0  0
   -4.8961   -3.4860    3.7089 O   0  0  0  0  0  0  0  0  0  0  0  0
   -4.7658   -4.0836    1.4781 N   0  0  0  0  0  0  0  0  0  0  0  0
   -3.9617   -5.2341    1.6673 C   0  0  0  0  0  0  0  0  0  0  0  0
   -4.2344   -6.1425    2.6933 C   0  0  0  0  0  0  0  0  0  0  0  0
   -3.5385   -7.2808    2.9127 N   0  0  0  0  0  0  0  0  0  0  0  0
   -2.4936   -7.5078    2.0894 C   0  0  0  0  0  0  0  0  0  0  0  0
   -2.1059   -6.6658    1.0441 C   0  0  0  0  0  0  0  0  0  0  0  0
   -0.9738   -6.9452    0.2584 C   0  0  0  0  0  0  0  0  0  0  0  0
   -0.5774   -6.0726   -0.7524 C   0  0  0  0  0  0  0  0  0  0  0  0
   -1.3098   -4.9171   -0.9945 C   0  0  0  0  0  0  0  0  0  0  0  0
   -2.4408   -4.6325   -0.2267 C   0  0  0  0  0  0  0  0  0  0  0  0
   -2.8681   -5.4981    0.8090 C   0  0  0  0  0  0  0  0  0  0  0  0
   -6.4274   -1.0671   -0.1211 C   0  0  0  0  0  0  0  0  0  0  0  0
   -6.0456   -0.1931   -1.1330 C   0  0  0  0  0  0  0  0  0  0  0  0
   -7.0922    0.0690   -2.4728 Cl  0  0  0  0  0  0  0  0  0  0  0  0
   -4.8330    0.4864   -1.0591 C   0  0  0  0  0  0  0  0  0  0  0  0
   -0.9088    2.9057   -0.2232 S   0  0  0  0  0  0  0  0  0  0  0  0
   -0.8513    6.3542   -1.5873 H   0  0  0  0  0  0  0  0  0  0  0  0
    0.3507    5.1246   -1.9918 H   0  0  0  0  0  0  0  0  0  0  0  0
    0.1156    5.6446   -0.3091 H   0  0  0  0  0  0  0  0  0  0  0  0
   -2.0151    5.9506   -3.4540 H   0  0  0  0  0  0  0  0  0  0  0  0
   -3.4248    7.6923   -4.4479 H   0  0  0  0  0  0  0  0  0  0  0  0
   -6.7752    6.3475   -2.1068 H   0  0  0  0  0  0  0  0  0  0  0  0
   -5.3465    4.6478   -1.0357 H   0  0  0  0  0  0  0  0  0  0  0  0
   -2.0888    0.6364    0.8005 H   0  0  0  0  0  0  0  0  0  0  0  0
   -3.7286   -0.7073    1.9223 H   0  0  0  0  0  0  0  0  0  0  0  0
   -7.0590   -2.5543    1.9103 H   0  0  0  0  0  0  0  0  0  0  0  0
   -6.2027   -1.4789    3.0086 H   0  0  0  0  0  0  0  0  0  0  0  0
   -4.7628   -3.6595    0.5600 H   0  0  0  0  0  0  0  0  0  0  0  0
   -5.0718   -5.9973    3.3710 H   0  0  0  0  0  0  0  0  0  0  0  0
   -1.9424   -8.4190    2.3123 H   0  0  0  0  0  0  0  0  0  0  0  0
   -0.3801   -7.8380    0.4450 H   0  0  0  0  0  0  0  0  0  0  0  0
    0.3102   -6.2877   -1.3421 H   0  0  0  0  0  0  0  0  0  0  0  0
   -0.9931   -4.2227   -1.7691 H   0  0  0  0  0  0  0  0  0  0  0  0
   -2.9592   -3.7009   -0.4328 H   0  0  0  0  0  0  0  0  0  0  0  0
   -7.3933   -1.5630   -0.1834 H   0  0  0  0  0  0  0  0  0  0  0  0
   -4.5701    1.1683   -1.8642 H   0  0  0  0  0  0  0  0  0  0  0  0
  1  2  1  0  0  0  0
  1 36  1  0  0  0  0
  1 37  1  0  0  0  0
  1 38  1  0  0  0  0
  2  3  2  0  0  0  0
  2 35  1  0  0  0  0
  3  4  1  0  0  0  0
  3 11  1  0  0  0  0
  4  5  2  0  0  0  0
  4 10  1  0  0  0  0
  5  6  1  0  0  0  0
  5 39  1  0  0  0  0
  6  7  2  0  0  0  0
  6 40  1  0  0  0  0
  7  8  1  0  0  0  0
  7  9  1  0  0  0  0
  9 10  2  0  0  0  0
  9 41  1  0  0  0  0
 10 42  1  0  0  0  0
 11 12  2  0  0  0  0
 12 13  1  0  0  0  0
 12 35  1  0  0  0  0
 13 14  1  0  0  0  0
 13 43  1  0  0  0  0
 14 15  2  0  0  0  0
 14 34  1  0  0  0  0
 15 16  1  0  0  0  0
 15 44  1  0  0  0  0
 16 17  1  0  0  0  0
 16 31  2  0  0  0  0
 17 18  1  0  0  0  0
 17 45  1  0  0  0  0
 17 46  1  0  0  0  0
 18 19  2  0  0  0  0
 18 20  1  0  0  0  0
 20 21  1  0  0  0  0
 20 47  1  0  0  0  0
 21 22  2  0  0  0  0
 21 30  1  0  0  0  0
 22 23  1  0  0  0  0
 22 48  1  0  0  0  0
 23 24  2  0  0  0  0
 24 25  1  0  0  0  0
 24 49  1  0  0  0  0
 25 26  2  0  0  0  0
 25 30  1  0  0  0  0
 26 27  1  0  0  0  0
 26 50  1  0  0  0  0
 27 28  2  0  0  0  0
 27 51  1  0  0  0  0
 28 29  1  0  0  0  0
 28 52  1  0  0  0  0
 29 30  2  0  0  0  0
 29 53  1  0  0  0  0
 31 32  1  0  0  0  0
 31 54  1  0  0  0  0
 32 33  1  0  0  0  0
 32 34  2  0  0  0  0
 34 55  1  0  0  0  0
M  END
$$$$
