
 OpenBabel07202414173D

 65 69  0  0  1  0  0  0  0  0999 V2000
    0.9490    0.1753    0.0484 Cl  0  0  0  0  0  0  0  0  0  0  0  0
    2.6634    0.0451    0.1148 C   0  0  0  0  0  0  0  0  0  0  0  0
    3.4509    1.1788   -0.0267 C   0  0  0  0  0  0  0  0  0  0  0  0
    4.8389    1.0561    0.0226 C   0  0  0  0  0  0  0  0  0  0  0  0
    5.4379   -0.1953    0.2079 C   0  0  0  0  0  0  0  0  0  0  0  0
    4.6603   -1.3539    0.3269 C   0  0  0  0  0  0  0  0  0  0  0  0
    3.2549   -1.2051    0.2986 C   0  0  0  0  0  0  0  0  0  0  0  0
    5.3113   -2.7485    0.5038 C   0  0  3  0  0  0  0  0  0  0  0  0
    4.6655   -3.6938   -0.5447 C   0  0  0  0  0  0  0  0  0  0  0  0
    5.2063   -5.1071   -0.6785 C   0  0  0  0  0  0  0  0  0  0  0  0
    6.2095   -5.4755   -0.0681 O   0  0  0  0  0  0  0  0  0  0  0  0
    4.4996   -5.9541   -1.5131 N   0  0  0  0  0  0  0  0  0  0  0  0
    4.8276   -7.3843   -1.5665 C   0  0  0  0  0  0  0  0  0  0  0  0
    4.8078   -7.9269   -3.0135 C   0  0  0  0  0  0  0  0  0  0  0  0
    3.6086   -7.5595   -3.8106 N   0  0  0  0  0  0  0  0  0  0  0  0
    2.4256   -8.3300   -3.3819 C   0  0  0  0  0  0  0  0  0  0  0  0
    1.1727   -8.0489   -4.2285 C   0  0  0  0  0  0  0  0  0  0  0  0
    0.0631   -8.8974   -3.7883 C   0  0  0  0  0  0  0  0  0  0  0  0
   -0.8189   -9.5684   -3.4311 N   0  0  0  0  0  0  0  0  0  0  0  0
    3.4190   -6.0971   -3.7262 C   0  0  0  0  0  0  0  0  0  0  0  0
    3.3202   -5.5637   -2.2897 C   0  0  0  0  0  0  0  0  0  0  0  0
    5.0313   -3.2672    1.9597 C   0  0  0  0  0  0  0  0  0  0  0  0
    4.3398   -2.6255    2.7453 O   0  0  0  0  0  0  0  0  0  0  0  0
    5.6158   -4.4788    2.2799 N   0  0  0  0  0  0  0  0  0  0  0  0
    5.6370   -5.1174    3.5489 C   0  0  0  0  0  0  0  0  0  0  0  0
    4.7919   -4.7486    4.5960 C   0  0  0  0  0  0  0  0  0  0  0  0
    4.8888   -5.2175    5.8621 N   0  0  0  0  0  0  0  0  0  0  0  0
    5.8452   -6.1400    6.0880 C   0  0  0  0  0  0  0  0  0  0  0  0
    6.6601   -6.6933    5.1017 C   0  0  0  0  0  0  0  0  0  0  0  0
    7.5439   -7.7480    5.3975 C   0  0  0  0  0  0  0  0  0  0  0  0
    8.3576   -8.2959    4.4096 C   0  0  0  0  0  0  0  0  0  0  0  0
    8.3262   -7.7697    3.1280 C   0  0  0  0  0  0  0  0  0  0  0  0
    7.4555   -6.7188    2.8272 C   0  0  0  0  0  0  0  0  0  0  0  0
    6.5739   -6.1649    3.7935 C   0  0  0  0  0  0  0  0  0  0  0  0
    6.8267   -2.6150    0.2185 C   0  0  0  0  0  0  0  0  0  0  0  0
    7.3951   -1.3381    0.8074 C   0  0  0  0  0  0  0  0  0  0  0  0
    6.8034   -0.1840    0.2218 O   0  0  0  0  0  0  0  0  0  0  0  0
    2.9973    2.1561   -0.1636 H   0  0  0  0  0  0  0  0  0  0  0  0
    5.4618    1.9421   -0.0744 H   0  0  0  0  0  0  0  0  0  0  0  0
    2.6031   -2.0627    0.4452 H   0  0  0  0  0  0  0  0  0  0  0  0
    4.7721   -3.2313   -1.5364 H   0  0  0  0  0  0  0  0  0  0  0  0
    3.5989   -3.8006   -0.3198 H   0  0  0  0  0  0  0  0  0  0  0  0
    4.0810   -7.9052   -0.9551 H   0  0  0  0  0  0  0  0  0  0  0  0
    5.8050   -7.5793   -1.1127 H   0  0  0  0  0  0  0  0  0  0  0  0
    4.9442   -9.0149   -3.0063 H   0  0  0  0  0  0  0  0  0  0  0  0
    5.6842   -7.5229   -3.5383 H   0  0  0  0  0  0  0  0  0  0  0  0
    2.1945   -8.1637   -2.3223 H   0  0  0  0  0  0  0  0  0  0  0  0
    2.6593   -9.3983   -3.4774 H   0  0  0  0  0  0  0  0  0  0  0  0
    1.3888   -8.2239   -5.2860 H   0  0  0  0  0  0  0  0  0  0  0  0
    0.8603   -7.0008   -4.1235 H   0  0  0  0  0  0  0  0  0  0  0  0
    2.5499   -5.7701   -4.3037 H   0  0  0  0  0  0  0  0  0  0  0  0
    4.2769   -5.6187   -4.2169 H   0  0  0  0  0  0  0  0  0  0  0  0
    2.4406   -5.9587   -1.7689 H   0  0  0  0  0  0  0  0  0  0  0  0
    3.2025   -4.4802   -2.3385 H   0  0  0  0  0  0  0  0  0  0  0  0
    6.1847   -4.9139    1.5586 H   0  0  0  0  0  0  0  0  0  0  0  0
    3.9646   -4.0589    4.4586 H   0  0  0  0  0  0  0  0  0  0  0  0
    5.9414   -6.4361    7.1299 H   0  0  0  0  0  0  0  0  0  0  0  0
    7.5852   -8.1659    6.4013 H   0  0  0  0  0  0  0  0  0  0  0  0
    9.0152   -9.1296    4.6403 H   0  0  0  0  0  0  0  0  0  0  0  0
    8.9716   -8.1732    2.3519 H   0  0  0  0  0  0  0  0  0  0  0  0
    7.4806   -6.3553    1.8053 H   0  0  0  0  0  0  0  0  0  0  0  0
    6.9885   -2.5855   -0.8684 H   0  0  0  0  0  0  0  0  0  0  0  0
    7.4071   -3.4571    0.6050 H   0  0  0  0  0  0  0  0  0  0  0  0
    8.4659   -1.2894    0.5776 H   0  0  0  0  0  0  0  0  0  0  0  0
    7.2965   -1.2985    1.8980 H   0  0  0  0  0  0  0  0  0  0  0  0
  1  2  1  0  0  0  0
  2  3  1  0  0  0  0
  2  7  2  0  0  0  0
  3  4  2  0  0  0  0
  3 38  1  0  0  0  0
  4  5  1  0  0  0  0
  4 39  1  0  0  0  0
  5  6  2  0  0  0  0
  5 37  1  0  0  0  0
  6  7  1  0  0  0  0
  6  8  1  0  0  0  0
  7 40  1  0  0  0  0
  8  9  1  0  0  0  0
  8 22  1  0  0  0  0
  8 35  1  0  0  0  0
  9 10  1  0  0  0  0
  9 41  1  0  0  0  0
  9 42  1  0  0  0  0
 10 11  2  0  0  0  0
 10 12  1  0  0  0  0
 12 13  1  0  0  0  0
 12 21  1  0  0  0  0
 13 14  1  0  0  0  0
 13 43  1  0  0  0  0
 13 44  1  0  0  0  0
 14 15  1  0  0  0  0
 14 45  1  0  0  0  0
 14 46  1  0  0  0  0
 15 16  1  0  0  0  0
 15 20  1  0  0  0  0
 16 17  1  0  0  0  0
 16 47  1  0  0  0  0
 16 48  1  0  0  0  0
 17 18  1  0  0  0  0
 17 49  1  0  0  0  0
 17 50  1  0  0  0  0
 18 19  3  0  0  0  0
 20 21  1  0  0  0  0
 20 51  1  0  0  0  0
 20 52  1  0  0  0  0
 21 53  1  0  0  0  0
 21 54  1  0  0  0  0
 22 23  2  0  0  0  0
 22 24  1  0  0  0  0
 24 25  1  0  0  0  0
 24 55  1  0  0  0  0
 25 26  1  0  0  0  0
 25 34  2  0  0  0  0
 26 27  2  0  0  0  0
 26 56  1  0  0  0  0
 27 28  1  0  0  0  0
 28 29  2  0  0  0  0
 28 57  1  0  0  0  0
 29 30  1  0  0  0  0
 29 34  1  0  0  0  0
 30 31  2  0  0  0  0
 30 58  1  0  0  0  0
 31 32  1  0  0  0  0
 31 59  1  0  0  0  0
 32 33  2  0  0  0  0
 32 60  1  0  0  0  0
 33 34  1  0  0  0  0
 33 61  1  0  0  0  0
 35 36  1  0  0  0  0
 35 62  1  0  0  0  0
 35 63  1  0  0  0  0
 36 37  1  0  0  0  0
 36 64  1  0  0  0  0
 36 65  1  0  0  0  0
M  END
$$$$
