
 OpenBabel07202414183D

 49 52  0  0  0  0  0  0  0  0999 V2000
    4.2540    3.8096    9.7434 F   0  0  0  0  0  0  0  0  0  0  0  0
    4.7347    2.8435    8.9072 C   0  0  0  0  0  0  0  0  0  0  0  0
    6.0903    2.9470    8.9600 F   0  0  0  0  0  0  0  0  0  0  0  0
    4.4274    1.6545    9.4922 F   0  0  0  0  0  0  0  0  0  0  0  0
    4.2086    2.9439    7.4986 C   0  0  0  0  0  0  0  0  0  0  0  0
    3.3026    3.9403    7.1179 C   0  0  0  0  0  0  0  0  0  0  0  0
    2.8437    3.9936    5.8004 C   0  0  0  0  0  0  0  0  0  0  0  0
    1.6113    5.3373    5.2978 Br  0  0  0  0  0  0  0  0  0  0  0  0
    3.2669    3.0581    4.8585 C   0  0  0  0  0  0  0  0  0  0  0  0
    4.1489    2.0402    5.2233 C   0  0  0  0  0  0  0  0  0  0  0  0
    4.5130    1.0536    4.2874 N   0  0  0  0  0  0  0  0  0  0  0  0
    4.7837   -0.3089    4.5028 C   0  0  0  0  0  0  0  0  0  0  0  0
    5.6459   -1.0042    3.6525 C   0  0  0  0  0  0  0  0  0  0  0  0
    5.9471   -2.3401    3.8918 C   0  0  0  0  0  0  0  0  0  0  0  0
    7.0257   -3.1770    2.8392 Cl  0  0  0  0  0  0  0  0  0  0  0  0
    5.3995   -3.0215    4.9858 C   0  0  0  0  0  0  0  0  0  0  0  0
    4.5209   -2.3552    5.8389 C   0  0  0  0  0  0  0  0  0  0  0  0
    3.9509   -3.0375    7.0649 C   0  0  0  0  0  0  0  0  0  0  0  0
    2.4374   -2.9823    7.1817 C   0  0  0  0  0  0  0  0  0  0  0  0
    1.8982   -2.7140    8.2528 O   0  0  0  0  0  0  0  0  0  0  0  0
    1.7621   -3.3638    6.0375 N   0  0  0  0  0  0  0  0  0  0  0  0
    0.3502   -3.4011    5.9368 C   0  0  0  0  0  0  0  0  0  0  0  0
   -0.4458   -2.4261    6.5418 C   0  0  0  0  0  0  0  0  0  0  0  0
   -1.7943   -2.3735    6.4462 N   0  0  0  0  0  0  0  0  0  0  0  0
   -2.3817   -3.3622    5.7412 C   0  0  0  0  0  0  0  0  0  0  0  0
   -1.6979   -4.4054    5.1120 C   0  0  0  0  0  0  0  0  0  0  0  0
   -2.3834   -5.4311    4.4381 C   0  0  0  0  0  0  0  0  0  0  0  0
   -1.6888   -6.4917    3.8592 C   0  0  0  0  0  0  0  0  0  0  0  0
   -0.3032   -6.5366    3.9432 C   0  0  0  0  0  0  0  0  0  0  0  0
    0.3895   -5.5182    4.5990 C   0  0  0  0  0  0  0  0  0  0  0  0
   -0.2877   -4.4259    5.1977 C   0  0  0  0  0  0  0  0  0  0  0  0
    4.2112   -1.0084    5.5829 C   0  0  0  0  0  0  0  0  0  0  0  0
    4.6261    2.0056    6.5409 C   0  0  0  0  0  0  0  0  0  0  0  0
    2.9545    4.6735    7.8469 H   0  0  0  0  0  0  0  0  0  0  0  0
    2.8748    3.0920    3.8431 H   0  0  0  0  0  0  0  0  0  0  0  0
    4.8598    1.4369    3.4116 H   0  0  0  0  0  0  0  0  0  0  0  0
    6.0995   -0.4962    2.8046 H   0  0  0  0  0  0  0  0  0  0  0  0
    5.6707   -4.0545    5.1676 H   0  0  0  0  0  0  0  0  0  0  0  0
    4.3769   -2.5464    7.9487 H   0  0  0  0  0  0  0  0  0  0  0  0
    4.2528   -4.0897    7.1002 H   0  0  0  0  0  0  0  0  0  0  0  0
    2.2942   -3.8332    5.3176 H   0  0  0  0  0  0  0  0  0  0  0  0
   -0.0108   -1.6065    7.1074 H   0  0  0  0  0  0  0  0  0  0  0  0
   -3.4667   -3.2984    5.7061 H   0  0  0  0  0  0  0  0  0  0  0  0
   -3.4705   -5.4194    4.3760 H   0  0  0  0  0  0  0  0  0  0  0  0
   -2.2304   -7.2899    3.3577 H   0  0  0  0  0  0  0  0  0  0  0  0
    0.2422   -7.3728    3.5135 H   0  0  0  0  0  0  0  0  0  0  0  0
    1.4685   -5.6140    4.6674 H   0  0  0  0  0  0  0  0  0  0  0  0
    3.5115   -0.4938    6.2362 H   0  0  0  0  0  0  0  0  0  0  0  0
    5.3419    1.2407    6.8394 H   0  0  0  0  0  0  0  0  0  0  0  0
  1  2  1  0  0  0  0
  2  3  1  0  0  0  0
  2  4  1  0  0  0  0
  2  5  1  0  0  0  0
  5  6  2  0  0  0  0
  5 33  1  0  0  0  0
  6  7  1  0  0  0  0
  6 34  1  0  0  0  0
  7  8  1  0  0  0  0
  7  9  2  0  0  0  0
  9 10  1  0  0  0  0
  9 35  1  0  0  0  0
 10 11  1  0  0  0  0
 10 33  2  0  0  0  0
 11 12  1  0  0  0  0
 11 36  1  0  0  0  0
 12 13  2  0  0  0  0
 12 32  1  0  0  0  0
 13 14  1  0  0  0  0
 13 37  1  0  0  0  0
 14 15  1  0  0  0  0
 14 16  2  0  0  0  0
 16 17  1  0  0  0  0
 16 38  1  0  0  0  0
 17 18  1  0  0  0  0
 17 32  2  0  0  0  0
 18 19  1  0  0  0  0
 18 39  1  0  0  0  0
 18 40  1  0  0  0  0
 19 20  2  0  0  0  0
 19 21  1  0  0  0  0
 21 22  1  0  0  0  0
 21 41  1  0  0  0  0
 22 23  2  0  0  0  0
 22 31  1  0  0  0  0
 23 24  1  0  0  0  0
 23 42  1  0  0  0  0
 24 25  2  0  0  0  0
 25 26  1  0  0  0  0
 25 43  1  0  0  0  0
 26 27  2  0  0  0  0
 26 31  1  0  0  0  0
 27 28  1  0  0  0  0
 27 44  1  0  0  0  0
 28 29  2  0  0  0  0
 28 45  1  0  0  0  0
 29 30  1  0  0  0  0
 29 46  1  0  0  0  0
 30 31  2  0  0  0  0
 30 47  1  0  0  0  0
 32 48  1  0  0  0  0
 33 49  1  0  0  0  0
M  END
$$$$
