
 OpenBabel07202414173D

 40 42  0  0  0  0  0  0  0  0999 V2000
    0.6418   -2.3399    0.8113 Cl  0  0  0  0  0  0  0  0  0  0  0  0
    2.2447   -1.6211    1.0679 C   0  0  0  0  0  0  0  0  0  0  0  0
    3.3378   -2.6769    1.1688 C   0  0  0  0  0  0  0  0  0  0  0  0
    3.0949   -3.8837    1.1866 O   0  0  0  0  0  0  0  0  0  0  0  0
    4.6519   -2.2060    1.2211 N   0  0  0  0  0  0  0  0  0  0  0  0
    5.0422   -0.7940    1.3818 C   0  0  0  0  0  0  0  0  0  0  0  0
    6.3418   -0.4503    0.6133 C   0  0  0  0  0  0  0  0  0  0  0  0
    7.4432   -1.4324    0.8851 N   0  0  0  0  0  0  0  0  0  0  0  0
    8.2666   -1.2722    2.3777 S   0  0  0  0  0  0  0  0  0  0  0  0
    7.3226   -0.7462    3.3383 O   0  0  0  0  0  0  0  0  0  0  0  0
    8.9607   -2.5166    2.6521 O   0  0  0  0  0  0  0  0  0  0  0  0
    9.5117   -0.0226    2.0880 C   0  0  0  0  0  0  0  0  0  0  0  0
    9.3987    1.1629    2.8371 C   0  0  0  0  0  0  0  0  0  0  0  0
   10.3951    2.1283    2.7764 C   0  0  0  0  0  0  0  0  0  0  0  0
   11.5143    1.9154    1.9776 C   0  0  0  0  0  0  0  0  0  0  0  0
   11.6619    0.7317    1.2381 C   0  0  0  0  0  0  0  0  0  0  0  0
   12.8335    0.5429    0.4854 C   0  0  0  0  0  0  0  0  0  0  0  0
   13.0446   -0.6312   -0.2314 C   0  0  0  0  0  0  0  0  0  0  0  0
   12.0789   -1.6246   -0.2171 C   0  0  0  0  0  0  0  0  0  0  0  0
   10.9007   -1.4438    0.5158 C   0  0  0  0  0  0  0  0  0  0  0  0
   10.6572   -0.2707    1.2759 C   0  0  0  0  0  0  0  0  0  0  0  0
    6.9617   -2.8243    0.5851 C   0  0  0  0  0  0  0  0  0  0  0  0
    5.7353   -3.1789    1.4325 C   0  0  0  0  0  0  0  0  0  0  0  0
    2.2079   -1.0410    1.9934 H   0  0  0  0  0  0  0  0  0  0  0  0
    2.4364   -0.9695    0.2123 H   0  0  0  0  0  0  0  0  0  0  0  0
    5.1444   -0.6186    2.4559 H   0  0  0  0  0  0  0  0  0  0  0  0
    4.2462   -0.1279    1.0421 H   0  0  0  0  0  0  0  0  0  0  0  0
    6.6686    0.5728    0.8188 H   0  0  0  0  0  0  0  0  0  0  0  0
    6.1233   -0.4962   -0.4634 H   0  0  0  0  0  0  0  0  0  0  0  0
    8.5558    1.3264    3.5056 H   0  0  0  0  0  0  0  0  0  0  0  0
   10.3196    3.0331    3.3746 H   0  0  0  0  0  0  0  0  0  0  0  0
   12.2902    2.6779    1.9561 H   0  0  0  0  0  0  0  0  0  0  0  0
   13.6064    1.3081    0.4659 H   0  0  0  0  0  0  0  0  0  0  0  0
   13.9673   -0.7705   -0.7898 H   0  0  0  0  0  0  0  0  0  0  0  0
   12.2401   -2.5491   -0.7660 H   0  0  0  0  0  0  0  0  0  0  0  0
   10.1799   -2.2587    0.4915 H   0  0  0  0  0  0  0  0  0  0  0  0
    7.7684   -3.5499    0.7229 H   0  0  0  0  0  0  0  0  0  0  0  0
    6.6961   -2.8657   -0.4800 H   0  0  0  0  0  0  0  0  0  0  0  0
    5.9776   -3.1692    2.5015 H   0  0  0  0  0  0  0  0  0  0  0  0
    5.4064   -4.1923    1.1831 H   0  0  0  0  0  0  0  0  0  0  0  0
  1  2  1  0  0  0  0
  2  3  1  0  0  0  0
  2 24  1  0  0  0  0
  2 25  1  0  0  0  0
  3  4  2  0  0  0  0
  3  5  1  0  0  0  0
  5  6  1  0  0  0  0
  5 23  1  0  0  0  0
  6  7  1  0  0  0  0
  6 26  1  0  0  0  0
  6 27  1  0  0  0  0
  7  8  1  0  0  0  0
  7 28  1  0  0  0  0
  7 29  1  0  0  0  0
  8  9  1  0  0  0  0
  8 22  1  0  0  0  0
  9 10  2  0  0  0  0
  9 11  2  0  0  0  0
  9 12  1  0  0  0  0
 12 13  1  0  0  0  0
 12 21  2  0  0  0  0
 13 14  2  0  0  0  0
 13 30  1  0  0  0  0
 14 15  1  0  0  0  0
 14 31  1  0  0  0  0
 15 16  2  0  0  0  0
 15 32  1  0  0  0  0
 16 17  1  0  0  0  0
 16 21  1  0  0  0  0
 17 18  2  0  0  0  0
 17 33  1  0  0  0  0
 18 19  1  0  0  0  0
 18 34  1  0  0  0  0
 19 20  2  0  0  0  0
 19 35  1  0  0  0  0
 20 21  1  0  0  0  0
 20 36  1  0  0  0  0
 22 23  1  0  0  0  0
 22 37  1  0  0  0  0
 22 38  1  0  0  0  0
 23 39  1  0  0  0  0
 23 40  1  0  0  0  0
M  END
$$$$
