
 OpenBabel07202414183D

 51 55  0  0  1  0  0  0  0  0999 V2000
   12.2367    3.9362    5.7928 Cl  0  0  0  0  0  0  0  0  0  0  0  0
   11.3882    2.8459    4.7664 C   0  0  0  0  0  0  0  0  0  0  0  0
   10.4009    2.0283    5.3078 C   0  0  0  0  0  0  0  0  0  0  0  0
    9.7492    1.1081    4.4908 C   0  0  0  0  0  0  0  0  0  0  0  0
   10.0840    0.9946    3.1301 C   0  0  0  0  0  0  0  0  0  0  0  0
   11.0710    1.8315    2.5805 C   0  0  0  0  0  0  0  0  0  0  0  0
   11.7160    2.7638    3.4110 C   0  0  0  0  0  0  0  0  0  0  0  0
   11.4760    1.6724    1.1255 C   0  0  2  0  0  0  0  0  0  0  0  0
   10.9624    2.8068    0.2236 C   0  0  0  0  0  0  0  0  0  0  0  0
   11.6390    3.8196    0.0555 O   0  0  0  0  0  0  0  0  0  0  0  0
    9.7030    2.5939   -0.3107 N   0  0  0  0  0  0  0  0  0  0  0  0
    8.9637    3.4588   -1.1548 C   0  0  0  0  0  0  0  0  0  0  0  0
    9.5253    4.5936   -1.7439 C   0  0  0  0  0  0  0  0  0  0  0  0
    8.8297    5.5285   -2.4334 N   0  0  0  0  0  0  0  0  0  0  0  0
    7.5081    5.3099   -2.5749 C   0  0  0  0  0  0  0  0  0  0  0  0
    6.8466    4.1616   -2.1429 C   0  0  0  0  0  0  0  0  0  0  0  0
    5.4816    3.9665   -2.4233 C   0  0  0  0  0  0  0  0  0  0  0  0
    4.8331    2.8011   -2.0248 C   0  0  0  0  0  0  0  0  0  0  0  0
    5.5352    1.8331   -1.3211 C   0  0  0  0  0  0  0  0  0  0  0  0
    6.8866    2.0301   -1.0174 C   0  0  0  0  0  0  0  0  0  0  0  0
    7.5856    3.1941   -1.4239 C   0  0  0  0  0  0  0  0  0  0  0  0
   11.0954    0.2749    0.5890 C   0  0  0  0  0  0  0  0  0  0  0  0
    9.6749   -0.0569    0.8782 N   0  0  3  0  0  0  0  0  0  0  0  0
    9.2648   -1.2996    0.1587 C   0  0  2  0  0  0  0  0  0  0  0  0
    7.8022   -1.7346    0.3819 C   0  0  0  0  0  0  0  0  0  0  0  0
    7.8631   -2.7941    1.4676 C   0  0  0  0  0  0  0  0  0  0  0  0
    9.1595   -3.3738    1.3026 N   0  0  0  0  0  0  0  0  0  0  0  0
   10.0267   -2.5583    0.6013 C   0  0  0  0  0  0  0  0  0  0  0  0
   11.2081   -2.8040    0.4244 O   0  0  0  0  0  0  0  0  0  0  0  0
    9.4661   -0.1340    2.3350 C   0  0  0  0  0  0  0  0  0  0  0  0
   10.1521    2.0840    6.3649 H   0  0  0  0  0  0  0  0  0  0  0  0
    9.0014    0.4494    4.9292 H   0  0  0  0  0  0  0  0  0  0  0  0
   12.4994    3.4037    3.0086 H   0  0  0  0  0  0  0  0  0  0  0  0
   12.5725    1.7257    1.0730 H   0  0  0  0  0  0  0  0  0  0  0  0
    9.2224    1.7710    0.0553 H   0  0  0  0  0  0  0  0  0  0  0  0
   10.5891    4.8032   -1.6969 H   0  0  0  0  0  0  0  0  0  0  0  0
    6.9753    6.1136   -3.0770 H   0  0  0  0  0  0  0  0  0  0  0  0
    4.9188    4.7173   -2.9752 H   0  0  0  0  0  0  0  0  0  0  0  0
    3.7864    2.6462   -2.2732 H   0  0  0  0  0  0  0  0  0  0  0  0
    5.0374    0.9173   -1.0135 H   0  0  0  0  0  0  0  0  0  0  0  0
    7.3889    1.2363   -0.4762 H   0  0  0  0  0  0  0  0  0  0  0  0
   11.7646   -0.4637    1.0464 H   0  0  0  0  0  0  0  0  0  0  0  0
   11.2710    0.2509   -0.4942 H   0  0  0  0  0  0  0  0  0  0  0  0
    9.4151   -1.1523   -0.9174 H   0  0  0  0  0  0  0  0  0  0  0  0
    7.4280   -2.1931   -0.5434 H   0  0  0  0  0  0  0  0  0  0  0  0
    7.1211   -0.9150    0.6270 H   0  0  0  0  0  0  0  0  0  0  0  0
    7.0945   -3.5619    1.3566 H   0  0  0  0  0  0  0  0  0  0  0  0
    7.7980   -2.3700    2.4739 H   0  0  0  0  0  0  0  0  0  0  0  0
    9.5051   -4.2036    1.7710 H   0  0  0  0  0  0  0  0  0  0  0  0
    9.8876   -1.0585    2.7457 H   0  0  0  0  0  0  0  0  0  0  0  0
    8.3883   -0.1156    2.5336 H   0  0  0  0  0  0  0  0  0  0  0  0
  1  2  1  0  0  0  0
  2  3  1  0  0  0  0
  2  7  2  0  0  0  0
  3  4  2  0  0  0  0
  3 31  1  0  0  0  0
  4  5  1  0  0  0  0
  4 32  1  0  0  0  0
  5  6  2  0  0  0  0
  5 30  1  0  0  0  0
  6  7  1  0  0  0  0
  6  8  1  0  0  0  0
  7 33  1  0  0  0  0
  8  9  1  0  0  0  0
  8 22  1  0  0  0  0
  8 34  1  6  0  0  0
  9 10  2  0  0  0  0
  9 11  1  0  0  0  0
 11 12  1  0  0  0  0
 11 35  1  0  0  0  0
 12 13  1  0  0  0  0
 12 21  2  0  0  0  0
 13 14  2  0  0  0  0
 13 36  1  0  0  0  0
 14 15  1  0  0  0  0
 15 16  2  0  0  0  0
 15 37  1  0  0  0  0
 16 17  1  0  0  0  0
 16 21  1  0  0  0  0
 17 18  2  0  0  0  0
 17 38  1  0  0  0  0
 18 19  1  0  0  0  0
 18 39  1  0  0  0  0
 19 20  2  0  0  0  0
 19 40  1  0  0  0  0
 20 21  1  0  0  0  0
 20 41  1  0  0  0  0
 22 23  1  0  0  0  0
 22 42  1  0  0  0  0
 22 43  1  0  0  0  0
 23 30  1  0  0  0  0
 24 25  1  0  0  0  0
 24 28  1  0  0  0  0
 24 23  1  0  0  0  0
 24 44  1  6  0  0  0
 25 26  1  0  0  0  0
 25 45  1  0  0  0  0
 25 46  1  0  0  0  0
 26 27  1  0  0  0  0
 26 47  1  0  0  0  0
 26 48  1  0  0  0  0
 27 28  1  0  0  0  0
 27 49  1  0  0  0  0
 28 29  2  0  0  0  0
 30 50  1  0  0  0  0
 30 51  1  0  0  0  0
M  END
$$$$
