
 OpenBabel07202414183D

 39 42  0  0  1  0  0  0  0  0999 V2000
    0.6807   -0.4049    0.4391 C   0  0  0  0  0  0  0  0  0  0  0  0
    2.1103   -0.3359    0.5932 N   0  0  0  0  0  0  0  0  0  0  0  0
    2.7651    0.8032    0.9798 C   0  0  0  0  0  0  0  0  0  0  0  0
    4.0428    0.5950    1.1653 N   0  0  0  0  0  0  0  0  0  0  0  0
    4.2287   -0.7374    0.8906 C   0  0  0  0  0  0  0  0  0  0  0  0
    5.4082   -1.4819    0.9708 C   0  0  0  0  0  0  0  0  0  0  0  0
    5.4084   -2.7969    0.6699 N   0  0  0  0  0  0  0  0  0  0  0  0
    4.2400   -3.3653    0.2783 C   0  0  0  0  0  0  0  0  0  0  0  0
    2.9954   -2.7243    0.1477 C   0  0  0  0  0  0  0  0  0  0  0  0
    1.8336   -3.3811   -0.3320 N   0  0  0  0  0  0  0  0  0  0  0  0
    1.6997   -4.7559   -0.4699 C   0  0  0  0  0  0  0  0  0  0  0  0
    2.4948   -5.5890   -0.0378 O   0  0  0  0  0  0  0  0  0  0  0  0
    0.4362   -5.2430   -1.1812 C   0  0  3  0  0  0  0  0  0  0  0  0
   -0.8276   -4.8793   -0.3940 C   0  0  0  0  0  0  0  0  0  0  0  0
   -1.7940   -3.9711   -1.1437 C   0  0  0  0  0  0  0  0  0  0  0  0
   -1.1508   -3.0657   -2.0407 O   0  0  0  0  0  0  0  0  0  0  0  0
   -0.4385   -3.7474   -2.9903 C   0  0  0  0  0  0  0  0  0  0  0  0
   -0.5093   -3.3157   -4.3113 C   0  0  0  0  0  0  0  0  0  0  0  0
    0.2816   -3.9333   -5.2829 C   0  0  0  0  0  0  0  0  0  0  0  0
    1.1537   -4.9557   -4.9154 C   0  0  0  0  0  0  0  0  0  0  0  0
    2.1841   -5.6636   -6.0996 Cl  0  0  0  0  0  0  0  0  0  0  0  0
    1.2118   -5.3996   -3.5946 C   0  0  0  0  0  0  0  0  0  0  0  0
    0.3958   -4.8007   -2.6192 C   0  0  0  0  0  0  0  0  0  0  0  0
    3.0327   -1.3563    0.4897 C   0  0  0  0  0  0  0  0  0  0  0  0
    0.2432    0.5750    0.6549 H   0  0  0  0  0  0  0  0  0  0  0  0
    0.2907   -1.1364    1.1506 H   0  0  0  0  0  0  0  0  0  0  0  0
    0.4494   -0.6839   -0.5898 H   0  0  0  0  0  0  0  0  0  0  0  0
    2.2639    1.7540    1.1314 H   0  0  0  0  0  0  0  0  0  0  0  0
    6.3498   -1.0460    1.2792 H   0  0  0  0  0  0  0  0  0  0  0  0
    4.3696   -4.4138    0.0258 H   0  0  0  0  0  0  0  0  0  0  0  0
    1.0573   -2.8042   -0.6288 H   0  0  0  0  0  0  0  0  0  0  0  0
    0.4964   -6.3417   -1.1847 H   0  0  0  0  0  0  0  0  0  0  0  0
   -0.5668   -4.4225    0.5686 H   0  0  0  0  0  0  0  0  0  0  0  0
   -1.3693   -5.7978   -0.1284 H   0  0  0  0  0  0  0  0  0  0  0  0
   -2.3528   -3.3677   -0.4191 H   0  0  0  0  0  0  0  0  0  0  0  0
   -2.5391   -4.5578   -1.6967 H   0  0  0  0  0  0  0  0  0  0  0  0
   -1.1799   -2.5073   -4.5891 H   0  0  0  0  0  0  0  0  0  0  0  0
    0.2247   -3.6033   -6.3166 H   0  0  0  0  0  0  0  0  0  0  0  0
    1.9003   -6.1984   -3.3192 H   0  0  0  0  0  0  0  0  0  0  0  0
  1  2  1  0  0  0  0
  1 25  1  0  0  0  0
  1 26  1  0  0  0  0
  1 27  1  0  0  0  0
  2  3  1  0  0  0  0
  2 24  1  0  0  0  0
  3  4  2  0  0  0  0
  3 28  1  0  0  0  0
  4  5  1  0  0  0  0
  5  6  1  0  0  0  0
  5 24  2  0  0  0  0
  6  7  2  0  0  0  0
  6 29  1  0  0  0  0
  7  8  1  0  0  0  0
  8  9  2  0  0  0  0
  8 30  1  0  0  0  0
  9 10  1  0  0  0  0
  9 24  1  0  0  0  0
 10 11  1  0  0  0  0
 10 31  1  0  0  0  0
 11 12  2  0  0  0  0
 11 13  1  0  0  0  0
 13 14  1  0  0  0  0
 13 23  1  0  0  0  0
 13 32  1  0  0  0  0
 14 15  1  0  0  0  0
 14 33  1  0  0  0  0
 14 34  1  0  0  0  0
 15 16  1  0  0  0  0
 15 35  1  0  0  0  0
 15 36  1  0  0  0  0
 16 17  1  0  0  0  0
 17 18  1  0  0  0  0
 17 23  2  0  0  0  0
 18 19  2  0  0  0  0
 18 37  1  0  0  0  0
 19 20  1  0  0  0  0
 19 38  1  0  0  0  0
 20 21  1  0  0  0  0
 20 22  2  0  0  0  0
 22 23  1  0  0  0  0
 22 39  1  0  0  0  0
M  END
$$$$
