
 OpenBabel07202414193D

 33 35  0  0  1  0  0  0  0  0999 V2000
    3.4912    2.4925   -2.7021 O   0  0  0  0  0  0  0  0  0  0  0  0
    2.6256    1.8427   -1.8817 C   0  0  0  0  0  0  0  0  0  0  0  0
    1.4914    2.2771   -1.7171 O   0  0  0  0  0  0  0  0  0  0  0  0
    3.1556    0.5192   -1.2664 C   0  0  2  0  0  0  0  0  0  0  0  0
    2.4434    0.0827   -0.0624 N   0  0  0  0  0  0  0  0  0  0  0  0
    1.9707    0.9779    0.9827 C   0  0  0  0  0  0  0  0  0  0  0  0
    1.3656    0.0367    1.9685 C   0  0  0  0  0  0  0  0  0  0  0  0
    0.7649    0.3096    3.1838 C   0  0  0  0  0  0  0  0  0  0  0  0
    0.2557   -0.7643    3.9204 C   0  0  0  0  0  0  0  0  0  0  0  0
    0.3535   -2.0831    3.4374 C   0  0  0  0  0  0  0  0  0  0  0  0
    0.9666   -2.3497    2.2098 C   0  0  0  0  0  0  0  0  0  0  0  0
    1.4613   -1.2731    1.5011 C   0  0  0  0  0  0  0  0  0  0  0  0
    2.1500   -1.2452    0.2012 C   0  0  0  0  0  0  0  0  0  0  0  0
    2.4006   -2.2197   -0.4798 O   0  0  0  0  0  0  0  0  0  0  0  0
    4.6674    0.5301   -1.0387 C   0  0  0  0  0  0  0  0  0  0  0  0
    5.5002   -0.3052   -1.8026 C   0  0  0  0  0  0  0  0  0  0  0  0
    6.8879   -0.2574   -1.6528 C   0  0  0  0  0  0  0  0  0  0  0  0
    7.4615    0.6100   -0.7263 C   0  0  0  0  0  0  0  0  0  0  0  0
    6.6500    1.4335    0.0488 C   0  0  0  0  0  0  0  0  0  0  0  0
    5.2651    1.4020   -0.1133 C   0  0  0  0  0  0  0  0  0  0  0  0
    4.3722    2.0767   -2.7860 H   0  0  0  0  0  0  0  0  0  0  0  0
    2.9438   -0.2357   -2.0356 H   0  0  0  0  0  0  0  0  0  0  0  0
    1.2119    1.6591    0.5937 H   0  0  0  0  0  0  0  0  0  0  0  0
    2.8052    1.5201    1.4284 H   0  0  0  0  0  0  0  0  0  0  0  0
    0.6833    1.3251    3.5580 H   0  0  0  0  0  0  0  0  0  0  0  0
   -0.2262   -0.5796    4.8783 H   0  0  0  0  0  0  0  0  0  0  0  0
   -0.0540   -2.9018    4.0266 H   0  0  0  0  0  0  0  0  0  0  0  0
    1.0510   -3.3598    1.8235 H   0  0  0  0  0  0  0  0  0  0  0  0
    5.0755   -1.0068   -2.5205 H   0  0  0  0  0  0  0  0  0  0  0  0
    7.5231   -0.9041   -2.2532 H   0  0  0  0  0  0  0  0  0  0  0  0
    8.5416    0.6400   -0.6023 H   0  0  0  0  0  0  0  0  0  0  0  0
    7.0956    2.1020    0.7814 H   0  0  0  0  0  0  0  0  0  0  0  0
    4.6640    2.0765    0.4901 H   0  0  0  0  0  0  0  0  0  0  0  0
  1  2  1  0  0  0  0
  1 21  1  0  0  0  0
  2  3  2  0  0  0  0
  4 15  1  0  0  0  0
  4  5  1  0  0  0  0
  4  2  1  0  0  0  0
  4 22  1  6  0  0  0
  5  6  1  0  0  0  0
  5 13  1  0  0  0  0
  6  7  1  0  0  0  0
  6 23  1  0  0  0  0
  6 24  1  0  0  0  0
  7  8  1  0  0  0  0
  7 12  2  0  0  0  0
  8  9  2  0  0  0  0
  8 25  1  0  0  0  0
  9 10  1  0  0  0  0
  9 26  1  0  0  0  0
 10 11  2  0  0  0  0
 10 27  1  0  0  0  0
 11 12  1  0  0  0  0
 11 28  1  0  0  0  0
 12 13  1  0  0  0  0
 13 14  2  0  0  0  0
 15 16  1  0  0  0  0
 15 20  2  0  0  0  0
 16 17  2  0  0  0  0
 16 29  1  0  0  0  0
 17 18  1  0  0  0  0
 17 30  1  0  0  0  0
 18 19  2  0  0  0  0
 18 31  1  0  0  0  0
 19 20  1  0  0  0  0
 19 32  1  0  0  0  0
 20 33  1  0  0  0  0
M  END
$$$$
