
 OpenBabel07202414183D

 57 61  0  0  1  0  0  0  0  0999 V2000
   -1.5576    0.0177    1.6865 Cl  0  0  0  0  0  0  0  0  0  0  0  0
   -0.1272   -0.0072    0.7267 C   0  0  0  0  0  0  0  0  0  0  0  0
    0.2529    1.1399    0.0358 C   0  0  0  0  0  0  0  0  0  0  0  0
    1.4100    1.1181   -0.7442 C   0  0  0  0  0  0  0  0  0  0  0  0
    2.1791   -0.0467   -0.8267 C   0  0  0  0  0  0  0  0  0  0  0  0
    1.8175   -1.2086   -0.1182 C   0  0  0  0  0  0  0  0  0  0  0  0
    2.6614   -2.4753   -0.1603 C   0  0  3  0  0  0  0  0  0  0  0  0
    2.2420   -3.3127   -1.3015 N   0  0  0  0  0  0  0  0  0  0  0  0
    1.6949   -4.5723   -1.1122 C   0  0  0  0  0  0  0  0  0  0  0  0
    1.7283   -5.1281   -0.0149 O   0  0  0  0  0  0  0  0  0  0  0  0
    1.2247   -5.3188   -2.3681 C   0  0  0  0  0  0  0  0  0  0  0  0
    0.2287   -4.6049   -3.1630 N   0  0  0  0  0  0  0  0  0  0  0  0
   -1.0799   -4.9081   -2.8942 N   0  0  0  0  0  0  0  0  0  0  0  0
   -1.9699   -4.3296   -3.6291 C   0  0  0  0  0  0  0  0  0  0  0  0
   -1.7585   -3.4535   -4.6485 N   0  0  0  0  0  0  0  0  0  0  0  0
   -0.4680   -3.0429   -4.9757 C   0  0  0  0  0  0  0  0  0  0  0  0
   -0.1994   -2.1875   -5.8123 O   0  0  0  0  0  0  0  0  0  0  0  0
    0.6438   -3.7042   -4.1402 C   0  0  0  0  0  0  0  0  0  0  0  0
    1.8213   -3.4025   -4.3208 O   0  0  0  0  0  0  0  0  0  0  0  0
   -2.9431   -2.9112   -5.2056 C   0  0  0  0  0  0  0  0  0  0  0  0
   -3.9989   -3.9033   -4.7801 C   0  0  0  0  0  0  0  0  0  0  0  0
   -3.4878   -4.5082   -3.4822 C   0  0  0  0  0  0  0  0  0  0  0  0
    4.2019   -2.1719   -0.0616 C   0  0  0  0  0  0  0  0  0  0  0  0
    4.6215   -1.2689    0.6439 O   0  0  0  0  0  0  0  0  0  0  0  0
    5.0123   -3.0138   -0.7975 N   0  0  0  0  0  0  0  0  0  0  0  0
    6.4407   -2.9357   -0.9235 C   0  0  0  0  0  0  0  0  0  0  0  0
    6.9412   -3.1076   -2.2291 C   0  0  0  0  0  0  0  0  0  0  0  0
    8.2410   -3.2044   -2.5627 N   0  0  0  0  0  0  0  0  0  0  0  0
    9.1001   -3.2406   -1.5341 C   0  0  0  0  0  0  0  0  0  0  0  0
    8.7240   -3.0932   -0.1981 C   0  0  0  0  0  0  0  0  0  0  0  0
    9.6853   -3.2248    0.8042 C   0  0  0  0  0  0  0  0  0  0  0  0
    9.5542   -2.5190    1.9809 C   0  0  0  0  0  0  0  0  0  0  0  0
    8.2846   -2.1200    2.3337 C   0  0  0  0  0  0  0  0  0  0  0  0
    7.1975   -2.3991    1.4882 C   0  0  0  0  0  0  0  0  0  0  0  0
    7.3945   -2.7843    0.1320 C   0  0  0  0  0  0  0  0  0  0  0  0
    0.6411   -1.1726    0.6527 C   0  0  0  0  0  0  0  0  0  0  0  0
   -0.3363    2.0492    0.1037 H   0  0  0  0  0  0  0  0  0  0  0  0
    1.7236    2.0158   -1.2696 H   0  0  0  0  0  0  0  0  0  0  0  0
    3.0920   -0.0194   -1.4240 H   0  0  0  0  0  0  0  0  0  0  0  0
    2.4649   -3.0358    0.7597 H   0  0  0  0  0  0  0  0  0  0  0  0
    2.1228   -2.8615   -2.2077 H   0  0  0  0  0  0  0  0  0  0  0  0
    0.8035   -6.2842   -2.0685 H   0  0  0  0  0  0  0  0  0  0  0  0
    2.1090   -5.5197   -2.9844 H   0  0  0  0  0  0  0  0  0  0  0  0
   -2.8711   -2.7900   -6.2857 H   0  0  0  0  0  0  0  0  0  0  0  0
   -3.1053   -1.9251   -4.7481 H   0  0  0  0  0  0  0  0  0  0  0  0
   -4.1140   -4.6922   -5.5323 H   0  0  0  0  0  0  0  0  0  0  0  0
   -4.9948   -3.4327   -4.6494 H   0  0  0  0  0  0  0  0  0  0  0  0
   -3.7446   -5.5749   -3.3668 H   0  0  0  0  0  0  0  0  0  0  0  0
   -3.8032   -3.9597   -2.6099 H   0  0  0  0  0  0  0  0  0  0  0  0
    4.5368   -3.5112   -1.5453 H   0  0  0  0  0  0  0  0  0  0  0  0
    6.2677   -3.1126   -3.0813 H   0  0  0  0  0  0  0  0  0  0  0  0
   10.1497   -3.3102   -1.8155 H   0  0  0  0  0  0  0  0  0  0  0  0
   10.3328   -4.1079    0.8039 H   0  0  0  0  0  0  0  0  0  0  0  0
   10.4128   -2.3682    2.6324 H   0  0  0  0  0  0  0  0  0  0  0  0
    8.1231   -1.6373    3.2960 H   0  0  0  0  0  0  0  0  0  0  0  0
    6.2062   -2.2094    1.8784 H   0  0  0  0  0  0  0  0  0  0  0  0
    0.3313   -2.0509    1.2147 H   0  0  0  0  0  0  0  0  0  0  0  0
  1  2  1  0  0  0  0
  2  3  1  0  0  0  0
  2 36  2  0  0  0  0
  3  4  2  0  0  0  0
  3 37  1  0  0  0  0
  4  5  1  0  0  0  0
  4 38  1  0  0  0  0
  5  6  2  0  0  0  0
  5 39  1  0  0  0  0
  6  7  1  0  0  0  0
  6 36  1  0  0  0  0
  7  8  1  0  0  0  0
  7 23  1  0  0  0  0
  7 40  1  0  0  0  0
  8  9  1  0  0  0  0
  8 41  1  0  0  0  0
  9 10  2  0  0  0  0
  9 11  1  0  0  0  0
 11 12  1  0  0  0  0
 11 42  1  0  0  0  0
 11 43  1  0  0  0  0
 12 13  1  0  0  0  0
 12 18  1  0  0  0  0
 13 14  2  0  0  0  0
 14 15  1  0  0  0  0
 14 22  1  0  0  0  0
 15 16  1  0  0  0  0
 15 20  1  0  0  0  0
 16 17  2  0  0  0  0
 16 18  1  0  0  0  0
 18 19  2  0  0  0  0
 20 21  1  0  0  0  0
 20 44  1  0  0  0  0
 20 45  1  0  0  0  0
 21 22  1  0  0  0  0
 21 46  1  0  0  0  0
 21 47  1  0  0  0  0
 22 48  1  0  0  0  0
 22 49  1  0  0  0  0
 23 24  2  0  0  0  0
 23 25  1  0  0  0  0
 25 26  1  0  0  0  0
 25 50  1  0  0  0  0
 26 27  1  0  0  0  0
 26 35  2  0  0  0  0
 27 28  2  0  0  0  0
 27 51  1  0  0  0  0
 28 29  1  0  0  0  0
 29 30  2  0  0  0  0
 29 52  1  0  0  0  0
 30 31  1  0  0  0  0
 30 35  1  0  0  0  0
 31 32  2  0  0  0  0
 31 53  1  0  0  0  0
 32 33  1  0  0  0  0
 32 54  1  0  0  0  0
 33 34  2  0  0  0  0
 33 55  1  0  0  0  0
 34 35  1  0  0  0  0
 34 56  1  0  0  0  0
 36 57  1  0  0  0  0
M  END
$$$$
