
 OpenBabel07202414123D

 63 66  0  0  1  0  0  0  0  0999 V2000
    0.9758   -0.5416    0.9336 C   0  0  0  0  0  0  0  0  0  0  0  0
    2.3096    0.0913    1.3356 C   0  0  0  0  0  0  0  0  0  0  0  0
    2.0458    1.4421    1.9990 C   0  0  0  0  0  0  0  0  0  0  0  0
    2.9418   -0.8078    2.2647 O   0  0  0  0  0  0  0  0  0  0  0  0
    4.3043   -0.8933    2.2512 C   0  0  0  0  0  0  0  0  0  0  0  0
    5.1665    0.0915    1.8071 C   0  0  0  0  0  0  0  0  0  0  0  0
    6.5469   -0.1557    1.7239 C   0  0  0  0  0  0  0  0  0  0  0  0
    7.1338   -1.3687    2.1303 C   0  0  0  0  0  0  0  0  0  0  0  0
    8.5383   -1.6819    1.8250 N   0  0  0  0  0  0  0  0  0  0  0  0
    9.0424   -3.0956    1.8470 C   0  0  3  0  0  0  0  0  0  0  0  0
    9.5629   -3.3835    3.3089 C   0  0  0  0  0  0  0  0  0  0  0  0
   10.4596   -2.7167    3.8271 O   0  0  0  0  0  0  0  0  0  0  0  0
    8.9555   -4.4161    4.0021 N   0  0  0  0  0  0  0  0  0  0  0  0
    9.3677   -4.8365    5.3312 C   0  0  0  0  0  0  0  0  0  0  0  0
    9.1595   -6.3461    5.5093 C   0  0  0  0  0  0  0  0  0  0  0  0
    9.4996   -6.8482    6.8888 C   0  0  0  0  0  0  0  0  0  0  0  0
    8.5215   -7.4327    7.6994 C   0  0  0  0  0  0  0  0  0  0  0  0
    8.8850   -7.8987    8.9546 C   0  0  0  0  0  0  0  0  0  0  0  0
   10.1383   -7.8261    9.4491 N   0  0  0  0  0  0  0  0  0  0  0  0
   11.0701   -7.2656    8.6504 C   0  0  0  0  0  0  0  0  0  0  0  0
   10.8056   -6.7735    7.3805 C   0  0  0  0  0  0  0  0  0  0  0  0
    8.2460   -4.2707    1.2400 C   0  0  0  0  0  0  0  0  0  0  0  0
    8.7779   -5.5745    1.3297 C   0  0  0  0  0  0  0  0  0  0  0  0
    7.9672   -6.6891    1.1329 C   0  0  0  0  0  0  0  0  0  0  0  0
    6.6519   -6.4729    0.7826 C   0  0  0  0  0  0  0  0  0  0  0  0
    6.1631   -5.2529    0.4924 N   0  0  0  0  0  0  0  0  0  0  0  0
    6.9884   -4.1893    0.6645 C   0  0  0  0  0  0  0  0  0  0  0  0
    9.4734   -0.5848    1.7430 C   0  0  0  0  0  0  0  0  0  0  0  0
    9.1283    0.5863    1.9153 O   0  0  0  0  0  0  0  0  0  0  0  0
   10.9135   -0.7679    1.4960 C   0  0  0  0  0  0  0  0  0  0  0  0
   11.8386    0.2152    1.7905 C   0  0  0  0  0  0  0  0  0  0  0  0
   13.0853   -0.2259    1.4469 O   0  0  0  0  0  0  0  0  0  0  0  0
   12.8529   -1.4660    0.9563 C   0  0  0  0  0  0  0  0  0  0  0  0
   11.5880   -1.8464    0.9404 N   0  0  0  0  0  0  0  0  0  0  0  0
    6.2563   -2.2750    2.7424 C   0  0  0  0  0  0  0  0  0  0  0  0
    4.8606   -2.0651    2.7549 C   0  0  0  0  0  0  0  0  0  0  0  0
    0.3976    0.1244    0.2836 H   0  0  0  0  0  0  0  0  0  0  0  0
    0.3728   -0.7811    1.8160 H   0  0  0  0  0  0  0  0  0  0  0  0
    1.1430   -1.4812    0.3966 H   0  0  0  0  0  0  0  0  0  0  0  0
    2.9000    0.2142    0.4176 H   0  0  0  0  0  0  0  0  0  0  0  0
    1.7461    1.3163    3.0443 H   0  0  0  0  0  0  0  0  0  0  0  0
    1.2705    2.0073    1.4711 H   0  0  0  0  0  0  0  0  0  0  0  0
    2.9461    2.0626    2.0004 H   0  0  0  0  0  0  0  0  0  0  0  0
    4.8114    1.0624    1.4845 H   0  0  0  0  0  0  0  0  0  0  0  0
    7.1185    0.6479    1.2709 H   0  0  0  0  0  0  0  0  0  0  0  0
    9.9270   -3.1326    1.2165 H   0  0  0  0  0  0  0  0  0  0  0  0
    8.0734   -4.7762    3.6602 H   0  0  0  0  0  0  0  0  0  0  0  0
    8.7636   -4.2726    6.0484 H   0  0  0  0  0  0  0  0  0  0  0  0
   10.4173   -4.5657    5.4883 H   0  0  0  0  0  0  0  0  0  0  0  0
    9.7641   -6.8984    4.7773 H   0  0  0  0  0  0  0  0  0  0  0  0
    8.1162   -6.5946    5.2725 H   0  0  0  0  0  0  0  0  0  0  0  0
    7.4930   -7.5335    7.3691 H   0  0  0  0  0  0  0  0  0  0  0  0
    8.1548   -8.3601    9.6138 H   0  0  0  0  0  0  0  0  0  0  0  0
   12.0717   -7.2221    9.0690 H   0  0  0  0  0  0  0  0  0  0  0  0
   11.6114   -6.3472    6.7921 H   0  0  0  0  0  0  0  0  0  0  0  0
    9.8124   -5.7309    1.6361 H   0  0  0  0  0  0  0  0  0  0  0  0
    8.3433   -7.6934    1.2904 H   0  0  0  0  0  0  0  0  0  0  0  0
    5.9408   -7.2913    0.7151 H   0  0  0  0  0  0  0  0  0  0  0  0
    6.5376   -3.2473    0.3706 H   0  0  0  0  0  0  0  0  0  0  0  0
   11.7769    1.2062    2.2059 H   0  0  0  0  0  0  0  0  0  0  0  0
   13.7197   -2.0179    0.6213 H   0  0  0  0  0  0  0  0  0  0  0  0
    6.5997   -3.2096    3.1663 H   0  0  0  0  0  0  0  0  0  0  0  0
    4.2062   -2.8526    3.1235 H   0  0  0  0  0  0  0  0  0  0  0  0
  1  2  1  0  0  0  0
  1 37  1  0  0  0  0
  1 38  1  0  0  0  0
  1 39  1  0  0  0  0
  2  3  1  0  0  0  0
  2  4  1  0  0  0  0
  2 40  1  0  0  0  0
  3 41  1  0  0  0  0
  3 42  1  0  0  0  0
  3 43  1  0  0  0  0
  4  5  1  0  0  0  0
  5  6  1  0  0  0  0
  5 36  2  0  0  0  0
  6  7  2  0  0  0  0
  6 44  1  0  0  0  0
  7  8  1  0  0  0  0
  7 45  1  0  0  0  0
  8  9  1  0  0  0  0
  8 35  2  0  0  0  0
  9 10  1  0  0  0  0
  9 28  1  0  0  0  0
 10 11  1  0  0  0  0
 10 22  1  0  0  0  0
 10 46  1  0  0  0  0
 11 12  2  0  0  0  0
 11 13  1  0  0  0  0
 13 14  1  0  0  0  0
 13 47  1  0  0  0  0
 14 15  1  0  0  0  0
 14 48  1  0  0  0  0
 14 49  1  0  0  0  0
 15 16  1  0  0  0  0
 15 50  1  0  0  0  0
 15 51  1  0  0  0  0
 16 17  1  0  0  0  0
 16 21  2  0  0  0  0
 17 18  2  0  0  0  0
 17 52  1  0  0  0  0
 18 19  1  0  0  0  0
 18 53  1  0  0  0  0
 19 20  2  0  0  0  0
 20 21  1  0  0  0  0
 20 54  1  0  0  0  0
 21 55  1  0  0  0  0
 22 23  1  0  0  0  0
 22 27  2  0  0  0  0
 23 24  2  0  0  0  0
 23 56  1  0  0  0  0
 24 25  1  0  0  0  0
 24 57  1  0  0  0  0
 25 26  2  0  0  0  0
 25 58  1  0  0  0  0
 26 27  1  0  0  0  0
 27 59  1  0  0  0  0
 28 29  2  0  0  0  0
 28 30  1  0  0  0  0
 30 31  2  0  0  0  0
 30 34  1  0  0  0  0
 31 32  1  0  0  0  0
 31 60  1  0  0  0  0
 32 33  1  0  0  0  0
 33 34  2  0  0  0  0
 33 61  1  0  0  0  0
 35 36  1  0  0  0  0
 35 62  1  0  0  0  0
 36 63  1  0  0  0  0
M  END
$$$$
