
 OpenBabel07202414143D

 40 43  0  0  1  0  0  0  0  0999 V2000
    0.7732   -4.5239   -4.2362 C   0  0  0  0  0  0  0  0  0  0  0  0
    0.4637   -3.1247   -4.3930 N   0  0  0  0  0  0  0  0  0  0  0  0
    0.4412   -2.6072   -5.6364 N   0  0  0  0  0  0  0  0  0  0  0  0
    0.1236   -1.3280   -5.4399 C   0  0  0  0  0  0  0  0  0  0  0  0
   -0.0480   -1.0199   -4.0762 C   0  0  0  0  0  0  0  0  0  0  0  0
    0.1486   -2.2301   -3.3996 C   0  0  0  0  0  0  0  0  0  0  0  0
   -0.0581   -2.3373   -2.0174 C   0  0  0  0  0  0  0  0  0  0  0  0
    0.0757   -3.5371   -1.2732 N   0  0  0  0  0  0  0  0  0  0  0  0
   -0.9741   -4.0087   -0.4896 C   0  0  0  0  0  0  0  0  0  0  0  0
   -2.1020   -3.5223   -0.5438 O   0  0  0  0  0  0  0  0  0  0  0  0
   -0.6153   -5.0592    0.5586 C   0  0  1  0  0  0  0  0  0  0  0  0
   -1.8604   -5.3763    1.4318 C   0  0  0  0  0  0  0  0  0  0  0  0
   -1.5191   -6.0663    2.7098 N   0  0  0  0  0  0  0  0  0  0  0  0
    0.0434   -6.6625    2.9161 S   0  0  0  0  0  0  0  0  0  0  0  0
   -0.0680   -7.7791    3.8339 O   0  0  0  0  0  0  0  0  0  0  0  0
    0.9623   -5.5680    3.1204 O   0  0  0  0  0  0  0  0  0  0  0  0
    0.2998   -7.2877    1.2653 C   0  0  0  0  0  0  0  0  0  0  0  0
   -0.0488   -6.4324    0.1805 C   0  0  0  0  0  0  0  0  0  0  0  0
   -0.0503   -6.9935   -1.0990 C   0  0  0  0  0  0  0  0  0  0  0  0
    0.2572   -8.3566   -1.2690 C   0  0  0  0  0  0  0  0  0  0  0  0
    0.1752   -9.0525   -2.8421 Cl  0  0  0  0  0  0  0  0  0  0  0  0
    0.5687   -9.1798   -0.1824 C   0  0  0  0  0  0  0  0  0  0  0  0
    0.6005   -8.6412    1.0980 C   0  0  0  0  0  0  0  0  0  0  0  0
   -0.4015   -1.1247   -1.4019 C   0  0  0  0  0  0  0  0  0  0  0  0
   -0.5319    0.0777   -2.0198 N   0  0  0  0  0  0  0  0  0  0  0  0
   -0.3784    0.1355   -3.3610 C   0  0  0  0  0  0  0  0  0  0  0  0
    0.9552   -4.9735   -5.2145 H   0  0  0  0  0  0  0  0  0  0  0  0
   -0.0797   -5.0120   -3.7615 H   0  0  0  0  0  0  0  0  0  0  0  0
    1.6715   -4.6075   -3.6198 H   0  0  0  0  0  0  0  0  0  0  0  0
    0.0151   -0.6779   -6.2993 H   0  0  0  0  0  0  0  0  0  0  0  0
    0.7885   -4.1975   -1.5489 H   0  0  0  0  0  0  0  0  0  0  0  0
    0.1344   -4.5381    1.1655 H   0  0  0  0  0  0  0  0  0  0  0  0
   -2.5326   -6.0495    0.8751 H   0  0  0  0  0  0  0  0  0  0  0  0
   -2.4419   -4.4853    1.6829 H   0  0  0  0  0  0  0  0  0  0  0  0
   -2.2204   -6.7147    3.0715 H   0  0  0  0  0  0  0  0  0  0  0  0
   -0.3632   -6.4213   -1.9663 H   0  0  0  0  0  0  0  0  0  0  0  0
    0.7401  -10.2462   -0.3196 H   0  0  0  0  0  0  0  0  0  0  0  0
    0.7877   -9.2848    1.9563 H   0  0  0  0  0  0  0  0  0  0  0  0
   -0.5451   -1.0719   -0.3241 H   0  0  0  0  0  0  0  0  0  0  0  0
   -0.5345    1.1011   -3.8305 H   0  0  0  0  0  0  0  0  0  0  0  0
  1  2  1  0  0  0  0
  1 27  1  0  0  0  0
  1 28  1  0  0  0  0
  1 29  1  0  0  0  0
  2  3  1  0  0  0  0
  2  6  1  0  0  0  0
  3  4  2  0  0  0  0
  4  5  1  0  0  0  0
  4 30  1  0  0  0  0
  5  6  2  0  0  0  0
  5 26  1  0  0  0  0
  6  7  1  0  0  0  0
  7  8  1  0  0  0  0
  7 24  2  0  0  0  0
  8  9  1  0  0  0  0
  8 31  1  0  0  0  0
  9 10  2  0  0  0  0
 11 12  1  0  0  0  0
 11 18  1  0  0  0  0
 11  9  1  0  0  0  0
 11 32  1  1  0  0  0
 12 13  1  0  0  0  0
 12 33  1  0  0  0  0
 12 34  1  0  0  0  0
 13 14  1  0  0  0  0
 13 35  1  0  0  0  0
 14 15  2  0  0  0  0
 14 16  2  0  0  0  0
 14 17  1  0  0  0  0
 17 18  2  0  0  0  0
 17 23  1  0  0  0  0
 18 19  1  0  0  0  0
 19 20  2  0  0  0  0
 19 36  1  0  0  0  0
 20 21  1  0  0  0  0
 20 22  1  0  0  0  0
 22 23  2  0  0  0  0
 22 37  1  0  0  0  0
 23 38  1  0  0  0  0
 24 25  1  0  0  0  0
 24 39  1  0  0  0  0
 25 26  2  0  0  0  0
 26 40  1  0  0  0  0
M  END
$$$$
