
 OpenBabel07202414183D

 55 58  0  0  0  0  0  0  0  0999 V2000
    0.9063   -0.4997   -1.4194 F   0  0  0  0  0  0  0  0  0  0  0  0
    1.1049   -1.2883   -0.3364 C   0  0  0  0  0  0  0  0  0  0  0  0
   -0.0924   -1.2926    0.3196 F   0  0  0  0  0  0  0  0  0  0  0  0
    1.2623   -2.5500   -0.8216 F   0  0  0  0  0  0  0  0  0  0  0  0
    2.2334   -0.8639    0.5777 C   0  0  0  0  0  0  0  0  0  0  0  0
    3.1133    0.2201    0.3575 C   0  0  0  0  0  0  0  0  0  0  0  0
    3.1091    1.0892   -0.8877 C   0  0  0  0  0  0  0  0  0  0  0  0
    2.2134    2.3297   -0.7579 C   0  0  0  0  0  0  0  0  0  0  0  0
    2.3041    3.1986   -1.9438 N   0  0  0  0  0  0  0  0  0  0  0  0
    1.8724    2.7201   -3.1874 C   0  0  0  0  0  0  0  0  0  0  0  0
    0.8921    1.7346   -3.3316 C   0  0  0  0  0  0  0  0  0  0  0  0
    0.5598    1.1735   -4.5777 C   0  0  0  0  0  0  0  0  0  0  0  0
   -0.3163   -0.0624   -4.5756 C   0  0  0  0  0  0  0  0  0  0  0  0
   -1.1453   -0.3110   -5.8113 C   0  0  0  0  0  0  0  0  0  0  0  0
   -0.8910   -1.2389   -6.5769 O   0  0  0  0  0  0  0  0  0  0  0  0
   -2.1925    0.5896   -5.9778 N   0  0  0  0  0  0  0  0  0  0  0  0
   -3.0291    0.4743   -7.1155 C   0  0  0  0  0  0  0  0  0  0  0  0
   -3.6959   -0.7252   -7.3799 C   0  0  0  0  0  0  0  0  0  0  0  0
   -4.4597   -0.9476   -8.4713 N   0  0  0  0  0  0  0  0  0  0  0  0
   -4.4234    0.0139   -9.4160 C   0  0  0  0  0  0  0  0  0  0  0  0
   -3.6976    1.2025   -9.3084 C   0  0  0  0  0  0  0  0  0  0  0  0
   -3.5042    2.0499  -10.4116 C   0  0  0  0  0  0  0  0  0  0  0  0
   -2.7898    3.2380  -10.2755 C   0  0  0  0  0  0  0  0  0  0  0  0
   -2.3487    3.6387   -9.0209 C   0  0  0  0  0  0  0  0  0  0  0  0
   -2.4989    2.7862   -7.9263 C   0  0  0  0  0  0  0  0  0  0  0  0
   -3.0903    1.5091   -8.0725 C   0  0  0  0  0  0  0  0  0  0  0  0
    1.1774    1.6863   -5.7201 C   0  0  0  0  0  0  0  0  0  0  0  0
    2.0678    2.7583   -5.6006 C   0  0  0  0  0  0  0  0  0  0  0  0
    2.8045    3.4138   -7.0122 Cl  0  0  0  0  0  0  0  0  0  0  0  0
    2.4097    3.2769   -4.3423 C   0  0  0  0  0  0  0  0  0  0  0  0
    4.0871    0.5138    1.3412 C   0  0  0  0  0  0  0  0  0  0  0  0
    4.2076   -0.2562    2.4977 C   0  0  0  0  0  0  0  0  0  0  0  0
    3.3701   -1.3431    2.6961 C   0  0  0  0  0  0  0  0  0  0  0  0
    2.3948   -1.6412    1.7449 C   0  0  0  0  0  0  0  0  0  0  0  0
    2.8607    0.4764   -1.7610 H   0  0  0  0  0  0  0  0  0  0  0  0
    4.1390    1.4175   -1.0868 H   0  0  0  0  0  0  0  0  0  0  0  0
    2.5604    2.9232    0.0986 H   0  0  0  0  0  0  0  0  0  0  0  0
    1.1766    2.0610   -0.5342 H   0  0  0  0  0  0  0  0  0  0  0  0
    1.9081    4.1217   -1.7689 H   0  0  0  0  0  0  0  0  0  0  0  0
    0.3884    1.3466   -2.4505 H   0  0  0  0  0  0  0  0  0  0  0  0
   -1.0174   -0.0188   -3.7320 H   0  0  0  0  0  0  0  0  0  0  0  0
    0.3219   -0.9382   -4.4140 H   0  0  0  0  0  0  0  0  0  0  0  0
   -1.9789    1.5245   -5.6535 H   0  0  0  0  0  0  0  0  0  0  0  0
   -3.6299   -1.5686   -6.6976 H   0  0  0  0  0  0  0  0  0  0  0  0
   -5.0072   -0.2100  -10.3058 H   0  0  0  0  0  0  0  0  0  0  0  0
   -3.8509    1.7496  -11.3981 H   0  0  0  0  0  0  0  0  0  0  0  0
   -2.5795    3.8491  -11.1490 H   0  0  0  0  0  0  0  0  0  0  0  0
   -1.8499    4.5968   -8.8982 H   0  0  0  0  0  0  0  0  0  0  0  0
   -2.1187    3.1251   -6.9673 H   0  0  0  0  0  0  0  0  0  0  0  0
    0.9978    1.2489   -6.7013 H   0  0  0  0  0  0  0  0  0  0  0  0
    3.1442    4.0730   -4.2687 H   0  0  0  0  0  0  0  0  0  0  0  0
    4.7739    1.3484    1.2001 H   0  0  0  0  0  0  0  0  0  0  0  0
    4.9670   -0.0116    3.2377 H   0  0  0  0  0  0  0  0  0  0  0  0
    3.4693   -1.9572    3.5872 H   0  0  0  0  0  0  0  0  0  0  0  0
    1.7434   -2.5002    1.9184 H   0  0  0  0  0  0  0  0  0  0  0  0
  1  2  1  0  0  0  0
  2  3  1  0  0  0  0
  2  4  1  0  0  0  0
  2  5  1  0  0  0  0
  5  6  2  0  0  0  0
  5 34  1  0  0  0  0
  6  7  1  0  0  0  0
  6 31  1  0  0  0  0
  7  8  1  0  0  0  0
  7 35  1  0  0  0  0
  7 36  1  0  0  0  0
  8  9  1  0  0  0  0
  8 37  1  0  0  0  0
  8 38  1  0  0  0  0
  9 10  1  0  0  0  0
  9 39  1  0  0  0  0
 10 11  2  0  0  0  0
 10 30  1  0  0  0  0
 11 12  1  0  0  0  0
 11 40  1  0  0  0  0
 12 13  1  0  0  0  0
 12 27  2  0  0  0  0
 13 14  1  0  0  0  0
 13 41  1  0  0  0  0
 13 42  1  0  0  0  0
 14 15  2  0  0  0  0
 14 16  1  0  0  0  0
 16 17  1  0  0  0  0
 16 43  1  0  0  0  0
 17 18  2  0  0  0  0
 17 26  1  0  0  0  0
 18 19  1  0  0  0  0
 18 44  1  0  0  0  0
 19 20  2  0  0  0  0
 20 21  1  0  0  0  0
 20 45  1  0  0  0  0
 21 22  2  0  0  0  0
 21 26  1  0  0  0  0
 22 23  1  0  0  0  0
 22 46  1  0  0  0  0
 23 24  2  0  0  0  0
 23 47  1  0  0  0  0
 24 25  1  0  0  0  0
 24 48  1  0  0  0  0
 25 26  2  0  0  0  0
 25 49  1  0  0  0  0
 27 28  1  0  0  0  0
 27 50  1  0  0  0  0
 28 29  1  0  0  0  0
 28 30  2  0  0  0  0
 30 51  1  0  0  0  0
 31 32  2  0  0  0  0
 31 52  1  0  0  0  0
 32 33  1  0  0  0  0
 32 53  1  0  0  0  0
 33 34  2  0  0  0  0
 33 54  1  0  0  0  0
 34 55  1  0  0  0  0
M  END
$$$$
