
 OpenBabel07202414203D

 32 34  0  0  0  0  0  0  0  0999 V2000
    0.6020   -0.5271   -1.4023 C   0  0  0  0  0  0  0  0  0  0  0  0
    1.2612    0.7048   -1.3619 C   0  0  0  0  0  0  0  0  0  0  0  0
    1.6597    1.2641   -0.1377 C   0  0  0  0  0  0  0  0  0  0  0  0
    1.3647    0.5735    1.0485 C   0  0  0  0  0  0  0  0  0  0  0  0
    0.7068   -0.6577    1.0009 C   0  0  0  0  0  0  0  0  0  0  0  0
    0.3274   -1.2121   -0.2192 C   0  0  0  0  0  0  0  0  0  0  0  0
    0.3604   -1.4992    2.4623 Cl  0  0  0  0  0  0  0  0  0  0  0  0
    2.3543    2.6138   -0.0972 C   0  0  0  0  0  0  0  0  0  0  0  0
    1.3852    3.7713    0.0012 C   0  0  0  0  0  0  0  0  0  0  0  0
    0.1648    3.6788    0.0825 O   0  0  0  0  0  0  0  0  0  0  0  0
    1.9840    5.0483   -0.0067 N   0  0  0  0  0  0  0  0  0  0  0  0
    1.3478    6.2802    0.1196 C   0  0  0  0  0  0  0  0  0  0  0  0
    0.0056    6.6374    0.3434 C   0  0  0  0  0  0  0  0  0  0  0  0
   -0.3174    7.9980    0.3852 C   0  0  0  0  0  0  0  0  0  0  0  0
    0.6624    8.9713    0.2094 C   0  0  0  0  0  0  0  0  0  0  0  0
    1.9909    8.5984    0.0017 C   0  0  0  0  0  0  0  0  0  0  0  0
    2.3452    7.2388   -0.0381 C   0  0  0  0  0  0  0  0  0  0  0  0
    3.5346    6.4982   -0.2098 C   0  0  0  0  0  0  0  0  0  0  0  0
    3.3304    5.1858   -0.1773 N   0  0  0  0  0  0  0  0  0  0  0  0
    4.7414    7.0529   -0.3873 N   0  0  0  0  0  0  0  0  0  0  0  0
    2.9180    9.5525   -0.1689 F   0  0  0  0  0  0  0  0  0  0  0  0
    0.2973   -0.9503   -2.3564 H   0  0  0  0  0  0  0  0  0  0  0  0
    1.4542    1.2281   -2.2962 H   0  0  0  0  0  0  0  0  0  0  0  0
    1.6404    0.9949    2.0122 H   0  0  0  0  0  0  0  0  0  0  0  0
   -0.1858   -2.1694   -0.2550 H   0  0  0  0  0  0  0  0  0  0  0  0
    2.9641    2.7158   -1.0027 H   0  0  0  0  0  0  0  0  0  0  0  0
    3.0294    2.6366    0.7667 H   0  0  0  0  0  0  0  0  0  0  0  0
   -0.7696    5.8867    0.4780 H   0  0  0  0  0  0  0  0  0  0  0  0
   -1.3509    8.2947    0.5529 H   0  0  0  0  0  0  0  0  0  0  0  0
    0.4013   10.0252    0.2335 H   0  0  0  0  0  0  0  0  0  0  0  0
    4.8465    8.0424   -0.5837 H   0  0  0  0  0  0  0  0  0  0  0  0
    5.5201    6.4708   -0.6698 H   0  0  0  0  0  0  0  0  0  0  0  0
  1  2  1  0  0  0  0
  1  6  2  0  0  0  0
  1 22  1  0  0  0  0
  2  3  2  0  0  0  0
  2 23  1  0  0  0  0
  3  4  1  0  0  0  0
  3  8  1  0  0  0  0
  4  5  2  0  0  0  0
  4 24  1  0  0  0  0
  5  6  1  0  0  0  0
  5  7  1  0  0  0  0
  6 25  1  0  0  0  0
  8  9  1  0  0  0  0
  8 26  1  0  0  0  0
  8 27  1  0  0  0  0
  9 10  2  0  0  0  0
  9 11  1  0  0  0  0
 11 12  1  0  0  0  0
 11 19  1  0  0  0  0
 12 13  1  0  0  0  0
 12 17  2  0  0  0  0
 13 14  2  0  0  0  0
 13 28  1  0  0  0  0
 14 15  1  0  0  0  0
 14 29  1  0  0  0  0
 15 16  2  0  0  0  0
 15 30  1  0  0  0  0
 16 17  1  0  0  0  0
 16 21  1  0  0  0  0
 17 18  1  0  0  0  0
 18 19  2  0  0  0  0
 18 20  1  0  0  0  0
 20 31  1  0  0  0  0
 20 32  1  0  0  0  0
M  END
$$$$
