
 OpenBabel07202414183D

 46 49  0  0  0  0  0  0  0  0999 V2000
    4.7790   -1.2209    0.1023 F   0  0  0  0  0  0  0  0  0  0  0  0
    4.4445   -1.6256   -1.1375 C   0  0  0  0  0  0  0  0  0  0  0  0
    5.2921   -1.3589   -2.2150 C   0  0  0  0  0  0  0  0  0  0  0  0
    6.7912   -0.5535   -1.9127 Cl  0  0  0  0  0  0  0  0  0  0  0  0
    4.9021   -1.7339   -3.5070 C   0  0  0  0  0  0  0  0  0  0  0  0
    5.8525   -1.3839   -4.9055 Cl  0  0  0  0  0  0  0  0  0  0  0  0
    3.6929   -2.3987   -3.7023 C   0  0  0  0  0  0  0  0  0  0  0  0
    2.8833   -2.6977   -2.6135 C   0  0  0  0  0  0  0  0  0  0  0  0
    3.2279   -2.2919   -1.3173 C   0  0  0  0  0  0  0  0  0  0  0  0
    2.3367   -2.4855   -0.2493 N   0  0  0  0  0  0  0  0  0  0  0  0
    0.9334   -2.4442   -0.2707 C   0  0  0  0  0  0  0  0  0  0  0  0
    0.2048   -1.7704   -1.2569 C   0  0  0  0  0  0  0  0  0  0  0  0
   -1.1889   -1.8032   -1.2713 C   0  0  0  0  0  0  0  0  0  0  0  0
   -2.0466   -0.9595   -2.5059 Cl  0  0  0  0  0  0  0  0  0  0  0  0
   -1.8819   -2.4945   -0.3000 C   0  0  0  0  0  0  0  0  0  0  0  0
   -1.1736   -3.1680    0.6985 C   0  0  0  0  0  0  0  0  0  0  0  0
   -1.8926   -3.8374    1.8266 C   0  0  0  0  0  0  0  0  0  0  0  0
   -1.6347   -3.1446    3.1634 C   0  0  0  0  0  0  0  0  0  0  0  0
   -0.7563   -2.3170    3.3684 O   0  0  0  0  0  0  0  0  0  0  0  0
   -2.4716   -3.6430    4.1277 N   0  0  0  0  0  0  0  0  0  0  0  0
   -2.4435   -3.2782    5.4873 C   0  0  0  0  0  0  0  0  0  0  0  0
   -2.3603   -4.3644    6.3608 C   0  0  0  0  0  0  0  0  0  0  0  0
   -2.7973   -4.3556    7.6247 N   0  0  0  0  0  0  0  0  0  0  0  0
   -3.3361   -3.1908    8.0351 C   0  0  0  0  0  0  0  0  0  0  0  0
   -3.3375   -1.9993    7.3062 C   0  0  0  0  0  0  0  0  0  0  0  0
   -3.8668   -0.8395    7.8889 C   0  0  0  0  0  0  0  0  0  0  0  0
   -3.7882    0.3832    7.2367 C   0  0  0  0  0  0  0  0  0  0  0  0
   -3.2209    0.4462    5.9698 C   0  0  0  0  0  0  0  0  0  0  0  0
   -2.7799   -0.7281    5.3339 C   0  0  0  0  0  0  0  0  0  0  0  0
   -2.8211   -1.9963    5.9915 C   0  0  0  0  0  0  0  0  0  0  0  0
    0.2278   -3.1596    0.6894 C   0  0  0  0  0  0  0  0  0  0  0  0
    3.3622   -2.6778   -4.7006 H   0  0  0  0  0  0  0  0  0  0  0  0
    1.9622   -3.2538   -2.7807 H   0  0  0  0  0  0  0  0  0  0  0  0
    2.7451   -2.3789    0.6775 H   0  0  0  0  0  0  0  0  0  0  0  0
    0.7175   -1.1822   -2.0062 H   0  0  0  0  0  0  0  0  0  0  0  0
   -2.9685   -2.4897   -0.3015 H   0  0  0  0  0  0  0  0  0  0  0  0
   -1.5799   -4.8884    1.8892 H   0  0  0  0  0  0  0  0  0  0  0  0
   -2.9739   -3.8406    1.6368 H   0  0  0  0  0  0  0  0  0  0  0  0
   -2.7667   -4.5982    3.9547 H   0  0  0  0  0  0  0  0  0  0  0  0
   -1.9505   -5.3152    6.0276 H   0  0  0  0  0  0  0  0  0  0  0  0
   -3.7910   -3.2427    9.0188 H   0  0  0  0  0  0  0  0  0  0  0  0
   -4.3296   -0.8859    8.8719 H   0  0  0  0  0  0  0  0  0  0  0  0
   -4.1521    1.2804    7.7312 H   0  0  0  0  0  0  0  0  0  0  0  0
   -3.1218    1.4132    5.4808 H   0  0  0  0  0  0  0  0  0  0  0  0
   -2.3454   -0.6297    4.3405 H   0  0  0  0  0  0  0  0  0  0  0  0
    0.7754   -3.6908    1.4681 H   0  0  0  0  0  0  0  0  0  0  0  0
  1  2  1  0  0  0  0
  2  3  2  0  0  0  0
  2  9  1  0  0  0  0
  3  4  1  0  0  0  0
  3  5  1  0  0  0  0
  5  6  1  0  0  0  0
  5  7  2  0  0  0  0
  7  8  1  0  0  0  0
  7 32  1  0  0  0  0
  8  9  2  0  0  0  0
  8 33  1  0  0  0  0
  9 10  1  0  0  0  0
 10 11  1  0  0  0  0
 10 34  1  0  0  0  0
 11 12  2  0  0  0  0
 11 31  1  0  0  0  0
 12 13  1  0  0  0  0
 12 35  1  0  0  0  0
 13 14  1  0  0  0  0
 13 15  2  0  0  0  0
 15 16  1  0  0  0  0
 15 36  1  0  0  0  0
 16 17  1  0  0  0  0
 16 31  2  0  0  0  0
 17 18  1  0  0  0  0
 17 37  1  0  0  0  0
 17 38  1  0  0  0  0
 18 19  2  0  0  0  0
 18 20  1  0  0  0  0
 20 21  1  0  0  0  0
 20 39  1  0  0  0  0
 21 22  2  0  0  0  0
 21 30  1  0  0  0  0
 22 23  1  0  0  0  0
 22 40  1  0  0  0  0
 23 24  2  0  0  0  0
 24 25  1  0  0  0  0
 24 41  1  0  0  0  0
 25 26  2  0  0  0  0
 25 30  1  0  0  0  0
 26 27  1  0  0  0  0
 26 42  1  0  0  0  0
 27 28  2  0  0  0  0
 27 43  1  0  0  0  0
 28 29  1  0  0  0  0
 28 44  1  0  0  0  0
 29 30  2  0  0  0  0
 29 45  1  0  0  0  0
 31 46  1  0  0  0  0
M  END
$$$$
