
 OpenBabel07202414153D

 40 43  0  0  1  0  0  0  0  0999 V2000
    0.9128    0.2878   -0.3056 C   0  0  0  0  0  0  0  0  0  0  0  0
    2.4117    0.0174   -0.1589 C   0  0  2  0  0  0  0  0  0  0  0  0
    2.9218   -0.9244   -1.2535 C   0  0  0  0  0  0  0  0  0  0  0  0
    2.4284   -2.2537   -1.0663 O   0  0  0  0  0  0  0  0  0  0  0  0
    2.8963   -2.8467    0.1567 C   0  0  0  0  0  0  0  0  0  0  0  0
    2.4115   -2.0484    1.3617 C   0  0  1  0  0  0  0  0  0  0  0  0
    2.7541   -0.5561    1.2183 C   0  0  0  0  0  0  0  0  0  0  0  0
    1.0119   -2.2601    1.6456 N   0  0  0  0  0  0  0  0  0  0  0  0
    0.7796   -2.4587    2.9875 C   0  0  0  0  0  0  0  0  0  0  0  0
   -0.3390   -2.3943    3.4704 O   0  0  0  0  0  0  0  0  0  0  0  0
    1.9922   -2.6484    3.6047 N   0  0  0  0  0  0  0  0  0  0  0  0
    2.1665   -2.6974    5.0044 C   0  0  0  0  0  0  0  0  0  0  0  0
    3.0434   -1.7925    5.6085 C   0  0  0  0  0  0  0  0  0  0  0  0
    3.2180   -1.6662    6.9412 N   0  0  0  0  0  0  0  0  0  0  0  0
    2.5047   -2.5094    7.7178 C   0  0  0  0  0  0  0  0  0  0  0  0
    1.6375   -3.4928    7.2370 C   0  0  0  0  0  0  0  0  0  0  0  0
    0.9761   -4.3754    8.1091 C   0  0  0  0  0  0  0  0  0  0  0  0
    0.1525   -5.3843    7.6127 C   0  0  0  0  0  0  0  0  0  0  0  0
   -0.0239   -5.5167    6.2419 C   0  0  0  0  0  0  0  0  0  0  0  0
    0.6168   -4.6359    5.3683 C   0  0  0  0  0  0  0  0  0  0  0  0
    1.4547   -3.5958    5.8386 C   0  0  0  0  0  0  0  0  0  0  0  0
    3.0123   -2.5076    2.6938 C   0  0  0  0  0  0  0  0  0  0  0  0
    4.2139   -2.6284    2.9014 O   0  0  0  0  0  0  0  0  0  0  0  0
    0.7324    0.9548   -1.1548 H   0  0  0  0  0  0  0  0  0  0  0  0
    0.5097    0.7743    0.5892 H   0  0  0  0  0  0  0  0  0  0  0  0
    0.3398   -0.6243   -0.4903 H   0  0  0  0  0  0  0  0  0  0  0  0
    2.9234    0.9831   -0.2582 H   0  0  0  0  0  0  0  0  0  0  0  0
    4.0183   -0.9490   -1.2672 H   0  0  0  0  0  0  0  0  0  0  0  0
    2.5918   -0.5779   -2.2385 H   0  0  0  0  0  0  0  0  0  0  0  0
    3.9900   -2.9167    0.1211 H   0  0  0  0  0  0  0  0  0  0  0  0
    2.5104   -3.8724    0.1857 H   0  0  0  0  0  0  0  0  0  0  0  0
    3.8397   -0.4380    1.3573 H   0  0  0  0  0  0  0  0  0  0  0  0
    2.2905    0.0393    2.0149 H   0  0  0  0  0  0  0  0  0  0  0  0
    0.2437   -2.0374    1.0231 H   0  0  0  0  0  0  0  0  0  0  0  0
    3.6153   -1.0779    5.0222 H   0  0  0  0  0  0  0  0  0  0  0  0
    2.6696   -2.3786    8.7844 H   0  0  0  0  0  0  0  0  0  0  0  0
    1.1146   -4.2934    9.1850 H   0  0  0  0  0  0  0  0  0  0  0  0
   -0.3391   -6.0725    8.2940 H   0  0  0  0  0  0  0  0  0  0  0  0
   -0.6566   -6.3075    5.8453 H   0  0  0  0  0  0  0  0  0  0  0  0
    0.4575   -4.7868    4.3047 H   0  0  0  0  0  0  0  0  0  0  0  0
  1  2  1  0  0  0  0
  1 24  1  0  0  0  0
  1 25  1  0  0  0  0
  1 26  1  0  0  0  0
  2  3  1  0  0  0  0
  2  7  1  0  0  0  0
  2 27  1  6  0  0  0
  3  4  1  0  0  0  0
  3 28  1  0  0  0  0
  3 29  1  0  0  0  0
  4  5  1  0  0  0  0
  5  6  1  0  0  0  0
  5 30  1  0  0  0  0
  5 31  1  0  0  0  0
  6  7  1  0  0  0  0
  6  8  1  0  0  0  0
  6 22  1  1  0  0  0
  7 32  1  0  0  0  0
  7 33  1  0  0  0  0
  8  9  1  0  0  0  0
  8 34  1  0  0  0  0
  9 10  2  0  0  0  0
  9 11  1  0  0  0  0
 11 12  1  0  0  0  0
 11 22  1  0  0  0  0
 12 13  1  0  0  0  0
 12 21  2  0  0  0  0
 13 14  2  0  0  0  0
 13 35  1  0  0  0  0
 14 15  1  0  0  0  0
 15 16  2  0  0  0  0
 15 36  1  0  0  0  0
 16 17  1  0  0  0  0
 16 21  1  0  0  0  0
 17 18  2  0  0  0  0
 17 37  1  0  0  0  0
 18 19  1  0  0  0  0
 18 38  1  0  0  0  0
 19 20  2  0  0  0  0
 19 39  1  0  0  0  0
 20 21  1  0  0  0  0
 20 40  1  0  0  0  0
 22 23  2  0  0  0  0
M  END
$$$$
