
 OpenBabel07202414153D

 43 45  0  0  0  0  0  0  0  0999 V2000
    1.6475   -1.5758    1.8163 C   0  0  0  0  0  0  0  0  0  0  0  0
    2.3226   -1.1044    0.6583 O   0  0  0  0  0  0  0  0  0  0  0  0
    2.0147   -1.7054   -0.5398 C   0  0  0  0  0  0  0  0  0  0  0  0
    3.1225   -1.9430   -1.3906 C   0  0  0  0  0  0  0  0  0  0  0  0
    2.9205   -2.4423   -2.6820 C   0  0  0  0  0  0  0  0  0  0  0  0
    1.6378   -2.7519   -3.1247 C   0  0  0  0  0  0  0  0  0  0  0  0
    0.5478   -2.5358   -2.2897 C   0  0  0  0  0  0  0  0  0  0  0  0
    0.7243   -1.9944   -1.0103 C   0  0  0  0  0  0  0  0  0  0  0  0
   -0.7318   -1.6483   -0.1463 Cl  0  0  0  0  0  0  0  0  0  0  0  0
    4.3477   -1.6123   -0.8744 O   0  0  0  0  0  0  0  0  0  0  0  0
    5.5343   -2.1575   -1.4503 C   0  0  0  0  0  0  0  0  0  0  0  0
    5.9864   -3.3981   -0.6684 C   0  0  0  0  0  0  0  0  0  0  0  0
    7.1044   -4.1643   -1.2177 N   0  0  0  0  0  0  0  0  0  0  0  0
    8.0871   -3.6145   -2.0125 C   0  0  0  0  0  0  0  0  0  0  0  0
    8.0445   -2.4508   -2.3931 O   0  0  0  0  0  0  0  0  0  0  0  0
    9.2385   -4.4958   -2.3995 C   0  0  0  0  0  0  0  0  0  0  0  0
    9.0203   -5.8177   -2.5364 C   0  0  0  0  0  0  0  0  0  0  0  0
   10.0554   -6.7397   -3.0368 C   0  0  0  0  0  0  0  0  0  0  0  0
    9.8343   -7.9437   -3.0995 O   0  0  0  0  0  0  0  0  0  0  0  0
   11.2348   -6.1876   -3.4352 N   0  0  0  0  0  0  0  0  0  0  0  0
   11.5157   -4.8186   -3.3503 C   0  0  0  0  0  0  0  0  0  0  0  0
   10.5580   -3.9446   -2.8131 C   0  0  0  0  0  0  0  0  0  0  0  0
   10.9026   -2.5876   -2.7158 C   0  0  0  0  0  0  0  0  0  0  0  0
   12.1346   -2.1157   -3.1796 C   0  0  0  0  0  0  0  0  0  0  0  0
   13.0582   -2.9983   -3.7282 C   0  0  0  0  0  0  0  0  0  0  0  0
   12.7542   -4.3553   -3.8062 C   0  0  0  0  0  0  0  0  0  0  0  0
    2.2916   -1.3835    2.6805 H   0  0  0  0  0  0  0  0  0  0  0  0
    1.4481   -2.6519    1.7807 H   0  0  0  0  0  0  0  0  0  0  0  0
    0.7328   -1.0016    1.9825 H   0  0  0  0  0  0  0  0  0  0  0  0
    3.7294   -2.5713   -3.3922 H   0  0  0  0  0  0  0  0  0  0  0  0
    1.4876   -3.1349   -4.1312 H   0  0  0  0  0  0  0  0  0  0  0  0
   -0.4510   -2.7586   -2.6572 H   0  0  0  0  0  0  0  0  0  0  0  0
    6.2857   -1.3682   -1.3484 H   0  0  0  0  0  0  0  0  0  0  0  0
    5.4612   -2.3681   -2.5192 H   0  0  0  0  0  0  0  0  0  0  0  0
    5.1496   -4.1010   -0.5737 H   0  0  0  0  0  0  0  0  0  0  0  0
    6.2599   -3.1122    0.3532 H   0  0  0  0  0  0  0  0  0  0  0  0
    7.2592   -5.0730   -0.8042 H   0  0  0  0  0  0  0  0  0  0  0  0
    8.0700   -6.2999   -2.3375 H   0  0  0  0  0  0  0  0  0  0  0  0
   11.9266   -6.8274   -3.8042 H   0  0  0  0  0  0  0  0  0  0  0  0
   10.2203   -1.8540   -2.2933 H   0  0  0  0  0  0  0  0  0  0  0  0
   12.3619   -1.0538   -3.1162 H   0  0  0  0  0  0  0  0  0  0  0  0
   14.0125   -2.6277   -4.0930 H   0  0  0  0  0  0  0  0  0  0  0  0
   13.4846   -5.0382   -4.2302 H   0  0  0  0  0  0  0  0  0  0  0  0
  1  2  1  0  0  0  0
  1 27  1  0  0  0  0
  1 28  1  0  0  0  0
  1 29  1  0  0  0  0
  2  3  1  0  0  0  0
  3  4  1  0  0  0  0
  3  8  2  0  0  0  0
  4  5  2  0  0  0  0
  4 10  1  0  0  0  0
  5  6  1  0  0  0  0
  5 30  1  0  0  0  0
  6  7  2  0  0  0  0
  6 31  1  0  0  0  0
  7  8  1  0  0  0  0
  7 32  1  0  0  0  0
  8  9  1  0  0  0  0
 10 11  1  0  0  0  0
 11 12  1  0  0  0  0
 11 33  1  0  0  0  0
 11 34  1  0  0  0  0
 12 13  1  0  0  0  0
 12 35  1  0  0  0  0
 12 36  1  0  0  0  0
 13 14  1  0  0  0  0
 13 37  1  0  0  0  0
 14 15  2  0  0  0  0
 14 16  1  0  0  0  0
 16 17  2  0  0  0  0
 16 22  1  0  0  0  0
 17 18  1  0  0  0  0
 17 38  1  0  0  0  0
 18 19  2  0  0  0  0
 18 20  1  0  0  0  0
 20 21  1  0  0  0  0
 20 39  1  0  0  0  0
 21 22  1  0  0  0  0
 21 26  2  0  0  0  0
 22 23  2  0  0  0  0
 23 24  1  0  0  0  0
 23 40  1  0  0  0  0
 24 25  2  0  0  0  0
 24 41  1  0  0  0  0
 25 26  1  0  0  0  0
 25 42  1  0  0  0  0
 26 43  1  0  0  0  0
M  END
$$$$
