
 OpenBabel07202414173D

 62 67  0  0  1  0  0  0  0  0999 V2000
    1.0028    0.4341   -0.0669 Cl  0  0  0  0  0  0  0  0  0  0  0  0
    2.7192    0.3326   -0.0486 C   0  0  0  0  0  0  0  0  0  0  0  0
    3.4913    1.4904   -0.0143 C   0  0  0  0  0  0  0  0  0  0  0  0
    4.8822    1.3812   -0.0014 C   0  0  0  0  0  0  0  0  0  0  0  0
    5.5204    0.1243   -0.0112 C   0  0  0  0  0  0  0  0  0  0  0  0
    4.7380   -1.0457   -0.0502 C   0  0  0  0  0  0  0  0  0  0  0  0
    3.3333   -0.9142   -0.0713 C   0  0  0  0  0  0  0  0  0  0  0  0
    5.3997   -2.4348    0.0200 C   0  0  3  0  0  0  0  0  0  0  0  0
    6.9301   -2.3355   -0.2177 C   0  0  0  0  0  0  0  0  0  0  0  0
    7.6499   -1.1838    0.3431 N   0  0  0  0  0  0  0  0  0  0  0  0
    7.7879   -1.3281    1.7970 C   0  0  0  0  0  0  0  0  0  0  0  0
    8.6057   -0.2347    2.4720 C   0  0  0  0  0  0  0  0  0  0  0  0
    9.5664    0.3412    1.9757 O   0  0  0  0  0  0  0  0  0  0  0  0
    8.1184    0.0398    3.7393 N   0  0  0  0  0  0  0  0  0  0  0  0
    8.6912    1.0664    4.5708 C   0  0  0  0  0  0  0  0  0  0  0  0
    7.9749    2.3974    4.4706 C   0  0  0  0  0  0  0  0  0  0  0  0
    8.6134    3.4227    5.2596 C   0  0  0  0  0  0  0  0  0  0  0  0
    9.1313    4.2366    5.9037 N   0  0  0  0  0  0  0  0  0  0  0  0
    7.2895    2.8497    3.1900 C   0  0  0  0  0  0  0  0  0  0  0  0
    6.4550    2.4387    4.3709 C   0  0  0  0  0  0  0  0  0  0  0  0
    7.0326    0.0752   -0.0863 C   0  0  0  0  0  0  0  0  0  0  0  0
    4.8412   -3.4138   -1.0431 C   0  0  0  0  0  0  0  0  0  0  0  0
    3.9461   -4.3880   -0.3015 C   0  0  0  0  0  0  0  0  0  0  0  0
    3.7664   -3.8397    1.0092 N   0  0  0  0  0  0  0  0  0  0  0  0
    2.7936   -4.3698    1.9189 C   0  0  0  0  0  0  0  0  0  0  0  0
    3.1182   -4.5938    3.2572 C   0  0  0  0  0  0  0  0  0  0  0  0
    2.3489   -5.2836    4.1305 N   0  0  0  0  0  0  0  0  0  0  0  0
    1.1438   -5.6823    3.6822 C   0  0  0  0  0  0  0  0  0  0  0  0
    0.6124   -5.3366    2.4446 C   0  0  0  0  0  0  0  0  0  0  0  0
   -0.7382   -5.6050    2.1525 C   0  0  0  0  0  0  0  0  0  0  0  0
   -1.2997   -5.2215    0.9388 C   0  0  0  0  0  0  0  0  0  0  0  0
   -0.5117   -4.5778    0.0006 C   0  0  0  0  0  0  0  0  0  0  0  0
    0.8248   -4.2871    0.2973 C   0  0  0  0  0  0  0  0  0  0  0  0
    1.4489   -4.6692    1.5180 C   0  0  0  0  0  0  0  0  0  0  0  0
    4.9203   -3.1079    1.3439 C   0  0  0  0  0  0  0  0  0  0  0  0
    5.3567   -2.8954    2.4619 O   0  0  0  0  0  0  0  0  0  0  0  0
    3.0160    2.4620    0.0016 H   0  0  0  0  0  0  0  0  0  0  0  0
    5.4741    2.2957    0.0066 H   0  0  0  0  0  0  0  0  0  0  0  0
    2.6926   -1.7875   -0.0834 H   0  0  0  0  0  0  0  0  0  0  0  0
    7.1020   -2.2727   -1.3046 H   0  0  0  0  0  0  0  0  0  0  0  0
    7.4253   -3.2672    0.0872 H   0  0  0  0  0  0  0  0  0  0  0  0
    8.2961   -2.2747    2.0311 H   0  0  0  0  0  0  0  0  0  0  0  0
    6.8128   -1.3150    2.2616 H   0  0  0  0  0  0  0  0  0  0  0  0
    7.2801   -0.4247    4.0559 H   0  0  0  0  0  0  0  0  0  0  0  0
    9.7488    1.1820    4.3198 H   0  0  0  0  0  0  0  0  0  0  0  0
    8.6246    0.6920    5.5990 H   0  0  0  0  0  0  0  0  0  0  0  0
    7.2922    2.1996    2.3235 H   0  0  0  0  0  0  0  0  0  0  0  0
    7.3176    3.9009    2.9271 H   0  0  0  0  0  0  0  0  0  0  0  0
    5.8980    1.5180    4.2975 H   0  0  0  0  0  0  0  0  0  0  0  0
    5.9202    3.2187    4.9048 H   0  0  0  0  0  0  0  0  0  0  0  0
    7.3027    0.2442   -1.1379 H   0  0  0  0  0  0  0  0  0  0  0  0
    7.4590    0.9252    0.4559 H   0  0  0  0  0  0  0  0  0  0  0  0
    5.6324   -3.9899   -1.5400 H   0  0  0  0  0  0  0  0  0  0  0  0
    4.2965   -2.8935   -1.8367 H   0  0  0  0  0  0  0  0  0  0  0  0
    4.4638   -5.3480   -0.1798 H   0  0  0  0  0  0  0  0  0  0  0  0
    3.0411   -4.5837   -0.8701 H   0  0  0  0  0  0  0  0  0  0  0  0
    4.0525   -4.2612    3.6999 H   0  0  0  0  0  0  0  0  0  0  0  0
    0.5826   -6.2910    4.3867 H   0  0  0  0  0  0  0  0  0  0  0  0
   -1.3795   -6.0737    2.8975 H   0  0  0  0  0  0  0  0  0  0  0  0
   -2.3539   -5.3971    0.7406 H   0  0  0  0  0  0  0  0  0  0  0  0
   -0.9381   -4.2664   -0.9503 H   0  0  0  0  0  0  0  0  0  0  0  0
    1.3495   -3.6891   -0.4403 H   0  0  0  0  0  0  0  0  0  0  0  0
  1  2  1  0  0  0  0
  2  3  1  0  0  0  0
  2  7  2  0  0  0  0
  3  4  2  0  0  0  0
  3 37  1  0  0  0  0
  4  5  1  0  0  0  0
  4 38  1  0  0  0  0
  5  6  2  0  0  0  0
  5 21  1  0  0  0  0
  6  7  1  0  0  0  0
  6  8  1  0  0  0  0
  7 39  1  0  0  0  0
  8  9  1  0  0  0  0
  8 22  1  0  0  0  0
  8 35  1  0  0  0  0
  9 10  1  0  0  0  0
  9 40  1  0  0  0  0
  9 41  1  0  0  0  0
 10 11  1  0  0  0  0
 10 21  1  0  0  0  0
 11 12  1  0  0  0  0
 11 42  1  0  0  0  0
 11 43  1  0  0  0  0
 12 13  2  0  0  0  0
 12 14  1  0  0  0  0
 14 15  1  0  0  0  0
 14 44  1  0  0  0  0
 15 16  1  0  0  0  0
 15 45  1  0  0  0  0
 15 46  1  0  0  0  0
 16 17  1  0  0  0  0
 16 19  1  0  0  0  0
 16 20  1  0  0  0  0
 17 18  3  0  0  0  0
 19 20  1  0  0  0  0
 19 47  1  0  0  0  0
 19 48  1  0  0  0  0
 20 49  1  0  0  0  0
 20 50  1  0  0  0  0
 21 51  1  0  0  0  0
 21 52  1  0  0  0  0
 22 23  1  0  0  0  0
 22 53  1  0  0  0  0
 22 54  1  0  0  0  0
 23 24  1  0  0  0  0
 23 55  1  0  0  0  0
 23 56  1  0  0  0  0
 24 25  1  0  0  0  0
 24 35  1  0  0  0  0
 25 26  1  0  0  0  0
 25 34  2  0  0  0  0
 26 27  2  0  0  0  0
 26 57  1  0  0  0  0
 27 28  1  0  0  0  0
 28 29  2  0  0  0  0
 28 58  1  0  0  0  0
 29 30  1  0  0  0  0
 29 34  1  0  0  0  0
 30 31  2  0  0  0  0
 30 59  1  0  0  0  0
 31 32  1  0  0  0  0
 31 60  1  0  0  0  0
 32 33  2  0  0  0  0
 32 61  1  0  0  0  0
 33 34  1  0  0  0  0
 33 62  1  0  0  0  0
 35 36  2  0  0  0  0
M  END
$$$$
