
 OpenBabel07202414183D

 35 37  0  0  0  0  0  0  0  0999 V2000
   -0.9347   -4.4957   -3.3026 Cl  0  0  0  0  0  0  0  0  0  0  0  0
    0.4930   -3.5636   -3.0806 C   0  0  0  0  0  0  0  0  0  0  0  0
    1.1071   -2.9575   -4.1685 C   0  0  0  0  0  0  0  0  0  0  0  0
    2.2485   -2.1807   -3.9697 C   0  0  0  0  0  0  0  0  0  0  0  0
    2.7807   -2.0181   -2.6851 C   0  0  0  0  0  0  0  0  0  0  0  0
    2.1847   -2.6465   -1.5830 C   0  0  0  0  0  0  0  0  0  0  0  0
    2.6582   -2.4532   -0.1598 C   0  0  0  0  0  0  0  0  0  0  0  0
    4.1227   -2.1246    0.0308 C   0  0  0  0  0  0  0  0  0  0  0  0
    4.4855   -0.9752    0.2771 O   0  0  0  0  0  0  0  0  0  0  0  0
    4.9812   -3.2042   -0.1183 N   0  0  0  0  0  0  0  0  0  0  0  0
    6.3743   -3.0428    0.0289 C   0  0  0  0  0  0  0  0  0  0  0  0
    6.9530   -2.3224    1.0775 C   0  0  0  0  0  0  0  0  0  0  0  0
    8.2905   -2.1030    1.2269 N   0  0  0  0  0  0  0  0  0  0  0  0
    9.0986   -2.5821    0.2574 C   0  0  0  0  0  0  0  0  0  0  0  0
    8.6123   -3.2909   -0.8166 C   0  0  0  0  0  0  0  0  0  0  0  0
    7.2431   -3.5587   -0.9116 C   0  0  0  0  0  0  0  0  0  0  0  0
    6.9518   -4.3479   -2.1489 C   0  0  0  0  0  0  0  0  0  0  0  0
    8.2104   -4.0708   -2.9823 C   0  0  0  0  0  0  0  0  0  0  0  0
    9.3576   -3.8326   -1.9898 C   0  0  0  0  0  0  0  0  0  0  0  0
    1.0210   -3.4071   -1.7955 C   0  0  0  0  0  0  0  0  0  0  0  0
    0.6933   -3.0688   -5.1673 H   0  0  0  0  0  0  0  0  0  0  0  0
    2.7144   -1.6825   -4.8176 H   0  0  0  0  0  0  0  0  0  0  0  0
    3.6487   -1.3719   -2.5612 H   0  0  0  0  0  0  0  0  0  0  0  0
    2.4444   -3.3526    0.4308 H   0  0  0  0  0  0  0  0  0  0  0  0
    2.0793   -1.6346    0.2854 H   0  0  0  0  0  0  0  0  0  0  0  0
    4.6608   -3.9435   -0.7318 H   0  0  0  0  0  0  0  0  0  0  0  0
    6.3441   -1.8983    1.8722 H   0  0  0  0  0  0  0  0  0  0  0  0
   10.1538   -2.3492    0.3677 H   0  0  0  0  0  0  0  0  0  0  0  0
    6.0540   -4.0024   -2.6678 H   0  0  0  0  0  0  0  0  0  0  0  0
    6.8594   -5.4112   -1.9050 H   0  0  0  0  0  0  0  0  0  0  0  0
    8.0504   -3.1580   -3.5741 H   0  0  0  0  0  0  0  0  0  0  0  0
    8.4298   -4.8766   -3.6887 H   0  0  0  0  0  0  0  0  0  0  0  0
   10.0768   -3.1105   -2.3906 H   0  0  0  0  0  0  0  0  0  0  0  0
    9.8641   -4.7645   -1.7276 H   0  0  0  0  0  0  0  0  0  0  0  0
    0.5151   -3.8709   -0.9560 H   0  0  0  0  0  0  0  0  0  0  0  0
  1  2  1  0  0  0  0
  2  3  1  0  0  0  0
  2 20  2  0  0  0  0
  3  4  2  0  0  0  0
  3 21  1  0  0  0  0
  4  5  1  0  0  0  0
  4 22  1  0  0  0  0
  5  6  2  0  0  0  0
  5 23  1  0  0  0  0
  6  7  1  0  0  0  0
  6 20  1  0  0  0  0
  7  8  1  0  0  0  0
  7 24  1  0  0  0  0
  7 25  1  0  0  0  0
  8  9  2  0  0  0  0
  8 10  1  0  0  0  0
 10 11  1  0  0  0  0
 10 26  1  0  0  0  0
 11 12  1  0  0  0  0
 11 16  2  0  0  0  0
 12 13  2  0  0  0  0
 12 27  1  0  0  0  0
 13 14  1  0  0  0  0
 14 15  2  0  0  0  0
 14 28  1  0  0  0  0
 15 16  1  0  0  0  0
 15 19  1  0  0  0  0
 16 17  1  0  0  0  0
 17 18  1  0  0  0  0
 17 29  1  0  0  0  0
 17 30  1  0  0  0  0
 18 19  1  0  0  0  0
 18 31  1  0  0  0  0
 18 32  1  0  0  0  0
 19 33  1  0  0  0  0
 19 34  1  0  0  0  0
 20 35  1  0  0  0  0
M  END
$$$$
