
 OpenBabel07202414193D

 65 69  0  0  1  0  0  0  0  0999 V2000
   -0.0774   -4.8125    3.0007 F   0  0  0  0  0  0  0  0  0  0  0  0
   -0.5027   -4.4640    1.7791 C   0  0  0  0  0  0  0  0  0  0  0  0
   -0.0435   -5.1596    0.6707 C   0  0  0  0  0  0  0  0  0  0  0  0
   -0.5005   -4.8058   -0.5960 C   0  0  0  0  0  0  0  0  0  0  0  0
   -1.4108   -3.7568   -0.7485 C   0  0  0  0  0  0  0  0  0  0  0  0
   -1.9005   -3.0685    0.3739 C   0  0  0  0  0  0  0  0  0  0  0  0
   -2.8746   -1.9182    0.2639 C   0  0  0  0  0  0  0  0  0  0  0  0
   -3.9198   -2.0061   -0.8589 C   0  0  0  0  0  0  0  0  0  0  0  0
   -4.7675   -3.1853   -0.8146 N   0  0  0  0  0  0  0  0  0  0  0  0
   -5.6463   -3.4091    0.2438 C   0  0  0  0  0  0  0  0  0  0  0  0
   -5.7046   -2.6264    1.1865 O   0  0  0  0  0  0  0  0  0  0  0  0
   -6.4995   -4.7073    0.1110 C   0  0  3  0  0  0  0  0  0  0  0  0
   -6.2660   -5.5715    1.3062 N   0  0  0  0  0  0  0  0  0  0  0  0
   -6.8717   -5.4911    2.5787 C   0  0  0  0  0  0  0  0  0  0  0  0
   -6.5718   -6.2902    3.4735 O   0  0  0  0  0  0  0  0  0  0  0  0
   -7.9779   -4.5614    2.8339 C   0  0  0  0  0  0  0  0  0  0  0  0
   -8.9997   -4.8008    3.7402 C   0  0  0  0  0  0  0  0  0  0  0  0
   -9.8323   -3.7218    3.6550 N   0  0  0  0  0  0  0  0  0  0  0  0
   -9.2978   -2.8656    2.7391 C   0  0  0  0  0  0  0  0  0  0  0  0
   -8.1888   -3.3441    2.2246 N   0  0  0  0  0  0  0  0  0  0  0  0
   -5.1031   -6.4114    1.2103 C   0  0  0  0  0  0  0  0  0  0  0  0
   -5.0804   -7.4759    0.3041 C   0  0  0  0  0  0  0  0  0  0  0  0
   -3.9844   -8.3453    0.2613 C   0  0  0  0  0  0  0  0  0  0  0  0
   -2.8704   -8.1465    1.0923 C   0  0  0  0  0  0  0  0  0  0  0  0
   -1.6985   -9.1008    1.0907 C   0  0  0  0  0  0  0  0  0  0  0  0
   -1.0455   -9.2052   -0.2110 N   0  0  0  0  0  0  0  0  0  0  0  0
   -1.3184  -10.1239   -1.1903 C   0  0  0  0  0  0  0  0  0  0  0  0
   -0.4133   -9.8929   -2.1985 C   0  0  0  0  0  0  0  0  0  0  0  0
    0.3865   -8.8392   -1.7235 C   0  0  0  0  0  0  0  0  0  0  0  0
    0.0170   -8.4254   -0.5095 N   0  0  0  0  0  0  0  0  0  0  0  0
   -2.8982   -7.0704    1.9886 C   0  0  0  0  0  0  0  0  0  0  0  0
   -4.0034   -6.2129    2.0508 C   0  0  0  0  0  0  0  0  0  0  0  0
   -7.9174   -4.4833   -0.4053 C   0  0  0  0  0  0  0  0  0  0  0  0
   -8.2026   -3.4506   -1.3177 C   0  0  0  0  0  0  0  0  0  0  0  0
   -9.4943   -3.2666   -1.8045 C   0  0  0  0  0  0  0  0  0  0  0  0
  -10.4814   -4.1339   -1.3783 C   0  0  0  0  0  0  0  0  0  0  0  0
  -10.2544   -5.1654   -0.5410 N   0  0  0  0  0  0  0  0  0  0  0  0
   -8.9844   -5.3194   -0.0863 C   0  0  0  0  0  0  0  0  0  0  0  0
   -1.4205   -3.4280    1.6433 C   0  0  0  0  0  0  0  0  0  0  0  0
    0.6526   -5.9829    0.7955 H   0  0  0  0  0  0  0  0  0  0  0  0
   -0.1491   -5.3561   -1.4653 H   0  0  0  0  0  0  0  0  0  0  0  0
   -1.7312   -3.4944   -1.7501 H   0  0  0  0  0  0  0  0  0  0  0  0
   -2.2922   -0.9987    0.1291 H   0  0  0  0  0  0  0  0  0  0  0  0
   -3.3967   -1.8085    1.2220 H   0  0  0  0  0  0  0  0  0  0  0  0
   -3.4411   -1.9902   -1.8438 H   0  0  0  0  0  0  0  0  0  0  0  0
   -4.5740   -1.1279   -0.8056 H   0  0  0  0  0  0  0  0  0  0  0  0
   -4.5434   -3.9524   -1.4367 H   0  0  0  0  0  0  0  0  0  0  0  0
   -6.0570   -5.2593   -0.7319 H   0  0  0  0  0  0  0  0  0  0  0  0
   -9.1973   -5.6378    4.3935 H   0  0  0  0  0  0  0  0  0  0  0  0
  -10.6917   -3.5818    4.1677 H   0  0  0  0  0  0  0  0  0  0  0  0
   -9.7564   -1.9216    2.4816 H   0  0  0  0  0  0  0  0  0  0  0  0
   -5.9399   -7.6790   -0.3279 H   0  0  0  0  0  0  0  0  0  0  0  0
   -4.0233   -9.1975   -0.4128 H   0  0  0  0  0  0  0  0  0  0  0  0
   -2.0321  -10.1056    1.3772 H   0  0  0  0  0  0  0  0  0  0  0  0
   -0.9268   -8.7975    1.8101 H   0  0  0  0  0  0  0  0  0  0  0  0
   -2.1170  -10.8448   -1.0879 H   0  0  0  0  0  0  0  0  0  0  0  0
   -0.3315  -10.4206   -3.1377 H   0  0  0  0  0  0  0  0  0  0  0  0
    1.2284   -8.3614   -2.2078 H   0  0  0  0  0  0  0  0  0  0  0  0
   -2.0592   -6.8883    2.6602 H   0  0  0  0  0  0  0  0  0  0  0  0
   -3.9922   -5.3885    2.7611 H   0  0  0  0  0  0  0  0  0  0  0  0
   -7.4267   -2.7665   -1.6526 H   0  0  0  0  0  0  0  0  0  0  0  0
   -9.7214   -2.4628   -2.4961 H   0  0  0  0  0  0  0  0  0  0  0  0
  -11.5077   -4.0216   -1.7145 H   0  0  0  0  0  0  0  0  0  0  0  0
   -8.8656   -6.1635    0.5868 H   0  0  0  0  0  0  0  0  0  0  0  0
   -1.7646   -2.9156    2.5376 H   0  0  0  0  0  0  0  0  0  0  0  0
  1  2  1  0  0  0  0
  2  3  1  0  0  0  0
  2 39  2  0  0  0  0
  3  4  2  0  0  0  0
  3 40  1  0  0  0  0
  4  5  1  0  0  0  0
  4 41  1  0  0  0  0
  5  6  2  0  0  0  0
  5 42  1  0  0  0  0
  6  7  1  0  0  0  0
  6 39  1  0  0  0  0
  7  8  1  0  0  0  0
  7 43  1  0  0  0  0
  7 44  1  0  0  0  0
  8  9  1  0  0  0  0
  8 45  1  0  0  0  0
  8 46  1  0  0  0  0
  9 10  1  0  0  0  0
  9 47  1  0  0  0  0
 10 11  2  0  0  0  0
 10 12  1  0  0  0  0
 12 13  1  0  0  0  0
 12 33  1  0  0  0  0
 12 48  1  0  0  0  0
 13 14  1  0  0  0  0
 13 21  1  0  0  0  0
 14 15  2  0  0  0  0
 14 16  1  0  0  0  0
 16 17  2  0  0  0  0
 16 20  1  0  0  0  0
 17 18  1  0  0  0  0
 17 49  1  0  0  0  0
 18 19  1  0  0  0  0
 18 50  1  0  0  0  0
 19 20  2  0  0  0  0
 19 51  1  0  0  0  0
 21 22  1  0  0  0  0
 21 32  2  0  0  0  0
 22 23  2  0  0  0  0
 22 52  1  0  0  0  0
 23 24  1  0  0  0  0
 23 53  1  0  0  0  0
 24 25  1  0  0  0  0
 24 31  2  0  0  0  0
 25 26  1  0  0  0  0
 25 54  1  0  0  0  0
 25 55  1  0  0  0  0
 26 27  1  0  0  0  0
 26 30  1  0  0  0  0
 27 28  2  0  0  0  0
 27 56  1  0  0  0  0
 28 29  1  0  0  0  0
 28 57  1  0  0  0  0
 29 30  2  0  0  0  0
 29 58  1  0  0  0  0
 31 32  1  0  0  0  0
 31 59  1  0  0  0  0
 32 60  1  0  0  0  0
 33 34  1  0  0  0  0
 33 38  2  0  0  0  0
 34 35  2  0  0  0  0
 34 61  1  0  0  0  0
 35 36  1  0  0  0  0
 35 62  1  0  0  0  0
 36 37  2  0  0  0  0
 36 63  1  0  0  0  0
 37 38  1  0  0  0  0
 38 64  1  0  0  0  0
 39 65  1  0  0  0  0
M  END
$$$$
