
 OpenBabel07202414193D

103109  0  0  1  0  0  0  0  0999 V2000
    0.9268   -0.4780    1.5783 O   0  0  0  0  0  0  0  0  0  0  0  0
    2.1421   -0.6762    1.5985 C   0  0  0  0  0  0  0  0  0  0  0  0
    2.7322   -2.0278    2.0702 C   0  0  0  0  0  0  0  0  0  0  0  0
    2.9622   -2.0322    3.5373 N   0  0  0  0  0  0  0  0  0  0  0  0
    1.6692   -1.8688    4.2348 C   0  0  0  0  0  0  0  0  0  0  0  0
    1.7746   -1.9927    5.7372 C   0  0  0  0  0  0  0  0  0  0  0  0
    0.7206   -1.4759    6.5160 C   0  0  0  0  0  0  0  0  0  0  0  0
    0.7782   -1.5515    7.9065 C   0  0  0  0  0  0  0  0  0  0  0  0
    1.8838   -2.1314    8.5207 C   0  0  0  0  0  0  0  0  0  0  0  0
    1.9711   -2.1831   10.2385 Cl  0  0  0  0  0  0  0  0  0  0  0  0
    2.9255   -2.6646    7.7580 C   0  0  0  0  0  0  0  0  0  0  0  0
    2.8687   -2.6318    6.3555 C   0  0  0  0  0  0  0  0  0  0  0  0
    4.0072   -3.1733    5.4984 C   0  0  1  0  0  0  0  0  0  0  0  0
    4.5837   -4.5167    6.0258 C   0  0  0  0  0  0  0  0  0  0  0  0
    3.9006   -5.5274    6.1391 O   0  0  0  0  0  0  0  0  0  0  0  0
    5.9298   -4.4252    6.3564 N   0  0  0  0  0  0  0  0  0  0  0  0
    6.7754   -5.3820    6.9927 C   0  0  0  0  0  0  0  0  0  0  0  0
    6.3167   -6.5892    7.5187 C   0  0  0  0  0  0  0  0  0  0  0  0
    7.0419   -7.3684    8.3600 N   0  0  0  0  0  0  0  0  0  0  0  0
    8.3142   -6.9959    8.5997 C   0  0  0  0  0  0  0  0  0  0  0  0
    8.9565   -5.9359    7.9505 C   0  0  0  0  0  0  0  0  0  0  0  0
   10.3434   -5.7478    8.0635 C   0  0  0  0  0  0  0  0  0  0  0  0
   10.9679   -4.6814    7.4093 C   0  0  0  0  0  0  0  0  0  0  0  0
   10.2027   -3.7767    6.6938 C   0  0  0  0  0  0  0  0  0  0  0  0
    8.8239   -3.9731    6.5669 C   0  0  0  0  0  0  0  0  0  0  0  0
    8.1569   -5.0747    7.1757 C   0  0  0  0  0  0  0  0  0  0  0  0
    3.5978   -3.2910    4.0038 C   0  0  0  0  0  0  0  0  0  0  0  0
    2.9655    0.3413    1.2192 N   0  0  0  0  0  0  0  0  0  0  0  0
    4.4126    0.3973    1.2918 C   0  0  0  0  0  0  0  0  0  0  0  0
    4.8994    0.8460    2.6649 C   0  0  0  0  0  0  0  0  0  0  0  0
    6.3219    0.7756    2.7031 O   0  0  0  0  0  0  0  0  0  0  0  0
    6.8203    1.2473    3.9599 C   0  0  0  0  0  0  0  0  0  0  0  0
    8.3414    1.2000    3.9428 C   0  0  0  0  0  0  0  0  0  0  0  0
    8.8019    2.1261    2.9670 O   0  0  0  0  0  0  0  0  0  0  0  0
   10.2132    2.0773    2.8037 C   0  0  0  0  0  0  0  0  0  0  0  0
   10.5448    3.0295    1.6809 C   0  0  0  0  0  0  0  0  0  0  0  0
   11.9548    3.1356    1.5051 O   0  0  0  0  0  0  0  0  0  0  0  0
   12.3128    4.1497    0.5564 C   0  0  0  0  0  0  0  0  0  0  0  0
   11.8529    5.5262    1.0468 C   0  0  0  0  0  0  0  0  0  0  0  0
   12.3782    6.6309    0.2654 N   0  0  0  0  0  0  0  0  0  0  0  0
   11.6651    7.8358    0.4069 C   0  0  0  0  0  0  0  0  0  0  0  0
   10.8706    8.1957    1.4956 C   0  0  0  0  0  0  0  0  0  0  0  0
    9.9509    9.2608    1.3891 C   0  0  0  0  0  0  0  0  0  0  0  0
    9.7016    9.8432    0.1360 C   0  0  0  0  0  0  0  0  0  0  0  0
   10.5421    9.4715   -0.8920 C   0  0  0  0  0  0  0  0  0  0  0  0
   11.6656    8.7440   -0.6231 C   0  0  0  0  0  0  0  0  0  0  0  0
   12.4043    8.6508   -1.8446 C   0  0  0  0  0  0  0  0  0  0  0  0
   13.6265    8.7154   -1.9321 O   0  0  0  0  0  0  0  0  0  0  0  0
   11.4922    8.6601   -2.8274 N   0  0  0  0  0  0  0  0  0  0  0  0
   11.9348    8.1895   -4.1364 C   0  0  2  0  0  0  0  0  0  0  0  0
   12.1392    9.2557   -5.1699 C   0  0  0  0  0  0  0  0  0  0  0  0
   10.8421    9.5657   -5.8733 C   0  0  0  0  0  0  0  0  0  0  0  0
   10.2690    8.3103   -6.4868 C   0  0  0  0  0  0  0  0  0  0  0  0
    9.7869    8.2871   -7.6137 O   0  0  0  0  0  0  0  0  0  0  0  0
   10.3322    7.1743   -5.7323 N   0  0  0  0  0  0  0  0  0  0  0  0
   11.1841    6.9456   -4.6742 C   0  0  0  0  0  0  0  0  0  0  0  0
   11.3530    5.8215   -4.2101 O   0  0  0  0  0  0  0  0  0  0  0  0
   10.3839    9.3539   -2.3733 C   0  0  0  0  0  0  0  0  0  0  0  0
    9.4085    9.7341   -2.9894 O   0  0  0  0  0  0  0  0  0  0  0  0
    3.6633   -2.2214    1.5316 H   0  0  0  0  0  0  0  0  0  0  0  0
    2.0296   -2.8145    1.7666 H   0  0  0  0  0  0  0  0  0  0  0  0
    0.9318   -2.6005    3.8790 H   0  0  0  0  0  0  0  0  0  0  0  0
    1.2845   -0.8624    4.0322 H   0  0  0  0  0  0  0  0  0  0  0  0
   -0.1359   -1.0163    6.0408 H   0  0  0  0  0  0  0  0  0  0  0  0
   -0.0386   -1.1484    8.4993 H   0  0  0  0  0  0  0  0  0  0  0  0
    3.7766   -3.1082    8.2685 H   0  0  0  0  0  0  0  0  0  0  0  0
    4.7966   -2.4106    5.5512 H   0  0  0  0  0  0  0  0  0  0  0  0
    6.3439   -3.5051    6.2639 H   0  0  0  0  0  0  0  0  0  0  0  0
    5.3275   -6.9783    7.3168 H   0  0  0  0  0  0  0  0  0  0  0  0
    8.8301   -7.5873    9.3563 H   0  0  0  0  0  0  0  0  0  0  0  0
   10.9630   -6.4574    8.6150 H   0  0  0  0  0  0  0  0  0  0  0  0
   12.0498   -4.5718    7.4602 H   0  0  0  0  0  0  0  0  0  0  0  0
   10.6825   -2.9410    6.1943 H   0  0  0  0  0  0  0  0  0  0  0  0
    8.2922   -3.2635    5.9465 H   0  0  0  0  0  0  0  0  0  0  0  0
    2.9301   -4.1484    3.8425 H   0  0  0  0  0  0  0  0  0  0  0  0
    4.5058   -3.4827    3.4173 H   0  0  0  0  0  0  0  0  0  0  0  0
    2.4701    1.2078    1.0317 H   0  0  0  0  0  0  0  0  0  0  0  0
    4.7528    1.1026    0.5263 H   0  0  0  0  0  0  0  0  0  0  0  0
    4.8417   -0.5728    1.0274 H   0  0  0  0  0  0  0  0  0  0  0  0
    4.4942    0.2045    3.4502 H   0  0  0  0  0  0  0  0  0  0  0  0
    4.5696    1.8748    2.8530 H   0  0  0  0  0  0  0  0  0  0  0  0
    6.4400    0.6036    4.7590 H   0  0  0  0  0  0  0  0  0  0  0  0
    6.4790    2.2774    4.1160 H   0  0  0  0  0  0  0  0  0  0  0  0
    8.6864    0.1949    3.6784 H   0  0  0  0  0  0  0  0  0  0  0  0
    8.7373    1.4873    4.9221 H   0  0  0  0  0  0  0  0  0  0  0  0
   10.5519    1.0646    2.5559 H   0  0  0  0  0  0  0  0  0  0  0  0
   10.7057    2.3930    3.7306 H   0  0  0  0  0  0  0  0  0  0  0  0
   10.1033    3.9947    1.9651 H   0  0  0  0  0  0  0  0  0  0  0  0
   10.0688    2.7211    0.7438 H   0  0  0  0  0  0  0  0  0  0  0  0
   11.8855    3.9017   -0.4246 H   0  0  0  0  0  0  0  0  0  0  0  0
   13.4021    4.1276    0.4462 H   0  0  0  0  0  0  0  0  0  0  0  0
   12.1529    5.6503    2.0915 H   0  0  0  0  0  0  0  0  0  0  0  0
   10.7592    5.5545    0.9931 H   0  0  0  0  0  0  0  0  0  0  0  0
   12.4423    6.3715   -0.7252 H   0  0  0  0  0  0  0  0  0  0  0  0
   10.8834    7.6101    2.4119 H   0  0  0  0  0  0  0  0  0  0  0  0
    9.3560    9.5338    2.2585 H   0  0  0  0  0  0  0  0  0  0  0  0
    8.8643   10.5170   -0.0075 H   0  0  0  0  0  0  0  0  0  0  0  0
   12.9235    7.7592   -3.9684 H   0  0  0  0  0  0  0  0  0  0  0  0
   12.8565    8.8724   -5.9107 H   0  0  0  0  0  0  0  0  0  0  0  0
   12.5791   10.1499   -4.7226 H   0  0  0  0  0  0  0  0  0  0  0  0
   11.0227   10.3040   -6.6631 H   0  0  0  0  0  0  0  0  0  0  0  0
   10.0909    9.9832   -5.2006 H   0  0  0  0  0  0  0  0  0  0  0  0
    9.9543    6.3520   -6.1565 H   0  0  0  0  0  0  0  0  0  0  0  0
  1  2  2  0  0  0  0
  2  3  1  0  0  0  0
  2 28  1  0  0  0  0
  3  4  1  0  0  0  0
  3 60  1  0  0  0  0
  3 61  1  0  0  0  0
  4  5  1  0  0  0  0
  4 27  1  0  0  0  0
  5  6  1  0  0  0  0
  5 62  1  0  0  0  0
  5 63  1  0  0  0  0
  6  7  1  0  0  0  0
  6 12  2  0  0  0  0
  7  8  2  0  0  0  0
  7 64  1  0  0  0  0
  8  9  1  0  0  0  0
  8 65  1  0  0  0  0
  9 10  1  0  0  0  0
  9 11  2  0  0  0  0
 11 12  1  0  0  0  0
 11 66  1  0  0  0  0
 12 13  1  0  0  0  0
 13 27  1  0  0  0  0
 13 14  1  0  0  0  0
 13 67  1  1  0  0  0
 14 15  2  0  0  0  0
 14 16  1  0  0  0  0
 16 17  1  0  0  0  0
 16 68  1  0  0  0  0
 17 18  1  0  0  0  0
 17 26  2  0  0  0  0
 18 19  2  0  0  0  0
 18 69  1  0  0  0  0
 19 20  1  0  0  0  0
 20 21  2  0  0  0  0
 20 70  1  0  0  0  0
 21 22  1  0  0  0  0
 21 26  1  0  0  0  0
 22 23  2  0  0  0  0
 22 71  1  0  0  0  0
 23 24  1  0  0  0  0
 23 72  1  0  0  0  0
 24 25  2  0  0  0  0
 24 73  1  0  0  0  0
 25 26  1  0  0  0  0
 25 74  1  0  0  0  0
 27 75  1  0  0  0  0
 27 76  1  0  0  0  0
 28 29  1  0  0  0  0
 28 77  1  0  0  0  0
 29 30  1  0  0  0  0
 29 78  1  0  0  0  0
 29 79  1  0  0  0  0
 30 31  1  0  0  0  0
 30 80  1  0  0  0  0
 30 81  1  0  0  0  0
 31 32  1  0  0  0  0
 32 33  1  0  0  0  0
 32 82  1  0  0  0  0
 32 83  1  0  0  0  0
 33 34  1  0  0  0  0
 33 84  1  0  0  0  0
 33 85  1  0  0  0  0
 34 35  1  0  0  0  0
 35 36  1  0  0  0  0
 35 86  1  0  0  0  0
 35 87  1  0  0  0  0
 36 37  1  0  0  0  0
 36 88  1  0  0  0  0
 36 89  1  0  0  0  0
 37 38  1  0  0  0  0
 38 39  1  0  0  0  0
 38 90  1  0  0  0  0
 38 91  1  0  0  0  0
 39 40  1  0  0  0  0
 39 92  1  0  0  0  0
 39 93  1  0  0  0  0
 40 41  1  0  0  0  0
 40 94  1  0  0  0  0
 41 42  1  0  0  0  0
 41 46  2  0  0  0  0
 42 43  2  0  0  0  0
 42 95  1  0  0  0  0
 43 44  1  0  0  0  0
 43 96  1  0  0  0  0
 44 45  2  0  0  0  0
 44 97  1  0  0  0  0
 45 46  1  0  0  0  0
 45 58  1  0  0  0  0
 46 47  1  0  0  0  0
 47 48  2  0  0  0  0
 47 49  1  0  0  0  0
 49 50  1  0  0  0  0
 49 58  1  0  0  0  0
 50 51  1  0  0  0  0
 50 56  1  0  0  0  0
 50 98  1  1  0  0  0
 51 52  1  0  0  0  0
 51 99  1  0  0  0  0
 51100  1  0  0  0  0
 52 53  1  0  0  0  0
 52101  1  0  0  0  0
 52102  1  0  0  0  0
 53 54  2  0  0  0  0
 53 55  1  0  0  0  0
 55 56  1  0  0  0  0
 55103  1  0  0  0  0
 56 57  2  0  0  0  0
 58 59  2  0  0  0  0
M  END
$$$$
