
 OpenBabel07202414123D

 55 57  0  0  0  0  0  0  0  0999 V2000
    2.8891    2.4570   -1.6772 C   0  0  0  0  0  0  0  0  0  0  0  0
    2.4618    1.2799   -0.8003 C   0  0  0  0  0  0  0  0  0  0  0  0
    2.8100   -0.0397   -1.4943 C   0  0  0  0  0  0  0  0  0  0  0  0
    3.0056    1.3787    0.6476 C   0  0  0  0  0  0  0  0  0  0  0  0
    4.4699    1.3850    0.7540 N   0  0  0  0  0  0  0  0  0  0  0  0
    5.1230    0.1736    0.7893 C   0  0  0  0  0  0  0  0  0  0  0  0
    6.4574    0.0182    0.6863 C   0  0  0  0  0  0  0  0  0  0  0  0
    7.2813    1.2514    0.6036 C   0  0  0  0  0  0  0  0  0  0  0  0
    8.6743    1.2463    0.4199 C   0  0  0  0  0  0  0  0  0  0  0  0
    9.3933    2.4445    0.2922 C   0  0  0  0  0  0  0  0  0  0  0  0
    8.7424    3.6723    0.3597 C   0  0  0  0  0  0  0  0  0  0  0  0
    7.3636    3.7052    0.5399 C   0  0  0  0  0  0  0  0  0  0  0  0
    6.6392    2.5073    0.6452 C   0  0  0  0  0  0  0  0  0  0  0  0
    5.1558    2.5924    0.7276 C   0  0  0  0  0  0  0  0  0  0  0  0
    4.6089    3.6927    0.7419 O   0  0  0  0  0  0  0  0  0  0  0  0
    7.0277   -1.2468    0.6300 N   0  0  0  0  0  0  0  0  0  0  0  0
    6.3704   -2.3708    0.1590 C   0  0  0  0  0  0  0  0  0  0  0  0
    5.2536   -2.3850   -0.3426 O   0  0  0  0  0  0  0  0  0  0  0  0
    7.0773   -3.5329    0.3253 N   0  0  0  0  0  0  0  0  0  0  0  0
    6.4853   -4.7878   -0.1033 C   0  0  0  0  0  0  0  0  0  0  0  0
    6.6968   -5.1049   -1.5947 C   0  0  0  0  0  0  0  0  0  0  0  0
    8.0522   -5.4023   -2.0422 N   0  0  0  0  0  0  0  0  0  0  0  0
    8.8495   -6.3625   -1.2871 C   0  0  0  0  0  0  0  0  0  0  0  0
    9.9874   -5.7345   -0.4658 C   0  0  0  0  0  0  0  0  0  0  0  0
   10.7746   -4.8238   -1.2417 O   0  0  0  0  0  0  0  0  0  0  0  0
    9.9610   -3.7793   -1.7844 C   0  0  0  0  0  0  0  0  0  0  0  0
    8.8280   -4.3316   -2.6589 C   0  0  0  0  0  0  0  0  0  0  0  0
    2.3986    2.4071   -2.6554 H   0  0  0  0  0  0  0  0  0  0  0  0
    3.9695    2.4611   -1.8533 H   0  0  0  0  0  0  0  0  0  0  0  0
    2.6081    3.4084   -1.2148 H   0  0  0  0  0  0  0  0  0  0  0  0
    1.3671    1.3160   -0.7223 H   0  0  0  0  0  0  0  0  0  0  0  0
    3.8834   -0.1298   -1.6878 H   0  0  0  0  0  0  0  0  0  0  0  0
    2.3020   -0.1100   -2.4627 H   0  0  0  0  0  0  0  0  0  0  0  0
    2.4915   -0.8965   -0.8919 H   0  0  0  0  0  0  0  0  0  0  0  0
    2.6135    0.5462    1.2463 H   0  0  0  0  0  0  0  0  0  0  0  0
    2.6191    2.2947    1.1092 H   0  0  0  0  0  0  0  0  0  0  0  0
    4.4662   -0.6828    0.8949 H   0  0  0  0  0  0  0  0  0  0  0  0
    9.2346    0.3201    0.3427 H   0  0  0  0  0  0  0  0  0  0  0  0
   10.4687    2.4201    0.1257 H   0  0  0  0  0  0  0  0  0  0  0  0
    9.2974    4.6012    0.2543 H   0  0  0  0  0  0  0  0  0  0  0  0
    6.8481    4.6630    0.5729 H   0  0  0  0  0  0  0  0  0  0  0  0
    8.0200   -1.3281    0.7763 H   0  0  0  0  0  0  0  0  0  0  0  0
    8.0772   -3.4962    0.4406 H   0  0  0  0  0  0  0  0  0  0  0  0
    5.4027   -4.7479    0.0839 H   0  0  0  0  0  0  0  0  0  0  0  0
    6.8791   -5.5797    0.5377 H   0  0  0  0  0  0  0  0  0  0  0  0
    6.2596   -4.3087   -2.2117 H   0  0  0  0  0  0  0  0  0  0  0  0
    6.0918   -5.9928   -1.8225 H   0  0  0  0  0  0  0  0  0  0  0  0
    9.3015   -7.0402   -2.0211 H   0  0  0  0  0  0  0  0  0  0  0  0
    8.2291   -6.9960   -0.6421 H   0  0  0  0  0  0  0  0  0  0  0  0
   10.6592   -6.5243   -0.1128 H   0  0  0  0  0  0  0  0  0  0  0  0
    9.6071   -5.2111    0.4178 H   0  0  0  0  0  0  0  0  0  0  0  0
   10.6106   -3.1380   -2.3894 H   0  0  0  0  0  0  0  0  0  0  0  0
    9.5790   -3.1634   -0.9656 H   0  0  0  0  0  0  0  0  0  0  0  0
    9.2869   -4.7636   -3.5573 H   0  0  0  0  0  0  0  0  0  0  0  0
    8.1944   -3.5093   -3.0103 H   0  0  0  0  0  0  0  0  0  0  0  0
  1  2  1  0  0  0  0
  1 28  1  0  0  0  0
  1 29  1  0  0  0  0
  1 30  1  0  0  0  0
  2  3  1  0  0  0  0
  2  4  1  0  0  0  0
  2 31  1  0  0  0  0
  3 32  1  0  0  0  0
  3 33  1  0  0  0  0
  3 34  1  0  0  0  0
  4  5  1  0  0  0  0
  4 35  1  0  0  0  0
  4 36  1  0  0  0  0
  5  6  1  0  0  0  0
  5 14  1  0  0  0  0
  6  7  2  0  0  0  0
  6 37  1  0  0  0  0
  7  8  1  0  0  0  0
  7 16  1  0  0  0  0
  8  9  1  0  0  0  0
  8 13  2  0  0  0  0
  9 10  2  0  0  0  0
  9 38  1  0  0  0  0
 10 11  1  0  0  0  0
 10 39  1  0  0  0  0
 11 12  2  0  0  0  0
 11 40  1  0  0  0  0
 12 13  1  0  0  0  0
 12 41  1  0  0  0  0
 13 14  1  0  0  0  0
 14 15  2  0  0  0  0
 16 17  1  0  0  0  0
 16 42  1  0  0  0  0
 17 18  2  0  0  0  0
 17 19  1  0  0  0  0
 19 20  1  0  0  0  0
 19 43  1  0  0  0  0
 20 21  1  0  0  0  0
 20 44  1  0  0  0  0
 20 45  1  0  0  0  0
 21 22  1  0  0  0  0
 21 46  1  0  0  0  0
 21 47  1  0  0  0  0
 22 23  1  0  0  0  0
 22 27  1  0  0  0  0
 23 24  1  0  0  0  0
 23 48  1  0  0  0  0
 23 49  1  0  0  0  0
 24 25  1  0  0  0  0
 24 50  1  0  0  0  0
 24 51  1  0  0  0  0
 25 26  1  0  0  0  0
 26 27  1  0  0  0  0
 26 52  1  0  0  0  0
 26 53  1  0  0  0  0
 27 54  1  0  0  0  0
 27 55  1  0  0  0  0
M  END
$$$$
