
 OpenBabel07202414123D

 65 69  0  0  0  0  0  0  0  0999 V2000
    2.0790    6.3616    7.5853 C   0  0  0  0  0  0  0  0  0  0  0  0
    3.0579    6.5143    6.4087 C   0  0  0  0  0  0  0  0  0  0  0  0
    2.6332    7.7419    5.5690 C   0  0  0  0  0  0  0  0  0  0  0  0
    4.4674    6.8108    6.9716 C   0  0  0  0  0  0  0  0  0  0  0  0
    3.0633    5.2427    5.5750 C   0  0  0  0  0  0  0  0  0  0  0  0
    2.2394    5.0940    4.5273 N   0  0  0  0  0  0  0  0  0  0  0  0
    2.4605    3.8283    4.0817 N   0  0  0  0  0  0  0  0  0  0  0  0
    1.5884    3.2411    3.1232 C   0  0  0  0  0  0  0  0  0  0  0  0
    0.9004    4.0604    2.2184 C   0  0  0  0  0  0  0  0  0  0  0  0
    0.0733    3.4848    1.2539 C   0  0  0  0  0  0  0  0  0  0  0  0
   -0.1031    2.1013    1.2129 C   0  0  0  0  0  0  0  0  0  0  0  0
    0.5449    1.2871    2.1412 C   0  0  0  0  0  0  0  0  0  0  0  0
    1.3931    1.8530    3.0923 C   0  0  0  0  0  0  0  0  0  0  0  0
    3.5648    3.2510    4.7096 C   0  0  0  0  0  0  0  0  0  0  0  0
    4.1911    2.1285    4.2664 N   0  0  0  0  0  0  0  0  0  0  0  0
    4.8225    1.1520    5.0665 C   0  0  0  0  0  0  0  0  0  0  0  0
    5.8863    0.4081    4.5442 C   0  0  0  0  0  0  0  0  0  0  0  0
    6.5865   -0.5450    5.3242 C   0  0  0  0  0  0  0  0  0  0  0  0
    7.7024   -1.3512    4.6791 C   0  0  0  0  0  0  0  0  0  0  0  0
    8.7982   -1.8789    5.6064 C   0  0  0  0  0  0  0  0  0  0  0  0
    8.7966   -3.0366    5.9977 O   0  0  0  0  0  0  0  0  0  0  0  0
    9.7190   -0.9095    5.9508 N   0  0  0  0  0  0  0  0  0  0  0  0
   10.7789   -1.1833    6.8520 C   0  0  0  0  0  0  0  0  0  0  0  0
   10.8299   -0.4414    8.0313 C   0  0  0  0  0  0  0  0  0  0  0  0
   11.7364   -0.6430    9.0079 N   0  0  0  0  0  0  0  0  0  0  0  0
   12.7656   -1.4423    8.6809 C   0  0  0  0  0  0  0  0  0  0  0  0
   12.9849   -1.9349    7.3948 C   0  0  0  0  0  0  0  0  0  0  0  0
   14.2709   -2.2892    6.9559 C   0  0  0  0  0  0  0  0  0  0  0  0
   14.4518   -2.8877    5.7148 C   0  0  0  0  0  0  0  0  0  0  0  0
   13.3296   -3.2649    4.9832 C   0  0  0  0  0  0  0  0  0  0  0  0
   12.0632   -2.8199    5.3765 C   0  0  0  0  0  0  0  0  0  0  0  0
   11.8903   -2.0085    6.5238 C   0  0  0  0  0  0  0  0  0  0  0  0
    6.1621   -0.7601    6.6195 C   0  0  0  0  0  0  0  0  0  0  0  0
    5.1106   -0.0200    7.1570 C   0  0  0  0  0  0  0  0  0  0  0  0
    4.5897   -0.3174    8.7730 Cl  0  0  0  0  0  0  0  0  0  0  0  0
    4.4460    0.9441    6.3959 C   0  0  0  0  0  0  0  0  0  0  0  0
    3.8922    4.1065    5.7386 C   0  0  0  0  0  0  0  0  0  0  0  0
    2.0438    7.2719    8.1950 H   0  0  0  0  0  0  0  0  0  0  0  0
    2.3706    5.5322    8.2405 H   0  0  0  0  0  0  0  0  0  0  0  0
    1.0616    6.1573    7.2318 H   0  0  0  0  0  0  0  0  0  0  0  0
    2.6417    8.6572    6.1724 H   0  0  0  0  0  0  0  0  0  0  0  0
    1.6194    7.6263    5.1682 H   0  0  0  0  0  0  0  0  0  0  0  0
    3.3098    7.8955    4.7198 H   0  0  0  0  0  0  0  0  0  0  0  0
    4.4767    7.7348    7.5604 H   0  0  0  0  0  0  0  0  0  0  0  0
    5.2012    6.9210    6.1641 H   0  0  0  0  0  0  0  0  0  0  0  0
    4.8181    6.0065    7.6289 H   0  0  0  0  0  0  0  0  0  0  0  0
    1.0256    5.1414    2.2403 H   0  0  0  0  0  0  0  0  0  0  0  0
   -0.4355    4.1172    0.5305 H   0  0  0  0  0  0  0  0  0  0  0  0
   -0.7544    1.6577    0.4646 H   0  0  0  0  0  0  0  0  0  0  0  0
    0.3797    0.2127    2.1309 H   0  0  0  0  0  0  0  0  0  0  0  0
    1.8398    1.1982    3.8372 H   0  0  0  0  0  0  0  0  0  0  0  0
    4.1263    1.8670    3.2829 H   0  0  0  0  0  0  0  0  0  0  0  0
    6.1959    0.5792    3.5116 H   0  0  0  0  0  0  0  0  0  0  0  0
    8.2041   -0.7324    3.9225 H   0  0  0  0  0  0  0  0  0  0  0  0
    7.2634   -2.2036    4.1476 H   0  0  0  0  0  0  0  0  0  0  0  0
    9.3044    0.0124    6.0455 H   0  0  0  0  0  0  0  0  0  0  0  0
   10.1113    0.3422    8.2469 H   0  0  0  0  0  0  0  0  0  0  0  0
   13.4268   -1.7122    9.5027 H   0  0  0  0  0  0  0  0  0  0  0  0
   15.1456   -1.9967    7.5384 H   0  0  0  0  0  0  0  0  0  0  0  0
   15.4527   -3.0747    5.3344 H   0  0  0  0  0  0  0  0  0  0  0  0
   13.4526   -3.8683    4.0869 H   0  0  0  0  0  0  0  0  0  0  0  0
   11.2041   -3.1043    4.7691 H   0  0  0  0  0  0  0  0  0  0  0  0
    6.6243   -1.5353    7.2502 H   0  0  0  0  0  0  0  0  0  0  0  0
    3.6065    1.4749    6.8307 H   0  0  0  0  0  0  0  0  0  0  0  0
    4.6954    3.9725    6.4443 H   0  0  0  0  0  0  0  0  0  0  0  0
  1  2  1  0  0  0  0
  1 38  1  0  0  0  0
  1 39  1  0  0  0  0
  1 40  1  0  0  0  0
  2  3  1  0  0  0  0
  2  4  1  0  0  0  0
  2  5  1  0  0  0  0
  3 41  1  0  0  0  0
  3 42  1  0  0  0  0
  3 43  1  0  0  0  0
  4 44  1  0  0  0  0
  4 45  1  0  0  0  0
  4 46  1  0  0  0  0
  5  6  2  0  0  0  0
  5 37  1  0  0  0  0
  6  7  1  0  0  0  0
  7  8  1  0  0  0  0
  7 14  1  0  0  0  0
  8  9  2  0  0  0  0
  8 13  1  0  0  0  0
  9 10  1  0  0  0  0
  9 47  1  0  0  0  0
 10 11  2  0  0  0  0
 10 48  1  0  0  0  0
 11 12  1  0  0  0  0
 11 49  1  0  0  0  0
 12 13  2  0  0  0  0
 12 50  1  0  0  0  0
 13 51  1  0  0  0  0
 14 15  1  0  0  0  0
 14 37  2  0  0  0  0
 15 16  1  0  0  0  0
 15 52  1  0  0  0  0
 16 17  2  0  0  0  0
 16 36  1  0  0  0  0
 17 18  1  0  0  0  0
 17 53  1  0  0  0  0
 18 19  1  0  0  0  0
 18 33  2  0  0  0  0
 19 20  1  0  0  0  0
 19 54  1  0  0  0  0
 19 55  1  0  0  0  0
 20 21  2  0  0  0  0
 20 22  1  0  0  0  0
 22 23  1  0  0  0  0
 22 56  1  0  0  0  0
 23 24  2  0  0  0  0
 23 32  1  0  0  0  0
 24 25  1  0  0  0  0
 24 57  1  0  0  0  0
 25 26  2  0  0  0  0
 26 27  1  0  0  0  0
 26 58  1  0  0  0  0
 27 28  2  0  0  0  0
 27 32  1  0  0  0  0
 28 29  1  0  0  0  0
 28 59  1  0  0  0  0
 29 30  2  0  0  0  0
 29 60  1  0  0  0  0
 30 31  1  0  0  0  0
 30 61  1  0  0  0  0
 31 32  2  0  0  0  0
 31 62  1  0  0  0  0
 33 34  1  0  0  0  0
 33 63  1  0  0  0  0
 34 35  1  0  0  0  0
 34 36  2  0  0  0  0
 36 64  1  0  0  0  0
 37 65  1  0  0  0  0
M  END
$$$$
