
 OpenBabel07202414193D

 44 47  0  0  1  0  0  0  0  0999 V2000
    1.5143    0.7166   -0.5139 N   0  0  0  0  0  0  0  0  0  0  0  0
    2.5147   -0.0455   -0.0043 C   0  0  0  0  0  0  0  0  0  0  0  0
    2.7846    0.0485    1.1891 O   0  0  0  0  0  0  0  0  0  0  0  0
    3.1618   -0.8685   -0.8921 N   0  0  0  0  0  0  0  0  0  0  0  0
    2.9369   -0.9007   -2.3332 C   0  0  0  0  0  0  0  0  0  0  0  0
    4.1320   -0.3030   -3.0792 C   0  0  3  0  0  0  0  0  0  0  0  0
    4.2559    1.2186   -2.8673 C   0  0  0  0  0  0  0  0  0  0  0  0
    5.2264    1.7294   -2.3176 O   0  0  0  0  0  0  0  0  0  0  0  0
    3.2022    1.9280   -3.4302 N   0  0  0  0  0  0  0  0  0  0  0  0
    3.1189    3.3336   -3.6300 C   0  0  0  0  0  0  0  0  0  0  0  0
    4.1605    4.2061   -3.3058 C   0  0  0  0  0  0  0  0  0  0  0  0
    4.1992    5.5123   -3.6531 N   0  0  0  0  0  0  0  0  0  0  0  0
    3.1240    5.9986   -4.2999 C   0  0  0  0  0  0  0  0  0  0  0  0
    1.9662    5.2681   -4.5621 C   0  0  0  0  0  0  0  0  0  0  0  0
    0.8366    5.8893   -5.1232 C   0  0  0  0  0  0  0  0  0  0  0  0
   -0.3323    5.1690   -5.3519 C   0  0  0  0  0  0  0  0  0  0  0  0
   -0.3682    3.8125   -5.0666 C   0  0  0  0  0  0  0  0  0  0  0  0
    0.7561    3.1813   -4.5229 C   0  0  0  0  0  0  0  0  0  0  0  0
    1.9557    3.8916   -4.2399 C   0  0  0  0  0  0  0  0  0  0  0  0
    5.3900   -1.0521   -2.6741 C   0  0  0  0  0  0  0  0  0  0  0  0
    6.4721   -1.1331   -3.5646 C   0  0  0  0  0  0  0  0  0  0  0  0
    7.6423   -1.7832   -3.1822 C   0  0  0  0  0  0  0  0  0  0  0  0
    8.9524   -1.9003   -4.2916 Cl  0  0  0  0  0  0  0  0  0  0  0  0
    7.7550   -2.3438   -1.9132 C   0  0  0  0  0  0  0  0  0  0  0  0
    6.6802   -2.2747   -1.0232 C   0  0  0  0  0  0  0  0  0  0  0  0
    5.4851   -1.6377   -1.3935 C   0  0  0  0  0  0  0  0  0  0  0  0
    4.3198   -1.6273   -0.4181 C   0  0  0  0  0  0  0  0  0  0  0  0
    1.0876    1.2825    0.2107 H   0  0  0  0  0  0  0  0  0  0  0  0
    0.8288    0.2347   -1.0739 H   0  0  0  0  0  0  0  0  0  0  0  0
    2.0087   -0.3969   -2.6104 H   0  0  0  0  0  0  0  0  0  0  0  0
    2.8067   -1.9558   -2.6111 H   0  0  0  0  0  0  0  0  0  0  0  0
    3.9709   -0.4629   -4.1541 H   0  0  0  0  0  0  0  0  0  0  0  0
    2.4449    1.3863   -3.8128 H   0  0  0  0  0  0  0  0  0  0  0  0
    5.0401    3.8917   -2.7545 H   0  0  0  0  0  0  0  0  0  0  0  0
    3.2164    7.0386   -4.5996 H   0  0  0  0  0  0  0  0  0  0  0  0
    0.8520    6.9529   -5.3535 H   0  0  0  0  0  0  0  0  0  0  0  0
   -1.2136    5.6702   -5.7403 H   0  0  0  0  0  0  0  0  0  0  0  0
   -1.2784    3.2449   -5.2411 H   0  0  0  0  0  0  0  0  0  0  0  0
    0.6599    2.1239   -4.2977 H   0  0  0  0  0  0  0  0  0  0  0  0
    6.4056   -0.6813   -4.5514 H   0  0  0  0  0  0  0  0  0  0  0  0
    8.6758   -2.8350   -1.6105 H   0  0  0  0  0  0  0  0  0  0  0  0
    6.7825   -2.7173   -0.0342 H   0  0  0  0  0  0  0  0  0  0  0  0
    4.6613   -1.2492    0.5514 H   0  0  0  0  0  0  0  0  0  0  0  0
    3.9767   -2.6604   -0.2819 H   0  0  0  0  0  0  0  0  0  0  0  0
  1  2  1  0  0  0  0
  1 28  1  0  0  0  0
  1 29  1  0  0  0  0
  2  3  2  0  0  0  0
  2  4  1  0  0  0  0
  4  5  1  0  0  0  0
  4 27  1  0  0  0  0
  5  6  1  0  0  0  0
  5 30  1  0  0  0  0
  5 31  1  0  0  0  0
  6  7  1  0  0  0  0
  6 20  1  0  0  0  0
  6 32  1  0  0  0  0
  7  8  2  0  0  0  0
  7  9  1  0  0  0  0
  9 10  1  0  0  0  0
  9 33  1  0  0  0  0
 10 11  1  0  0  0  0
 10 19  2  0  0  0  0
 11 12  2  0  0  0  0
 11 34  1  0  0  0  0
 12 13  1  0  0  0  0
 13 14  2  0  0  0  0
 13 35  1  0  0  0  0
 14 15  1  0  0  0  0
 14 19  1  0  0  0  0
 15 16  2  0  0  0  0
 15 36  1  0  0  0  0
 16 17  1  0  0  0  0
 16 37  1  0  0  0  0
 17 18  2  0  0  0  0
 17 38  1  0  0  0  0
 18 19  1  0  0  0  0
 18 39  1  0  0  0  0
 20 21  1  0  0  0  0
 20 26  2  0  0  0  0
 21 22  2  0  0  0  0
 21 40  1  0  0  0  0
 22 23  1  0  0  0  0
 22 24  1  0  0  0  0
 24 25  2  0  0  0  0
 24 41  1  0  0  0  0
 25 26  1  0  0  0  0
 25 42  1  0  0  0  0
 26 27  1  0  0  0  0
 27 43  1  0  0  0  0
 27 44  1  0  0  0  0
M  END
$$$$
