
 OpenBabel07202414203D

 11 11  0  0  0  0  0  0  0  0999 V2000
   -0.6283    1.1668   -0.0004 C   0  0  0  0  0  0  0  0  0  0  0  0
   -1.3608    0.0009   -0.0015 C   0  0  0  0  0  0  0  0  0  0  0  0
   -0.6283   -1.1651   -0.0002 C   0  0  0  0  0  0  0  0  0  0  0  0
    0.7235   -1.1987    0.0005 N   0  0  0  0  0  0  0  0  0  0  0  0
    1.3421    0.0010    0.0002 C   0  0  0  0  0  0  0  0  0  0  0  0
    0.7234    1.2004    0.0003 N   0  0  0  0  0  0  0  0  0  0  0  0
    2.7830    0.0020   -0.0010 C   0  0  0  0  0  0  0  0  0  0  0  0
    3.9470    0.0038   -0.0021 N   0  0  0  0  0  0  0  0  0  0  0  0
   -3.2376    0.0013   -0.0058 Br  0  0  0  0  0  0  0  0  0  0  0  0
   -1.1108    2.1407   -0.0001 H   0  0  0  0  0  0  0  0  0  0  0  0
   -1.1112   -2.1389    0.0002 H   0  0  0  0  0  0  0  0  0  0  0  0
  1  2  1  0  0  0  0
  1  6  2  0  0  0  0
  1 10  1  0  0  0  0
  2  3  2  0  0  0  0
  2  9  1  0  0  0  0
  3  4  1  0  0  0  0
  3 11  1  0  0  0  0
  4  5  2  0  0  0  0
  5  6  1  0  0  0  0
  5  7  1  0  0  0  0
  7  8  3  0  0  0  0
M  END
$$$$
