
 OpenBabel07202414123D

 37 38  0  0  0  0  0  0  0  0999 V2000
    0.9298    0.6897    0.4089 C   0  0  0  0  0  0  0  0  0  0  0  0
    2.1009   -0.2556    0.1314 C   0  0  0  0  0  0  0  0  0  0  0  0
    3.0743    0.3011   -0.9076 C   0  0  0  0  0  0  0  0  0  0  0  0
    2.7915   -0.7727    1.3886 C   0  0  0  0  0  0  0  0  0  0  0  0
    2.8067   -2.1798    1.5313 C   0  0  0  0  0  0  0  0  0  0  0  0
    3.3718   -2.7649    2.6509 C   0  0  0  0  0  0  0  0  0  0  0  0
    3.9426   -2.0624    3.6378 N   0  0  0  0  0  0  0  0  0  0  0  0
    3.9284   -0.7129    3.4990 C   0  0  0  0  0  0  0  0  0  0  0  0
    3.3711   -0.0046    2.4227 C   0  0  0  0  0  0  0  0  0  0  0  0
    3.4391    1.4138    2.3692 N   0  0  0  0  0  0  0  0  0  0  0  0
    3.7072    2.2457    3.4514 C   0  0  0  0  0  0  0  0  0  0  0  0
    3.7665    1.8912    4.6270 O   0  0  0  0  0  0  0  0  0  0  0  0
    3.9220    3.7083    3.0913 C   0  0  0  0  0  0  0  0  0  0  0  0
    2.6570    4.5310    3.0827 C   0  0  0  0  0  0  0  0  0  0  0  0
    1.8468    4.6258    4.2252 C   0  0  0  0  0  0  0  0  0  0  0  0
    0.6855    5.4036    4.2135 C   0  0  0  0  0  0  0  0  0  0  0  0
    0.3230    6.1015    3.0614 C   0  0  0  0  0  0  0  0  0  0  0  0
    1.1344    6.0296    1.9321 C   0  0  0  0  0  0  0  0  0  0  0  0
    0.7010    6.8978    0.5110 Cl  0  0  0  0  0  0  0  0  0  0  0  0
    2.2981    5.2587    1.9394 C   0  0  0  0  0  0  0  0  0  0  0  0
    0.4432    0.9767   -0.5302 H   0  0  0  0  0  0  0  0  0  0  0  0
    1.2259    1.6074    0.9167 H   0  0  0  0  0  0  0  0  0  0  0  0
    0.1791    0.1899    1.0304 H   0  0  0  0  0  0  0  0  0  0  0  0
    1.6350   -1.1205   -0.3643 H   0  0  0  0  0  0  0  0  0  0  0  0
    3.5753    1.2092   -0.5633 H   0  0  0  0  0  0  0  0  0  0  0  0
    2.5438    0.5405   -1.8371 H   0  0  0  0  0  0  0  0  0  0  0  0
    3.8455   -0.4377   -1.1550 H   0  0  0  0  0  0  0  0  0  0  0  0
    2.3685   -2.8269    0.7813 H   0  0  0  0  0  0  0  0  0  0  0  0
    3.3748   -3.8426    2.7844 H   0  0  0  0  0  0  0  0  0  0  0  0
    4.4382   -0.2131    4.3171 H   0  0  0  0  0  0  0  0  0  0  0  0
    3.1761    1.8607    1.5011 H   0  0  0  0  0  0  0  0  0  0  0  0
    4.4374    3.7647    2.1253 H   0  0  0  0  0  0  0  0  0  0  0  0
    4.6166    4.1381    3.8252 H   0  0  0  0  0  0  0  0  0  0  0  0
    2.1163    4.0964    5.1399 H   0  0  0  0  0  0  0  0  0  0  0  0
    0.0648    5.4667    5.1045 H   0  0  0  0  0  0  0  0  0  0  0  0
   -0.5828    6.7000    3.0544 H   0  0  0  0  0  0  0  0  0  0  0  0
    2.9285    5.2369    1.0541 H   0  0  0  0  0  0  0  0  0  0  0  0
  1  2  1  0  0  0  0
  1 21  1  0  0  0  0
  1 22  1  0  0  0  0
  1 23  1  0  0  0  0
  2  3  1  0  0  0  0
  2  4  1  0  0  0  0
  2 24  1  0  0  0  0
  3 25  1  0  0  0  0
  3 26  1  0  0  0  0
  3 27  1  0  0  0  0
  4  5  1  0  0  0  0
  4  9  2  0  0  0  0
  5  6  2  0  0  0  0
  5 28  1  0  0  0  0
  6  7  1  0  0  0  0
  6 29  1  0  0  0  0
  7  8  2  0  0  0  0
  8  9  1  0  0  0  0
  8 30  1  0  0  0  0
  9 10  1  0  0  0  0
 10 11  1  0  0  0  0
 10 31  1  0  0  0  0
 11 12  2  0  0  0  0
 11 13  1  0  0  0  0
 13 14  1  0  0  0  0
 13 32  1  0  0  0  0
 13 33  1  0  0  0  0
 14 15  1  0  0  0  0
 14 20  2  0  0  0  0
 15 16  2  0  0  0  0
 15 34  1  0  0  0  0
 16 17  1  0  0  0  0
 16 35  1  0  0  0  0
 17 18  2  0  0  0  0
 17 36  1  0  0  0  0
 18 19  1  0  0  0  0
 18 20  1  0  0  0  0
 20 37  1  0  0  0  0
M  END
$$$$
