
 OpenBabel07202414203D

 46 49  0  0  0  0  0  0  0  0999 V2000
    0.5220   -2.9517    2.1471 C   0  0  0  0  0  0  0  0  0  0  0  0
   -0.0589   -1.7705    2.6023 C   0  0  0  0  0  0  0  0  0  0  0  0
   -1.3800   -1.4630    2.2664 C   0  0  0  0  0  0  0  0  0  0  0  0
   -2.1384   -2.3373    1.4724 C   0  0  0  0  0  0  0  0  0  0  0  0
   -1.5340   -3.5148    1.0051 C   0  0  0  0  0  0  0  0  0  0  0  0
   -0.2135   -3.8203    1.3441 C   0  0  0  0  0  0  0  0  0  0  0  0
   -3.5811   -2.0299    1.1470 C   0  0  0  0  0  0  0  0  0  0  0  0
   -3.6915   -1.0650   -0.3546 S   0  0  0  0  0  0  0  0  0  0  0  0
   -3.0522    0.2224   -0.1262 O   0  0  0  0  0  0  0  0  0  0  0  0
   -3.3159   -1.8874   -1.4918 O   0  0  0  0  0  0  0  0  0  0  0  0
   -5.4622   -0.7670   -0.4809 C   0  0  0  0  0  0  0  0  0  0  0  0
   -6.2330   -1.8689   -0.5349 N   0  0  0  0  0  0  0  0  0  0  0  0
   -7.5484   -1.6276   -0.7253 C   0  0  0  0  0  0  0  0  0  0  0  0
   -8.1102   -0.3659   -0.8266 C   0  0  0  0  0  0  0  0  0  0  0  0
   -7.2124    0.6903   -0.7236 C   0  0  0  0  0  0  0  0  0  0  0  0
   -5.8673    0.5161   -0.5528 N   0  0  0  0  0  0  0  0  0  0  0  0
   -7.6491    2.1340   -0.7814 C   0  0  0  0  0  0  0  0  0  0  0  0
   -8.8112    2.4639   -0.9781 O   0  0  0  0  0  0  0  0  0  0  0  0
   -6.6428    3.0647   -0.5913 N   0  0  0  0  0  0  0  0  0  0  0  0
   -6.8993    4.4830   -0.7166 C   0  0  0  0  0  0  0  0  0  0  0  0
   -5.9676    5.3164    0.1276 C   0  0  0  0  0  0  0  0  0  0  0  0
   -5.1485    6.3086   -0.4616 C   0  0  0  0  0  0  0  0  0  0  0  0
   -4.3539    7.1512    0.3259 C   0  0  0  0  0  0  0  0  0  0  0  0
   -4.4068    6.9902    1.6928 C   0  0  0  0  0  0  0  0  0  0  0  0
   -5.1896    6.0225    2.2757 C   0  0  0  0  0  0  0  0  0  0  0  0
   -5.9707    5.1687    1.5256 C   0  0  0  0  0  0  0  0  0  0  0  0
   -5.1143    6.0428    3.6338 O   0  0  0  0  0  0  0  0  0  0  0  0
   -4.2702    7.1949    3.8376 C   0  0  0  0  0  0  0  0  0  0  0  0
   -3.7434    7.7428    2.6112 O   0  0  0  0  0  0  0  0  0  0  0  0
   -9.8088   -0.2584   -1.0502 Cl  0  0  0  0  0  0  0  0  0  0  0  0
    1.5487   -3.1917    2.4124 H   0  0  0  0  0  0  0  0  0  0  0  0
    0.5189   -1.0864    3.2194 H   0  0  0  0  0  0  0  0  0  0  0  0
   -1.8081   -0.5307    2.6303 H   0  0  0  0  0  0  0  0  0  0  0  0
   -2.0853   -4.2073    0.3714 H   0  0  0  0  0  0  0  0  0  0  0  0
    0.2432   -4.7378    0.9799 H   0  0  0  0  0  0  0  0  0  0  0  0
   -4.0409   -1.4540    1.9566 H   0  0  0  0  0  0  0  0  0  0  0  0
   -4.1481   -2.9564    1.0116 H   0  0  0  0  0  0  0  0  0  0  0  0
   -8.1680   -2.5201   -0.8023 H   0  0  0  0  0  0  0  0  0  0  0  0
   -5.6836    2.7309   -0.5625 H   0  0  0  0  0  0  0  0  0  0  0  0
   -7.9331    4.7080   -0.4266 H   0  0  0  0  0  0  0  0  0  0  0  0
   -6.8025    4.7367   -1.7783 H   0  0  0  0  0  0  0  0  0  0  0  0
   -5.1437    6.4447   -1.5420 H   0  0  0  0  0  0  0  0  0  0  0  0
   -3.7347    7.9215   -0.1203 H   0  0  0  0  0  0  0  0  0  0  0  0
   -6.5949    4.4261    2.0114 H   0  0  0  0  0  0  0  0  0  0  0  0
   -3.4344    6.9110    4.4865 H   0  0  0  0  0  0  0  0  0  0  0  0
   -4.8581    7.9711    4.3430 H   0  0  0  0  0  0  0  0  0  0  0  0
  1  2  1  0  0  0  0
  1  6  2  0  0  0  0
  1 31  1  0  0  0  0
  2  3  2  0  0  0  0
  2 32  1  0  0  0  0
  3  4  1  0  0  0  0
  3 33  1  0  0  0  0
  4  5  2  0  0  0  0
  4  7  1  0  0  0  0
  5  6  1  0  0  0  0
  5 34  1  0  0  0  0
  6 35  1  0  0  0  0
  7  8  1  0  0  0  0
  7 36  1  0  0  0  0
  7 37  1  0  0  0  0
  8  9  2  0  0  0  0
  8 10  2  0  0  0  0
  8 11  1  0  0  0  0
 11 12  1  0  0  0  0
 11 16  2  0  0  0  0
 12 13  2  0  0  0  0
 13 14  1  0  0  0  0
 13 38  1  0  0  0  0
 14 15  2  0  0  0  0
 14 30  1  0  0  0  0
 15 16  1  0  0  0  0
 15 17  1  0  0  0  0
 17 18  2  0  0  0  0
 17 19  1  0  0  0  0
 19 20  1  0  0  0  0
 19 39  1  0  0  0  0
 20 21  1  0  0  0  0
 20 40  1  0  0  0  0
 20 41  1  0  0  0  0
 21 22  1  0  0  0  0
 21 26  2  0  0  0  0
 22 23  2  0  0  0  0
 22 42  1  0  0  0  0
 23 24  1  0  0  0  0
 23 43  1  0  0  0  0
 24 25  2  0  0  0  0
 24 29  1  0  0  0  0
 25 26  1  0  0  0  0
 25 27  1  0  0  0  0
 26 44  1  0  0  0  0
 27 28  1  0  0  0  0
 28 29  1  0  0  0  0
 28 45  1  0  0  0  0
 28 46  1  0  0  0  0
M  END
$$$$
