
 OpenBabel07202414123D

 63 65  0  0  1  0  0  0  0  0999 V2000
    8.1699    0.0280   -0.2333 C   0  0  0  0  0  0  0  0  0  0  0  0
    7.2569   -0.3911   -1.4019 C   0  0  0  0  0  0  0  0  0  0  0  0
    6.3436    0.7874   -1.7877 C   0  0  0  0  0  0  0  0  0  0  0  0
    8.1532   -0.7190   -2.6087 C   0  0  0  0  0  0  0  0  0  0  0  0
    6.4599   -1.5896   -1.0622 N   0  0  0  0  0  0  0  0  0  0  0  0
    5.5519   -1.6233   -0.0247 C   0  0  0  0  0  0  0  0  0  0  0  0
    5.3244   -0.6331    0.6763 O   0  0  0  0  0  0  0  0  0  0  0  0
    4.9330   -2.9928    0.3672 C   0  0  3  0  0  0  0  0  0  0  0  0
    4.4886   -3.9181   -0.7123 N   0  0  0  0  0  0  0  0  0  0  0  0
    5.3842   -4.6370   -1.5239 C   0  0  0  0  0  0  0  0  0  0  0  0
    6.5970   -4.4297   -1.4291 O   0  0  0  0  0  0  0  0  0  0  0  0
    4.8833   -5.6050   -2.5042 C   0  0  0  0  0  0  0  0  0  0  0  0
    5.4680   -6.7498   -3.0247 C   0  0  0  0  0  0  0  0  0  0  0  0
    4.5741   -7.2751   -3.9925 C   0  0  0  0  0  0  0  0  0  0  0  0
    3.4994   -6.4212   -4.0184 C   0  0  0  0  0  0  0  0  0  0  0  0
    3.6881   -5.4035   -3.1443 O   0  0  0  0  0  0  0  0  0  0  0  0
    3.0838   -4.1219   -0.8003 C   0  0  0  0  0  0  0  0  0  0  0  0
    2.4980   -5.2349   -0.2043 C   0  0  0  0  0  0  0  0  0  0  0  0
    1.1453   -5.5150   -0.4231 C   0  0  0  0  0  0  0  0  0  0  0  0
    0.3385   -4.7000   -1.2372 C   0  0  0  0  0  0  0  0  0  0  0  0
   -1.1455   -5.0190   -1.5135 C   0  0  0  0  0  0  0  0  0  0  0  0
   -1.6375   -6.3001   -0.8008 C   0  0  0  0  0  0  0  0  0  0  0  0
   -2.0269   -3.8515   -1.0241 C   0  0  0  0  0  0  0  0  0  0  0  0
   -1.3991   -5.2272   -3.0255 C   0  0  0  0  0  0  0  0  0  0  0  0
    0.9463   -3.5521   -1.7971 C   0  0  0  0  0  0  0  0  0  0  0  0
    2.2991   -3.2611   -1.5707 C   0  0  0  0  0  0  0  0  0  0  0  0
    5.7053   -3.6108    1.5360 C   0  0  0  0  0  0  0  0  0  0  0  0
    5.1142   -3.7108    2.8028 C   0  0  0  0  0  0  0  0  0  0  0  0
    5.8648   -4.1154    3.9050 C   0  0  0  0  0  0  0  0  0  0  0  0
    7.1972   -4.4320    3.7074 C   0  0  0  0  0  0  0  0  0  0  0  0
    7.8073   -4.3681    2.5093 N   0  0  0  0  0  0  0  0  0  0  0  0
    7.0572   -3.9456    1.4612 C   0  0  0  0  0  0  0  0  0  0  0  0
    8.8542    0.8303   -0.5365 H   0  0  0  0  0  0  0  0  0  0  0  0
    8.7753   -0.8139    0.1197 H   0  0  0  0  0  0  0  0  0  0  0  0
    7.6000    0.4045    0.6222 H   0  0  0  0  0  0  0  0  0  0  0  0
    6.9313    1.6593   -2.0968 H   0  0  0  0  0  0  0  0  0  0  0  0
    5.7104    1.1115   -0.9568 H   0  0  0  0  0  0  0  0  0  0  0  0
    5.6792    0.5147   -2.6154 H   0  0  0  0  0  0  0  0  0  0  0  0
    8.7497    0.1515   -2.9085 H   0  0  0  0  0  0  0  0  0  0  0  0
    7.5574   -1.0310   -3.4734 H   0  0  0  0  0  0  0  0  0  0  0  0
    8.8484   -1.5334   -2.3752 H   0  0  0  0  0  0  0  0  0  0  0  0
    6.7650   -2.4858   -1.4403 H   0  0  0  0  0  0  0  0  0  0  0  0
    3.9849   -2.6570    0.8183 H   0  0  0  0  0  0  0  0  0  0  0  0
    6.4287   -7.1537   -2.7353 H   0  0  0  0  0  0  0  0  0  0  0  0
    4.6978   -8.1592   -4.6033 H   0  0  0  0  0  0  0  0  0  0  0  0
    2.5759   -6.3892   -4.5797 H   0  0  0  0  0  0  0  0  0  0  0  0
    3.0906   -5.9115    0.4080 H   0  0  0  0  0  0  0  0  0  0  0  0
    0.7461   -6.4097    0.0500 H   0  0  0  0  0  0  0  0  0  0  0  0
   -1.5270   -6.2239    0.2867 H   0  0  0  0  0  0  0  0  0  0  0  0
   -1.0836   -7.1851   -1.1397 H   0  0  0  0  0  0  0  0  0  0  0  0
   -2.6981   -6.4896   -1.0045 H   0  0  0  0  0  0  0  0  0  0  0  0
   -1.8613   -3.6509    0.0402 H   0  0  0  0  0  0  0  0  0  0  0  0
   -3.0922   -4.0758   -1.1604 H   0  0  0  0  0  0  0  0  0  0  0  0
   -1.8238   -2.9245   -1.5722 H   0  0  0  0  0  0  0  0  0  0  0  0
   -0.8153   -6.0680   -3.4164 H   0  0  0  0  0  0  0  0  0  0  0  0
   -1.1456   -4.3416   -3.6171 H   0  0  0  0  0  0  0  0  0  0  0  0
   -2.4572   -5.4463   -3.2158 H   0  0  0  0  0  0  0  0  0  0  0  0
    0.3765   -2.8861   -2.4367 H   0  0  0  0  0  0  0  0  0  0  0  0
    2.7441   -2.3951   -2.0573 H   0  0  0  0  0  0  0  0  0  0  0  0
    4.0758   -3.4206    2.9564 H   0  0  0  0  0  0  0  0  0  0  0  0
    5.4308   -4.1544    4.8974 H   0  0  0  0  0  0  0  0  0  0  0  0
    7.8308   -4.7372    4.5376 H   0  0  0  0  0  0  0  0  0  0  0  0
    7.6284   -3.8516    0.5484 H   0  0  0  0  0  0  0  0  0  0  0  0
  1  2  1  0  0  0  0
  1 33  1  0  0  0  0
  1 34  1  0  0  0  0
  1 35  1  0  0  0  0
  2  3  1  0  0  0  0
  2  4  1  0  0  0  0
  2  5  1  0  0  0  0
  3 36  1  0  0  0  0
  3 37  1  0  0  0  0
  3 38  1  0  0  0  0
  4 39  1  0  0  0  0
  4 40  1  0  0  0  0
  4 41  1  0  0  0  0
  5  6  1  0  0  0  0
  5 42  1  0  0  0  0
  6  7  2  0  0  0  0
  6  8  1  0  0  0  0
  8  9  1  0  0  0  0
  8 27  1  0  0  0  0
  8 43  1  0  0  0  0
  9 10  1  0  0  0  0
  9 17  1  0  0  0  0
 10 11  2  0  0  0  0
 10 12  1  0  0  0  0
 12 13  2  0  0  0  0
 12 16  1  0  0  0  0
 13 14  1  0  0  0  0
 13 44  1  0  0  0  0
 14 15  2  0  0  0  0
 14 45  1  0  0  0  0
 15 16  1  0  0  0  0
 15 46  1  0  0  0  0
 17 18  1  0  0  0  0
 17 26  2  0  0  0  0
 18 19  2  0  0  0  0
 18 47  1  0  0  0  0
 19 20  1  0  0  0  0
 19 48  1  0  0  0  0
 20 21  1  0  0  0  0
 20 25  2  0  0  0  0
 21 22  1  0  0  0  0
 21 23  1  0  0  0  0
 21 24  1  0  0  0  0
 22 49  1  0  0  0  0
 22 50  1  0  0  0  0
 22 51  1  0  0  0  0
 23 52  1  0  0  0  0
 23 53  1  0  0  0  0
 23 54  1  0  0  0  0
 24 55  1  0  0  0  0
 24 56  1  0  0  0  0
 24 57  1  0  0  0  0
 25 26  1  0  0  0  0
 25 58  1  0  0  0  0
 26 59  1  0  0  0  0
 27 28  1  0  0  0  0
 27 32  2  0  0  0  0
 28 29  2  0  0  0  0
 28 60  1  0  0  0  0
 29 30  1  0  0  0  0
 29 61  1  0  0  0  0
 30 31  2  0  0  0  0
 30 62  1  0  0  0  0
 31 32  1  0  0  0  0
 32 63  1  0  0  0  0
M  END
$$$$
