
 OpenBabel07202414143D

 52 56  0  0  1  0  0  0  0  0999 V2000
    3.0583    0.8201   -3.9049 C   0  0  0  0  0  0  0  0  0  0  0  0
    3.5869    1.3459   -2.6762 N   0  0  0  0  0  0  0  0  0  0  0  0
    4.4215    0.6136   -1.8637 C   0  0  0  0  0  0  0  0  0  0  0  0
    4.7741   -0.5364   -2.1139 O   0  0  0  0  0  0  0  0  0  0  0  0
    4.7834    1.2989   -0.5452 C   0  0  0  0  0  0  0  0  0  0  0  0
    5.5315    2.5549   -0.6550 N   0  0  0  0  0  0  0  0  0  0  0  0
    6.9898    2.5829   -0.5158 C   0  0  0  0  0  0  0  0  0  0  0  0
    7.4182    3.5773    0.5841 C   0  0  1  0  0  0  0  0  0  0  0  0
    7.1389    2.9647    1.9636 C   0  0  0  0  0  0  0  0  0  0  0  0
    8.4927    2.5348    2.4046 C   0  0  0  0  0  0  0  0  0  0  0  0
    8.6817    1.5704    3.1314 O   0  0  0  0  0  0  0  0  0  0  0  0
    9.4220    3.3474    1.8005 N   0  0  0  0  0  0  0  0  0  0  0  0
   10.7701    3.3208    2.2511 C   0  0  0  0  0  0  0  0  0  0  0  0
   11.8341    3.0965    1.3841 C   0  0  0  0  0  0  0  0  0  0  0  0
   13.0656    2.7178    1.7963 N   0  0  0  0  0  0  0  0  0  0  0  0
   13.2534    2.5923    3.1322 C   0  0  0  0  0  0  0  0  0  0  0  0
   12.3157    2.9522    4.1001 C   0  0  0  0  0  0  0  0  0  0  0  0
   12.6015    2.9014    5.4800 C   0  0  0  0  0  0  0  0  0  0  0  0
   11.6706    3.3439    6.4201 C   0  0  0  0  0  0  0  0  0  0  0  0
   10.4504    3.8476    5.9941 C   0  0  0  0  0  0  0  0  0  0  0  0
   10.1468    3.8650    4.6313 C   0  0  0  0  0  0  0  0  0  0  0  0
   11.0519    3.3797    3.6498 C   0  0  0  0  0  0  0  0  0  0  0  0
    8.9447    3.7509    0.5730 C   0  0  0  0  0  0  0  0  0  0  0  0
    9.5979    4.1869   -0.3750 O   0  0  0  0  0  0  0  0  0  0  0  0
    6.6608    4.8967    0.4374 C   0  0  0  0  0  0  0  0  0  0  0  0
    7.0733    6.0548    1.1259 C   0  0  0  0  0  0  0  0  0  0  0  0
    6.3115    7.2259    1.0724 C   0  0  0  0  0  0  0  0  0  0  0  0
    6.7965    8.5968    1.9910 Cl  0  0  0  0  0  0  0  0  0  0  0  0
    5.1444    7.2805    0.3180 C   0  0  0  0  0  0  0  0  0  0  0  0
    4.7230    6.1496   -0.3778 C   0  0  0  0  0  0  0  0  0  0  0  0
    5.4623    4.9595   -0.3070 C   0  0  0  0  0  0  0  0  0  0  0  0
    4.8367    3.7299   -0.8673 C   0  0  0  0  0  0  0  0  0  0  0  0
    3.7190    3.7635   -1.3717 O   0  0  0  0  0  0  0  0  0  0  0  0
    2.5413    1.6219   -4.4370 H   0  0  0  0  0  0  0  0  0  0  0  0
    2.3562    0.0126   -3.6780 H   0  0  0  0  0  0  0  0  0  0  0  0
    3.8760    0.4285   -4.5148 H   0  0  0  0  0  0  0  0  0  0  0  0
    3.3538    2.3005   -2.3930 H   0  0  0  0  0  0  0  0  0  0  0  0
    5.3349    0.6025    0.0942 H   0  0  0  0  0  0  0  0  0  0  0  0
    3.8370    1.5163   -0.0298 H   0  0  0  0  0  0  0  0  0  0  0  0
    7.3924    2.8866   -1.4912 H   0  0  0  0  0  0  0  0  0  0  0  0
    7.3620    1.5703   -0.3174 H   0  0  0  0  0  0  0  0  0  0  0  0
    6.4697    2.1007    1.9334 H   0  0  0  0  0  0  0  0  0  0  0  0
    6.7609    3.6788    2.7022 H   0  0  0  0  0  0  0  0  0  0  0  0
   11.7263    3.1374    0.3040 H   0  0  0  0  0  0  0  0  0  0  0  0
   14.2252    2.1947    3.4154 H   0  0  0  0  0  0  0  0  0  0  0  0
   13.5610    2.5277    5.8312 H   0  0  0  0  0  0  0  0  0  0  0  0
   11.9045    3.3109    7.4811 H   0  0  0  0  0  0  0  0  0  0  0  0
    9.7303    4.2232    6.7172 H   0  0  0  0  0  0  0  0  0  0  0  0
    9.1879    4.2876    4.3412 H   0  0  0  0  0  0  0  0  0  0  0  0
    7.9706    6.0510    1.7413 H   0  0  0  0  0  0  0  0  0  0  0  0
    4.5408    8.1841    0.2917 H   0  0  0  0  0  0  0  0  0  0  0  0
    3.7854    6.1827   -0.9317 H   0  0  0  0  0  0  0  0  0  0  0  0
  1  2  1  0  0  0  0
  1 34  1  0  0  0  0
  1 35  1  0  0  0  0
  1 36  1  0  0  0  0
  2  3  1  0  0  0  0
  2 37  1  0  0  0  0
  3  4  2  0  0  0  0
  3  5  1  0  0  0  0
  5  6  1  0  0  0  0
  5 38  1  0  0  0  0
  5 39  1  0  0  0  0
  6  7  1  0  0  0  0
  6 32  1  0  0  0  0
  7  8  1  0  0  0  0
  7 40  1  0  0  0  0
  7 41  1  0  0  0  0
  8  9  1  0  0  0  0
  8 23  1  6  0  0  0
  8 25  1  0  0  0  0
  9 10  1  0  0  0  0
  9 42  1  0  0  0  0
  9 43  1  0  0  0  0
 10 11  2  0  0  0  0
 10 12  1  0  0  0  0
 12 13  1  0  0  0  0
 12 23  1  0  0  0  0
 13 14  1  0  0  0  0
 13 22  2  0  0  0  0
 14 15  2  0  0  0  0
 14 44  1  0  0  0  0
 15 16  1  0  0  0  0
 16 17  2  0  0  0  0
 16 45  1  0  0  0  0
 17 18  1  0  0  0  0
 17 22  1  0  0  0  0
 18 19  2  0  0  0  0
 18 46  1  0  0  0  0
 19 20  1  0  0  0  0
 19 47  1  0  0  0  0
 20 21  2  0  0  0  0
 20 48  1  0  0  0  0
 21 22  1  0  0  0  0
 21 49  1  0  0  0  0
 23 24  2  0  0  0  0
 25 26  1  0  0  0  0
 25 31  2  0  0  0  0
 26 27  2  0  0  0  0
 26 50  1  0  0  0  0
 27 28  1  0  0  0  0
 27 29  1  0  0  0  0
 29 30  2  0  0  0  0
 29 51  1  0  0  0  0
 30 31  1  0  0  0  0
 30 52  1  0  0  0  0
 31 32  1  0  0  0  0
 32 33  2  0  0  0  0
M  END
$$$$
