
 OpenBabel07202414153D

 49 52  0  0  1  0  0  0  0  0999 V2000
    1.2254   -0.9301    2.6734 C   0  0  0  0  0  0  0  0  0  0  0  0
    2.4366   -1.4112    1.4681 S   0  0  0  0  0  0  0  0  0  0  0  0
    1.8134   -2.3283    0.5377 O   0  0  0  0  0  0  0  0  0  0  0  0
    3.1288   -0.2168    1.0262 O   0  0  0  0  0  0  0  0  0  0  0  0
    3.4705   -2.3553    2.4406 N   0  0  0  0  0  0  0  0  0  0  0  0
    4.8292   -2.4238    1.9845 C   0  0  0  0  0  0  0  0  0  0  0  0
    5.7386   -1.4588    2.3937 C   0  0  0  0  0  0  0  0  0  0  0  0
    7.0591   -1.5334    1.9560 C   0  0  0  0  0  0  0  0  0  0  0  0
    7.4728   -2.5619    1.0876 C   0  0  0  0  0  0  0  0  0  0  0  0
    8.8057   -2.6692    0.6850 C   0  0  0  0  0  0  0  0  0  0  0  0
    9.2952   -3.6460   -0.1092 N   0  0  0  0  0  0  0  0  0  0  0  0
    8.4014   -4.5531   -0.5574 C   0  0  0  0  0  0  0  0  0  0  0  0
    7.0367   -4.5382   -0.2670 C   0  0  0  0  0  0  0  0  0  0  0  0
    6.2245   -5.5514   -0.8628 N   0  0  0  0  0  0  0  0  0  0  0  0
    5.0966   -5.2239   -1.5906 C   0  0  0  0  0  0  0  0  0  0  0  0
    4.7534   -4.0555   -1.7785 O   0  0  0  0  0  0  0  0  0  0  0  0
    4.3204   -6.3662   -2.2852 C   0  0  3  0  0  0  0  0  0  0  0  0
    2.8645   -5.8945   -2.5103 C   0  0  0  0  0  0  0  0  0  0  0  0
    2.0991   -5.8522   -1.1974 C   0  0  0  0  0  0  0  0  0  0  0  0
    1.8017   -7.5024   -0.6250 S   0  0  0  0  0  0  0  0  0  0  0  0
    1.6282   -7.4593    0.8131 O   0  0  0  0  0  0  0  0  0  0  0  0
    0.8223   -8.1199   -1.4982 O   0  0  0  0  0  0  0  0  0  0  0  0
    3.3352   -8.3455   -0.9293 C   0  0  0  0  0  0  0  0  0  0  0  0
    3.4087   -9.6669   -0.4551 C   0  0  0  0  0  0  0  0  0  0  0  0
    4.5370  -10.4384   -0.7151 C   0  0  0  0  0  0  0  0  0  0  0  0
    5.5803   -9.8903   -1.4519 C   0  0  0  0  0  0  0  0  0  0  0  0
    6.9648  -10.8463   -1.8096 Cl  0  0  0  0  0  0  0  0  0  0  0  0
    5.5074   -8.5724   -1.9270 C   0  0  0  0  0  0  0  0  0  0  0  0
    4.3844   -7.7596   -1.6655 C   0  0  0  0  0  0  0  0  0  0  0  0
    6.5507   -3.5269    0.6119 C   0  0  0  0  0  0  0  0  0  0  0  0
    5.2210   -3.4301    1.0960 C   0  0  0  0  0  0  0  0  0  0  0  0
    0.5237   -0.2453    2.1929 H   0  0  0  0  0  0  0  0  0  0  0  0
    1.7260   -0.4246    3.5012 H   0  0  0  0  0  0  0  0  0  0  0  0
    0.6964   -1.8197    3.0190 H   0  0  0  0  0  0  0  0  0  0  0  0
    3.0556   -3.2882    2.5087 H   0  0  0  0  0  0  0  0  0  0  0  0
    5.4307   -0.6571    3.0588 H   0  0  0  0  0  0  0  0  0  0  0  0
    7.7679   -0.7851    2.3050 H   0  0  0  0  0  0  0  0  0  0  0  0
    9.5516   -1.9504    1.0169 H   0  0  0  0  0  0  0  0  0  0  0  0
    8.8299   -5.2970   -1.2226 H   0  0  0  0  0  0  0  0  0  0  0  0
    6.7197   -6.3750   -1.1778 H   0  0  0  0  0  0  0  0  0  0  0  0
    4.7700   -6.4443   -3.2860 H   0  0  0  0  0  0  0  0  0  0  0  0
    2.3648   -6.5623   -3.2224 H   0  0  0  0  0  0  0  0  0  0  0  0
    2.8475   -4.8960   -2.9640 H   0  0  0  0  0  0  0  0  0  0  0  0
    1.1256   -5.3679   -1.3166 H   0  0  0  0  0  0  0  0  0  0  0  0
    2.6489   -5.3278   -0.4112 H   0  0  0  0  0  0  0  0  0  0  0  0
    2.5729  -10.1029    0.0931 H   0  0  0  0  0  0  0  0  0  0  0  0
    4.5837  -11.4661   -0.3626 H   0  0  0  0  0  0  0  0  0  0  0  0
    6.3249   -8.2021   -2.5427 H   0  0  0  0  0  0  0  0  0  0  0  0
    4.4768   -4.1512    0.7740 H   0  0  0  0  0  0  0  0  0  0  0  0
  1  2  1  0  0  0  0
  1 32  1  0  0  0  0
  1 33  1  0  0  0  0
  1 34  1  0  0  0  0
  2  3  2  0  0  0  0
  2  4  2  0  0  0  0
  2  5  1  0  0  0  0
  5  6  1  0  0  0  0
  5 35  1  0  0  0  0
  6  7  1  0  0  0  0
  6 31  2  0  0  0  0
  7  8  2  0  0  0  0
  7 36  1  0  0  0  0
  8  9  1  0  0  0  0
  8 37  1  0  0  0  0
  9 10  1  0  0  0  0
  9 30  2  0  0  0  0
 10 11  2  0  0  0  0
 10 38  1  0  0  0  0
 11 12  1  0  0  0  0
 12 13  2  0  0  0  0
 12 39  1  0  0  0  0
 13 14  1  0  0  0  0
 13 30  1  0  0  0  0
 14 15  1  0  0  0  0
 14 40  1  0  0  0  0
 15 16  2  0  0  0  0
 15 17  1  0  0  0  0
 17 18  1  0  0  0  0
 17 29  1  0  0  0  0
 17 41  1  0  0  0  0
 18 19  1  0  0  0  0
 18 42  1  0  0  0  0
 18 43  1  0  0  0  0
 19 20  1  0  0  0  0
 19 44  1  0  0  0  0
 19 45  1  0  0  0  0
 20 21  2  0  0  0  0
 20 22  2  0  0  0  0
 20 23  1  0  0  0  0
 23 24  1  0  0  0  0
 23 29  2  0  0  0  0
 24 25  2  0  0  0  0
 24 46  1  0  0  0  0
 25 26  1  0  0  0  0
 25 47  1  0  0  0  0
 26 27  1  0  0  0  0
 26 28  2  0  0  0  0
 28 29  1  0  0  0  0
 28 48  1  0  0  0  0
 30 31  1  0  0  0  0
 31 49  1  0  0  0  0
M  END
$$$$
