
 OpenBabel07202414133D

 59 63  0  0  1  0  0  0  0  0999 V2000
    0.6894   -0.0859    0.4138 C   0  0  0  0  0  0  0  0  0  0  0  0
    0.1466    0.1904    1.7393 N   0  0  0  0  0  0  0  0  0  0  0  0
    0.9280    1.2451    2.4300 C   0  0  0  0  0  0  0  0  0  0  0  0
    0.8324    0.3746    3.7285 C   0  0  0  0  0  0  0  0  0  0  0  0
    1.9964    0.4023    4.7115 C   0  0  0  0  0  0  0  0  0  0  0  0
    3.5976   -0.1128    4.0933 S   0  0  0  0  0  0  0  0  0  0  0  0
    3.5322   -1.4699    3.6223 O   0  0  0  0  0  0  0  0  0  0  0  0
    4.1155    0.9555    3.2567 O   0  0  0  0  0  0  0  0  0  0  0  0
    4.5735   -0.1349    5.5141 N   0  0  0  0  0  0  0  0  0  0  0  0
    4.4439   -1.3572    6.3760 C   0  0  0  0  0  0  0  0  0  0  0  0
    5.4753   -1.3886    7.5177 C   0  0  3  0  0  0  0  0  0  0  0  0
    6.8860   -1.8727    7.1292 C   0  0  0  0  0  0  0  0  0  0  0  0
    7.5864   -2.4391    7.9701 O   0  0  0  0  0  0  0  0  0  0  0  0
    7.2775   -1.5874    5.8380 N   0  0  0  0  0  0  0  0  0  0  0  0
    8.5529   -1.8030    5.2467 C   0  0  0  0  0  0  0  0  0  0  0  0
    9.6376   -2.3487    5.9353 C   0  0  0  0  0  0  0  0  0  0  0  0
   10.9188   -2.3078    5.4948 N   0  0  0  0  0  0  0  0  0  0  0  0
   11.1203   -1.7713    4.2746 C   0  0  0  0  0  0  0  0  0  0  0  0
   10.0998   -1.3826    3.4095 C   0  0  0  0  0  0  0  0  0  0  0  0
   10.3711   -1.0095    2.0798 C   0  0  0  0  0  0  0  0  0  0  0  0
    9.3409   -0.6255    1.2249 C   0  0  0  0  0  0  0  0  0  0  0  0
    8.0367   -0.5869    1.6965 C   0  0  0  0  0  0  0  0  0  0  0  0
    7.7567   -0.9629    3.0124 C   0  0  0  0  0  0  0  0  0  0  0  0
    8.7758   -1.3797    3.9073 C   0  0  0  0  0  0  0  0  0  0  0  0
    5.5048   -0.0812    8.2832 C   0  0  0  0  0  0  0  0  0  0  0  0
    5.8775   -0.0577    9.6381 C   0  0  0  0  0  0  0  0  0  0  0  0
    5.8634    1.1403   10.3551 C   0  0  0  0  0  0  0  0  0  0  0  0
    6.2765    1.1464   12.0245 Cl  0  0  0  0  0  0  0  0  0  0  0  0
    5.4950    2.3290    9.7368 C   0  0  0  0  0  0  0  0  0  0  0  0
    5.1253    2.3165    8.3937 C   0  0  0  0  0  0  0  0  0  0  0  0
    5.1213    1.1158    7.6629 C   0  0  0  0  0  0  0  0  0  0  0  0
    4.5577    1.1476    6.2679 C   0  0  0  0  0  0  0  0  0  0  0  0
   -0.3776    0.6714    4.5071 C   0  0  0  0  0  0  0  0  0  0  0  0
   -1.2815    0.9130    5.1957 N   0  0  0  0  0  0  0  0  0  0  0  0
    0.6287   -0.8049    2.7269 C   0  0  0  0  0  0  0  0  0  0  0  0
    0.3812    0.7007   -0.2814 H   0  0  0  0  0  0  0  0  0  0  0  0
    0.2863   -1.0321    0.0354 H   0  0  0  0  0  0  0  0  0  0  0  0
    1.7844   -0.1520    0.3923 H   0  0  0  0  0  0  0  0  0  0  0  0
    0.4287    2.2198    2.4691 H   0  0  0  0  0  0  0  0  0  0  0  0
    1.9390    1.4123    2.0429 H   0  0  0  0  0  0  0  0  0  0  0  0
    1.7904   -0.2469    5.5655 H   0  0  0  0  0  0  0  0  0  0  0  0
    2.1154    1.4303    5.0460 H   0  0  0  0  0  0  0  0  0  0  0  0
    4.5762   -2.2536    5.7595 H   0  0  0  0  0  0  0  0  0  0  0  0
    3.4331   -1.3798    6.7977 H   0  0  0  0  0  0  0  0  0  0  0  0
    5.1056   -2.1664    8.2022 H   0  0  0  0  0  0  0  0  0  0  0  0
    6.6381   -1.0114    5.3015 H   0  0  0  0  0  0  0  0  0  0  0  0
    9.5372   -2.8326    6.9006 H   0  0  0  0  0  0  0  0  0  0  0  0
   12.1666   -1.6582    4.0006 H   0  0  0  0  0  0  0  0  0  0  0  0
   11.3878   -1.0490    1.6922 H   0  0  0  0  0  0  0  0  0  0  0  0
    9.5547   -0.3658    0.1920 H   0  0  0  0  0  0  0  0  0  0  0  0
    7.2246   -0.2801    1.0404 H   0  0  0  0  0  0  0  0  0  0  0  0
    6.7109   -0.9599    3.3087 H   0  0  0  0  0  0  0  0  0  0  0  0
    6.1633   -0.9800   10.1421 H   0  0  0  0  0  0  0  0  0  0  0  0
    5.4755    3.2627   10.2939 H   0  0  0  0  0  0  0  0  0  0  0  0
    4.8037    3.2481    7.9282 H   0  0  0  0  0  0  0  0  0  0  0  0
    5.0696    1.9150    5.6781 H   0  0  0  0  0  0  0  0  0  0  0  0
    3.5220    1.4559    6.4254 H   0  0  0  0  0  0  0  0  0  0  0  0
   -0.1192   -1.5476    3.0241 H   0  0  0  0  0  0  0  0  0  0  0  0
    1.5232   -1.3480    2.4180 H   0  0  0  0  0  0  0  0  0  0  0  0
  1  2  1  0  0  0  0
  1 36  1  0  0  0  0
  1 37  1  0  0  0  0
  1 38  1  0  0  0  0
  2  3  1  0  0  0  0
  2 35  1  0  0  0  0
  3  4  1  0  0  0  0
  3 39  1  0  0  0  0
  3 40  1  0  0  0  0
  4  5  1  0  0  0  0
  4 33  1  0  0  0  0
  4 35  1  0  0  0  0
  5  6  1  0  0  0  0
  5 41  1  0  0  0  0
  5 42  1  0  0  0  0
  6  7  2  0  0  0  0
  6  8  2  0  0  0  0
  6  9  1  0  0  0  0
  9 10  1  0  0  0  0
  9 32  1  0  0  0  0
 10 11  1  0  0  0  0
 10 43  1  0  0  0  0
 10 44  1  0  0  0  0
 11 12  1  0  0  0  0
 11 25  1  0  0  0  0
 11 45  1  0  0  0  0
 12 13  2  0  0  0  0
 12 14  1  0  0  0  0
 14 15  1  0  0  0  0
 14 46  1  0  0  0  0
 15 16  1  0  0  0  0
 15 24  2  0  0  0  0
 16 17  2  0  0  0  0
 16 47  1  0  0  0  0
 17 18  1  0  0  0  0
 18 19  2  0  0  0  0
 18 48  1  0  0  0  0
 19 20  1  0  0  0  0
 19 24  1  0  0  0  0
 20 21  2  0  0  0  0
 20 49  1  0  0  0  0
 21 22  1  0  0  0  0
 21 50  1  0  0  0  0
 22 23  2  0  0  0  0
 22 51  1  0  0  0  0
 23 24  1  0  0  0  0
 23 52  1  0  0  0  0
 25 26  1  0  0  0  0
 25 31  2  0  0  0  0
 26 27  2  0  0  0  0
 26 53  1  0  0  0  0
 27 28  1  0  0  0  0
 27 29  1  0  0  0  0
 29 30  2  0  0  0  0
 29 54  1  0  0  0  0
 30 31  1  0  0  0  0
 30 55  1  0  0  0  0
 31 32  1  0  0  0  0
 32 56  1  0  0  0  0
 32 57  1  0  0  0  0
 33 34  3  0  0  0  0
 35 58  1  0  0  0  0
 35 59  1  0  0  0  0
M  END
$$$$
