
 OpenBabel07202414143D

 53 56  0  0  1  0  0  0  0  0999 V2000
    7.6015    1.9693   -0.5030 C   0  0  0  0  0  0  0  0  0  0  0  0
    6.6491    1.1237   -1.1733 N   0  0  0  0  0  0  0  0  0  0  0  0
    5.7419    0.3922   -0.4411 C   0  0  0  0  0  0  0  0  0  0  0  0
    5.7011    0.4124    0.7881 O   0  0  0  0  0  0  0  0  0  0  0  0
    4.6839   -0.3376   -1.2624 C   0  0  0  0  0  0  0  0  0  0  0  0
    5.0955   -0.7870   -2.5946 N   0  0  0  0  0  0  0  0  0  0  0  0
    5.8297   -2.0370   -2.7322 C   0  0  0  0  0  0  0  0  0  0  0  0
    5.0544   -3.0394   -3.5823 C   0  0  3  0  0  0  0  0  0  0  0  0
    4.0172   -3.7275   -2.6983 C   0  0  0  0  0  0  0  0  0  0  0  0
    4.3490   -4.7211   -2.0541 O   0  0  0  0  0  0  0  0  0  0  0  0
    2.7648   -3.1335   -2.6554 N   0  0  0  0  0  0  0  0  0  0  0  0
    1.6575   -3.5673   -1.8933 C   0  0  0  0  0  0  0  0  0  0  0  0
    1.7838   -4.4318   -0.8024 C   0  0  0  0  0  0  0  0  0  0  0  0
    0.7550   -4.8649   -0.0359 N   0  0  0  0  0  0  0  0  0  0  0  0
   -0.4689   -4.4202   -0.3690 C   0  0  0  0  0  0  0  0  0  0  0  0
   -0.7259   -3.5467   -1.4222 C   0  0  0  0  0  0  0  0  0  0  0  0
    0.3590   -3.1120   -2.2147 C   0  0  0  0  0  0  0  0  0  0  0  0
    0.1042   -2.1610   -3.3665 C   0  0  0  0  0  0  0  0  0  0  0  0
   -1.3530   -2.1208   -3.8293 C   0  0  0  0  0  0  0  0  0  0  0  0
   -2.2868   -1.9693   -2.6391 C   0  0  0  0  0  0  0  0  0  0  0  0
   -2.1552   -3.1753   -1.7167 C   0  0  0  0  0  0  0  0  0  0  0  0
    4.4895   -2.3790   -4.8260 C   0  0  0  0  0  0  0  0  0  0  0  0
    4.0070   -3.1753   -5.8789 C   0  0  0  0  0  0  0  0  0  0  0  0
    3.3807   -2.5822   -6.9738 C   0  0  0  0  0  0  0  0  0  0  0  0
    2.7124   -3.5720   -8.2103 Cl  0  0  0  0  0  0  0  0  0  0  0  0
    3.2546   -1.1963   -7.0518 C   0  0  0  0  0  0  0  0  0  0  0  0
    3.7468   -0.3921   -6.0206 C   0  0  0  0  0  0  0  0  0  0  0  0
    4.3526   -0.9765   -4.9016 C   0  0  0  0  0  0  0  0  0  0  0  0
    4.6501   -0.1147   -3.7146 C   0  0  0  0  0  0  0  0  0  0  0  0
    4.3842    1.0807   -3.7161 O   0  0  0  0  0  0  0  0  0  0  0  0
    8.2263    2.4605   -1.2500 H   0  0  0  0  0  0  0  0  0  0  0  0
    8.2199    1.3556    0.1592 H   0  0  0  0  0  0  0  0  0  0  0  0
    7.0689    2.7160    0.0938 H   0  0  0  0  0  0  0  0  0  0  0  0
    6.4100    1.3089   -2.1433 H   0  0  0  0  0  0  0  0  0  0  0  0
    3.8254    0.3367   -1.3622 H   0  0  0  0  0  0  0  0  0  0  0  0
    4.3529   -1.2194   -0.7029 H   0  0  0  0  0  0  0  0  0  0  0  0
    6.0883   -2.4347   -1.7445 H   0  0  0  0  0  0  0  0  0  0  0  0
    6.7719   -1.7879   -3.2410 H   0  0  0  0  0  0  0  0  0  0  0  0
    5.7529   -3.8224   -3.9086 H   0  0  0  0  0  0  0  0  0  0  0  0
    2.5851   -2.3904   -3.3131 H   0  0  0  0  0  0  0  0  0  0  0  0
    2.7456   -4.8039   -0.4653 H   0  0  0  0  0  0  0  0  0  0  0  0
   -1.2737   -4.8029    0.2551 H   0  0  0  0  0  0  0  0  0  0  0  0
    0.7115   -2.4409   -4.2348 H   0  0  0  0  0  0  0  0  0  0  0  0
    0.4107   -1.1553   -3.0513 H   0  0  0  0  0  0  0  0  0  0  0  0
   -1.5958   -3.0436   -4.3720 H   0  0  0  0  0  0  0  0  0  0  0  0
   -1.4958   -1.2904   -4.5300 H   0  0  0  0  0  0  0  0  0  0  0  0
   -3.3246   -1.8782   -2.9792 H   0  0  0  0  0  0  0  0  0  0  0  0
   -2.0440   -1.0495   -2.0928 H   0  0  0  0  0  0  0  0  0  0  0  0
   -2.6393   -4.0420   -2.1846 H   0  0  0  0  0  0  0  0  0  0  0  0
   -2.6883   -2.9652   -0.7818 H   0  0  0  0  0  0  0  0  0  0  0  0
    4.0818   -4.2612   -5.8249 H   0  0  0  0  0  0  0  0  0  0  0  0
    2.7476   -0.7367   -7.8969 H   0  0  0  0  0  0  0  0  0  0  0  0
    3.6091    0.6871   -6.0708 H   0  0  0  0  0  0  0  0  0  0  0  0
  1  2  1  0  0  0  0
  1 31  1  0  0  0  0
  1 32  1  0  0  0  0
  1 33  1  0  0  0  0
  2  3  1  0  0  0  0
  2 34  1  0  0  0  0
  3  4  2  0  0  0  0
  3  5  1  0  0  0  0
  5  6  1  0  0  0  0
  5 35  1  0  0  0  0
  5 36  1  0  0  0  0
  6  7  1  0  0  0  0
  6 29  1  0  0  0  0
  7  8  1  0  0  0  0
  7 37  1  0  0  0  0
  7 38  1  0  0  0  0
  8  9  1  0  0  0  0
  8 22  1  0  0  0  0
  8 39  1  0  0  0  0
  9 10  2  0  0  0  0
  9 11  1  0  0  0  0
 11 12  1  0  0  0  0
 11 40  1  0  0  0  0
 12 13  1  0  0  0  0
 12 17  2  0  0  0  0
 13 14  2  0  0  0  0
 13 41  1  0  0  0  0
 14 15  1  0  0  0  0
 15 16  2  0  0  0  0
 15 42  1  0  0  0  0
 16 17  1  0  0  0  0
 16 21  1  0  0  0  0
 17 18  1  0  0  0  0
 18 19  1  0  0  0  0
 18 43  1  0  0  0  0
 18 44  1  0  0  0  0
 19 20  1  0  0  0  0
 19 45  1  0  0  0  0
 19 46  1  0  0  0  0
 20 21  1  0  0  0  0
 20 47  1  0  0  0  0
 20 48  1  0  0  0  0
 21 49  1  0  0  0  0
 21 50  1  0  0  0  0
 22 23  1  0  0  0  0
 22 28  2  0  0  0  0
 23 24  2  0  0  0  0
 23 51  1  0  0  0  0
 24 25  1  0  0  0  0
 24 26  1  0  0  0  0
 26 27  2  0  0  0  0
 26 52  1  0  0  0  0
 27 28  1  0  0  0  0
 27 53  1  0  0  0  0
 28 29  1  0  0  0  0
 29 30  2  0  0  0  0
M  END
$$$$
