
 OpenBabel07202414183D

 40 43  0  0  1  0  0  0  0  0999 V2000
    1.0968   -0.0037   -0.0121 Cl  0  0  0  0  0  0  0  0  0  0  0  0
    2.8143   -0.0852    0.0189 C   0  0  0  0  0  0  0  0  0  0  0  0
    3.5657    1.0690   -0.1643 C   0  0  0  0  0  0  0  0  0  0  0  0
    4.9606    0.9992   -0.1399 C   0  0  0  0  0  0  0  0  0  0  0  0
    5.6175   -0.2128    0.1035 C   0  0  0  0  0  0  0  0  0  0  0  0
    4.8492   -1.3782    0.2735 C   0  0  0  0  0  0  0  0  0  0  0  0
    3.4446   -1.3078    0.2355 C   0  0  0  0  0  0  0  0  0  0  0  0
    5.5296   -2.6988    0.6058 C   0  0  2  0  0  0  0  0  0  0  0  0
    5.4514   -3.0681    2.1023 C   0  0  0  0  0  0  0  0  0  0  0  0
    5.4955   -4.2477    2.4496 O   0  0  0  0  0  0  0  0  0  0  0  0
    5.4213   -1.9879    2.9639 N   0  0  0  0  0  0  0  0  0  0  0  0
    5.1935   -1.9765    4.3631 C   0  0  0  0  0  0  0  0  0  0  0  0
    5.0084   -3.1356    5.1114 C   0  0  0  0  0  0  0  0  0  0  0  0
    4.6188   -3.1538    6.4081 N   0  0  0  0  0  0  0  0  0  0  0  0
    4.4517   -1.9557    7.0035 C   0  0  0  0  0  0  0  0  0  0  0  0
    4.7202   -0.7272    6.4017 C   0  0  0  0  0  0  0  0  0  0  0  0
    4.6348    0.4755    7.1284 C   0  0  0  0  0  0  0  0  0  0  0  0
    4.9262    1.6960    6.5240 C   0  0  0  0  0  0  0  0  0  0  0  0
    5.2772    1.7302    5.1820 C   0  0  0  0  0  0  0  0  0  0  0  0
    5.3563    0.5452    4.4483 C   0  0  0  0  0  0  0  0  0  0  0  0
    5.0959   -0.7237    5.0372 C   0  0  0  0  0  0  0  0  0  0  0  0
    6.9837   -2.7013    0.1272 C   0  0  0  0  0  0  0  0  0  0  0  0
    7.6990   -1.4331    0.5661 C   0  0  0  0  0  0  0  0  0  0  0  0
    7.0072   -0.2562    0.0640 N   0  0  0  0  0  0  0  0  0  0  0  0
    3.0755    2.0249   -0.3360 H   0  0  0  0  0  0  0  0  0  0  0  0
    5.5334    1.9082   -0.3062 H   0  0  0  0  0  0  0  0  0  0  0  0
    2.8483   -2.2041    0.3854 H   0  0  0  0  0  0  0  0  0  0  0  0
    4.9949   -3.4930    0.0663 H   0  0  0  0  0  0  0  0  0  0  0  0
    5.4095   -1.0792    2.5224 H   0  0  0  0  0  0  0  0  0  0  0  0
    5.1499   -4.1269    4.6952 H   0  0  0  0  0  0  0  0  0  0  0  0
    4.0850   -2.0130    8.0251 H   0  0  0  0  0  0  0  0  0  0  0  0
    4.3631    0.4638    8.1824 H   0  0  0  0  0  0  0  0  0  0  0  0
    4.8873    2.6165    7.1018 H   0  0  0  0  0  0  0  0  0  0  0  0
    5.5030    2.6793    4.7023 H   0  0  0  0  0  0  0  0  0  0  0  0
    5.6583    0.6368    3.4103 H   0  0  0  0  0  0  0  0  0  0  0  0
    7.0002   -2.7594   -0.9694 H   0  0  0  0  0  0  0  0  0  0  0  0
    7.5186   -3.5805    0.5035 H   0  0  0  0  0  0  0  0  0  0  0  0
    8.7201   -1.4350    0.1691 H   0  0  0  0  0  0  0  0  0  0  0  0
    7.7831   -1.3771    1.6569 H   0  0  0  0  0  0  0  0  0  0  0  0
    7.4788    0.6276    0.2364 H   0  0  0  0  0  0  0  0  0  0  0  0
  1  2  1  0  0  0  0
  2  3  1  0  0  0  0
  2  7  2  0  0  0  0
  3  4  2  0  0  0  0
  3 25  1  0  0  0  0
  4  5  1  0  0  0  0
  4 26  1  0  0  0  0
  5  6  2  0  0  0  0
  5 24  1  0  0  0  0
  6  7  1  0  0  0  0
  6  8  1  0  0  0  0
  7 27  1  0  0  0  0
  8  9  1  0  0  0  0
  8 22  1  0  0  0  0
  8 28  1  6  0  0  0
  9 10  2  0  0  0  0
  9 11  1  0  0  0  0
 11 12  1  0  0  0  0
 11 29  1  0  0  0  0
 12 13  1  0  0  0  0
 12 21  2  0  0  0  0
 13 14  2  0  0  0  0
 13 30  1  0  0  0  0
 14 15  1  0  0  0  0
 15 16  2  0  0  0  0
 15 31  1  0  0  0  0
 16 17  1  0  0  0  0
 16 21  1  0  0  0  0
 17 18  2  0  0  0  0
 17 32  1  0  0  0  0
 18 19  1  0  0  0  0
 18 33  1  0  0  0  0
 19 20  2  0  0  0  0
 19 34  1  0  0  0  0
 20 21  1  0  0  0  0
 20 35  1  0  0  0  0
 22 23  1  0  0  0  0
 22 36  1  0  0  0  0
 22 37  1  0  0  0  0
 23 24  1  0  0  0  0
 23 38  1  0  0  0  0
 23 39  1  0  0  0  0
 24 40  1  0  0  0  0
M  END
$$$$
