
 OpenBabel07202414173D

 36 39  0  0  1  0  0  0  0  0999 V2000
    5.7612   -2.3634    2.4499 Cl  0  0  0  0  0  0  0  0  0  0  0  0
    6.3300   -1.0701    1.4495 C   0  0  0  0  0  0  0  0  0  0  0  0
    7.6466   -1.1116    0.9669 C   0  0  0  0  0  0  0  0  0  0  0  0
    8.1136   -0.0480    0.1708 C   0  0  0  0  0  0  0  0  0  0  0  0
    7.2593    0.9962   -0.0896 C   0  0  0  0  0  0  0  0  0  0  0  0
    5.9685    1.0380    0.3858 C   0  0  0  0  0  0  0  0  0  0  0  0
    5.4679   -0.0160    1.1760 C   0  0  0  0  0  0  0  0  0  0  0  0
    5.2940    2.2979    0.0296 C   0  0  3  0  0  0  0  0  0  0  0  0
    4.9368    3.1097    1.2614 C   0  0  0  0  0  0  0  0  0  0  0  0
    5.7615    3.4265    2.1050 O   0  0  0  0  0  0  0  0  0  0  0  0
    3.6954    3.6700    1.3637 N   0  0  0  0  0  0  0  0  0  0  0  0
    2.4956    2.9325    1.5726 C   0  0  0  0  0  0  0  0  0  0  0  0
    1.5083    3.1880    0.6146 C   0  0  0  0  0  0  0  0  0  0  0  0
    0.2343    3.4558    0.9591 N   0  0  0  0  0  0  0  0  0  0  0  0
   -0.0456    3.3435    2.2696 C   0  0  0  0  0  0  0  0  0  0  0  0
    0.7153    2.6312    3.1725 C   0  0  0  0  0  0  0  0  0  0  0  0
    0.1556    2.0937    4.3479 C   0  0  0  0  0  0  0  0  0  0  0  0
    0.9786    1.5527    5.3232 C   0  0  0  0  0  0  0  0  0  0  0  0
    2.3604    1.6451    5.1658 C   0  0  0  0  0  0  0  0  0  0  0  0
    2.9140    2.1419    3.9724 C   0  0  0  0  0  0  0  0  0  0  0  0
    2.0936    2.5516    2.8875 C   0  0  0  0  0  0  0  0  0  0  0  0
    6.4518    2.9850   -0.7266 C   0  0  0  0  0  0  0  0  0  0  0  0
    7.6107    2.1102   -0.8006 O   0  0  0  0  0  0  0  0  0  0  0  0
    8.2942   -1.9420    1.2005 H   0  0  0  0  0  0  0  0  0  0  0  0
    9.1298   -0.0490   -0.2017 H   0  0  0  0  0  0  0  0  0  0  0  0
    4.4747    0.0255    1.5516 H   0  0  0  0  0  0  0  0  0  0  0  0
    4.4383    2.1438   -0.6249 H   0  0  0  0  0  0  0  0  0  0  0  0
    3.8046    4.2922    2.1625 H   0  0  0  0  0  0  0  0  0  0  0  0
    1.7255    3.3393   -0.4241 H   0  0  0  0  0  0  0  0  0  0  0  0
   -0.6593    4.1635    2.6588 H   0  0  0  0  0  0  0  0  0  0  0  0
   -0.9268    2.0419    4.4623 H   0  0  0  0  0  0  0  0  0  0  0  0
    0.5458    1.0842    6.2028 H   0  0  0  0  0  0  0  0  0  0  0  0
    3.0071    1.3013    5.9702 H   0  0  0  0  0  0  0  0  0  0  0  0
    3.9963    2.1605    3.8803 H   0  0  0  0  0  0  0  0  0  0  0  0
    6.7783    3.9291   -0.2683 H   0  0  0  0  0  0  0  0  0  0  0  0
    6.1586    3.2203   -1.7600 H   0  0  0  0  0  0  0  0  0  0  0  0
  1  2  1  0  0  0  0
  2  3  1  0  0  0  0
  2  7  2  0  0  0  0
  3  4  2  0  0  0  0
  3 24  1  0  0  0  0
  4  5  1  0  0  0  0
  4 25  1  0  0  0  0
  5  6  2  0  0  0  0
  5 23  1  0  0  0  0
  6  7  1  0  0  0  0
  6  8  1  0  0  0  0
  7 26  1  0  0  0  0
  8  9  1  0  0  0  0
  8 22  1  0  0  0  0
  8 27  1  0  0  0  0
  9 10  2  0  0  0  0
  9 11  1  0  0  0  0
 11 12  1  0  0  0  0
 11 28  1  0  0  0  0
 12 13  1  0  0  0  0
 12 21  2  0  0  0  0
 13 14  2  0  0  0  0
 13 29  1  0  0  0  0
 14 15  1  0  0  0  0
 15 16  2  0  0  0  0
 15 30  1  0  0  0  0
 16 17  1  0  0  0  0
 16 21  1  0  0  0  0
 17 18  2  0  0  0  0
 17 31  1  0  0  0  0
 18 19  1  0  0  0  0
 18 32  1  0  0  0  0
 19 20  2  0  0  0  0
 19 33  1  0  0  0  0
 20 21  1  0  0  0  0
 20 34  1  0  0  0  0
 22 23  1  0  0  0  0
 22 35  1  0  0  0  0
 22 36  1  0  0  0  0
M  END
$$$$
