
 OpenBabel07202414163D

 44 45  0  0  0  0  0  0  0  0999 V2000
   -2.2537    4.5332    4.4659 C   0  0  0  0  0  0  0  0  0  0  0  0
   -1.0170    3.7256    4.1990 C   0  0  0  0  0  0  0  0  0  0  0  0
   -0.2530    3.3554    5.3231 C   0  0  0  0  0  0  0  0  0  0  0  0
    0.9275    2.6506    5.1561 C   0  0  0  0  0  0  0  0  0  0  0  0
    1.4041    2.2860    3.9532 N   0  0  0  0  0  0  0  0  0  0  0  0
    0.6656    2.6610    2.8795 C   0  0  0  0  0  0  0  0  0  0  0  0
   -0.5458    3.3569    2.9303 C   0  0  0  0  0  0  0  0  0  0  0  0
   -1.0721    3.6430    1.6979 O   0  0  0  0  0  0  0  0  0  0  0  0
   -2.4898    3.7166    1.5794 C   0  0  0  0  0  0  0  0  0  0  0  0
   -2.9005    3.8647    0.1098 C   0  0  0  0  0  0  0  0  0  0  0  0
   -4.3421    4.0537   -0.0330 N   0  0  0  0  0  0  0  0  0  0  0  0
   -4.9097    5.2995    0.1511 C   0  0  0  0  0  0  0  0  0  0  0  0
   -4.2117    6.2830    0.3890 O   0  0  0  0  0  0  0  0  0  0  0  0
   -6.4639    5.3773    0.0987 C   0  0  0  0  0  0  0  0  0  0  0  0
   -6.9967    4.5569    1.2950 C   0  0  0  0  0  0  0  0  0  0  0  0
   -6.8640    6.8533    0.3206 C   0  0  0  0  0  0  0  0  0  0  0  0
   -7.0603    4.9150   -1.2453 C   0  0  0  0  0  0  0  0  0  0  0  0
   -8.3574    4.3664   -1.3274 C   0  0  0  0  0  0  0  0  0  0  0  0
   -8.9060    3.9663   -2.5512 C   0  0  0  0  0  0  0  0  0  0  0  0
   -8.1782    4.1210   -3.7239 C   0  0  0  0  0  0  0  0  0  0  0  0
   -6.9092    4.6889   -3.6721 C   0  0  0  0  0  0  0  0  0  0  0  0
   -6.3568    5.0915   -2.4513 C   0  0  0  0  0  0  0  0  0  0  0  0
   -6.0136    4.8976   -5.1267 Cl  0  0  0  0  0  0  0  0  0  0  0  0
   -2.3727    4.7517    5.5331 H   0  0  0  0  0  0  0  0  0  0  0  0
   -3.1488    3.9801    4.1675 H   0  0  0  0  0  0  0  0  0  0  0  0
   -2.1998    5.4985    3.9533 H   0  0  0  0  0  0  0  0  0  0  0  0
   -0.5632    3.6311    6.3271 H   0  0  0  0  0  0  0  0  0  0  0  0
    1.5362    2.3665    6.0096 H   0  0  0  0  0  0  0  0  0  0  0  0
    1.0918    2.3682    1.9227 H   0  0  0  0  0  0  0  0  0  0  0  0
   -2.8617    4.6008    2.0965 H   0  0  0  0  0  0  0  0  0  0  0  0
   -2.9509    2.8129    1.9968 H   0  0  0  0  0  0  0  0  0  0  0  0
   -2.6068    2.9844   -0.4717 H   0  0  0  0  0  0  0  0  0  0  0  0
   -2.3793    4.7246   -0.3296 H   0  0  0  0  0  0  0  0  0  0  0  0
   -4.9322    3.2465   -0.1966 H   0  0  0  0  0  0  0  0  0  0  0  0
   -6.4969    4.8448    2.2272 H   0  0  0  0  0  0  0  0  0  0  0  0
   -6.8367    3.4820    1.1533 H   0  0  0  0  0  0  0  0  0  0  0  0
   -8.0697    4.7136    1.4536 H   0  0  0  0  0  0  0  0  0  0  0  0
   -6.4763    7.2264    1.2771 H   0  0  0  0  0  0  0  0  0  0  0  0
   -7.9513    6.9867    0.3314 H   0  0  0  0  0  0  0  0  0  0  0  0
   -6.4566    7.5018   -0.4652 H   0  0  0  0  0  0  0  0  0  0  0  0
   -8.9809    4.2522   -0.4449 H   0  0  0  0  0  0  0  0  0  0  0  0
   -9.9096    3.5449   -2.5852 H   0  0  0  0  0  0  0  0  0  0  0  0
   -8.6074    3.8101   -4.6740 H   0  0  0  0  0  0  0  0  0  0  0  0
   -5.3711    5.5538   -2.4551 H   0  0  0  0  0  0  0  0  0  0  0  0
  1  2  1  0  0  0  0
  1 24  1  0  0  0  0
  1 25  1  0  0  0  0
  1 26  1  0  0  0  0
  2  3  1  0  0  0  0
  2  7  2  0  0  0  0
  3  4  2  0  0  0  0
  3 27  1  0  0  0  0
  4  5  1  0  0  0  0
  4 28  1  0  0  0  0
  5  6  2  0  0  0  0
  6  7  1  0  0  0  0
  6 29  1  0  0  0  0
  7  8  1  0  0  0  0
  8  9  1  0  0  0  0
  9 10  1  0  0  0  0
  9 30  1  0  0  0  0
  9 31  1  0  0  0  0
 10 11  1  0  0  0  0
 10 32  1  0  0  0  0
 10 33  1  0  0  0  0
 11 12  1  0  0  0  0
 11 34  1  0  0  0  0
 12 13  2  0  0  0  0
 12 14  1  0  0  0  0
 14 15  1  0  0  0  0
 14 16  1  0  0  0  0
 14 17  1  0  0  0  0
 15 35  1  0  0  0  0
 15 36  1  0  0  0  0
 15 37  1  0  0  0  0
 16 38  1  0  0  0  0
 16 39  1  0  0  0  0
 16 40  1  0  0  0  0
 17 18  1  0  0  0  0
 17 22  2  0  0  0  0
 18 19  2  0  0  0  0
 18 41  1  0  0  0  0
 19 20  1  0  0  0  0
 19 42  1  0  0  0  0
 20 21  2  0  0  0  0
 20 43  1  0  0  0  0
 21 22  1  0  0  0  0
 21 23  1  0  0  0  0
 22 44  1  0  0  0  0
M  END
$$$$
