
 OpenBabel07202414193D

 52 56  0  0  0  0  0  0  0  0999 V2000
    7.5058   -3.0934    0.4765 N   0  0  0  0  0  0  0  0  0  0  0  0
    6.5823   -2.0398    0.6080 C   0  0  0  0  0  0  0  0  0  0  0  0
    7.0828   -0.7587    0.8831 C   0  0  0  0  0  0  0  0  0  0  0  0
    6.2565    0.3634    0.8278 C   0  0  0  0  0  0  0  0  0  0  0  0
    4.9329    0.2289    0.4167 C   0  0  0  0  0  0  0  0  0  0  0  0
    4.4240   -1.0386    0.1012 C   0  0  0  0  0  0  0  0  0  0  0  0
    5.2277   -2.1662    0.2312 C   0  0  0  0  0  0  0  0  0  0  0  0
    4.6088   -3.5142    0.0939 C   0  0  0  0  0  0  0  0  0  0  0  0
    5.2670   -4.5093    0.3964 O   0  0  0  0  0  0  0  0  0  0  0  0
    3.2797   -3.5625   -0.3430 N   0  0  0  0  0  0  0  0  0  0  0  0
    2.5720   -4.7970   -0.4177 C   0  0  0  0  0  0  0  0  0  0  0  0
    2.6728   -5.7396    0.6210 C   0  0  0  0  0  0  0  0  0  0  0  0
    2.0073   -6.9741    0.5553 C   0  0  0  0  0  0  0  0  0  0  0  0
    2.1366   -7.9797    1.6768 C   0  0  0  0  0  0  0  0  0  0  0  0
    0.9663   -7.9939    2.6421 C   0  0  0  0  0  0  0  0  0  0  0  0
    0.0485   -8.8010    2.5181 O   0  0  0  0  0  0  0  0  0  0  0  0
    1.0244   -7.0141    3.6262 N   0  0  0  0  0  0  0  0  0  0  0  0
   -0.0136   -6.8774    4.5849 C   0  0  0  0  0  0  0  0  0  0  0  0
   -0.4854   -7.9932    5.2815 C   0  0  0  0  0  0  0  0  0  0  0  0
   -1.4857   -7.9637    6.1901 N   0  0  0  0  0  0  0  0  0  0  0  0
   -2.0766   -6.7673    6.3852 C   0  0  0  0  0  0  0  0  0  0  0  0
   -1.6969   -5.5811    5.7537 C   0  0  0  0  0  0  0  0  0  0  0  0
   -2.3867   -4.3775    5.9847 C   0  0  0  0  0  0  0  0  0  0  0  0
   -2.0124   -3.2055    5.3312 C   0  0  0  0  0  0  0  0  0  0  0  0
   -0.9423   -3.2206    4.4456 C   0  0  0  0  0  0  0  0  0  0  0  0
   -0.2512   -4.4104    4.2028 C   0  0  0  0  0  0  0  0  0  0  0  0
   -0.6118   -5.6207    4.8449 C   0  0  0  0  0  0  0  0  0  0  0  0
    1.2524   -7.2668   -0.5879 C   0  0  0  0  0  0  0  0  0  0  0  0
    1.1579   -6.3369   -1.6257 C   0  0  0  0  0  0  0  0  0  0  0  0
    0.2950   -6.7409   -3.0599 Cl  0  0  0  0  0  0  0  0  0  0  0  0
    1.7871   -5.0949   -1.5347 C   0  0  0  0  0  0  0  0  0  0  0  0
    2.6492   -2.4067   -0.8210 N   0  0  0  0  0  0  0  0  0  0  0  0
    3.0519   -1.1591   -0.4158 C   0  0  0  0  0  0  0  0  0  0  0  0
    2.3152   -0.1851   -0.5115 O   0  0  0  0  0  0  0  0  0  0  0  0
    8.3076   -3.0488    1.0961 H   0  0  0  0  0  0  0  0  0  0  0  0
    7.0521   -4.0148    0.4883 H   0  0  0  0  0  0  0  0  0  0  0  0
    8.1322   -0.6291    1.1406 H   0  0  0  0  0  0  0  0  0  0  0  0
    6.6569    1.3461    1.0684 H   0  0  0  0  0  0  0  0  0  0  0  0
    4.3045    1.1132    0.3297 H   0  0  0  0  0  0  0  0  0  0  0  0
    3.2763   -5.5089    1.4964 H   0  0  0  0  0  0  0  0  0  0  0  0
    3.0633   -7.8132    2.2389 H   0  0  0  0  0  0  0  0  0  0  0  0
    2.2263   -8.9874    1.2518 H   0  0  0  0  0  0  0  0  0  0  0  0
    1.5548   -6.1864    3.3944 H   0  0  0  0  0  0  0  0  0  0  0  0
   -0.0389   -8.9746    5.1426 H   0  0  0  0  0  0  0  0  0  0  0  0
   -2.9102   -6.7906    7.0817 H   0  0  0  0  0  0  0  0  0  0  0  0
   -3.2367   -4.3522    6.6636 H   0  0  0  0  0  0  0  0  0  0  0  0
   -2.5633   -2.2847    5.5059 H   0  0  0  0  0  0  0  0  0  0  0  0
   -0.6547   -2.3099    3.9263 H   0  0  0  0  0  0  0  0  0  0  0  0
    0.5569   -4.3765    3.4787 H   0  0  0  0  0  0  0  0  0  0  0  0
    0.7548   -8.2308   -0.6829 H   0  0  0  0  0  0  0  0  0  0  0  0
    1.7311   -4.4073   -2.3740 H   0  0  0  0  0  0  0  0  0  0  0  0
    1.6558   -2.4721   -1.0317 H   0  0  0  0  0  0  0  0  0  0  0  0
  1  2  1  0  0  0  0
  1 35  1  0  0  0  0
  1 36  1  0  0  0  0
  2  3  2  0  0  0  0
  2  7  1  0  0  0  0
  3  4  1  0  0  0  0
  3 37  1  0  0  0  0
  4  5  2  0  0  0  0
  4 38  1  0  0  0  0
  5  6  1  0  0  0  0
  5 39  1  0  0  0  0
  6  7  2  0  0  0  0
  6 33  1  0  0  0  0
  7  8  1  0  0  0  0
  8  9  2  0  0  0  0
  8 10  1  0  0  0  0
 10 11  1  0  0  0  0
 10 32  1  0  0  0  0
 11 12  2  0  0  0  0
 11 31  1  0  0  0  0
 12 13  1  0  0  0  0
 12 40  1  0  0  0  0
 13 14  1  0  0  0  0
 13 28  2  0  0  0  0
 14 15  1  0  0  0  0
 14 41  1  0  0  0  0
 14 42  1  0  0  0  0
 15 16  2  0  0  0  0
 15 17  1  0  0  0  0
 17 18  1  0  0  0  0
 17 43  1  0  0  0  0
 18 19  2  0  0  0  0
 18 27  1  0  0  0  0
 19 20  1  0  0  0  0
 19 44  1  0  0  0  0
 20 21  2  0  0  0  0
 21 22  1  0  0  0  0
 21 45  1  0  0  0  0
 22 23  2  0  0  0  0
 22 27  1  0  0  0  0
 23 24  1  0  0  0  0
 23 46  1  0  0  0  0
 24 25  2  0  0  0  0
 24 47  1  0  0  0  0
 25 26  1  0  0  0  0
 25 48  1  0  0  0  0
 26 27  2  0  0  0  0
 26 49  1  0  0  0  0
 28 29  1  0  0  0  0
 28 50  1  0  0  0  0
 29 30  1  0  0  0  0
 29 31  2  0  0  0  0
 31 51  1  0  0  0  0
 32 33  1  0  0  0  0
 32 52  1  0  0  0  0
 33 34  2  0  0  0  0
M  END
$$$$
