
 OpenBabel07202414163D

 39 41  0  0  1  0  0  0  0  0999 V2000
   -2.7914    2.6712    1.8980 C   0  0  0  0  0  0  0  0  0  0  0  0
   -2.2622    1.2670    2.0196 C   0  0  0  0  0  0  0  0  0  0  0  0
   -1.4083    0.9695    3.0962 C   0  0  0  0  0  0  0  0  0  0  0  0
   -0.8793   -0.3071    3.2271 C   0  0  0  0  0  0  0  0  0  0  0  0
   -1.1851   -1.2850    2.2852 C   0  0  0  0  0  0  0  0  0  0  0  0
   -2.0193   -1.0269    1.1647 C   0  0  0  0  0  0  0  0  0  0  0  0
   -2.5754    0.2652    1.0737 C   0  0  0  0  0  0  0  0  0  0  0  0
   -2.0043   -2.1020    0.0527 C   0  0  3  0  0  0  0  0  0  0  0  0
   -0.6523   -1.9714   -0.7027 C   0  0  0  0  0  0  0  0  0  0  0  0
   -0.6270   -0.6842   -1.4201 N   0  0  0  0  0  0  0  0  0  0  0  0
   -1.7148   -0.4609   -2.3722 C   0  0  0  0  0  0  0  0  0  0  0  0
   -2.8379   -1.4617   -2.2699 C   0  0  0  0  0  0  0  0  0  0  0  0
   -3.0426   -2.1996   -1.0789 C   0  0  0  0  0  0  0  0  0  0  0  0
   -3.9564   -3.2677   -1.1243 C   0  0  0  0  0  0  0  0  0  0  0  0
   -4.6435   -3.5831   -2.3142 C   0  0  0  0  0  0  0  0  0  0  0  0
   -4.4768   -2.8095   -3.4544 C   0  0  0  0  0  0  0  0  0  0  0  0
   -3.5931   -1.7383   -3.4304 C   0  0  0  0  0  0  0  0  0  0  0  0
    0.2524    0.3037   -0.9950 C   0  0  0  0  0  0  0  0  0  0  0  0
    1.1136    0.0694   -0.1403 O   0  0  0  0  0  0  0  0  0  0  0  0
    0.0827    1.7321   -1.4872 C   0  0  0  0  0  0  0  0  0  0  0  0
    0.1559    1.8798   -3.2524 Cl  0  0  0  0  0  0  0  0  0  0  0  0
   -2.4278    3.3101    2.7101 H   0  0  0  0  0  0  0  0  0  0  0  0
   -3.8845    2.6694    1.9447 H   0  0  0  0  0  0  0  0  0  0  0  0
   -2.4613    3.1178    0.9553 H   0  0  0  0  0  0  0  0  0  0  0  0
   -1.1324    1.7337    3.8215 H   0  0  0  0  0  0  0  0  0  0  0  0
   -0.1875   -0.5286    4.0351 H   0  0  0  0  0  0  0  0  0  0  0  0
   -0.6913   -2.2527    2.3788 H   0  0  0  0  0  0  0  0  0  0  0  0
   -3.2002    0.5247    0.2224 H   0  0  0  0  0  0  0  0  0  0  0  0
   -2.0196   -3.0718    0.5696 H   0  0  0  0  0  0  0  0  0  0  0  0
   -0.5384   -2.7751   -1.4423 H   0  0  0  0  0  0  0  0  0  0  0  0
    0.1960   -2.0639   -0.0155 H   0  0  0  0  0  0  0  0  0  0  0  0
   -1.2626   -0.5494   -3.3669 H   0  0  0  0  0  0  0  0  0  0  0  0
   -2.1361    0.5404   -2.2452 H   0  0  0  0  0  0  0  0  0  0  0  0
   -4.0640   -3.9424   -0.2779 H   0  0  0  0  0  0  0  0  0  0  0  0
   -5.2757   -4.4675   -2.3584 H   0  0  0  0  0  0  0  0  0  0  0  0
   -4.9841   -3.0731   -4.3820 H   0  0  0  0  0  0  0  0  0  0  0  0
   -3.4181   -1.1683   -4.3448 H   0  0  0  0  0  0  0  0  0  0  0  0
    0.9137    2.3298   -1.0982 H   0  0  0  0  0  0  0  0  0  0  0  0
   -0.8524    2.1552   -1.1102 H   0  0  0  0  0  0  0  0  0  0  0  0
  1  2  1  0  0  0  0
  1 22  1  0  0  0  0
  1 23  1  0  0  0  0
  1 24  1  0  0  0  0
  2  3  1  0  0  0  0
  2  7  2  0  0  0  0
  3  4  2  0  0  0  0
  3 25  1  0  0  0  0
  4  5  1  0  0  0  0
  4 26  1  0  0  0  0
  5  6  2  0  0  0  0
  5 27  1  0  0  0  0
  6  7  1  0  0  0  0
  6  8  1  0  0  0  0
  7 28  1  0  0  0  0
  8  9  1  0  0  0  0
  8 13  1  0  0  0  0
  8 29  1  0  0  0  0
  9 10  1  0  0  0  0
  9 30  1  0  0  0  0
  9 31  1  0  0  0  0
 10 11  1  0  0  0  0
 10 18  1  0  0  0  0
 11 12  1  0  0  0  0
 11 32  1  0  0  0  0
 11 33  1  0  0  0  0
 12 13  1  0  0  0  0
 12 17  2  0  0  0  0
 13 14  2  0  0  0  0
 14 15  1  0  0  0  0
 14 34  1  0  0  0  0
 15 16  2  0  0  0  0
 15 35  1  0  0  0  0
 16 17  1  0  0  0  0
 16 36  1  0  0  0  0
 17 37  1  0  0  0  0
 18 19  2  0  0  0  0
 18 20  1  0  0  0  0
 20 21  1  0  0  0  0
 20 38  1  0  0  0  0
 20 39  1  0  0  0  0
M  END
$$$$
