
 OpenBabel07202414113D

 41 42  0  0  0  0  0  0  0  0999 V2000
    7.3488   -0.9865   -1.1387 C   0  0  0  0  0  0  0  0  0  0  0  0
    6.2082   -1.2414   -0.1917 C   0  0  0  0  0  0  0  0  0  0  0  0
    5.8437   -2.3708    0.1133 O   0  0  0  0  0  0  0  0  0  0  0  0
    5.6255   -0.0898    0.2846 N   0  0  0  0  0  0  0  0  0  0  0  0
    4.5426   -0.1273    1.2409 C   0  0  0  0  0  0  0  0  0  0  0  0
    5.0699   -0.0770    2.6531 C   0  0  0  0  0  0  0  0  0  0  0  0
    5.3581   -1.2668    3.3371 C   0  0  0  0  0  0  0  0  0  0  0  0
    5.8710   -1.2246    4.6317 C   0  0  0  0  0  0  0  0  0  0  0  0
    6.2026   -2.6877    5.4727 Cl  0  0  0  0  0  0  0  0  0  0  0  0
    6.1270   -0.0023    5.2504 C   0  0  0  0  0  0  0  0  0  0  0  0
    5.8699    1.1990    4.5764 C   0  0  0  0  0  0  0  0  0  0  0  0
    6.1584    2.5196    5.2474 C   0  0  0  0  0  0  0  0  0  0  0  0
    7.0963    3.4282    4.4709 C   0  0  0  0  0  0  0  0  0  0  0  0
    6.7513    4.5685    4.1641 O   0  0  0  0  0  0  0  0  0  0  0  0
    8.3241    2.8572    4.1657 N   0  0  0  0  0  0  0  0  0  0  0  0
    9.3292    3.5845    3.4852 C   0  0  0  0  0  0  0  0  0  0  0  0
    9.8647    3.0524    2.3115 C   0  0  0  0  0  0  0  0  0  0  0  0
   10.7941    3.6648    1.5426 N   0  0  0  0  0  0  0  0  0  0  0  0
   11.2278    4.8659    1.9756 C   0  0  0  0  0  0  0  0  0  0  0  0
   10.8017    5.4594    3.1541 C   0  0  0  0  0  0  0  0  0  0  0  0
    9.8492    4.8033    3.9477 C   0  0  0  0  0  0  0  0  0  0  0  0
    9.4785    5.4054    5.2738 C   0  0  0  0  0  0  0  0  0  0  0  0
    5.3243    1.1515    3.2822 C   0  0  0  0  0  0  0  0  0  0  0  0
    7.7528   -1.9405   -1.4896 H   0  0  0  0  0  0  0  0  0  0  0  0
    8.1423   -0.4343   -0.6279 H   0  0  0  0  0  0  0  0  0  0  0  0
    6.9943   -0.4164   -2.0017 H   0  0  0  0  0  0  0  0  0  0  0  0
    6.0468    0.8035    0.0697 H   0  0  0  0  0  0  0  0  0  0  0  0
    3.9338   -1.0254    1.0885 H   0  0  0  0  0  0  0  0  0  0  0  0
    3.8980    0.7372    1.0448 H   0  0  0  0  0  0  0  0  0  0  0  0
    5.1842   -2.2280    2.8543 H   0  0  0  0  0  0  0  0  0  0  0  0
    6.5270    0.0098    6.2630 H   0  0  0  0  0  0  0  0  0  0  0  0
    6.5990    2.3693    6.2405 H   0  0  0  0  0  0  0  0  0  0  0  0
    5.2095    3.0480    5.4010 H   0  0  0  0  0  0  0  0  0  0  0  0
    8.2810    1.8622    3.9693 H   0  0  0  0  0  0  0  0  0  0  0  0
    9.5220    2.1007    1.9165 H   0  0  0  0  0  0  0  0  0  0  0  0
   11.9609    5.3541    1.3395 H   0  0  0  0  0  0  0  0  0  0  0  0
   11.2231    6.4133    3.4565 H   0  0  0  0  0  0  0  0  0  0  0  0
   10.2027    6.1702    5.5762 H   0  0  0  0  0  0  0  0  0  0  0  0
    9.4870    4.6401    6.0581 H   0  0  0  0  0  0  0  0  0  0  0  0
    8.4987    5.8842    5.2347 H   0  0  0  0  0  0  0  0  0  0  0  0
    5.0940    2.0801    2.7589 H   0  0  0  0  0  0  0  0  0  0  0  0
  1  2  1  0  0  0  0
  1 24  1  0  0  0  0
  1 25  1  0  0  0  0
  1 26  1  0  0  0  0
  2  3  2  0  0  0  0
  2  4  1  0  0  0  0
  4  5  1  0  0  0  0
  4 27  1  0  0  0  0
  5  6  1  0  0  0  0
  5 28  1  0  0  0  0
  5 29  1  0  0  0  0
  6  7  1  0  0  0  0
  6 23  2  0  0  0  0
  7  8  2  0  0  0  0
  7 30  1  0  0  0  0
  8  9  1  0  0  0  0
  8 10  1  0  0  0  0
 10 11  2  0  0  0  0
 10 31  1  0  0  0  0
 11 12  1  0  0  0  0
 11 23  1  0  0  0  0
 12 13  1  0  0  0  0
 12 32  1  0  0  0  0
 12 33  1  0  0  0  0
 13 14  2  0  0  0  0
 13 15  1  0  0  0  0
 15 16  1  0  0  0  0
 15 34  1  0  0  0  0
 16 17  1  0  0  0  0
 16 21  2  0  0  0  0
 17 18  2  0  0  0  0
 17 35  1  0  0  0  0
 18 19  1  0  0  0  0
 19 20  2  0  0  0  0
 19 36  1  0  0  0  0
 20 21  1  0  0  0  0
 20 37  1  0  0  0  0
 21 22  1  0  0  0  0
 22 38  1  0  0  0  0
 22 39  1  0  0  0  0
 22 40  1  0  0  0  0
 23 41  1  0  0  0  0
M  END
$$$$
