
 OpenBabel07202414173D

 58 63  0  0  1  0  0  0  0  0999 V2000
    1.0198    0.3917   -0.0111 Cl  0  0  0  0  0  0  0  0  0  0  0  0
    2.7339    0.2615    0.0536 C   0  0  0  0  0  0  0  0  0  0  0  0
    3.5165    1.4054    0.0604 C   0  0  0  0  0  0  0  0  0  0  0  0
    4.9029    1.2820    0.0963 C   0  0  0  0  0  0  0  0  0  0  0  0
    5.5165    0.0147    0.1403 C   0  0  0  0  0  0  0  0  0  0  0  0
    4.7264   -1.1576    0.1429 C   0  0  0  0  0  0  0  0  0  0  0  0
    3.3260   -1.0017    0.0895 C   0  0  0  0  0  0  0  0  0  0  0  0
    5.3797   -2.5553    0.1991 C   0  0  3  0  0  0  0  0  0  0  0  0
    6.9085   -2.4790    0.0379 C   0  0  0  0  0  0  0  0  0  0  0  0
    7.5712   -1.3097    0.6755 N   0  0  0  0  0  0  0  0  0  0  0  0
    7.8503   -1.2445    2.3531 S   0  0  0  0  0  0  0  0  0  0  0  0
    8.7290   -0.1087    2.5477 O   0  0  0  0  0  0  0  0  0  0  0  0
    6.5707   -1.2823    3.0188 O   0  0  0  0  0  0  0  0  0  0  0  0
    8.8116   -2.7375    2.6631 C   0  0  0  0  0  0  0  0  0  0  0  0
    8.9141   -2.9190    4.1584 C   0  0  0  0  0  0  0  0  0  0  0  0
    9.4438   -1.8129    4.9190 C   0  0  0  0  0  0  0  0  0  0  0  0
    9.9001   -0.9633    5.5588 N   0  0  0  0  0  0  0  0  0  0  0  0
    7.9641   -3.8748    4.8597 C   0  0  0  0  0  0  0  0  0  0  0  0
    9.3876   -4.2881    4.6474 C   0  0  0  0  0  0  0  0  0  0  0  0
    7.0269   -0.0401    0.1371 C   0  0  0  0  0  0  0  0  0  0  0  0
    4.8037   -3.4767   -0.9159 C   0  0  0  0  0  0  0  0  0  0  0  0
    3.7952   -4.3958   -0.2334 C   0  0  0  0  0  0  0  0  0  0  0  0
    3.7299   -3.9557    1.1316 N   0  0  0  0  0  0  0  0  0  0  0  0
    2.7876   -4.4702    2.0657 C   0  0  0  0  0  0  0  0  0  0  0  0
    2.2016   -5.7146    1.8135 C   0  0  0  0  0  0  0  0  0  0  0  0
    1.1500   -6.2356    2.4760 N   0  0  0  0  0  0  0  0  0  0  0  0
    0.6726   -5.4971    3.4950 C   0  0  0  0  0  0  0  0  0  0  0  0
    1.2159   -4.2872    3.9257 C   0  0  0  0  0  0  0  0  0  0  0  0
    0.6852   -3.6513    5.0606 C   0  0  0  0  0  0  0  0  0  0  0  0
    1.1781   -2.4203    5.4769 C   0  0  0  0  0  0  0  0  0  0  0  0
    2.1721   -1.8008    4.7237 C   0  0  0  0  0  0  0  0  0  0  0  0
    2.7149   -0.2386    5.1989 Cl  0  0  0  0  0  0  0  0  0  0  0  0
    2.7128   -2.4283    3.5983 C   0  0  0  0  0  0  0  0  0  0  0  0
    2.2884   -3.7203    3.1820 C   0  0  0  0  0  0  0  0  0  0  0  0
    4.9573   -3.3673    1.4376 C   0  0  0  0  0  0  0  0  0  0  0  0
    5.6295   -3.6332    2.4213 O   0  0  0  0  0  0  0  0  0  0  0  0
    3.0584    2.3903    0.0409 H   0  0  0  0  0  0  0  0  0  0  0  0
    5.5096    2.1865    0.1016 H   0  0  0  0  0  0  0  0  0  0  0  0
    2.6648   -1.8628    0.0775 H   0  0  0  0  0  0  0  0  0  0  0  0
    7.1361   -2.3746   -1.0358 H   0  0  0  0  0  0  0  0  0  0  0  0
    7.4045   -3.4103    0.3228 H   0  0  0  0  0  0  0  0  0  0  0  0
    9.7979   -2.5898    2.2102 H   0  0  0  0  0  0  0  0  0  0  0  0
    8.3249   -3.5972    2.1998 H   0  0  0  0  0  0  0  0  0  0  0  0
    7.2008   -4.3840    4.2818 H   0  0  0  0  0  0  0  0  0  0  0  0
    7.6390   -3.6286    5.8658 H   0  0  0  0  0  0  0  0  0  0  0  0
    9.5864   -5.0709    3.9243 H   0  0  0  0  0  0  0  0  0  0  0  0
   10.0348   -4.3353    5.5194 H   0  0  0  0  0  0  0  0  0  0  0  0
    7.3801    0.0735   -0.8958 H   0  0  0  0  0  0  0  0  0  0  0  0
    7.4340    0.8186    0.6838 H   0  0  0  0  0  0  0  0  0  0  0  0
    5.5825   -4.0965   -1.3786 H   0  0  0  0  0  0  0  0  0  0  0  0
    4.3349   -2.9158   -1.7322 H   0  0  0  0  0  0  0  0  0  0  0  0
    4.1854   -5.4214   -0.2461 H   0  0  0  0  0  0  0  0  0  0  0  0
    2.8122   -4.3679   -0.7106 H   0  0  0  0  0  0  0  0  0  0  0  0
    2.5878   -6.3746    1.0435 H   0  0  0  0  0  0  0  0  0  0  0  0
   -0.2112   -5.9188    3.9705 H   0  0  0  0  0  0  0  0  0  0  0  0
   -0.1111   -4.1210    5.6376 H   0  0  0  0  0  0  0  0  0  0  0  0
    0.7811   -1.9560    6.3746 H   0  0  0  0  0  0  0  0  0  0  0  0
    3.4828   -1.8919    3.0507 H   0  0  0  0  0  0  0  0  0  0  0  0
  1  2  1  0  0  0  0
  2  3  1  0  0  0  0
  2  7  2  0  0  0  0
  3  4  2  0  0  0  0
  3 37  1  0  0  0  0
  4  5  1  0  0  0  0
  4 38  1  0  0  0  0
  5  6  2  0  0  0  0
  5 20  1  0  0  0  0
  6  7  1  0  0  0  0
  6  8  1  0  0  0  0
  7 39  1  0  0  0  0
  8  9  1  0  0  0  0
  8 21  1  0  0  0  0
  8 35  1  0  0  0  0
  9 10  1  0  0  0  0
  9 40  1  0  0  0  0
  9 41  1  0  0  0  0
 10 11  1  0  0  0  0
 10 20  1  0  0  0  0
 11 12  2  0  0  0  0
 11 13  2  0  0  0  0
 11 14  1  0  0  0  0
 14 15  1  0  0  0  0
 14 42  1  0  0  0  0
 14 43  1  0  0  0  0
 15 16  1  0  0  0  0
 15 18  1  0  0  0  0
 15 19  1  0  0  0  0
 16 17  3  0  0  0  0
 18 19  1  0  0  0  0
 18 44  1  0  0  0  0
 18 45  1  0  0  0  0
 19 46  1  0  0  0  0
 19 47  1  0  0  0  0
 20 48  1  0  0  0  0
 20 49  1  0  0  0  0
 21 22  1  0  0  0  0
 21 50  1  0  0  0  0
 21 51  1  0  0  0  0
 22 23  1  0  0  0  0
 22 52  1  0  0  0  0
 22 53  1  0  0  0  0
 23 24  1  0  0  0  0
 23 35  1  0  0  0  0
 24 25  1  0  0  0  0
 24 34  2  0  0  0  0
 25 26  2  0  0  0  0
 25 54  1  0  0  0  0
 26 27  1  0  0  0  0
 27 28  2  0  0  0  0
 27 55  1  0  0  0  0
 28 29  1  0  0  0  0
 28 34  1  0  0  0  0
 29 30  2  0  0  0  0
 29 56  1  0  0  0  0
 30 31  1  0  0  0  0
 30 57  1  0  0  0  0
 31 32  1  0  0  0  0
 31 33  2  0  0  0  0
 33 34  1  0  0  0  0
 33 58  1  0  0  0  0
 35 36  2  0  0  0  0
M  END
$$$$
