
 OpenBabel07202414153D

 47 50  0  0  1  0  0  0  0  0999 V2000
    9.5202    6.6090    4.1574 C   0  0  0  0  0  0  0  0  0  0  0  0
    8.7682    6.1437    3.0401 O   0  0  0  0  0  0  0  0  0  0  0  0
    7.8879    5.1256    3.2880 C   0  0  0  0  0  0  0  0  0  0  0  0
    7.4871    4.7145    4.5513 C   0  0  0  0  0  0  0  0  0  0  0  0
    6.5661    3.6805    4.6791 C   0  0  0  0  0  0  0  0  0  0  0  0
    5.9990    3.0871    3.5431 C   0  0  0  0  0  0  0  0  0  0  0  0
    5.0421    2.0929    3.7005 C   0  0  0  0  0  0  0  0  0  0  0  0
    4.4056    1.4846    2.6900 N   0  0  0  0  0  0  0  0  0  0  0  0
    4.7599    1.8608    1.4396 C   0  0  0  0  0  0  0  0  0  0  0  0
    5.7344    2.8239    1.1253 C   0  0  0  0  0  0  0  0  0  0  0  0
    6.0556    3.1401   -0.2350 N   0  0  0  0  0  0  0  0  0  0  0  0
    5.6991    2.3730   -1.3522 C   0  0  0  0  0  0  0  0  0  0  0  0
    5.0918    1.3039   -1.2750 O   0  0  0  0  0  0  0  0  0  0  0  0
    6.1229    2.9618   -2.7515 C   0  0  2  0  0  0  0  0  0  0  0  0
    7.5600    3.0978   -2.6842 O   0  0  0  0  0  0  0  0  0  0  0  0
    8.2320    3.4691   -3.8859 C   0  0  0  0  0  0  0  0  0  0  0  0
    5.4581    4.3382   -2.9244 C   0  0  0  0  0  0  0  0  0  0  0  0
    3.9799    4.1303   -3.2041 C   0  0  0  0  0  0  0  0  0  0  0  0
    3.7865    3.4910   -4.4653 O   0  0  0  0  0  0  0  0  0  0  0  0
    4.5508    2.3706   -4.6655 C   0  0  0  0  0  0  0  0  0  0  0  0
    4.1794    1.5834   -5.7582 C   0  0  0  0  0  0  0  0  0  0  0  0
    4.8963    0.4232   -6.0645 C   0  0  0  0  0  0  0  0  0  0  0  0
    5.9698    0.0509   -5.2625 C   0  0  0  0  0  0  0  0  0  0  0  0
    6.8644   -1.3696   -5.6461 Cl  0  0  0  0  0  0  0  0  0  0  0  0
    6.3474    0.8366   -4.1736 C   0  0  0  0  0  0  0  0  0  0  0  0
    5.6631    2.0346   -3.8815 C   0  0  0  0  0  0  0  0  0  0  0  0
    6.3698    3.4768    2.2282 C   0  0  0  0  0  0  0  0  0  0  0  0
    7.3537    4.4998    2.1457 C   0  0  0  0  0  0  0  0  0  0  0  0
   10.2864    7.2938    3.7872 H   0  0  0  0  0  0  0  0  0  0  0  0
   10.0298    5.7799    4.6598 H   0  0  0  0  0  0  0  0  0  0  0  0
    8.8867    7.1639    4.8601 H   0  0  0  0  0  0  0  0  0  0  0  0
    7.8651    5.1726    5.4616 H   0  0  0  0  0  0  0  0  0  0  0  0
    6.2774    3.3569    5.6777 H   0  0  0  0  0  0  0  0  0  0  0  0
    4.7353    1.7516    4.6886 H   0  0  0  0  0  0  0  0  0  0  0  0
    4.1779    1.3536    0.6844 H   0  0  0  0  0  0  0  0  0  0  0  0
    6.6951    3.9051   -0.3972 H   0  0  0  0  0  0  0  0  0  0  0  0
    9.3023    3.3951   -3.7066 H   0  0  0  0  0  0  0  0  0  0  0  0
    7.9993    4.5006   -4.1618 H   0  0  0  0  0  0  0  0  0  0  0  0
    7.9993    2.8033   -4.7285 H   0  0  0  0  0  0  0  0  0  0  0  0
    5.9007    4.8801   -3.7679 H   0  0  0  0  0  0  0  0  0  0  0  0
    5.5988    4.9755   -2.0451 H   0  0  0  0  0  0  0  0  0  0  0  0
    3.4780    5.1014   -3.2562 H   0  0  0  0  0  0  0  0  0  0  0  0
    3.4759    3.5535   -2.4179 H   0  0  0  0  0  0  0  0  0  0  0  0
    3.3334    1.8726   -6.3743 H   0  0  0  0  0  0  0  0  0  0  0  0
    4.6105   -0.1748   -6.9246 H   0  0  0  0  0  0  0  0  0  0  0  0
    7.1972    0.5361   -3.5643 H   0  0  0  0  0  0  0  0  0  0  0  0
    7.7339    4.8292    1.1796 H   0  0  0  0  0  0  0  0  0  0  0  0
  1  2  1  0  0  0  0
  1 29  1  0  0  0  0
  1 30  1  0  0  0  0
  1 31  1  0  0  0  0
  2  3  1  0  0  0  0
  3  4  1  0  0  0  0
  3 28  2  0  0  0  0
  4  5  2  0  0  0  0
  4 32  1  0  0  0  0
  5  6  1  0  0  0  0
  5 33  1  0  0  0  0
  6  7  1  0  0  0  0
  6 27  2  0  0  0  0
  7  8  2  0  0  0  0
  7 34  1  0  0  0  0
  8  9  1  0  0  0  0
  9 10  2  0  0  0  0
  9 35  1  0  0  0  0
 10 11  1  0  0  0  0
 10 27  1  0  0  0  0
 11 12  1  0  0  0  0
 11 36  1  0  0  0  0
 12 13  2  0  0  0  0
 14 12  1  1  0  0  0
 14 15  1  0  0  0  0
 14 17  1  0  0  0  0
 14 26  1  0  0  0  0
 15 16  1  0  0  0  0
 16 37  1  0  0  0  0
 16 38  1  0  0  0  0
 16 39  1  0  0  0  0
 17 18  1  0  0  0  0
 17 40  1  0  0  0  0
 17 41  1  0  0  0  0
 18 19  1  0  0  0  0
 18 42  1  0  0  0  0
 18 43  1  0  0  0  0
 19 20  1  0  0  0  0
 20 21  1  0  0  0  0
 20 26  2  0  0  0  0
 21 22  2  0  0  0  0
 21 44  1  0  0  0  0
 22 23  1  0  0  0  0
 22 45  1  0  0  0  0
 23 24  1  0  0  0  0
 23 25  2  0  0  0  0
 25 26  1  0  0  0  0
 25 46  1  0  0  0  0
 27 28  1  0  0  0  0
 28 47  1  0  0  0  0
M  END
$$$$
