
 OpenBabel07202414153D

 43 45  0  0  0  0  0  0  0  0999 V2000
    1.0409    0.1247   -0.5529 C   0  0  0  0  0  0  0  0  0  0  0  0
    2.3897    0.0305   -0.1156 O   0  0  0  0  0  0  0  0  0  0  0  0
    3.1014   -1.0971   -0.4218 C   0  0  0  0  0  0  0  0  0  0  0  0
    2.7816   -1.8713   -1.5466 C   0  0  0  0  0  0  0  0  0  0  0  0
    3.5423   -2.9927   -1.8778 C   0  0  0  0  0  0  0  0  0  0  0  0
    4.6322   -3.3462   -1.0925 C   0  0  0  0  0  0  0  0  0  0  0  0
    4.9690   -2.5847    0.0254 C   0  0  0  0  0  0  0  0  0  0  0  0
    4.2136   -1.4616    0.3789 C   0  0  0  0  0  0  0  0  0  0  0  0
    4.7002   -0.8437    1.5180 O   0  0  0  0  0  0  0  0  0  0  0  0
    4.0084    0.3360    1.9126 C   0  0  0  0  0  0  0  0  0  0  0  0
    4.5776    0.9913    3.1752 C   0  0  0  0  0  0  0  0  0  0  0  0
    3.7887    2.1181    3.7007 N   0  0  0  0  0  0  0  0  0  0  0  0
    2.8255    2.7870    2.9733 C   0  0  0  0  0  0  0  0  0  0  0  0
    2.5240    2.5016    1.8198 O   0  0  0  0  0  0  0  0  0  0  0  0
    2.0982    3.9105    3.6381 C   0  0  0  0  0  0  0  0  0  0  0  0
    2.8016    4.7390    4.4270 C   0  0  0  0  0  0  0  0  0  0  0  0
    2.2162    5.9905    4.9502 C   0  0  0  0  0  0  0  0  0  0  0  0
    2.8595    6.7062    5.7065 O   0  0  0  0  0  0  0  0  0  0  0  0
    0.9624    6.3154    4.5248 N   0  0  0  0  0  0  0  0  0  0  0  0
    0.1917    5.5010    3.6892 C   0  0  0  0  0  0  0  0  0  0  0  0
    0.7062    4.2689    3.2595 C   0  0  0  0  0  0  0  0  0  0  0  0
   -0.1222    3.4556    2.4682 C   0  0  0  0  0  0  0  0  0  0  0  0
   -1.3932    3.8833    2.0736 C   0  0  0  0  0  0  0  0  0  0  0  0
   -1.8697    5.1256    2.4868 C   0  0  0  0  0  0  0  0  0  0  0  0
   -1.0802    5.9314    3.3049 C   0  0  0  0  0  0  0  0  0  0  0  0
    5.5719   -4.7228   -1.5077 Cl  0  0  0  0  0  0  0  0  0  0  0  0
    0.5833    0.9842   -0.0518 H   0  0  0  0  0  0  0  0  0  0  0  0
    0.4693   -0.7671   -0.2752 H   0  0  0  0  0  0  0  0  0  0  0  0
    0.9878    0.3090   -1.6301 H   0  0  0  0  0  0  0  0  0  0  0  0
    1.9563   -1.6054   -2.2005 H   0  0  0  0  0  0  0  0  0  0  0  0
    3.2802   -3.5760   -2.7560 H   0  0  0  0  0  0  0  0  0  0  0  0
    5.8260   -2.8621    0.6327 H   0  0  0  0  0  0  0  0  0  0  0  0
    2.9687    0.0713    2.1335 H   0  0  0  0  0  0  0  0  0  0  0  0
    4.1095    1.0615    1.1001 H   0  0  0  0  0  0  0  0  0  0  0  0
    5.5976    1.3505    2.9968 H   0  0  0  0  0  0  0  0  0  0  0  0
    4.6504    0.2518    3.9812 H   0  0  0  0  0  0  0  0  0  0  0  0
    4.0106    2.4229    4.6380 H   0  0  0  0  0  0  0  0  0  0  0  0
    3.8460    4.5988    4.6735 H   0  0  0  0  0  0  0  0  0  0  0  0
    0.5943    7.1955    4.8574 H   0  0  0  0  0  0  0  0  0  0  0  0
    0.2097    2.4806    2.1189 H   0  0  0  0  0  0  0  0  0  0  0  0
   -2.0033    3.2508    1.4343 H   0  0  0  0  0  0  0  0  0  0  0  0
   -2.8526    5.4628    2.1676 H   0  0  0  0  0  0  0  0  0  0  0  0
   -1.4646    6.8962    3.6252 H   0  0  0  0  0  0  0  0  0  0  0  0
  1  2  1  0  0  0  0
  1 27  1  0  0  0  0
  1 28  1  0  0  0  0
  1 29  1  0  0  0  0
  2  3  1  0  0  0  0
  3  4  1  0  0  0  0
  3  8  2  0  0  0  0
  4  5  2  0  0  0  0
  4 30  1  0  0  0  0
  5  6  1  0  0  0  0
  5 31  1  0  0  0  0
  6  7  2  0  0  0  0
  6 26  1  0  0  0  0
  7  8  1  0  0  0  0
  7 32  1  0  0  0  0
  8  9  1  0  0  0  0
  9 10  1  0  0  0  0
 10 11  1  0  0  0  0
 10 33  1  0  0  0  0
 10 34  1  0  0  0  0
 11 12  1  0  0  0  0
 11 35  1  0  0  0  0
 11 36  1  0  0  0  0
 12 13  1  0  0  0  0
 12 37  1  0  0  0  0
 13 14  2  0  0  0  0
 13 15  1  0  0  0  0
 15 16  2  0  0  0  0
 15 21  1  0  0  0  0
 16 17  1  0  0  0  0
 16 38  1  0  0  0  0
 17 18  2  0  0  0  0
 17 19  1  0  0  0  0
 19 20  1  0  0  0  0
 19 39  1  0  0  0  0
 20 21  1  0  0  0  0
 20 25  2  0  0  0  0
 21 22  2  0  0  0  0
 22 23  1  0  0  0  0
 22 40  1  0  0  0  0
 23 24  2  0  0  0  0
 23 41  1  0  0  0  0
 24 25  1  0  0  0  0
 24 42  1  0  0  0  0
 25 43  1  0  0  0  0
M  END
$$$$
