
 OpenBabel07202414183D

 38 41  0  0  1  0  0  0  0  0999 V2000
    1.0411    0.0292    0.1539 Cl  0  0  0  0  0  0  0  0  0  0  0  0
    2.7527   -0.1011    0.0621 C   0  0  0  0  0  0  0  0  0  0  0  0
    3.5365    1.0512    0.0621 C   0  0  0  0  0  0  0  0  0  0  0  0
    4.9262    0.9396    0.0005 C   0  0  0  0  0  0  0  0  0  0  0  0
    5.5249   -0.3176   -0.0610 C   0  0  0  0  0  0  0  0  0  0  0  0
    4.7436   -1.4783   -0.1113 C   0  0  0  0  0  0  0  0  0  0  0  0
    3.3489   -1.3597   -0.0216 C   0  0  0  0  0  0  0  0  0  0  0  0
    5.3938   -2.8393   -0.2683 C   0  0  1  0  0  0  0  0  0  0  0  0
    4.7957   -3.6316   -1.4395 C   0  0  0  0  0  0  0  0  0  0  0  0
    4.3426   -4.7563   -1.2647 O   0  0  0  0  0  0  0  0  0  0  0  0
    4.8639   -2.9620   -2.6508 N   0  0  0  0  0  0  0  0  0  0  0  0
    4.5686   -3.4704   -3.9401 C   0  0  0  0  0  0  0  0  0  0  0  0
    4.1406   -4.7778   -4.1631 C   0  0  0  0  0  0  0  0  0  0  0  0
    4.0252   -5.3458   -5.3874 N   0  0  0  0  0  0  0  0  0  0  0  0
    4.3125   -4.5667   -6.4492 C   0  0  0  0  0  0  0  0  0  0  0  0
    4.6425   -3.2159   -6.3662 C   0  0  0  0  0  0  0  0  0  0  0  0
    4.8338   -2.4339   -7.5142 C   0  0  0  0  0  0  0  0  0  0  0  0
    5.1182   -1.0900   -7.3617 C   0  0  0  0  0  0  0  0  0  0  0  0
    5.2492   -0.4911   -6.1649 N   0  0  0  0  0  0  0  0  0  0  0  0
    5.0759   -1.2720   -5.0706 C   0  0  0  0  0  0  0  0  0  0  0  0
    4.7679   -2.6455   -5.0839 C   0  0  0  0  0  0  0  0  0  0  0  0
    6.9135   -2.7322   -0.4505 C   0  0  0  0  0  0  0  0  0  0  0  0
    7.4478   -1.5698    0.3637 C   0  0  0  0  0  0  0  0  0  0  0  0
    6.8928   -0.3393   -0.0995 O   0  0  0  0  0  0  0  0  0  0  0  0
    3.0742    2.0321    0.1154 H   0  0  0  0  0  0  0  0  0  0  0  0
    5.5424    1.8362    0.0120 H   0  0  0  0  0  0  0  0  0  0  0  0
    2.7192   -2.2487   -0.0300 H   0  0  0  0  0  0  0  0  0  0  0  0
    5.1918   -3.3975    0.6564 H   0  0  0  0  0  0  0  0  0  0  0  0
    5.2513   -2.0286   -2.6084 H   0  0  0  0  0  0  0  0  0  0  0  0
    3.8736   -5.4516   -3.3561 H   0  0  0  0  0  0  0  0  0  0  0  0
    4.2539   -5.0785   -7.4071 H   0  0  0  0  0  0  0  0  0  0  0  0
    4.7390   -2.8541   -8.5106 H   0  0  0  0  0  0  0  0  0  0  0  0
    5.2404   -0.4391   -8.2229 H   0  0  0  0  0  0  0  0  0  0  0  0
    5.1714   -0.7130   -4.1444 H   0  0  0  0  0  0  0  0  0  0  0  0
    7.1759   -2.5642   -1.5043 H   0  0  0  0  0  0  0  0  0  0  0  0
    7.3963   -3.6707   -0.1552 H   0  0  0  0  0  0  0  0  0  0  0  0
    8.5367   -1.5030    0.2410 H   0  0  0  0  0  0  0  0  0  0  0  0
    7.2507   -1.6915    1.4369 H   0  0  0  0  0  0  0  0  0  0  0  0
  1  2  1  0  0  0  0
  2  3  1  0  0  0  0
  2  7  2  0  0  0  0
  3  4  2  0  0  0  0
  3 25  1  0  0  0  0
  4  5  1  0  0  0  0
  4 26  1  0  0  0  0
  5  6  2  0  0  0  0
  5 24  1  0  0  0  0
  6  7  1  0  0  0  0
  6  8  1  0  0  0  0
  7 27  1  0  0  0  0
  8 22  1  0  0  0  0
  8  9  1  0  0  0  0
  8 28  1  1  0  0  0
  9 10  2  0  0  0  0
  9 11  1  0  0  0  0
 11 12  1  0  0  0  0
 11 29  1  0  0  0  0
 12 13  1  0  0  0  0
 12 21  2  0  0  0  0
 13 14  2  0  0  0  0
 13 30  1  0  0  0  0
 14 15  1  0  0  0  0
 15 16  2  0  0  0  0
 15 31  1  0  0  0  0
 16 17  1  0  0  0  0
 16 21  1  0  0  0  0
 17 18  2  0  0  0  0
 17 32  1  0  0  0  0
 18 19  1  0  0  0  0
 18 33  1  0  0  0  0
 19 20  2  0  0  0  0
 20 21  1  0  0  0  0
 20 34  1  0  0  0  0
 22 23  1  0  0  0  0
 22 35  1  0  0  0  0
 22 36  1  0  0  0  0
 23 24  1  0  0  0  0
 23 37  1  0  0  0  0
 23 38  1  0  0  0  0
M  END
$$$$
