
 OpenBabel07202414123D

 49 52  0  0  0  0  0  0  0  0999 V2000
   -0.6912    6.2420    2.2794 C   0  0  0  0  0  0  0  0  0  0  0  0
    0.2147    5.2776    1.5675 C   0  0  0  0  0  0  0  0  0  0  0  0
   -0.0346    3.9056    1.4137 C   0  0  0  0  0  0  0  0  0  0  0  0
   -1.6144    3.0742    2.0653 Br  0  0  0  0  0  0  0  0  0  0  0  0
    0.9013    3.0758    0.7746 C   0  0  0  0  0  0  0  0  0  0  0  0
    2.1075    3.5908    0.2960 C   0  0  0  0  0  0  0  0  0  0  0  0
    3.0751    2.7250   -0.2539 N   0  0  0  0  0  0  0  0  0  0  0  0
    4.4743    2.8212   -0.1847 C   0  0  0  0  0  0  0  0  0  0  0  0
    5.2759    2.2754   -1.1825 C   0  0  0  0  0  0  0  0  0  0  0  0
    6.6676    2.4116   -1.1296 C   0  0  0  0  0  0  0  0  0  0  0  0
    7.6380    1.7488   -2.3880 Cl  0  0  0  0  0  0  0  0  0  0  0  0
    7.2770    3.0974   -0.0798 C   0  0  0  0  0  0  0  0  0  0  0  0
    6.4966    3.6304    0.9495 C   0  0  0  0  0  0  0  0  0  0  0  0
    7.1193    4.4316    2.0705 C   0  0  0  0  0  0  0  0  0  0  0  0
    6.7624    3.9598    3.4695 C   0  0  0  0  0  0  0  0  0  0  0  0
    6.4560    4.7693    4.3450 O   0  0  0  0  0  0  0  0  0  0  0  0
    6.9241    2.6048    3.6758 N   0  0  0  0  0  0  0  0  0  0  0  0
    6.6629    1.9673    4.9082 C   0  0  0  0  0  0  0  0  0  0  0  0
    5.5768    2.3431    5.7062 C   0  0  0  0  0  0  0  0  0  0  0  0
    5.2417    1.7497    6.8747 N   0  0  0  0  0  0  0  0  0  0  0  0
    6.0482    0.7494    7.2888 C   0  0  0  0  0  0  0  0  0  0  0  0
    7.1759    0.3021    6.6014 C   0  0  0  0  0  0  0  0  0  0  0  0
    7.9998   -0.7123    7.1211 C   0  0  0  0  0  0  0  0  0  0  0  0
    9.1509   -1.1127    6.4437 C   0  0  0  0  0  0  0  0  0  0  0  0
    9.4843   -0.5187    5.2348 C   0  0  0  0  0  0  0  0  0  0  0  0
    8.6646    0.4768    4.6998 C   0  0  0  0  0  0  0  0  0  0  0  0
    7.4895    0.9122    5.3643 C   0  0  0  0  0  0  0  0  0  0  0  0
    5.1038    3.4722    0.8914 C   0  0  0  0  0  0  0  0  0  0  0  0
    2.3383    4.9658    0.4165 C   0  0  0  0  0  0  0  0  0  0  0  0
    1.4091    5.7945    1.0440 C   0  0  0  0  0  0  0  0  0  0  0  0
   -1.6252    5.7981    2.6262 H   0  0  0  0  0  0  0  0  0  0  0  0
   -0.9525    7.0693    1.6108 H   0  0  0  0  0  0  0  0  0  0  0  0
   -0.1754    6.6489    3.1567 H   0  0  0  0  0  0  0  0  0  0  0  0
    0.7075    2.0079    0.6946 H   0  0  0  0  0  0  0  0  0  0  0  0
    2.7074    2.1515   -1.0098 H   0  0  0  0  0  0  0  0  0  0  0  0
    4.8266    1.7570   -2.0247 H   0  0  0  0  0  0  0  0  0  0  0  0
    8.3575    3.2123   -0.0719 H   0  0  0  0  0  0  0  0  0  0  0  0
    6.7809    5.4698    1.9658 H   0  0  0  0  0  0  0  0  0  0  0  0
    8.2130    4.4413    1.9864 H   0  0  0  0  0  0  0  0  0  0  0  0
    7.4482    2.0873    2.9838 H   0  0  0  0  0  0  0  0  0  0  0  0
    4.8960    3.1326    5.3994 H   0  0  0  0  0  0  0  0  0  0  0  0
    5.7612    0.3149    8.2424 H   0  0  0  0  0  0  0  0  0  0  0  0
    7.7599   -1.1810    8.0722 H   0  0  0  0  0  0  0  0  0  0  0  0
    9.7922   -1.8811    6.8685 H   0  0  0  0  0  0  0  0  0  0  0  0
   10.3911   -0.8121    4.7141 H   0  0  0  0  0  0  0  0  0  0  0  0
    8.9849    0.9347    3.7683 H   0  0  0  0  0  0  0  0  0  0  0  0
    4.4972    3.8714    1.6980 H   0  0  0  0  0  0  0  0  0  0  0  0
    3.2475    5.4062    0.0200 H   0  0  0  0  0  0  0  0  0  0  0  0
    1.6335    6.8566    1.1364 H   0  0  0  0  0  0  0  0  0  0  0  0
  1  2  1  0  0  0  0
  1 31  1  0  0  0  0
  1 32  1  0  0  0  0
  1 33  1  0  0  0  0
  2  3  2  0  0  0  0
  2 30  1  0  0  0  0
  3  4  1  0  0  0  0
  3  5  1  0  0  0  0
  5  6  2  0  0  0  0
  5 34  1  0  0  0  0
  6  7  1  0  0  0  0
  6 29  1  0  0  0  0
  7  8  1  0  0  0  0
  7 35  1  0  0  0  0
  8  9  2  0  0  0  0
  8 28  1  0  0  0  0
  9 10  1  0  0  0  0
  9 36  1  0  0  0  0
 10 11  1  0  0  0  0
 10 12  2  0  0  0  0
 12 13  1  0  0  0  0
 12 37  1  0  0  0  0
 13 14  1  0  0  0  0
 13 28  2  0  0  0  0
 14 15  1  0  0  0  0
 14 38  1  0  0  0  0
 14 39  1  0  0  0  0
 15 16  2  0  0  0  0
 15 17  1  0  0  0  0
 17 18  1  0  0  0  0
 17 40  1  0  0  0  0
 18 19  2  0  0  0  0
 18 27  1  0  0  0  0
 19 20  1  0  0  0  0
 19 41  1  0  0  0  0
 20 21  2  0  0  0  0
 21 22  1  0  0  0  0
 21 42  1  0  0  0  0
 22 23  2  0  0  0  0
 22 27  1  0  0  0  0
 23 24  1  0  0  0  0
 23 43  1  0  0  0  0
 24 25  2  0  0  0  0
 24 44  1  0  0  0  0
 25 26  1  0  0  0  0
 25 45  1  0  0  0  0
 26 27  2  0  0  0  0
 26 46  1  0  0  0  0
 28 47  1  0  0  0  0
 29 30  2  0  0  0  0
 29 48  1  0  0  0  0
 30 49  1  0  0  0  0
M  END
$$$$
