
 OpenBabel07202414143D

 58 63  0  0  1  0  0  0  0  0999 V2000
    3.3941    3.0696    0.2138 C   0  0  0  0  0  0  0  0  0  0  0  0
    3.5349    1.6440    0.2337 N   0  0  0  0  0  0  0  0  0  0  0  0
    4.6190    1.0769    0.8432 C   0  0  0  0  0  0  0  0  0  0  0  0
    5.5559    1.7020    1.3282 O   0  0  0  0  0  0  0  0  0  0  0  0
    4.5557   -0.4348    0.9475 C   0  0  0  0  0  0  0  0  0  0  0  0
    4.7984   -1.1335   -0.3765 N   0  0  3  0  0  0  0  0  0  0  0  0
    6.0648   -0.7787   -1.0293 C   0  0  0  0  0  0  0  0  0  0  0  0
    7.1843   -1.7595   -0.7586 C   0  0  0  0  0  0  0  0  0  0  0  0
    8.5064   -1.2896   -0.8654 C   0  0  0  0  0  0  0  0  0  0  0  0
    9.5780   -2.1322   -0.6003 C   0  0  0  0  0  0  0  0  0  0  0  0
    9.3446   -3.4574   -0.2558 C   0  0  0  0  0  0  0  0  0  0  0  0
   10.6649   -4.4779    0.1637 Cl  0  0  0  0  0  0  0  0  0  0  0  0
    8.0438   -3.9549   -0.1967 C   0  0  0  0  0  0  0  0  0  0  0  0
    6.9389   -3.1176   -0.4414 C   0  0  0  0  0  0  0  0  0  0  0  0
    5.5001   -3.6092   -0.1749 C   0  0  2  0  0  0  0  0  0  0  0  0
    5.3454   -3.7717    1.3273 C   0  0  0  0  0  0  0  0  0  0  0  0
    4.9318   -5.1578    1.6320 C   0  0  0  0  0  0  0  0  0  0  0  0
    5.2159   -5.9338    0.4711 N   0  0  0  0  0  0  0  0  0  0  0  0
    4.8196   -7.3120    0.5381 C   0  0  0  0  0  0  0  0  0  0  0  0
    4.0937   -7.8935   -0.5000 C   0  0  0  0  0  0  0  0  0  0  0  0
    3.3616   -9.0264   -0.3690 N   0  0  0  0  0  0  0  0  0  0  0  0
    3.3841   -9.6347    0.8412 C   0  0  0  0  0  0  0  0  0  0  0  0
    4.1711   -9.2358    1.9140 C   0  0  0  0  0  0  0  0  0  0  0  0
    4.1874   -9.9822    3.1229 C   0  0  0  0  0  0  0  0  0  0  0  0
    4.9652   -9.5852    4.2076 C   0  0  0  0  0  0  0  0  0  0  0  0
    5.7616   -8.4614    4.0920 C   0  0  0  0  0  0  0  0  0  0  0  0
    5.7896   -7.7613    2.8816 C   0  0  0  0  0  0  0  0  0  0  0  0
    4.9401   -8.0753    1.7722 C   0  0  0  0  0  0  0  0  0  0  0  0
    5.2449   -5.0757   -0.6685 C   0  0  0  0  0  0  0  0  0  0  0  0
    5.1590   -5.4096   -1.8422 O   0  0  0  0  0  0  0  0  0  0  0  0
    4.4758   -2.5530   -0.6845 C   0  0  0  0  0  0  0  0  0  0  0  0
    3.5622   -1.0066    1.9449 C   0  0  0  0  0  0  0  0  0  0  0  0
    5.0212   -0.9143    2.3068 C   0  0  0  0  0  0  0  0  0  0  0  0
    2.5453    3.3307   -0.4164 H   0  0  0  0  0  0  0  0  0  0  0  0
    4.3140    3.5154   -0.1740 H   0  0  0  0  0  0  0  0  0  0  0  0
    3.2321    3.4209    1.2377 H   0  0  0  0  0  0  0  0  0  0  0  0
    2.8041    1.0329   -0.1099 H   0  0  0  0  0  0  0  0  0  0  0  0
    6.3875    0.2305   -0.7475 H   0  0  0  0  0  0  0  0  0  0  0  0
    5.9021   -0.7347   -2.1149 H   0  0  0  0  0  0  0  0  0  0  0  0
    8.7014   -0.2504   -1.1270 H   0  0  0  0  0  0  0  0  0  0  0  0
   10.5955   -1.7431   -0.6435 H   0  0  0  0  0  0  0  0  0  0  0  0
    7.8943   -4.9928    0.0943 H   0  0  0  0  0  0  0  0  0  0  0  0
    4.5292   -3.1983    1.7276 H   0  0  0  0  0  0  0  0  0  0  0  0
    6.2591   -3.5435    1.8819 H   0  0  0  0  0  0  0  0  0  0  0  0
    3.8549   -5.2102    1.8337 H   0  0  0  0  0  0  0  0  0  0  0  0
    5.4655   -5.4335    2.5313 H   0  0  0  0  0  0  0  0  0  0  0  0
    4.0032   -7.4319   -1.4768 H   0  0  0  0  0  0  0  0  0  0  0  0
    2.7131  -10.4841    0.9235 H   0  0  0  0  0  0  0  0  0  0  0  0
    3.5987  -10.8906    3.2106 H   0  0  0  0  0  0  0  0  0  0  0  0
    4.9705  -10.1671    5.1255 H   0  0  0  0  0  0  0  0  0  0  0  0
    6.3789   -8.1354    4.9263 H   0  0  0  0  0  0  0  0  0  0  0  0
    6.5234   -6.9622    2.8156 H   0  0  0  0  0  0  0  0  0  0  0  0
    3.4551   -2.7957   -0.3681 H   0  0  0  0  0  0  0  0  0  0  0  0
    4.4263   -2.6328   -1.7836 H   0  0  0  0  0  0  0  0  0  0  0  0
    3.0641   -1.9373    1.7176 H   0  0  0  0  0  0  0  0  0  0  0  0
    2.8991   -0.3339    2.4807 H   0  0  0  0  0  0  0  0  0  0  0  0
    5.7583   -1.6937    2.3259 H   0  0  0  0  0  0  0  0  0  0  0  0
    5.2785   -0.1951    3.0786 H   0  0  0  0  0  0  0  0  0  0  0  0
  1  2  1  0  0  0  0
  1 34  1  0  0  0  0
  1 35  1  0  0  0  0
  1 36  1  0  0  0  0
  2  3  1  0  0  0  0
  2 37  1  0  0  0  0
  3  4  2  0  0  0  0
  3  5  1  0  0  0  0
  5  6  1  0  0  0  0
  5 32  1  0  0  0  0
  5 33  1  0  0  0  0
  6  7  1  0  0  0  0
  6 31  1  0  0  0  0
  7  8  1  0  0  0  0
  7 38  1  0  0  0  0
  7 39  1  0  0  0  0
  8  9  1  0  0  0  0
  8 14  2  0  0  0  0
  9 10  2  0  0  0  0
  9 40  1  0  0  0  0
 10 11  1  0  0  0  0
 10 41  1  0  0  0  0
 11 12  1  0  0  0  0
 11 13  2  0  0  0  0
 13 14  1  0  0  0  0
 13 42  1  0  0  0  0
 15 14  1  6  0  0  0
 15 16  1  0  0  0  0
 15 29  1  0  0  0  0
 15 31  1  0  0  0  0
 16 17  1  0  0  0  0
 16 43  1  0  0  0  0
 16 44  1  0  0  0  0
 17 18  1  0  0  0  0
 17 45  1  0  0  0  0
 17 46  1  0  0  0  0
 18 19  1  0  0  0  0
 18 29  1  0  0  0  0
 19 20  1  0  0  0  0
 19 28  2  0  0  0  0
 20 21  2  0  0  0  0
 20 47  1  0  0  0  0
 21 22  1  0  0  0  0
 22 23  2  0  0  0  0
 22 48  1  0  0  0  0
 23 24  1  0  0  0  0
 23 28  1  0  0  0  0
 24 25  2  0  0  0  0
 24 49  1  0  0  0  0
 25 26  1  0  0  0  0
 25 50  1  0  0  0  0
 26 27  2  0  0  0  0
 26 51  1  0  0  0  0
 27 28  1  0  0  0  0
 27 52  1  0  0  0  0
 29 30  2  0  0  0  0
 31 53  1  0  0  0  0
 31 54  1  0  0  0  0
 32 33  1  0  0  0  0
 32 55  1  0  0  0  0
 32 56  1  0  0  0  0
 33 57  1  0  0  0  0
 33 58  1  0  0  0  0
M  END
$$$$
