
 OpenBabel07202414123D

 60 62  0  0  0  0  0  0  0  0999 V2000
    0.8200    1.0806   -0.2045 C   0  0  0  0  0  0  0  0  0  0  0  0
    2.3460    1.0843   -0.3152 C   0  0  0  0  0  0  0  0  0  0  0  0
    2.7827    2.2022   -1.2654 C   0  0  0  0  0  0  0  0  0  0  0  0
    2.9747    1.2107    1.0890 C   0  0  0  0  0  0  0  0  0  0  0  0
    4.4389    1.1846    1.0597 N   0  0  0  0  0  0  0  0  0  0  0  0
    5.0911   -0.0367    1.0462 C   0  0  0  0  0  0  0  0  0  0  0  0
    6.4261   -0.2013    0.9637 C   0  0  0  0  0  0  0  0  0  0  0  0
    7.2321    1.0444    0.7718 C   0  0  0  0  0  0  0  0  0  0  0  0
    8.6081    1.0419    0.4843 C   0  0  0  0  0  0  0  0  0  0  0  0
    9.3110    2.2397    0.2702 C   0  0  0  0  0  0  0  0  0  0  0  0
    8.6607    3.4672    0.3486 C   0  0  0  0  0  0  0  0  0  0  0  0
    7.3026    3.5002    0.6330 C   0  0  0  0  0  0  0  0  0  0  0  0
    6.5949    2.3037    0.8318 C   0  0  0  0  0  0  0  0  0  0  0  0
    5.1228    2.3971    1.0318 C   0  0  0  0  0  0  0  0  0  0  0  0
    4.5898    3.4994    1.1122 O   0  0  0  0  0  0  0  0  0  0  0  0
    7.0488   -1.4524    1.0238 N   0  0  0  0  0  0  0  0  0  0  0  0
    6.4381   -2.6681    1.2794 C   0  0  0  0  0  0  0  0  0  0  0  0
    5.2510   -2.8193    1.5572 O   0  0  0  0  0  0  0  0  0  0  0  0
    7.2888   -3.7617    1.1862 N   0  0  0  0  0  0  0  0  0  0  0  0
    6.6271   -5.0629    1.2654 C   0  0  0  0  0  0  0  0  0  0  0  0
    7.4972   -6.3323    1.3224 C   0  0  0  0  0  0  0  0  0  0  0  0
    8.3867   -6.5198    2.5340 C   0  0  0  0  0  0  0  0  0  0  0  0
    7.7422   -6.3670    3.7976 C   0  0  0  0  0  0  0  0  0  0  0  0
    8.4098   -6.5289    5.0133 C   0  0  0  0  0  0  0  0  0  0  0  0
    9.7388   -6.9128    4.9931 C   0  0  0  0  0  0  0  0  0  0  0  0
   10.3822   -7.1119    3.7746 C   0  0  0  0  0  0  0  0  0  0  0  0
    9.7352   -6.9168    2.5377 C   0  0  0  0  0  0  0  0  0  0  0  0
   10.6204   -7.1704    1.5337 O   0  0  0  0  0  0  0  0  0  0  0  0
   10.2930   -7.1373    0.1643 C   0  0  0  0  0  0  0  0  0  0  0  0
    7.8818   -6.3521    6.2605 O   0  0  0  0  0  0  0  0  0  0  0  0
    6.5479   -5.8659    6.3393 C   0  0  0  0  0  0  0  0  0  0  0  0
    0.3589    0.9588   -1.1906 H   0  0  0  0  0  0  0  0  0  0  0  0
    0.4520    2.0190    0.2250 H   0  0  0  0  0  0  0  0  0  0  0  0
    0.4751    0.2578    0.4298 H   0  0  0  0  0  0  0  0  0  0  0  0
    2.6580    0.1290   -0.7565 H   0  0  0  0  0  0  0  0  0  0  0  0
    2.5155    3.1876   -0.8693 H   0  0  0  0  0  0  0  0  0  0  0  0
    2.3009    2.0900   -2.2426 H   0  0  0  0  0  0  0  0  0  0  0  0
    3.8629    2.1814   -1.4385 H   0  0  0  0  0  0  0  0  0  0  0  0
    2.6266    0.3907    1.7302 H   0  0  0  0  0  0  0  0  0  0  0  0
    2.6360    2.1381    1.5676 H   0  0  0  0  0  0  0  0  0  0  0  0
    4.4151   -0.8763    1.1352 H   0  0  0  0  0  0  0  0  0  0  0  0
    9.1697    0.1190    0.3891 H   0  0  0  0  0  0  0  0  0  0  0  0
   10.3712    2.2123    0.0286 H   0  0  0  0  0  0  0  0  0  0  0  0
    9.2009    4.3947    0.1734 H   0  0  0  0  0  0  0  0  0  0  0  0
    6.7842    4.4573    0.6766 H   0  0  0  0  0  0  0  0  0  0  0  0
    8.0569   -1.4745    1.0355 H   0  0  0  0  0  0  0  0  0  0  0  0
    8.0631   -3.6716    0.5443 H   0  0  0  0  0  0  0  0  0  0  0  0
    5.9917   -5.1325    0.3727 H   0  0  0  0  0  0  0  0  0  0  0  0
    5.9430   -5.0399    2.1206 H   0  0  0  0  0  0  0  0  0  0  0  0
    8.0237   -6.4095    0.3789 H   0  0  0  0  0  0  0  0  0  0  0  0
    6.8057   -7.1887    1.3243 H   0  0  0  0  0  0  0  0  0  0  0  0
    6.6827   -6.1291    3.8143 H   0  0  0  0  0  0  0  0  0  0  0  0
   10.2799   -7.0625    5.9230 H   0  0  0  0  0  0  0  0  0  0  0  0
   11.4236   -7.4312    3.7848 H   0  0  0  0  0  0  0  0  0  0  0  0
   11.2262   -7.2726   -0.3936 H   0  0  0  0  0  0  0  0  0  0  0  0
    9.9033   -6.1632   -0.1364 H   0  0  0  0  0  0  0  0  0  0  0  0
    9.6306   -7.9660   -0.1025 H   0  0  0  0  0  0  0  0  0  0  0  0
    6.3416   -5.6257    7.3869 H   0  0  0  0  0  0  0  0  0  0  0  0
    5.8401   -6.6396    6.0253 H   0  0  0  0  0  0  0  0  0  0  0  0
    6.4132   -4.9466    5.7596 H   0  0  0  0  0  0  0  0  0  0  0  0
  1  2  1  0  0  0  0
  1 32  1  0  0  0  0
  1 33  1  0  0  0  0
  1 34  1  0  0  0  0
  2  3  1  0  0  0  0
  2  4  1  0  0  0  0
  2 35  1  0  0  0  0
  3 36  1  0  0  0  0
  3 37  1  0  0  0  0
  3 38  1  0  0  0  0
  4  5  1  0  0  0  0
  4 39  1  0  0  0  0
  4 40  1  0  0  0  0
  5  6  1  0  0  0  0
  5 14  1  0  0  0  0
  6  7  2  0  0  0  0
  6 41  1  0  0  0  0
  7  8  1  0  0  0  0
  7 16  1  0  0  0  0
  8  9  1  0  0  0  0
  8 13  2  0  0  0  0
  9 10  2  0  0  0  0
  9 42  1  0  0  0  0
 10 11  1  0  0  0  0
 10 43  1  0  0  0  0
 11 12  2  0  0  0  0
 11 44  1  0  0  0  0
 12 13  1  0  0  0  0
 12 45  1  0  0  0  0
 13 14  1  0  0  0  0
 14 15  2  0  0  0  0
 16 17  1  0  0  0  0
 16 46  1  0  0  0  0
 17 18  2  0  0  0  0
 17 19  1  0  0  0  0
 19 20  1  0  0  0  0
 19 47  1  0  0  0  0
 20 21  1  0  0  0  0
 20 48  1  0  0  0  0
 20 49  1  0  0  0  0
 21 22  1  0  0  0  0
 21 50  1  0  0  0  0
 21 51  1  0  0  0  0
 22 23  1  0  0  0  0
 22 27  2  0  0  0  0
 23 24  2  0  0  0  0
 23 52  1  0  0  0  0
 24 25  1  0  0  0  0
 24 30  1  0  0  0  0
 25 26  2  0  0  0  0
 25 53  1  0  0  0  0
 26 27  1  0  0  0  0
 26 54  1  0  0  0  0
 27 28  1  0  0  0  0
 28 29  1  0  0  0  0
 29 55  1  0  0  0  0
 29 56  1  0  0  0  0
 29 57  1  0  0  0  0
 30 31  1  0  0  0  0
 31 58  1  0  0  0  0
 31 59  1  0  0  0  0
 31 60  1  0  0  0  0
M  END
$$$$
