
 OpenBabel07202414183D

 37 39  0  0  1  0  0  0  0  0999 V2000
   -0.3489   -4.1669    3.2762 Cl  0  0  0  0  0  0  0  0  0  0  0  0
    0.6618   -4.9719    2.1386 C   0  0  0  0  0  0  0  0  0  0  0  0
    0.8314   -6.3524    2.2211 C   0  0  0  0  0  0  0  0  0  0  0  0
    1.6458   -7.0021    1.2946 C   0  0  0  0  0  0  0  0  0  0  0  0
    2.2864   -6.2720    0.2921 C   0  0  0  0  0  0  0  0  0  0  0  0
    2.1226   -4.8811    0.2045 C   0  0  0  0  0  0  0  0  0  0  0  0
    2.7931   -4.1023   -0.8998 C   0  0  0  0  0  0  0  0  0  0  0  0
    4.3098   -4.1541   -0.8343 C   0  0  0  0  0  0  0  0  0  0  0  0
    4.9635   -5.0672   -1.3291 O   0  0  0  0  0  0  0  0  0  0  0  0
    4.8810   -3.0881   -0.1819 N   0  0  0  0  0  0  0  0  0  0  0  0
    6.3250   -2.9461   -0.0374 C   0  0  3  0  0  0  0  0  0  0  0  0
    6.8498   -3.7860    1.1445 C   0  0  0  0  0  0  0  0  0  0  0  0
    8.2207   -3.4795    1.4142 O   0  0  0  0  0  0  0  0  0  0  0  0
    8.3642   -2.1534    1.9313 C   0  0  0  0  0  0  0  0  0  0  0  0
    7.6488   -1.1115    1.1041 C   0  0  0  0  0  0  0  0  0  0  0  0
    7.9249    0.2482    1.3126 C   0  0  0  0  0  0  0  0  0  0  0  0
    7.2820    1.2268    0.5537 C   0  0  0  0  0  0  0  0  0  0  0  0
    6.3753    0.8577   -0.4346 C   0  0  0  0  0  0  0  0  0  0  0  0
    6.0847   -0.4884   -0.6437 C   0  0  0  0  0  0  0  0  0  0  0  0
    6.6826   -1.4818    0.1508 C   0  0  0  0  0  0  0  0  0  0  0  0
    1.3018   -4.2353    1.1405 C   0  0  0  0  0  0  0  0  0  0  0  0
    0.3289   -6.9254    2.9945 H   0  0  0  0  0  0  0  0  0  0  0  0
    1.7816   -8.0807    1.3510 H   0  0  0  0  0  0  0  0  0  0  0  0
    2.9162   -6.7969   -0.4261 H   0  0  0  0  0  0  0  0  0  0  0  0
    2.4684   -3.0539   -0.8842 H   0  0  0  0  0  0  0  0  0  0  0  0
    2.4748   -4.4960   -1.8727 H   0  0  0  0  0  0  0  0  0  0  0  0
    4.2938   -2.4541    0.3444 H   0  0  0  0  0  0  0  0  0  0  0  0
    6.8167   -3.2899   -0.9568 H   0  0  0  0  0  0  0  0  0  0  0  0
    6.7825   -4.8540    0.9100 H   0  0  0  0  0  0  0  0  0  0  0  0
    6.2568   -3.6228    2.0543 H   0  0  0  0  0  0  0  0  0  0  0  0
    9.4378   -1.9360    1.9472 H   0  0  0  0  0  0  0  0  0  0  0  0
    7.9941   -2.1326    2.9626 H   0  0  0  0  0  0  0  0  0  0  0  0
    8.6463    0.5522    2.0679 H   0  0  0  0  0  0  0  0  0  0  0  0
    7.4988    2.2781    0.7263 H   0  0  0  0  0  0  0  0  0  0  0  0
    5.8930    1.6185   -1.0441 H   0  0  0  0  0  0  0  0  0  0  0  0
    5.3835   -0.7625   -1.4295 H   0  0  0  0  0  0  0  0  0  0  0  0
    1.1474   -3.1601    1.0893 H   0  0  0  0  0  0  0  0  0  0  0  0
  1  2  1  0  0  0  0
  2  3  1  0  0  0  0
  2 21  2  0  0  0  0
  3  4  2  0  0  0  0
  3 22  1  0  0  0  0
  4  5  1  0  0  0  0
  4 23  1  0  0  0  0
  5  6  2  0  0  0  0
  5 24  1  0  0  0  0
  6  7  1  0  0  0  0
  6 21  1  0  0  0  0
  7  8  1  0  0  0  0
  7 25  1  0  0  0  0
  7 26  1  0  0  0  0
  8  9  2  0  0  0  0
  8 10  1  0  0  0  0
 10 11  1  0  0  0  0
 10 27  1  0  0  0  0
 11 12  1  0  0  0  0
 11 20  1  0  0  0  0
 11 28  1  0  0  0  0
 12 13  1  0  0  0  0
 12 29  1  0  0  0  0
 12 30  1  0  0  0  0
 13 14  1  0  0  0  0
 14 15  1  0  0  0  0
 14 31  1  0  0  0  0
 14 32  1  0  0  0  0
 15 16  1  0  0  0  0
 15 20  2  0  0  0  0
 16 17  2  0  0  0  0
 16 33  1  0  0  0  0
 17 18  1  0  0  0  0
 17 34  1  0  0  0  0
 18 19  2  0  0  0  0
 18 35  1  0  0  0  0
 19 20  1  0  0  0  0
 19 36  1  0  0  0  0
 21 37  1  0  0  0  0
M  END
$$$$
