
 OpenBabel07202414193D

 50 53  0  0  1  0  0  0  0  0999 V2000
    1.4372   -0.6579    0.9202 O   0  0  0  0  0  0  0  0  0  0  0  0
    2.4770   -0.2514    0.3964 C   0  0  0  0  0  0  0  0  0  0  0  0
    3.0973   -1.0220   -0.7597 C   0  0  0  0  0  0  0  0  0  0  0  0
    2.6997   -0.5212   -2.1288 C   0  0  0  0  0  0  0  0  0  0  0  0
    1.3425   -0.5308   -2.4679 C   0  0  0  0  0  0  0  0  0  0  0  0
    0.8467   -0.1208   -3.6528 N   0  0  0  0  0  0  0  0  0  0  0  0
    1.7425    0.3259   -4.5571 C   0  0  0  0  0  0  0  0  0  0  0  0
    3.1206    0.3836   -4.3481 C   0  0  0  0  0  0  0  0  0  0  0  0
    3.9884    0.8785   -5.3386 C   0  0  0  0  0  0  0  0  0  0  0  0
    5.3618    0.9329   -5.1192 C   0  0  0  0  0  0  0  0  0  0  0  0
    5.8825    0.4825   -3.9115 C   0  0  0  0  0  0  0  0  0  0  0  0
    5.0283   -0.0133   -2.9270 C   0  0  0  0  0  0  0  0  0  0  0  0
    3.6241   -0.0622   -3.1044 C   0  0  0  0  0  0  0  0  0  0  0  0
    3.1270    0.8808    0.8456 N   0  0  0  0  0  0  0  0  0  0  0  0
    2.6116    1.6412    1.9689 C   0  0  0  0  0  0  0  0  0  0  0  0
    2.9479    3.0778    1.6089 C   0  0  0  0  0  0  0  0  0  0  0  0
    4.3026    2.9599    0.8959 C   0  0  1  0  0  0  0  0  0  0  0  0
    5.4728    2.9717    1.8966 C   0  0  0  0  0  0  0  0  0  0  0  0
    6.8412    2.9468    1.2530 C   0  0  0  0  0  0  0  0  0  0  0  0
    7.2427    3.9515    0.3628 C   0  0  0  0  0  0  0  0  0  0  0  0
    8.5150    3.9242   -0.2155 C   0  0  0  0  0  0  0  0  0  0  0  0
    9.4199    2.9025    0.0997 C   0  0  0  0  0  0  0  0  0  0  0  0
   10.7772    2.8508   -0.5524 C   0  0  0  0  0  0  0  0  0  0  0  0
   11.2680    4.0820   -0.8689 F   0  0  0  0  0  0  0  0  0  0  0  0
   11.7263    2.2646    0.2305 F   0  0  0  0  0  0  0  0  0  0  0  0
    9.0241    1.9056    1.0005 C   0  0  0  0  0  0  0  0  0  0  0  0
    7.7504    1.9308    1.5747 C   0  0  0  0  0  0  0  0  0  0  0  0
    4.1566    1.6327    0.1354 C   0  0  0  0  0  0  0  0  0  0  0  0
    2.7661   -2.0661   -0.6714 H   0  0  0  0  0  0  0  0  0  0  0  0
    4.1764   -1.0650   -0.6056 H   0  0  0  0  0  0  0  0  0  0  0  0
    0.5875   -0.8863   -1.7676 H   0  0  0  0  0  0  0  0  0  0  0  0
    1.3032    0.6478   -5.4979 H   0  0  0  0  0  0  0  0  0  0  0  0
    3.5948    1.2264   -6.2910 H   0  0  0  0  0  0  0  0  0  0  0  0
    6.0242    1.3183   -5.8912 H   0  0  0  0  0  0  0  0  0  0  0  0
    6.9558    0.5123   -3.7379 H   0  0  0  0  0  0  0  0  0  0  0  0
    5.4936   -0.3581   -2.0076 H   0  0  0  0  0  0  0  0  0  0  0  0
    3.1594    1.3188    2.8621 H   0  0  0  0  0  0  0  0  0  0  0  0
    1.5436    1.4799    2.1356 H   0  0  0  0  0  0  0  0  0  0  0  0
    2.9560    3.7436    2.4760 H   0  0  0  0  0  0  0  0  0  0  0  0
    2.1996    3.4532    0.8987 H   0  0  0  0  0  0  0  0  0  0  0  0
    4.4210    3.7885    0.1882 H   0  0  0  0  0  0  0  0  0  0  0  0
    5.3801    2.1296    2.5935 H   0  0  0  0  0  0  0  0  0  0  0  0
    5.4162    3.8786    2.5133 H   0  0  0  0  0  0  0  0  0  0  0  0
    6.5731    4.7733    0.1174 H   0  0  0  0  0  0  0  0  0  0  0  0
    8.8036    4.7162   -0.9052 H   0  0  0  0  0  0  0  0  0  0  0  0
   10.7114    2.2731   -1.4797 H   0  0  0  0  0  0  0  0  0  0  0  0
    9.7145    1.1081    1.2713 H   0  0  0  0  0  0  0  0  0  0  0  0
    7.4780    1.1515    2.2838 H   0  0  0  0  0  0  0  0  0  0  0  0
    5.0769    1.0460    0.0786 H   0  0  0  0  0  0  0  0  0  0  0  0
    3.7917    1.8278   -0.8767 H   0  0  0  0  0  0  0  0  0  0  0  0
  1  2  2  0  0  0  0
  2  3  1  0  0  0  0
  2 14  1  0  0  0  0
  3  4  1  0  0  0  0
  3 29  1  0  0  0  0
  3 30  1  0  0  0  0
  4  5  1  0  0  0  0
  4 13  2  0  0  0  0
  5  6  2  0  0  0  0
  5 31  1  0  0  0  0
  6  7  1  0  0  0  0
  7  8  2  0  0  0  0
  7 32  1  0  0  0  0
  8  9  1  0  0  0  0
  8 13  1  0  0  0  0
  9 10  2  0  0  0  0
  9 33  1  0  0  0  0
 10 11  1  0  0  0  0
 10 34  1  0  0  0  0
 11 12  2  0  0  0  0
 11 35  1  0  0  0  0
 12 13  1  0  0  0  0
 12 36  1  0  0  0  0
 14 15  1  0  0  0  0
 14 28  1  0  0  0  0
 15 16  1  0  0  0  0
 15 37  1  0  0  0  0
 15 38  1  0  0  0  0
 16 17  1  0  0  0  0
 16 39  1  0  0  0  0
 16 40  1  0  0  0  0
 17 18  1  0  0  0  0
 17 28  1  0  0  0  0
 17 41  1  6  0  0  0
 18 19  1  0  0  0  0
 18 42  1  0  0  0  0
 18 43  1  0  0  0  0
 19 20  1  0  0  0  0
 19 27  2  0  0  0  0
 20 21  2  0  0  0  0
 20 44  1  0  0  0  0
 21 22  1  0  0  0  0
 21 45  1  0  0  0  0
 22 23  1  0  0  0  0
 22 26  2  0  0  0  0
 23 24  1  0  0  0  0
 23 25  1  0  0  0  0
 23 46  1  0  0  0  0
 26 27  1  0  0  0  0
 26 47  1  0  0  0  0
 27 48  1  0  0  0  0
 28 49  1  0  0  0  0
 28 50  1  0  0  0  0
M  END
$$$$
