
 OpenBabel07202414173D

 47 49  0  0  1  0  0  0  0  0999 V2000
    1.0527    0.5457    0.3398 Cl  0  0  0  0  0  0  0  0  0  0  0  0
    2.8032    0.5875    0.5988 C   0  0  0  0  0  0  0  0  0  0  0  0
    3.3341   -0.6922    1.2293 C   0  0  0  0  0  0  0  0  0  0  0  0
    2.6060   -1.6208    1.5760 O   0  0  0  0  0  0  0  0  0  0  0  0
    4.7222   -0.7652    1.3654 N   0  0  0  0  0  0  0  0  0  0  0  0
    5.6584    0.3169    1.0367 C   0  0  0  0  0  0  0  0  0  0  0  0
    6.8701   -0.2213    0.2646 C   0  0  0  0  0  0  0  0  0  0  0  0
    7.5680   -1.3275    0.9949 N   0  0  0  0  0  0  0  0  0  0  0  0
    8.4734   -0.8908    2.3843 S   0  0  0  0  0  0  0  0  0  0  0  0
    7.5752   -0.3434    3.3735 O   0  0  0  0  0  0  0  0  0  0  0  0
    9.3830   -1.9735    2.6889 O   0  0  0  0  0  0  0  0  0  0  0  0
    9.5340    0.4353    2.0224 C   0  0  0  0  0  0  0  0  0  0  0  0
    9.4741    1.7147    2.6626 C   0  0  0  0  0  0  0  0  0  0  0  0
   10.4403    2.5748    2.1875 C   0  0  0  0  0  0  0  0  0  0  0  0
   11.4335    1.8324    1.0069 S   0  0  0  0  0  0  0  0  0  0  0  0
   10.5741    0.3557    1.1227 C   0  0  0  0  0  0  0  0  0  0  0  0
    6.5624   -2.4498    1.2457 C   0  0  1  0  0  0  0  0  0  0  0  0
    7.1466   -3.6961    1.8886 C   0  0  0  0  0  0  0  0  0  0  0  0
    6.7658   -4.1289    2.9688 O   0  0  0  0  0  0  0  0  0  0  0  0
    8.0878   -4.3484    1.1097 N   0  0  0  0  0  0  0  0  0  0  0  0
    8.7078   -5.5749    1.5660 C   0  0  0  0  0  0  0  0  0  0  0  0
    9.1060   -6.4920    0.4258 C   0  0  0  0  0  0  0  0  0  0  0  0
    9.1451   -7.8717    0.6341 C   0  0  0  0  0  0  0  0  0  0  0  0
    9.5459   -8.7070   -0.4060 C   0  0  0  0  0  0  0  0  0  0  0  0
    9.8955   -8.1475   -1.6267 C   0  0  0  0  0  0  0  0  0  0  0  0
    9.8293   -6.7697   -1.7565 C   0  0  0  0  0  0  0  0  0  0  0  0
    9.4566   -5.9291   -0.7615 N   0  0  0  0  0  0  0  0  0  0  0  0
    5.3271   -1.9389    2.0303 C   0  0  0  0  0  0  0  0  0  0  0  0
    3.0312    1.4404    1.2454 H   0  0  0  0  0  0  0  0  0  0  0  0
    3.2635    0.7199   -0.3837 H   0  0  0  0  0  0  0  0  0  0  0  0
    5.9504    0.7928    1.9757 H   0  0  0  0  0  0  0  0  0  0  0  0
    5.1818    1.0927    0.4357 H   0  0  0  0  0  0  0  0  0  0  0  0
    7.5669    0.5792    0.0054 H   0  0  0  0  0  0  0  0  0  0  0  0
    6.5194   -0.6335   -0.6938 H   0  0  0  0  0  0  0  0  0  0  0  0
    8.7699    1.9870    3.4424 H   0  0  0  0  0  0  0  0  0  0  0  0
   10.6241    3.5984    2.4881 H   0  0  0  0  0  0  0  0  0  0  0  0
   10.8830   -0.5035    0.5419 H   0  0  0  0  0  0  0  0  0  0  0  0
    6.2026   -2.7732    0.2574 H   0  0  0  0  0  0  0  0  0  0  0  0
    8.5539   -3.8519    0.3642 H   0  0  0  0  0  0  0  0  0  0  0  0
    8.0092   -6.0980    2.2275 H   0  0  0  0  0  0  0  0  0  0  0  0
    9.5972   -5.3047    2.1453 H   0  0  0  0  0  0  0  0  0  0  0  0
    8.8582   -8.3013    1.5915 H   0  0  0  0  0  0  0  0  0  0  0  0
    9.5817   -9.7840   -0.2647 H   0  0  0  0  0  0  0  0  0  0  0  0
   10.2066   -8.7692   -2.4588 H   0  0  0  0  0  0  0  0  0  0  0  0
   10.0791   -6.2890   -2.6984 H   0  0  0  0  0  0  0  0  0  0  0  0
    5.5825   -1.6347    3.0493 H   0  0  0  0  0  0  0  0  0  0  0  0
    4.5920   -2.7439    2.1346 H   0  0  0  0  0  0  0  0  0  0  0  0
  1  2  1  0  0  0  0
  2  3  1  0  0  0  0
  2 29  1  0  0  0  0
  2 30  1  0  0  0  0
  3  4  2  0  0  0  0
  3  5  1  0  0  0  0
  5  6  1  0  0  0  0
  5 28  1  0  0  0  0
  6  7  1  0  0  0  0
  6 31  1  0  0  0  0
  6 32  1  0  0  0  0
  7  8  1  0  0  0  0
  7 33  1  0  0  0  0
  7 34  1  0  0  0  0
  8  9  1  0  0  0  0
  8 17  1  0  0  0  0
  9 10  2  0  0  0  0
  9 11  2  0  0  0  0
  9 12  1  0  0  0  0
 12 13  1  0  0  0  0
 12 16  2  0  0  0  0
 13 14  2  0  0  0  0
 13 35  1  0  0  0  0
 14 15  1  0  0  0  0
 14 36  1  0  0  0  0
 15 16  1  0  0  0  0
 16 37  1  0  0  0  0
 17 18  1  0  0  0  0
 17 28  1  0  0  0  0
 17 38  1  6  0  0  0
 18 19  2  0  0  0  0
 18 20  1  0  0  0  0
 20 21  1  0  0  0  0
 20 39  1  0  0  0  0
 21 22  1  0  0  0  0
 21 40  1  0  0  0  0
 21 41  1  0  0  0  0
 22 23  1  0  0  0  0
 22 27  2  0  0  0  0
 23 24  2  0  0  0  0
 23 42  1  0  0  0  0
 24 25  1  0  0  0  0
 24 43  1  0  0  0  0
 25 26  2  0  0  0  0
 25 44  1  0  0  0  0
 26 27  1  0  0  0  0
 26 45  1  0  0  0  0
 28 46  1  0  0  0  0
 28 47  1  0  0  0  0
M  END
$$$$
