
 OpenBabel07202414173D

 42 45  0  0  1  0  0  0  0  0999 V2000
   10.7635   -2.4189   -0.0281 Cl  0  0  0  0  0  0  0  0  0  0  0  0
    9.2787   -3.1107   -0.5496 C   0  0  0  0  0  0  0  0  0  0  0  0
    9.2859   -4.1886   -1.4308 C   0  0  0  0  0  0  0  0  0  0  0  0
    8.0787   -4.7651   -1.8300 C   0  0  0  0  0  0  0  0  0  0  0  0
    6.8696   -4.2797   -1.3332 C   0  0  0  0  0  0  0  0  0  0  0  0
    6.8577   -3.1931   -0.4530 C   0  0  0  0  0  0  0  0  0  0  0  0
    8.0738   -2.6047   -0.0664 C   0  0  0  0  0  0  0  0  0  0  0  0
    5.5604   -2.7116    0.1488 C   0  0  3  0  0  0  0  0  0  0  0  0
    5.3584   -3.1388    1.6123 C   0  0  0  0  0  0  0  0  0  0  0  0
    4.6163   -2.4753    2.3336 O   0  0  0  0  0  0  0  0  0  0  0  0
    6.0197   -4.2956    1.9999 N   0  0  0  0  0  0  0  0  0  0  0  0
    5.9876   -4.8983    3.2814 C   0  0  0  0  0  0  0  0  0  0  0  0
    5.0108   -4.5893    4.2308 C   0  0  0  0  0  0  0  0  0  0  0  0
    4.9307   -5.1387    5.4663 N   0  0  0  0  0  0  0  0  0  0  0  0
    5.8727   -6.0412    5.7865 C   0  0  0  0  0  0  0  0  0  0  0  0
    6.8837   -6.4419    4.9230 C   0  0  0  0  0  0  0  0  0  0  0  0
    6.9570   -5.8570    3.6402 C   0  0  0  0  0  0  0  0  0  0  0  0
    8.0497   -6.3110    2.6905 C   0  0  0  0  0  0  0  0  0  0  0  0
    9.1934   -6.9687    3.3365 N   0  0  0  0  0  0  0  0  0  0  0  0
    8.7249   -8.0207    4.2412 C   0  0  0  0  0  0  0  0  0  0  0  0
    7.9174   -7.4298    5.3974 C   0  0  0  0  0  0  0  0  0  0  0  0
    4.3823   -3.1820   -0.7011 C   0  0  0  0  0  0  0  0  0  0  0  0
    4.5446   -4.6559   -1.0305 C   0  0  0  0  0  0  0  0  0  0  0  0
    5.7445   -4.9267   -1.7600 O   0  0  0  0  0  0  0  0  0  0  0  0
   10.2238   -4.5880   -1.8068 H   0  0  0  0  0  0  0  0  0  0  0  0
    8.0819   -5.6069   -2.5181 H   0  0  0  0  0  0  0  0  0  0  0  0
    8.0807   -1.7666    0.6289 H   0  0  0  0  0  0  0  0  0  0  0  0
    5.5700   -1.6129    0.1434 H   0  0  0  0  0  0  0  0  0  0  0  0
    6.6745   -4.6915    1.3392 H   0  0  0  0  0  0  0  0  0  0  0  0
    4.2063   -3.8907    4.0279 H   0  0  0  0  0  0  0  0  0  0  0  0
    5.7920   -6.4452    6.7919 H   0  0  0  0  0  0  0  0  0  0  0  0
    8.4559   -5.4497    2.1491 H   0  0  0  0  0  0  0  0  0  0  0  0
    7.6147   -6.9909    1.9473 H   0  0  0  0  0  0  0  0  0  0  0  0
    9.7013   -6.2681    3.8779 H   0  0  0  0  0  0  0  0  0  0  0  0
    9.5882   -8.5632    4.6427 H   0  0  0  0  0  0  0  0  0  0  0  0
    8.1263   -8.7535    3.6855 H   0  0  0  0  0  0  0  0  0  0  0  0
    8.5941   -6.9072    6.0865 H   0  0  0  0  0  0  0  0  0  0  0  0
    7.4365   -8.2435    5.9519 H   0  0  0  0  0  0  0  0  0  0  0  0
    4.3658   -2.6094   -1.6376 H   0  0  0  0  0  0  0  0  0  0  0  0
    3.4274   -3.0083   -0.1905 H   0  0  0  0  0  0  0  0  0  0  0  0
    3.7058   -4.9820   -1.6554 H   0  0  0  0  0  0  0  0  0  0  0  0
    4.5270   -5.2806   -0.1319 H   0  0  0  0  0  0  0  0  0  0  0  0
  1  2  1  0  0  0  0
  2  3  1  0  0  0  0
  2  7  2  0  0  0  0
  3  4  2  0  0  0  0
  3 25  1  0  0  0  0
  4  5  1  0  0  0  0
  4 26  1  0  0  0  0
  5  6  2  0  0  0  0
  5 24  1  0  0  0  0
  6  7  1  0  0  0  0
  6  8  1  0  0  0  0
  7 27  1  0  0  0  0
  8  9  1  0  0  0  0
  8 22  1  0  0  0  0
  8 28  1  0  0  0  0
  9 10  2  0  0  0  0
  9 11  1  0  0  0  0
 11 12  1  0  0  0  0
 11 29  1  0  0  0  0
 12 13  1  0  0  0  0
 12 17  2  0  0  0  0
 13 14  2  0  0  0  0
 13 30  1  0  0  0  0
 14 15  1  0  0  0  0
 15 16  2  0  0  0  0
 15 31  1  0  0  0  0
 16 17  1  0  0  0  0
 16 21  1  0  0  0  0
 17 18  1  0  0  0  0
 18 19  1  0  0  0  0
 18 32  1  0  0  0  0
 18 33  1  0  0  0  0
 19 20  1  0  0  0  0
 19 34  1  0  0  0  0
 20 21  1  0  0  0  0
 20 35  1  0  0  0  0
 20 36  1  0  0  0  0
 21 37  1  0  0  0  0
 21 38  1  0  0  0  0
 22 23  1  0  0  0  0
 22 39  1  0  0  0  0
 22 40  1  0  0  0  0
 23 24  1  0  0  0  0
 23 41  1  0  0  0  0
 23 42  1  0  0  0  0
M  END
$$$$
