
 OpenBabel07202414153D

 62 65  0  0  0  0  0  0  0  0999 V2000
    1.5233    0.3505   -2.5268 C   0  0  0  0  0  0  0  0  0  0  0  0
    0.6962    0.5215   -1.3764 O   0  0  0  0  0  0  0  0  0  0  0  0
    1.3590    0.7218   -0.1944 C   0  0  0  0  0  0  0  0  0  0  0  0
    2.6186    1.3465   -0.1470 C   0  0  0  0  0  0  0  0  0  0  0  0
    3.3414    1.4724    1.0582 C   0  0  0  0  0  0  0  0  0  0  0  0
    4.6309    2.0041    1.1004 C   0  0  0  0  0  0  0  0  0  0  0  0
    5.3882    2.1128    2.2092 N   0  0  0  0  0  0  0  0  0  0  0  0
    4.8236    1.6936    3.3713 C   0  0  0  0  0  0  0  0  0  0  0  0
    3.5329    1.1813    3.4777 C   0  0  0  0  0  0  0  0  0  0  0  0
    2.9481    0.7014    4.7868 C   0  0  0  0  0  0  0  0  0  0  0  0
    3.4651    1.2754    6.1079 C   0  0  0  0  0  0  0  0  0  0  0  0
    4.0905    2.3372    6.1534 O   0  0  0  0  0  0  0  0  0  0  0  0
    3.2221    0.5029    7.2602 N   0  0  0  0  0  0  0  0  0  0  0  0
    3.6858    1.0341    8.5469 C   0  0  0  0  0  0  0  0  0  0  0  0
    4.8859    0.3569    9.1796 C   0  0  0  0  0  0  0  0  0  0  0  0
    6.1236    0.2811    8.5247 C   0  0  0  0  0  0  0  0  0  0  0  0
    7.2648   -0.1625    9.2053 C   0  0  0  0  0  0  0  0  0  0  0  0
    7.1852   -0.5355   10.5477 C   0  0  0  0  0  0  0  0  0  0  0  0
    5.9572   -0.4880   11.1990 C   0  0  0  0  0  0  0  0  0  0  0  0
    5.8510   -0.9236   12.8610 Cl  0  0  0  0  0  0  0  0  0  0  0  0
    4.8156   -0.0514   10.5248 C   0  0  0  0  0  0  0  0  0  0  0  0
    2.1098   -0.3885    7.3130 C   0  0  0  0  0  0  0  0  0  0  0  0
    2.1303   -1.5191    8.1098 C   0  0  0  0  0  0  0  0  0  0  0  0
    1.0136   -2.3717    8.1113 C   0  0  0  0  0  0  0  0  0  0  0  0
   -0.1305   -2.1037    7.3467 C   0  0  0  0  0  0  0  0  0  0  0  0
   -1.2507   -2.9198    7.3869 N   0  0  0  0  0  0  0  0  0  0  0  0
   -1.0907   -4.3735    7.4224 C   0  0  0  0  0  0  0  0  0  0  0  0
   -2.5436   -2.4670    6.8729 C   0  0  0  0  0  0  0  0  0  0  0  0
   -0.0449   -0.9258    6.6110 C   0  0  0  0  0  0  0  0  0  0  0  0
    1.0254   -0.0898    6.5740 N   0  0  0  0  0  0  0  0  0  0  0  0
    2.7822    1.0315    2.2673 C   0  0  0  0  0  0  0  0  0  0  0  0
    1.4908    0.4593    2.1983 C   0  0  0  0  0  0  0  0  0  0  0  0
    0.7714    0.3051    1.0021 C   0  0  0  0  0  0  0  0  0  0  0  0
   -0.4476   -0.2717    1.2309 O   0  0  0  0  0  0  0  0  0  0  0  0
   -1.3146   -0.5644    0.1506 C   0  0  0  0  0  0  0  0  0  0  0  0
    0.9797   -0.2699   -3.2448 H   0  0  0  0  0  0  0  0  0  0  0  0
    2.4632   -0.1667   -2.2994 H   0  0  0  0  0  0  0  0  0  0  0  0
    1.7210    1.3211   -2.9930 H   0  0  0  0  0  0  0  0  0  0  0  0
    3.0652    1.7438   -1.0559 H   0  0  0  0  0  0  0  0  0  0  0  0
    5.1251    2.3575    0.2013 H   0  0  0  0  0  0  0  0  0  0  0  0
    5.4703    1.7891    4.2384 H   0  0  0  0  0  0  0  0  0  0  0  0
    3.0598   -0.3892    4.8018 H   0  0  0  0  0  0  0  0  0  0  0  0
    1.8941    0.9860    4.7622 H   0  0  0  0  0  0  0  0  0  0  0  0
    2.8392    1.0277    9.2463 H   0  0  0  0  0  0  0  0  0  0  0  0
    3.9484    2.0946    8.4442 H   0  0  0  0  0  0  0  0  0  0  0  0
    6.2226    0.6167    7.4933 H   0  0  0  0  0  0  0  0  0  0  0  0
    8.2269   -0.1847    8.6975 H   0  0  0  0  0  0  0  0  0  0  0  0
    8.0816   -0.8418   11.0816 H   0  0  0  0  0  0  0  0  0  0  0  0
    3.8739    0.0122   11.0664 H   0  0  0  0  0  0  0  0  0  0  0  0
    3.0003   -1.7836    8.6994 H   0  0  0  0  0  0  0  0  0  0  0  0
    1.0484   -3.2446    8.7566 H   0  0  0  0  0  0  0  0  0  0  0  0
   -0.0871   -4.7131    7.6909 H   0  0  0  0  0  0  0  0  0  0  0  0
   -1.3228   -4.8051    6.4415 H   0  0  0  0  0  0  0  0  0  0  0  0
   -1.7893   -4.7968    8.1518 H   0  0  0  0  0  0  0  0  0  0  0  0
   -2.6629   -1.3793    6.8888 H   0  0  0  0  0  0  0  0  0  0  0  0
   -3.3420   -2.8696    7.5067 H   0  0  0  0  0  0  0  0  0  0  0  0
   -2.7088   -2.8261    5.8507 H   0  0  0  0  0  0  0  0  0  0  0  0
   -0.8579   -0.5920    5.9726 H   0  0  0  0  0  0  0  0  0  0  0  0
    1.0057    0.0920    3.1006 H   0  0  0  0  0  0  0  0  0  0  0  0
   -2.2541   -0.9244    0.5860 H   0  0  0  0  0  0  0  0  0  0  0  0
   -0.9104   -1.3727   -0.4653 H   0  0  0  0  0  0  0  0  0  0  0  0
   -1.5577    0.3242   -0.4375 H   0  0  0  0  0  0  0  0  0  0  0  0
  1  2  1  0  0  0  0
  1 36  1  0  0  0  0
  1 37  1  0  0  0  0
  1 38  1  0  0  0  0
  2  3  1  0  0  0  0
  3  4  1  0  0  0  0
  3 33  2  0  0  0  0
  4  5  2  0  0  0  0
  4 39  1  0  0  0  0
  5  6  1  0  0  0  0
  5 31  1  0  0  0  0
  6  7  2  0  0  0  0
  6 40  1  0  0  0  0
  7  8  1  0  0  0  0
  8  9  2  0  0  0  0
  8 41  1  0  0  0  0
  9 10  1  0  0  0  0
  9 31  1  0  0  0  0
 10 11  1  0  0  0  0
 10 42  1  0  0  0  0
 10 43  1  0  0  0  0
 11 12  2  0  0  0  0
 11 13  1  0  0  0  0
 13 14  1  0  0  0  0
 13 22  1  0  0  0  0
 14 15  1  0  0  0  0
 14 44  1  0  0  0  0
 14 45  1  0  0  0  0
 15 16  1  0  0  0  0
 15 21  2  0  0  0  0
 16 17  2  0  0  0  0
 16 46  1  0  0  0  0
 17 18  1  0  0  0  0
 17 47  1  0  0  0  0
 18 19  2  0  0  0  0
 18 48  1  0  0  0  0
 19 20  1  0  0  0  0
 19 21  1  0  0  0  0
 21 49  1  0  0  0  0
 22 23  1  0  0  0  0
 22 30  2  0  0  0  0
 23 24  2  0  0  0  0
 23 50  1  0  0  0  0
 24 25  1  0  0  0  0
 24 51  1  0  0  0  0
 25 26  1  0  0  0  0
 25 29  2  0  0  0  0
 26 27  1  0  0  0  0
 26 28  1  0  0  0  0
 27 52  1  0  0  0  0
 27 53  1  0  0  0  0
 27 54  1  0  0  0  0
 28 55  1  0  0  0  0
 28 56  1  0  0  0  0
 28 57  1  0  0  0  0
 29 30  1  0  0  0  0
 29 58  1  0  0  0  0
 31 32  2  0  0  0  0
 32 33  1  0  0  0  0
 32 59  1  0  0  0  0
 33 34  1  0  0  0  0
 34 35  1  0  0  0  0
 35 60  1  0  0  0  0
 35 61  1  0  0  0  0
 35 62  1  0  0  0  0
M  END
$$$$
