
 OpenBabel07202414133D

 45 47  0  0  0  0  0  0  0  0999 V2000
    1.5969    0.8657    0.7443 C   0  0  0  0  0  0  0  0  0  0  0  0
    2.5464    0.0993   -0.0626 N   0  0  0  0  0  0  0  0  0  0  0  0
    3.2297   -1.0149    0.4976 C   0  0  0  0  0  0  0  0  0  0  0  0
    2.7393   -2.2926    0.2591 C   0  0  0  0  0  0  0  0  0  0  0  0
    3.3954   -3.4035    0.7925 C   0  0  0  0  0  0  0  0  0  0  0  0
    4.5647   -3.2672    1.5762 C   0  0  0  0  0  0  0  0  0  0  0  0
    5.2504   -4.3518    2.1729 C   0  0  0  0  0  0  0  0  0  0  0  0
    4.8376   -5.6896    1.9408 N   0  0  0  0  0  0  0  0  0  0  0  0
    4.8167   -6.6555    2.9334 C   0  0  0  0  0  0  0  0  0  0  0  0
    5.0882   -6.4463    4.1135 O   0  0  0  0  0  0  0  0  0  0  0  0
    4.3887   -8.0309    2.4511 C   0  0  0  0  0  0  0  0  0  0  0  0
    2.9042   -8.2323    2.2376 C   0  0  0  0  0  0  0  0  0  0  0  0
    1.9296   -7.5509    2.9813 C   0  0  0  0  0  0  0  0  0  0  0  0
    0.5689   -7.8055    2.7786 C   0  0  0  0  0  0  0  0  0  0  0  0
    0.1615   -8.7600    1.8468 C   0  0  0  0  0  0  0  0  0  0  0  0
    1.1201   -9.4676    1.1291 C   0  0  0  0  0  0  0  0  0  0  0  0
    0.6288  -10.6707    0.0008 Cl  0  0  0  0  0  0  0  0  0  0  0  0
    2.4793   -9.2138    1.3233 C   0  0  0  0  0  0  0  0  0  0  0  0
    6.3636   -4.0690    2.9691 C   0  0  0  0  0  0  0  0  0  0  0  0
    6.8458   -2.8256    3.1967 N   0  0  0  0  0  0  0  0  0  0  0  0
    6.1700   -1.8059    2.6267 C   0  0  0  0  0  0  0  0  0  0  0  0
    5.0358   -1.9535    1.8248 C   0  0  0  0  0  0  0  0  0  0  0  0
    4.3643   -0.8383    1.2861 C   0  0  0  0  0  0  0  0  0  0  0  0
    2.9247    0.6112   -1.6245 S   0  0  0  0  0  0  0  0  0  0  0  0
    4.2595    1.7423   -1.3157 C   0  0  0  0  0  0  0  0  0  0  0  0
    3.4524   -0.4996   -2.3904 O   0  0  0  0  0  0  0  0  0  0  0  0
    1.8055    1.3839   -2.1211 O   0  0  0  0  0  0  0  0  0  0  0  0
    1.5312    0.4788    1.7663 H   0  0  0  0  0  0  0  0  0  0  0  0
    0.5976    0.7977    0.3032 H   0  0  0  0  0  0  0  0  0  0  0  0
    1.8959    1.9159    0.8022 H   0  0  0  0  0  0  0  0  0  0  0  0
    1.8459   -2.4320   -0.3438 H   0  0  0  0  0  0  0  0  0  0  0  0
    2.9560   -4.3775    0.5978 H   0  0  0  0  0  0  0  0  0  0  0  0
    4.2714   -5.8723    1.1225 H   0  0  0  0  0  0  0  0  0  0  0  0
    4.7412   -8.7667    3.1840 H   0  0  0  0  0  0  0  0  0  0  0  0
    4.9268   -8.2309    1.5155 H   0  0  0  0  0  0  0  0  0  0  0  0
    2.2127   -6.8237    3.7420 H   0  0  0  0  0  0  0  0  0  0  0  0
   -0.1772   -7.2674    3.3605 H   0  0  0  0  0  0  0  0  0  0  0  0
   -0.8970   -8.9571    1.6980 H   0  0  0  0  0  0  0  0  0  0  0  0
    3.2118   -9.7965    0.7677 H   0  0  0  0  0  0  0  0  0  0  0  0
    6.9480   -4.8619    3.4303 H   0  0  0  0  0  0  0  0  0  0  0  0
    6.5808   -0.8241    2.8502 H   0  0  0  0  0  0  0  0  0  0  0  0
    4.7263    0.1661    1.4903 H   0  0  0  0  0  0  0  0  0  0  0  0
    5.1100    1.1926   -0.9077 H   0  0  0  0  0  0  0  0  0  0  0  0
    3.9269    2.5212   -0.6284 H   0  0  0  0  0  0  0  0  0  0  0  0
    4.5416    2.1904   -2.2710 H   0  0  0  0  0  0  0  0  0  0  0  0
  1  2  1  0  0  0  0
  1 28  1  0  0  0  0
  1 29  1  0  0  0  0
  1 30  1  0  0  0  0
  2  3  1  0  0  0  0
  2 24  1  0  0  0  0
  3  4  1  0  0  0  0
  3 23  2  0  0  0  0
  4  5  2  0  0  0  0
  4 31  1  0  0  0  0
  5  6  1  0  0  0  0
  5 32  1  0  0  0  0
  6  7  1  0  0  0  0
  6 22  2  0  0  0  0
  7  8  1  0  0  0  0
  7 19  2  0  0  0  0
  8  9  1  0  0  0  0
  8 33  1  0  0  0  0
  9 10  2  0  0  0  0
  9 11  1  0  0  0  0
 11 12  1  0  0  0  0
 11 34  1  0  0  0  0
 11 35  1  0  0  0  0
 12 13  1  0  0  0  0
 12 18  2  0  0  0  0
 13 14  2  0  0  0  0
 13 36  1  0  0  0  0
 14 15  1  0  0  0  0
 14 37  1  0  0  0  0
 15 16  2  0  0  0  0
 15 38  1  0  0  0  0
 16 17  1  0  0  0  0
 16 18  1  0  0  0  0
 18 39  1  0  0  0  0
 19 20  1  0  0  0  0
 19 40  1  0  0  0  0
 20 21  2  0  0  0  0
 21 22  1  0  0  0  0
 21 41  1  0  0  0  0
 22 23  1  0  0  0  0
 23 42  1  0  0  0  0
 24 25  1  0  0  0  0
 24 26  2  0  0  0  0
 24 27  2  0  0  0  0
 25 43  1  0  0  0  0
 25 44  1  0  0  0  0
 25 45  1  0  0  0  0
M  END
$$$$
