
 OpenBabel07202414153D

 44 46  0  0  0  0  0  0  0  0999 V2000
    2.2469    5.0478    1.9369 C   0  0  0  0  0  0  0  0  0  0  0  0
    2.9015    4.0866    1.1212 O   0  0  0  0  0  0  0  0  0  0  0  0
    3.1985    2.8805    1.6931 C   0  0  0  0  0  0  0  0  0  0  0  0
    3.9078    2.0128    0.8677 C   0  0  0  0  0  0  0  0  0  0  0  0
    4.3040    0.7401    1.3128 C   0  0  0  0  0  0  0  0  0  0  0  0
    5.0508   -0.0917    0.4628 C   0  0  0  0  0  0  0  0  0  0  0  0
    5.4730   -1.3512    0.8796 C   0  0  0  0  0  0  0  0  0  0  0  0
    5.1504   -1.7919    2.1553 C   0  0  0  0  0  0  0  0  0  0  0  0
    4.4051   -0.9743    3.0089 C   0  0  0  0  0  0  0  0  0  0  0  0
    3.9553    0.3102    2.6170 C   0  0  0  0  0  0  0  0  0  0  0  0
    3.1890    1.1821    3.4494 C   0  0  0  0  0  0  0  0  0  0  0  0
    2.8485    2.4695    2.9785 C   0  0  0  0  0  0  0  0  0  0  0  0
    2.7185    0.7864    4.8507 C   0  0  0  0  0  0  0  0  0  0  0  0
    1.8728   -0.4060    4.8438 N   0  0  0  0  0  0  0  0  0  0  0  0
    0.5408   -0.2496    4.2508 C   0  0  0  0  0  0  0  0  0  0  0  0
   -0.6223    0.0465    5.2223 C   0  0  0  0  0  0  0  0  0  0  0  0
   -0.5952   -0.7957    6.4195 N   0  0  0  0  0  0  0  0  0  0  0  0
    0.7104   -0.8799    7.0730 C   0  0  0  0  0  0  0  0  0  0  0  0
    1.8581   -1.1726    6.0935 C   0  0  0  0  0  0  0  0  0  0  0  0
   -1.7222   -1.1698    7.1603 C   0  0  0  0  0  0  0  0  0  0  0  0
   -1.6061   -1.7547    8.2388 O   0  0  0  0  0  0  0  0  0  0  0  0
   -3.0800   -0.8071    6.5699 C   0  0  0  0  0  0  0  0  0  0  0  0
   -4.4226   -1.3628    7.5941 Cl  0  0  0  0  0  0  0  0  0  0  0  0
    2.0561    5.9335    1.3232 H   0  0  0  0  0  0  0  0  0  0  0  0
    2.8863    5.3490    2.7729 H   0  0  0  0  0  0  0  0  0  0  0  0
    1.2798    4.6761    2.2899 H   0  0  0  0  0  0  0  0  0  0  0  0
    4.1656    2.3418   -0.1371 H   0  0  0  0  0  0  0  0  0  0  0  0
    5.3144    0.2396   -0.5403 H   0  0  0  0  0  0  0  0  0  0  0  0
    6.0538   -1.9823    0.2122 H   0  0  0  0  0  0  0  0  0  0  0  0
    5.4744   -2.7733    2.4915 H   0  0  0  0  0  0  0  0  0  0  0  0
    4.1715   -1.3618    3.9975 H   0  0  0  0  0  0  0  0  0  0  0  0
    2.3011    3.1348    3.6381 H   0  0  0  0  0  0  0  0  0  0  0  0
    2.2029    1.6194    5.3458 H   0  0  0  0  0  0  0  0  0  0  0  0
    3.6338    0.6151    5.4338 H   0  0  0  0  0  0  0  0  0  0  0  0
    0.3151   -1.1988    3.7482 H   0  0  0  0  0  0  0  0  0  0  0  0
    0.5345    0.5047    3.4552 H   0  0  0  0  0  0  0  0  0  0  0  0
   -1.5639   -0.0916    4.6844 H   0  0  0  0  0  0  0  0  0  0  0  0
   -0.5852    1.0869    5.5633 H   0  0  0  0  0  0  0  0  0  0  0  0
    0.7022   -1.6576    7.8450 H   0  0  0  0  0  0  0  0  0  0  0  0
    0.8736    0.0792    7.5782 H   0  0  0  0  0  0  0  0  0  0  0  0
    1.7856   -2.2292    5.8062 H   0  0  0  0  0  0  0  0  0  0  0  0
    2.8140   -1.0849    6.6251 H   0  0  0  0  0  0  0  0  0  0  0  0
   -3.2068   -1.2745    5.5908 H   0  0  0  0  0  0  0  0  0  0  0  0
   -3.1626    0.2802    6.4918 H   0  0  0  0  0  0  0  0  0  0  0  0
  1  2  1  0  0  0  0
  1 24  1  0  0  0  0
  1 25  1  0  0  0  0
  1 26  1  0  0  0  0
  2  3  1  0  0  0  0
  3  4  1  0  0  0  0
  3 12  2  0  0  0  0
  4  5  2  0  0  0  0
  4 27  1  0  0  0  0
  5  6  1  0  0  0  0
  5 10  1  0  0  0  0
  6  7  2  0  0  0  0
  6 28  1  0  0  0  0
  7  8  1  0  0  0  0
  7 29  1  0  0  0  0
  8  9  2  0  0  0  0
  8 30  1  0  0  0  0
  9 10  1  0  0  0  0
  9 31  1  0  0  0  0
 10 11  2  0  0  0  0
 11 12  1  0  0  0  0
 11 13  1  0  0  0  0
 12 32  1  0  0  0  0
 13 14  1  0  0  0  0
 13 33  1  0  0  0  0
 13 34  1  0  0  0  0
 14 15  1  0  0  0  0
 14 19  1  0  0  0  0
 15 16  1  0  0  0  0
 15 35  1  0  0  0  0
 15 36  1  0  0  0  0
 16 17  1  0  0  0  0
 16 37  1  0  0  0  0
 16 38  1  0  0  0  0
 17 18  1  0  0  0  0
 17 20  1  0  0  0  0
 18 19  1  0  0  0  0
 18 39  1  0  0  0  0
 18 40  1  0  0  0  0
 19 41  1  0  0  0  0
 19 42  1  0  0  0  0
 20 21  2  0  0  0  0
 20 22  1  0  0  0  0
 22 23  1  0  0  0  0
 22 43  1  0  0  0  0
 22 44  1  0  0  0  0
M  END
$$$$
