
 OpenBabel07202414213D

 31 32  0  0  0  0  0  0  0  0999 V2000
    0.9584   -2.6367    1.3314 C   0  0  0  0  0  0  0  0  0  0  0  0
    0.8969   -3.7542    2.1388 C   0  0  0  0  0  0  0  0  0  0  0  0
    2.3541   -4.6409    2.1154 S   0  0  0  0  0  0  0  0  0  0  0  0
    3.0675   -3.5369    1.0262 C   0  0  0  0  0  0  0  0  0  0  0  0
    2.2344   -2.4788    0.6893 C   0  0  0  0  0  0  0  0  0  0  0  0
    2.6163   -1.3398   -0.2229 C   0  0  0  0  0  0  0  0  0  0  0  0
    3.8653   -0.7466    0.2608 N   0  0  0  0  0  0  0  0  0  0  0  0
    3.7226    0.0489    1.4913 C   0  0  0  0  0  0  0  0  0  0  0  0
    3.2946    1.5171    1.3026 C   0  0  0  0  0  0  0  0  0  0  0  0
    4.0904    2.2065    0.2872 N   0  0  0  0  0  0  0  0  0  0  0  0
    4.2558    1.4697   -0.9687 C   0  0  0  0  0  0  0  0  0  0  0  0
    4.6185   -0.0116   -0.7661 C   0  0  0  0  0  0  0  0  0  0  0  0
    4.3346    3.5857    0.2700 C   0  0  0  0  0  0  0  0  0  0  0  0
    4.8790    4.1171   -0.6992 O   0  0  0  0  0  0  0  0  0  0  0  0
    3.8851    4.3731    1.4951 C   0  0  0  0  0  0  0  0  0  0  0  0
    4.2819    6.0991    1.3595 Cl  0  0  0  0  0  0  0  0  0  0  0  0
    0.1286   -1.9527    1.2168 H   0  0  0  0  0  0  0  0  0  0  0  0
    0.0650   -4.0923    2.7426 H   0  0  0  0  0  0  0  0  0  0  0  0
    4.0894   -3.6937    0.6960 H   0  0  0  0  0  0  0  0  0  0  0  0
    1.8106   -0.6006   -0.3017 H   0  0  0  0  0  0  0  0  0  0  0  0
    2.7572   -1.7728   -1.2218 H   0  0  0  0  0  0  0  0  0  0  0  0
    4.7030    0.0465    1.9828 H   0  0  0  0  0  0  0  0  0  0  0  0
    3.0421   -0.4297    2.2060 H   0  0  0  0  0  0  0  0  0  0  0  0
    3.3808    2.0292    2.2656 H   0  0  0  0  0  0  0  0  0  0  0  0
    2.2466    1.5804    0.9892 H   0  0  0  0  0  0  0  0  0  0  0  0
    5.0315    1.9414   -1.5834 H   0  0  0  0  0  0  0  0  0  0  0  0
    3.3089    1.5597   -1.5128 H   0  0  0  0  0  0  0  0  0  0  0  0
    5.6731   -0.0561   -0.4688 H   0  0  0  0  0  0  0  0  0  0  0  0
    4.5719   -0.5298   -1.7330 H   0  0  0  0  0  0  0  0  0  0  0  0
    4.3804    3.9977    2.3932 H   0  0  0  0  0  0  0  0  0  0  0  0
    2.7992    4.2977    1.5945 H   0  0  0  0  0  0  0  0  0  0  0  0
  1  2  2  0  0  0  0
  1  5  1  0  0  0  0
  1 17  1  0  0  0  0
  2  3  1  0  0  0  0
  2 18  1  0  0  0  0
  3  4  1  0  0  0  0
  4  5  2  0  0  0  0
  4 19  1  0  0  0  0
  5  6  1  0  0  0  0
  6  7  1  0  0  0  0
  6 20  1  0  0  0  0
  6 21  1  0  0  0  0
  7  8  1  0  0  0  0
  7 12  1  0  0  0  0
  8  9  1  0  0  0  0
  8 22  1  0  0  0  0
  8 23  1  0  0  0  0
  9 10  1  0  0  0  0
  9 24  1  0  0  0  0
  9 25  1  0  0  0  0
 10 11  1  0  0  0  0
 10 13  1  0  0  0  0
 11 12  1  0  0  0  0
 11 26  1  0  0  0  0
 11 27  1  0  0  0  0
 12 28  1  0  0  0  0
 12 29  1  0  0  0  0
 13 14  2  0  0  0  0
 13 15  1  0  0  0  0
 15 16  1  0  0  0  0
 15 30  1  0  0  0  0
 15 31  1  0  0  0  0
M  END
$$$$
