
 OpenBabel07202414163D

 46 49  0  0  0  0  0  0  0  0999 V2000
   -2.1114   -0.2686    0.0897 Cl  0  0  0  0  0  0  0  0  0  0  0  0
   -0.3958   -0.1336    0.0542 C   0  0  0  0  0  0  0  0  0  0  0  0
    0.1949    1.1312    0.0378 C   0  0  0  0  0  0  0  0  0  0  0  0
    1.5884    1.2599   -0.0024 C   0  0  0  0  0  0  0  0  0  0  0  0
    2.2323    2.6231   -0.1029 C   0  0  0  0  0  0  0  0  0  0  0  0
    3.2629    2.9589    0.9642 C   0  0  0  0  0  0  0  0  0  0  0  0
    4.3630    3.4130    0.6570 O   0  0  0  0  0  0  0  0  0  0  0  0
    2.8393    2.7478    2.2645 N   0  0  0  0  0  0  0  0  0  0  0  0
    3.6442    3.0580    3.3908 C   0  0  0  0  0  0  0  0  0  0  0  0
    4.3449    4.2613    3.4670 C   0  0  0  0  0  0  0  0  0  0  0  0
    5.0905    4.6489    4.5290 N   0  0  0  0  0  0  0  0  0  0  0  0
    5.1750    3.7710    5.5537 C   0  0  0  0  0  0  0  0  0  0  0  0
    4.5477    2.5231    5.5818 C   0  0  0  0  0  0  0  0  0  0  0  0
    4.7243    1.6347    6.6555 C   0  0  0  0  0  0  0  0  0  0  0  0
    4.1317    0.3737    6.6432 C   0  0  0  0  0  0  0  0  0  0  0  0
    3.3398   -0.0060    5.5670 C   0  0  0  0  0  0  0  0  0  0  0  0
    3.1356    0.8782    4.5064 C   0  0  0  0  0  0  0  0  0  0  0  0
    3.7394    2.1552    4.4791 C   0  0  0  0  0  0  0  0  0  0  0  0
    2.3676    0.0912   -0.0076 C   0  0  0  0  0  0  0  0  0  0  0  0
    1.7804   -1.1844    0.0582 C   0  0  0  0  0  0  0  0  0  0  0  0
    2.5558   -2.3658    0.1160 N   0  0  0  0  0  0  0  0  0  0  0  0
    3.8441   -2.5085    0.6959 C   0  0  0  0  0  0  0  0  0  0  0  0
    4.1699   -1.7716    1.8465 C   0  0  0  0  0  0  0  0  0  0  0  0
    5.4290   -1.8470    2.4304 C   0  0  0  0  0  0  0  0  0  0  0  0
    6.3849   -2.6973    1.8876 C   0  0  0  0  0  0  0  0  0  0  0  0
    6.0734   -3.4849    0.7738 C   0  0  0  0  0  0  0  0  0  0  0  0
    7.3185   -4.5324    0.1867 Cl  0  0  0  0  0  0  0  0  0  0  0  0
    4.8027   -3.4028    0.1799 C   0  0  0  0  0  0  0  0  0  0  0  0
    4.3475   -4.4726   -1.3351 Br  0  0  0  0  0  0  0  0  0  0  0  0
    0.3875   -1.2864    0.0529 C   0  0  0  0  0  0  0  0  0  0  0  0
   -0.4392    2.0163    0.0342 H   0  0  0  0  0  0  0  0  0  0  0  0
    1.4733    3.4134   -0.0707 H   0  0  0  0  0  0  0  0  0  0  0  0
    2.7220    2.6916   -1.0823 H   0  0  0  0  0  0  0  0  0  0  0  0
    2.0971    2.0741    2.3934 H   0  0  0  0  0  0  0  0  0  0  0  0
    4.2967    4.9977    2.6686 H   0  0  0  0  0  0  0  0  0  0  0  0
    5.8002    4.1067    6.3758 H   0  0  0  0  0  0  0  0  0  0  0  0
    5.3488    1.9132    7.5044 H   0  0  0  0  0  0  0  0  0  0  0  0
    4.2933   -0.3147    7.4696 H   0  0  0  0  0  0  0  0  0  0  0  0
    2.8873   -0.9944    5.5433 H   0  0  0  0  0  0  0  0  0  0  0  0
    2.5229    0.5308    3.6805 H   0  0  0  0  0  0  0  0  0  0  0  0
    3.4510    0.1777   -0.0798 H   0  0  0  0  0  0  0  0  0  0  0  0
    2.4308   -2.9485   -0.7102 H   0  0  0  0  0  0  0  0  0  0  0  0
    3.4247   -1.1249    2.2988 H   0  0  0  0  0  0  0  0  0  0  0  0
    5.6591   -1.2424    3.3048 H   0  0  0  0  0  0  0  0  0  0  0  0
    7.3703   -2.7474    2.3439 H   0  0  0  0  0  0  0  0  0  0  0  0
   -0.0860   -2.2649    0.0806 H   0  0  0  0  0  0  0  0  0  0  0  0
  1  2  1  0  0  0  0
  2  3  2  0  0  0  0
  2 30  1  0  0  0  0
  3  4  1  0  0  0  0
  3 31  1  0  0  0  0
  4  5  1  0  0  0  0
  4 19  2  0  0  0  0
  5  6  1  0  0  0  0
  5 32  1  0  0  0  0
  5 33  1  0  0  0  0
  6  7  2  0  0  0  0
  6  8  1  0  0  0  0
  8  9  1  0  0  0  0
  8 34  1  0  0  0  0
  9 10  2  0  0  0  0
  9 18  1  0  0  0  0
 10 11  1  0  0  0  0
 10 35  1  0  0  0  0
 11 12  2  0  0  0  0
 12 13  1  0  0  0  0
 12 36  1  0  0  0  0
 13 14  2  0  0  0  0
 13 18  1  0  0  0  0
 14 15  1  0  0  0  0
 14 37  1  0  0  0  0
 15 16  2  0  0  0  0
 15 38  1  0  0  0  0
 16 17  1  0  0  0  0
 16 39  1  0  0  0  0
 17 18  2  0  0  0  0
 17 40  1  0  0  0  0
 19 20  1  0  0  0  0
 19 41  1  0  0  0  0
 20 21  1  0  0  0  0
 20 30  2  0  0  0  0
 21 22  1  0  0  0  0
 21 42  1  0  0  0  0
 22 23  2  0  0  0  0
 22 28  1  0  0  0  0
 23 24  1  0  0  0  0
 23 43  1  0  0  0  0
 24 25  2  0  0  0  0
 24 44  1  0  0  0  0
 25 26  1  0  0  0  0
 25 45  1  0  0  0  0
 26 27  1  0  0  0  0
 26 28  2  0  0  0  0
 28 29  1  0  0  0  0
 30 46  1  0  0  0  0
M  END
$$$$
