
 OpenBabel07202414203D

 40 43  0  0  1  0  0  0  0  0999 V2000
    4.7009   -0.7373   -0.3736 C   0  0  0  0  0  0  0  0  0  0  0  0
    4.7568    0.5844    0.0490 C   0  0  0  0  0  0  0  0  0  0  0  0
    3.6123    1.3982   -0.0196 C   0  0  0  0  0  0  0  0  0  0  0  0
    2.3760    0.9164   -0.5196 C   0  0  0  0  0  0  0  0  0  0  0  0
    2.3665   -0.4381   -0.9640 C   0  0  0  0  0  0  0  0  0  0  0  0
    3.5137   -1.2465   -0.8827 C   0  0  0  0  0  0  0  0  0  0  0  0
    1.1907   -0.9624   -1.4882 C   0  0  0  0  0  0  0  0  0  0  0  0
    0.0397   -0.2792   -1.6031 N   0  0  0  0  0  0  0  0  0  0  0  0
    0.0628    1.0073   -1.1789 C   0  0  0  0  0  0  0  0  0  0  0  0
    1.1717    1.6758   -0.6394 C   0  0  0  0  0  0  0  0  0  0  0  0
    1.0723    3.0344   -0.1843 N   0  0  0  0  0  0  0  0  0  0  0  0
    0.0741    3.9038   -0.5842 C   0  0  0  0  0  0  0  0  0  0  0  0
   -0.6725    3.6801   -1.5414 O   0  0  0  0  0  0  0  0  0  0  0  0
   -0.1116    5.2238    0.1583 C   0  0  3  0  0  0  0  0  0  0  0  0
   -0.2895    5.0773    1.6674 C   0  0  0  0  0  0  0  0  0  0  0  0
   -0.8033    6.4179    2.1847 C   0  0  0  0  0  0  0  0  0  0  0  0
    0.1994    7.4516    1.9624 N   0  0  0  0  0  0  0  0  0  0  0  0
    0.7739    7.5160    0.6820 C   0  0  0  0  0  0  0  0  0  0  0  0
    0.7900    6.3962   -0.1850 C   0  0  0  0  0  0  0  0  0  0  0  0
    1.4659    6.4865   -1.4105 C   0  0  0  0  0  0  0  0  0  0  0  0
    2.1102    7.6722   -1.7706 C   0  0  0  0  0  0  0  0  0  0  0  0
    2.0952    8.7745   -0.9221 C   0  0  0  0  0  0  0  0  0  0  0  0
    1.4511    8.6853    0.3105 C   0  0  0  0  0  0  0  0  0  0  0  0
    2.9055    7.7863   -3.2923 Cl  0  0  0  0  0  0  0  0  0  0  0  0
    5.5845   -1.3650   -0.3198 H   0  0  0  0  0  0  0  0  0  0  0  0
    5.6829    0.9870    0.4341 H   0  0  0  0  0  0  0  0  0  0  0  0
    3.7150    2.4329    0.3103 H   0  0  0  0  0  0  0  0  0  0  0  0
    3.4857   -2.2789   -1.2225 H   0  0  0  0  0  0  0  0  0  0  0  0
    1.1364   -1.9853   -1.8429 H   0  0  0  0  0  0  0  0  0  0  0  0
   -0.9102    1.4812   -1.2692 H   0  0  0  0  0  0  0  0  0  0  0  0
    1.8331    3.4119    0.3641 H   0  0  0  0  0  0  0  0  0  0  0  0
   -1.0969    5.5571   -0.2135 H   0  0  0  0  0  0  0  0  0  0  0  0
    0.6570    4.8176    2.1585 H   0  0  0  0  0  0  0  0  0  0  0  0
   -1.0111    4.2855    1.9003 H   0  0  0  0  0  0  0  0  0  0  0  0
   -1.0221    6.3570    3.2554 H   0  0  0  0  0  0  0  0  0  0  0  0
   -1.7392    6.7024    1.6843 H   0  0  0  0  0  0  0  0  0  0  0  0
   -0.0806    8.3669    2.3089 H   0  0  0  0  0  0  0  0  0  0  0  0
    1.4634    5.6552   -2.1120 H   0  0  0  0  0  0  0  0  0  0  0  0
    2.5770    9.7048   -1.2117 H   0  0  0  0  0  0  0  0  0  0  0  0
    1.4576    9.5483    0.9726 H   0  0  0  0  0  0  0  0  0  0  0  0
  1  2  1  0  0  0  0
  1  6  2  0  0  0  0
  1 25  1  0  0  0  0
  2  3  2  0  0  0  0
  2 26  1  0  0  0  0
  3  4  1  0  0  0  0
  3 27  1  0  0  0  0
  4  5  1  0  0  0  0
  4 10  2  0  0  0  0
  5  6  1  0  0  0  0
  5  7  2  0  0  0  0
  6 28  1  0  0  0  0
  7  8  1  0  0  0  0
  7 29  1  0  0  0  0
  8  9  2  0  0  0  0
  9 10  1  0  0  0  0
  9 30  1  0  0  0  0
 10 11  1  0  0  0  0
 11 12  1  0  0  0  0
 11 31  1  0  0  0  0
 12 13  2  0  0  0  0
 12 14  1  0  0  0  0
 14 15  1  0  0  0  0
 14 19  1  0  0  0  0
 14 32  1  0  0  0  0
 15 16  1  0  0  0  0
 15 33  1  0  0  0  0
 15 34  1  0  0  0  0
 16 17  1  0  0  0  0
 16 35  1  0  0  0  0
 16 36  1  0  0  0  0
 17 18  1  0  0  0  0
 17 37  1  0  0  0  0
 18 19  1  0  0  0  0
 18 23  2  0  0  0  0
 19 20  2  0  0  0  0
 20 21  1  0  0  0  0
 20 38  1  0  0  0  0
 21 22  2  0  0  0  0
 21 24  1  0  0  0  0
 22 23  1  0  0  0  0
 22 39  1  0  0  0  0
 23 40  1  0  0  0  0
M  END
$$$$
