
 OpenBabel07202414153D

 48 53  0  0  1  0  0  0  0  0999 V2000
    0.7164    0.2061   -0.5799 C   0  0  0  0  0  0  0  0  0  0  0  0
    2.2044   -0.0412   -0.6487 C   0  0  1  0  0  0  0  0  0  0  0  0
    2.5368   -1.0347   -1.7772 C   0  0  0  0  0  0  0  0  0  0  0  0
    3.9083   -1.3239   -1.4884 N   0  0  0  0  0  0  0  0  0  0  0  0
    4.1003   -2.4353   -0.5426 C   0  0  0  0  0  0  0  0  0  0  0  0
    2.9640   -2.9750    0.1149 C   0  0  0  0  0  0  0  0  0  0  0  0
    2.9238   -3.9368    1.0527 N   0  0  0  0  0  0  0  0  0  0  0  0
    4.0897   -4.5338    1.2877 C   0  0  0  0  0  0  0  0  0  0  0  0
    5.2568   -4.2505    0.5875 C   0  0  0  0  0  0  0  0  0  0  0  0
    6.3479   -5.1209    0.7548 C   0  0  0  0  0  0  0  0  0  0  0  0
    7.5056   -4.9073    0.0300 C   0  0  0  0  0  0  0  0  0  0  0  0
    7.6165   -3.7842   -0.7888 C   0  0  0  0  0  0  0  0  0  0  0  0
    6.5413   -2.9001   -0.9494 C   0  0  0  0  0  0  0  0  0  0  0  0
    5.3067   -3.1365   -0.3064 C   0  0  0  0  0  0  0  0  0  0  0  0
    4.4818   -0.0166   -1.2327 C   0  0  0  0  0  0  0  0  0  0  0  0
    5.6761    0.2487   -1.1964 O   0  0  0  0  0  0  0  0  0  0  0  0
    3.2694    1.0461   -0.9573 C   0  0  1  0  0  0  0  0  0  0  0  0
    2.8180    1.8257   -2.2385 C   0  0  0  0  0  0  0  0  0  0  0  0
    2.2290    3.1218   -1.9703 N   0  0  0  0  0  0  0  0  0  0  0  0
    1.3776    3.7158   -2.8204 N   0  0  0  0  0  0  0  0  0  0  0  0
    1.0450    4.8873   -2.2886 N   0  0  0  0  0  0  0  0  0  0  0  0
    1.6972    5.0006   -1.0861 C   0  0  0  0  0  0  0  0  0  0  0  0
    2.4404    3.8644   -0.8534 C   0  0  0  0  0  0  0  0  0  0  0  0
    3.2895    3.3760    0.2057 C   0  0  0  0  0  0  0  0  0  0  0  0
    3.7684    4.2653    1.1762 C   0  0  0  0  0  0  0  0  0  0  0  0
    4.6288    3.8198    2.1779 C   0  0  0  0  0  0  0  0  0  0  0  0
    4.9595    2.4655    2.2340 C   0  0  0  0  0  0  0  0  0  0  0  0
    6.0461    1.9208    3.4502 Cl  0  0  0  0  0  0  0  0  0  0  0  0
    4.4696    1.5646    1.2861 C   0  0  0  0  0  0  0  0  0  0  0  0
    3.6549    2.0009    0.2196 C   0  0  0  0  0  0  0  0  0  0  0  0
    0.2839   -0.5468    0.0970 H   0  0  0  0  0  0  0  0  0  0  0  0
    0.2251    0.0548   -1.5449 H   0  0  0  0  0  0  0  0  0  0  0  0
    0.4732    1.1873   -0.1766 H   0  0  0  0  0  0  0  0  0  0  0  0
    2.4693   -0.4466    0.3399 H   0  0  0  0  0  0  0  0  0  0  0  0
    1.9095   -1.9192   -1.8924 H   0  0  0  0  0  0  0  0  0  0  0  0
    2.5276   -0.5935   -2.7833 H   0  0  0  0  0  0  0  0  0  0  0  0
    1.9534   -2.6370   -0.0808 H   0  0  0  0  0  0  0  0  0  0  0  0
    4.0491   -5.3004    2.0530 H   0  0  0  0  0  0  0  0  0  0  0  0
    6.2569   -5.9977    1.3821 H   0  0  0  0  0  0  0  0  0  0  0  0
    8.3139   -5.6307    0.0940 H   0  0  0  0  0  0  0  0  0  0  0  0
    8.5441   -3.6141   -1.3332 H   0  0  0  0  0  0  0  0  0  0  0  0
    6.6683   -2.0495   -1.6147 H   0  0  0  0  0  0  0  0  0  0  0  0
    2.0201    1.3012   -2.7771 H   0  0  0  0  0  0  0  0  0  0  0  0
    3.6411    1.9830   -2.9383 H   0  0  0  0  0  0  0  0  0  0  0  0
    1.5771    5.8780   -0.4653 H   0  0  0  0  0  0  0  0  0  0  0  0
    3.5178    5.3264    1.1421 H   0  0  0  0  0  0  0  0  0  0  0  0
    5.0456    4.5255    2.8851 H   0  0  0  0  0  0  0  0  0  0  0  0
    4.7845    0.5240    1.3551 H   0  0  0  0  0  0  0  0  0  0  0  0
  1  2  1  0  0  0  0
  1 31  1  0  0  0  0
  1 32  1  0  0  0  0
  1 33  1  0  0  0  0
  2  3  1  0  0  0  0
  2 17  1  0  0  0  0
  2 34  1  1  0  0  0
  3  4  1  0  0  0  0
  3 35  1  0  0  0  0
  3 36  1  0  0  0  0
  4  5  1  0  0  0  0
  4 15  1  0  0  0  0
  5  6  1  0  0  0  0
  5 14  2  0  0  0  0
  6  7  2  0  0  0  0
  6 37  1  0  0  0  0
  7  8  1  0  0  0  0
  8  9  2  0  0  0  0
  8 38  1  0  0  0  0
  9 10  1  0  0  0  0
  9 14  1  0  0  0  0
 10 11  2  0  0  0  0
 10 39  1  0  0  0  0
 11 12  1  0  0  0  0
 11 40  1  0  0  0  0
 12 13  2  0  0  0  0
 12 41  1  0  0  0  0
 13 14  1  0  0  0  0
 13 42  1  0  0  0  0
 15 16  2  0  0  0  0
 17 15  1  6  0  0  0
 17 18  1  0  0  0  0
 17 30  1  0  0  0  0
 18 19  1  0  0  0  0
 18 43  1  0  0  0  0
 18 44  1  0  0  0  0
 19 20  1  0  0  0  0
 19 23  1  0  0  0  0
 20 21  2  0  0  0  0
 21 22  1  0  0  0  0
 22 23  2  0  0  0  0
 22 45  1  0  0  0  0
 23 24  1  0  0  0  0
 24 25  1  0  0  0  0
 24 30  2  0  0  0  0
 25 26  2  0  0  0  0
 25 46  1  0  0  0  0
 26 27  1  0  0  0  0
 26 47  1  0  0  0  0
 27 28  1  0  0  0  0
 27 29  2  0  0  0  0
 29 30  1  0  0  0  0
 29 48  1  0  0  0  0
M  END
$$$$
