
 OpenBabel07202414133D

 50 52  0  0  0  0  0  0  0  0999 V2000
    2.9414   -1.5984    1.9931 C   0  0  0  0  0  0  0  0  0  0  0  0
    3.5225   -0.6686    1.0348 N   0  0  0  0  0  0  0  0  0  0  0  0
    3.2343    0.7459    1.2157 C   0  0  0  0  0  0  0  0  0  0  0  0
    4.2475   -1.1618   -0.0604 C   0  0  0  0  0  0  0  0  0  0  0  0
    4.5187   -2.3553   -0.1937 O   0  0  0  0  0  0  0  0  0  0  0  0
    4.6952   -0.0908   -1.0887 C   0  0  0  0  0  0  0  0  0  0  0  0
    5.4211   -0.5456   -2.2855 N   0  0  0  0  0  0  0  0  0  0  0  0
    4.6043   -0.9738   -3.4222 C   0  0  0  0  0  0  0  0  0  0  0  0
    4.2785    0.1414   -4.4018 C   0  0  0  0  0  0  0  0  0  0  0  0
    5.1084    0.3696   -5.5107 C   0  0  0  0  0  0  0  0  0  0  0  0
    4.7744    1.3256   -6.4754 C   0  0  0  0  0  0  0  0  0  0  0  0
    3.6126    2.0812   -6.3390 C   0  0  0  0  0  0  0  0  0  0  0  0
    2.7950    1.8929   -5.2266 C   0  0  0  0  0  0  0  0  0  0  0  0
    3.1254    0.9311   -4.2636 C   0  0  0  0  0  0  0  0  0  0  0  0
    6.8202   -0.6411   -2.3767 C   0  0  0  0  0  0  0  0  0  0  0  0
    7.3779   -1.0690   -3.3879 O   0  0  0  0  0  0  0  0  0  0  0  0
    7.5805   -0.1999   -1.1348 C   0  0  0  0  0  0  0  0  0  0  0  0
    9.0827   -0.0089   -1.0873 C   0  0  0  0  0  0  0  0  0  0  0  0
    9.9072   -0.0500   -2.2068 C   0  0  0  0  0  0  0  0  0  0  0  0
   11.2214    0.2749   -2.1969 N   0  0  0  0  0  0  0  0  0  0  0  0
   11.7598    0.6169   -1.0078 C   0  0  0  0  0  0  0  0  0  0  0  0
   11.0689    0.6205    0.2006 C   0  0  0  0  0  0  0  0  0  0  0  0
   11.7141    0.8996    1.4219 C   0  0  0  0  0  0  0  0  0  0  0  0
   11.0069    0.8940    2.6224 C   0  0  0  0  0  0  0  0  0  0  0  0
    9.6389    0.6645    2.6063 C   0  0  0  0  0  0  0  0  0  0  0  0
    8.9906    0.3990    1.3960 C   0  0  0  0  0  0  0  0  0  0  0  0
    9.6894    0.3302    0.1644 C   0  0  0  0  0  0  0  0  0  0  0  0
    2.7670   -1.0961    2.9509 H   0  0  0  0  0  0  0  0  0  0  0  0
    3.6071   -2.4491    2.1616 H   0  0  0  0  0  0  0  0  0  0  0  0
    1.9863   -1.9608    1.5990 H   0  0  0  0  0  0  0  0  0  0  0  0
    2.6271    0.9194    2.1080 H   0  0  0  0  0  0  0  0  0  0  0  0
    2.7044    1.1325    0.3416 H   0  0  0  0  0  0  0  0  0  0  0  0
    4.1853    1.2755    1.3270 H   0  0  0  0  0  0  0  0  0  0  0  0
    5.3034    0.6277   -0.5409 H   0  0  0  0  0  0  0  0  0  0  0  0
    3.8057    0.4394   -1.4356 H   0  0  0  0  0  0  0  0  0  0  0  0
    3.6725   -1.4115   -3.0421 H   0  0  0  0  0  0  0  0  0  0  0  0
    5.1129   -1.7824   -3.9608 H   0  0  0  0  0  0  0  0  0  0  0  0
    6.0154   -0.2187   -5.6419 H   0  0  0  0  0  0  0  0  0  0  0  0
    5.4165    1.4688   -7.3412 H   0  0  0  0  0  0  0  0  0  0  0  0
    3.3447    2.8113   -7.0994 H   0  0  0  0  0  0  0  0  0  0  0  0
    1.8891    2.4850   -5.1187 H   0  0  0  0  0  0  0  0  0  0  0  0
    2.4557    0.7888   -3.4204 H   0  0  0  0  0  0  0  0  0  0  0  0
    7.3071   -0.9238   -0.3584 H   0  0  0  0  0  0  0  0  0  0  0  0
    7.2021    0.7963   -0.8861 H   0  0  0  0  0  0  0  0  0  0  0  0
    9.5468   -0.3436   -3.1875 H   0  0  0  0  0  0  0  0  0  0  0  0
   12.8076    0.9020   -1.0556 H   0  0  0  0  0  0  0  0  0  0  0  0
   12.7835    1.0976    1.4446 H   0  0  0  0  0  0  0  0  0  0  0  0
   11.5217    1.0667    3.5639 H   0  0  0  0  0  0  0  0  0  0  0  0
    9.0713    0.6774    3.5340 H   0  0  0  0  0  0  0  0  0  0  0  0
    7.9188    0.2291    1.4411 H   0  0  0  0  0  0  0  0  0  0  0  0
  1  2  1  0  0  0  0
  1 28  1  0  0  0  0
  1 29  1  0  0  0  0
  1 30  1  0  0  0  0
  2  3  1  0  0  0  0
  2  4  1  0  0  0  0
  3 31  1  0  0  0  0
  3 32  1  0  0  0  0
  3 33  1  0  0  0  0
  4  5  2  0  0  0  0
  4  6  1  0  0  0  0
  6  7  1  0  0  0  0
  6 34  1  0  0  0  0
  6 35  1  0  0  0  0
  7  8  1  0  0  0  0
  7 15  1  0  0  0  0
  8  9  1  0  0  0  0
  8 36  1  0  0  0  0
  8 37  1  0  0  0  0
  9 10  1  0  0  0  0
  9 14  2  0  0  0  0
 10 11  2  0  0  0  0
 10 38  1  0  0  0  0
 11 12  1  0  0  0  0
 11 39  1  0  0  0  0
 12 13  2  0  0  0  0
 12 40  1  0  0  0  0
 13 14  1  0  0  0  0
 13 41  1  0  0  0  0
 14 42  1  0  0  0  0
 15 16  2  0  0  0  0
 15 17  1  0  0  0  0
 17 18  1  0  0  0  0
 17 43  1  0  0  0  0
 17 44  1  0  0  0  0
 18 19  1  0  0  0  0
 18 27  2  0  0  0  0
 19 20  2  0  0  0  0
 19 45  1  0  0  0  0
 20 21  1  0  0  0  0
 21 22  2  0  0  0  0
 21 46  1  0  0  0  0
 22 23  1  0  0  0  0
 22 27  1  0  0  0  0
 23 24  2  0  0  0  0
 23 47  1  0  0  0  0
 24 25  1  0  0  0  0
 24 48  1  0  0  0  0
 25 26  2  0  0  0  0
 25 49  1  0  0  0  0
 26 27  1  0  0  0  0
 26 50  1  0  0  0  0
M  END
$$$$
