
 OpenBabel07202414133D

 65 69  0  0  1  0  0  0  0  0999 V2000
    2.1052    3.0056    2.2954 C   0  0  0  0  0  0  0  0  0  0  0  0
    3.2533    2.1810    1.7369 C   0  0  0  0  0  0  0  0  0  0  0  0
    3.3763    0.5861    2.5483 S   0  0  0  0  0  0  0  0  0  0  0  0
    3.6134    0.8163    3.9549 O   0  0  0  0  0  0  0  0  0  0  0  0
    2.2968   -0.2505    2.0714 O   0  0  0  0  0  0  0  0  0  0  0  0
    4.7982   -0.0302    1.8277 N   0  0  0  0  0  0  0  0  0  0  0  0
    5.5254   -0.9785    2.6374 C   0  0  0  0  0  0  0  0  0  0  0  0
    5.1609   -2.3164    2.6624 C   0  0  0  0  0  0  0  0  0  0  0  0
    5.8774   -3.2289    3.4579 C   0  0  0  0  0  0  0  0  0  0  0  0
    6.9685   -2.8290    4.2690 C   0  0  0  0  0  0  0  0  0  0  0  0
    7.7534   -3.7002    5.0912 C   0  0  0  0  0  0  0  0  0  0  0  0
    7.4906   -5.0944    5.2986 N   0  0  0  0  0  0  0  0  0  0  0  0
    6.2665   -5.5351    5.7745 C   0  0  0  0  0  0  0  0  0  0  0  0
    5.3222   -4.7809    6.0168 O   0  0  0  0  0  0  0  0  0  0  0  0
    6.0850   -7.0500    5.9809 C   0  0  3  0  0  0  0  0  0  0  0  0
    7.1176   -7.7384    6.8915 C   0  0  0  0  0  0  0  0  0  0  0  0
    8.2347   -8.4214    6.1331 N   0  0  0  0  0  0  0  0  0  0  0  0
    9.3747   -9.1544    7.2294 S   0  0  0  0  0  0  0  0  0  0  0  0
    9.9029   -8.0848    8.0451 O   0  0  0  0  0  0  0  0  0  0  0  0
    8.6947  -10.2858    7.8222 O   0  0  0  0  0  0  0  0  0  0  0  0
   10.6691   -9.7244    6.1164 C   0  0  0  0  0  0  0  0  0  0  0  0
   11.7108  -10.4637    6.9255 C   0  0  0  0  0  0  0  0  0  0  0  0
   11.2755  -11.6915    7.5605 C   0  0  0  0  0  0  0  0  0  0  0  0
   10.9675  -12.7038    8.0289 N   0  0  0  0  0  0  0  0  0  0  0  0
   13.0896  -10.5516    6.2734 C   0  0  0  0  0  0  0  0  0  0  0  0
   12.9039   -9.7323    7.5137 C   0  0  0  0  0  0  0  0  0  0  0  0
    7.6686   -9.4299    5.1817 C   0  0  0  0  0  0  0  0  0  0  0  0
    6.5345   -8.9245    4.3297 C   0  0  0  0  0  0  0  0  0  0  0  0
    6.1706   -9.6643    3.1895 C   0  0  0  0  0  0  0  0  0  0  0  0
    5.0850   -9.2773    2.4070 C   0  0  0  0  0  0  0  0  0  0  0  0
    4.3511   -8.1511    2.7625 C   0  0  0  0  0  0  0  0  0  0  0  0
    3.0001   -7.6788    1.8089 Cl  0  0  0  0  0  0  0  0  0  0  0  0
    4.6913   -7.4160    3.8979 C   0  0  0  0  0  0  0  0  0  0  0  0
    5.7847   -7.7973    4.6959 C   0  0  0  0  0  0  0  0  0  0  0  0
    8.8723   -3.1552    5.7212 C   0  0  0  0  0  0  0  0  0  0  0  0
    9.2415   -1.8557    5.6566 N   0  0  0  0  0  0  0  0  0  0  0  0
    8.4508   -1.0428    4.9208 C   0  0  0  0  0  0  0  0  0  0  0  0
    7.3273   -1.4583    4.2042 C   0  0  0  0  0  0  0  0  0  0  0  0
    6.5919   -0.5411    3.4172 C   0  0  0  0  0  0  0  0  0  0  0  0
    2.0348    3.9674    1.7764 H   0  0  0  0  0  0  0  0  0  0  0  0
    2.2479    3.2087    3.3618 H   0  0  0  0  0  0  0  0  0  0  0  0
    1.1482    2.4864    2.1805 H   0  0  0  0  0  0  0  0  0  0  0  0
    4.1994    2.7088    1.8880 H   0  0  0  0  0  0  0  0  0  0  0  0
    3.1018    2.0005    0.6682 H   0  0  0  0  0  0  0  0  0  0  0  0
    4.5172   -0.4564    0.9412 H   0  0  0  0  0  0  0  0  0  0  0  0
    4.3213   -2.6771    2.0739 H   0  0  0  0  0  0  0  0  0  0  0  0
    5.5721   -4.2712    3.4321 H   0  0  0  0  0  0  0  0  0  0  0  0
    8.2824   -5.6642    5.5791 H   0  0  0  0  0  0  0  0  0  0  0  0
    5.1516   -7.1088    6.5657 H   0  0  0  0  0  0  0  0  0  0  0  0
    6.5963   -8.5113    7.4763 H   0  0  0  0  0  0  0  0  0  0  0  0
    7.5350   -7.0153    7.6001 H   0  0  0  0  0  0  0  0  0  0  0  0
   11.0787   -8.8361    5.6257 H   0  0  0  0  0  0  0  0  0  0  0  0
   10.2413  -10.4018    5.3763 H   0  0  0  0  0  0  0  0  0  0  0  0
   13.2710  -10.0265    5.3417 H   0  0  0  0  0  0  0  0  0  0  0  0
   13.6487  -11.4802    6.3526 H   0  0  0  0  0  0  0  0  0  0  0  0
   12.9608   -8.6532    7.4225 H   0  0  0  0  0  0  0  0  0  0  0  0
   13.3492  -10.1079    8.4310 H   0  0  0  0  0  0  0  0  0  0  0  0
    7.3128  -10.3157    5.7201 H   0  0  0  0  0  0  0  0  0  0  0  0
    8.4679   -9.7240    4.4946 H   0  0  0  0  0  0  0  0  0  0  0  0
    6.7219  -10.5623    2.9151 H   0  0  0  0  0  0  0  0  0  0  0  0
    4.8076   -9.8654    1.5363 H   0  0  0  0  0  0  0  0  0  0  0  0
    4.0830   -6.5561    4.1775 H   0  0  0  0  0  0  0  0  0  0  0  0
    9.5091   -3.7580    6.3634 H   0  0  0  0  0  0  0  0  0  0  0  0
    8.7748   -0.0040    4.9042 H   0  0  0  0  0  0  0  0  0  0  0  0
    6.8685    0.5109    3.3957 H   0  0  0  0  0  0  0  0  0  0  0  0
  1  2  1  0  0  0  0
  1 40  1  0  0  0  0
  1 41  1  0  0  0  0
  1 42  1  0  0  0  0
  2  3  1  0  0  0  0
  2 43  1  0  0  0  0
  2 44  1  0  0  0  0
  3  4  2  0  0  0  0
  3  5  2  0  0  0  0
  3  6  1  0  0  0  0
  6  7  1  0  0  0  0
  6 45  1  0  0  0  0
  7  8  1  0  0  0  0
  7 39  2  0  0  0  0
  8  9  2  0  0  0  0
  8 46  1  0  0  0  0
  9 10  1  0  0  0  0
  9 47  1  0  0  0  0
 10 11  1  0  0  0  0
 10 38  2  0  0  0  0
 11 12  1  0  0  0  0
 11 35  2  0  0  0  0
 12 13  1  0  0  0  0
 12 48  1  0  0  0  0
 13 14  2  0  0  0  0
 13 15  1  0  0  0  0
 15 16  1  0  0  0  0
 15 34  1  0  0  0  0
 15 49  1  0  0  0  0
 16 17  1  0  0  0  0
 16 50  1  0  0  0  0
 16 51  1  0  0  0  0
 17 18  1  0  0  0  0
 17 27  1  0  0  0  0
 18 19  2  0  0  0  0
 18 20  2  0  0  0  0
 18 21  1  0  0  0  0
 21 22  1  0  0  0  0
 21 52  1  0  0  0  0
 21 53  1  0  0  0  0
 22 23  1  0  0  0  0
 22 25  1  0  0  0  0
 22 26  1  0  0  0  0
 23 24  3  0  0  0  0
 25 26  1  0  0  0  0
 25 54  1  0  0  0  0
 25 55  1  0  0  0  0
 26 56  1  0  0  0  0
 26 57  1  0  0  0  0
 27 28  1  0  0  0  0
 27 58  1  0  0  0  0
 27 59  1  0  0  0  0
 28 29  1  0  0  0  0
 28 34  2  0  0  0  0
 29 30  2  0  0  0  0
 29 60  1  0  0  0  0
 30 31  1  0  0  0  0
 30 61  1  0  0  0  0
 31 32  1  0  0  0  0
 31 33  2  0  0  0  0
 33 34  1  0  0  0  0
 33 62  1  0  0  0  0
 35 36  1  0  0  0  0
 35 63  1  0  0  0  0
 36 37  2  0  0  0  0
 37 38  1  0  0  0  0
 37 64  1  0  0  0  0
 38 39  1  0  0  0  0
 39 65  1  0  0  0  0
M  END
$$$$
