
 OpenBabel07202414163D

 48 50  0  0  0  0  0  0  0  0999 V2000
   -1.8623   -2.1404    0.6144 C   0  0  0  0  0  0  0  0  0  0  0  0
   -1.1653   -3.4667    0.5356 C   0  0  0  0  0  0  0  0  0  0  0  0
   -1.8750   -4.5966    0.9536 C   0  0  0  0  0  0  0  0  0  0  0  0
   -1.2955   -5.8605    0.9437 C   0  0  0  0  0  0  0  0  0  0  0  0
   -0.0033   -5.9604    0.4858 C   0  0  0  0  0  0  0  0  0  0  0  0
    0.7091   -4.9124    0.0582 N   0  0  0  0  0  0  0  0  0  0  0  0
    0.1528   -3.6706    0.0950 C   0  0  0  0  0  0  0  0  0  0  0  0
    0.9863   -2.6255   -0.3090 N   0  0  0  0  0  0  0  0  0  0  0  0
    2.3445   -2.6672   -0.4517 C   0  0  0  0  0  0  0  0  0  0  0  0
    2.9310   -1.6579   -0.8520 O   0  0  0  0  0  0  0  0  0  0  0  0
    2.9885   -3.8219   -0.0884 N   0  0  0  0  0  0  0  0  0  0  0  0
    4.3586   -3.9417   -0.0266 C   0  0  0  0  0  0  0  0  0  0  0  0
    5.0813   -3.0759    0.7066 C   0  0  0  0  0  0  0  0  0  0  0  0
    6.4593   -3.1321    0.8268 N   0  0  0  0  0  0  0  0  0  0  0  0
    7.2174   -4.0687    0.1229 C   0  0  0  0  0  0  0  0  0  0  0  0
    8.4419   -4.1351    0.1784 O   0  0  0  0  0  0  0  0  0  0  0  0
    6.4685   -5.0381   -0.7217 C   0  0  0  0  0  0  0  0  0  0  0  0
    5.0649   -5.0030   -0.7675 C   0  0  0  0  0  0  0  0  0  0  0  0
    4.4061   -5.9114   -1.6135 C   0  0  0  0  0  0  0  0  0  0  0  0
    5.1299   -6.8452   -2.3637 C   0  0  0  0  0  0  0  0  0  0  0  0
    6.5201   -6.8774   -2.2945 C   0  0  0  0  0  0  0  0  0  0  0  0
    7.1915   -5.9672   -1.4829 C   0  0  0  0  0  0  0  0  0  0  0  0
    7.1315   -2.2318    1.7647 C   0  0  0  0  0  0  0  0  0  0  0  0
    7.5968   -0.8748    1.1963 C   0  0  0  0  0  0  0  0  0  0  0  0
    8.6083   -1.0052    0.0588 C   0  0  0  0  0  0  0  0  0  0  0  0
    6.4247   -0.0075    0.7403 C   0  0  0  0  0  0  0  0  0  0  0  0
   -2.7398   -2.2169    1.2761 H   0  0  0  0  0  0  0  0  0  0  0  0
   -2.2301   -1.8324   -0.3685 H   0  0  0  0  0  0  0  0  0  0  0  0
   -1.2282   -1.3630    1.0433 H   0  0  0  0  0  0  0  0  0  0  0  0
   -2.8947   -4.4973    1.3210 H   0  0  0  0  0  0  0  0  0  0  0  0
   -1.8315   -6.7319    1.2948 H   0  0  0  0  0  0  0  0  0  0  0  0
    0.5184   -6.9162    0.4553 H   0  0  0  0  0  0  0  0  0  0  0  0
    0.5944   -1.7118   -0.4817 H   0  0  0  0  0  0  0  0  0  0  0  0
    2.4179   -4.6549   -0.2202 H   0  0  0  0  0  0  0  0  0  0  0  0
    4.5810   -2.2918    1.2688 H   0  0  0  0  0  0  0  0  0  0  0  0
    3.3263   -5.8869   -1.7341 H   0  0  0  0  0  0  0  0  0  0  0  0
    4.6058   -7.5354   -3.0205 H   0  0  0  0  0  0  0  0  0  0  0  0
    7.0835   -7.5977   -2.8821 H   0  0  0  0  0  0  0  0  0  0  0  0
    8.2789   -5.9690   -1.4530 H   0  0  0  0  0  0  0  0  0  0  0  0
    8.0032   -2.7586    2.1746 H   0  0  0  0  0  0  0  0  0  0  0  0
    6.4634   -2.0606    2.6194 H   0  0  0  0  0  0  0  0  0  0  0  0
    8.0949   -0.3444    2.0193 H   0  0  0  0  0  0  0  0  0  0  0  0
    8.1433   -1.4226   -0.8400 H   0  0  0  0  0  0  0  0  0  0  0  0
    9.4532   -1.6410    0.3417 H   0  0  0  0  0  0  0  0  0  0  0  0
    9.0122   -0.0214   -0.2068 H   0  0  0  0  0  0  0  0  0  0  0  0
    5.9261   -0.4417   -0.1315 H   0  0  0  0  0  0  0  0  0  0  0  0
    6.7741    0.9909    0.4581 H   0  0  0  0  0  0  0  0  0  0  0  0
    5.6876    0.1087    1.5405 H   0  0  0  0  0  0  0  0  0  0  0  0
  1  2  1  0  0  0  0
  1 27  1  0  0  0  0
  1 28  1  0  0  0  0
  1 29  1  0  0  0  0
  2  3  1  0  0  0  0
  2  7  2  0  0  0  0
  3  4  2  0  0  0  0
  3 30  1  0  0  0  0
  4  5  1  0  0  0  0
  4 31  1  0  0  0  0
  5  6  2  0  0  0  0
  5 32  1  0  0  0  0
  6  7  1  0  0  0  0
  7  8  1  0  0  0  0
  8  9  1  0  0  0  0
  8 33  1  0  0  0  0
  9 10  2  0  0  0  0
  9 11  1  0  0  0  0
 11 12  1  0  0  0  0
 11 34  1  0  0  0  0
 12 13  2  0  0  0  0
 12 18  1  0  0  0  0
 13 14  1  0  0  0  0
 13 35  1  0  0  0  0
 14 15  1  0  0  0  0
 14 23  1  0  0  0  0
 15 16  2  0  0  0  0
 15 17  1  0  0  0  0
 17 18  1  0  0  0  0
 17 22  2  0  0  0  0
 18 19  2  0  0  0  0
 19 20  1  0  0  0  0
 19 36  1  0  0  0  0
 20 21  2  0  0  0  0
 20 37  1  0  0  0  0
 21 22  1  0  0  0  0
 21 38  1  0  0  0  0
 22 39  1  0  0  0  0
 23 24  1  0  0  0  0
 23 40  1  0  0  0  0
 23 41  1  0  0  0  0
 24 25  1  0  0  0  0
 24 26  1  0  0  0  0
 24 42  1  0  0  0  0
 25 43  1  0  0  0  0
 25 44  1  0  0  0  0
 25 45  1  0  0  0  0
 26 46  1  0  0  0  0
 26 47  1  0  0  0  0
 26 48  1  0  0  0  0
M  END
$$$$
