
 OpenBabel07202414183D

 57 62  0  0  1  0  0  0  0  0999 V2000
    0.8189   -0.0156   -0.0116 Cl  0  0  0  0  0  0  0  0  0  0  0  0
    2.5336    0.0671   -0.1125 C   0  0  0  0  0  0  0  0  0  0  0  0
    3.2815   -1.1018   -0.0284 C   0  0  0  0  0  0  0  0  0  0  0  0
    4.6666   -1.0351   -0.1074 C   0  0  0  0  0  0  0  0  0  0  0  0
    5.3118    0.2039   -0.2458 C   0  0  0  0  0  0  0  0  0  0  0  0
    4.5638    1.4060   -0.3190 C   0  0  0  0  0  0  0  0  0  0  0  0
    3.1607    1.3088   -0.2618 C   0  0  0  0  0  0  0  0  0  0  0  0
    5.2656    2.7803   -0.3642 C   0  0  2  0  0  0  0  0  0  0  0  0
    6.7926    2.6215   -0.6029 C   0  0  0  0  0  0  0  0  0  0  0  0
    7.4139    1.4603    0.1912 N   0  0  0  0  0  0  0  0  0  0  0  0
    7.4986    1.6150    1.8912 S   0  0  0  0  0  0  0  0  0  0  0  0
    8.2955    2.7892    2.1500 O   0  0  0  0  0  0  0  0  0  0  0  0
    6.1456    1.5197    2.3965 O   0  0  0  0  0  0  0  0  0  0  0  0
    8.3833    0.1731    2.5022 C   0  0  0  0  0  0  0  0  0  0  0  0
    8.4310    0.2884    4.0194 C   0  0  0  0  0  0  0  0  0  0  0  0
    7.1628    0.2635    4.7239 C   0  0  0  0  0  0  0  0  0  0  0  0
    6.1748    0.1931    5.3272 N   0  0  0  0  0  0  0  0  0  0  0  0
    9.5306   -0.5036    4.7252 C   0  0  0  0  0  0  0  0  0  0  0  0
    9.6059    0.9923    4.6779 C   0  0  0  0  0  0  0  0  0  0  0  0
    6.8186    0.2058   -0.3125 C   0  0  0  0  0  0  0  0  0  0  0  0
    5.0634    3.5782    0.9369 C   0  0  0  0  0  0  0  0  0  0  0  0
    4.7921    4.9316    0.4358 C   0  0  0  0  0  0  0  0  0  0  0  0
    5.2580    5.9554    0.9262 O   0  0  0  0  0  0  0  0  0  0  0  0
    4.0458    4.7994   -0.6933 N   0  0  0  0  0  0  0  0  0  0  0  0
    3.3142    5.9441   -1.1011 C   0  0  0  0  0  0  0  0  0  0  0  0
    3.5048    6.5659   -2.3229 C   0  0  0  0  0  0  0  0  0  0  0  0
    3.1847    7.8643   -2.5421 N   0  0  0  0  0  0  0  0  0  0  0  0
    2.6203    8.5482   -1.5131 C   0  0  0  0  0  0  0  0  0  0  0  0
    2.2126    7.9779   -0.3074 C   0  0  0  0  0  0  0  0  0  0  0  0
    1.5264    8.7024    0.6951 C   0  0  0  0  0  0  0  0  0  0  0  0
    1.0988    8.0807    1.8676 C   0  0  0  0  0  0  0  0  0  0  0  0
    1.3483    6.7289    2.0582 C   0  0  0  0  0  0  0  0  0  0  0  0
    2.0457    6.0158    1.0848 C   0  0  0  0  0  0  0  0  0  0  0  0
    2.5286    6.6208   -0.1146 C   0  0  0  0  0  0  0  0  0  0  0  0
    4.5784    3.7463   -1.3976 C   0  0  0  0  0  0  0  0  0  0  0  0
    4.5378    3.5581   -2.6078 O   0  0  0  0  0  0  0  0  0  0  0  0
    2.7933   -2.0647    0.1066 H   0  0  0  0  0  0  0  0  0  0  0  0
    5.2428   -1.9565   -0.0347 H   0  0  0  0  0  0  0  0  0  0  0  0
    2.5357    2.1970   -0.3114 H   0  0  0  0  0  0  0  0  0  0  0  0
    7.3488    3.5429   -0.3928 H   0  0  0  0  0  0  0  0  0  0  0  0
    6.9778    2.4162   -1.6688 H   0  0  0  0  0  0  0  0  0  0  0  0
    9.3773    0.1701    2.0462 H   0  0  0  0  0  0  0  0  0  0  0  0
    7.8285   -0.7274    2.2297 H   0  0  0  0  0  0  0  0  0  0  0  0
   10.2309   -1.0766    4.1291 H   0  0  0  0  0  0  0  0  0  0  0  0
    9.3089   -0.9640    5.6855 H   0  0  0  0  0  0  0  0  0  0  0  0
   10.3674    1.4435    4.0511 H   0  0  0  0  0  0  0  0  0  0  0  0
    9.4337    1.5390    5.6009 H   0  0  0  0  0  0  0  0  0  0  0  0
    7.2356   -0.6469    0.2270 H   0  0  0  0  0  0  0  0  0  0  0  0
    7.1300    0.0646   -1.3554 H   0  0  0  0  0  0  0  0  0  0  0  0
    5.9451    3.6874    1.5625 H   0  0  0  0  0  0  0  0  0  0  0  0
    4.2124    3.2552    1.5411 H   0  0  0  0  0  0  0  0  0  0  0  0
    4.0054    6.0777   -3.1532 H   0  0  0  0  0  0  0  0  0  0  0  0
    2.4930    9.6130   -1.6926 H   0  0  0  0  0  0  0  0  0  0  0  0
    1.3123    9.7619    0.5591 H   0  0  0  0  0  0  0  0  0  0  0  0
    0.5645    8.6452    2.6285 H   0  0  0  0  0  0  0  0  0  0  0  0
    1.0099    6.2306    2.9633 H   0  0  0  0  0  0  0  0  0  0  0  0
    2.2025    4.9526    1.2674 H   0  0  0  0  0  0  0  0  0  0  0  0
  1  2  1  0  0  0  0
  2  3  1  0  0  0  0
  2  7  2  0  0  0  0
  3  4  2  0  0  0  0
  3 37  1  0  0  0  0
  4  5  1  0  0  0  0
  4 38  1  0  0  0  0
  5  6  2  0  0  0  0
  5 20  1  0  0  0  0
  6  7  1  0  0  0  0
  7 39  1  0  0  0  0
  8  6  1  1  0  0  0
  8  9  1  0  0  0  0
  8 21  1  0  0  0  0
  8 35  1  0  0  0  0
  9 10  1  0  0  0  0
  9 40  1  0  0  0  0
  9 41  1  0  0  0  0
 10 11  1  0  0  0  0
 10 20  1  0  0  0  0
 11 12  2  0  0  0  0
 11 13  2  0  0  0  0
 11 14  1  0  0  0  0
 14 15  1  0  0  0  0
 14 42  1  0  0  0  0
 14 43  1  0  0  0  0
 15 16  1  0  0  0  0
 15 18  1  0  0  0  0
 15 19  1  0  0  0  0
 16 17  3  0  0  0  0
 18 19  1  0  0  0  0
 18 44  1  0  0  0  0
 18 45  1  0  0  0  0
 19 46  1  0  0  0  0
 19 47  1  0  0  0  0
 20 48  1  0  0  0  0
 20 49  1  0  0  0  0
 21 22  1  0  0  0  0
 21 50  1  0  0  0  0
 21 51  1  0  0  0  0
 22 23  2  0  0  0  0
 22 24  1  0  0  0  0
 24 25  1  0  0  0  0
 24 35  1  0  0  0  0
 25 26  1  0  0  0  0
 25 34  2  0  0  0  0
 26 27  2  0  0  0  0
 26 52  1  0  0  0  0
 27 28  1  0  0  0  0
 28 29  2  0  0  0  0
 28 53  1  0  0  0  0
 29 30  1  0  0  0  0
 29 34  1  0  0  0  0
 30 31  2  0  0  0  0
 30 54  1  0  0  0  0
 31 32  1  0  0  0  0
 31 55  1  0  0  0  0
 32 33  2  0  0  0  0
 32 56  1  0  0  0  0
 33 34  1  0  0  0  0
 33 57  1  0  0  0  0
 35 36  2  0  0  0  0
M  END
$$$$
