
 OpenBabel07202414203D

 47 50  0  0  0  0  0  0  0  0999 V2000
    4.0993   -3.3372    0.2514 C   0  0  0  0  0  0  0  0  0  0  0  0
    4.7758   -3.7836    1.3856 C   0  0  0  0  0  0  0  0  0  0  0  0
    4.0576   -4.1431    2.5214 C   0  0  0  0  0  0  0  0  0  0  0  0
    2.6640   -4.0446    2.5152 C   0  0  0  0  0  0  0  0  0  0  0  0
    1.9560   -3.6255    1.3728 C   0  0  0  0  0  0  0  0  0  0  0  0
    2.6994   -3.2667    0.2409 C   0  0  0  0  0  0  0  0  0  0  0  0
    0.4767   -3.5572    1.4469 C   0  0  0  0  0  0  0  0  0  0  0  0
   -0.1125   -3.6699    2.6495 C   0  0  0  0  0  0  0  0  0  0  0  0
    0.6191   -4.1938    3.8188 C   0  0  0  0  0  0  0  0  0  0  0  0
    0.0126   -4.5064    4.8371 O   0  0  0  0  0  0  0  0  0  0  0  0
    1.9637   -4.3608    3.6838 N   0  0  0  0  0  0  0  0  0  0  0  0
   -0.4168   -3.3146    0.2607 C   0  0  0  0  0  0  0  0  0  0  0  0
   -0.1814   -2.3734   -0.4943 O   0  0  0  0  0  0  0  0  0  0  0  0
   -1.4714   -4.2018    0.0440 N   0  0  0  0  0  0  0  0  0  0  0  0
   -2.3773   -4.0105   -1.1008 C   0  0  0  0  0  0  0  0  0  0  0  0
   -3.8711   -3.9839   -0.6891 C   0  0  0  0  0  0  0  0  0  0  0  0
   -4.2084   -5.0457    0.2857 N   0  0  0  0  0  0  0  0  0  0  0  0
   -3.2670   -5.1911    1.4099 C   0  0  0  0  0  0  0  0  0  0  0  0
   -1.8438   -5.3765    0.8505 C   0  0  0  0  0  0  0  0  0  0  0  0
   -5.2215   -5.9683    0.1116 C   0  0  0  0  0  0  0  0  0  0  0  0
   -5.6181   -6.4224   -1.1513 C   0  0  0  0  0  0  0  0  0  0  0  0
   -6.6122   -7.3973   -1.3062 C   0  0  0  0  0  0  0  0  0  0  0  0
   -7.2425   -7.9428   -0.1916 C   0  0  0  0  0  0  0  0  0  0  0  0
   -6.8896   -7.5077    1.0873 C   0  0  0  0  0  0  0  0  0  0  0  0
   -5.8946   -6.5204    1.2167 C   0  0  0  0  0  0  0  0  0  0  0  0
   -7.5358   -8.0785    2.3232 C   0  0  0  0  0  0  0  0  0  0  0  0
   -8.4685   -9.0365    2.0605 F   0  0  0  0  0  0  0  0  0  0  0  0
   -6.6316   -8.6629    3.1589 F   0  0  0  0  0  0  0  0  0  0  0  0
   -8.1725   -7.1328    3.0682 F   0  0  0  0  0  0  0  0  0  0  0  0
    4.6626   -3.0338   -0.6287 H   0  0  0  0  0  0  0  0  0  0  0  0
    5.8623   -3.8357    1.3883 H   0  0  0  0  0  0  0  0  0  0  0  0
    4.5931   -4.4736    3.4071 H   0  0  0  0  0  0  0  0  0  0  0  0
    2.2121   -2.8983   -0.6595 H   0  0  0  0  0  0  0  0  0  0  0  0
   -1.1746   -3.5343    2.8032 H   0  0  0  0  0  0  0  0  0  0  0  0
    2.4530   -4.7131    4.4958 H   0  0  0  0  0  0  0  0  0  0  0  0
   -2.2035   -4.8609   -1.7732 H   0  0  0  0  0  0  0  0  0  0  0  0
   -2.1292   -3.1016   -1.6577 H   0  0  0  0  0  0  0  0  0  0  0  0
   -4.4942   -4.0211   -1.5893 H   0  0  0  0  0  0  0  0  0  0  0  0
   -4.0844   -3.0198   -0.2120 H   0  0  0  0  0  0  0  0  0  0  0  0
   -3.4909   -6.0464    2.0548 H   0  0  0  0  0  0  0  0  0  0  0  0
   -3.3262   -4.2880    2.0302 H   0  0  0  0  0  0  0  0  0  0  0  0
   -1.8168   -6.2466    0.1832 H   0  0  0  0  0  0  0  0  0  0  0  0
   -1.1410   -5.5935    1.6521 H   0  0  0  0  0  0  0  0  0  0  0  0
   -5.1266   -6.0587   -2.0485 H   0  0  0  0  0  0  0  0  0  0  0  0
   -6.8806   -7.7391   -2.3031 H   0  0  0  0  0  0  0  0  0  0  0  0
   -8.0062   -8.7069   -0.3256 H   0  0  0  0  0  0  0  0  0  0  0  0
   -5.6598   -6.1668    2.2205 H   0  0  0  0  0  0  0  0  0  0  0  0
  1  2  1  0  0  0  0
  1  6  2  0  0  0  0
  1 30  1  0  0  0  0
  2  3  2  0  0  0  0
  2 31  1  0  0  0  0
  3  4  1  0  0  0  0
  3 32  1  0  0  0  0
  4  5  2  0  0  0  0
  4 11  1  0  0  0  0
  5  6  1  0  0  0  0
  5  7  1  0  0  0  0
  6 33  1  0  0  0  0
  7  8  2  0  0  0  0
  7 12  1  0  0  0  0
  8  9  1  0  0  0  0
  8 34  1  0  0  0  0
  9 10  2  0  0  0  0
  9 11  1  0  0  0  0
 11 35  1  0  0  0  0
 12 13  2  0  0  0  0
 12 14  1  0  0  0  0
 14 15  1  0  0  0  0
 14 19  1  0  0  0  0
 15 16  1  0  0  0  0
 15 36  1  0  0  0  0
 15 37  1  0  0  0  0
 16 17  1  0  0  0  0
 16 38  1  0  0  0  0
 16 39  1  0  0  0  0
 17 18  1  0  0  0  0
 17 20  1  0  0  0  0
 18 19  1  0  0  0  0
 18 40  1  0  0  0  0
 18 41  1  0  0  0  0
 19 42  1  0  0  0  0
 19 43  1  0  0  0  0
 20 21  1  0  0  0  0
 20 25  2  0  0  0  0
 21 22  2  0  0  0  0
 21 44  1  0  0  0  0
 22 23  1  0  0  0  0
 22 45  1  0  0  0  0
 23 24  2  0  0  0  0
 23 46  1  0  0  0  0
 24 25  1  0  0  0  0
 24 26  1  0  0  0  0
 25 47  1  0  0  0  0
 26 27  1  0  0  0  0
 26 28  1  0  0  0  0
 26 29  1  0  0  0  0
M  END
$$$$
