
 OpenBabel07202414173D

 77 83  0  0  1  0  0  0  0  0999 V2000
    0.9743    0.1847    0.1005 Cl  0  0  0  0  0  0  0  0  0  0  0  0
    2.6867    0.1277    0.1416 C   0  0  0  0  0  0  0  0  0  0  0  0
    3.4413    1.3019    0.1374 C   0  0  0  0  0  0  0  0  0  0  0  0
    4.8313    1.2185    0.1514 C   0  0  0  0  0  0  0  0  0  0  0  0
    5.4939   -0.0266    0.2013 C   0  0  0  0  0  0  0  0  0  0  0  0
    4.7343   -1.2185    0.2144 C   0  0  0  0  0  0  0  0  0  0  0  0
    3.3327   -1.1028    0.1629 C   0  0  0  0  0  0  0  0  0  0  0  0
    5.4166   -2.6144    0.2901 C   0  0  3  0  0  0  0  0  0  0  0  0
    6.9244   -2.4784   -0.0246 C   0  0  0  0  0  0  0  0  0  0  0  0
    7.5906   -1.3651    0.6489 N   0  0  0  0  0  0  0  0  0  0  0  0
    7.6671   -1.4950    2.3452 S   0  0  0  0  0  0  0  0  0  0  0  0
    8.3836   -0.2936    2.7527 O   0  0  0  0  0  0  0  0  0  0  0  0
    6.3716   -1.7006    2.8310 O   0  0  0  0  0  0  0  0  0  0  0  0
    8.7739   -2.9326    2.6423 C   0  0  0  0  0  0  0  0  0  0  0  0
    8.7892   -3.1078    4.1554 C   0  0  0  0  0  0  0  0  0  0  0  0
    9.2648   -1.9405    4.8746 C   0  0  0  0  0  0  0  0  0  0  0  0
    9.6348   -0.9879    5.3950 N   0  0  0  0  0  0  0  0  0  0  0  0
    7.8514   -4.0308    4.9371 C   0  0  0  0  0  0  0  0  0  0  0  0
    9.2695   -4.4488    4.6986 C   0  0  0  0  0  0  0  0  0  0  0  0
    7.0093   -0.0539    0.1997 C   0  0  0  0  0  0  0  0  0  0  0  0
    4.8435   -3.5215   -0.8196 C   0  0  0  0  0  0  0  0  0  0  0  0
    3.8797   -4.4727   -0.1159 C   0  0  0  0  0  0  0  0  0  0  0  0
    3.6566   -3.9387    1.1970 N   0  0  0  0  0  0  0  0  0  0  0  0
    2.7043   -4.5028    2.1166 C   0  0  0  0  0  0  0  0  0  0  0  0
    3.0518   -4.8534    3.4224 C   0  0  0  0  0  0  0  0  0  0  0  0
    2.3008   -5.6525    4.2062 N   0  0  0  0  0  0  0  0  0  0  0  0
    1.0931   -5.9787    3.7154 C   0  0  0  0  0  0  0  0  0  0  0  0
    0.4614   -5.3227    2.6647 C   0  0  0  0  0  0  0  0  0  0  0  0
   -0.9460   -5.3379    2.4636 C   0  0  0  0  0  0  0  0  0  0  0  0
   -1.5144   -4.7981    1.3033 C   0  0  0  0  0  0  0  0  0  0  0  0
   -0.6737   -4.2856    0.3264 C   0  0  0  0  0  0  0  0  0  0  0  0
   -1.2143   -3.9383   -0.8943 O   0  0  0  0  0  0  0  0  0  0  0  0
   -0.2791   -4.0576   -1.9942 C   0  0  0  0  0  0  0  0  0  0  0  0
   -0.9822   -4.3341   -3.3449 C   0  0  0  0  0  0  0  0  0  0  0  0
   -0.0369   -4.5266   -4.4671 N   0  0  0  0  0  0  0  0  0  0  0  0
    0.7671   -3.3359   -4.7664 C   0  0  0  0  0  0  0  0  0  0  0  0
    1.0676   -3.3791   -6.2619 C   0  0  0  0  0  0  0  0  0  0  0  0
    0.4244   -4.6585   -6.7636 C   0  0  0  0  0  0  0  0  0  0  0  0
   -0.6560   -4.9457   -5.7300 C   0  0  0  0  0  0  0  0  0  0  0  0
    0.6912   -4.1375    0.6164 C   0  0  0  0  0  0  0  0  0  0  0  0
    1.3153   -4.6493    1.7788 C   0  0  0  0  0  0  0  0  0  0  0  0
    4.9298   -3.4589    1.5547 C   0  0  0  0  0  0  0  0  0  0  0  0
    5.5288   -3.8375    2.5327 O   0  0  0  0  0  0  0  0  0  0  0  0
    2.9391    2.2594    0.1262 H   0  0  0  0  0  0  0  0  0  0  0  0
    5.3997    2.1489    0.1429 H   0  0  0  0  0  0  0  0  0  0  0  0
    2.7018   -1.9800    0.1504 H   0  0  0  0  0  0  0  0  0  0  0  0
    7.0528   -2.2831   -1.1107 H   0  0  0  0  0  0  0  0  0  0  0  0
    7.4737   -3.4098    0.1493 H   0  0  0  0  0  0  0  0  0  0  0  0
    9.7705   -2.6273    2.2859 H   0  0  0  0  0  0  0  0  0  0  0  0
    8.4439   -3.8101    2.0957 H   0  0  0  0  0  0  0  0  0  0  0  0
    7.0818   -4.6340    4.4715 H   0  0  0  0  0  0  0  0  0  0  0  0
    7.5668   -3.7164    5.9411 H   0  0  0  0  0  0  0  0  0  0  0  0
    9.4212   -5.2836    4.0218 H   0  0  0  0  0  0  0  0  0  0  0  0
    9.9476   -4.4549    5.5457 H   0  0  0  0  0  0  0  0  0  0  0  0
    7.3490    0.1364   -0.8303 H   0  0  0  0  0  0  0  0  0  0  0  0
    7.4044    0.7840    0.7915 H   0  0  0  0  0  0  0  0  0  0  0  0
    5.6195   -4.0889   -1.3478 H   0  0  0  0  0  0  0  0  0  0  0  0
    4.3135   -2.9481   -1.5834 H   0  0  0  0  0  0  0  0  0  0  0  0
    4.3820   -5.4497   -0.0113 H   0  0  0  0  0  0  0  0  0  0  0  0
    2.9849   -4.5511   -0.7141 H   0  0  0  0  0  0  0  0  0  0  0  0
    3.9942   -4.5915    3.8914 H   0  0  0  0  0  0  0  0  0  0  0  0
    0.7412   -6.9607    4.0241 H   0  0  0  0  0  0  0  0  0  0  0  0
   -1.6037   -5.7243    3.2434 H   0  0  0  0  0  0  0  0  0  0  0  0
   -2.5936   -4.7962    1.1659 H   0  0  0  0  0  0  0  0  0  0  0  0
    0.4227   -4.8822   -1.8059 H   0  0  0  0  0  0  0  0  0  0  0  0
    0.2751   -3.1141   -2.0704 H   0  0  0  0  0  0  0  0  0  0  0  0
   -1.6709   -3.5073   -3.5520 H   0  0  0  0  0  0  0  0  0  0  0  0
   -1.6034   -5.2313   -3.2210 H   0  0  0  0  0  0  0  0  0  0  0  0
    1.6958   -3.3723   -4.1882 H   0  0  0  0  0  0  0  0  0  0  0  0
    0.2518   -2.3981   -4.5283 H   0  0  0  0  0  0  0  0  0  0  0  0
    2.1418   -3.3601   -6.4719 H   0  0  0  0  0  0  0  0  0  0  0  0
    0.6131   -2.5134   -6.7578 H   0  0  0  0  0  0  0  0  0  0  0  0
    1.1661   -5.4670   -6.7962 H   0  0  0  0  0  0  0  0  0  0  0  0
    0.0172   -4.5376   -7.7733 H   0  0  0  0  0  0  0  0  0  0  0  0
   -0.9114   -6.0107   -5.7245 H   0  0  0  0  0  0  0  0  0  0  0  0
   -1.5530   -4.3674   -5.9850 H   0  0  0  0  0  0  0  0  0  0  0  0
    1.2797   -3.5742   -0.0849 H   0  0  0  0  0  0  0  0  0  0  0  0
  1  2  1  0  0  0  0
  2  3  1  0  0  0  0
  2  7  2  0  0  0  0
  3  4  2  0  0  0  0
  3 44  1  0  0  0  0
  4  5  1  0  0  0  0
  4 45  1  0  0  0  0
  5  6  2  0  0  0  0
  5 20  1  0  0  0  0
  6  7  1  0  0  0  0
  6  8  1  0  0  0  0
  7 46  1  0  0  0  0
  8  9  1  0  0  0  0
  8 21  1  0  0  0  0
  8 42  1  0  0  0  0
  9 10  1  0  0  0  0
  9 47  1  0  0  0  0
  9 48  1  0  0  0  0
 10 11  1  0  0  0  0
 10 20  1  0  0  0  0
 11 12  2  0  0  0  0
 11 13  2  0  0  0  0
 11 14  1  0  0  0  0
 14 15  1  0  0  0  0
 14 49  1  0  0  0  0
 14 50  1  0  0  0  0
 15 16  1  0  0  0  0
 15 18  1  0  0  0  0
 15 19  1  0  0  0  0
 16 17  3  0  0  0  0
 18 19  1  0  0  0  0
 18 51  1  0  0  0  0
 18 52  1  0  0  0  0
 19 53  1  0  0  0  0
 19 54  1  0  0  0  0
 20 55  1  0  0  0  0
 20 56  1  0  0  0  0
 21 22  1  0  0  0  0
 21 57  1  0  0  0  0
 21 58  1  0  0  0  0
 22 23  1  0  0  0  0
 22 59  1  0  0  0  0
 22 60  1  0  0  0  0
 23 24  1  0  0  0  0
 23 42  1  0  0  0  0
 24 25  1  0  0  0  0
 24 41  2  0  0  0  0
 25 26  2  0  0  0  0
 25 61  1  0  0  0  0
 26 27  1  0  0  0  0
 27 28  2  0  0  0  0
 27 62  1  0  0  0  0
 28 29  1  0  0  0  0
 28 41  1  0  0  0  0
 29 30  2  0  0  0  0
 29 63  1  0  0  0  0
 30 31  1  0  0  0  0
 30 64  1  0  0  0  0
 31 32  1  0  0  0  0
 31 40  2  0  0  0  0
 32 33  1  0  0  0  0
 33 34  1  0  0  0  0
 33 65  1  0  0  0  0
 33 66  1  0  0  0  0
 34 35  1  0  0  0  0
 34 67  1  0  0  0  0
 34 68  1  0  0  0  0
 35 36  1  0  0  0  0
 35 39  1  0  0  0  0
 36 37  1  0  0  0  0
 36 69  1  0  0  0  0
 36 70  1  0  0  0  0
 37 38  1  0  0  0  0
 37 71  1  0  0  0  0
 37 72  1  0  0  0  0
 38 39  1  0  0  0  0
 38 73  1  0  0  0  0
 38 74  1  0  0  0  0
 39 75  1  0  0  0  0
 39 76  1  0  0  0  0
 40 41  1  0  0  0  0
 40 77  1  0  0  0  0
 42 43  2  0  0  0  0
M  END
$$$$
