
 OpenBabel07202414153D

 43 46  0  0  1  0  0  0  0  0999 V2000
    1.0168    0.3948    0.1911 C   0  0  0  0  0  0  0  0  0  0  0  0
    2.3745   -0.0244    0.1253 O   0  0  0  0  0  0  0  0  0  0  0  0
    2.9994    0.1283   -1.0850 C   0  0  0  0  0  0  0  0  0  0  0  0
    2.6511    1.1088   -2.0198 C   0  0  0  0  0  0  0  0  0  0  0  0
    3.3477    1.2014   -3.2239 C   0  0  0  0  0  0  0  0  0  0  0  0
    4.3888    0.3257   -3.5077 C   0  0  0  0  0  0  0  0  0  0  0  0
    4.7457   -0.6659   -2.5813 C   0  0  0  0  0  0  0  0  0  0  0  0
    4.0572   -0.7533   -1.3629 C   0  0  0  0  0  0  0  0  0  0  0  0
    4.3564   -1.6935   -0.4111 O   0  0  0  0  0  0  0  0  0  0  0  0
    5.2180   -2.7682   -0.7871 C   0  0  0  0  0  0  0  0  0  0  0  0
    6.3542   -2.3339   -1.6935 C   0  0  0  0  0  0  0  0  0  0  0  0
    5.7980   -1.6781   -2.9526 C   0  0  1  0  0  0  0  0  0  0  0  0
    5.3010   -2.7266   -3.9653 C   0  0  0  0  0  0  0  0  0  0  0  0
    6.1160   -3.2873   -4.6929 O   0  0  0  0  0  0  0  0  0  0  0  0
    3.9388   -2.9997   -3.9321 N   0  0  0  0  0  0  0  0  0  0  0  0
    3.2350   -3.9690   -4.6980 C   0  0  0  0  0  0  0  0  0  0  0  0
    3.8578   -4.7575   -5.6637 C   0  0  0  0  0  0  0  0  0  0  0  0
    3.2857   -5.8193   -6.2759 N   0  0  0  0  0  0  0  0  0  0  0  0
    2.0225   -6.1120   -5.9130 C   0  0  0  0  0  0  0  0  0  0  0  0
    1.2564   -5.3512   -5.0352 C   0  0  0  0  0  0  0  0  0  0  0  0
    1.8509   -4.2101   -4.4375 C   0  0  0  0  0  0  0  0  0  0  0  0
    1.0029   -3.3979   -3.6395 C   0  0  0  0  0  0  0  0  0  0  0  0
   -0.3384   -3.7299   -3.4109 C   0  0  0  0  0  0  0  0  0  0  0  0
   -0.8700   -4.8960   -3.9460 C   0  0  0  0  0  0  0  0  0  0  0  0
   -0.0759   -5.7035   -4.7539 C   0  0  0  0  0  0  0  0  0  0  0  0
    2.8991    2.3874   -4.3823 Cl  0  0  0  0  0  0  0  0  0  0  0  0
    0.6228    0.1019    1.1689 H   0  0  0  0  0  0  0  0  0  0  0  0
    0.4149   -0.1026   -0.5775 H   0  0  0  0  0  0  0  0  0  0  0  0
    0.9301    1.4828    0.1168 H   0  0  0  0  0  0  0  0  0  0  0  0
    1.8517    1.8149   -1.8315 H   0  0  0  0  0  0  0  0  0  0  0  0
    4.9132    0.3993   -4.4614 H   0  0  0  0  0  0  0  0  0  0  0  0
    4.6158   -3.5611   -1.2434 H   0  0  0  0  0  0  0  0  0  0  0  0
    5.6338   -3.1839    0.1378 H   0  0  0  0  0  0  0  0  0  0  0  0
    6.9979   -3.1868   -1.9361 H   0  0  0  0  0  0  0  0  0  0  0  0
    6.9705   -1.6006   -1.1550 H   0  0  0  0  0  0  0  0  0  0  0  0
    6.6233   -1.1446   -3.4451 H   0  0  0  0  0  0  0  0  0  0  0  0
    3.4012   -2.5548   -3.2014 H   0  0  0  0  0  0  0  0  0  0  0  0
    4.8728   -4.5760   -5.9982 H   0  0  0  0  0  0  0  0  0  0  0  0
    1.6205   -7.0038   -6.3861 H   0  0  0  0  0  0  0  0  0  0  0  0
    1.3584   -2.4630   -3.2141 H   0  0  0  0  0  0  0  0  0  0  0  0
   -0.9696   -3.0727   -2.8171 H   0  0  0  0  0  0  0  0  0  0  0  0
   -1.9052   -5.1675   -3.7531 H   0  0  0  0  0  0  0  0  0  0  0  0
   -0.5077   -6.6077   -5.1796 H   0  0  0  0  0  0  0  0  0  0  0  0
  1  2  1  0  0  0  0
  1 27  1  0  0  0  0
  1 28  1  0  0  0  0
  1 29  1  0  0  0  0
  2  3  1  0  0  0  0
  3  4  1  0  0  0  0
  3  8  2  0  0  0  0
  4  5  2  0  0  0  0
  4 30  1  0  0  0  0
  5  6  1  0  0  0  0
  5 26  1  0  0  0  0
  6  7  2  0  0  0  0
  6 31  1  0  0  0  0
  7  8  1  0  0  0  0
  7 12  1  0  0  0  0
  8  9  1  0  0  0  0
  9 10  1  0  0  0  0
 10 11  1  0  0  0  0
 10 32  1  0  0  0  0
 10 33  1  0  0  0  0
 11 12  1  0  0  0  0
 11 34  1  0  0  0  0
 11 35  1  0  0  0  0
 12 13  1  0  0  0  0
 12 36  1  6  0  0  0
 13 14  2  0  0  0  0
 13 15  1  0  0  0  0
 15 16  1  0  0  0  0
 15 37  1  0  0  0  0
 16 17  1  0  0  0  0
 16 21  2  0  0  0  0
 17 18  2  0  0  0  0
 17 38  1  0  0  0  0
 18 19  1  0  0  0  0
 19 20  2  0  0  0  0
 19 39  1  0  0  0  0
 20 21  1  0  0  0  0
 20 25  1  0  0  0  0
 21 22  1  0  0  0  0
 22 23  2  0  0  0  0
 22 40  1  0  0  0  0
 23 24  1  0  0  0  0
 23 41  1  0  0  0  0
 24 25  2  0  0  0  0
 24 42  1  0  0  0  0
 25 43  1  0  0  0  0
M  END
$$$$
