
 OpenBabel07202414193D

 40 41  0  0  0  0  0  0  0  0999 V2000
    2.5745    2.0208   -0.5010 N   0  0  0  0  0  0  0  0  0  0  0  0
    2.1292    1.2382    0.4130 C   0  0  0  0  0  0  0  0  0  0  0  0
    0.8457    0.8359    0.4617 N   0  0  0  0  0  0  0  0  0  0  0  0
    2.8870    0.7238    1.4071 N   0  0  0  0  0  0  0  0  0  0  0  0
    4.3378    0.6715    1.3062 C   0  0  0  0  0  0  0  0  0  0  0  0
    4.9950    1.8135    2.0988 C   0  0  0  0  0  0  0  0  0  0  0  0
    6.5119    1.8197    2.0437 C   0  0  0  0  0  0  0  0  0  0  0  0
    7.1903    1.3343    0.9205 C   0  0  0  0  0  0  0  0  0  0  0  0
    8.5794    1.3175    0.8704 C   0  0  0  0  0  0  0  0  0  0  0  0
    9.3286    1.8777    1.9022 C   0  0  0  0  0  0  0  0  0  0  0  0
   10.7427    1.9147    1.8438 O   0  0  0  0  0  0  0  0  0  0  0  0
   11.2951    2.2866    0.6119 C   0  0  0  0  0  0  0  0  0  0  0  0
   10.6278    2.6179   -0.3634 O   0  0  0  0  0  0  0  0  0  0  0  0
   12.6768    2.1955    0.6247 N   0  0  0  0  0  0  0  0  0  0  0  0
   13.4999    2.6107   -0.4507 C   0  0  0  0  0  0  0  0  0  0  0  0
   13.0392    3.5048   -1.4297 C   0  0  0  0  0  0  0  0  0  0  0  0
   13.8340    3.8727   -2.5119 C   0  0  0  0  0  0  0  0  0  0  0  0
   15.1192    3.3634   -2.6234 C   0  0  0  0  0  0  0  0  0  0  0  0
   15.6039    2.4999   -1.6425 C   0  0  0  0  0  0  0  0  0  0  0  0
   14.8129    2.1324   -0.5546 C   0  0  0  0  0  0  0  0  0  0  0  0
    8.6812    2.3914    3.0264 C   0  0  0  0  0  0  0  0  0  0  0  0
    7.2763    2.3603    3.0945 C   0  0  0  0  0  0  0  0  0  0  0  0
    1.8239    2.2530   -1.1510 H   0  0  0  0  0  0  0  0  0  0  0  0
    0.1869    1.4125   -0.0467 H   0  0  0  0  0  0  0  0  0  0  0  0
    0.4971    0.5605    1.3678 H   0  0  0  0  0  0  0  0  0  0  0  0
    2.4799    0.0245    2.0092 H   0  0  0  0  0  0  0  0  0  0  0  0
    4.6283    0.6942    0.2499 H   0  0  0  0  0  0  0  0  0  0  0  0
    4.6870   -0.2950    1.6916 H   0  0  0  0  0  0  0  0  0  0  0  0
    4.6766    1.7240    3.1456 H   0  0  0  0  0  0  0  0  0  0  0  0
    4.6268    2.7805    1.7347 H   0  0  0  0  0  0  0  0  0  0  0  0
    6.6623    0.9690    0.0452 H   0  0  0  0  0  0  0  0  0  0  0  0
    9.0521    0.9024   -0.0146 H   0  0  0  0  0  0  0  0  0  0  0  0
   13.0878    1.6907    1.3978 H   0  0  0  0  0  0  0  0  0  0  0  0
   12.0525    3.9524   -1.3706 H   0  0  0  0  0  0  0  0  0  0  0  0
   13.4330    4.5516   -3.2589 H   0  0  0  0  0  0  0  0  0  0  0  0
   15.7339    3.6405   -3.4765 H   0  0  0  0  0  0  0  0  0  0  0  0
   16.6174    2.1073   -1.7372 H   0  0  0  0  0  0  0  0  0  0  0  0
   15.2149    1.4422    0.1839 H   0  0  0  0  0  0  0  0  0  0  0  0
    9.2527    2.8268    3.8415 H   0  0  0  0  0  0  0  0  0  0  0  0
    6.7794    2.7735    3.9718 H   0  0  0  0  0  0  0  0  0  0  0  0
  1  2  2  0  0  0  0
  1 23  1  0  0  0  0
  2  3  1  0  0  0  0
  2  4  1  0  0  0  0
  3 24  1  0  0  0  0
  3 25  1  0  0  0  0
  4  5  1  0  0  0  0
  4 26  1  0  0  0  0
  5  6  1  0  0  0  0
  5 27  1  0  0  0  0
  5 28  1  0  0  0  0
  6  7  1  0  0  0  0
  6 29  1  0  0  0  0
  6 30  1  0  0  0  0
  7  8  1  0  0  0  0
  7 22  2  0  0  0  0
  8  9  2  0  0  0  0
  8 31  1  0  0  0  0
  9 10  1  0  0  0  0
  9 32  1  0  0  0  0
 10 11  1  0  0  0  0
 10 21  2  0  0  0  0
 11 12  1  0  0  0  0
 12 13  2  0  0  0  0
 12 14  1  0  0  0  0
 14 15  1  0  0  0  0
 14 33  1  0  0  0  0
 15 16  1  0  0  0  0
 15 20  2  0  0  0  0
 16 17  2  0  0  0  0
 16 34  1  0  0  0  0
 17 18  1  0  0  0  0
 17 35  1  0  0  0  0
 18 19  2  0  0  0  0
 18 36  1  0  0  0  0
 19 20  1  0  0  0  0
 19 37  1  0  0  0  0
 20 38  1  0  0  0  0
 21 22  1  0  0  0  0
 21 39  1  0  0  0  0
 22 40  1  0  0  0  0
M  END
$$$$
