
 OpenBabel07202414193D

 45 48  0  0  1  0  0  0  0  0999 V2000
    1.2198   -0.7251    0.3938 O   0  0  0  0  0  0  0  0  0  0  0  0
    2.2931   -0.1644    0.1592 C   0  0  0  0  0  0  0  0  0  0  0  0
    2.9170   -0.2568   -1.2243 C   0  0  0  0  0  0  0  0  0  0  0  0
    2.1687    0.4977   -2.3051 C   0  0  0  0  0  0  0  0  0  0  0  0
    0.8530    0.1223   -2.5879 C   0  0  0  0  0  0  0  0  0  0  0  0
    0.0840    0.6681   -3.5536 N   0  0  0  0  0  0  0  0  0  0  0  0
    0.6535    1.6449   -4.2872 C   0  0  0  0  0  0  0  0  0  0  0  0
    1.9534    2.1165   -4.1149 C   0  0  0  0  0  0  0  0  0  0  0  0
    2.4735    3.1351   -4.9310 C   0  0  0  0  0  0  0  0  0  0  0  0
    3.7760    3.5896   -4.7571 C   0  0  0  0  0  0  0  0  0  0  0  0
    4.5728    3.0273   -3.7701 C   0  0  0  0  0  0  0  0  0  0  0  0
    4.0688    2.0117   -2.9533 C   0  0  0  0  0  0  0  0  0  0  0  0
    2.7448    1.5281   -3.0966 C   0  0  0  0  0  0  0  0  0  0  0  0
    2.9832    0.5168    1.1399 N   0  0  0  0  0  0  0  0  0  0  0  0
    2.4924    0.5430    2.5016 C   0  0  0  0  0  0  0  0  0  0  0  0
    2.7030    1.9827    2.9212 C   0  0  0  0  0  0  0  0  0  0  0  0
    4.0575    2.3277    2.2927 C   0  0  1  0  0  0  0  0  0  0  0  0
    5.1562    1.8200    3.0616 O   0  0  0  0  0  0  0  0  0  0  0  0
    5.5798    2.5487    4.1425 C   0  0  0  0  0  0  0  0  0  0  0  0
    4.8448    3.5368    4.8028 C   0  0  0  0  0  0  0  0  0  0  0  0
    5.3569    4.1518    5.9506 C   0  0  0  0  0  0  0  0  0  0  0  0
    6.6195    3.8087    6.4272 C   0  0  0  0  0  0  0  0  0  0  0  0
    7.3703    2.8451    5.7575 C   0  0  0  0  0  0  0  0  0  0  0  0
    6.8459    2.2136    4.6281 C   0  0  0  0  0  0  0  0  0  0  0  0
    3.9931    1.5604    0.9480 C   0  0  0  0  0  0  0  0  0  0  0  0
    2.9161   -1.3214   -1.4944 H   0  0  0  0  0  0  0  0  0  0  0  0
    3.9745    0.0022   -1.1736 H   0  0  0  0  0  0  0  0  0  0  0  0
    0.3594   -0.6725   -2.0298 H   0  0  0  0  0  0  0  0  0  0  0  0
    0.0038    2.0557   -5.0597 H   0  0  0  0  0  0  0  0  0  0  0  0
    1.8613    3.5776   -5.7128 H   0  0  0  0  0  0  0  0  0  0  0  0
    4.1709    4.3764   -5.3956 H   0  0  0  0  0  0  0  0  0  0  0  0
    5.5935    3.3762   -3.6328 H   0  0  0  0  0  0  0  0  0  0  0  0
    4.7385    1.6058   -2.2054 H   0  0  0  0  0  0  0  0  0  0  0  0
    3.1190   -0.1340    3.0931 H   0  0  0  0  0  0  0  0  0  0  0  0
    1.4491    0.2273    2.5906 H   0  0  0  0  0  0  0  0  0  0  0  0
    2.6520    2.0721    4.0074 H   0  0  0  0  0  0  0  0  0  0  0  0
    1.9252    2.6141    2.4748 H   0  0  0  0  0  0  0  0  0  0  0  0
    4.1970    3.3988    2.1048 H   0  0  0  0  0  0  0  0  0  0  0  0
    3.8591    3.8410    4.4739 H   0  0  0  0  0  0  0  0  0  0  0  0
    4.7612    4.8963    6.4760 H   0  0  0  0  0  0  0  0  0  0  0  0
    7.0131    4.2896    7.3190 H   0  0  0  0  0  0  0  0  0  0  0  0
    8.3590    2.5803    6.1213 H   0  0  0  0  0  0  0  0  0  0  0  0
    7.4346    1.4512    4.1200 H   0  0  0  0  0  0  0  0  0  0  0  0
    4.9457    1.0988    0.6735 H   0  0  0  0  0  0  0  0  0  0  0  0
    3.6466    2.2147    0.1420 H   0  0  0  0  0  0  0  0  0  0  0  0
  1  2  2  0  0  0  0
  2  3  1  0  0  0  0
  2 14  1  0  0  0  0
  3  4  1  0  0  0  0
  3 26  1  0  0  0  0
  3 27  1  0  0  0  0
  4  5  1  0  0  0  0
  4 13  2  0  0  0  0
  5  6  2  0  0  0  0
  5 28  1  0  0  0  0
  6  7  1  0  0  0  0
  7  8  2  0  0  0  0
  7 29  1  0  0  0  0
  8  9  1  0  0  0  0
  8 13  1  0  0  0  0
  9 10  2  0  0  0  0
  9 30  1  0  0  0  0
 10 11  1  0  0  0  0
 10 31  1  0  0  0  0
 11 12  2  0  0  0  0
 11 32  1  0  0  0  0
 12 13  1  0  0  0  0
 12 33  1  0  0  0  0
 14 15  1  0  0  0  0
 14 25  1  0  0  0  0
 15 16  1  0  0  0  0
 15 34  1  0  0  0  0
 15 35  1  0  0  0  0
 16 17  1  0  0  0  0
 16 36  1  0  0  0  0
 16 37  1  0  0  0  0
 17 18  1  0  0  0  0
 17 25  1  0  0  0  0
 17 38  1  6  0  0  0
 18 19  1  0  0  0  0
 19 20  1  0  0  0  0
 19 24  2  0  0  0  0
 20 21  2  0  0  0  0
 20 39  1  0  0  0  0
 21 22  1  0  0  0  0
 21 40  1  0  0  0  0
 22 23  2  0  0  0  0
 22 41  1  0  0  0  0
 23 24  1  0  0  0  0
 23 42  1  0  0  0  0
 24 43  1  0  0  0  0
 25 44  1  0  0  0  0
 25 45  1  0  0  0  0
M  END
$$$$
