
 OpenBabel07202414153D

 41 44  0  0  1  0  0  0  0  0999 V2000
    0.8602   -0.1225    0.0567 C   0  0  0  0  0  0  0  0  0  0  0  0
    2.2232    0.2534   -0.0647 O   0  0  0  0  0  0  0  0  0  0  0  0
    2.8582    0.6343    1.0837 C   0  0  0  0  0  0  0  0  0  0  0  0
    2.4989    0.2632    2.3783 C   0  0  0  0  0  0  0  0  0  0  0  0
    3.2836    0.6415    3.4828 C   0  0  0  0  0  0  0  0  0  0  0  0
    4.4516    1.3919    3.2689 C   0  0  0  0  0  0  0  0  0  0  0  0
    4.7701    1.7864    1.9777 C   0  0  0  0  0  0  0  0  0  0  0  0
    3.9967    1.4150    0.8689 C   0  0  0  0  0  0  0  0  0  0  0  0
    5.9578    2.4888    2.0761 N   0  0  0  0  0  0  0  0  0  0  0  0
    6.4542    2.4959    3.3430 N   0  0  0  0  0  0  0  0  0  0  0  0
    5.5192    1.8821    4.0630 C   0  0  0  0  0  0  0  0  0  0  0  0
    5.6118    1.7205    5.3897 N   0  0  0  0  0  0  0  0  0  0  0  0
    6.6441    3.1199    1.0242 C   0  0  0  0  0  0  0  0  0  0  0  0
    6.0267    3.4819    0.0338 O   0  0  0  0  0  0  0  0  0  0  0  0
    8.1604    3.0682    1.1452 C   0  0  3  0  0  0  0  0  0  0  0  0
    8.5830    1.7533    0.4740 C   0  0  0  0  0  0  0  0  0  0  0  0
    9.5583    1.8682   -0.6866 C   0  0  0  0  0  0  0  0  0  0  0  0
    9.5442    3.0775   -1.4314 O   0  0  0  0  0  0  0  0  0  0  0  0
    9.4096    4.2272   -0.7169 C   0  0  0  0  0  0  0  0  0  0  0  0
    8.7731    4.2914    0.5189 C   0  0  0  0  0  0  0  0  0  0  0  0
    8.6017    5.5463    1.1346 C   0  0  0  0  0  0  0  0  0  0  0  0
    9.0331    6.7098    0.4983 C   0  0  0  0  0  0  0  0  0  0  0  0
    9.6618    6.6392   -0.7400 C   0  0  0  0  0  0  0  0  0  0  0  0
    9.8554    5.3949   -1.3421 C   0  0  0  0  0  0  0  0  0  0  0  0
    8.7501    8.2405    1.2312 Cl  0  0  0  0  0  0  0  0  0  0  0  0
    0.4864   -0.3378   -0.9481 H   0  0  0  0  0  0  0  0  0  0  0  0
    0.2678    0.7008    0.4691 H   0  0  0  0  0  0  0  0  0  0  0  0
    0.7430   -1.0335    0.6516 H   0  0  0  0  0  0  0  0  0  0  0  0
    1.6220   -0.3487    2.5620 H   0  0  0  0  0  0  0  0  0  0  0  0
    3.0080    0.3135    4.4807 H   0  0  0  0  0  0  0  0  0  0  0  0
    4.2798    1.6988   -0.1434 H   0  0  0  0  0  0  0  0  0  0  0  0
    6.3072    2.2674    5.8853 H   0  0  0  0  0  0  0  0  0  0  0  0
    4.7982    1.4869    5.9464 H   0  0  0  0  0  0  0  0  0  0  0  0
    8.4886    3.0491    2.1897 H   0  0  0  0  0  0  0  0  0  0  0  0
    7.7025    1.2032    0.1123 H   0  0  0  0  0  0  0  0  0  0  0  0
    9.0138    1.0816    1.2290 H   0  0  0  0  0  0  0  0  0  0  0  0
   10.5818    1.6670   -0.3514 H   0  0  0  0  0  0  0  0  0  0  0  0
    9.3181    1.0723   -1.4043 H   0  0  0  0  0  0  0  0  0  0  0  0
    8.0888    5.6207    2.0917 H   0  0  0  0  0  0  0  0  0  0  0  0
    9.9826    7.5428   -1.2504 H   0  0  0  0  0  0  0  0  0  0  0  0
   10.3339    5.3354   -2.3164 H   0  0  0  0  0  0  0  0  0  0  0  0
  1  2  1  0  0  0  0
  1 26  1  0  0  0  0
  1 27  1  0  0  0  0
  1 28  1  0  0  0  0
  2  3  1  0  0  0  0
  3  4  1  0  0  0  0
  3  8  2  0  0  0  0
  4  5  2  0  0  0  0
  4 29  1  0  0  0  0
  5  6  1  0  0  0  0
  5 30  1  0  0  0  0
  6  7  2  0  0  0  0
  6 11  1  0  0  0  0
  7  8  1  0  0  0  0
  7  9  1  0  0  0  0
  8 31  1  0  0  0  0
  9 10  1  0  0  0  0
  9 13  1  0  0  0  0
 10 11  2  0  0  0  0
 11 12  1  0  0  0  0
 12 32  1  0  0  0  0
 12 33  1  0  0  0  0
 13 14  2  0  0  0  0
 13 15  1  0  0  0  0
 15 16  1  0  0  0  0
 15 20  1  0  0  0  0
 15 34  1  0  0  0  0
 16 17  1  0  0  0  0
 16 35  1  0  0  0  0
 16 36  1  0  0  0  0
 17 18  1  0  0  0  0
 17 37  1  0  0  0  0
 17 38  1  0  0  0  0
 18 19  1  0  0  0  0
 19 20  1  0  0  0  0
 19 24  2  0  0  0  0
 20 21  2  0  0  0  0
 21 22  1  0  0  0  0
 21 39  1  0  0  0  0
 22 23  2  0  0  0  0
 22 25  1  0  0  0  0
 23 24  1  0  0  0  0
 23 40  1  0  0  0  0
 24 41  1  0  0  0  0
M  END
$$$$
