
 OpenBabel07202414193D

 60 64  0  0  1  0  0  0  0  0999 V2000
    1.1471    0.5464   -0.0431 O   0  0  0  0  0  0  0  0  0  0  0  0
    2.2780    0.0528   -0.0878 C   0  0  0  0  0  0  0  0  0  0  0  0
    2.8034   -0.7525    1.0999 C   0  0  0  0  0  0  0  0  0  0  0  0
    3.5642    0.0597    2.1299 C   0  0  0  0  0  0  0  0  0  0  0  0
    3.0966    1.3302    2.4810 C   0  0  0  0  0  0  0  0  0  0  0  0
    3.6795    2.1403    3.3881 N   0  0  0  0  0  0  0  0  0  0  0  0
    4.7812    1.6631    4.0006 C   0  0  0  0  0  0  0  0  0  0  0  0
    5.3386    0.4069    3.7668 C   0  0  0  0  0  0  0  0  0  0  0  0
    6.4856   -0.0178    4.4611 C   0  0  0  0  0  0  0  0  0  0  0  0
    7.0327   -1.2758    4.2270 C   0  0  0  0  0  0  0  0  0  0  0  0
    6.4341   -2.1205    3.3024 C   0  0  0  0  0  0  0  0  0  0  0  0
    5.2928   -1.7079    2.6092 C   0  0  0  0  0  0  0  0  0  0  0  0
    4.7142   -0.4303    2.8122 C   0  0  0  0  0  0  0  0  0  0  0  0
    3.1077    0.2055   -1.1953 N   0  0  0  0  0  0  0  0  0  0  0  0
    4.5176   -0.1827   -1.1608 C   0  0  0  0  0  0  0  0  0  0  0  0
    5.3750    0.3141   -2.2903 C   0  0  0  0  0  0  0  0  0  0  0  0
    6.7712    0.2600   -2.1542 C   0  0  0  0  0  0  0  0  0  0  0  0
    7.6024    0.6810   -3.1891 C   0  0  0  0  0  0  0  0  0  0  0  0
    7.0457    1.1782   -4.3622 C   0  0  0  0  0  0  0  0  0  0  0  0
    5.6593    1.2387   -4.5061 C   0  0  0  0  0  0  0  0  0  0  0  0
    4.8123    0.7805   -3.4862 C   0  0  0  0  0  0  0  0  0  0  0  0
    3.3063    0.7535   -3.6563 C   0  0  1  0  0  0  0  0  0  0  0  0
    2.7977   -0.5876   -4.2560 C   0  0  0  0  0  0  0  0  0  0  0  0
    3.3371   -0.9184   -5.6683 C   0  0  0  0  0  0  0  0  0  0  0  0
    2.9740    0.1426   -6.7163 C   0  0  0  0  0  0  0  0  0  0  0  0
    3.6798   -0.1636   -8.0342 C   0  0  0  0  0  0  0  0  0  0  0  0
    3.2744   -1.5310   -8.5685 C   0  0  0  0  0  0  0  0  0  0  0  0
    3.4566   -2.6369   -7.5289 C   0  0  0  0  0  0  0  0  0  0  0  0
    2.8381   -2.2869   -6.1690 C   0  0  0  0  0  0  0  0  0  0  0  0
    2.6425    1.0493   -2.2977 C   0  0  0  0  0  0  0  0  0  0  0  0
    3.3967   -1.5782    0.7043 H   0  0  0  0  0  0  0  0  0  0  0  0
    1.9448   -1.2232    1.5972 H   0  0  0  0  0  0  0  0  0  0  0  0
    2.2028    1.7552    2.0290 H   0  0  0  0  0  0  0  0  0  0  0  0
    5.2210    2.3451    4.7238 H   0  0  0  0  0  0  0  0  0  0  0  0
    6.9581    0.6322    5.1953 H   0  0  0  0  0  0  0  0  0  0  0  0
    7.9175   -1.5975    4.7708 H   0  0  0  0  0  0  0  0  0  0  0  0
    6.8509   -3.1087    3.1214 H   0  0  0  0  0  0  0  0  0  0  0  0
    4.8592   -2.4168    1.9090 H   0  0  0  0  0  0  0  0  0  0  0  0
    4.5460   -1.2768   -1.1644 H   0  0  0  0  0  0  0  0  0  0  0  0
    4.9451    0.1778   -0.2206 H   0  0  0  0  0  0  0  0  0  0  0  0
    7.2182   -0.1168   -1.2366 H   0  0  0  0  0  0  0  0  0  0  0  0
    8.6816    0.6225   -3.0787 H   0  0  0  0  0  0  0  0  0  0  0  0
    7.6905    1.5112   -5.1711 H   0  0  0  0  0  0  0  0  0  0  0  0
    5.2498    1.6283   -5.4336 H   0  0  0  0  0  0  0  0  0  0  0  0
    3.0082    1.5751   -4.3178 H   0  0  0  0  0  0  0  0  0  0  0  0
    3.0685   -1.4129   -3.5835 H   0  0  0  0  0  0  0  0  0  0  0  0
    1.7007   -0.5679   -4.2920 H   0  0  0  0  0  0  0  0  0  0  0  0
    4.4295   -0.9911   -5.5989 H   0  0  0  0  0  0  0  0  0  0  0  0
    3.2598    1.1470   -6.3996 H   0  0  0  0  0  0  0  0  0  0  0  0
    1.8869    0.1613   -6.8726 H   0  0  0  0  0  0  0  0  0  0  0  0
    4.7669   -0.1351   -7.8784 H   0  0  0  0  0  0  0  0  0  0  0  0
    3.4449    0.6119   -8.7712 H   0  0  0  0  0  0  0  0  0  0  0  0
    3.8642   -1.7640   -9.4623 H   0  0  0  0  0  0  0  0  0  0  0  0
    2.2235   -1.4962   -8.8811 H   0  0  0  0  0  0  0  0  0  0  0  0
    4.5289   -2.8260   -7.3941 H   0  0  0  0  0  0  0  0  0  0  0  0
    3.0175   -3.5670   -7.9075 H   0  0  0  0  0  0  0  0  0  0  0  0
    3.0921   -3.0737   -5.4493 H   0  0  0  0  0  0  0  0  0  0  0  0
    1.7440   -2.2789   -6.2608 H   0  0  0  0  0  0  0  0  0  0  0  0
    1.5505    0.9651   -2.3905 H   0  0  0  0  0  0  0  0  0  0  0  0
    2.8470    2.0872   -2.0022 H   0  0  0  0  0  0  0  0  0  0  0  0
  1  2  2  0  0  0  0
  2  3  1  0  0  0  0
  2 14  1  0  0  0  0
  3  4  1  0  0  0  0
  3 31  1  0  0  0  0
  3 32  1  0  0  0  0
  4  5  1  0  0  0  0
  4 13  2  0  0  0  0
  5  6  2  0  0  0  0
  5 33  1  0  0  0  0
  6  7  1  0  0  0  0
  7  8  2  0  0  0  0
  7 34  1  0  0  0  0
  8  9  1  0  0  0  0
  8 13  1  0  0  0  0
  9 10  2  0  0  0  0
  9 35  1  0  0  0  0
 10 11  1  0  0  0  0
 10 36  1  0  0  0  0
 11 12  2  0  0  0  0
 11 37  1  0  0  0  0
 12 13  1  0  0  0  0
 12 38  1  0  0  0  0
 14 15  1  0  0  0  0
 14 30  1  0  0  0  0
 15 16  1  0  0  0  0
 15 39  1  0  0  0  0
 15 40  1  0  0  0  0
 16 17  1  0  0  0  0
 16 21  2  0  0  0  0
 17 18  2  0  0  0  0
 17 41  1  0  0  0  0
 18 19  1  0  0  0  0
 18 42  1  0  0  0  0
 19 20  2  0  0  0  0
 19 43  1  0  0  0  0
 20 21  1  0  0  0  0
 20 44  1  0  0  0  0
 21 22  1  0  0  0  0
 22 30  1  0  0  0  0
 22 23  1  0  0  0  0
 22 45  1  6  0  0  0
 23 24  1  0  0  0  0
 23 46  1  0  0  0  0
 23 47  1  0  0  0  0
 24 25  1  0  0  0  0
 24 29  1  0  0  0  0
 24 48  1  0  0  0  0
 25 26  1  0  0  0  0
 25 49  1  0  0  0  0
 25 50  1  0  0  0  0
 26 27  1  0  0  0  0
 26 51  1  0  0  0  0
 26 52  1  0  0  0  0
 27 28  1  0  0  0  0
 27 53  1  0  0  0  0
 27 54  1  0  0  0  0
 28 29  1  0  0  0  0
 28 55  1  0  0  0  0
 28 56  1  0  0  0  0
 29 57  1  0  0  0  0
 29 58  1  0  0  0  0
 30 59  1  0  0  0  0
 30 60  1  0  0  0  0
M  END
$$$$
