
 OpenBabel07202414143D

 59 62  0  0  1  0  0  0  0  0999 V2000
    6.5629   -2.0933   -1.9723 C   0  0  0  0  0  0  0  0  0  0  0  0
    6.1851   -1.4471   -0.7419 N   0  0  0  0  0  0  0  0  0  0  0  0
    4.8661   -1.3949   -0.3563 C   0  0  0  0  0  0  0  0  0  0  0  0
    3.9572   -1.9284   -0.9888 O   0  0  0  0  0  0  0  0  0  0  0  0
    4.6158   -0.6643    0.9494 C   0  0  0  0  0  0  0  0  0  0  0  0
    5.2057   -1.3547    2.1659 N   0  0  0  0  0  0  0  0  0  0  0  0
    4.6598   -2.7398    2.2892 C   0  0  0  0  0  0  0  0  0  0  0  0
    5.3370   -3.5595    3.4151 C   0  0  3  0  0  0  0  0  0  0  0  0
    4.5125   -4.8785    3.4667 C   0  0  0  0  0  0  0  0  0  0  0  0
    6.8077   -3.9200    3.0275 C   0  0  0  0  0  0  0  0  0  0  0  0
    7.1713   -5.0970    2.9411 O   0  0  0  0  0  0  0  0  0  0  0  0
    7.6429   -2.8298    2.8279 N   0  0  0  0  0  0  0  0  0  0  0  0
    8.9925   -2.8377    2.3757 C   0  0  0  0  0  0  0  0  0  0  0  0
    9.6565   -3.9997    1.9870 C   0  0  0  0  0  0  0  0  0  0  0  0
   10.8469   -4.0224    1.3405 N   0  0  0  0  0  0  0  0  0  0  0  0
   11.4645   -2.8404    1.1591 C   0  0  0  0  0  0  0  0  0  0  0  0
   11.0074   -1.6382    1.6870 C   0  0  0  0  0  0  0  0  0  0  0  0
   11.8385   -0.5058    1.7034 C   0  0  0  0  0  0  0  0  0  0  0  0
   11.4209    0.6367    2.3814 C   0  0  0  0  0  0  0  0  0  0  0  0
   12.6042    1.8938    2.8064 S   0  0  0  0  0  0  0  0  0  0  0  0
   13.1070    1.3857    4.4395 C   0  0  0  0  0  0  0  0  0  0  0  0
   13.7397    1.7503    1.9166 O   0  0  0  0  0  0  0  0  0  0  0  0
   11.8865    3.1482    2.9154 O   0  0  0  0  0  0  0  0  0  0  0  0
   10.1253    0.7375    2.8751 C   0  0  0  0  0  0  0  0  0  0  0  0
    9.2833   -0.3754    2.8137 C   0  0  0  0  0  0  0  0  0  0  0  0
    9.7205   -1.6156    2.2838 C   0  0  0  0  0  0  0  0  0  0  0  0
    5.3062   -2.8532    4.7788 C   0  0  0  0  0  0  0  0  0  0  0  0
    5.4191   -3.6034    5.9709 C   0  0  0  0  0  0  0  0  0  0  0  0
    5.3556   -2.9923    7.2277 C   0  0  0  0  0  0  0  0  0  0  0  0
    5.3969   -3.9588    8.6501 Cl  0  0  0  0  0  0  0  0  0  0  0  0
    5.2331   -1.6133    7.3364 C   0  0  0  0  0  0  0  0  0  0  0  0
    5.1515   -0.8428    6.1807 C   0  0  0  0  0  0  0  0  0  0  0  0
    5.1713   -1.4603    4.9186 C   0  0  0  0  0  0  0  0  0  0  0  0
    4.9053   -0.3807    3.5411 S   0  0  0  0  0  0  0  0  0  0  0  0
    5.9533    0.6196    3.5566 O   0  0  0  0  0  0  0  0  0  0  0  0
    3.5059   -0.0356    3.5516 O   0  0  0  0  0  0  0  0  0  0  0  0
    7.6521   -2.1388   -2.0284 H   0  0  0  0  0  0  0  0  0  0  0  0
    6.1654   -1.5139   -2.8101 H   0  0  0  0  0  0  0  0  0  0  0  0
    6.1417   -3.1025   -2.0010 H   0  0  0  0  0  0  0  0  0  0  0  0
    6.8780   -0.9124   -0.2305 H   0  0  0  0  0  0  0  0  0  0  0  0
    3.5273   -0.5800    1.0635 H   0  0  0  0  0  0  0  0  0  0  0  0
    5.0300    0.3460    0.8570 H   0  0  0  0  0  0  0  0  0  0  0  0
    4.8188   -3.2696    1.3423 H   0  0  0  0  0  0  0  0  0  0  0  0
    3.5743   -2.6773    2.4459 H   0  0  0  0  0  0  0  0  0  0  0  0
    4.4465   -5.3378    2.4723 H   0  0  0  0  0  0  0  0  0  0  0  0
    3.4901   -4.6925    3.8171 H   0  0  0  0  0  0  0  0  0  0  0  0
    4.9563   -5.6368    4.1198 H   0  0  0  0  0  0  0  0  0  0  0  0
    7.2016   -1.9196    2.8647 H   0  0  0  0  0  0  0  0  0  0  0  0
    9.2569   -4.9915    2.1664 H   0  0  0  0  0  0  0  0  0  0  0  0
   12.3937   -2.9011    0.5968 H   0  0  0  0  0  0  0  0  0  0  0  0
   12.8441   -0.5549    1.2864 H   0  0  0  0  0  0  0  0  0  0  0  0
   13.6025    0.4142    4.3734 H   0  0  0  0  0  0  0  0  0  0  0  0
   12.2261    1.3206    5.0824 H   0  0  0  0  0  0  0  0  0  0  0  0
   13.7988    2.1299    4.8378 H   0  0  0  0  0  0  0  0  0  0  0  0
    9.7816    1.6452    3.3690 H   0  0  0  0  0  0  0  0  0  0  0  0
    8.3107   -0.2715    3.2835 H   0  0  0  0  0  0  0  0  0  0  0  0
    5.5369   -4.6854    5.9414 H   0  0  0  0  0  0  0  0  0  0  0  0
    5.1814   -1.1352    8.3111 H   0  0  0  0  0  0  0  0  0  0  0  0
    5.0361    0.2376    6.2665 H   0  0  0  0  0  0  0  0  0  0  0  0
  1  2  1  0  0  0  0
  1 37  1  0  0  0  0
  1 38  1  0  0  0  0
  1 39  1  0  0  0  0
  2  3  1  0  0  0  0
  2 40  1  0  0  0  0
  3  4  2  0  0  0  0
  3  5  1  0  0  0  0
  5  6  1  0  0  0  0
  5 41  1  0  0  0  0
  5 42  1  0  0  0  0
  6  7  1  0  0  0  0
  6 34  1  0  0  0  0
  7  8  1  0  0  0  0
  7 43  1  0  0  0  0
  7 44  1  0  0  0  0
  8  9  1  0  0  0  0
  8 10  1  0  0  0  0
  8 27  1  0  0  0  0
  9 45  1  0  0  0  0
  9 46  1  0  0  0  0
  9 47  1  0  0  0  0
 10 11  2  0  0  0  0
 10 12  1  0  0  0  0
 12 13  1  0  0  0  0
 12 48  1  0  0  0  0
 13 14  1  0  0  0  0
 13 26  2  0  0  0  0
 14 15  2  0  0  0  0
 14 49  1  0  0  0  0
 15 16  1  0  0  0  0
 16 17  2  0  0  0  0
 16 50  1  0  0  0  0
 17 18  1  0  0  0  0
 17 26  1  0  0  0  0
 18 19  2  0  0  0  0
 18 51  1  0  0  0  0
 19 20  1  0  0  0  0
 19 24  1  0  0  0  0
 20 21  1  0  0  0  0
 20 22  2  0  0  0  0
 20 23  2  0  0  0  0
 21 52  1  0  0  0  0
 21 53  1  0  0  0  0
 21 54  1  0  0  0  0
 24 25  2  0  0  0  0
 24 55  1  0  0  0  0
 25 26  1  0  0  0  0
 25 56  1  0  0  0  0
 27 28  1  0  0  0  0
 27 33  2  0  0  0  0
 28 29  2  0  0  0  0
 28 57  1  0  0  0  0
 29 30  1  0  0  0  0
 29 31  1  0  0  0  0
 31 32  2  0  0  0  0
 31 58  1  0  0  0  0
 32 33  1  0  0  0  0
 32 59  1  0  0  0  0
 33 34  1  0  0  0  0
 34 35  2  0  0  0  0
 34 36  2  0  0  0  0
M  END
$$$$
