
 OpenBabel07202414203D

 58 62  0  0  1  0  0  0  0  0999 V2000
   -5.5919    1.9049   -0.2954 O   0  0  0  0  0  0  0  0  0  0  0  0
   -5.9501    2.2831    1.0421 C   0  0  1  0  0  0  0  0  0  0  0  0
   -4.8622    1.8570    2.0589 C   0  0  0  0  0  0  0  0  0  0  0  0
   -4.7502    2.3868    3.1581 O   0  0  0  0  0  0  0  0  0  0  0  0
   -4.0987    0.7770    1.6775 N   0  0  0  0  0  0  0  0  0  0  0  0
   -3.0292    0.2225    2.5090 C   0  0  0  0  0  0  0  0  0  0  0  0
   -1.5891    0.7974    2.2257 C   0  0  1  0  0  0  0  0  0  0  0  0
   -1.2070    0.3700    0.7739 C   0  0  0  0  0  0  0  0  0  0  0  0
   -1.9868   -0.2783    0.0790 O   0  0  0  0  0  0  0  0  0  0  0  0
    0.0285    0.8064    0.3269 N   0  0  0  0  0  0  0  0  0  0  0  0
    0.5367    0.7121   -1.0020 C   0  0  0  0  0  0  0  0  0  0  0  0
   -0.2503    0.3190   -2.0874 C   0  0  0  0  0  0  0  0  0  0  0  0
    0.2215    0.0617   -3.3301 N   0  0  0  0  0  0  0  0  0  0  0  0
    1.5425    0.2419   -3.5202 C   0  0  0  0  0  0  0  0  0  0  0  0
    2.4117    0.7575   -2.5637 C   0  0  0  0  0  0  0  0  0  0  0  0
    3.7554    1.0273   -2.8809 C   0  0  0  0  0  0  0  0  0  0  0  0
    4.6108    1.5890   -1.9375 C   0  0  0  0  0  0  0  0  0  0  0  0
    4.1367    1.8693   -0.6633 C   0  0  0  0  0  0  0  0  0  0  0  0
    2.8090    1.5831   -0.3288 C   0  0  0  0  0  0  0  0  0  0  0  0
    1.9038    1.0190   -1.2655 C   0  0  0  0  0  0  0  0  0  0  0  0
   -1.6620    2.3358    2.3454 C   0  0  0  0  0  0  0  0  0  0  0  0
   -0.3117    2.9912    2.5452 C   0  0  0  0  0  0  0  0  0  0  0  0
    0.3833    2.4944    3.6808 O   0  0  0  0  0  0  0  0  0  0  0  0
    0.2666    1.1607    3.9461 C   0  0  0  0  0  0  0  0  0  0  0  0
    1.0630    0.7280    5.0153 C   0  0  0  0  0  0  0  0  0  0  0  0
    1.0300   -0.5978    5.4330 C   0  0  0  0  0  0  0  0  0  0  0  0
    0.2185   -1.4987    4.7546 C   0  0  0  0  0  0  0  0  0  0  0  0
    0.1561   -3.1375    5.2781 Cl  0  0  0  0  0  0  0  0  0  0  0  0
   -0.5720   -1.0746    3.6751 C   0  0  0  0  0  0  0  0  0  0  0  0
   -0.5947    0.2761    3.2783 C   0  0  0  0  0  0  0  0  0  0  0  0
   -6.1802    3.8046    1.0895 C   0  0  0  0  0  0  0  0  0  0  0  0
   -7.6558    4.1354    0.8759 C   0  0  0  0  0  0  0  0  0  0  0  0
   -8.5245    2.5737    0.6241 S   0  0  0  0  0  0  0  0  0  0  0  0
   -7.2477    1.5903    1.4511 C   0  0  0  0  0  0  0  0  0  0  0  0
   -6.3987    2.0100   -0.8363 H   0  0  0  0  0  0  0  0  0  0  0  0
   -4.1564    0.4791    0.7019 H   0  0  0  0  0  0  0  0  0  0  0  0
   -3.0620   -0.8582    2.3399 H   0  0  0  0  0  0  0  0  0  0  0  0
   -3.2942    0.3890    3.5614 H   0  0  0  0  0  0  0  0  0  0  0  0
    0.7049    1.0256    1.0437 H   0  0  0  0  0  0  0  0  0  0  0  0
   -1.3258    0.1951   -2.0131 H   0  0  0  0  0  0  0  0  0  0  0  0
    1.8933   -0.0370   -4.5108 H   0  0  0  0  0  0  0  0  0  0  0  0
    4.1381    0.8213   -3.8789 H   0  0  0  0  0  0  0  0  0  0  0  0
    5.6405    1.8172   -2.2009 H   0  0  0  0  0  0  0  0  0  0  0  0
    4.7972    2.3184    0.0746 H   0  0  0  0  0  0  0  0  0  0  0  0
    2.4934    1.8455    0.6762 H   0  0  0  0  0  0  0  0  0  0  0  0
   -2.2541    2.5897    3.2347 H   0  0  0  0  0  0  0  0  0  0  0  0
   -2.1565    2.7791    1.4747 H   0  0  0  0  0  0  0  0  0  0  0  0
   -0.4610    4.0635    2.7117 H   0  0  0  0  0  0  0  0  0  0  0  0
    0.3377    2.9210    1.6704 H   0  0  0  0  0  0  0  0  0  0  0  0
    1.6928    1.4420    5.5439 H   0  0  0  0  0  0  0  0  0  0  0  0
    1.6261   -0.9132    6.2860 H   0  0  0  0  0  0  0  0  0  0  0  0
   -1.2020   -1.8154    3.1849 H   0  0  0  0  0  0  0  0  0  0  0  0
   -5.5838    4.3061    0.3163 H   0  0  0  0  0  0  0  0  0  0  0  0
   -5.8666    4.2450    2.0423 H   0  0  0  0  0  0  0  0  0  0  0  0
   -7.8036    4.7973    0.0176 H   0  0  0  0  0  0  0  0  0  0  0  0
   -8.0666    4.6356    1.7599 H   0  0  0  0  0  0  0  0  0  0  0  0
   -7.3032    0.5552    1.1007 H   0  0  0  0  0  0  0  0  0  0  0  0
   -7.4216    1.6149    2.5287 H   0  0  0  0  0  0  0  0  0  0  0  0
  1 35  1  0  0  0  0
  2 31  1  0  0  0  0
  2 34  1  0  0  0  0
  2  3  1  1  0  0  0
  2  1  1  0  0  0  0
  3  4  2  0  0  0  0
  3  5  1  0  0  0  0
  5  6  1  0  0  0  0
  5 36  1  0  0  0  0
  6 37  1  0  0  0  0
  6 38  1  0  0  0  0
  7 21  1  0  0  0  0
  7 30  1  0  0  0  0
  7  8  1  6  0  0  0
  7  6  1  0  0  0  0
  8  9  2  0  0  0  0
  8 10  1  0  0  0  0
 10 11  1  0  0  0  0
 10 39  1  0  0  0  0
 11 12  1  0  0  0  0
 11 20  2  0  0  0  0
 12 13  2  0  0  0  0
 12 40  1  0  0  0  0
 13 14  1  0  0  0  0
 14 15  2  0  0  0  0
 14 41  1  0  0  0  0
 15 16  1  0  0  0  0
 15 20  1  0  0  0  0
 16 17  2  0  0  0  0
 16 42  1  0  0  0  0
 17 18  1  0  0  0  0
 17 43  1  0  0  0  0
 18 19  2  0  0  0  0
 18 44  1  0  0  0  0
 19 20  1  0  0  0  0
 19 45  1  0  0  0  0
 21 22  1  0  0  0  0
 21 46  1  0  0  0  0
 21 47  1  0  0  0  0
 22 23  1  0  0  0  0
 22 48  1  0  0  0  0
 22 49  1  0  0  0  0
 23 24  1  0  0  0  0
 24 25  1  0  0  0  0
 24 30  2  0  0  0  0
 25 26  2  0  0  0  0
 25 50  1  0  0  0  0
 26 27  1  0  0  0  0
 26 51  1  0  0  0  0
 27 28  1  0  0  0  0
 27 29  2  0  0  0  0
 29 30  1  0  0  0  0
 29 52  1  0  0  0  0
 31 32  1  0  0  0  0
 31 53  1  0  0  0  0
 31 54  1  0  0  0  0
 32 33  1  0  0  0  0
 32 55  1  0  0  0  0
 32 56  1  0  0  0  0
 33 34  1  0  0  0  0
 34 57  1  0  0  0  0
 34 58  1  0  0  0  0
M  END
$$$$
