
 OpenBabel07202414123D

 66 69  0  0  1  0  0  0  0  0999 V2000
    3.4774    2.8773    3.1045 C   0  0  0  0  0  0  0  0  0  0  0  0
    3.0035    1.4764    2.7243 C   0  0  0  0  0  0  0  0  0  0  0  0
    1.5724    1.2570    3.2105 C   0  0  0  0  0  0  0  0  0  0  0  0
    3.1079    1.1968    0.9510 S   0  0  0  0  0  0  0  0  0  0  0  0
    2.6493   -0.1544    0.6682 O   0  0  0  0  0  0  0  0  0  0  0  0
    2.5380    2.3269    0.2423 O   0  0  0  0  0  0  0  0  0  0  0  0
    4.8591    1.1958    0.6340 C   0  0  0  0  0  0  0  0  0  0  0  0
    5.5760    0.0317    0.8174 C   0  0  0  0  0  0  0  0  0  0  0  0
    6.9747    0.0734    0.7635 C   0  0  0  0  0  0  0  0  0  0  0  0
    7.6997    1.2514    0.4851 C   0  0  0  0  0  0  0  0  0  0  0  0
    9.1650    1.3146    0.5915 N   0  0  0  0  0  0  0  0  0  0  0  0
    9.8697    2.6535    0.5118 C   0  0  3  0  0  0  0  0  0  0  0  0
   10.3398    2.9451   -0.9494 C   0  0  0  0  0  0  0  0  0  0  0  0
   11.0048    3.9357   -1.2753 O   0  0  0  0  0  0  0  0  0  0  0  0
    9.9250    2.0293   -1.8983 N   0  0  0  0  0  0  0  0  0  0  0  0
   10.2471    2.1587   -3.3005 C   0  0  0  0  0  0  0  0  0  0  0  0
    9.6821    0.9765   -4.0802 C   0  0  0  0  0  0  0  0  0  0  0  0
    9.9590    1.0700   -5.5545 C   0  0  0  0  0  0  0  0  0  0  0  0
    9.0214    1.6528   -6.4194 C   0  0  0  0  0  0  0  0  0  0  0  0
    9.2813    1.7402   -7.7901 C   0  0  0  0  0  0  0  0  0  0  0  0
   10.4806    1.2511   -8.3021 C   0  0  0  0  0  0  0  0  0  0  0  0
   11.4129    0.6808   -7.4434 C   0  0  0  0  0  0  0  0  0  0  0  0
   12.5653    0.2103   -7.9357 F   0  0  0  0  0  0  0  0  0  0  0  0
   11.1646    0.5875   -6.0784 C   0  0  0  0  0  0  0  0  0  0  0  0
    9.2892    3.8775    1.2458 C   0  0  0  0  0  0  0  0  0  0  0  0
    9.1078    5.1306    0.6294 C   0  0  0  0  0  0  0  0  0  0  0  0
    8.8696    6.2744    1.3879 C   0  0  0  0  0  0  0  0  0  0  0  0
    8.7749    6.1397    2.7570 C   0  0  0  0  0  0  0  0  0  0  0  0
    8.8393    4.9460    3.3890 N   0  0  0  0  0  0  0  0  0  0  0  0
    9.0954    3.8535    2.6266 C   0  0  0  0  0  0  0  0  0  0  0  0
    9.9283    0.0945    0.6176 C   0  0  0  0  0  0  0  0  0  0  0  0
    9.4075   -1.0151    0.4961 O   0  0  0  0  0  0  0  0  0  0  0  0
   11.3989    0.0698    0.6795 C   0  0  0  0  0  0  0  0  0  0  0  0
   12.1172   -1.1136    0.7243 C   0  0  0  0  0  0  0  0  0  0  0  0
   13.4457   -0.8235    0.7242 O   0  0  0  0  0  0  0  0  0  0  0  0
   13.4733    0.5320    0.6699 C   0  0  0  0  0  0  0  0  0  0  0  0
   12.2956    1.1153    0.6318 N   0  0  0  0  0  0  0  0  0  0  0  0
    6.9176    2.3641    0.1316 C   0  0  0  0  0  0  0  0  0  0  0  0
    5.5141    2.3555    0.2325 C   0  0  0  0  0  0  0  0  0  0  0  0
    3.4331    3.0187    4.1902 H   0  0  0  0  0  0  0  0  0  0  0  0
    2.8610    3.6508    2.6393 H   0  0  0  0  0  0  0  0  0  0  0  0
    4.5145    3.0499    2.7989 H   0  0  0  0  0  0  0  0  0  0  0  0
    3.6486    0.7297    3.1961 H   0  0  0  0  0  0  0  0  0  0  0  0
    0.8769    1.9517    2.7320 H   0  0  0  0  0  0  0  0  0  0  0  0
    1.5040    1.3967    4.2941 H   0  0  0  0  0  0  0  0  0  0  0  0
    1.2343    0.2400    2.9869 H   0  0  0  0  0  0  0  0  0  0  0  0
    5.0797   -0.9081    1.0501 H   0  0  0  0  0  0  0  0  0  0  0  0
    7.4389   -0.8793    0.9949 H   0  0  0  0  0  0  0  0  0  0  0  0
   10.7967    2.5421    1.0749 H   0  0  0  0  0  0  0  0  0  0  0  0
    9.5700    1.1398   -1.5705 H   0  0  0  0  0  0  0  0  0  0  0  0
   11.3364    2.2224   -3.4002 H   0  0  0  0  0  0  0  0  0  0  0  0
    9.8274    3.1086   -3.6540 H   0  0  0  0  0  0  0  0  0  0  0  0
    8.5990    0.8975   -3.9115 H   0  0  0  0  0  0  0  0  0  0  0  0
   10.1021    0.0391   -3.6916 H   0  0  0  0  0  0  0  0  0  0  0  0
    8.0793    2.0378   -6.0329 H   0  0  0  0  0  0  0  0  0  0  0  0
    8.5460    2.1868   -8.4541 H   0  0  0  0  0  0  0  0  0  0  0  0
   10.6964    1.3104   -9.3649 H   0  0  0  0  0  0  0  0  0  0  0  0
   11.9151    0.1337   -5.4377 H   0  0  0  0  0  0  0  0  0  0  0  0
    9.2046    5.2577   -0.4461 H   0  0  0  0  0  0  0  0  0  0  0  0
    8.8084    7.2519    0.9171 H   0  0  0  0  0  0  0  0  0  0  0  0
    8.6556    7.0093    3.3970 H   0  0  0  0  0  0  0  0  0  0  0  0
    9.1852    2.9323    3.1971 H   0  0  0  0  0  0  0  0  0  0  0  0
   11.8449   -2.1584    0.7418 H   0  0  0  0  0  0  0  0  0  0  0  0
   14.4529    0.9919    0.6575 H   0  0  0  0  0  0  0  0  0  0  0  0
    7.3574    3.2855   -0.2318 H   0  0  0  0  0  0  0  0  0  0  0  0
    4.9580    3.2710    0.0282 H   0  0  0  0  0  0  0  0  0  0  0  0
  1  2  1  0  0  0  0
  1 40  1  0  0  0  0
  1 41  1  0  0  0  0
  1 42  1  0  0  0  0
  2  3  1  0  0  0  0
  2  4  1  0  0  0  0
  2 43  1  0  0  0  0
  3 44  1  0  0  0  0
  3 45  1  0  0  0  0
  3 46  1  0  0  0  0
  4  5  2  0  0  0  0
  4  6  2  0  0  0  0
  4  7  1  0  0  0  0
  7  8  1  0  0  0  0
  7 39  2  0  0  0  0
  8  9  2  0  0  0  0
  8 47  1  0  0  0  0
  9 10  1  0  0  0  0
  9 48  1  0  0  0  0
 10 11  1  0  0  0  0
 10 38  2  0  0  0  0
 11 12  1  0  0  0  0
 11 31  1  0  0  0  0
 12 13  1  0  0  0  0
 12 25  1  0  0  0  0
 12 49  1  0  0  0  0
 13 14  2  0  0  0  0
 13 15  1  0  0  0  0
 15 16  1  0  0  0  0
 15 50  1  0  0  0  0
 16 17  1  0  0  0  0
 16 51  1  0  0  0  0
 16 52  1  0  0  0  0
 17 18  1  0  0  0  0
 17 53  1  0  0  0  0
 17 54  1  0  0  0  0
 18 19  1  0  0  0  0
 18 24  2  0  0  0  0
 19 20  2  0  0  0  0
 19 55  1  0  0  0  0
 20 21  1  0  0  0  0
 20 56  1  0  0  0  0
 21 22  2  0  0  0  0
 21 57  1  0  0  0  0
 22 23  1  0  0  0  0
 22 24  1  0  0  0  0
 24 58  1  0  0  0  0
 25 26  1  0  0  0  0
 25 30  2  0  0  0  0
 26 27  2  0  0  0  0
 26 59  1  0  0  0  0
 27 28  1  0  0  0  0
 27 60  1  0  0  0  0
 28 29  2  0  0  0  0
 28 61  1  0  0  0  0
 29 30  1  0  0  0  0
 30 62  1  0  0  0  0
 31 32  2  0  0  0  0
 31 33  1  0  0  0  0
 33 34  2  0  0  0  0
 33 37  1  0  0  0  0
 34 35  1  0  0  0  0
 34 63  1  0  0  0  0
 35 36  1  0  0  0  0
 36 37  2  0  0  0  0
 36 64  1  0  0  0  0
 38 39  1  0  0  0  0
 38 65  1  0  0  0  0
 39 66  1  0  0  0  0
M  END
$$$$
