
 OpenBabel07202414173D

 35 37  0  0  1  0  0  0  0  0999 V2000
    2.2814    1.4907   -1.9364 Cl  0  0  0  0  0  0  0  0  0  0  0  0
    2.7725    0.4951   -0.5532 C   0  0  0  0  0  0  0  0  0  0  0  0
    3.3947    1.3815    0.5061 C   0  0  0  0  0  0  0  0  0  0  0  0
    2.7145    1.8485    1.4223 O   0  0  0  0  0  0  0  0  0  0  0  0
    4.7345    1.6491    0.4002 N   0  0  0  0  0  0  0  0  0  0  0  0
    5.7041    1.1673   -0.5855 C   0  0  0  0  0  0  0  0  0  0  0  0
    7.0277    1.7962   -0.0498 C   0  0  3  0  0  0  0  0  0  0  0  0
    6.5056    3.1364    0.4692 C   0  0  0  0  0  0  0  0  0  0  0  0
    5.4730    2.4657    1.3660 C   0  0  3  0  0  0  0  0  0  0  0  0
    6.3795    1.5255    2.1931 C   0  0  0  0  0  0  0  0  0  0  0  0
    7.4157    1.0710    1.2016 N   0  0  0  0  0  0  0  0  0  0  0  0
    8.7651    1.4015    1.6847 C   0  0  0  0  0  0  0  0  0  0  0  0
    9.8804    0.9745    0.7537 C   0  0  0  0  0  0  0  0  0  0  0  0
   10.0947   -0.3804    0.4595 C   0  0  0  0  0  0  0  0  0  0  0  0
   11.1598   -0.7710   -0.3567 C   0  0  0  0  0  0  0  0  0  0  0  0
   12.0179    0.1888   -0.8939 C   0  0  0  0  0  0  0  0  0  0  0  0
   11.8041    1.5360   -0.6173 C   0  0  0  0  0  0  0  0  0  0  0  0
   12.8592    2.7246   -1.2790 Cl  0  0  0  0  0  0  0  0  0  0  0  0
   10.7450    1.9329    0.2000 C   0  0  0  0  0  0  0  0  0  0  0  0
    3.4627   -0.2786   -0.8947 H   0  0  0  0  0  0  0  0  0  0  0  0
    1.8868    0.0040   -0.1393 H   0  0  0  0  0  0  0  0  0  0  0  0
    5.4302    1.5592   -1.5696 H   0  0  0  0  0  0  0  0  0  0  0  0
    5.7232    0.0735   -0.6073 H   0  0  0  0  0  0  0  0  0  0  0  0
    7.8034    1.8390   -0.8171 H   0  0  0  0  0  0  0  0  0  0  0  0
    6.0548    3.7477   -0.3208 H   0  0  0  0  0  0  0  0  0  0  0  0
    7.2413    3.7352    1.0136 H   0  0  0  0  0  0  0  0  0  0  0  0
    4.8389    3.1281    1.9580 H   0  0  0  0  0  0  0  0  0  0  0  0
    5.8314    0.6612    2.5826 H   0  0  0  0  0  0  0  0  0  0  0  0
    6.8235    2.0725    3.0336 H   0  0  0  0  0  0  0  0  0  0  0  0
    8.9366    0.8832    2.6382 H   0  0  0  0  0  0  0  0  0  0  0  0
    8.8626    2.4720    1.9055 H   0  0  0  0  0  0  0  0  0  0  0  0
    9.4320   -1.1370    0.8760 H   0  0  0  0  0  0  0  0  0  0  0  0
   11.3235   -1.8248   -0.5692 H   0  0  0  0  0  0  0  0  0  0  0  0
   12.8502   -0.1193   -1.5209 H   0  0  0  0  0  0  0  0  0  0  0  0
   10.5993    2.9890    0.4132 H   0  0  0  0  0  0  0  0  0  0  0  0
  1  2  1  0  0  0  0
  2  3  1  0  0  0  0
  2 20  1  0  0  0  0
  2 21  1  0  0  0  0
  3  4  2  0  0  0  0
  3  5  1  0  0  0  0
  5  6  1  0  0  0  0
  5  9  1  0  0  0  0
  6  7  1  0  0  0  0
  6 22  1  0  0  0  0
  6 23  1  0  0  0  0
  7  8  1  0  0  0  0
  7 11  1  0  0  0  0
  7 24  1  0  0  0  0
  8  9  1  0  0  0  0
  8 25  1  0  0  0  0
  8 26  1  0  0  0  0
  9 10  1  0  0  0  0
  9 27  1  0  0  0  0
 10 11  1  0  0  0  0
 10 28  1  0  0  0  0
 10 29  1  0  0  0  0
 11 12  1  0  0  0  0
 12 13  1  0  0  0  0
 12 30  1  0  0  0  0
 12 31  1  0  0  0  0
 13 14  1  0  0  0  0
 13 19  2  0  0  0  0
 14 15  2  0  0  0  0
 14 32  1  0  0  0  0
 15 16  1  0  0  0  0
 15 33  1  0  0  0  0
 16 17  2  0  0  0  0
 16 34  1  0  0  0  0
 17 18  1  0  0  0  0
 17 19  1  0  0  0  0
 19 35  1  0  0  0  0
M  END
$$$$
