
 OpenBabel07202414123D

 63 66  0  0  1  0  0  0  0  0999 V2000
    1.4831   -2.8164   -1.4151 C   0  0  0  0  0  0  0  0  0  0  0  0
    3.0003   -2.6953   -1.3441 C   0  0  0  0  0  0  0  0  0  0  0  0
    3.6511   -4.0782   -1.3359 C   0  0  0  0  0  0  0  0  0  0  0  0
    3.4342   -1.9386   -2.4868 O   0  0  0  0  0  0  0  0  0  0  0  0
    4.6282   -1.2788   -2.3983 C   0  0  0  0  0  0  0  0  0  0  0  0
    5.4044   -1.1843   -1.2573 C   0  0  0  0  0  0  0  0  0  0  0  0
    6.6327   -0.5248   -1.2899 C   0  0  0  0  0  0  0  0  0  0  0  0
    7.1763    0.0173   -2.4655 C   0  0  0  0  0  0  0  0  0  0  0  0
    8.5396    0.5391   -2.4586 N   0  0  0  0  0  0  0  0  0  0  0  0
    9.0085    1.5462   -3.4653 C   0  0  3  0  0  0  0  0  0  0  0  0
    9.7113    0.8801   -4.6959 C   0  0  0  0  0  0  0  0  0  0  0  0
   10.6957    1.3878   -5.2367 O   0  0  0  0  0  0  0  0  0  0  0  0
    9.0202   -0.1519   -5.3014 N   0  0  0  0  0  0  0  0  0  0  0  0
    9.4704   -0.7338   -6.5571 C   0  0  0  0  0  0  0  0  0  0  0  0
    8.3805   -1.5924   -7.1925 C   0  0  0  0  0  0  0  0  0  0  0  0
    8.8882   -2.3292   -8.4006 C   0  0  0  0  0  0  0  0  0  0  0  0
    8.7556   -1.7904   -9.6774 C   0  0  0  0  0  0  0  0  0  0  0  0
    9.2406   -2.5153  -10.7632 C   0  0  0  0  0  0  0  0  0  0  0  0
    9.8464   -3.7472  -10.5460 C   0  0  0  0  0  0  0  0  0  0  0  0
    9.9449   -4.2052   -9.2442 C   0  0  0  0  0  0  0  0  0  0  0  0
    9.4829   -3.5252   -8.1726 N   0  0  0  0  0  0  0  0  0  0  0  0
    8.0241    2.6446   -3.8900 C   0  0  0  0  0  0  0  0  0  0  0  0
    7.0743    3.1867   -3.0158 C   0  0  0  0  0  0  0  0  0  0  0  0
    6.2309    4.2125   -3.4416 C   0  0  0  0  0  0  0  0  0  0  0  0
    6.3836    4.7027   -4.7251 C   0  0  0  0  0  0  0  0  0  0  0  0
    7.3050    4.2419   -5.5913 N   0  0  0  0  0  0  0  0  0  0  0  0
    8.1096    3.2412   -5.1548 C   0  0  0  0  0  0  0  0  0  0  0  0
    9.4603    0.0031   -1.4923 C   0  0  0  0  0  0  0  0  0  0  0  0
    9.1877   -0.9470   -0.7562 O   0  0  0  0  0  0  0  0  0  0  0  0
   10.7956    0.5666   -1.3161 C   0  0  0  0  0  0  0  0  0  0  0  0
   11.4855    0.5438   -0.1141 C   0  0  0  0  0  0  0  0  0  0  0  0
   12.7291    1.0493   -0.3122 O   0  0  0  0  0  0  0  0  0  0  0  0
   12.7454    1.3386   -1.6442 C   0  0  0  0  0  0  0  0  0  0  0  0
   11.6272    1.0835   -2.2869 N   0  0  0  0  0  0  0  0  0  0  0  0
    6.3313    0.0120   -3.5837 C   0  0  0  0  0  0  0  0  0  0  0  0
    5.0817   -0.6422   -3.5537 C   0  0  0  0  0  0  0  0  0  0  0  0
    1.0975   -3.3750   -0.5558 H   0  0  0  0  0  0  0  0  0  0  0  0
    1.1628   -3.3113   -2.3365 H   0  0  0  0  0  0  0  0  0  0  0  0
    1.0287   -1.8197   -1.4074 H   0  0  0  0  0  0  0  0  0  0  0  0
    3.2025   -2.1671   -0.4071 H   0  0  0  0  0  0  0  0  0  0  0  0
    3.5312   -4.5781   -2.3030 H   0  0  0  0  0  0  0  0  0  0  0  0
    3.2235   -4.7138   -0.5539 H   0  0  0  0  0  0  0  0  0  0  0  0
    4.7285   -4.0060   -1.1534 H   0  0  0  0  0  0  0  0  0  0  0  0
    5.1171   -1.6204   -0.3086 H   0  0  0  0  0  0  0  0  0  0  0  0
    7.1427   -0.4562   -0.3333 H   0  0  0  0  0  0  0  0  0  0  0  0
    9.7812    2.1424   -2.9738 H   0  0  0  0  0  0  0  0  0  0  0  0
    8.4440   -0.7298   -4.7031 H   0  0  0  0  0  0  0  0  0  0  0  0
   10.3711   -1.3177   -6.3410 H   0  0  0  0  0  0  0  0  0  0  0  0
    9.7610    0.0781   -7.2369 H   0  0  0  0  0  0  0  0  0  0  0  0
    7.5098   -0.9791   -7.4578 H   0  0  0  0  0  0  0  0  0  0  0  0
    8.0169   -2.3270   -6.4628 H   0  0  0  0  0  0  0  0  0  0  0  0
    8.2806   -0.8274   -9.8335 H   0  0  0  0  0  0  0  0  0  0  0  0
    9.1455   -2.1223  -11.7713 H   0  0  0  0  0  0  0  0  0  0  0  0
   10.2328   -4.3356  -11.3702 H   0  0  0  0  0  0  0  0  0  0  0  0
   10.4111   -5.1602   -9.0195 H   0  0  0  0  0  0  0  0  0  0  0  0
    6.9670    2.8106   -2.0006 H   0  0  0  0  0  0  0  0  0  0  0  0
    5.4735    4.6229   -2.7843 H   0  0  0  0  0  0  0  0  0  0  0  0
    5.7602    5.5078   -5.1010 H   0  0  0  0  0  0  0  0  0  0  0  0
    8.8510    2.9472   -5.8914 H   0  0  0  0  0  0  0  0  0  0  0  0
   11.2519    0.2018    0.8812 H   0  0  0  0  0  0  0  0  0  0  0  0
   13.6704    1.7335   -2.0394 H   0  0  0  0  0  0  0  0  0  0  0  0
    6.6054    0.4788   -4.5243 H   0  0  0  0  0  0  0  0  0  0  0  0
    4.4700   -0.6651   -4.4537 H   0  0  0  0  0  0  0  0  0  0  0  0
  1  2  1  0  0  0  0
  1 37  1  0  0  0  0
  1 38  1  0  0  0  0
  1 39  1  0  0  0  0
  2  3  1  0  0  0  0
  2  4  1  0  0  0  0
  2 40  1  0  0  0  0
  3 41  1  0  0  0  0
  3 42  1  0  0  0  0
  3 43  1  0  0  0  0
  4  5  1  0  0  0  0
  5  6  1  0  0  0  0
  5 36  2  0  0  0  0
  6  7  2  0  0  0  0
  6 44  1  0  0  0  0
  7  8  1  0  0  0  0
  7 45  1  0  0  0  0
  8  9  1  0  0  0  0
  8 35  2  0  0  0  0
  9 10  1  0  0  0  0
  9 28  1  0  0  0  0
 10 11  1  0  0  0  0
 10 22  1  0  0  0  0
 10 46  1  0  0  0  0
 11 12  2  0  0  0  0
 11 13  1  0  0  0  0
 13 14  1  0  0  0  0
 13 47  1  0  0  0  0
 14 15  1  0  0  0  0
 14 48  1  0  0  0  0
 14 49  1  0  0  0  0
 15 16  1  0  0  0  0
 15 50  1  0  0  0  0
 15 51  1  0  0  0  0
 16 17  1  0  0  0  0
 16 21  2  0  0  0  0
 17 18  2  0  0  0  0
 17 52  1  0  0  0  0
 18 19  1  0  0  0  0
 18 53  1  0  0  0  0
 19 20  2  0  0  0  0
 19 54  1  0  0  0  0
 20 21  1  0  0  0  0
 20 55  1  0  0  0  0
 22 23  1  0  0  0  0
 22 27  2  0  0  0  0
 23 24  2  0  0  0  0
 23 56  1  0  0  0  0
 24 25  1  0  0  0  0
 24 57  1  0  0  0  0
 25 26  2  0  0  0  0
 25 58  1  0  0  0  0
 26 27  1  0  0  0  0
 27 59  1  0  0  0  0
 28 29  2  0  0  0  0
 28 30  1  0  0  0  0
 30 31  2  0  0  0  0
 30 34  1  0  0  0  0
 31 32  1  0  0  0  0
 31 60  1  0  0  0  0
 32 33  1  0  0  0  0
 33 34  2  0  0  0  0
 33 61  1  0  0  0  0
 35 36  1  0  0  0  0
 35 62  1  0  0  0  0
 36 63  1  0  0  0  0
M  END
$$$$
