
 OpenBabel07202414193D

 51 54  0  0  1  0  0  0  0  0999 V2000
    0.8444   -1.1213    0.3173 N   0  0  0  0  0  0  0  0  0  0  0  0
    2.1528   -0.9483    0.6113 C   0  0  0  0  0  0  0  0  0  0  0  0
    2.9949   -1.8100    0.3667 O   0  0  0  0  0  0  0  0  0  0  0  0
    2.4870    0.3688    1.1695 C   0  0  0  0  0  0  0  0  0  0  0  0
    1.6586    0.9159    2.0885 C   0  0  0  0  0  0  0  0  0  0  0  0
    3.7838    0.9437    0.6468 C   0  0  0  0  0  0  0  0  0  0  0  0
    4.2069    2.1732    1.3045 N   0  0  0  0  0  0  0  0  0  0  0  0
    4.5898    1.8793    2.6906 C   0  0  0  0  0  0  0  0  0  0  0  0
    5.0085    3.0182    3.5806 C   0  0  0  0  0  0  0  0  0  0  0  0
    4.4204    4.3433    3.1976 C   0  0  0  0  0  0  0  0  0  0  0  0
    3.8463    4.5862    1.9262 C   0  0  0  0  0  0  0  0  0  0  0  0
    3.8022    5.9327    1.5231 C   0  0  0  0  0  0  0  0  0  0  0  0
    4.2024    6.9653    2.3904 C   0  0  0  0  0  0  0  0  0  0  0  0
    4.2669    8.5864    1.8181 Cl  0  0  0  0  0  0  0  0  0  0  0  0
    4.6127    6.7013    3.6926 C   0  0  0  0  0  0  0  0  0  0  0  0
    4.7293    5.3799    4.1027 C   0  0  0  0  0  0  0  0  0  0  0  0
    3.5346    3.4579    0.9125 C   0  0  3  0  0  0  0  0  0  0  0  0
    1.9843    3.3645    0.1672 C   0  0  0  0  0  0  0  0  0  0  0  0
    1.7697    2.5720   -0.7521 O   0  0  0  0  0  0  0  0  0  0  0  0
    0.9970    4.2863    0.5670 N   0  0  0  0  0  0  0  0  0  0  0  0
   -0.3133    4.7163   -0.0008 C   0  0  0  0  0  0  0  0  0  0  0  0
   -1.0964    4.3624   -1.1261 C   0  0  0  0  0  0  0  0  0  0  0  0
   -2.4972    3.9668   -1.0203 C   0  0  0  0  0  0  0  0  0  0  0  0
   -3.4600    4.0904   -2.0808 C   0  0  0  0  0  0  0  0  0  0  0  0
   -3.0384    4.4813   -3.3423 C   0  0  0  0  0  0  0  0  0  0  0  0
   -1.7340    4.9563   -3.4463 C   0  0  0  0  0  0  0  0  0  0  0  0
   -1.0603    5.2144   -2.2258 C   0  0  0  0  0  0  0  0  0  0  0  0
   -1.0681    6.5422   -1.8310 C   0  0  0  0  0  0  0  0  0  0  0  0
   -0.9379    6.9624   -0.5359 N   0  0  0  0  0  0  0  0  0  0  0  0
   -0.5599    6.0303    0.3606 C   0  0  0  0  0  0  0  0  0  0  0  0
    0.5717   -1.9299   -0.1797 H   0  0  0  0  0  0  0  0  0  0  0  0
    0.2262   -0.2959    0.2838 H   0  0  0  0  0  0  0  0  0  0  0  0
    0.7716    0.4032    2.4459 H   0  0  0  0  0  0  0  0  0  0  0  0
    1.8473    1.8796    2.5415 H   0  0  0  0  0  0  0  0  0  0  0  0
    3.7613    1.0828   -0.4421 H   0  0  0  0  0  0  0  0  0  0  0  0
    4.5809    0.1997    0.7983 H   0  0  0  0  0  0  0  0  0  0  0  0
    5.4247    1.1598    2.6885 H   0  0  0  0  0  0  0  0  0  0  0  0
    3.8032    1.3571    3.2399 H   0  0  0  0  0  0  0  0  0  0  0  0
    6.1036    3.1117    3.5485 H   0  0  0  0  0  0  0  0  0  0  0  0
    4.7457    2.7763    4.6202 H   0  0  0  0  0  0  0  0  0  0  0  0
    3.5482    6.1851    0.4955 H   0  0  0  0  0  0  0  0  0  0  0  0
    4.9247    7.4963    4.3646 H   0  0  0  0  0  0  0  0  0  0  0  0
    5.1514    5.1617    5.0758 H   0  0  0  0  0  0  0  0  0  0  0  0
    4.1352    3.7581    0.0365 H   0  0  0  0  0  0  0  0  0  0  0  0
    1.3306    4.9109    1.2845 H   0  0  0  0  0  0  0  0  0  0  0  0
   -2.9217    3.7604   -0.0411 H   0  0  0  0  0  0  0  0  0  0  0  0
   -4.5296    3.9787   -1.9010 H   0  0  0  0  0  0  0  0  0  0  0  0
   -3.7163    4.5400   -4.1833 H   0  0  0  0  0  0  0  0  0  0  0  0
   -1.4133    5.4043   -4.3758 H   0  0  0  0  0  0  0  0  0  0  0  0
   -1.4088    7.3274   -2.4953 H   0  0  0  0  0  0  0  0  0  0  0  0
   -0.2687    6.4230    1.3267 H   0  0  0  0  0  0  0  0  0  0  0  0
  1  2  1  0  0  0  0
  1 31  1  0  0  0  0
  1 32  1  0  0  0  0
  2  3  2  0  0  0  0
  2  4  1  0  0  0  0
  4  5  2  0  0  0  0
  4  6  1  0  0  0  0
  5 33  1  0  0  0  0
  5 34  1  0  0  0  0
  6  7  1  0  0  0  0
  6 35  1  0  0  0  0
  6 36  1  0  0  0  0
  7  8  1  0  0  0  0
  7 17  1  0  0  0  0
  8  9  1  0  0  0  0
  8 37  1  0  0  0  0
  8 38  1  0  0  0  0
  9 10  1  0  0  0  0
  9 39  1  0  0  0  0
  9 40  1  0  0  0  0
 10 11  2  0  0  0  0
 10 16  1  0  0  0  0
 11 12  1  0  0  0  0
 11 17  1  0  0  0  0
 12 13  2  0  0  0  0
 12 41  1  0  0  0  0
 13 14  1  0  0  0  0
 13 15  1  0  0  0  0
 15 16  2  0  0  0  0
 15 42  1  0  0  0  0
 16 43  1  0  0  0  0
 17 18  1  0  0  0  0
 17 44  1  0  0  0  0
 18 19  2  0  0  0  0
 18 20  1  0  0  0  0
 20 21  1  0  0  0  0
 20 45  1  0  0  0  0
 21 22  2  0  0  0  0
 21 30  1  0  0  0  0
 22 23  1  0  0  0  0
 22 27  1  0  0  0  0
 23 24  2  0  0  0  0
 23 46  1  0  0  0  0
 24 25  1  0  0  0  0
 24 47  1  0  0  0  0
 25 26  2  0  0  0  0
 25 48  1  0  0  0  0
 26 27  1  0  0  0  0
 26 49  1  0  0  0  0
 27 28  2  0  0  0  0
 28 29  1  0  0  0  0
 28 50  1  0  0  0  0
 29 30  2  0  0  0  0
 30 51  1  0  0  0  0
M  END
$$$$
