
 OpenBabel07202414143D

 55 58  0  0  1  0  0  0  0  0999 V2000
    6.3065    1.6084    2.6740 C   0  0  0  0  0  0  0  0  0  0  0  0
    5.9707    0.3170    2.1289 N   0  0  0  0  0  0  0  0  0  0  0  0
    4.8208    0.1531    1.3940 C   0  0  0  0  0  0  0  0  0  0  0  0
    4.0275    1.0749    1.1980 O   0  0  0  0  0  0  0  0  0  0  0  0
    4.6525   -1.1881    0.6664 C   0  0  0  0  0  0  0  0  0  0  0  0
    5.2408   -2.4013    1.2449 N   0  0  0  0  0  0  0  0  0  0  0  0
    4.3584   -3.4975    1.6419 C   0  0  0  0  0  0  0  0  0  0  0  0
    4.4867   -4.7122    0.7216 C   0  0  3  0  0  0  0  0  0  0  0  0
    3.7717   -4.4832   -0.6347 C   0  0  0  0  0  0  0  0  0  0  0  0
    2.5636   -4.6365   -0.7294 O   0  0  0  0  0  0  0  0  0  0  0  0
    4.6024   -4.0439   -1.6475 N   0  0  0  0  0  0  0  0  0  0  0  0
    4.3770   -3.9809   -3.0392 C   0  0  0  0  0  0  0  0  0  0  0  0
    3.2245   -4.4514   -3.6530 C   0  0  0  0  0  0  0  0  0  0  0  0
    3.1736   -4.7732   -4.9657 N   0  0  0  0  0  0  0  0  0  0  0  0
    4.2594   -4.4686   -5.7067 C   0  0  0  0  0  0  0  0  0  0  0  0
    5.3211   -3.6837   -5.2601 C   0  0  0  0  0  0  0  0  0  0  0  0
    6.2579   -3.1172   -6.1486 C   0  0  0  0  0  0  0  0  0  0  0  0
    7.3850   -2.4561   -5.6682 C   0  0  0  0  0  0  0  0  0  0  0  0
    7.6019   -2.4178   -4.2957 C   0  0  0  0  0  0  0  0  0  0  0  0
    9.1565   -1.8490   -3.6595 S   0  0  0  0  0  0  0  0  0  0  0  0
    8.9026   -0.1432   -3.3057 C   0  0  0  0  0  0  0  0  0  0  0  0
    9.3997   -2.5666   -2.4082 O   0  0  0  0  0  0  0  0  0  0  0  0
   10.1177   -1.9256   -4.7451 O   0  0  0  0  0  0  0  0  0  0  0  0
    6.6483   -2.9222   -3.4088 C   0  0  0  0  0  0  0  0  0  0  0  0
    5.4459   -3.5200   -3.8692 C   0  0  0  0  0  0  0  0  0  0  0  0
    5.9692   -5.0697    0.6142 C   0  0  0  0  0  0  0  0  0  0  0  0
    6.3570   -6.3731    0.2662 C   0  0  0  0  0  0  0  0  0  0  0  0
    7.7048   -6.6651    0.0441 C   0  0  0  0  0  0  0  0  0  0  0  0
    8.1638   -8.2590   -0.4103 Cl  0  0  0  0  0  0  0  0  0  0  0  0
    8.6767   -5.6732    0.1633 C   0  0  0  0  0  0  0  0  0  0  0  0
    8.3087   -4.3785    0.5342 C   0  0  0  0  0  0  0  0  0  0  0  0
    6.9635   -4.0746    0.7716 C   0  0  0  0  0  0  0  0  0  0  0  0
    6.5854   -2.6500    1.0123 C   0  0  0  0  0  0  0  0  0  0  0  0
    7.4088   -1.7496    0.8933 O   0  0  0  0  0  0  0  0  0  0  0  0
    7.2849    1.5502    3.1561 H   0  0  0  0  0  0  0  0  0  0  0  0
    5.5444    1.8954    3.4039 H   0  0  0  0  0  0  0  0  0  0  0  0
    6.3301    2.3512    1.8713 H   0  0  0  0  0  0  0  0  0  0  0  0
    6.7175   -0.3600    1.9736 H   0  0  0  0  0  0  0  0  0  0  0  0
    5.0828   -1.0611   -0.3346 H   0  0  0  0  0  0  0  0  0  0  0  0
    3.5765   -1.3534    0.5468 H   0  0  0  0  0  0  0  0  0  0  0  0
    3.3274   -3.1460    1.7429 H   0  0  0  0  0  0  0  0  0  0  0  0
    4.6928   -3.7932    2.6476 H   0  0  0  0  0  0  0  0  0  0  0  0
    3.9743   -5.5581    1.1998 H   0  0  0  0  0  0  0  0  0  0  0  0
    5.5825   -3.9859   -1.4067 H   0  0  0  0  0  0  0  0  0  0  0  0
    2.3073   -4.6656   -3.1124 H   0  0  0  0  0  0  0  0  0  0  0  0
    4.2930   -4.9439   -6.6858 H   0  0  0  0  0  0  0  0  0  0  0  0
    6.0881   -3.1630   -7.2255 H   0  0  0  0  0  0  0  0  0  0  0  0
    8.0933   -2.0131   -6.3685 H   0  0  0  0  0  0  0  0  0  0  0  0
    8.1408   -0.0298   -2.5340 H   0  0  0  0  0  0  0  0  0  0  0  0
    8.6033    0.3640   -4.2279 H   0  0  0  0  0  0  0  0  0  0  0  0
    9.8503    0.2784   -2.9523 H   0  0  0  0  0  0  0  0  0  0  0  0
    6.8633   -2.8419   -2.3435 H   0  0  0  0  0  0  0  0  0  0  0  0
    5.6113   -7.1566    0.1427 H   0  0  0  0  0  0  0  0  0  0  0  0
    9.7207   -5.8928   -0.0495 H   0  0  0  0  0  0  0  0  0  0  0  0
    9.0719   -3.6022    0.5960 H   0  0  0  0  0  0  0  0  0  0  0  0
  1  2  1  0  0  0  0
  1 35  1  0  0  0  0
  1 36  1  0  0  0  0
  1 37  1  0  0  0  0
  2  3  1  0  0  0  0
  2 38  1  0  0  0  0
  3  4  2  0  0  0  0
  3  5  1  0  0  0  0
  5  6  1  0  0  0  0
  5 39  1  0  0  0  0
  5 40  1  0  0  0  0
  6  7  1  0  0  0  0
  6 33  1  0  0  0  0
  7  8  1  0  0  0  0
  7 41  1  0  0  0  0
  7 42  1  0  0  0  0
  8  9  1  0  0  0  0
  8 26  1  0  0  0  0
  8 43  1  0  0  0  0
  9 10  2  0  0  0  0
  9 11  1  0  0  0  0
 11 12  1  0  0  0  0
 11 44  1  0  0  0  0
 12 13  1  0  0  0  0
 12 25  2  0  0  0  0
 13 14  2  0  0  0  0
 13 45  1  0  0  0  0
 14 15  1  0  0  0  0
 15 16  2  0  0  0  0
 15 46  1  0  0  0  0
 16 17  1  0  0  0  0
 16 25  1  0  0  0  0
 17 18  2  0  0  0  0
 17 47  1  0  0  0  0
 18 19  1  0  0  0  0
 18 48  1  0  0  0  0
 19 20  1  0  0  0  0
 19 24  2  0  0  0  0
 20 21  1  0  0  0  0
 20 22  2  0  0  0  0
 20 23  2  0  0  0  0
 21 49  1  0  0  0  0
 21 50  1  0  0  0  0
 21 51  1  0  0  0  0
 24 25  1  0  0  0  0
 24 52  1  0  0  0  0
 26 27  1  0  0  0  0
 26 32  2  0  0  0  0
 27 28  2  0  0  0  0
 27 53  1  0  0  0  0
 28 29  1  0  0  0  0
 28 30  1  0  0  0  0
 30 31  2  0  0  0  0
 30 54  1  0  0  0  0
 31 32  1  0  0  0  0
 31 55  1  0  0  0  0
 32 33  1  0  0  0  0
 33 34  2  0  0  0  0
M  END
$$$$
