
 OpenBabel07202414173D

 44 47  0  0  1  0  0  0  0  0999 V2000
    0.9781   -0.0491   -0.1334 Cl  0  0  0  0  0  0  0  0  0  0  0  0
    2.6936   -0.0571   -0.0042 C   0  0  0  0  0  0  0  0  0  0  0  0
    3.4027    1.1285   -0.1719 C   0  0  0  0  0  0  0  0  0  0  0  0
    4.7989    1.1149   -0.1209 C   0  0  0  0  0  0  0  0  0  0  0  0
    5.4989   -0.0841    0.1005 C   0  0  0  0  0  0  0  0  0  0  0  0
    4.7708   -1.2756    0.2979 C   0  0  0  0  0  0  0  0  0  0  0  0
    3.3665   -1.2527    0.2452 C   0  0  0  0  0  0  0  0  0  0  0  0
    5.4983   -2.5843    0.5270 C   0  0  3  0  0  0  0  0  0  0  0  0
    5.3865   -3.0776    1.9908 C   0  0  0  0  0  0  0  0  0  0  0  0
    4.4423   -3.8006    2.3220 O   0  0  0  0  0  0  0  0  0  0  0  0
    6.3730   -2.6166    2.8347 N   0  0  0  0  0  0  0  0  0  0  0  0
    6.4984   -2.8116    4.2388 C   0  0  0  0  0  0  0  0  0  0  0  0
    5.5552   -3.5035    4.9981 C   0  0  0  0  0  0  0  0  0  0  0  0
    5.5532   -3.5646    6.3531 N   0  0  0  0  0  0  0  0  0  0  0  0
    6.5652   -2.9413    6.9888 C   0  0  0  0  0  0  0  0  0  0  0  0
    7.6330   -2.3167    6.3477 C   0  0  0  0  0  0  0  0  0  0  0  0
    8.7136   -1.7885    7.0807 C   0  0  0  0  0  0  0  0  0  0  0  0
    9.8060   -1.2197    6.4307 C   0  0  0  0  0  0  0  0  0  0  0  0
    9.8139   -1.1476    5.0464 C   0  0  0  0  0  0  0  0  0  0  0  0
    8.7288   -1.6414    4.3146 C   0  0  0  0  0  0  0  0  0  0  0  0
    7.6096   -2.2474    4.9353 C   0  0  0  0  0  0  0  0  0  0  0  0
    6.9466   -2.5030    0.0015 C   0  0  0  0  0  0  0  0  0  0  0  0
    7.6574   -1.2955    0.5060 N   0  0  0  0  0  0  0  0  0  0  0  0
    9.1071   -1.3092    0.1343 C   0  0  0  0  0  0  0  0  0  0  0  0
    9.7364   -2.5340    0.7779 C   0  0  0  0  0  0  0  0  0  0  0  0
   10.2585   -3.5500    1.3119 N   0  0  0  0  0  0  0  0  0  0  0  0
    7.0114   -0.0761   -0.0058 C   0  0  0  0  0  0  0  0  0  0  0  0
    2.8785    2.0597   -0.3608 H   0  0  0  0  0  0  0  0  0  0  0  0
    5.3383    2.0454   -0.2782 H   0  0  0  0  0  0  0  0  0  0  0  0
    2.7999   -2.1714    0.3790 H   0  0  0  0  0  0  0  0  0  0  0  0
    5.0056   -3.3572   -0.0835 H   0  0  0  0  0  0  0  0  0  0  0  0
    7.0394   -1.9793    2.4055 H   0  0  0  0  0  0  0  0  0  0  0  0
    4.7323   -4.0481    4.5500 H   0  0  0  0  0  0  0  0  0  0  0  0
    6.5011   -2.9754    8.0742 H   0  0  0  0  0  0  0  0  0  0  0  0
    8.7266   -1.8495    8.1682 H   0  0  0  0  0  0  0  0  0  0  0  0
   10.6538   -0.8519    7.0012 H   0  0  0  0  0  0  0  0  0  0  0  0
   10.6725   -0.7288    4.5260 H   0  0  0  0  0  0  0  0  0  0  0  0
    8.8045   -1.5851    3.2371 H   0  0  0  0  0  0  0  0  0  0  0  0
    6.9431   -2.4940   -1.0968 H   0  0  0  0  0  0  0  0  0  0  0  0
    7.4556   -3.4238    0.3100 H   0  0  0  0  0  0  0  0  0  0  0  0
    9.6027   -0.4145    0.5265 H   0  0  0  0  0  0  0  0  0  0  0  0
    9.2409   -1.3469   -0.9525 H   0  0  0  0  0  0  0  0  0  0  0  0
    7.2639    0.0731   -1.0640 H   0  0  0  0  0  0  0  0  0  0  0  0
    7.3947    0.7796    0.5622 H   0  0  0  0  0  0  0  0  0  0  0  0
  1  2  1  0  0  0  0
  2  3  1  0  0  0  0
  2  7  2  0  0  0  0
  3  4  2  0  0  0  0
  3 28  1  0  0  0  0
  4  5  1  0  0  0  0
  4 29  1  0  0  0  0
  5  6  2  0  0  0  0
  5 27  1  0  0  0  0
  6  7  1  0  0  0  0
  6  8  1  0  0  0  0
  7 30  1  0  0  0  0
  8  9  1  0  0  0  0
  8 22  1  0  0  0  0
  8 31  1  0  0  0  0
  9 10  2  0  0  0  0
  9 11  1  0  0  0  0
 11 12  1  0  0  0  0
 11 32  1  0  0  0  0
 12 13  1  0  0  0  0
 12 21  2  0  0  0  0
 13 14  2  0  0  0  0
 13 33  1  0  0  0  0
 14 15  1  0  0  0  0
 15 16  2  0  0  0  0
 15 34  1  0  0  0  0
 16 17  1  0  0  0  0
 16 21  1  0  0  0  0
 17 18  2  0  0  0  0
 17 35  1  0  0  0  0
 18 19  1  0  0  0  0
 18 36  1  0  0  0  0
 19 20  2  0  0  0  0
 19 37  1  0  0  0  0
 20 21  1  0  0  0  0
 20 38  1  0  0  0  0
 22 23  1  0  0  0  0
 22 39  1  0  0  0  0
 22 40  1  0  0  0  0
 23 24  1  0  0  0  0
 23 27  1  0  0  0  0
 24 25  1  0  0  0  0
 24 41  1  0  0  0  0
 24 42  1  0  0  0  0
 25 26  3  0  0  0  0
 27 43  1  0  0  0  0
 27 44  1  0  0  0  0
M  END
$$$$
