
 OpenBabel07202414123D

 75 79  0  0  1  0  0  0  0  0999 V2000
    0.9382    0.0566    0.4204 C   0  0  0  0  0  0  0  0  0  0  0  0
    2.4383   -0.0660    0.0562 C   0  0  0  0  0  0  0  0  0  0  0  0
    3.2713    0.0369    1.3455 C   0  0  0  0  0  0  0  0  0  0  0  0
    2.6151   -1.4796   -0.5462 C   0  0  0  0  0  0  0  0  0  0  0  0
    2.9140    1.0396   -0.8977 C   0  0  0  0  0  0  0  0  0  0  0  0
    2.3087    2.2947   -0.9306 C   0  0  0  0  0  0  0  0  0  0  0  0
    2.7229    3.2911   -1.8340 C   0  0  0  0  0  0  0  0  0  0  0  0
    3.7374    3.0886   -2.7822 C   0  0  0  0  0  0  0  0  0  0  0  0
    4.0228    4.0492   -3.8588 N   0  0  0  0  0  0  0  0  0  0  0  0
    5.0625    3.7371   -4.9126 C   0  0  3  0  0  0  0  0  0  0  0  0
    6.5114    4.2046   -4.5429 C   0  0  0  0  0  0  0  0  0  0  0  0
    7.0213    5.2098   -5.0394 O   0  0  0  0  0  0  0  0  0  0  0  0
    7.2583    3.4281   -3.6783 N   0  0  0  0  0  0  0  0  0  0  0  0
    8.6133    3.8647   -3.3630 C   0  0  0  0  0  0  0  0  0  0  0  0
    9.3313    2.8859   -2.4425 C   0  0  0  0  0  0  0  0  0  0  0  0
   10.6605    3.4099   -1.9628 C   0  0  0  0  0  0  0  0  0  0  0  0
   10.7322    4.1859   -0.7953 C   0  0  0  0  0  0  0  0  0  0  0  0
   11.9620    4.6502   -0.3217 C   0  0  0  0  0  0  0  0  0  0  0  0
   13.1315    4.3503   -1.0163 C   0  0  0  0  0  0  0  0  0  0  0  0
   13.0593    3.6024   -2.1854 C   0  0  0  0  0  0  0  0  0  0  0  0
   14.1842    3.3181   -2.8551 F   0  0  0  0  0  0  0  0  0  0  0  0
   11.8394    3.1360   -2.6678 C   0  0  0  0  0  0  0  0  0  0  0  0
    4.9937    2.3823   -5.6463 C   0  0  0  0  0  0  0  0  0  0  0  0
    3.8075    1.6566   -5.7928 C   0  0  0  0  0  0  0  0  0  0  0  0
    3.7973    0.4765   -6.5372 C   0  0  0  0  0  0  0  0  0  0  0  0
    4.9728    0.0622   -7.1356 C   0  0  0  0  0  0  0  0  0  0  0  0
    6.1324    0.7419   -7.0392 N   0  0  0  0  0  0  0  0  0  0  0  0
    6.1141    1.8886   -6.3253 C   0  0  0  0  0  0  0  0  0  0  0  0
    3.1817    5.2116   -4.0242 C   0  0  0  0  0  0  0  0  0  0  0  0
    2.0928    5.3545   -3.4688 O   0  0  0  0  0  0  0  0  0  0  0  0
    3.5381    6.2678   -4.9838 C   0  0  0  0  0  0  0  0  0  0  0  0
    2.6289    7.0553   -5.7443 C   0  0  0  0  0  0  0  0  0  0  0  0
    3.4264    7.7150   -6.6484 C   0  0  0  0  0  0  0  0  0  0  0  0
    2.9729    8.4897   -7.8819 C   0  0  0  0  0  0  0  0  0  0  0  0
    1.5400    8.7072   -7.9696 O   0  0  0  0  0  0  0  0  0  0  0  0
    3.6506    7.9072   -9.1609 C   0  0  0  0  0  0  0  0  0  0  0  0
    4.2487    9.1744   -9.4983 O   0  0  0  0  0  0  0  0  0  0  0  0
    3.8729    9.7095   -8.2089 C   0  0  0  0  0  0  0  0  0  0  0  0
    4.7262    7.5003   -6.3217 O   0  0  0  0  0  0  0  0  0  0  0  0
    4.7899    6.6532   -5.2433 N   0  0  0  0  0  0  0  0  0  0  0  0
    4.4232    1.8774   -2.6407 C   0  0  0  0  0  0  0  0  0  0  0  0
    4.0223    0.8758   -1.7335 C   0  0  0  0  0  0  0  0  0  0  0  0
    0.6167   -0.7763    1.0573 H   0  0  0  0  0  0  0  0  0  0  0  0
    0.3096    0.0460   -0.4783 H   0  0  0  0  0  0  0  0  0  0  0  0
    0.7160    0.9728    0.9773 H   0  0  0  0  0  0  0  0  0  0  0  0
    2.9697   -0.7222    2.0752 H   0  0  0  0  0  0  0  0  0  0  0  0
    3.1534    1.0198    1.8172 H   0  0  0  0  0  0  0  0  0  0  0  0
    4.3396   -0.1024    1.1420 H   0  0  0  0  0  0  0  0  0  0  0  0
    2.2309   -2.2478    0.1360 H   0  0  0  0  0  0  0  0  0  0  0  0
    3.6644   -1.7292   -0.7326 H   0  0  0  0  0  0  0  0  0  0  0  0
    2.0714   -1.5776   -1.4934 H   0  0  0  0  0  0  0  0  0  0  0  0
    1.4876    2.5468   -0.2635 H   0  0  0  0  0  0  0  0  0  0  0  0
    2.1784    4.2238   -1.7388 H   0  0  0  0  0  0  0  0  0  0  0  0
    4.8101    4.3652   -5.7733 H   0  0  0  0  0  0  0  0  0  0  0  0
    7.0803    2.4342   -3.6681 H   0  0  0  0  0  0  0  0  0  0  0  0
    8.5377    4.8581   -2.9028 H   0  0  0  0  0  0  0  0  0  0  0  0
    9.1673    3.9858   -4.3029 H   0  0  0  0  0  0  0  0  0  0  0  0
    9.4772    1.9306   -2.9631 H   0  0  0  0  0  0  0  0  0  0  0  0
    8.7000    2.6536   -1.5760 H   0  0  0  0  0  0  0  0  0  0  0  0
    9.8270    4.4281   -0.2412 H   0  0  0  0  0  0  0  0  0  0  0  0
   12.0059    5.2408    0.5900 H   0  0  0  0  0  0  0  0  0  0  0  0
   14.0954    4.6946   -0.6562 H   0  0  0  0  0  0  0  0  0  0  0  0
   11.8276    2.5550   -3.5853 H   0  0  0  0  0  0  0  0  0  0  0  0
    2.8796    1.9881   -5.3309 H   0  0  0  0  0  0  0  0  0  0  0  0
    2.8868   -0.1026   -6.6526 H   0  0  0  0  0  0  0  0  0  0  0  0
    5.0133   -0.8429   -7.7355 H   0  0  0  0  0  0  0  0  0  0  0  0
    7.0650    2.4177   -6.3415 H   0  0  0  0  0  0  0  0  0  0  0  0
    1.5498    7.0325   -5.6973 H   0  0  0  0  0  0  0  0  0  0  0  0
    1.1529    7.8184   -8.0326 H   0  0  0  0  0  0  0  0  0  0  0  0
    2.9601    7.5650   -9.9382 H   0  0  0  0  0  0  0  0  0  0  0  0
    4.4153    7.1353   -9.0131 H   0  0  0  0  0  0  0  0  0  0  0  0
    3.3396   10.6590   -8.3155 H   0  0  0  0  0  0  0  0  0  0  0  0
    4.7514    9.8661   -7.5742 H   0  0  0  0  0  0  0  0  0  0  0  0
    5.2765    1.6199   -3.2490 H   0  0  0  0  0  0  0  0  0  0  0  0
    4.6020   -0.0446   -1.7165 H   0  0  0  0  0  0  0  0  0  0  0  0
  1  2  1  0  0  0  0
  1 43  1  0  0  0  0
  1 44  1  0  0  0  0
  1 45  1  0  0  0  0
  2  3  1  0  0  0  0
  2  4  1  0  0  0  0
  2  5  1  0  0  0  0
  3 46  1  0  0  0  0
  3 47  1  0  0  0  0
  3 48  1  0  0  0  0
  4 49  1  0  0  0  0
  4 50  1  0  0  0  0
  4 51  1  0  0  0  0
  5  6  1  0  0  0  0
  5 42  2  0  0  0  0
  6  7  2  0  0  0  0
  6 52  1  0  0  0  0
  7  8  1  0  0  0  0
  7 53  1  0  0  0  0
  8  9  1  0  0  0  0
  8 41  2  0  0  0  0
  9 10  1  0  0  0  0
  9 29  1  0  0  0  0
 10 11  1  0  0  0  0
 10 23  1  0  0  0  0
 10 54  1  0  0  0  0
 11 12  2  0  0  0  0
 11 13  1  0  0  0  0
 13 14  1  0  0  0  0
 13 55  1  0  0  0  0
 14 15  1  0  0  0  0
 14 56  1  0  0  0  0
 14 57  1  0  0  0  0
 15 16  1  0  0  0  0
 15 58  1  0  0  0  0
 15 59  1  0  0  0  0
 16 17  1  0  0  0  0
 16 22  2  0  0  0  0
 17 18  2  0  0  0  0
 17 60  1  0  0  0  0
 18 19  1  0  0  0  0
 18 61  1  0  0  0  0
 19 20  2  0  0  0  0
 19 62  1  0  0  0  0
 20 21  1  0  0  0  0
 20 22  1  0  0  0  0
 22 63  1  0  0  0  0
 23 24  1  0  0  0  0
 23 28  2  0  0  0  0
 24 25  2  0  0  0  0
 24 64  1  0  0  0  0
 25 26  1  0  0  0  0
 25 65  1  0  0  0  0
 26 27  2  0  0  0  0
 26 66  1  0  0  0  0
 27 28  1  0  0  0  0
 28 67  1  0  0  0  0
 29 30  2  0  0  0  0
 29 31  1  0  0  0  0
 31 32  1  0  0  0  0
 31 40  2  0  0  0  0
 32 33  2  0  0  0  0
 32 68  1  0  0  0  0
 33 34  1  0  0  0  0
 33 39  1  0  0  0  0
 34 35  1  0  0  0  0
 34 36  1  0  0  0  0
 34 38  1  0  0  0  0
 35 69  1  0  0  0  0
 36 37  1  0  0  0  0
 36 70  1  0  0  0  0
 36 71  1  0  0  0  0
 37 38  1  0  0  0  0
 38 72  1  0  0  0  0
 38 73  1  0  0  0  0
 39 40  1  0  0  0  0
 41 42  1  0  0  0  0
 41 74  1  0  0  0  0
 42 75  1  0  0  0  0
M  END
$$$$
