
 OpenBabel07202414133D

 71 75  0  0  1  0  0  0  0  0999 V2000
    3.2792   -1.6027    1.3205 C   0  0  0  0  0  0  0  0  0  0  0  0
    3.2349   -0.7963    0.0890 N   0  0  0  0  0  0  0  0  0  0  0  0
    2.3165   -1.4517   -0.8714 C   0  0  0  0  0  0  0  0  0  0  0  0
    0.8250   -1.5522   -0.4984 C   0  0  0  0  0  0  0  0  0  0  0  0
    0.0908   -2.1938   -1.5412 O   0  0  0  0  0  0  0  0  0  0  0  0
    2.9175    0.6320    0.3584 C   0  0  3  0  0  0  0  0  0  0  0  0
    2.8369    1.5314   -0.9032 C   0  0  0  0  0  0  0  0  0  0  0  0
    4.1980    1.8659   -1.5190 C   0  0  0  0  0  0  0  0  0  0  0  0
    5.1000    2.4401   -0.5238 N   0  0  0  0  0  0  0  0  0  0  0  0
    5.9708    3.4631   -0.9163 C   0  0  0  0  0  0  0  0  0  0  0  0
    5.9651    3.9577   -2.0351 O   0  0  0  0  0  0  0  0  0  0  0  0
    6.8514    4.0160    0.2039 C   0  0  0  0  0  0  0  0  0  0  0  0
    8.0125    5.0061   -0.0910 C   0  0  3  0  0  0  0  0  0  0  0  0
    9.0510    4.2630   -1.0020 C   0  0  0  0  0  0  0  0  0  0  0  0
    8.9974    3.0440   -1.1478 O   0  0  0  0  0  0  0  0  0  0  0  0
   10.0244    5.0723   -1.5749 N   0  0  0  0  0  0  0  0  0  0  0  0
   10.8373    4.7363   -2.7038 C   0  0  0  0  0  0  0  0  0  0  0  0
   10.9197    3.4384   -3.2145 C   0  0  0  0  0  0  0  0  0  0  0  0
   11.5352    3.0985   -4.3726 N   0  0  0  0  0  0  0  0  0  0  0  0
   12.1749    4.0878   -5.0224 C   0  0  0  0  0  0  0  0  0  0  0  0
   12.3065    5.3863   -4.5392 C   0  0  0  0  0  0  0  0  0  0  0  0
   13.1585    6.3037   -5.1800 C   0  0  0  0  0  0  0  0  0  0  0  0
   13.3028    7.5975   -4.6900 C   0  0  0  0  0  0  0  0  0  0  0  0
   12.5343    8.0095   -3.6106 C   0  0  0  0  0  0  0  0  0  0  0  0
   11.6736    7.1078   -2.9742 C   0  0  0  0  0  0  0  0  0  0  0  0
   11.5824    5.7505   -3.3767 C   0  0  0  0  0  0  0  0  0  0  0  0
    8.6790    5.2278    1.3057 C   0  0  0  0  0  0  0  0  0  0  0  0
    7.8543    6.2416    2.0948 C   0  0  0  0  0  0  0  0  0  0  0  0
    8.0156    7.5288    1.5126 O   0  0  0  0  0  0  0  0  0  0  0  0
    7.7589    7.5596    0.1716 C   0  0  0  0  0  0  0  0  0  0  0  0
    7.7280    8.8425   -0.3861 C   0  0  0  0  0  0  0  0  0  0  0  0
    7.5561    9.0142   -1.7495 C   0  0  0  0  0  0  0  0  0  0  0  0
    7.3857    7.8933   -2.5575 C   0  0  0  0  0  0  0  0  0  0  0  0
    7.2166    8.0997   -4.2565 Cl  0  0  0  0  0  0  0  0  0  0  0  0
    7.4116    6.6074   -2.0085 C   0  0  0  0  0  0  0  0  0  0  0  0
    7.6584    6.4004   -0.6381 C   0  0  0  0  0  0  0  0  0  0  0  0
    5.2602    1.6223    0.6795 C   0  0  0  0  0  0  0  0  0  0  0  0
    3.9154    1.3110    1.3239 C   0  0  0  0  0  0  0  0  0  0  0  0
    3.4560   -2.6599    1.0896 H   0  0  0  0  0  0  0  0  0  0  0  0
    2.3505   -1.5304    1.8977 H   0  0  0  0  0  0  0  0  0  0  0  0
    4.1107   -1.3117    1.9677 H   0  0  0  0  0  0  0  0  0  0  0  0
    2.6814   -2.4699   -1.0649 H   0  0  0  0  0  0  0  0  0  0  0  0
    2.4090   -0.9781   -1.8541 H   0  0  0  0  0  0  0  0  0  0  0  0
    0.3758   -0.5699   -0.3304 H   0  0  0  0  0  0  0  0  0  0  0  0
    0.6816   -2.1537    0.4055 H   0  0  0  0  0  0  0  0  0  0  0  0
    0.2461   -1.6954   -2.3621 H   0  0  0  0  0  0  0  0  0  0  0  0
    1.9345    0.6691    0.8445 H   0  0  0  0  0  0  0  0  0  0  0  0
    2.3623    2.4771   -0.6042 H   0  0  0  0  0  0  0  0  0  0  0  0
    2.1773    1.1104   -1.6676 H   0  0  0  0  0  0  0  0  0  0  0  0
    4.0514    2.5681   -2.3467 H   0  0  0  0  0  0  0  0  0  0  0  0
    4.6799    0.9724   -1.9301 H   0  0  0  0  0  0  0  0  0  0  0  0
    7.3311    3.1385    0.6514 H   0  0  0  0  0  0  0  0  0  0  0  0
    6.1576    4.4362    0.9349 H   0  0  0  0  0  0  0  0  0  0  0  0
   10.0023    6.0500   -1.3298 H   0  0  0  0  0  0  0  0  0  0  0  0
   10.4968    2.5820   -2.7019 H   0  0  0  0  0  0  0  0  0  0  0  0
   12.6064    3.7908   -5.9756 H   0  0  0  0  0  0  0  0  0  0  0  0
   13.7507    5.9978   -6.0407 H   0  0  0  0  0  0  0  0  0  0  0  0
   14.0115    8.2799   -5.1514 H   0  0  0  0  0  0  0  0  0  0  0  0
   12.6134    9.0313   -3.2470 H   0  0  0  0  0  0  0  0  0  0  0  0
   11.0977    7.4915   -2.1387 H   0  0  0  0  0  0  0  0  0  0  0  0
    9.7051    5.6029    1.1966 H   0  0  0  0  0  0  0  0  0  0  0  0
    8.7454    4.2902    1.8703 H   0  0  0  0  0  0  0  0  0  0  0  0
    8.2104    6.2987    3.1275 H   0  0  0  0  0  0  0  0  0  0  0  0
    6.7853    6.0004    2.1576 H   0  0  0  0  0  0  0  0  0  0  0  0
    7.8598    9.7049    0.2628 H   0  0  0  0  0  0  0  0  0  0  0  0
    7.5660   10.0141   -2.1777 H   0  0  0  0  0  0  0  0  0  0  0  0
    7.3289    5.7591   -2.6955 H   0  0  0  0  0  0  0  0  0  0  0  0
    5.8667    2.1214    1.4353 H   0  0  0  0  0  0  0  0  0  0  0  0
    5.7944    0.7104    0.3893 H   0  0  0  0  0  0  0  0  0  0  0  0
    3.4707    2.2563    1.6643 H   0  0  0  0  0  0  0  0  0  0  0  0
    4.0755    0.7295    2.2370 H   0  0  0  0  0  0  0  0  0  0  0  0
  1  2  1  0  0  0  0
  1 39  1  0  0  0  0
  1 40  1  0  0  0  0
  1 41  1  0  0  0  0
  2  3  1  0  0  0  0
  2  6  1  0  0  0  0
  3  4  1  0  0  0  0
  3 42  1  0  0  0  0
  3 43  1  0  0  0  0
  4  5  1  0  0  0  0
  4 44  1  0  0  0  0
  4 45  1  0  0  0  0
  5 46  1  0  0  0  0
  6  7  1  0  0  0  0
  6 38  1  0  0  0  0
  6 47  1  0  0  0  0
  7  8  1  0  0  0  0
  7 48  1  0  0  0  0
  7 49  1  0  0  0  0
  8  9  1  0  0  0  0
  8 50  1  0  0  0  0
  8 51  1  0  0  0  0
  9 10  1  0  0  0  0
  9 37  1  0  0  0  0
 10 11  2  0  0  0  0
 10 12  1  0  0  0  0
 12 13  1  0  0  0  0
 12 52  1  0  0  0  0
 12 53  1  0  0  0  0
 13 14  1  0  0  0  0
 13 27  1  0  0  0  0
 13 36  1  0  0  0  0
 14 15  2  0  0  0  0
 14 16  1  0  0  0  0
 16 17  1  0  0  0  0
 16 54  1  0  0  0  0
 17 18  1  0  0  0  0
 17 26  2  0  0  0  0
 18 19  2  0  0  0  0
 18 55  1  0  0  0  0
 19 20  1  0  0  0  0
 20 21  2  0  0  0  0
 20 56  1  0  0  0  0
 21 22  1  0  0  0  0
 21 26  1  0  0  0  0
 22 23  2  0  0  0  0
 22 57  1  0  0  0  0
 23 24  1  0  0  0  0
 23 58  1  0  0  0  0
 24 25  2  0  0  0  0
 24 59  1  0  0  0  0
 25 26  1  0  0  0  0
 25 60  1  0  0  0  0
 27 28  1  0  0  0  0
 27 61  1  0  0  0  0
 27 62  1  0  0  0  0
 28 29  1  0  0  0  0
 28 63  1  0  0  0  0
 28 64  1  0  0  0  0
 29 30  1  0  0  0  0
 30 31  1  0  0  0  0
 30 36  2  0  0  0  0
 31 32  2  0  0  0  0
 31 65  1  0  0  0  0
 32 33  1  0  0  0  0
 32 66  1  0  0  0  0
 33 34  1  0  0  0  0
 33 35  2  0  0  0  0
 35 36  1  0  0  0  0
 35 67  1  0  0  0  0
 37 38  1  0  0  0  0
 37 68  1  0  0  0  0
 37 69  1  0  0  0  0
 38 70  1  0  0  0  0
 38 71  1  0  0  0  0
M  END
$$$$
