
 OpenBabel07202414193D

 37 39  0  0  0  0  0  0  0  0999 V2000
    2.0170    0.5736   -1.1570 O   0  0  0  0  0  0  0  0  0  0  0  0
    2.2304    0.0553   -0.0620 C   0  0  0  0  0  0  0  0  0  0  0  0
    2.9837    0.7775    1.0430 C   0  0  0  0  0  0  0  0  0  0  0  0
    2.0902    1.5649    1.9705 C   0  0  0  0  0  0  0  0  0  0  0  0
    1.5808    0.9214    3.0992 C   0  0  0  0  0  0  0  0  0  0  0  0
    0.7970    1.4995    4.0293 N   0  0  0  0  0  0  0  0  0  0  0  0
    0.4933    2.7990    3.8285 C   0  0  0  0  0  0  0  0  0  0  0  0
    0.9273    3.5575    2.7424 C   0  0  0  0  0  0  0  0  0  0  0  0
    0.5685    4.9122    2.6102 C   0  0  0  0  0  0  0  0  0  0  0  0
    1.0110    5.6595    1.5228 C   0  0  0  0  0  0  0  0  0  0  0  0
    1.8095    5.0602    0.5565 C   0  0  0  0  0  0  0  0  0  0  0  0
    2.1690    3.7129    0.6771 C   0  0  0  0  0  0  0  0  0  0  0  0
    1.7450    2.9277    1.7746 C   0  0  0  0  0  0  0  0  0  0  0  0
    1.8468   -1.2307    0.2600 N   0  0  0  0  0  0  0  0  0  0  0  0
    1.1162   -2.0747   -0.6589 C   0  0  0  0  0  0  0  0  0  0  0  0
   -0.3741   -1.9098   -0.5186 C   0  0  0  0  0  0  0  0  0  0  0  0
   -1.0558   -0.9646   -1.3005 C   0  0  0  0  0  0  0  0  0  0  0  0
   -2.4402   -0.8183   -1.2000 C   0  0  0  0  0  0  0  0  0  0  0  0
   -3.1627   -1.6093   -0.3076 C   0  0  0  0  0  0  0  0  0  0  0  0
   -2.4919   -2.5358    0.4876 C   0  0  0  0  0  0  0  0  0  0  0  0
   -3.3812   -3.5100    1.5938 Cl  0  0  0  0  0  0  0  0  0  0  0  0
   -1.1074   -2.6883    0.3902 C   0  0  0  0  0  0  0  0  0  0  0  0
    3.7481    1.4152    0.5858 H   0  0  0  0  0  0  0  0  0  0  0  0
    3.5592    0.0428    1.6218 H   0  0  0  0  0  0  0  0  0  0  0  0
    1.8085   -0.1213    3.3061 H   0  0  0  0  0  0  0  0  0  0  0  0
   -0.1363    3.2337    4.6011 H   0  0  0  0  0  0  0  0  0  0  0  0
   -0.0586    5.3924    3.3578 H   0  0  0  0  0  0  0  0  0  0  0  0
    0.7298    6.7052    1.4279 H   0  0  0  0  0  0  0  0  0  0  0  0
    2.1535    5.6376   -0.2983 H   0  0  0  0  0  0  0  0  0  0  0  0
    2.7838    3.2847   -0.1120 H   0  0  0  0  0  0  0  0  0  0  0  0
    1.9754   -1.5702    1.2025 H   0  0  0  0  0  0  0  0  0  0  0  0
    1.3987   -3.1122   -0.4428 H   0  0  0  0  0  0  0  0  0  0  0  0
    1.4285   -1.8676   -1.6884 H   0  0  0  0  0  0  0  0  0  0  0  0
   -0.5028   -0.3330   -1.9957 H   0  0  0  0  0  0  0  0  0  0  0  0
   -2.9543   -0.0864   -1.8190 H   0  0  0  0  0  0  0  0  0  0  0  0
   -4.2399   -1.4950   -0.2344 H   0  0  0  0  0  0  0  0  0  0  0  0
   -0.6028   -3.4203    1.0164 H   0  0  0  0  0  0  0  0  0  0  0  0
  1  2  2  0  0  0  0
  2  3  1  0  0  0  0
  2 14  1  0  0  0  0
  3  4  1  0  0  0  0
  3 23  1  0  0  0  0
  3 24  1  0  0  0  0
  4  5  1  0  0  0  0
  4 13  2  0  0  0  0
  5  6  2  0  0  0  0
  5 25  1  0  0  0  0
  6  7  1  0  0  0  0
  7  8  2  0  0  0  0
  7 26  1  0  0  0  0
  8  9  1  0  0  0  0
  8 13  1  0  0  0  0
  9 10  2  0  0  0  0
  9 27  1  0  0  0  0
 10 11  1  0  0  0  0
 10 28  1  0  0  0  0
 11 12  2  0  0  0  0
 11 29  1  0  0  0  0
 12 13  1  0  0  0  0
 12 30  1  0  0  0  0
 14 15  1  0  0  0  0
 14 31  1  0  0  0  0
 15 16  1  0  0  0  0
 15 32  1  0  0  0  0
 15 33  1  0  0  0  0
 16 17  1  0  0  0  0
 16 22  2  0  0  0  0
 17 18  2  0  0  0  0
 17 34  1  0  0  0  0
 18 19  1  0  0  0  0
 18 35  1  0  0  0  0
 19 20  2  0  0  0  0
 19 36  1  0  0  0  0
 20 21  1  0  0  0  0
 20 22  1  0  0  0  0
 22 37  1  0  0  0  0
M  END
$$$$
