
 OpenBabel07202414153D

 44 47  0  0  1  0  0  0  0  0999 V2000
    9.9689   -3.8135    5.1457 C   0  0  0  0  0  0  0  0  0  0  0  0
    9.2260   -2.5982    5.1459 O   0  0  0  0  0  0  0  0  0  0  0  0
    7.8916   -2.7231    4.8709 C   0  0  0  0  0  0  0  0  0  0  0  0
    7.1349   -3.8700    5.0741 C   0  0  0  0  0  0  0  0  0  0  0  0
    5.7812   -3.8682    4.7457 C   0  0  0  0  0  0  0  0  0  0  0  0
    5.1700   -2.7238    4.2084 C   0  0  0  0  0  0  0  0  0  0  0  0
    3.8199   -2.7329    3.8681 C   0  0  0  0  0  0  0  0  0  0  0  0
    3.1579   -1.6882    3.3378 N   0  0  0  0  0  0  0  0  0  0  0  0
    3.8768   -0.5608    3.1274 C   0  0  0  0  0  0  0  0  0  0  0  0
    5.2345   -0.4136    3.4229 C   0  0  0  0  0  0  0  0  0  0  0  0
    5.9585    0.7823    3.1647 N   0  0  0  0  0  0  0  0  0  0  0  0
    5.5020    1.9342    2.5553 C   0  0  0  0  0  0  0  0  0  0  0  0
    4.3369    2.1084    2.1995 O   0  0  0  0  0  0  0  0  0  0  0  0
    6.5366    3.0753    2.4162 C   0  0  2  0  0  0  0  0  0  0  0  0
    6.0910    4.0249    1.2909 C   0  0  0  0  0  0  0  0  0  0  0  0
    6.2838    3.3122   -0.0435 C   0  0  0  0  0  0  0  0  0  0  0  0
    7.7001    3.0519   -0.2519 N   0  0  0  0  0  0  0  0  0  0  0  0
    8.4587    2.5926    0.8254 C   0  0  0  0  0  0  0  0  0  0  0  0
    9.8030    2.2628    0.6069 C   0  0  0  0  0  0  0  0  0  0  0  0
   10.6548    1.9515    1.6709 C   0  0  0  0  0  0  0  0  0  0  0  0
   12.3004    1.5747    1.3020 Cl  0  0  0  0  0  0  0  0  0  0  0  0
   10.1688    1.9830    2.9787 C   0  0  0  0  0  0  0  0  0  0  0  0
   11.1571    1.6178    4.3468 Cl  0  0  0  0  0  0  0  0  0  0  0  0
    8.8370    2.3365    3.2154 C   0  0  0  0  0  0  0  0  0  0  0  0
    7.9745    2.6442    2.1467 C   0  0  0  0  0  0  0  0  0  0  0  0
    5.9097   -1.5352    3.9944 C   0  0  0  0  0  0  0  0  0  0  0  0
    7.2804   -1.5701    4.3636 C   0  0  0  0  0  0  0  0  0  0  0  0
   11.0320   -3.5573    5.1680 H   0  0  0  0  0  0  0  0  0  0  0  0
    9.7840   -4.3925    4.2336 H   0  0  0  0  0  0  0  0  0  0  0  0
    9.7485   -4.4065    6.0387 H   0  0  0  0  0  0  0  0  0  0  0  0
    7.5658   -4.7719    5.4956 H   0  0  0  0  0  0  0  0  0  0  0  0
    5.2034   -4.7765    4.9102 H   0  0  0  0  0  0  0  0  0  0  0  0
    3.2073   -3.6195    4.0130 H   0  0  0  0  0  0  0  0  0  0  0  0
    3.2816    0.2337    2.6921 H   0  0  0  0  0  0  0  0  0  0  0  0
    6.9385    0.7566    3.3930 H   0  0  0  0  0  0  0  0  0  0  0  0
    6.5076    3.6370    3.3598 H   0  0  0  0  0  0  0  0  0  0  0  0
    6.6969    4.9409    1.3138 H   0  0  0  0  0  0  0  0  0  0  0  0
    5.0462    4.3324    1.4102 H   0  0  0  0  0  0  0  0  0  0  0  0
    5.9147    3.9423   -0.8593 H   0  0  0  0  0  0  0  0  0  0  0  0
    5.7269    2.3687   -0.0914 H   0  0  0  0  0  0  0  0  0  0  0  0
    7.9286    2.6273   -1.1473 H   0  0  0  0  0  0  0  0  0  0  0  0
   10.2004    2.2830   -0.4057 H   0  0  0  0  0  0  0  0  0  0  0  0
    8.4768    2.3943    4.2415 H   0  0  0  0  0  0  0  0  0  0  0  0
    7.9197   -0.7006    4.2509 H   0  0  0  0  0  0  0  0  0  0  0  0
  1  2  1  0  0  0  0
  1 28  1  0  0  0  0
  1 29  1  0  0  0  0
  1 30  1  0  0  0  0
  2  3  1  0  0  0  0
  3  4  1  0  0  0  0
  3 27  2  0  0  0  0
  4  5  2  0  0  0  0
  4 31  1  0  0  0  0
  5  6  1  0  0  0  0
  5 32  1  0  0  0  0
  6  7  1  0  0  0  0
  6 26  2  0  0  0  0
  7  8  2  0  0  0  0
  7 33  1  0  0  0  0
  8  9  1  0  0  0  0
  9 10  2  0  0  0  0
  9 34  1  0  0  0  0
 10 11  1  0  0  0  0
 10 26  1  0  0  0  0
 11 12  1  0  0  0  0
 11 35  1  0  0  0  0
 12 13  2  0  0  0  0
 12 14  1  0  0  0  0
 14 15  1  0  0  0  0
 14 25  1  0  0  0  0
 14 36  1  1  0  0  0
 15 16  1  0  0  0  0
 15 37  1  0  0  0  0
 15 38  1  0  0  0  0
 16 17  1  0  0  0  0
 16 39  1  0  0  0  0
 16 40  1  0  0  0  0
 17 18  1  0  0  0  0
 17 41  1  0  0  0  0
 18 19  1  0  0  0  0
 18 25  2  0  0  0  0
 19 20  2  0  0  0  0
 19 42  1  0  0  0  0
 20 21  1  0  0  0  0
 20 22  1  0  0  0  0
 22 23  1  0  0  0  0
 22 24  2  0  0  0  0
 24 25  1  0  0  0  0
 24 43  1  0  0  0  0
 26 27  1  0  0  0  0
 27 44  1  0  0  0  0
M  END
$$$$
