
 OpenBabel07202414123D

 72 76  0  0  1  0  0  0  0  0999 V2000
    2.6982    0.7420   -0.9672 C   0  0  0  0  0  0  0  0  0  0  0  0
    3.8154    1.0596    0.0546 C   0  0  0  0  0  0  0  0  0  0  0  0
    4.9645    1.7609   -0.7124 C   0  0  0  0  0  0  0  0  0  0  0  0
    3.2186    2.1374    0.9930 C   0  0  0  0  0  0  0  0  0  0  0  0
    4.3210   -0.2062    0.7564 N   0  0  0  0  0  0  0  0  0  0  0  0
    4.9547   -1.2432   -0.0814 C   0  0  0  0  0  0  0  0  0  0  0  0
    4.1177   -2.4693   -0.3983 C   0  0  0  0  0  0  0  0  0  0  0  0
    2.7419   -2.5562   -0.1501 C   0  0  0  0  0  0  0  0  0  0  0  0
    2.0282   -3.7161   -0.4642 C   0  0  0  0  0  0  0  0  0  0  0  0
    2.6804   -4.8108   -1.0252 C   0  0  0  0  0  0  0  0  0  0  0  0
    4.0439   -4.7389   -1.2940 C   0  0  0  0  0  0  0  0  0  0  0  0
    4.7543   -3.5750   -0.9920 C   0  0  0  0  0  0  0  0  0  0  0  0
    4.3232   -0.3529    2.1583 C   0  0  0  0  0  0  0  0  0  0  0  0
    3.8534    0.4994    2.9219 O   0  0  0  0  0  0  0  0  0  0  0  0
    4.9338   -1.6181    2.8370 C   0  0  0  0  0  0  0  0  0  0  0  0
    6.3667   -1.4489    3.1697 N   0  0  0  0  0  0  0  0  0  0  0  0
    6.6339   -0.2904    4.0366 C   0  0  0  0  0  0  0  0  0  0  0  0
    8.1221   -0.0263    3.9888 C   0  0  0  0  0  0  0  0  0  0  0  0
    8.6077    1.2804    3.8580 C   0  0  0  0  0  0  0  0  0  0  0  0
    9.9601    1.4978    3.6042 C   0  0  0  0  0  0  0  0  0  0  0  0
   10.8294    0.4130    3.5069 C   0  0  0  0  0  0  0  0  0  0  0  0
   12.4750    0.6831    3.0830 Cl  0  0  0  0  0  0  0  0  0  0  0  0
   10.3716   -0.8897    3.7130 C   0  0  0  0  0  0  0  0  0  0  0  0
    9.0111   -1.1206    3.9609 C   0  0  0  0  0  0  0  0  0  0  0  0
    8.4652   -2.5391    4.1259 C   0  0  1  0  0  0  0  0  0  0  0  0
    8.8160   -3.1970    5.4848 C   0  0  0  0  0  0  0  0  0  0  0  0
    8.8666   -4.4206    5.5820 O   0  0  0  0  0  0  0  0  0  0  0  0
    8.9940   -2.3170    6.5390 N   0  0  0  0  0  0  0  0  0  0  0  0
    9.4636   -2.5835    7.8581 C   0  0  0  0  0  0  0  0  0  0  0  0
    9.8691   -3.8498    8.2929 C   0  0  0  0  0  0  0  0  0  0  0  0
   10.4138   -4.1116    9.4994 N   0  0  0  0  0  0  0  0  0  0  0  0
   10.5195   -3.0764   10.3578 C   0  0  0  0  0  0  0  0  0  0  0  0
   10.0737   -1.7818   10.0915 C   0  0  0  0  0  0  0  0  0  0  0  0
   10.1187   -0.7821   11.0824 C   0  0  0  0  0  0  0  0  0  0  0  0
    9.6541    0.5036   10.8188 C   0  0  0  0  0  0  0  0  0  0  0  0
    9.1883    0.8147    9.5512 C   0  0  0  0  0  0  0  0  0  0  0  0
    9.1483   -0.1692    8.5568 C   0  0  0  0  0  0  0  0  0  0  0  0
    9.5567   -1.5098    8.8002 C   0  0  0  0  0  0  0  0  0  0  0  0
    6.9294   -2.6422    3.8561 C   0  0  0  0  0  0  0  0  0  0  0  0
    2.4101    1.6438   -1.5240 H   0  0  0  0  0  0  0  0  0  0  0  0
    1.7944    0.3786   -0.4668 H   0  0  0  0  0  0  0  0  0  0  0  0
    3.0060   -0.0008   -1.7082 H   0  0  0  0  0  0  0  0  0  0  0  0
    4.6239    2.7092   -1.1486 H   0  0  0  0  0  0  0  0  0  0  0  0
    5.3377    1.1644   -1.5502 H   0  0  0  0  0  0  0  0  0  0  0  0
    5.8080    1.9796   -0.0503 H   0  0  0  0  0  0  0  0  0  0  0  0
    2.8275    2.9901    0.4240 H   0  0  0  0  0  0  0  0  0  0  0  0
    3.9759    2.5407    1.6747 H   0  0  0  0  0  0  0  0  0  0  0  0
    2.3776    1.7454    1.5754 H   0  0  0  0  0  0  0  0  0  0  0  0
    5.8701   -1.5710    0.4234 H   0  0  0  0  0  0  0  0  0  0  0  0
    5.2780   -0.8117   -1.0317 H   0  0  0  0  0  0  0  0  0  0  0  0
    2.2023   -1.7258    0.2952 H   0  0  0  0  0  0  0  0  0  0  0  0
    0.9604   -3.7644   -0.2651 H   0  0  0  0  0  0  0  0  0  0  0  0
    2.1259   -5.7176   -1.2521 H   0  0  0  0  0  0  0  0  0  0  0  0
    4.5549   -5.5902   -1.7378 H   0  0  0  0  0  0  0  0  0  0  0  0
    5.8188   -3.5391   -1.2181 H   0  0  0  0  0  0  0  0  0  0  0  0
    4.7940   -2.4953    2.2030 H   0  0  0  0  0  0  0  0  0  0  0  0
    4.3486   -1.8064    3.7466 H   0  0  0  0  0  0  0  0  0  0  0  0
    6.3131   -0.4598    5.0741 H   0  0  0  0  0  0  0  0  0  0  0  0
    6.1302    0.6124    3.6807 H   0  0  0  0  0  0  0  0  0  0  0  0
    7.9248    2.1275    3.8839 H   0  0  0  0  0  0  0  0  0  0  0  0
   10.3189    2.5102    3.4397 H   0  0  0  0  0  0  0  0  0  0  0  0
   11.0651   -1.7237    3.6303 H   0  0  0  0  0  0  0  0  0  0  0  0
    8.9707   -3.1432    3.3587 H   0  0  0  0  0  0  0  0  0  0  0  0
    8.8516   -1.3406    6.3261 H   0  0  0  0  0  0  0  0  0  0  0  0
    9.7744   -4.7323    7.6651 H   0  0  0  0  0  0  0  0  0  0  0  0
   10.9942   -3.3214   11.3065 H   0  0  0  0  0  0  0  0  0  0  0  0
   10.4898   -1.0087   12.0802 H   0  0  0  0  0  0  0  0  0  0  0  0
    9.6533    1.2579   11.6019 H   0  0  0  0  0  0  0  0  0  0  0  0
    8.8394    1.8207    9.3298 H   0  0  0  0  0  0  0  0  0  0  0  0
    8.7671    0.1401    7.5894 H   0  0  0  0  0  0  0  0  0  0  0  0
    6.3873   -2.8305    4.7939 H   0  0  0  0  0  0  0  0  0  0  0  0
    6.7619   -3.5279    3.2291 H   0  0  0  0  0  0  0  0  0  0  0  0
  1  2  1  0  0  0  0
  1 40  1  0  0  0  0
  1 41  1  0  0  0  0
  1 42  1  0  0  0  0
  2  3  1  0  0  0  0
  2  4  1  0  0  0  0
  2  5  1  0  0  0  0
  3 43  1  0  0  0  0
  3 44  1  0  0  0  0
  3 45  1  0  0  0  0
  4 46  1  0  0  0  0
  4 47  1  0  0  0  0
  4 48  1  0  0  0  0
  5  6  1  0  0  0  0
  5 13  1  0  0  0  0
  6  7  1  0  0  0  0
  6 49  1  0  0  0  0
  6 50  1  0  0  0  0
  7  8  1  0  0  0  0
  7 12  2  0  0  0  0
  8  9  2  0  0  0  0
  8 51  1  0  0  0  0
  9 10  1  0  0  0  0
  9 52  1  0  0  0  0
 10 11  2  0  0  0  0
 10 53  1  0  0  0  0
 11 12  1  0  0  0  0
 11 54  1  0  0  0  0
 12 55  1  0  0  0  0
 13 14  2  0  0  0  0
 13 15  1  0  0  0  0
 15 16  1  0  0  0  0
 15 56  1  0  0  0  0
 15 57  1  0  0  0  0
 16 17  1  0  0  0  0
 16 39  1  0  0  0  0
 17 18  1  0  0  0  0
 17 58  1  0  0  0  0
 17 59  1  0  0  0  0
 18 19  1  0  0  0  0
 18 24  2  0  0  0  0
 19 20  2  0  0  0  0
 19 60  1  0  0  0  0
 20 21  1  0  0  0  0
 20 61  1  0  0  0  0
 21 22  1  0  0  0  0
 21 23  2  0  0  0  0
 23 24  1  0  0  0  0
 23 62  1  0  0  0  0
 24 25  1  0  0  0  0
 25 26  1  0  0  0  0
 25 39  1  0  0  0  0
 25 63  1  6  0  0  0
 26 27  2  0  0  0  0
 26 28  1  0  0  0  0
 28 29  1  0  0  0  0
 28 64  1  0  0  0  0
 29 30  1  0  0  0  0
 29 38  2  0  0  0  0
 30 31  2  0  0  0  0
 30 65  1  0  0  0  0
 31 32  1  0  0  0  0
 32 33  2  0  0  0  0
 32 66  1  0  0  0  0
 33 34  1  0  0  0  0
 33 38  1  0  0  0  0
 34 35  2  0  0  0  0
 34 67  1  0  0  0  0
 35 36  1  0  0  0  0
 35 68  1  0  0  0  0
 36 37  2  0  0  0  0
 36 69  1  0  0  0  0
 37 38  1  0  0  0  0
 37 70  1  0  0  0  0
 39 71  1  0  0  0  0
 39 72  1  0  0  0  0
M  END
$$$$
