
 OpenBabel07202414163D

 53 56  0  0  1  0  0  0  0  0999 V2000
   -1.9407   -2.7904    0.4211 C   0  0  0  0  0  0  0  0  0  0  0  0
   -1.1852   -1.8477    1.3359 C   0  0  0  0  0  0  0  0  0  0  0  0
   -1.8512   -1.1232    2.3785 C   0  0  0  0  0  0  0  0  0  0  0  0
   -1.0872   -0.1810    3.1055 C   0  0  0  0  0  0  0  0  0  0  0  0
    0.2256    0.1296    2.7748 C   0  0  0  0  0  0  0  0  0  0  0  0
    0.8417   -0.5440    1.7306 C   0  0  0  0  0  0  0  0  0  0  0  0
    0.2017   -1.5993    1.0705 C   0  0  0  0  0  0  0  0  0  0  0  0
    0.9867   -2.3603    0.0266 C   0  0  0  0  0  0  0  0  0  0  0  0
    0.4440   -2.5647   -1.0570 O   0  0  0  0  0  0  0  0  0  0  0  0
    2.3144   -2.8212    0.2779 N   0  0  0  0  0  0  0  0  0  0  0  0
    3.0492   -3.3479   -0.8747 C   0  0  0  0  0  0  0  0  0  0  0  0
    4.1700   -4.3254   -0.5087 C   0  0  0  0  0  0  0  0  0  0  0  0
    5.1180   -3.8143    0.5927 C   0  0  0  0  0  0  0  0  0  0  0  0
    4.2288   -3.4291    1.7866 C   0  0  0  0  0  0  0  0  0  0  0  0
    3.1301   -2.4352    1.4290 C   0  0  0  0  0  0  0  0  0  0  0  0
    6.0913   -2.6849    0.1369 C   0  0  3  0  0  0  0  0  0  0  0  0
    7.0868   -3.1344   -0.9444 C   0  0  0  0  0  0  0  0  0  0  0  0
    8.3446   -3.4764   -0.1717 C   0  0  0  0  0  0  0  0  0  0  0  0
    8.4122   -2.4227    0.8388 N   0  0  0  0  0  0  0  0  0  0  0  0
    7.0245   -2.2016    1.2681 C   0  0  0  0  0  0  0  0  0  0  0  0
   -3.2835   -1.2780    2.7728 C   0  0  0  0  0  0  0  0  0  0  0  0
   -4.0649   -0.1880    3.1803 C   0  0  0  0  0  0  0  0  0  0  0  0
   -5.3680   -0.3917    3.6366 C   0  0  0  0  0  0  0  0  0  0  0  0
   -5.8891   -1.6764    3.6400 C   0  0  0  0  0  0  0  0  0  0  0  0
   -5.0680   -2.7030    3.2071 C   0  0  0  0  0  0  0  0  0  0  0  0
   -3.7858   -2.5347    2.8082 N   0  0  0  0  0  0  0  0  0  0  0  0
   -2.9351   -3.0693    0.7676 H   0  0  0  0  0  0  0  0  0  0  0  0
   -1.3974   -3.7324    0.2948 H   0  0  0  0  0  0  0  0  0  0  0  0
   -2.0843   -2.3116   -0.5540 H   0  0  0  0  0  0  0  0  0  0  0  0
   -1.5266    0.3511    3.9495 H   0  0  0  0  0  0  0  0  0  0  0  0
    0.7632    0.8937    3.3273 H   0  0  0  0  0  0  0  0  0  0  0  0
    1.8381   -0.2300    1.4451 H   0  0  0  0  0  0  0  0  0  0  0  0
    3.4550   -2.4882   -1.4191 H   0  0  0  0  0  0  0  0  0  0  0  0
    2.3568   -3.8594   -1.5532 H   0  0  0  0  0  0  0  0  0  0  0  0
    4.7189   -4.6047   -1.4132 H   0  0  0  0  0  0  0  0  0  0  0  0
    3.7068   -5.2529   -0.1451 H   0  0  0  0  0  0  0  0  0  0  0  0
    5.7406   -4.6621    0.9113 H   0  0  0  0  0  0  0  0  0  0  0  0
    4.8162   -3.0235    2.6160 H   0  0  0  0  0  0  0  0  0  0  0  0
    3.7565   -4.3412    2.1728 H   0  0  0  0  0  0  0  0  0  0  0  0
    3.5860   -1.4669    1.1871 H   0  0  0  0  0  0  0  0  0  0  0  0
    2.5002   -2.3157    2.3130 H   0  0  0  0  0  0  0  0  0  0  0  0
    5.5131   -1.8394   -0.2532 H   0  0  0  0  0  0  0  0  0  0  0  0
    7.2929   -2.2934   -1.6202 H   0  0  0  0  0  0  0  0  0  0  0  0
    6.7520   -3.9724   -1.5583 H   0  0  0  0  0  0  0  0  0  0  0  0
    9.2360   -3.4820   -0.8061 H   0  0  0  0  0  0  0  0  0  0  0  0
    8.2616   -4.4575    0.3100 H   0  0  0  0  0  0  0  0  0  0  0  0
    8.7616   -1.5705    0.3998 H   0  0  0  0  0  0  0  0  0  0  0  0
    6.8659   -1.1377    1.4761 H   0  0  0  0  0  0  0  0  0  0  0  0
    6.8733   -2.7451    2.2044 H   0  0  0  0  0  0  0  0  0  0  0  0
   -3.6705    0.8236    3.1622 H   0  0  0  0  0  0  0  0  0  0  0  0
   -5.9666    0.4459    3.9843 H   0  0  0  0  0  0  0  0  0  0  0  0
   -6.9007   -1.8732    3.9719 H   0  0  0  0  0  0  0  0  0  0  0  0
   -5.4314   -3.7259    3.1693 H   0  0  0  0  0  0  0  0  0  0  0  0
  1  2  1  0  0  0  0
  1 27  1  0  0  0  0
  1 28  1  0  0  0  0
  1 29  1  0  0  0  0
  2  3  1  0  0  0  0
  2  7  2  0  0  0  0
  3  4  2  0  0  0  0
  3 21  1  0  0  0  0
  4  5  1  0  0  0  0
  4 30  1  0  0  0  0
  5  6  2  0  0  0  0
  5 31  1  0  0  0  0
  6  7  1  0  0  0  0
  6 32  1  0  0  0  0
  7  8  1  0  0  0  0
  8  9  2  0  0  0  0
  8 10  1  0  0  0  0
 10 11  1  0  0  0  0
 10 15  1  0  0  0  0
 11 12  1  0  0  0  0
 11 33  1  0  0  0  0
 11 34  1  0  0  0  0
 12 13  1  0  0  0  0
 12 35  1  0  0  0  0
 12 36  1  0  0  0  0
 13 14  1  0  0  0  0
 13 16  1  0  0  0  0
 13 37  1  0  0  0  0
 14 15  1  0  0  0  0
 14 38  1  0  0  0  0
 14 39  1  0  0  0  0
 15 40  1  0  0  0  0
 15 41  1  0  0  0  0
 16 17  1  0  0  0  0
 16 20  1  0  0  0  0
 16 42  1  0  0  0  0
 17 18  1  0  0  0  0
 17 43  1  0  0  0  0
 17 44  1  0  0  0  0
 18 19  1  0  0  0  0
 18 45  1  0  0  0  0
 18 46  1  0  0  0  0
 19 20  1  0  0  0  0
 19 47  1  0  0  0  0
 20 48  1  0  0  0  0
 20 49  1  0  0  0  0
 21 22  1  0  0  0  0
 21 26  2  0  0  0  0
 22 23  2  0  0  0  0
 22 50  1  0  0  0  0
 23 24  1  0  0  0  0
 23 51  1  0  0  0  0
 24 25  2  0  0  0  0
 24 52  1  0  0  0  0
 25 26  1  0  0  0  0
 25 53  1  0  0  0  0
M  END
$$$$
