
 OpenBabel07202414173D

 50 54  0  0  1  0  0  0  0  0999 V2000
    1.0205   -0.0110   -0.0588 Cl  0  0  0  0  0  0  0  0  0  0  0  0
    2.7351   -0.0812    0.0541 C   0  0  0  0  0  0  0  0  0  0  0  0
    3.4855    1.0858   -0.0839 C   0  0  0  0  0  0  0  0  0  0  0  0
    4.8766    1.0369    0.0293 C   0  0  0  0  0  0  0  0  0  0  0  0
    5.5158   -0.1835    0.2757 C   0  0  0  0  0  0  0  0  0  0  0  0
    4.7591   -1.3683    0.3998 C   0  0  0  0  0  0  0  0  0  0  0  0
    3.3618   -1.3053    0.2917 C   0  0  0  0  0  0  0  0  0  0  0  0
    5.4475   -2.6961    0.6589 C   0  0  3  0  0  0  0  0  0  0  0  0
    5.3828   -3.1660    2.1169 C   0  0  0  0  0  0  0  0  0  0  0  0
    4.9950   -4.3046    2.3674 O   0  0  0  0  0  0  0  0  0  0  0  0
    5.7988   -2.2412    3.0571 N   0  0  0  0  0  0  0  0  0  0  0  0
    5.6789   -2.3370    4.4672 C   0  0  0  0  0  0  0  0  0  0  0  0
    5.3375   -3.5234    5.1170 C   0  0  0  0  0  0  0  0  0  0  0  0
    5.0503   -3.6210    6.4350 N   0  0  0  0  0  0  0  0  0  0  0  0
    5.1327   -2.4841    7.1544 C   0  0  0  0  0  0  0  0  0  0  0  0
    5.5699   -1.2614    6.6511 C   0  0  0  0  0  0  0  0  0  0  0  0
    5.7159   -0.1464    7.4980 C   0  0  0  0  0  0  0  0  0  0  0  0
    6.1728    1.0699    7.0017 C   0  0  0  0  0  0  0  0  0  0  0  0
    6.4687    1.1904    5.6515 C   0  0  0  0  0  0  0  0  0  0  0  0
    6.3114    0.0934    4.7964 C   0  0  0  0  0  0  0  0  0  0  0  0
    5.8639   -1.1700    5.2693 C   0  0  0  0  0  0  0  0  0  0  0  0
    6.8911   -2.6112    0.1668 C   0  0  0  0  0  0  0  0  0  0  0  0
    7.5673   -1.4446    0.7428 N   0  0  0  0  0  0  0  0  0  0  0  0
    8.7975   -1.5478    1.5660 C   0  0  3  0  0  0  0  0  0  0  0  0
    9.2241   -2.9559    1.9970 C   0  0  0  0  0  0  0  0  0  0  0  0
   10.0490   -3.3878    0.9099 N   0  0  0  0  0  0  0  0  0  0  0  0
   10.6153   -2.3124    0.2582 C   0  0  0  0  0  0  0  0  0  0  0  0
   11.4799   -2.3979   -0.5985 O   0  0  0  0  0  0  0  0  0  0  0  0
   10.0467   -1.0427    0.8334 C   0  0  0  0  0  0  0  0  0  0  0  0
    6.9816   -0.1888    0.5760 C   0  0  0  0  0  0  0  0  0  0  0  0
    7.5603    0.8619    0.8229 O   0  0  0  0  0  0  0  0  0  0  0  0
    2.9932    2.0393   -0.2602 H   0  0  0  0  0  0  0  0  0  0  0  0
    5.4556    1.9556   -0.0496 H   0  0  0  0  0  0  0  0  0  0  0  0
    2.7600   -2.2065    0.3998 H   0  0  0  0  0  0  0  0  0  0  0  0
    4.9392   -3.4618    0.0553 H   0  0  0  0  0  0  0  0  0  0  0  0
    6.0529   -1.3337    2.6984 H   0  0  0  0  0  0  0  0  0  0  0  0
    5.2866   -4.4762    4.6006 H   0  0  0  0  0  0  0  0  0  0  0  0
    4.8287   -2.5926    8.1933 H   0  0  0  0  0  0  0  0  0  0  0  0
    5.4872   -0.2264    8.5590 H   0  0  0  0  0  0  0  0  0  0  0  0
    6.3009    1.9187    7.6693 H   0  0  0  0  0  0  0  0  0  0  0  0
    6.8252    2.1390    5.2570 H   0  0  0  0  0  0  0  0  0  0  0  0
    6.5694    0.2573    3.7539 H   0  0  0  0  0  0  0  0  0  0  0  0
    6.8922   -2.4606   -0.9225 H   0  0  0  0  0  0  0  0  0  0  0  0
    7.4291   -3.5426    0.3447 H   0  0  0  0  0  0  0  0  0  0  0  0
    8.6081   -0.9302    2.4519 H   0  0  0  0  0  0  0  0  0  0  0  0
    8.4114   -3.6632    2.1716 H   0  0  0  0  0  0  0  0  0  0  0  0
    9.8513   -2.9183    2.8939 H   0  0  0  0  0  0  0  0  0  0  0  0
   10.4078   -4.3232    0.7566 H   0  0  0  0  0  0  0  0  0  0  0  0
    9.8452   -0.3075    0.0521 H   0  0  0  0  0  0  0  0  0  0  0  0
   10.7743   -0.6415    1.5492 H   0  0  0  0  0  0  0  0  0  0  0  0
  1  2  1  0  0  0  0
  2  3  1  0  0  0  0
  2  7  2  0  0  0  0
  3  4  2  0  0  0  0
  3 32  1  0  0  0  0
  4  5  1  0  0  0  0
  4 33  1  0  0  0  0
  5  6  2  0  0  0  0
  5 30  1  0  0  0  0
  6  7  1  0  0  0  0
  6  8  1  0  0  0  0
  7 34  1  0  0  0  0
  8  9  1  0  0  0  0
  8 22  1  0  0  0  0
  8 35  1  0  0  0  0
  9 10  2  0  0  0  0
  9 11  1  0  0  0  0
 11 12  1  0  0  0  0
 11 36  1  0  0  0  0
 12 13  1  0  0  0  0
 12 21  2  0  0  0  0
 13 14  2  0  0  0  0
 13 37  1  0  0  0  0
 14 15  1  0  0  0  0
 15 16  2  0  0  0  0
 15 38  1  0  0  0  0
 16 17  1  0  0  0  0
 16 21  1  0  0  0  0
 17 18  2  0  0  0  0
 17 39  1  0  0  0  0
 18 19  1  0  0  0  0
 18 40  1  0  0  0  0
 19 20  2  0  0  0  0
 19 41  1  0  0  0  0
 20 21  1  0  0  0  0
 20 42  1  0  0  0  0
 22 23  1  0  0  0  0
 22 43  1  0  0  0  0
 22 44  1  0  0  0  0
 23 24  1  0  0  0  0
 23 30  1  0  0  0  0
 24 25  1  0  0  0  0
 24 29  1  0  0  0  0
 24 45  1  0  0  0  0
 25 26  1  0  0  0  0
 25 46  1  0  0  0  0
 25 47  1  0  0  0  0
 26 27  1  0  0  0  0
 26 48  1  0  0  0  0
 27 28  2  0  0  0  0
 27 29  1  0  0  0  0
 29 49  1  0  0  0  0
 29 50  1  0  0  0  0
 30 31  2  0  0  0  0
M  END
$$$$
