
 OpenBabel07202414203D

 37 39  0  0  1  0  0  0  0  0999 V2000
   -0.4138    2.9274    1.5341 O   0  0  0  0  0  0  0  0  0  0  0  0
    0.6003    2.8970    2.5316 C   0  0  0  0  0  0  0  0  0  0  0  0
    1.6334    1.8445    2.2258 C   0  0  0  0  0  0  0  0  0  0  0  0
    2.2249    1.1943    3.3274 C   0  0  0  0  0  0  0  0  0  0  0  0
    3.2150    0.2523    3.1161 C   0  0  0  0  0  0  0  0  0  0  0  0
    3.6675   -0.0791    1.8980 N   0  0  0  0  0  0  0  0  0  0  0  0
    3.1003    0.5627    0.8410 C   0  0  0  0  0  0  0  0  0  0  0  0
    2.0906    1.5245    0.9309 C   0  0  0  0  0  0  0  0  0  0  0  0
    1.5036    2.1493   -0.2075 N   0  0  0  0  0  0  0  0  0  0  0  0
    1.8553    1.9349   -1.5273 C   0  0  0  0  0  0  0  0  0  0  0  0
    2.8401    1.2848   -1.8908 O   0  0  0  0  0  0  0  0  0  0  0  0
    1.0093    2.6088   -2.6093 C   0  0  3  0  0  0  0  0  0  0  0  0
    1.5807    3.9708   -2.9931 C   0  0  0  0  0  0  0  0  0  0  0  0
    0.9852    5.0678   -2.1309 C   0  0  0  0  0  0  0  0  0  0  0  0
   -0.4411    5.1253   -2.2086 O   0  0  0  0  0  0  0  0  0  0  0  0
   -1.0893    3.9251   -2.1308 C   0  0  0  0  0  0  0  0  0  0  0  0
   -2.4645    3.9880   -1.9046 C   0  0  0  0  0  0  0  0  0  0  0  0
   -3.2245    2.8176   -1.8495 C   0  0  0  0  0  0  0  0  0  0  0  0
   -2.6058    1.5851   -2.0321 C   0  0  0  0  0  0  0  0  0  0  0  0
   -3.5374    0.1412   -1.9824 Cl  0  0  0  0  0  0  0  0  0  0  0  0
   -1.2329    1.5147   -2.2650 C   0  0  0  0  0  0  0  0  0  0  0  0
   -0.4641    2.6899   -2.3142 C   0  0  0  0  0  0  0  0  0  0  0  0
   -1.2501    2.7097    1.9846 H   0  0  0  0  0  0  0  0  0  0  0  0
    0.1233    2.7080    3.5032 H   0  0  0  0  0  0  0  0  0  0  0  0
    1.0785    3.8811    2.5774 H   0  0  0  0  0  0  0  0  0  0  0  0
    1.9200    1.4159    4.3459 H   0  0  0  0  0  0  0  0  0  0  0  0
    3.6837   -0.2713    3.9433 H   0  0  0  0  0  0  0  0  0  0  0  0
    3.5136    0.2320   -0.1046 H   0  0  0  0  0  0  0  0  0  0  0  0
    0.6836    2.7213    0.0004 H   0  0  0  0  0  0  0  0  0  0  0  0
    1.1121    1.9638   -3.4952 H   0  0  0  0  0  0  0  0  0  0  0  0
    1.3217    4.1725   -4.0416 H   0  0  0  0  0  0  0  0  0  0  0  0
    2.6745    3.9825   -2.9231 H   0  0  0  0  0  0  0  0  0  0  0  0
    1.3583    6.0359   -2.4850 H   0  0  0  0  0  0  0  0  0  0  0  0
    1.2837    4.9720   -1.0830 H   0  0  0  0  0  0  0  0  0  0  0  0
   -2.9472    4.9532   -1.7750 H   0  0  0  0  0  0  0  0  0  0  0  0
   -4.2952    2.8774   -1.6744 H   0  0  0  0  0  0  0  0  0  0  0  0
   -0.7627    0.5465   -2.4244 H   0  0  0  0  0  0  0  0  0  0  0  0
  1  2  1  0  0  0  0
  1 23  1  0  0  0  0
  2  3  1  0  0  0  0
  2 24  1  0  0  0  0
  2 25  1  0  0  0  0
  3  4  1  0  0  0  0
  3  8  2  0  0  0  0
  4  5  2  0  0  0  0
  4 26  1  0  0  0  0
  5  6  1  0  0  0  0
  5 27  1  0  0  0  0
  6  7  2  0  0  0  0
  7  8  1  0  0  0  0
  7 28  1  0  0  0  0
  8  9  1  0  0  0  0
  9 10  1  0  0  0  0
  9 29  1  0  0  0  0
 10 11  2  0  0  0  0
 10 12  1  0  0  0  0
 12 13  1  0  0  0  0
 12 22  1  0  0  0  0
 12 30  1  0  0  0  0
 13 14  1  0  0  0  0
 13 31  1  0  0  0  0
 13 32  1  0  0  0  0
 14 15  1  0  0  0  0
 14 33  1  0  0  0  0
 14 34  1  0  0  0  0
 15 16  1  0  0  0  0
 16 17  1  0  0  0  0
 16 22  2  0  0  0  0
 17 18  2  0  0  0  0
 17 35  1  0  0  0  0
 18 19  1  0  0  0  0
 18 36  1  0  0  0  0
 19 20  1  0  0  0  0
 19 21  2  0  0  0  0
 21 22  1  0  0  0  0
 21 37  1  0  0  0  0
M  END
$$$$
