
 OpenBabel07202414163D

 50 53  0  0  1  0  0  0  0  0999 V2000
    1.5840    0.8654   -0.5880 C   0  0  0  0  0  0  0  0  0  0  0  0
    0.4657    0.3932    0.2937 C   0  0  0  0  0  0  0  0  0  0  0  0
   -0.4056    1.4202    0.7226 C   0  0  0  0  0  0  0  0  0  0  0  0
   -1.5152    1.1626    1.5166 C   0  0  0  0  0  0  0  0  0  0  0  0
   -1.7887   -0.1372    1.8991 C   0  0  0  0  0  0  0  0  0  0  0  0
   -0.9463   -1.1663    1.4847 C   0  0  0  0  0  0  0  0  0  0  0  0
    0.2043   -0.9400    0.6860 C   0  0  0  0  0  0  0  0  0  0  0  0
    0.9287   -2.2291    0.3093 C   0  0  0  0  0  0  0  0  0  0  0  0
    2.4315   -2.3579    0.0185 C   0  0  2  0  0  0  0  0  0  0  0  0
    3.2503   -1.9506    1.2505 C   0  0  0  0  0  0  0  0  0  0  0  0
    4.5939   -1.4767    0.7253 C   0  0  0  0  0  0  0  0  0  0  0  0
    4.4114   -1.2669   -0.7684 C   0  0  0  0  0  0  0  0  0  0  0  0
    3.0475   -1.6570   -1.1021 N   0  0  0  0  0  0  0  0  0  0  0  0
    2.6693   -1.5839   -2.4297 C   0  0  0  0  0  0  0  0  0  0  0  0
    3.4510   -1.1380   -3.2797 O   0  0  0  0  0  0  0  0  0  0  0  0
    1.2747   -2.0039   -2.8673 C   0  0  0  0  0  0  0  0  0  0  0  0
    1.0941   -3.4619   -3.2239 C   0  0  0  0  0  0  0  0  0  0  0  0
    2.2036   -4.2972   -3.3721 C   0  0  0  0  0  0  0  0  0  0  0  0
    2.1502   -5.5796   -3.7805 N   0  0  0  0  0  0  0  0  0  0  0  0
    0.9316   -6.0582   -4.1032 C   0  0  0  0  0  0  0  0  0  0  0  0
   -0.2549   -5.3362   -4.0065 C   0  0  0  0  0  0  0  0  0  0  0  0
   -1.4840   -5.9078   -4.3793 C   0  0  0  0  0  0  0  0  0  0  0  0
   -2.6673   -5.1847   -4.2626 C   0  0  0  0  0  0  0  0  0  0  0  0
   -2.6331   -3.8851   -3.7701 C   0  0  0  0  0  0  0  0  0  0  0  0
   -1.4111   -3.3019   -3.4148 C   0  0  0  0  0  0  0  0  0  0  0  0
   -0.1861   -4.0047   -3.5330 C   0  0  0  0  0  0  0  0  0  0  0  0
    1.6263    1.9604   -0.6451 H   0  0  0  0  0  0  0  0  0  0  0  0
    1.4343    0.5263   -1.6136 H   0  0  0  0  0  0  0  0  0  0  0  0
    2.5486    0.5744   -0.1803 H   0  0  0  0  0  0  0  0  0  0  0  0
   -0.2216    2.4517    0.4224 H   0  0  0  0  0  0  0  0  0  0  0  0
   -2.1651    1.9766    1.8229 H   0  0  0  0  0  0  0  0  0  0  0  0
   -2.6587   -0.3583    2.5100 H   0  0  0  0  0  0  0  0  0  0  0  0
   -1.2066   -2.1801    1.7900 H   0  0  0  0  0  0  0  0  0  0  0  0
    0.3503   -2.7152   -0.4813 H   0  0  0  0  0  0  0  0  0  0  0  0
    0.7878   -2.9091    1.1662 H   0  0  0  0  0  0  0  0  0  0  0  0
    2.6318   -3.4211   -0.1799 H   0  0  0  0  0  0  0  0  0  0  0  0
    3.3635   -2.7857    1.9512 H   0  0  0  0  0  0  0  0  0  0  0  0
    2.7725   -1.1367    1.8066 H   0  0  0  0  0  0  0  0  0  0  0  0
    5.3800   -2.2129    0.9243 H   0  0  0  0  0  0  0  0  0  0  0  0
    4.8948   -0.5463    1.2219 H   0  0  0  0  0  0  0  0  0  0  0  0
    5.1129   -1.8891   -1.3348 H   0  0  0  0  0  0  0  0  0  0  0  0
    4.5748   -0.2229   -1.0573 H   0  0  0  0  0  0  0  0  0  0  0  0
    1.0519   -1.4185   -3.7709 H   0  0  0  0  0  0  0  0  0  0  0  0
    0.5406   -1.6603   -2.1412 H   0  0  0  0  0  0  0  0  0  0  0  0
    3.2155   -3.9501   -3.1764 H   0  0  0  0  0  0  0  0  0  0  0  0
    0.9385   -7.0834   -4.4617 H   0  0  0  0  0  0  0  0  0  0  0  0
   -1.5238   -6.9235   -4.7707 H   0  0  0  0  0  0  0  0  0  0  0  0
   -3.6128   -5.6337   -4.5568 H   0  0  0  0  0  0  0  0  0  0  0  0
   -3.5572   -3.3208   -3.6651 H   0  0  0  0  0  0  0  0  0  0  0  0
   -1.4362   -2.2818   -3.0371 H   0  0  0  0  0  0  0  0  0  0  0  0
  1  2  1  0  0  0  0
  1 27  1  0  0  0  0
  1 28  1  0  0  0  0
  1 29  1  0  0  0  0
  2  3  1  0  0  0  0
  2  7  2  0  0  0  0
  3  4  2  0  0  0  0
  3 30  1  0  0  0  0
  4  5  1  0  0  0  0
  4 31  1  0  0  0  0
  5  6  2  0  0  0  0
  5 32  1  0  0  0  0
  6  7  1  0  0  0  0
  6 33  1  0  0  0  0
  7  8  1  0  0  0  0
  8  9  1  0  0  0  0
  8 34  1  0  0  0  0
  8 35  1  0  0  0  0
  9 10  1  0  0  0  0
  9 13  1  0  0  0  0
  9 36  1  6  0  0  0
 10 11  1  0  0  0  0
 10 37  1  0  0  0  0
 10 38  1  0  0  0  0
 11 12  1  0  0  0  0
 11 39  1  0  0  0  0
 11 40  1  0  0  0  0
 12 13  1  0  0  0  0
 12 41  1  0  0  0  0
 12 42  1  0  0  0  0
 13 14  1  0  0  0  0
 14 15  2  0  0  0  0
 14 16  1  0  0  0  0
 16 17  1  0  0  0  0
 16 43  1  0  0  0  0
 16 44  1  0  0  0  0
 17 18  1  0  0  0  0
 17 26  2  0  0  0  0
 18 19  2  0  0  0  0
 18 45  1  0  0  0  0
 19 20  1  0  0  0  0
 20 21  2  0  0  0  0
 20 46  1  0  0  0  0
 21 22  1  0  0  0  0
 21 26  1  0  0  0  0
 22 23  2  0  0  0  0
 22 47  1  0  0  0  0
 23 24  1  0  0  0  0
 23 48  1  0  0  0  0
 24 25  2  0  0  0  0
 24 49  1  0  0  0  0
 25 26  1  0  0  0  0
 25 50  1  0  0  0  0
M  END
$$$$
