
 OpenBabel07202414113D

 69 73  0  0  0  0  0  0  0  0999 V2000
    3.0535   -3.8832    1.9643 C   0  0  0  0  0  0  0  0  0  0  0  0
    3.4222   -3.2123    3.0637 C   0  0  0  0  0  0  0  0  0  0  0  0
    3.7058   -1.7522    2.9573 C   0  0  0  0  0  0  0  0  0  0  0  0
    2.8476   -1.0570    2.4179 O   0  0  0  0  0  0  0  0  0  0  0  0
    4.9606   -1.3166    3.4164 N   0  0  0  0  0  0  0  0  0  0  0  0
    5.9846   -2.2434    3.9120 C   0  0  0  0  0  0  0  0  0  0  0  0
    7.2539   -2.0885    3.1030 C   0  0  0  0  0  0  0  0  0  0  0  0
    7.8260   -0.6981    3.3409 C   0  0  0  0  0  0  0  0  0  0  0  0
    6.7831    0.3944    3.2415 C   0  0  0  0  0  0  0  0  0  0  0  0
    5.3949    0.0631    3.2793 C   0  0  0  0  0  0  0  0  0  0  0  0
    4.4645    1.1030    3.1696 C   0  0  0  0  0  0  0  0  0  0  0  0
    4.8695    2.4241    2.9735 C   0  0  0  0  0  0  0  0  0  0  0  0
    6.2226    2.7470    2.9225 C   0  0  0  0  0  0  0  0  0  0  0  0
    7.1884    1.7516    3.0839 C   0  0  0  0  0  0  0  0  0  0  0  0
    8.5636    2.1506    3.0886 N   0  0  0  0  0  0  0  0  0  0  0  0
    9.1955    2.3693    4.4019 C   0  0  0  0  0  0  0  0  0  0  0  0
    9.0862    3.7775    4.9746 C   0  0  0  0  0  0  0  0  0  0  0  0
    8.1055    4.0602    5.9407 C   0  0  0  0  0  0  0  0  0  0  0  0
    8.0241    5.3193    6.5424 C   0  0  0  0  0  0  0  0  0  0  0  0
    8.9197    6.3249    6.1878 C   0  0  0  0  0  0  0  0  0  0  0  0
    9.9169    6.0773    5.2359 C   0  0  0  0  0  0  0  0  0  0  0  0
   10.8642    7.1954    4.9386 C   0  0  0  0  0  0  0  0  0  0  0  0
   11.0186    8.1013    5.7566 O   0  0  0  0  0  0  0  0  0  0  0  0
   11.4990    7.1678    3.7165 N   0  0  0  0  0  0  0  0  0  0  0  0
   12.3808    8.2300    3.2783 C   0  0  0  0  0  0  0  0  0  0  0  0
    9.9997    4.7987    4.6383 C   0  0  0  0  0  0  0  0  0  0  0  0
    9.3486    2.2880    1.9339 C   0  0  0  0  0  0  0  0  0  0  0  0
   10.5268    2.6531    2.0092 O   0  0  0  0  0  0  0  0  0  0  0  0
    8.6968    2.0436    0.5718 C   0  0  0  0  0  0  0  0  0  0  0  0
    9.4945    1.3687   -0.5395 C   0  0  0  0  0  0  0  0  0  0  0  0
   10.7457    0.7882   -0.3433 C   0  0  0  0  0  0  0  0  0  0  0  0
   11.3967    0.0315   -1.2594 N   0  0  0  0  0  0  0  0  0  0  0  0
   10.8229   -0.0888   -2.4737 C   0  0  0  0  0  0  0  0  0  0  0  0
    9.6529    0.5596   -2.8493 C   0  0  0  0  0  0  0  0  0  0  0  0
    9.1923    0.5291   -4.1822 C   0  0  0  0  0  0  0  0  0  0  0  0
    8.0254    1.1970   -4.5415 C   0  0  0  0  0  0  0  0  0  0  0  0
    7.2732    1.8359   -3.5650 C   0  0  0  0  0  0  0  0  0  0  0  0
    7.7163    1.8563   -2.2392 C   0  0  0  0  0  0  0  0  0  0  0  0
    8.9429    1.2685   -1.8526 C   0  0  0  0  0  0  0  0  0  0  0  0
    2.8337   -4.9445    1.9973 H   0  0  0  0  0  0  0  0  0  0  0  0
    2.9606   -3.3806    1.0043 H   0  0  0  0  0  0  0  0  0  0  0  0
    3.5033   -3.6884    4.0319 H   0  0  0  0  0  0  0  0  0  0  0  0
    5.6653   -3.2861    3.8619 H   0  0  0  0  0  0  0  0  0  0  0  0
    6.1519   -2.0200    4.9739 H   0  0  0  0  0  0  0  0  0  0  0  0
    7.0287   -2.2309    2.0378 H   0  0  0  0  0  0  0  0  0  0  0  0
    7.9863   -2.8512    3.3876 H   0  0  0  0  0  0  0  0  0  0  0  0
    8.6204   -0.5331    2.6049 H   0  0  0  0  0  0  0  0  0  0  0  0
    8.2731   -0.6588    4.3411 H   0  0  0  0  0  0  0  0  0  0  0  0
    3.3950    0.9214    3.2567 H   0  0  0  0  0  0  0  0  0  0  0  0
    4.1133    3.1995    2.8671 H   0  0  0  0  0  0  0  0  0  0  0  0
    6.5122    3.7843    2.7712 H   0  0  0  0  0  0  0  0  0  0  0  0
   10.2598    2.1089    4.3369 H   0  0  0  0  0  0  0  0  0  0  0  0
    8.7723    1.6537    5.1183 H   0  0  0  0  0  0  0  0  0  0  0  0
    7.4129    3.2850    6.2639 H   0  0  0  0  0  0  0  0  0  0  0  0
    7.2707    5.5167    7.3013 H   0  0  0  0  0  0  0  0  0  0  0  0
    8.8463    7.3024    6.6632 H   0  0  0  0  0  0  0  0  0  0  0  0
   11.2570    6.4512    3.0502 H   0  0  0  0  0  0  0  0  0  0  0  0
   12.5257    8.9900    4.0478 H   0  0  0  0  0  0  0  0  0  0  0  0
   11.9375    8.6857    2.3898 H   0  0  0  0  0  0  0  0  0  0  0  0
   13.3387    7.7806    3.0126 H   0  0  0  0  0  0  0  0  0  0  0  0
   10.8114    4.5727    3.9497 H   0  0  0  0  0  0  0  0  0  0  0  0
    8.3949    3.0398    0.2261 H   0  0  0  0  0  0  0  0  0  0  0  0
    7.8013    1.4296    0.6922 H   0  0  0  0  0  0  0  0  0  0  0  0
   11.3057    0.9055    0.5802 H   0  0  0  0  0  0  0  0  0  0  0  0
   11.3570   -0.7383   -3.1633 H   0  0  0  0  0  0  0  0  0  0  0  0
    9.7650    0.0173   -4.9530 H   0  0  0  0  0  0  0  0  0  0  0  0
    7.7046    1.2201   -5.5794 H   0  0  0  0  0  0  0  0  0  0  0  0
    6.3456    2.3353   -3.8318 H   0  0  0  0  0  0  0  0  0  0  0  0
    7.0920    2.3705   -1.5131 H   0  0  0  0  0  0  0  0  0  0  0  0
  1  2  2  0  0  0  0
  1 40  1  0  0  0  0
  1 41  1  0  0  0  0
  2  3  1  0  0  0  0
  2 42  1  0  0  0  0
  3  4  2  0  0  0  0
  3  5  1  0  0  0  0
  5  6  1  0  0  0  0
  5 10  1  0  0  0  0
  6  7  1  0  0  0  0
  6 43  1  0  0  0  0
  6 44  1  0  0  0  0
  7  8  1  0  0  0  0
  7 45  1  0  0  0  0
  7 46  1  0  0  0  0
  8  9  1  0  0  0  0
  8 47  1  0  0  0  0
  8 48  1  0  0  0  0
  9 10  1  0  0  0  0
  9 14  2  0  0  0  0
 10 11  2  0  0  0  0
 11 12  1  0  0  0  0
 11 49  1  0  0  0  0
 12 13  2  0  0  0  0
 12 50  1  0  0  0  0
 13 14  1  0  0  0  0
 13 51  1  0  0  0  0
 14 15  1  0  0  0  0
 15 16  1  0  0  0  0
 15 27  1  0  0  0  0
 16 17  1  0  0  0  0
 16 52  1  0  0  0  0
 16 53  1  0  0  0  0
 17 18  1  0  0  0  0
 17 26  2  0  0  0  0
 18 19  2  0  0  0  0
 18 54  1  0  0  0  0
 19 20  1  0  0  0  0
 19 55  1  0  0  0  0
 20 21  2  0  0  0  0
 20 56  1  0  0  0  0
 21 22  1  0  0  0  0
 21 26  1  0  0  0  0
 22 23  2  0  0  0  0
 22 24  1  0  0  0  0
 24 25  1  0  0  0  0
 24 57  1  0  0  0  0
 25 58  1  0  0  0  0
 25 59  1  0  0  0  0
 25 60  1  0  0  0  0
 26 61  1  0  0  0  0
 27 28  2  0  0  0  0
 27 29  1  0  0  0  0
 29 30  1  0  0  0  0
 29 62  1  0  0  0  0
 29 63  1  0  0  0  0
 30 31  1  0  0  0  0
 30 39  2  0  0  0  0
 31 32  2  0  0  0  0
 31 64  1  0  0  0  0
 32 33  1  0  0  0  0
 33 34  2  0  0  0  0
 33 65  1  0  0  0  0
 34 35  1  0  0  0  0
 34 39  1  0  0  0  0
 35 36  2  0  0  0  0
 35 66  1  0  0  0  0
 36 37  1  0  0  0  0
 36 67  1  0  0  0  0
 37 38  2  0  0  0  0
 37 68  1  0  0  0  0
 38 39  1  0  0  0  0
 38 69  1  0  0  0  0
M  END
$$$$
