
 OpenBabel07202414153D

 46 49  0  0  1  0  0  0  0  0999 V2000
    4.6237    1.1661   -2.3477 C   0  0  0  0  0  0  0  0  0  0  0  0
    4.1951    0.5071   -1.1583 O   0  0  0  0  0  0  0  0  0  0  0  0
    4.4411    1.3123   -0.0074 C   0  0  0  0  0  0  0  0  0  0  0  0
    4.0207    0.6134    1.3166 C   0  0  1  0  0  0  0  0  0  0  0  0
    2.4648    0.4311    1.3647 C   0  0  0  0  0  0  0  0  0  0  0  0
    1.9469   -0.6818    1.4159 O   0  0  0  0  0  0  0  0  0  0  0  0
    1.7374    1.6093    1.3475 N   0  0  0  0  0  0  0  0  0  0  0  0
    0.3288    1.7689    1.2623 C   0  0  0  0  0  0  0  0  0  0  0  0
   -0.5691    0.7013    1.2067 C   0  0  0  0  0  0  0  0  0  0  0  0
   -1.8877    0.8215    0.9243 N   0  0  0  0  0  0  0  0  0  0  0  0
   -2.3561    2.0725    0.7378 C   0  0  0  0  0  0  0  0  0  0  0  0
   -1.5950    3.2277    0.9088 C   0  0  0  0  0  0  0  0  0  0  0  0
   -2.1900    4.5026    0.8318 C   0  0  0  0  0  0  0  0  0  0  0  0
   -1.4300    5.6527    1.0282 C   0  0  0  0  0  0  0  0  0  0  0  0
   -0.0706    5.5455    1.2779 C   0  0  0  0  0  0  0  0  0  0  0  0
    0.5296    4.2824    1.3488 C   0  0  0  0  0  0  0  0  0  0  0  0
   -0.2158    3.0856    1.1732 C   0  0  0  0  0  0  0  0  0  0  0  0
    4.6857   -0.7835    1.3547 C   0  0  0  0  0  0  0  0  0  0  0  0
    4.5587   -1.3821    2.7464 C   0  0  0  0  0  0  0  0  0  0  0  0
    5.2540   -0.6083    3.7215 O   0  0  0  0  0  0  0  0  0  0  0  0
    5.1226    0.7477    3.6179 C   0  0  0  0  0  0  0  0  0  0  0  0
    5.6966    1.4610    4.6772 C   0  0  0  0  0  0  0  0  0  0  0  0
    5.7169    2.8543    4.6697 C   0  0  0  0  0  0  0  0  0  0  0  0
    6.4813    3.6645    5.9881 Cl  0  0  0  0  0  0  0  0  0  0  0  0
    5.1503    3.5387    3.5970 C   0  0  0  0  0  0  0  0  0  0  0  0
    5.1642    5.2629    3.4782 Cl  0  0  0  0  0  0  0  0  0  0  0  0
    4.5688    2.8238    2.5405 C   0  0  0  0  0  0  0  0  0  0  0  0
    4.5509    1.4122    2.5235 C   0  0  0  0  0  0  0  0  0  0  0  0
    4.5251    0.4730   -3.1862 H   0  0  0  0  0  0  0  0  0  0  0  0
    5.6731    1.4685   -2.2653 H   0  0  0  0  0  0  0  0  0  0  0  0
    3.9986    2.0443   -2.5395 H   0  0  0  0  0  0  0  0  0  0  0  0
    3.9224    2.2673   -0.1460 H   0  0  0  0  0  0  0  0  0  0  0  0
    5.5189    1.5251    0.0298 H   0  0  0  0  0  0  0  0  0  0  0  0
    2.2653    2.4577    1.2677 H   0  0  0  0  0  0  0  0  0  0  0  0
   -0.2681   -0.3265    1.3839 H   0  0  0  0  0  0  0  0  0  0  0  0
   -3.4013    2.1209    0.4478 H   0  0  0  0  0  0  0  0  0  0  0  0
   -3.2553    4.6036    0.6469 H   0  0  0  0  0  0  0  0  0  0  0  0
   -1.9028    6.6325    1.0001 H   0  0  0  0  0  0  0  0  0  0  0  0
    0.5265    6.4360    1.4377 H   0  0  0  0  0  0  0  0  0  0  0  0
    1.5867    4.2669    1.5860 H   0  0  0  0  0  0  0  0  0  0  0  0
    5.7539   -0.6882    1.1139 H   0  0  0  0  0  0  0  0  0  0  0  0
    4.2456   -1.4628    0.6153 H   0  0  0  0  0  0  0  0  0  0  0  0
    5.0096   -2.3803    2.7508 H   0  0  0  0  0  0  0  0  0  0  0  0
    3.5223   -1.5061    3.0756 H   0  0  0  0  0  0  0  0  0  0  0  0
    6.1521    0.9125    5.4991 H   0  0  0  0  0  0  0  0  0  0  0  0
    4.1703    3.4024    1.7118 H   0  0  0  0  0  0  0  0  0  0  0  0
  1  2  1  0  0  0  0
  1 29  1  0  0  0  0
  1 30  1  0  0  0  0
  1 31  1  0  0  0  0
  2  3  1  0  0  0  0
  3 32  1  0  0  0  0
  3 33  1  0  0  0  0
  4 18  1  0  0  0  0
  4 28  1  0  0  0  0
  4  5  1  1  0  0  0
  4  3  1  0  0  0  0
  5  6  2  0  0  0  0
  5  7  1  0  0  0  0
  7  8  1  0  0  0  0
  7 34  1  0  0  0  0
  8  9  1  0  0  0  0
  8 17  2  0  0  0  0
  9 10  2  0  0  0  0
  9 35  1  0  0  0  0
 10 11  1  0  0  0  0
 11 12  2  0  0  0  0
 11 36  1  0  0  0  0
 12 13  1  0  0  0  0
 12 17  1  0  0  0  0
 13 14  2  0  0  0  0
 13 37  1  0  0  0  0
 14 15  1  0  0  0  0
 14 38  1  0  0  0  0
 15 16  2  0  0  0  0
 15 39  1  0  0  0  0
 16 17  1  0  0  0  0
 16 40  1  0  0  0  0
 18 19  1  0  0  0  0
 18 41  1  0  0  0  0
 18 42  1  0  0  0  0
 19 20  1  0  0  0  0
 19 43  1  0  0  0  0
 19 44  1  0  0  0  0
 20 21  1  0  0  0  0
 21 22  1  0  0  0  0
 21 28  2  0  0  0  0
 22 23  2  0  0  0  0
 22 45  1  0  0  0  0
 23 24  1  0  0  0  0
 23 25  1  0  0  0  0
 25 26  1  0  0  0  0
 25 27  2  0  0  0  0
 27 28  1  0  0  0  0
 27 46  1  0  0  0  0
M  END
$$$$
