
 OpenBabel07202414123D

 53 57  0  0  1  0  0  0  0  0999 V2000
    1.0121    0.0883    0.0328 C   0  0  0  0  0  0  0  0  0  0  0  0
    2.5612    0.0455   -0.0428 C   0  0  3  0  0  0  0  0  0  0  0  0
    3.0617    1.2766   -0.7181 N   0  0  0  0  0  0  0  0  0  0  0  0
    2.7086    2.5370   -0.2512 C   0  0  0  0  0  0  0  0  0  0  0  0
    2.1498    2.6721    0.8311 O   0  0  0  0  0  0  0  0  0  0  0  0
    3.1301    3.7114   -1.0164 C   0  0  0  0  0  0  0  0  0  0  0  0
    2.9498    5.0566   -0.5271 C   0  0  0  0  0  0  0  0  0  0  0  0
    3.4608    5.8416   -1.5108 C   0  0  0  0  0  0  0  0  0  0  0  0
    3.9197    5.0013   -2.4567 N   0  0  0  0  0  0  0  0  0  0  0  0
    3.7429    3.6907   -2.2253 N   0  0  0  0  0  0  0  0  0  0  0  0
    4.4049    5.7136   -3.6117 C   0  0  0  0  0  0  0  0  0  0  0  0
    4.2029    7.1673   -3.1338 C   0  0  0  0  0  0  0  0  0  0  0  0
    3.6016    7.1247   -1.8066 O   0  0  0  0  0  0  0  0  0  0  0  0
    3.1012   -0.1108    1.4506 C   0  0  0  0  0  0  0  0  0  0  0  0
    2.6457   -0.9697    2.2079 O   0  0  0  0  0  0  0  0  0  0  0  0
    4.1611    0.7260    1.7875 N   0  0  0  0  0  0  0  0  0  0  0  0
    4.6624    0.8335    3.1097 C   0  0  0  0  0  0  0  0  0  0  0  0
    4.9611   -0.3079    3.8558 C   0  0  0  0  0  0  0  0  0  0  0  0
    5.4755   -0.2895    5.1061 N   0  0  0  0  0  0  0  0  0  0  0  0
    5.6674    0.9281    5.6566 C   0  0  0  0  0  0  0  0  0  0  0  0
    5.3896    2.1437    5.0242 C   0  0  0  0  0  0  0  0  0  0  0  0
    5.5752    3.3740    5.6844 C   0  0  0  0  0  0  0  0  0  0  0  0
    5.2508    4.5749    5.0616 C   0  0  0  0  0  0  0  0  0  0  0  0
    4.7442    4.5630    3.7690 C   0  0  0  0  0  0  0  0  0  0  0  0
    4.5732    3.3488    3.1013 C   0  0  0  0  0  0  0  0  0  0  0  0
    4.8852    2.1038    3.7052 C   0  0  0  0  0  0  0  0  0  0  0  0
    3.0413   -1.2185   -0.8128 C   0  0  0  0  0  0  0  0  0  0  0  0
    2.1553   -2.2387   -1.2182 C   0  0  0  0  0  0  0  0  0  0  0  0
    2.6132   -3.4150   -1.8214 C   0  0  0  0  0  0  0  0  0  0  0  0
    3.9751   -3.6085   -2.0342 C   0  0  0  0  0  0  0  0  0  0  0  0
    4.4691   -5.0901   -2.7721 Cl  0  0  0  0  0  0  0  0  0  0  0  0
    4.8780   -2.6173   -1.6422 C   0  0  0  0  0  0  0  0  0  0  0  0
    6.5835   -2.7917   -1.8607 Cl  0  0  0  0  0  0  0  0  0  0  0  0
    4.4149   -1.4351   -1.0386 C   0  0  0  0  0  0  0  0  0  0  0  0
    0.6296    0.9696    0.5539 H   0  0  0  0  0  0  0  0  0  0  0  0
    0.6060   -0.7669    0.5858 H   0  0  0  0  0  0  0  0  0  0  0  0
    0.5664    0.0977   -0.9693 H   0  0  0  0  0  0  0  0  0  0  0  0
    3.3907    1.2386   -1.6775 H   0  0  0  0  0  0  0  0  0  0  0  0
    2.4873    5.3610    0.3999 H   0  0  0  0  0  0  0  0  0  0  0  0
    3.7817    5.4698   -4.4747 H   0  0  0  0  0  0  0  0  0  0  0  0
    5.4551    5.4733   -3.7879 H   0  0  0  0  0  0  0  0  0  0  0  0
    3.5320    7.7234   -3.7977 H   0  0  0  0  0  0  0  0  0  0  0  0
    5.1518    7.7096   -3.0626 H   0  0  0  0  0  0  0  0  0  0  0  0
    4.2525    1.5443    1.2062 H   0  0  0  0  0  0  0  0  0  0  0  0
    4.8256   -1.3037    3.4431 H   0  0  0  0  0  0  0  0  0  0  0  0
    6.0567    0.9007    6.6709 H   0  0  0  0  0  0  0  0  0  0  0  0
    5.9569    3.3994    6.7036 H   0  0  0  0  0  0  0  0  0  0  0  0
    5.3742    5.5187    5.5872 H   0  0  0  0  0  0  0  0  0  0  0  0
    4.4622    5.4929    3.2811 H   0  0  0  0  0  0  0  0  0  0  0  0
    4.1458    3.3951    2.1071 H   0  0  0  0  0  0  0  0  0  0  0  0
    1.0826   -2.1691   -1.0502 H   0  0  0  0  0  0  0  0  0  0  0  0
    1.8950   -4.1821   -2.1046 H   0  0  0  0  0  0  0  0  0  0  0  0
    5.1438   -0.6942   -0.7141 H   0  0  0  0  0  0  0  0  0  0  0  0
  1  2  1  0  0  0  0
  1 35  1  0  0  0  0
  1 36  1  0  0  0  0
  1 37  1  0  0  0  0
  2  3  1  0  0  0  0
  2 14  1  0  0  0  0
  2 27  1  0  0  0  0
  3  4  1  0  0  0  0
  3 38  1  0  0  0  0
  4  5  2  0  0  0  0
  4  6  1  0  0  0  0
  6  7  1  0  0  0  0
  6 10  2  0  0  0  0
  7  8  2  0  0  0  0
  7 39  1  0  0  0  0
  8  9  1  0  0  0  0
  8 13  1  0  0  0  0
  9 10  1  0  0  0  0
  9 11  1  0  0  0  0
 11 12  1  0  0  0  0
 11 40  1  0  0  0  0
 11 41  1  0  0  0  0
 12 13  1  0  0  0  0
 12 42  1  0  0  0  0
 12 43  1  0  0  0  0
 14 15  2  0  0  0  0
 14 16  1  0  0  0  0
 16 17  1  0  0  0  0
 16 44  1  0  0  0  0
 17 18  1  0  0  0  0
 17 26  2  0  0  0  0
 18 19  2  0  0  0  0
 18 45  1  0  0  0  0
 19 20  1  0  0  0  0
 20 21  2  0  0  0  0
 20 46  1  0  0  0  0
 21 22  1  0  0  0  0
 21 26  1  0  0  0  0
 22 23  2  0  0  0  0
 22 47  1  0  0  0  0
 23 24  1  0  0  0  0
 23 48  1  0  0  0  0
 24 25  2  0  0  0  0
 24 49  1  0  0  0  0
 25 26  1  0  0  0  0
 25 50  1  0  0  0  0
 27 28  1  0  0  0  0
 27 34  2  0  0  0  0
 28 29  2  0  0  0  0
 28 51  1  0  0  0  0
 29 30  1  0  0  0  0
 29 52  1  0  0  0  0
 30 31  1  0  0  0  0
 30 32  2  0  0  0  0
 32 33  1  0  0  0  0
 32 34  1  0  0  0  0
 34 53  1  0  0  0  0
M  END
$$$$
