
 OpenBabel07202414153D

 52 55  0  0  1  0  0  0  0  0999 V2000
    0.8724   -2.3375   -0.1828 C   0  0  0  0  0  0  0  0  0  0  0  0
    2.2635   -2.1832    0.0777 O   0  0  0  0  0  0  0  0  0  0  0  0
    2.9465   -1.3695   -0.8954 C   0  0  1  0  0  0  0  0  0  0  0  0
    2.5038    0.0871   -0.7819 C   0  0  0  0  0  0  0  0  0  0  0  0
    4.4795   -1.4872   -0.6465 C   0  0  0  0  0  0  0  0  0  0  0  0
    4.9777   -2.8542   -0.8388 N   0  0  0  0  0  0  0  0  0  0  0  0
    6.0832   -3.3539   -0.0292 C   0  0  0  0  0  0  0  0  0  0  0  0
    5.9296   -4.8508    0.2888 C   0  0  2  0  0  0  0  0  0  0  0  0
    7.3071   -5.3900    0.7165 C   0  0  0  0  0  0  0  0  0  0  0  0
    7.6566   -5.2965    1.8900 O   0  0  0  0  0  0  0  0  0  0  0  0
    8.0919   -5.8882   -0.3119 N   0  0  0  0  0  0  0  0  0  0  0  0
    9.4259   -6.3831   -0.2414 C   0  0  0  0  0  0  0  0  0  0  0  0
   10.1692   -6.3891    0.9405 C   0  0  0  0  0  0  0  0  0  0  0  0
   11.4789   -6.7340    1.0239 N   0  0  0  0  0  0  0  0  0  0  0  0
   12.0754   -7.1294   -0.1182 C   0  0  0  0  0  0  0  0  0  0  0  0
   11.4265   -7.2586   -1.3416 C   0  0  0  0  0  0  0  0  0  0  0  0
   12.1066   -7.7664   -2.4649 C   0  0  0  0  0  0  0  0  0  0  0  0
   11.4510   -7.9205   -3.6792 C   0  0  0  0  0  0  0  0  0  0  0  0
   10.1190   -7.5505   -3.7943 C   0  0  0  0  0  0  0  0  0  0  0  0
    9.4390   -7.0319   -2.6898 C   0  0  0  0  0  0  0  0  0  0  0  0
   10.0631   -6.8768   -1.4208 C   0  0  0  0  0  0  0  0  0  0  0  0
    5.2793   -5.6203   -0.8524 C   0  0  0  0  0  0  0  0  0  0  0  0
    5.0504   -7.0023   -0.7375 C   0  0  0  0  0  0  0  0  0  0  0  0
    4.4279   -7.7005   -1.7742 C   0  0  0  0  0  0  0  0  0  0  0  0
    4.0958   -9.3774   -1.5924 Cl  0  0  0  0  0  0  0  0  0  0  0  0
    4.0504   -7.0467   -2.9447 C   0  0  0  0  0  0  0  0  0  0  0  0
    4.2526   -5.6729   -3.0642 C   0  0  0  0  0  0  0  0  0  0  0  0
    4.8317   -4.9575   -2.0093 C   0  0  0  0  0  0  0  0  0  0  0  0
    4.7791   -3.4724   -2.0634 C   0  0  0  0  0  0  0  0  0  0  0  0
    4.4652   -2.8901   -3.0940 O   0  0  0  0  0  0  0  0  0  0  0  0
    0.4903   -3.1421    0.4521 H   0  0  0  0  0  0  0  0  0  0  0  0
    0.6861   -2.6034   -1.2281 H   0  0  0  0  0  0  0  0  0  0  0  0
    0.3322   -1.4228    0.0768 H   0  0  0  0  0  0  0  0  0  0  0  0
    2.6953   -1.7368   -1.8963 H   0  0  0  0  0  0  0  0  0  0  0  0
    2.6369    0.4567    0.2405 H   0  0  0  0  0  0  0  0  0  0  0  0
    1.4421    0.1965   -1.0233 H   0  0  0  0  0  0  0  0  0  0  0  0
    3.0659    0.7257   -1.4703 H   0  0  0  0  0  0  0  0  0  0  0  0
    4.6839   -1.2024    0.3921 H   0  0  0  0  0  0  0  0  0  0  0  0
    5.0374   -0.8237   -1.3159 H   0  0  0  0  0  0  0  0  0  0  0  0
    6.1550   -2.7831    0.9037 H   0  0  0  0  0  0  0  0  0  0  0  0
    7.0051   -3.1634   -0.5959 H   0  0  0  0  0  0  0  0  0  0  0  0
    5.2546   -4.9515    1.1480 H   0  0  0  0  0  0  0  0  0  0  0  0
    7.6812   -5.8855   -1.2339 H   0  0  0  0  0  0  0  0  0  0  0  0
    9.7481   -6.1142    1.9000 H   0  0  0  0  0  0  0  0  0  0  0  0
   13.1297   -7.3545   -0.0150 H   0  0  0  0  0  0  0  0  0  0  0  0
   13.1506   -8.0629   -2.3880 H   0  0  0  0  0  0  0  0  0  0  0  0
   11.9791   -8.3427   -4.5358 H   0  0  0  0  0  0  0  0  0  0  0  0
    9.6017   -7.6764   -4.7427 H   0  0  0  0  0  0  0  0  0  0  0  0
    8.3928   -6.7788   -2.8419 H   0  0  0  0  0  0  0  0  0  0  0  0
    5.3273   -7.5317    0.1735 H   0  0  0  0  0  0  0  0  0  0  0  0
    3.5564   -7.5877   -3.7478 H   0  0  0  0  0  0  0  0  0  0  0  0
    3.8985   -5.1502   -3.9514 H   0  0  0  0  0  0  0  0  0  0  0  0
  1  2  1  0  0  0  0
  1 31  1  0  0  0  0
  1 32  1  0  0  0  0
  1 33  1  0  0  0  0
  2  3  1  0  0  0  0
  3  4  1  0  0  0  0
  3  5  1  0  0  0  0
  3 34  1  6  0  0  0
  4 35  1  0  0  0  0
  4 36  1  0  0  0  0
  4 37  1  0  0  0  0
  5  6  1  0  0  0  0
  5 38  1  0  0  0  0
  5 39  1  0  0  0  0
  6  7  1  0  0  0  0
  6 29  1  0  0  0  0
  7  8  1  0  0  0  0
  7 40  1  0  0  0  0
  7 41  1  0  0  0  0
  8 22  1  0  0  0  0
  8  9  1  0  0  0  0
  8 42  1  1  0  0  0
  9 10  2  0  0  0  0
  9 11  1  0  0  0  0
 11 12  1  0  0  0  0
 11 43  1  0  0  0  0
 12 13  1  0  0  0  0
 12 21  2  0  0  0  0
 13 14  2  0  0  0  0
 13 44  1  0  0  0  0
 14 15  1  0  0  0  0
 15 16  2  0  0  0  0
 15 45  1  0  0  0  0
 16 17  1  0  0  0  0
 16 21  1  0  0  0  0
 17 18  2  0  0  0  0
 17 46  1  0  0  0  0
 18 19  1  0  0  0  0
 18 47  1  0  0  0  0
 19 20  2  0  0  0  0
 19 48  1  0  0  0  0
 20 21  1  0  0  0  0
 20 49  1  0  0  0  0
 22 23  1  0  0  0  0
 22 28  2  0  0  0  0
 23 24  2  0  0  0  0
 23 50  1  0  0  0  0
 24 25  1  0  0  0  0
 24 26  1  0  0  0  0
 26 27  2  0  0  0  0
 26 51  1  0  0  0  0
 27 28  1  0  0  0  0
 27 52  1  0  0  0  0
 28 29  1  0  0  0  0
 29 30  2  0  0  0  0
M  END
$$$$
