
 OpenBabel07202414153D

 45 47  0  0  0  0  0  0  0  0999 V2000
   12.8147   -7.4446    4.0398 C   0  0  0  0  0  0  0  0  0  0  0  0
   12.1285   -8.0708    2.9540 O   0  0  0  0  0  0  0  0  0  0  0  0
   10.8753   -7.5867    2.7101 C   0  0  0  0  0  0  0  0  0  0  0  0
   10.5202   -7.4498    1.3832 C   0  0  0  0  0  0  0  0  0  0  0  0
    9.2996   -6.8436    1.0498 C   0  0  0  0  0  0  0  0  0  0  0  0
    8.4033   -6.3168    2.0168 C   0  0  0  0  0  0  0  0  0  0  0  0
    7.3366   -5.3610    1.5482 C   0  0  0  0  0  0  0  0  0  0  0  0
    7.4024   -4.7942    0.2058 C   0  0  0  0  0  0  0  0  0  0  0  0
    6.4480   -3.8543   -0.0731 C   0  0  0  0  0  0  0  0  0  0  0  0
    5.3874   -3.6567    1.2179 S   0  0  0  0  0  0  0  0  0  0  0  0
    6.2486   -4.7637    2.2271 C   0  0  0  0  0  0  0  0  0  0  0  0
    5.4753   -4.8832    3.8421 S   0  0  0  0  0  0  0  0  0  0  0  0
    4.6760   -6.0871    3.7519 O   0  0  0  0  0  0  0  0  0  0  0  0
    6.5762   -4.8081    4.7577 O   0  0  0  0  0  0  0  0  0  0  0  0
    4.3294   -3.5895    4.2217 N   0  0  0  0  0  0  0  0  0  0  0  0
    4.8099   -2.1764    4.3846 C   0  0  0  0  0  0  0  0  0  0  0  0
    5.8573   -2.0551    5.4852 C   0  0  0  0  0  0  0  0  0  0  0  0
    5.7240   -2.9899    6.6171 N   0  0  0  0  0  0  0  0  0  0  0  0
    6.9137   -3.1702    7.3320 C   0  0  0  0  0  0  0  0  0  0  0  0
    7.8384   -2.3538    7.2207 O   0  0  0  0  0  0  0  0  0  0  0  0
    7.1603   -4.4409    8.1249 C   0  0  0  0  0  0  0  0  0  0  0  0
    5.9746   -4.7061    9.4092 Cl  0  0  0  0  0  0  0  0  0  0  0  0
    4.5619   -3.9169    6.6860 C   0  0  0  0  0  0  0  0  0  0  0  0
    3.5815   -3.8740    5.4943 C   0  0  0  0  0  0  0  0  0  0  0  0
    8.7088   -6.6404    3.3377 C   0  0  0  0  0  0  0  0  0  0  0  0
    9.9315   -7.2685    3.6848 C   0  0  0  0  0  0  0  0  0  0  0  0
   13.8668   -7.3235    3.7555 H   0  0  0  0  0  0  0  0  0  0  0  0
   12.7751   -8.0987    4.9153 H   0  0  0  0  0  0  0  0  0  0  0  0
   12.4301   -6.4496    4.2902 H   0  0  0  0  0  0  0  0  0  0  0  0
   11.2046   -7.7608    0.5979 H   0  0  0  0  0  0  0  0  0  0  0  0
    9.0974   -6.7603   -0.0137 H   0  0  0  0  0  0  0  0  0  0  0  0
    8.1517   -5.0363   -0.5360 H   0  0  0  0  0  0  0  0  0  0  0  0
    6.3408   -3.2832   -0.9854 H   0  0  0  0  0  0  0  0  0  0  0  0
    3.9480   -1.5583    4.6901 H   0  0  0  0  0  0  0  0  0  0  0  0
    5.1352   -1.7297    3.4430 H   0  0  0  0  0  0  0  0  0  0  0  0
    5.8825   -1.0362    5.8903 H   0  0  0  0  0  0  0  0  0  0  0  0
    6.8346   -2.2207    5.0129 H   0  0  0  0  0  0  0  0  0  0  0  0
    8.1326   -4.3435    8.6186 H   0  0  0  0  0  0  0  0  0  0  0  0
    7.2104   -5.3055    7.4551 H   0  0  0  0  0  0  0  0  0  0  0  0
    4.0140   -3.6856    7.6065 H   0  0  0  0  0  0  0  0  0  0  0  0
    4.9367   -4.9408    6.7799 H   0  0  0  0  0  0  0  0  0  0  0  0
    2.8455   -3.0764    5.6685 H   0  0  0  0  0  0  0  0  0  0  0  0
    3.0024   -4.8023    5.4095 H   0  0  0  0  0  0  0  0  0  0  0  0
    8.0405   -6.4095    4.1577 H   0  0  0  0  0  0  0  0  0  0  0  0
   10.1413   -7.4849    4.7300 H   0  0  0  0  0  0  0  0  0  0  0  0
  1  2  1  0  0  0  0
  1 27  1  0  0  0  0
  1 28  1  0  0  0  0
  1 29  1  0  0  0  0
  2  3  1  0  0  0  0
  3  4  1  0  0  0  0
  3 26  2  0  0  0  0
  4  5  2  0  0  0  0
  4 30  1  0  0  0  0
  5  6  1  0  0  0  0
  5 31  1  0  0  0  0
  6  7  1  0  0  0  0
  6 25  2  0  0  0  0
  7  8  1  0  0  0  0
  7 11  2  0  0  0  0
  8  9  2  0  0  0  0
  8 32  1  0  0  0  0
  9 10  1  0  0  0  0
  9 33  1  0  0  0  0
 10 11  1  0  0  0  0
 11 12  1  0  0  0  0
 12 13  2  0  0  0  0
 12 14  2  0  0  0  0
 12 15  1  0  0  0  0
 15 16  1  0  0  0  0
 15 24  1  0  0  0  0
 16 17  1  0  0  0  0
 16 34  1  0  0  0  0
 16 35  1  0  0  0  0
 17 18  1  0  0  0  0
 17 36  1  0  0  0  0
 17 37  1  0  0  0  0
 18 19  1  0  0  0  0
 18 23  1  0  0  0  0
 19 20  2  0  0  0  0
 19 21  1  0  0  0  0
 21 22  1  0  0  0  0
 21 38  1  0  0  0  0
 21 39  1  0  0  0  0
 23 24  1  0  0  0  0
 23 40  1  0  0  0  0
 23 41  1  0  0  0  0
 24 42  1  0  0  0  0
 24 43  1  0  0  0  0
 25 26  1  0  0  0  0
 25 44  1  0  0  0  0
 26 45  1  0  0  0  0
M  END
$$$$
