
 OpenBabel07202414183D

 33 35  0  0  0  0  0  0  0  0999 V2000
   -0.9241   -4.7551   -3.1729 Cl  0  0  0  0  0  0  0  0  0  0  0  0
    0.4976   -3.7983   -3.0200 C   0  0  0  0  0  0  0  0  0  0  0  0
    1.1177   -3.2941   -4.1552 C   0  0  0  0  0  0  0  0  0  0  0  0
    2.2546   -2.4951   -4.0228 C   0  0  0  0  0  0  0  0  0  0  0  0
    2.7817   -2.2223   -2.7540 C   0  0  0  0  0  0  0  0  0  0  0  0
    2.1871   -2.7587   -1.6047 C   0  0  0  0  0  0  0  0  0  0  0  0
    2.6732   -2.4602   -0.2041 C   0  0  0  0  0  0  0  0  0  0  0  0
    4.1461   -2.1490   -0.0416 C   0  0  0  0  0  0  0  0  0  0  0  0
    4.5358   -0.9847    0.0638 O   0  0  0  0  0  0  0  0  0  0  0  0
    4.9813   -3.2490   -0.0221 N   0  0  0  0  0  0  0  0  0  0  0  0
    6.3864   -3.0717    0.1143 C   0  0  0  0  0  0  0  0  0  0  0  0
    6.9357   -2.2574    1.1001 C   0  0  0  0  0  0  0  0  0  0  0  0
    8.2555   -1.9860    1.2160 N   0  0  0  0  0  0  0  0  0  0  0  0
    9.0522   -2.5248    0.2694 C   0  0  0  0  0  0  0  0  0  0  0  0
    8.6046   -3.3661   -0.7491 C   0  0  0  0  0  0  0  0  0  0  0  0
    9.4565   -3.8837   -1.7355 C   0  0  0  0  0  0  0  0  0  0  0  0
    8.9384   -4.7008   -2.7280 C   0  0  0  0  0  0  0  0  0  0  0  0
    7.5870   -4.9864   -2.6960 C   0  0  0  0  0  0  0  0  0  0  0  0
    6.7321   -4.4958   -1.7667 N   0  0  0  0  0  0  0  0  0  0  0  0
    7.2322   -3.6837   -0.8055 C   0  0  0  0  0  0  0  0  0  0  0  0
    1.0205   -3.5313   -1.7546 C   0  0  0  0  0  0  0  0  0  0  0  0
    0.7090   -3.4936   -5.1444 H   0  0  0  0  0  0  0  0  0  0  0  0
    2.7284   -2.0776   -4.9078 H   0  0  0  0  0  0  0  0  0  0  0  0
    3.6546   -1.5754   -2.6823 H   0  0  0  0  0  0  0  0  0  0  0  0
    2.4437   -3.3057    0.4596 H   0  0  0  0  0  0  0  0  0  0  0  0
    2.1127   -1.5980    0.1773 H   0  0  0  0  0  0  0  0  0  0  0  0
    4.7196   -4.0163   -0.6380 H   0  0  0  0  0  0  0  0  0  0  0  0
    6.3095   -1.7902    1.8601 H   0  0  0  0  0  0  0  0  0  0  0  0
   10.0997   -2.2421    0.3520 H   0  0  0  0  0  0  0  0  0  0  0  0
   10.5160   -3.6355   -1.7391 H   0  0  0  0  0  0  0  0  0  0  0  0
    9.5720   -5.1051   -3.5106 H   0  0  0  0  0  0  0  0  0  0  0  0
    7.1305   -5.6217   -3.4494 H   0  0  0  0  0  0  0  0  0  0  0  0
    0.5069   -3.9195   -0.8744 H   0  0  0  0  0  0  0  0  0  0  0  0
  1  2  1  0  0  0  0
  2  3  1  0  0  0  0
  2 21  2  0  0  0  0
  3  4  2  0  0  0  0
  3 22  1  0  0  0  0
  4  5  1  0  0  0  0
  4 23  1  0  0  0  0
  5  6  2  0  0  0  0
  5 24  1  0  0  0  0
  6  7  1  0  0  0  0
  6 21  1  0  0  0  0
  7  8  1  0  0  0  0
  7 25  1  0  0  0  0
  7 26  1  0  0  0  0
  8  9  2  0  0  0  0
  8 10  1  0  0  0  0
 10 11  1  0  0  0  0
 10 27  1  0  0  0  0
 11 12  1  0  0  0  0
 11 20  2  0  0  0  0
 12 13  2  0  0  0  0
 12 28  1  0  0  0  0
 13 14  1  0  0  0  0
 14 15  2  0  0  0  0
 14 29  1  0  0  0  0
 15 16  1  0  0  0  0
 15 20  1  0  0  0  0
 16 17  2  0  0  0  0
 16 30  1  0  0  0  0
 17 18  1  0  0  0  0
 17 31  1  0  0  0  0
 18 19  2  0  0  0  0
 18 32  1  0  0  0  0
 19 20  1  0  0  0  0
 21 33  1  0  0  0  0
M  END
$$$$
