
 OpenBabel07202414183D

 52 56  0  0  1  0  0  0  0  0999 V2000
    2.6439   -3.2976    0.8263 C   0  0  0  0  0  0  0  0  0  0  0  0
    1.5965   -2.9822    1.7711 N   0  0  0  0  0  0  0  0  0  0  0  0
    1.8767   -3.0514    3.0914 N   0  0  0  0  0  0  0  0  0  0  0  0
    0.7384   -2.6951    3.6815 C   0  0  0  0  0  0  0  0  0  0  0  0
   -0.2731   -2.4205    2.7516 C   0  0  0  0  0  0  0  0  0  0  0  0
    0.2793   -2.6821    1.5068 C   0  0  0  0  0  0  0  0  0  0  0  0
   -0.3170   -2.6179    0.1892 C   0  0  0  0  0  0  0  0  0  0  0  0
    0.3036   -2.1882   -0.7826 O   0  0  0  0  0  0  0  0  0  0  0  0
   -1.6435   -3.0324    0.0526 N   0  0  0  0  0  0  0  0  0  0  0  0
   -2.3518   -2.7847   -1.1969 C   0  0  0  0  0  0  0  0  0  0  0  0
   -2.6501   -4.0897   -1.9420 C   0  0  3  0  0  0  0  0  0  0  0  0
   -1.3669   -4.6831   -2.5496 C   0  0  0  0  0  0  0  0  0  0  0  0
   -0.8607   -5.7193   -2.1293 O   0  0  0  0  0  0  0  0  0  0  0  0
   -0.8873   -3.9425   -3.6217 N   0  0  0  0  0  0  0  0  0  0  0  0
    0.1374   -4.3119   -4.5337 C   0  0  0  0  0  0  0  0  0  0  0  0
    0.7468   -5.5679   -4.5161 C   0  0  0  0  0  0  0  0  0  0  0  0
    1.6005   -6.0219   -5.4637 N   0  0  0  0  0  0  0  0  0  0  0  0
    1.9119   -5.1632   -6.4530 C   0  0  0  0  0  0  0  0  0  0  0  0
    1.4655   -3.8456   -6.5241 C   0  0  0  0  0  0  0  0  0  0  0  0
    1.9415   -2.9799   -7.5257 C   0  0  0  0  0  0  0  0  0  0  0  0
    1.5259   -1.6528   -7.5751 C   0  0  0  0  0  0  0  0  0  0  0  0
    0.5990   -1.1901   -6.6519 C   0  0  0  0  0  0  0  0  0  0  0  0
    0.1061   -2.0483   -5.6626 C   0  0  0  0  0  0  0  0  0  0  0  0
    0.5408   -3.3965   -5.5512 C   0  0  0  0  0  0  0  0  0  0  0  0
   -3.3618   -5.0598   -1.0123 C   0  0  0  0  0  0  0  0  0  0  0  0
   -4.1769   -6.0778   -1.5352 C   0  0  0  0  0  0  0  0  0  0  0  0
   -4.7730   -7.0085   -0.6832 C   0  0  0  0  0  0  0  0  0  0  0  0
   -5.7798   -8.2429   -1.3336 Cl  0  0  0  0  0  0  0  0  0  0  0  0
   -4.5624   -6.9467    0.6887 C   0  0  0  0  0  0  0  0  0  0  0  0
   -3.7627   -5.9370    1.2198 C   0  0  0  0  0  0  0  0  0  0  0  0
   -3.1643   -4.9856    0.3826 C   0  0  0  0  0  0  0  0  0  0  0  0
   -2.3284   -3.8930    1.0117 C   0  0  0  0  0  0  0  0  0  0  0  0
    3.6108   -3.2396    1.3353 H   0  0  0  0  0  0  0  0  0  0  0  0
    2.6317   -2.5705    0.0131 H   0  0  0  0  0  0  0  0  0  0  0  0
    2.4779   -4.3113    0.4551 H   0  0  0  0  0  0  0  0  0  0  0  0
    0.6936   -2.6524    4.7621 H   0  0  0  0  0  0  0  0  0  0  0  0
   -1.2835   -2.0991    2.9594 H   0  0  0  0  0  0  0  0  0  0  0  0
   -1.7972   -2.0808   -1.8256 H   0  0  0  0  0  0  0  0  0  0  0  0
   -3.2928   -2.2840   -0.9308 H   0  0  0  0  0  0  0  0  0  0  0  0
   -3.3295   -3.8580   -2.7759 H   0  0  0  0  0  0  0  0  0  0  0  0
   -1.3305   -3.0545   -3.7965 H   0  0  0  0  0  0  0  0  0  0  0  0
    0.5656   -6.2952   -3.7326 H   0  0  0  0  0  0  0  0  0  0  0  0
    2.5698   -5.5791   -7.2123 H   0  0  0  0  0  0  0  0  0  0  0  0
    2.6693   -3.3295   -8.2559 H   0  0  0  0  0  0  0  0  0  0  0  0
    1.9349   -0.9801   -8.3245 H   0  0  0  0  0  0  0  0  0  0  0  0
    0.2704   -0.1539   -6.6853 H   0  0  0  0  0  0  0  0  0  0  0  0
   -0.5957   -1.6189   -4.9548 H   0  0  0  0  0  0  0  0  0  0  0  0
   -4.3372   -6.1568   -2.6082 H   0  0  0  0  0  0  0  0  0  0  0  0
   -5.0054   -7.6856    1.3525 H   0  0  0  0  0  0  0  0  0  0  0  0
   -3.5992   -5.8991    2.2952 H   0  0  0  0  0  0  0  0  0  0  0  0
   -1.6085   -4.3798    1.6751 H   0  0  0  0  0  0  0  0  0  0  0  0
   -2.9911   -3.2467    1.6006 H   0  0  0  0  0  0  0  0  0  0  0  0
  1  2  1  0  0  0  0
  1 33  1  0  0  0  0
  1 34  1  0  0  0  0
  1 35  1  0  0  0  0
  2  3  1  0  0  0  0
  2  6  1  0  0  0  0
  3  4  2  0  0  0  0
  4  5  1  0  0  0  0
  4 36  1  0  0  0  0
  5  6  2  0  0  0  0
  5 37  1  0  0  0  0
  6  7  1  0  0  0  0
  7  8  2  0  0  0  0
  7  9  1  0  0  0  0
  9 10  1  0  0  0  0
  9 32  1  0  0  0  0
 10 11  1  0  0  0  0
 10 38  1  0  0  0  0
 10 39  1  0  0  0  0
 11 12  1  0  0  0  0
 11 25  1  0  0  0  0
 11 40  1  0  0  0  0
 12 13  2  0  0  0  0
 12 14  1  0  0  0  0
 14 15  1  0  0  0  0
 14 41  1  0  0  0  0
 15 16  1  0  0  0  0
 15 24  2  0  0  0  0
 16 17  2  0  0  0  0
 16 42  1  0  0  0  0
 17 18  1  0  0  0  0
 18 19  2  0  0  0  0
 18 43  1  0  0  0  0
 19 20  1  0  0  0  0
 19 24  1  0  0  0  0
 20 21  2  0  0  0  0
 20 44  1  0  0  0  0
 21 22  1  0  0  0  0
 21 45  1  0  0  0  0
 22 23  2  0  0  0  0
 22 46  1  0  0  0  0
 23 24  1  0  0  0  0
 23 47  1  0  0  0  0
 25 26  1  0  0  0  0
 25 31  2  0  0  0  0
 26 27  2  0  0  0  0
 26 48  1  0  0  0  0
 27 28  1  0  0  0  0
 27 29  1  0  0  0  0
 29 30  2  0  0  0  0
 29 49  1  0  0  0  0
 30 31  1  0  0  0  0
 30 50  1  0  0  0  0
 31 32  1  0  0  0  0
 32 51  1  0  0  0  0
 32 52  1  0  0  0  0
M  END
$$$$
