
 OpenBabel07202414153D

 47 50  0  0  1  0  0  0  0  0999 V2000
    2.8846    1.4056   -0.5459 C   0  0  0  0  0  0  0  0  0  0  0  0
    2.6639   -0.0083   -0.0163 C   0  0  2  0  0  0  0  0  0  0  0  0
    3.2943   -0.2076    1.3947 C   0  0  2  0  0  0  0  0  0  0  0  0
    4.6519    0.5054    1.5673 C   0  0  0  0  0  0  0  0  0  0  0  0
    5.4786   -0.0223    2.7337 C   0  0  0  0  0  0  0  0  0  0  0  0
    5.6629   -1.5316    2.6583 C   0  0  0  0  0  0  0  0  0  0  0  0
    4.3185   -2.2443    2.5920 C   0  0  0  0  0  0  0  0  0  0  0  0
    3.4193   -1.7345    1.4712 C   0  0  2  0  0  0  0  0  0  0  0  0
    3.8887   -2.0914    0.0634 C   0  0  0  0  0  0  0  0  0  0  0  0
    3.2307   -1.1213   -0.8077 N   0  0  0  0  0  0  0  0  0  0  0  0
    3.0746   -1.4588   -2.1384 C   0  0  0  0  0  0  0  0  0  0  0  0
    3.5622   -2.4984   -2.5947 O   0  0  0  0  0  0  0  0  0  0  0  0
    2.3493   -0.5142   -3.0749 C   0  0  0  0  0  0  0  0  0  0  0  0
    3.2260    0.5192   -3.7577 C   0  0  0  0  0  0  0  0  0  0  0  0
    4.5992    0.5841   -3.5048 C   0  0  0  0  0  0  0  0  0  0  0  0
    5.4274    1.5367   -3.9899 N   0  0  0  0  0  0  0  0  0  0  0  0
    4.8694    2.4651   -4.7906 C   0  0  0  0  0  0  0  0  0  0  0  0
    3.5257    2.4907   -5.1582 C   0  0  0  0  0  0  0  0  0  0  0  0
    3.0225    3.4849   -6.0155 C   0  0  0  0  0  0  0  0  0  0  0  0
    1.6819    3.4838   -6.3919 C   0  0  0  0  0  0  0  0  0  0  0  0
    0.8343    2.4921   -5.9145 C   0  0  0  0  0  0  0  0  0  0  0  0
    1.3220    1.5092   -5.0471 C   0  0  0  0  0  0  0  0  0  0  0  0
    2.6771    1.4846   -4.6427 C   0  0  0  0  0  0  0  0  0  0  0  0
    2.6279    2.1467    0.2190 H   0  0  0  0  0  0  0  0  0  0  0  0
    2.2455    1.6284   -1.4013 H   0  0  0  0  0  0  0  0  0  0  0  0
    3.9213    1.5725   -0.8518 H   0  0  0  0  0  0  0  0  0  0  0  0
    1.5845   -0.1996    0.0440 H   0  0  0  0  0  0  0  0  0  0  0  0
    2.6100    0.1570    2.1706 H   0  0  0  0  0  0  0  0  0  0  0  0
    4.4821    1.5789    1.7175 H   0  0  0  0  0  0  0  0  0  0  0  0
    5.2519    0.4101    0.6542 H   0  0  0  0  0  0  0  0  0  0  0  0
    4.9955    0.2454    3.6806 H   0  0  0  0  0  0  0  0  0  0  0  0
    6.4609    0.4638    2.7271 H   0  0  0  0  0  0  0  0  0  0  0  0
    6.2197   -1.8777    3.5365 H   0  0  0  0  0  0  0  0  0  0  0  0
    6.2709   -1.7887    1.7830 H   0  0  0  0  0  0  0  0  0  0  0  0
    3.8008   -2.0960    3.5486 H   0  0  0  0  0  0  0  0  0  0  0  0
    4.4773   -3.3239    2.4860 H   0  0  0  0  0  0  0  0  0  0  0  0
    2.4159   -2.1612    1.6132 H   0  0  0  0  0  0  0  0  0  0  0  0
    3.6207   -3.1191   -0.2032 H   0  0  0  0  0  0  0  0  0  0  0  0
    4.9675   -1.9691   -0.0756 H   0  0  0  0  0  0  0  0  0  0  0  0
    1.5276   -0.0343   -2.5340 H   0  0  0  0  0  0  0  0  0  0  0  0
    1.8801   -1.1409   -3.8445 H   0  0  0  0  0  0  0  0  0  0  0  0
    5.1079   -0.1326   -2.8663 H   0  0  0  0  0  0  0  0  0  0  0  0
    5.5665    3.2187   -5.1490 H   0  0  0  0  0  0  0  0  0  0  0  0
    3.6773    4.2641   -6.3991 H   0  0  0  0  0  0  0  0  0  0  0  0
    1.3036    4.2517   -7.0613 H   0  0  0  0  0  0  0  0  0  0  0  0
   -0.2099    2.4781   -6.2173 H   0  0  0  0  0  0  0  0  0  0  0  0
    0.6250    0.7493   -4.7033 H   0  0  0  0  0  0  0  0  0  0  0  0
  1 24  1  0  0  0  0
  1 25  1  0  0  0  0
  1 26  1  0  0  0  0
  2  3  1  0  0  0  0
  2 10  1  0  0  0  0
  2  1  1  0  0  0  0
  2 27  1  1  0  0  0
  3  4  1  0  0  0  0
  3  8  1  0  0  0  0
  3 28  1  1  0  0  0
  4  5  1  0  0  0  0
  4 29  1  0  0  0  0
  4 30  1  0  0  0  0
  5  6  1  0  0  0  0
  5 31  1  0  0  0  0
  5 32  1  0  0  0  0
  6  7  1  0  0  0  0
  6 33  1  0  0  0  0
  6 34  1  0  0  0  0
  7  8  1  0  0  0  0
  7 35  1  0  0  0  0
  7 36  1  0  0  0  0
  8  9  1  0  0  0  0
  8 37  1  1  0  0  0
  9 10  1  0  0  0  0
  9 38  1  0  0  0  0
  9 39  1  0  0  0  0
 10 11  1  0  0  0  0
 11 12  2  0  0  0  0
 11 13  1  0  0  0  0
 13 14  1  0  0  0  0
 13 40  1  0  0  0  0
 13 41  1  0  0  0  0
 14 15  1  0  0  0  0
 14 23  2  0  0  0  0
 15 16  2  0  0  0  0
 15 42  1  0  0  0  0
 16 17  1  0  0  0  0
 17 18  2  0  0  0  0
 17 43  1  0  0  0  0
 18 19  1  0  0  0  0
 18 23  1  0  0  0  0
 19 20  2  0  0  0  0
 19 44  1  0  0  0  0
 20 21  1  0  0  0  0
 20 45  1  0  0  0  0
 21 22  2  0  0  0  0
 21 46  1  0  0  0  0
 22 23  1  0  0  0  0
 22 47  1  0  0  0  0
M  END
$$$$
