
 OpenBabel07202414173D

 54 58  0  0  1  0  0  0  0  0999 V2000
    0.9972   -0.1633    0.0746 Cl  0  0  0  0  0  0  0  0  0  0  0  0
    2.7062   -0.0411   -0.0710 C   0  0  0  0  0  0  0  0  0  0  0  0
    3.3007    1.2089   -0.1935 C   0  0  0  0  0  0  0  0  0  0  0  0
    4.6889    1.3109   -0.3172 C   0  0  0  0  0  0  0  0  0  0  0  0
    5.5080    0.1641   -0.3058 C   0  0  0  0  0  0  0  0  0  0  0  0
    4.8795   -1.0861   -0.1935 C   0  0  0  0  0  0  0  0  0  0  0  0
    3.4900   -1.1880   -0.0672 C   0  0  0  0  0  0  0  0  0  0  0  0
    5.5416   -2.2807   -0.1446 O   0  0  0  0  0  0  0  0  0  0  0  0
    6.8719   -2.2526   -0.6540 C   0  0  0  0  0  0  0  0  0  0  0  0
    7.6643   -1.0990   -0.0702 C   0  0  0  0  0  0  0  0  0  0  0  0
    7.0330    0.2752   -0.4132 C   0  0  3  0  0  0  0  0  0  0  0  0
    7.5776    1.2818    0.6505 C   0  0  0  0  0  0  0  0  0  0  0  0
    9.0277    1.4645    0.6284 N   0  0  0  0  0  0  0  0  0  0  0  0
    9.7192    2.3162    1.4868 C   0  0  0  0  0  0  0  0  0  0  0  0
    9.3288    2.7235    2.7043 C   0  0  0  0  0  0  0  0  0  0  0  0
   10.0621    3.5888    3.4638 N   0  0  0  0  0  0  0  0  0  0  0  0
   11.2697    4.1136    3.0668 C   0  0  0  0  0  0  0  0  0  0  0  0
   11.8810    4.9168    3.7600 O   0  0  0  0  0  0  0  0  0  0  0  0
   11.7150    3.6982    1.8530 N   0  0  0  0  0  0  0  0  0  0  0  0
   11.0455    2.8649    1.0044 C   0  0  0  0  0  0  0  0  0  0  0  0
   11.4638    2.5830   -0.1164 O   0  0  0  0  0  0  0  0  0  0  0  0
    7.4147    0.6909   -1.8821 C   0  0  0  0  0  0  0  0  0  0  0  0
    7.6154   -0.1607   -2.7500 O   0  0  0  0  0  0  0  0  0  0  0  0
    7.4408    2.0593   -2.1204 N   0  0  0  0  0  0  0  0  0  0  0  0
    7.8448    2.7426   -3.2996 C   0  0  0  0  0  0  0  0  0  0  0  0
    8.2163    2.0873   -4.4706 C   0  0  0  0  0  0  0  0  0  0  0  0
    8.8448    2.6869   -5.5080 N   0  0  0  0  0  0  0  0  0  0  0  0
    9.0349    4.0183   -5.4129 C   0  0  0  0  0  0  0  0  0  0  0  0
    8.5273    4.8155   -4.3904 C   0  0  0  0  0  0  0  0  0  0  0  0
    8.5893    6.2203   -4.4676 C   0  0  0  0  0  0  0  0  0  0  0  0
    8.0791    7.0140   -3.4444 C   0  0  0  0  0  0  0  0  0  0  0  0
    7.5415    6.4116   -2.3164 C   0  0  0  0  0  0  0  0  0  0  0  0
    7.4706    5.0161   -2.2337 C   0  0  0  0  0  0  0  0  0  0  0  0
    7.9369    4.1713   -3.2795 C   0  0  0  0  0  0  0  0  0  0  0  0
    2.6901    2.1084   -0.1960 H   0  0  0  0  0  0  0  0  0  0  0  0
    5.1075    2.3077   -0.4230 H   0  0  0  0  0  0  0  0  0  0  0  0
    3.0293   -2.1679    0.0277 H   0  0  0  0  0  0  0  0  0  0  0  0
    6.8453   -2.2563   -1.7474 H   0  0  0  0  0  0  0  0  0  0  0  0
    7.3426   -3.1946   -0.3484 H   0  0  0  0  0  0  0  0  0  0  0  0
    8.7075   -1.1559   -0.4007 H   0  0  0  0  0  0  0  0  0  0  0  0
    7.6648   -1.2317    1.0221 H   0  0  0  0  0  0  0  0  0  0  0  0
    7.2762    0.9372    1.6482 H   0  0  0  0  0  0  0  0  0  0  0  0
    7.1183    2.2703    0.5447 H   0  0  0  0  0  0  0  0  0  0  0  0
    9.5033    1.4134   -0.2813 H   0  0  0  0  0  0  0  0  0  0  0  0
    8.4022    2.3846    3.1521 H   0  0  0  0  0  0  0  0  0  0  0  0
    9.7347    3.8854    4.3763 H   0  0  0  0  0  0  0  0  0  0  0  0
   12.5929    4.0846    1.5299 H   0  0  0  0  0  0  0  0  0  0  0  0
    7.3799    2.6634   -1.3199 H   0  0  0  0  0  0  0  0  0  0  0  0
    8.0409    1.0288   -4.6295 H   0  0  0  0  0  0  0  0  0  0  0  0
    9.6293    4.4451   -6.2174 H   0  0  0  0  0  0  0  0  0  0  0  0
    9.0040    6.7053   -5.3497 H   0  0  0  0  0  0  0  0  0  0  0  0
    8.0970    8.0976   -3.5317 H   0  0  0  0  0  0  0  0  0  0  0  0
    7.1597    7.0265   -1.5045 H   0  0  0  0  0  0  0  0  0  0  0  0
    7.0046    4.6092   -1.3422 H   0  0  0  0  0  0  0  0  0  0  0  0
  1  2  1  0  0  0  0
  2  3  1  0  0  0  0
  2  7  2  0  0  0  0
  3  4  2  0  0  0  0
  3 35  1  0  0  0  0
  4  5  1  0  0  0  0
  4 36  1  0  0  0  0
  5  6  2  0  0  0  0
  5 11  1  0  0  0  0
  6  7  1  0  0  0  0
  6  8  1  0  0  0  0
  7 37  1  0  0  0  0
  8  9  1  0  0  0  0
  9 10  1  0  0  0  0
  9 38  1  0  0  0  0
  9 39  1  0  0  0  0
 10 11  1  0  0  0  0
 10 40  1  0  0  0  0
 10 41  1  0  0  0  0
 11 12  1  0  0  0  0
 11 22  1  0  0  0  0
 12 13  1  0  0  0  0
 12 42  1  0  0  0  0
 12 43  1  0  0  0  0
 13 14  1  0  0  0  0
 13 44  1  0  0  0  0
 14 15  2  0  0  0  0
 14 20  1  0  0  0  0
 15 16  1  0  0  0  0
 15 45  1  0  0  0  0
 16 17  1  0  0  0  0
 16 46  1  0  0  0  0
 17 18  2  0  0  0  0
 17 19  1  0  0  0  0
 19 20  1  0  0  0  0
 19 47  1  0  0  0  0
 20 21  2  0  0  0  0
 22 23  2  0  0  0  0
 22 24  1  0  0  0  0
 24 25  1  0  0  0  0
 24 48  1  0  0  0  0
 25 26  1  0  0  0  0
 25 34  2  0  0  0  0
 26 27  2  0  0  0  0
 26 49  1  0  0  0  0
 27 28  1  0  0  0  0
 28 29  2  0  0  0  0
 28 50  1  0  0  0  0
 29 30  1  0  0  0  0
 29 34  1  0  0  0  0
 30 31  2  0  0  0  0
 30 51  1  0  0  0  0
 31 32  1  0  0  0  0
 31 52  1  0  0  0  0
 32 33  2  0  0  0  0
 32 53  1  0  0  0  0
 33 34  1  0  0  0  0
 33 54  1  0  0  0  0
M  END
$$$$
