
 OpenBabel07202414193D

 37 39  0  0  0  0  0  0  0  0999 V2000
    1.1210    0.1223   -0.1398 O   0  0  0  0  0  0  0  0  0  0  0  0
    2.4728    0.2321   -0.1545 C   0  0  0  0  0  0  0  0  0  0  0  0
    3.0875    0.7533   -1.0644 O   0  0  0  0  0  0  0  0  0  0  0  0
    3.1299   -0.2873    1.0767 C   0  0  0  0  0  0  0  0  0  0  0  0
    2.6266   -1.3855    1.7756 C   0  0  0  0  0  0  0  0  0  0  0  0
    3.2835   -1.8500    2.9201 C   0  0  0  0  0  0  0  0  0  0  0  0
    4.4806   -1.2541    3.3854 C   0  0  0  0  0  0  0  0  0  0  0  0
    5.1712   -1.6631    4.5516 C   0  0  0  0  0  0  0  0  0  0  0  0
    4.7591   -2.8044    5.2868 N   0  0  0  0  0  0  0  0  0  0  0  0
    4.6273   -2.7842    6.6681 C   0  0  0  0  0  0  0  0  0  0  0  0
    4.8049   -1.7917    7.3692 O   0  0  0  0  0  0  0  0  0  0  0  0
    4.1731   -4.1101    7.2636 C   0  0  0  0  0  0  0  0  0  0  0  0
    2.6779   -4.3164    7.1904 C   0  0  0  0  0  0  0  0  0  0  0  0
    1.7997   -3.4294    7.8323 C   0  0  0  0  0  0  0  0  0  0  0  0
    0.4157   -3.5933    7.7243 C   0  0  0  0  0  0  0  0  0  0  0  0
   -0.1082   -4.6544    6.9883 C   0  0  0  0  0  0  0  0  0  0  0  0
    0.7565   -5.5624    6.3833 C   0  0  0  0  0  0  0  0  0  0  0  0
    0.1165   -6.8831    5.4846 Cl  0  0  0  0  0  0  0  0  0  0  0  0
    2.1408   -5.4039    6.4856 C   0  0  0  0  0  0  0  0  0  0  0  0
    6.3036   -0.9428    4.9352 C   0  0  0  0  0  0  0  0  0  0  0  0
    6.8080    0.1087    4.2506 N   0  0  0  0  0  0  0  0  0  0  0  0
    6.1379    0.4794    3.1385 C   0  0  0  0  0  0  0  0  0  0  0  0
    4.9788   -0.1424    2.6654 C   0  0  0  0  0  0  0  0  0  0  0  0
    4.3092    0.3247    1.5157 C   0  0  0  0  0  0  0  0  0  0  0  0
    0.7315   -0.1351    0.7142 H   0  0  0  0  0  0  0  0  0  0  0  0
    1.7351   -1.9088    1.4403 H   0  0  0  0  0  0  0  0  0  0  0  0
    2.8281   -2.6778    3.4604 H   0  0  0  0  0  0  0  0  0  0  0  0
    4.2265   -3.5102    4.7964 H   0  0  0  0  0  0  0  0  0  0  0  0
    4.4993   -4.1501    8.3099 H   0  0  0  0  0  0  0  0  0  0  0  0
    4.7023   -4.9210    6.7481 H   0  0  0  0  0  0  0  0  0  0  0  0
    2.1889   -2.5956    8.4177 H   0  0  0  0  0  0  0  0  0  0  0  0
   -0.2536   -2.8894    8.2153 H   0  0  0  0  0  0  0  0  0  0  0  0
   -1.1852   -4.7718    6.8990 H   0  0  0  0  0  0  0  0  0  0  0  0
    2.7962   -6.1330    6.0143 H   0  0  0  0  0  0  0  0  0  0  0  0
    6.8896   -1.2303    5.8040 H   0  0  0  0  0  0  0  0  0  0  0  0
    6.5700    1.3339    2.6223 H   0  0  0  0  0  0  0  0  0  0  0  0
    4.7028    1.1793    0.9638 H   0  0  0  0  0  0  0  0  0  0  0  0
  1  2  1  0  0  0  0
  1 25  1  0  0  0  0
  2  3  2  0  0  0  0
  2  4  1  0  0  0  0
  4  5  1  0  0  0  0
  4 24  2  0  0  0  0
  5  6  2  0  0  0  0
  5 26  1  0  0  0  0
  6  7  1  0  0  0  0
  6 27  1  0  0  0  0
  7  8  1  0  0  0  0
  7 23  2  0  0  0  0
  8  9  1  0  0  0  0
  8 20  2  0  0  0  0
  9 10  1  0  0  0  0
  9 28  1  0  0  0  0
 10 11  2  0  0  0  0
 10 12  1  0  0  0  0
 12 13  1  0  0  0  0
 12 29  1  0  0  0  0
 12 30  1  0  0  0  0
 13 14  1  0  0  0  0
 13 19  2  0  0  0  0
 14 15  2  0  0  0  0
 14 31  1  0  0  0  0
 15 16  1  0  0  0  0
 15 32  1  0  0  0  0
 16 17  2  0  0  0  0
 16 33  1  0  0  0  0
 17 18  1  0  0  0  0
 17 19  1  0  0  0  0
 19 34  1  0  0  0  0
 20 21  1  0  0  0  0
 20 35  1  0  0  0  0
 21 22  2  0  0  0  0
 22 23  1  0  0  0  0
 22 36  1  0  0  0  0
 23 24  1  0  0  0  0
 24 37  1  0  0  0  0
M  END
$$$$
