
 OpenBabel07202414173D

 39 42  0  0  0  0  0  0  0  0999 V2000
    1.2638    0.4501    0.8019 Cl  0  0  0  0  0  0  0  0  0  0  0  0
    2.9428    0.1628    0.5593 C   0  0  0  0  0  0  0  0  0  0  0  0
    3.8184    1.2379    0.4813 C   0  0  0  0  0  0  0  0  0  0  0  0
    5.1697    1.0027    0.2561 C   0  0  0  0  0  0  0  0  0  0  0  0
    5.6405   -0.3086    0.1340 C   0  0  0  0  0  0  0  0  0  0  0  0
    4.7711   -1.4157    0.2427 C   0  0  0  0  0  0  0  0  0  0  0  0
    3.4065   -1.1529    0.4348 C   0  0  0  0  0  0  0  0  0  0  0  0
    5.3000   -2.7536    0.1395 N   0  0  0  0  0  0  0  0  0  0  0  0
    4.5765   -3.8995    0.5458 C   0  0  0  0  0  0  0  0  0  0  0  0
    3.4616   -3.8842    1.0375 O   0  0  0  0  0  0  0  0  0  0  0  0
    5.3166   -5.2217    0.4088 C   0  0  0  0  0  0  0  0  0  0  0  0
    4.5311   -6.4842    0.6913 C   0  0  0  0  0  0  0  0  0  0  0  0
    4.6575   -7.0985    1.9388 C   0  0  0  0  0  0  0  0  0  0  0  0
    4.3646   -8.3929    2.1688 N   0  0  0  0  0  0  0  0  0  0  0  0
    3.7720   -9.0604    1.1546 C   0  0  0  0  0  0  0  0  0  0  0  0
    3.3267   -8.4646   -0.0212 C   0  0  0  0  0  0  0  0  0  0  0  0
    2.4618   -9.1275   -0.9138 C   0  0  0  0  0  0  0  0  0  0  0  0
    2.0517   -8.5019   -2.0886 C   0  0  0  0  0  0  0  0  0  0  0  0
    2.5532   -7.2462   -2.4104 C   0  0  0  0  0  0  0  0  0  0  0  0
    3.4084   -6.5809   -1.5285 C   0  0  0  0  0  0  0  0  0  0  0  0
    3.7688   -7.1521   -0.2902 C   0  0  0  0  0  0  0  0  0  0  0  0
    6.6643   -2.7883   -0.4223 C   0  0  0  0  0  0  0  0  0  0  0  0
    7.5264   -1.6910    0.1817 C   0  0  0  0  0  0  0  0  0  0  0  0
    6.9932   -0.3985   -0.0955 O   0  0  0  0  0  0  0  0  0  0  0  0
    3.4535    2.2574    0.5906 H   0  0  0  0  0  0  0  0  0  0  0  0
    5.8617    1.8394    0.1885 H   0  0  0  0  0  0  0  0  0  0  0  0
    2.6678   -1.9430    0.4683 H   0  0  0  0  0  0  0  0  0  0  0  0
    6.1751   -5.1915    1.0928 H   0  0  0  0  0  0  0  0  0  0  0  0
    5.7217   -5.3114   -0.6057 H   0  0  0  0  0  0  0  0  0  0  0  0
    5.0430   -6.5624    2.8035 H   0  0  0  0  0  0  0  0  0  0  0  0
    3.6879  -10.1327    1.3076 H   0  0  0  0  0  0  0  0  0  0  0  0
    2.0559  -10.1028   -0.6627 H   0  0  0  0  0  0  0  0  0  0  0  0
    1.3354   -8.9876   -2.7444 H   0  0  0  0  0  0  0  0  0  0  0  0
    2.2542   -6.7636   -3.3345 H   0  0  0  0  0  0  0  0  0  0  0  0
    3.7376   -5.5839   -1.7997 H   0  0  0  0  0  0  0  0  0  0  0  0
    6.5626   -2.6401   -1.5057 H   0  0  0  0  0  0  0  0  0  0  0  0
    7.1560   -3.7485   -0.2640 H   0  0  0  0  0  0  0  0  0  0  0  0
    8.5313   -1.7270   -0.2537 H   0  0  0  0  0  0  0  0  0  0  0  0
    7.6330   -1.8109    1.2666 H   0  0  0  0  0  0  0  0  0  0  0  0
  1  2  1  0  0  0  0
  2  3  1  0  0  0  0
  2  7  2  0  0  0  0
  3  4  2  0  0  0  0
  3 25  1  0  0  0  0
  4  5  1  0  0  0  0
  4 26  1  0  0  0  0
  5  6  2  0  0  0  0
  5 24  1  0  0  0  0
  6  7  1  0  0  0  0
  6  8  1  0  0  0  0
  7 27  1  0  0  0  0
  8  9  1  0  0  0  0
  8 22  1  0  0  0  0
  9 10  2  0  0  0  0
  9 11  1  0  0  0  0
 11 12  1  0  0  0  0
 11 28  1  0  0  0  0
 11 29  1  0  0  0  0
 12 13  1  0  0  0  0
 12 21  2  0  0  0  0
 13 14  2  0  0  0  0
 13 30  1  0  0  0  0
 14 15  1  0  0  0  0
 15 16  2  0  0  0  0
 15 31  1  0  0  0  0
 16 17  1  0  0  0  0
 16 21  1  0  0  0  0
 17 18  2  0  0  0  0
 17 32  1  0  0  0  0
 18 19  1  0  0  0  0
 18 33  1  0  0  0  0
 19 20  2  0  0  0  0
 19 34  1  0  0  0  0
 20 21  1  0  0  0  0
 20 35  1  0  0  0  0
 22 23  1  0  0  0  0
 22 36  1  0  0  0  0
 22 37  1  0  0  0  0
 23 24  1  0  0  0  0
 23 38  1  0  0  0  0
 23 39  1  0  0  0  0
M  END
$$$$
