
 OpenBabel07202414143D

 54 58  0  0  1  0  0  0  0  0999 V2000
    6.5716   -1.7415    2.6047 C   0  0  0  0  0  0  0  0  0  0  0  0
    6.1827   -1.8639    1.2200 N   0  0  0  0  0  0  0  0  0  0  0  0
    4.9935   -1.3325    0.7813 C   0  0  0  0  0  0  0  0  0  0  0  0
    4.2028   -0.7674    1.5312 O   0  0  0  0  0  0  0  0  0  0  0  0
    4.7472   -1.4052   -0.7212 C   0  0  0  0  0  0  0  0  0  0  0  0
    5.4428   -2.4998   -1.4461 N   0  0  0  0  0  0  0  0  0  0  0  0
    4.9341   -3.8266   -1.0561 C   0  0  0  0  0  0  0  0  0  0  0  0
    3.6411   -4.2584   -1.7191 C   0  0  0  0  0  0  0  0  0  0  0  0
    2.8817   -5.2557   -1.0811 C   0  0  0  0  0  0  0  0  0  0  0  0
    1.6783   -5.6948   -1.6274 C   0  0  0  0  0  0  0  0  0  0  0  0
    1.2400   -5.1636   -2.8346 C   0  0  0  0  0  0  0  0  0  0  0  0
   -0.2785   -5.6575   -3.4767 Cl  0  0  0  0  0  0  0  0  0  0  0  0
    1.9976   -4.2012   -3.5058 C   0  0  0  0  0  0  0  0  0  0  0  0
    3.2041   -3.7255   -2.9547 C   0  0  0  0  0  0  0  0  0  0  0  0
    3.9304   -2.5177   -3.5636 C   0  0  2  0  0  0  0  0  0  0  0  0
    3.0791   -1.2817   -3.2657 C   0  0  0  0  0  0  0  0  0  0  0  0
    2.8199   -0.5972   -4.5648 C   0  0  0  0  0  0  0  0  0  0  0  0
    3.3266   -1.3925   -5.6292 N   0  0  0  0  0  0  0  0  0  0  0  0
    2.9809   -1.0745   -6.9995 C   0  0  0  0  0  0  0  0  0  0  0  0
    3.1693   -2.0261   -8.0064 C   0  0  0  0  0  0  0  0  0  0  0  0
    2.6647   -1.9373   -9.2627 N   0  0  0  0  0  0  0  0  0  0  0  0
    1.9701   -0.8242   -9.5666 C   0  0  0  0  0  0  0  0  0  0  0  0
    1.8176    0.2681   -8.7221 C   0  0  0  0  0  0  0  0  0  0  0  0
    1.1697    1.4344   -9.1994 C   0  0  0  0  0  0  0  0  0  0  0  0
    1.0365    2.5664   -8.4050 C   0  0  0  0  0  0  0  0  0  0  0  0
    1.5387    2.5248   -7.1277 C   0  0  0  0  0  0  0  0  0  0  0  0
    1.4374    3.5965   -6.3303 F   0  0  0  0  0  0  0  0  0  0  0  0
    2.1713    1.3796   -6.6471 C   0  0  0  0  0  0  0  0  0  0  0  0
    2.3390    0.1767   -7.4044 C   0  0  0  0  0  0  0  0  0  0  0  0
    4.0077   -2.5281   -5.1193 C   0  0  0  0  0  0  0  0  0  0  0  0
    4.5741   -3.3958   -5.7696 O   0  0  0  0  0  0  0  0  0  0  0  0
    5.3514   -2.3781   -2.9355 C   0  0  0  0  0  0  0  0  0  0  0  0
    7.4101   -2.4114    2.8007 H   0  0  0  0  0  0  0  0  0  0  0  0
    5.7285   -1.9985    3.2570 H   0  0  0  0  0  0  0  0  0  0  0  0
    6.8657   -0.7056    2.8030 H   0  0  0  0  0  0  0  0  0  0  0  0
    6.8274   -2.2201    0.5252 H   0  0  0  0  0  0  0  0  0  0  0  0
    5.0910   -0.4394   -1.1126 H   0  0  0  0  0  0  0  0  0  0  0  0
    3.6612   -1.4853   -0.8202 H   0  0  0  0  0  0  0  0  0  0  0  0
    4.8145   -3.8794    0.0328 H   0  0  0  0  0  0  0  0  0  0  0  0
    5.7002   -4.5714   -1.3058 H   0  0  0  0  0  0  0  0  0  0  0  0
    3.2158   -5.6788   -0.1348 H   0  0  0  0  0  0  0  0  0  0  0  0
    1.0868   -6.4390   -1.1008 H   0  0  0  0  0  0  0  0  0  0  0  0
    1.6149   -3.7928   -4.4386 H   0  0  0  0  0  0  0  0  0  0  0  0
    3.5925   -0.5380   -2.6568 H   0  0  0  0  0  0  0  0  0  0  0  0
    2.1370   -1.4985   -2.7501 H   0  0  0  0  0  0  0  0  0  0  0  0
    3.3998    0.3255   -4.5370 H   0  0  0  0  0  0  0  0  0  0  0  0
    1.7459   -0.4308   -4.6895 H   0  0  0  0  0  0  0  0  0  0  0  0
    3.7188   -2.9482   -7.8469 H   0  0  0  0  0  0  0  0  0  0  0  0
    1.5323   -0.8277  -10.5631 H   0  0  0  0  0  0  0  0  0  0  0  0
    0.7828    1.4746  -10.2164 H   0  0  0  0  0  0  0  0  0  0  0  0
    0.5690    3.4733   -8.7725 H   0  0  0  0  0  0  0  0  0  0  0  0
    2.5561    1.5164   -5.6514 H   0  0  0  0  0  0  0  0  0  0  0  0
    5.8066   -1.4276   -3.2448 H   0  0  0  0  0  0  0  0  0  0  0  0
    6.0111   -3.1478   -3.3637 H   0  0  0  0  0  0  0  0  0  0  0  0
  1  2  1  0  0  0  0
  1 33  1  0  0  0  0
  1 34  1  0  0  0  0
  1 35  1  0  0  0  0
  2  3  1  0  0  0  0
  2 36  1  0  0  0  0
  3  4  2  0  0  0  0
  3  5  1  0  0  0  0
  5  6  1  0  0  0  0
  5 37  1  0  0  0  0
  5 38  1  0  0  0  0
  6  7  1  0  0  0  0
  6 32  1  0  0  0  0
  7  8  1  0  0  0  0
  7 39  1  0  0  0  0
  7 40  1  0  0  0  0
  8  9  1  0  0  0  0
  8 14  2  0  0  0  0
  9 10  2  0  0  0  0
  9 41  1  0  0  0  0
 10 11  1  0  0  0  0
 10 42  1  0  0  0  0
 11 12  1  0  0  0  0
 11 13  2  0  0  0  0
 13 14  1  0  0  0  0
 13 43  1  0  0  0  0
 15 14  1  1  0  0  0
 15 16  1  0  0  0  0
 15 30  1  0  0  0  0
 15 32  1  0  0  0  0
 16 17  1  0  0  0  0
 16 44  1  0  0  0  0
 16 45  1  0  0  0  0
 17 18  1  0  0  0  0
 17 46  1  0  0  0  0
 17 47  1  0  0  0  0
 18 19  1  0  0  0  0
 18 30  1  0  0  0  0
 19 20  1  0  0  0  0
 19 29  2  0  0  0  0
 20 21  2  0  0  0  0
 20 48  1  0  0  0  0
 21 22  1  0  0  0  0
 22 23  2  0  0  0  0
 22 49  1  0  0  0  0
 23 24  1  0  0  0  0
 23 29  1  0  0  0  0
 24 25  2  0  0  0  0
 24 50  1  0  0  0  0
 25 26  1  0  0  0  0
 25 51  1  0  0  0  0
 26 27  1  0  0  0  0
 26 28  2  0  0  0  0
 28 29  1  0  0  0  0
 28 52  1  0  0  0  0
 30 31  2  0  0  0  0
 32 53  1  0  0  0  0
 32 54  1  0  0  0  0
M  END
$$$$
