
 OpenBabel07202414193D

 40 43  0  0  1  0  0  0  0  0999 V2000
    3.2384   -3.8591   -7.1011 N   0  0  0  0  0  0  0  0  0  0  0  0
    4.4133   -3.3405   -6.6246 C   0  0  0  0  0  0  0  0  0  0  0  0
    5.4755   -3.8446   -6.9781 O   0  0  0  0  0  0  0  0  0  0  0  0
    4.3111   -2.2005   -5.7286 C   0  0  0  0  0  0  0  0  0  0  0  0
    5.3467   -1.4603   -5.1832 C   0  0  0  0  0  0  0  0  0  0  0  0
    4.9163   -0.3642   -4.3473 C   0  0  0  0  0  0  0  0  0  0  0  0
    5.6133    0.6099   -3.5791 C   0  0  0  0  0  0  0  0  0  0  0  0
    7.0204    0.6983   -3.4441 N   0  0  0  0  0  0  0  0  0  0  0  0
    7.8986    0.7700   -4.5011 C   0  0  0  0  0  0  0  0  0  0  0  0
    7.5720    0.6591   -5.6801 O   0  0  0  0  0  0  0  0  0  0  0  0
    9.3841    0.9550   -4.1177 C   0  0  3  0  0  0  0  0  0  0  0  0
   10.0118   -0.4374   -3.9568 C   0  0  0  0  0  0  0  0  0  0  0  0
   10.3820   -0.7732   -2.5233 C   0  0  0  0  0  0  0  0  0  0  0  0
   11.1256    0.2601   -1.8898 O   0  0  0  0  0  0  0  0  0  0  0  0
   10.4542    1.4485   -1.8728 C   0  0  0  0  0  0  0  0  0  0  0  0
   10.6646    2.2527   -0.7514 C   0  0  0  0  0  0  0  0  0  0  0  0
   10.0846    3.5161   -0.6820 C   0  0  0  0  0  0  0  0  0  0  0  0
    9.3469    3.9865   -1.7649 C   0  0  0  0  0  0  0  0  0  0  0  0
    8.6985    5.5797   -1.7164 Cl  0  0  0  0  0  0  0  0  0  0  0  0
    9.1300    3.1792   -2.8879 C   0  0  0  0  0  0  0  0  0  0  0  0
    9.6487    1.8728   -2.9356 C   0  0  0  0  0  0  0  0  0  0  0  0
    4.8353    1.5016   -2.8454 C   0  0  0  0  0  0  0  0  0  0  0  0
    3.4916    1.5161   -2.8034 N   0  0  0  0  0  0  0  0  0  0  0  0
    2.8236    0.5831   -3.5077 C   0  0  0  0  0  0  0  0  0  0  0  0
    3.5172   -0.3546   -4.2751 C   0  0  0  0  0  0  0  0  0  0  0  0
    2.8005   -1.6121   -5.2008 S   0  0  0  0  0  0  0  0  0  0  0  0
    3.2873   -4.6063   -7.7790 H   0  0  0  0  0  0  0  0  0  0  0  0
    2.3465   -3.4321   -6.8947 H   0  0  0  0  0  0  0  0  0  0  0  0
    6.3856   -1.6899   -5.3965 H   0  0  0  0  0  0  0  0  0  0  0  0
    7.3316    1.1741   -2.5999 H   0  0  0  0  0  0  0  0  0  0  0  0
    9.8547    1.4370   -4.9887 H   0  0  0  0  0  0  0  0  0  0  0  0
   10.9239   -0.4691   -4.5661 H   0  0  0  0  0  0  0  0  0  0  0  0
    9.3564   -1.2263   -4.3455 H   0  0  0  0  0  0  0  0  0  0  0  0
   11.0162   -1.6671   -2.5176 H   0  0  0  0  0  0  0  0  0  0  0  0
    9.5005   -1.0026   -1.9131 H   0  0  0  0  0  0  0  0  0  0  0  0
   11.2767    1.8870    0.0700 H   0  0  0  0  0  0  0  0  0  0  0  0
   10.2327    4.1296    0.2032 H   0  0  0  0  0  0  0  0  0  0  0  0
    8.5639    3.5794   -3.7272 H   0  0  0  0  0  0  0  0  0  0  0  0
    5.3023    2.2990   -2.2739 H   0  0  0  0  0  0  0  0  0  0  0  0
    1.7407    0.6010   -3.4342 H   0  0  0  0  0  0  0  0  0  0  0  0
  1  2  1  0  0  0  0
  1 27  1  0  0  0  0
  1 28  1  0  0  0  0
  2  3  2  0  0  0  0
  2  4  1  0  0  0  0
  4  5  2  0  0  0  0
  4 26  1  0  0  0  0
  5  6  1  0  0  0  0
  5 29  1  0  0  0  0
  6  7  1  0  0  0  0
  6 25  2  0  0  0  0
  7  8  1  0  0  0  0
  7 22  2  0  0  0  0
  8  9  1  0  0  0  0
  8 30  1  0  0  0  0
  9 10  2  0  0  0  0
  9 11  1  0  0  0  0
 11 12  1  0  0  0  0
 11 21  1  0  0  0  0
 11 31  1  0  0  0  0
 12 13  1  0  0  0  0
 12 32  1  0  0  0  0
 12 33  1  0  0  0  0
 13 14  1  0  0  0  0
 13 34  1  0  0  0  0
 13 35  1  0  0  0  0
 14 15  1  0  0  0  0
 15 16  1  0  0  0  0
 15 21  2  0  0  0  0
 16 17  2  0  0  0  0
 16 36  1  0  0  0  0
 17 18  1  0  0  0  0
 17 37  1  0  0  0  0
 18 19  1  0  0  0  0
 18 20  2  0  0  0  0
 20 21  1  0  0  0  0
 20 38  1  0  0  0  0
 22 23  1  0  0  0  0
 22 39  1  0  0  0  0
 23 24  2  0  0  0  0
 24 25  1  0  0  0  0
 24 40  1  0  0  0  0
 25 26  1  0  0  0  0
M  END
$$$$
