
 OpenBabel07202414123D

 66 69  0  0  1  0  0  0  0  0999 V2000
    1.0903   -0.4478    0.0606 C   0  0  0  0  0  0  0  0  0  0  0  0
    2.6267   -0.2457    0.0042 C   0  0  0  0  0  0  0  0  0  0  0  0
    3.1520   -0.0462    1.4376 C   0  0  0  0  0  0  0  0  0  0  0  0
    3.2052   -1.5576   -0.5724 C   0  0  0  0  0  0  0  0  0  0  0  0
    3.0276    0.9850   -0.8156 C   0  0  0  0  0  0  0  0  0  0  0  0
    2.1736    2.0653   -0.9859 C   0  0  0  0  0  0  0  0  0  0  0  0
    2.5064    3.1557   -1.8055 C   0  0  0  0  0  0  0  0  0  0  0  0
    3.7279    3.2503   -2.4873 C   0  0  0  0  0  0  0  0  0  0  0  0
    4.0079    4.3086   -3.4737 N   0  0  0  0  0  0  0  0  0  0  0  0
    5.1359    4.1109   -4.4362 C   0  0  3  0  0  0  0  0  0  0  0  0
    6.5035    4.6407   -3.9004 C   0  0  0  0  0  0  0  0  0  0  0  0
    7.1610    4.0609   -3.0417 O   0  0  0  0  0  0  0  0  0  0  0  0
    6.9639    5.8128   -4.5014 N   0  0  0  0  0  0  0  0  0  0  0  0
    8.3106    6.2964   -4.2189 C   0  0  0  0  0  0  0  0  0  0  0  0
    8.5952    7.6723   -4.8265 C   0  0  0  0  0  0  0  0  0  0  0  0
   10.0036    8.1386   -4.5385 C   0  0  0  0  0  0  0  0  0  0  0  0
   10.2843    8.8867   -3.3808 C   0  0  0  0  0  0  0  0  0  0  0  0
   11.5864    9.2976   -3.0942 C   0  0  0  0  0  0  0  0  0  0  0  0
   12.6304    8.9645   -3.9554 C   0  0  0  0  0  0  0  0  0  0  0  0
   12.3664    8.2221   -5.0968 C   0  0  0  0  0  0  0  0  0  0  0  0
   13.3602    7.8977   -5.9271 F   0  0  0  0  0  0  0  0  0  0  0  0
   11.0596    7.8056   -5.3974 C   0  0  0  0  0  0  0  0  0  0  0  0
    5.2323    2.7780   -5.1973 C   0  0  0  0  0  0  0  0  0  0  0  0
    4.1164    1.9738   -5.4769 C   0  0  0  0  0  0  0  0  0  0  0  0
    4.2391    0.8615   -6.3111 C   0  0  0  0  0  0  0  0  0  0  0  0
    5.4719    0.5944   -6.8777 C   0  0  0  0  0  0  0  0  0  0  0  0
    6.5702    1.3379   -6.6431 N   0  0  0  0  0  0  0  0  0  0  0  0
    6.4300    2.3937   -5.8092 C   0  0  0  0  0  0  0  0  0  0  0  0
    3.2359    5.5258   -3.4585 C   0  0  0  0  0  0  0  0  0  0  0  0
    2.3102    5.6942   -2.6664 O   0  0  0  0  0  0  0  0  0  0  0  0
    3.5534    6.6621   -4.3292 C   0  0  0  0  0  0  0  0  0  0  0  0
    3.9315    6.8575   -5.6478 C   0  0  0  0  0  0  0  0  0  0  0  0
    4.1790    8.2394   -5.9052 C   0  0  0  0  0  0  0  0  0  0  0  0
    3.8853    9.0943   -4.9364 N   0  0  0  0  0  0  0  0  0  0  0  0
    3.2890    8.2393   -3.6527 S   0  0  0  0  0  0  0  0  0  0  0  0
    4.6347    2.2263   -2.2042 C   0  0  0  0  0  0  0  0  0  0  0  0
    4.2991    1.1122   -1.4114 C   0  0  0  0  0  0  0  0  0  0  0  0
    0.8289   -1.3606    0.6085 H   0  0  0  0  0  0  0  0  0  0  0  0
    0.6675   -0.5359   -0.9488 H   0  0  0  0  0  0  0  0  0  0  0  0
    0.5765    0.3741    0.5698 H   0  0  0  0  0  0  0  0  0  0  0  0
    2.8784   -0.8880    2.0815 H   0  0  0  0  0  0  0  0  0  0  0  0
    2.7424    0.8662    1.8882 H   0  0  0  0  0  0  0  0  0  0  0  0
    4.2467    0.0448    1.4524 H   0  0  0  0  0  0  0  0  0  0  0  0
    2.8668   -2.4243    0.0145 H   0  0  0  0  0  0  0  0  0  0  0  0
    4.2981   -1.5794   -0.5502 H   0  0  0  0  0  0  0  0  0  0  0  0
    2.8824   -1.7147   -1.6053 H   0  0  0  0  0  0  0  0  0  0  0  0
    1.2053    2.1021   -0.4938 H   0  0  0  0  0  0  0  0  0  0  0  0
    1.7133    3.8898   -1.8927 H   0  0  0  0  0  0  0  0  0  0  0  0
    4.9123    4.7434   -5.2828 H   0  0  0  0  0  0  0  0  0  0  0  0
    6.5178    6.1534   -5.3379 H   0  0  0  0  0  0  0  0  0  0  0  0
    9.0081    5.5516   -4.6210 H   0  0  0  0  0  0  0  0  0  0  0  0
    8.4467    6.3187   -3.1317 H   0  0  0  0  0  0  0  0  0  0  0  0
    7.8795    8.4120   -4.4470 H   0  0  0  0  0  0  0  0  0  0  0  0
    8.4391    7.6478   -5.9142 H   0  0  0  0  0  0  0  0  0  0  0  0
    9.4815    9.1529   -2.6965 H   0  0  0  0  0  0  0  0  0  0  0  0
   11.7885    9.8791   -2.1998 H   0  0  0  0  0  0  0  0  0  0  0  0
   13.6480    9.2700   -3.7426 H   0  0  0  0  0  0  0  0  0  0  0  0
   10.8942    7.2273   -6.3027 H   0  0  0  0  0  0  0  0  0  0  0  0
    3.1401    2.1956   -5.0516 H   0  0  0  0  0  0  0  0  0  0  0  0
    3.3875    0.2251   -6.5268 H   0  0  0  0  0  0  0  0  0  0  0  0
    5.6120   -0.2411   -7.5579 H   0  0  0  0  0  0  0  0  0  0  0  0
    7.3551    2.9496   -5.6729 H   0  0  0  0  0  0  0  0  0  0  0  0
    4.0612    6.0946   -6.4014 H   0  0  0  0  0  0  0  0  0  0  0  0
    4.5752    8.6570   -6.8221 H   0  0  0  0  0  0  0  0  0  0  0  0
    5.6540    2.2370   -2.5861 H   0  0  0  0  0  0  0  0  0  0  0  0
    5.0596    0.3472   -1.2655 H   0  0  0  0  0  0  0  0  0  0  0  0
  1  2  1  0  0  0  0
  1 38  1  0  0  0  0
  1 39  1  0  0  0  0
  1 40  1  0  0  0  0
  2  3  1  0  0  0  0
  2  4  1  0  0  0  0
  2  5  1  0  0  0  0
  3 41  1  0  0  0  0
  3 42  1  0  0  0  0
  3 43  1  0  0  0  0
  4 44  1  0  0  0  0
  4 45  1  0  0  0  0
  4 46  1  0  0  0  0
  5  6  1  0  0  0  0
  5 37  2  0  0  0  0
  6  7  2  0  0  0  0
  6 47  1  0  0  0  0
  7  8  1  0  0  0  0
  7 48  1  0  0  0  0
  8  9  1  0  0  0  0
  8 36  2  0  0  0  0
  9 10  1  0  0  0  0
  9 29  1  0  0  0  0
 10 11  1  0  0  0  0
 10 23  1  0  0  0  0
 10 49  1  0  0  0  0
 11 12  2  0  0  0  0
 11 13  1  0  0  0  0
 13 14  1  0  0  0  0
 13 50  1  0  0  0  0
 14 15  1  0  0  0  0
 14 51  1  0  0  0  0
 14 52  1  0  0  0  0
 15 16  1  0  0  0  0
 15 53  1  0  0  0  0
 15 54  1  0  0  0  0
 16 17  1  0  0  0  0
 16 22  2  0  0  0  0
 17 18  2  0  0  0  0
 17 55  1  0  0  0  0
 18 19  1  0  0  0  0
 18 56  1  0  0  0  0
 19 20  2  0  0  0  0
 19 57  1  0  0  0  0
 20 21  1  0  0  0  0
 20 22  1  0  0  0  0
 22 58  1  0  0  0  0
 23 24  1  0  0  0  0
 23 28  2  0  0  0  0
 24 25  2  0  0  0  0
 24 59  1  0  0  0  0
 25 26  1  0  0  0  0
 25 60  1  0  0  0  0
 26 27  2  0  0  0  0
 26 61  1  0  0  0  0
 27 28  1  0  0  0  0
 28 62  1  0  0  0  0
 29 30  2  0  0  0  0
 29 31  1  0  0  0  0
 31 32  2  0  0  0  0
 31 35  1  0  0  0  0
 32 33  1  0  0  0  0
 32 63  1  0  0  0  0
 33 34  2  0  0  0  0
 33 64  1  0  0  0  0
 34 35  1  0  0  0  0
 36 37  1  0  0  0  0
 36 65  1  0  0  0  0
 37 66  1  0  0  0  0
M  END
$$$$
