
 OpenBabel07202414193D

 47 50  0  0  0  0  0  0  0  0999 V2000
    1.2132   -0.3835   -0.5035 O   0  0  0  0  0  0  0  0  0  0  0  0
    2.2571    0.0508   -0.0124 C   0  0  0  0  0  0  0  0  0  0  0  0
    2.7298    1.4536   -0.3616 C   0  0  0  0  0  0  0  0  0  0  0  0
    3.8165    1.4624   -1.4157 C   0  0  0  0  0  0  0  0  0  0  0  0
    3.7636    0.5282   -2.4576 C   0  0  0  0  0  0  0  0  0  0  0  0
    4.6640    0.4389   -3.4570 N   0  0  0  0  0  0  0  0  0  0  0  0
    5.6615    1.3427   -3.4461 C   0  0  0  0  0  0  0  0  0  0  0  0
    5.8213    2.3353   -2.4786 C   0  0  0  0  0  0  0  0  0  0  0  0
    6.8905    3.2443   -2.5451 C   0  0  0  0  0  0  0  0  0  0  0  0
    7.0497    4.2257   -1.5704 C   0  0  0  0  0  0  0  0  0  0  0  0
    6.1383    4.3108   -0.5264 C   0  0  0  0  0  0  0  0  0  0  0  0
    5.0651    3.4172   -0.4575 C   0  0  0  0  0  0  0  0  0  0  0  0
    4.8763    2.4051   -1.4300 C   0  0  0  0  0  0  0  0  0  0  0  0
    3.0782   -0.7181    0.8020 N   0  0  0  0  0  0  0  0  0  0  0  0
    4.2558   -0.2180    1.5065 C   0  0  0  0  0  0  0  0  0  0  0  0
    5.4443   -1.1604    1.3453 C   0  0  0  0  0  0  0  0  0  0  0  0
    5.1016   -2.6045    1.7497 C   0  0  0  0  0  0  0  0  0  0  0  0
    4.9936   -2.8591    3.2543 C   0  0  0  0  0  0  0  0  0  0  0  0
    5.2412   -1.8702    4.2237 C   0  0  0  0  0  0  0  0  0  0  0  0
    5.1257   -2.1469    5.5912 C   0  0  0  0  0  0  0  0  0  0  0  0
    4.7813   -3.4241    6.0153 C   0  0  0  0  0  0  0  0  0  0  0  0
    4.5702   -4.4091    5.0691 C   0  0  0  0  0  0  0  0  0  0  0  0
    4.2530   -5.6504    5.4699 F   0  0  0  0  0  0  0  0  0  0  0  0
    4.6801   -4.1458    3.7069 C   0  0  0  0  0  0  0  0  0  0  0  0
    3.8449   -3.0478    0.9643 C   0  0  0  0  0  0  0  0  0  0  0  0
    2.6755   -2.0817    1.1343 C   0  0  0  0  0  0  0  0  0  0  0  0
    3.0272    1.9407    0.5708 H   0  0  0  0  0  0  0  0  0  0  0  0
    1.8714    2.0309   -0.7246 H   0  0  0  0  0  0  0  0  0  0  0  0
    2.9723   -0.2168   -2.5197 H   0  0  0  0  0  0  0  0  0  0  0  0
    6.3591    1.2445   -4.2735 H   0  0  0  0  0  0  0  0  0  0  0  0
    7.6106    3.1907   -3.3596 H   0  0  0  0  0  0  0  0  0  0  0  0
    7.8798    4.9224   -1.6281 H   0  0  0  0  0  0  0  0  0  0  0  0
    6.2580    5.0745    0.2406 H   0  0  0  0  0  0  0  0  0  0  0  0
    4.3774    3.5335    0.3754 H   0  0  0  0  0  0  0  0  0  0  0  0
    3.9603   -0.0883    2.5520 H   0  0  0  0  0  0  0  0  0  0  0  0
    4.5672    0.7643    1.1566 H   0  0  0  0  0  0  0  0  0  0  0  0
    6.3082   -0.7796    1.9014 H   0  0  0  0  0  0  0  0  0  0  0  0
    5.7437   -1.1554    0.2884 H   0  0  0  0  0  0  0  0  0  0  0  0
    5.9405   -3.2299    1.4106 H   0  0  0  0  0  0  0  0  0  0  0  0
    5.5339   -0.8594    3.9559 H   0  0  0  0  0  0  0  0  0  0  0  0
    5.3097   -1.3619    6.3197 H   0  0  0  0  0  0  0  0  0  0  0  0
    4.6886   -3.6549    7.0705 H   0  0  0  0  0  0  0  0  0  0  0  0
    4.5225   -4.9672    3.0137 H   0  0  0  0  0  0  0  0  0  0  0  0
    3.5226   -4.0581    1.2341 H   0  0  0  0  0  0  0  0  0  0  0  0
    4.1038   -3.0879   -0.1025 H   0  0  0  0  0  0  0  0  0  0  0  0
    2.3056   -2.0812    2.1661 H   0  0  0  0  0  0  0  0  0  0  0  0
    1.8483   -2.4095    0.4947 H   0  0  0  0  0  0  0  0  0  0  0  0
  1  2  2  0  0  0  0
  2  3  1  0  0  0  0
  2 14  1  0  0  0  0
  3  4  1  0  0  0  0
  3 27  1  0  0  0  0
  3 28  1  0  0  0  0
  4  5  1  0  0  0  0
  4 13  2  0  0  0  0
  5  6  2  0  0  0  0
  5 29  1  0  0  0  0
  6  7  1  0  0  0  0
  7  8  2  0  0  0  0
  7 30  1  0  0  0  0
  8  9  1  0  0  0  0
  8 13  1  0  0  0  0
  9 10  2  0  0  0  0
  9 31  1  0  0  0  0
 10 11  1  0  0  0  0
 10 32  1  0  0  0  0
 11 12  2  0  0  0  0
 11 33  1  0  0  0  0
 12 13  1  0  0  0  0
 12 34  1  0  0  0  0
 14 15  1  0  0  0  0
 14 26  1  0  0  0  0
 15 16  1  0  0  0  0
 15 35  1  0  0  0  0
 15 36  1  0  0  0  0
 16 17  1  0  0  0  0
 16 37  1  0  0  0  0
 16 38  1  0  0  0  0
 17 18  1  0  0  0  0
 17 25  1  0  0  0  0
 17 39  1  0  0  0  0
 18 19  1  0  0  0  0
 18 24  2  0  0  0  0
 19 20  2  0  0  0  0
 19 40  1  0  0  0  0
 20 21  1  0  0  0  0
 20 41  1  0  0  0  0
 21 22  2  0  0  0  0
 21 42  1  0  0  0  0
 22 23  1  0  0  0  0
 22 24  1  0  0  0  0
 24 43  1  0  0  0  0
 25 26  1  0  0  0  0
 25 44  1  0  0  0  0
 25 45  1  0  0  0  0
 26 46  1  0  0  0  0
 26 47  1  0  0  0  0
M  END
$$$$
