
 OpenBabel07202414133D

 42 44  0  0  0  0  0  0  0  0999 V2000
    1.3525    0.6411   -0.0891 C   0  0  0  0  0  0  0  0  0  0  0  0
    2.4596   -0.1892    0.3747 N   0  0  0  0  0  0  0  0  0  0  0  0
    3.1631    0.2665    1.5714 C   0  0  0  0  0  0  0  0  0  0  0  0
    3.1205   -1.0358   -0.5153 C   0  0  0  0  0  0  0  0  0  0  0  0
    2.8184   -1.0753   -1.8848 C   0  0  0  0  0  0  0  0  0  0  0  0
    3.4609   -1.9545   -2.7692 C   0  0  0  0  0  0  0  0  0  0  0  0
    4.4307   -2.8711   -2.3240 C   0  0  0  0  0  0  0  0  0  0  0  0
    5.1239   -3.7800   -3.1541 C   0  0  0  0  0  0  0  0  0  0  0  0
    4.7733   -3.9242   -4.5203 N   0  0  0  0  0  0  0  0  0  0  0  0
    5.7201   -4.0233   -5.5261 C   0  0  0  0  0  0  0  0  0  0  0  0
    6.9344   -3.9477   -5.3550 O   0  0  0  0  0  0  0  0  0  0  0  0
    5.1228   -4.1857   -6.9150 C   0  0  0  0  0  0  0  0  0  0  0  0
    4.6360   -2.8834   -7.5041 C   0  0  0  0  0  0  0  0  0  0  0  0
    5.5329   -1.8318   -7.7473 C   0  0  0  0  0  0  0  0  0  0  0  0
    5.0784   -0.6103   -8.2499 C   0  0  0  0  0  0  0  0  0  0  0  0
    3.7237   -0.4286   -8.5238 C   0  0  0  0  0  0  0  0  0  0  0  0
    2.8321   -1.4773   -8.3128 C   0  0  0  0  0  0  0  0  0  0  0  0
    1.1591   -1.2581   -8.6514 Cl  0  0  0  0  0  0  0  0  0  0  0  0
    3.2802   -2.7017   -7.8133 C   0  0  0  0  0  0  0  0  0  0  0  0
    6.1193   -4.5720   -2.5837 C   0  0  0  0  0  0  0  0  0  0  0  0
    6.4534   -4.5502   -1.2721 N   0  0  0  0  0  0  0  0  0  0  0  0
    5.7769   -3.6753   -0.5001 C   0  0  0  0  0  0  0  0  0  0  0  0
    4.7731   -2.8196   -0.9541 C   0  0  0  0  0  0  0  0  0  0  0  0
    4.1187   -1.9248   -0.0852 C   0  0  0  0  0  0  0  0  0  0  0  0
    0.9098    1.2134    0.7329 H   0  0  0  0  0  0  0  0  0  0  0  0
    0.5499    0.0177   -0.4985 H   0  0  0  0  0  0  0  0  0  0  0  0
    1.6828    1.3582   -0.8477 H   0  0  0  0  0  0  0  0  0  0  0  0
    2.5826    1.0175    2.1193 H   0  0  0  0  0  0  0  0  0  0  0  0
    4.1248    0.7231    1.3118 H   0  0  0  0  0  0  0  0  0  0  0  0
    3.3285   -0.5595    2.2713 H   0  0  0  0  0  0  0  0  0  0  0  0
    2.0868   -0.3965   -2.3109 H   0  0  0  0  0  0  0  0  0  0  0  0
    3.2013   -1.8775   -3.8235 H   0  0  0  0  0  0  0  0  0  0  0  0
    3.8461   -3.6282   -4.7956 H   0  0  0  0  0  0  0  0  0  0  0  0
    4.3085   -4.9183   -6.8590 H   0  0  0  0  0  0  0  0  0  0  0  0
    5.8845   -4.6250   -7.5704 H   0  0  0  0  0  0  0  0  0  0  0  0
    6.5956   -1.9545   -7.5366 H   0  0  0  0  0  0  0  0  0  0  0  0
    5.7817    0.2016   -8.4203 H   0  0  0  0  0  0  0  0  0  0  0  0
    3.3724    0.5282   -8.9010 H   0  0  0  0  0  0  0  0  0  0  0  0
    2.5682   -3.5104   -7.6663 H   0  0  0  0  0  0  0  0  0  0  0  0
    6.6642   -5.3081   -3.1680 H   0  0  0  0  0  0  0  0  0  0  0  0
    6.0782   -3.6775    0.5452 H   0  0  0  0  0  0  0  0  0  0  0  0
    4.3980   -1.9467    0.9643 H   0  0  0  0  0  0  0  0  0  0  0  0
  1  2  1  0  0  0  0
  1 25  1  0  0  0  0
  1 26  1  0  0  0  0
  1 27  1  0  0  0  0
  2  3  1  0  0  0  0
  2  4  1  0  0  0  0
  3 28  1  0  0  0  0
  3 29  1  0  0  0  0
  3 30  1  0  0  0  0
  4  5  1  0  0  0  0
  4 24  2  0  0  0  0
  5  6  2  0  0  0  0
  5 31  1  0  0  0  0
  6  7  1  0  0  0  0
  6 32  1  0  0  0  0
  7  8  1  0  0  0  0
  7 23  2  0  0  0  0
  8  9  1  0  0  0  0
  8 20  2  0  0  0  0
  9 10  1  0  0  0  0
  9 33  1  0  0  0  0
 10 11  2  0  0  0  0
 10 12  1  0  0  0  0
 12 13  1  0  0  0  0
 12 34  1  0  0  0  0
 12 35  1  0  0  0  0
 13 14  1  0  0  0  0
 13 19  2  0  0  0  0
 14 15  2  0  0  0  0
 14 36  1  0  0  0  0
 15 16  1  0  0  0  0
 15 37  1  0  0  0  0
 16 17  2  0  0  0  0
 16 38  1  0  0  0  0
 17 18  1  0  0  0  0
 17 19  1  0  0  0  0
 19 39  1  0  0  0  0
 20 21  1  0  0  0  0
 20 40  1  0  0  0  0
 21 22  2  0  0  0  0
 22 23  1  0  0  0  0
 22 41  1  0  0  0  0
 23 24  1  0  0  0  0
 24 42  1  0  0  0  0
M  END
$$$$
