
 OpenBabel07202414183D

 49 52  0  0  0  0  0  0  0  0999 V2000
    1.3640    5.2469   -0.2254 F   0  0  0  0  0  0  0  0  0  0  0  0
    0.2755    4.7681    0.3993 C   0  0  0  0  0  0  0  0  0  0  0  0
    0.0355    3.3841    0.3979 C   0  0  0  0  0  0  0  0  0  0  0  0
    0.9233    2.4498   -0.1923 N   0  0  0  0  0  0  0  0  0  0  0  0
    2.3344    2.5047   -0.1544 C   0  0  0  0  0  0  0  0  0  0  0  0
    3.0889    1.9158   -1.1818 C   0  0  0  0  0  0  0  0  0  0  0  0
    4.4951    1.8965   -1.1417 C   0  0  0  0  0  0  0  0  0  0  0  0
    5.2674    1.1971   -2.2374 C   0  0  0  0  0  0  0  0  0  0  0  0
    6.3061    2.0247   -2.9698 C   0  0  0  0  0  0  0  0  0  0  0  0
    7.4168    1.5512   -3.2156 O   0  0  0  0  0  0  0  0  0  0  0  0
    5.8811    3.2732   -3.3778 N   0  0  0  0  0  0  0  0  0  0  0  0
    6.7004    4.1527   -4.1309 C   0  0  0  0  0  0  0  0  0  0  0  0
    7.4650    3.6850   -5.2045 C   0  0  0  0  0  0  0  0  0  0  0  0
    8.2296    4.4675   -5.9998 N   0  0  0  0  0  0  0  0  0  0  0  0
    8.2654    5.7767   -5.6886 C   0  0  0  0  0  0  0  0  0  0  0  0
    7.5679    6.3644   -4.6293 C   0  0  0  0  0  0  0  0  0  0  0  0
    7.6928    7.7356   -4.3349 C   0  0  0  0  0  0  0  0  0  0  0  0
    7.0277    8.2895   -3.2458 C   0  0  0  0  0  0  0  0  0  0  0  0
    6.2229    7.4881   -2.4419 C   0  0  0  0  0  0  0  0  0  0  0  0
    6.0838    6.1297   -2.7307 C   0  0  0  0  0  0  0  0  0  0  0  0
    6.7462    5.5335   -3.8276 C   0  0  0  0  0  0  0  0  0  0  0  0
    5.1495    2.4593   -0.0363 C   0  0  0  0  0  0  0  0  0  0  0  0
    4.4091    3.0279    0.9955 C   0  0  0  0  0  0  0  0  0  0  0  0
    5.2145    3.6964    2.3593 Cl  0  0  0  0  0  0  0  0  0  0  0  0
    3.0166    3.0447    0.9435 C   0  0  0  0  0  0  0  0  0  0  0  0
   -1.1597    2.9138    0.9491 C   0  0  0  0  0  0  0  0  0  0  0  0
   -2.0505    3.7933    1.5669 C   0  0  0  0  0  0  0  0  0  0  0  0
   -1.7608    5.1581    1.6157 C   0  0  0  0  0  0  0  0  0  0  0  0
   -0.5922    5.6607    1.0213 C   0  0  0  0  0  0  0  0  0  0  0  0
   -0.2835    7.1270    1.0805 C   0  0  0  0  0  0  0  0  0  0  0  0
    0.8868    7.5006    0.4971 F   0  0  0  0  0  0  0  0  0  0  0  0
   -1.2506    7.8766    0.4796 F   0  0  0  0  0  0  0  0  0  0  0  0
   -0.2159    7.5824    2.3647 F   0  0  0  0  0  0  0  0  0  0  0  0
    0.5580    2.1221   -1.0827 H   0  0  0  0  0  0  0  0  0  0  0  0
    2.5714    1.4533   -2.0197 H   0  0  0  0  0  0  0  0  0  0  0  0
    4.5833    0.8002   -2.9992 H   0  0  0  0  0  0  0  0  0  0  0  0
    5.7742    0.3320   -1.7885 H   0  0  0  0  0  0  0  0  0  0  0  0
    5.1137    3.6850   -2.8624 H   0  0  0  0  0  0  0  0  0  0  0  0
    7.4571    2.6366   -5.4918 H   0  0  0  0  0  0  0  0  0  0  0  0
    8.9073    6.3737   -6.3346 H   0  0  0  0  0  0  0  0  0  0  0  0
    8.3279    8.3711   -4.9453 H   0  0  0  0  0  0  0  0  0  0  0  0
    7.1466    9.3472   -3.0144 H   0  0  0  0  0  0  0  0  0  0  0  0
    5.7206    7.9147   -1.5779 H   0  0  0  0  0  0  0  0  0  0  0  0
    5.4716    5.5436   -2.0524 H   0  0  0  0  0  0  0  0  0  0  0  0
    6.2359    2.4267    0.0349 H   0  0  0  0  0  0  0  0  0  0  0  0
    2.4610    3.4650    1.7797 H   0  0  0  0  0  0  0  0  0  0  0  0
   -1.3821    1.8484    0.9390 H   0  0  0  0  0  0  0  0  0  0  0  0
   -2.9610    3.4122    2.0235 H   0  0  0  0  0  0  0  0  0  0  0  0
   -2.4540    5.8342    2.1185 H   0  0  0  0  0  0  0  0  0  0  0  0
  1  2  1  0  0  0  0
  2  3  2  0  0  0  0
  2 29  1  0  0  0  0
  3  4  1  0  0  0  0
  3 26  1  0  0  0  0
  4  5  1  0  0  0  0
  4 34  1  0  0  0  0
  5  6  2  0  0  0  0
  5 25  1  0  0  0  0
  6  7  1  0  0  0  0
  6 35  1  0  0  0  0
  7  8  1  0  0  0  0
  7 22  2  0  0  0  0
  8  9  1  0  0  0  0
  8 36  1  0  0  0  0
  8 37  1  0  0  0  0
  9 10  2  0  0  0  0
  9 11  1  0  0  0  0
 11 12  1  0  0  0  0
 11 38  1  0  0  0  0
 12 13  2  0  0  0  0
 12 21  1  0  0  0  0
 13 14  1  0  0  0  0
 13 39  1  0  0  0  0
 14 15  2  0  0  0  0
 15 16  1  0  0  0  0
 15 40  1  0  0  0  0
 16 17  2  0  0  0  0
 16 21  1  0  0  0  0
 17 18  1  0  0  0  0
 17 41  1  0  0  0  0
 18 19  2  0  0  0  0
 18 42  1  0  0  0  0
 19 20  1  0  0  0  0
 19 43  1  0  0  0  0
 20 21  2  0  0  0  0
 20 44  1  0  0  0  0
 22 23  1  0  0  0  0
 22 45  1  0  0  0  0
 23 24  1  0  0  0  0
 23 25  2  0  0  0  0
 25 46  1  0  0  0  0
 26 27  2  0  0  0  0
 26 47  1  0  0  0  0
 27 28  1  0  0  0  0
 27 48  1  0  0  0  0
 28 29  2  0  0  0  0
 28 49  1  0  0  0  0
 29 30  1  0  0  0  0
 30 31  1  0  0  0  0
 30 32  1  0  0  0  0
 30 33  1  0  0  0  0
M  END
$$$$
