
 OpenBabel07202414203D

 26 27  0  0  0  0  0  0  0  0999 V2000
    0.5140   -0.5401    1.3514 C   0  0  0  0  0  0  0  0  0  0  0  0
    1.2443    0.6495    1.2863 C   0  0  0  0  0  0  0  0  0  0  0  0
    1.6156    1.1938    0.0480 C   0  0  0  0  0  0  0  0  0  0  0  0
    1.2222    0.5336   -1.1260 C   0  0  0  0  0  0  0  0  0  0  0  0
    0.4926   -0.6558   -1.0540 C   0  0  0  0  0  0  0  0  0  0  0  0
    0.1397   -1.1971    0.1796 C   0  0  0  0  0  0  0  0  0  0  0  0
    0.0337   -1.4663   -2.5017 Cl  0  0  0  0  0  0  0  0  0  0  0  0
    2.4339    2.4613   -0.0132 C   0  0  0  0  0  0  0  0  0  0  0  0
    1.5675    3.7226   -0.0092 C   0  0  0  0  0  0  0  0  0  0  0  0
    2.3628    4.9386   -0.0784 N   0  0  0  0  0  0  0  0  0  0  0  0
    2.7598    5.5536   -1.2371 C   0  0  0  0  0  0  0  0  0  0  0  0
    3.4484    6.6718   -0.8338 C   0  0  0  0  0  0  0  0  0  0  0  0
    3.4837    6.7486    0.5340 N   0  0  0  0  0  0  0  0  0  0  0  0
    2.8180    5.6968    0.9745 C   0  0  0  0  0  0  0  0  0  0  0  0
    2.6134    5.4024    2.3570 C   0  0  0  0  0  0  0  0  0  0  0  0
    2.4170    5.1099    3.4646 N   0  0  0  0  0  0  0  0  0  0  0  0
    0.2442   -0.9605    2.3175 H   0  0  0  0  0  0  0  0  0  0  0  0
    1.5345    1.1391    2.2149 H   0  0  0  0  0  0  0  0  0  0  0  0
    1.4950    0.9328   -2.1002 H   0  0  0  0  0  0  0  0  0  0  0  0
   -0.4201   -2.1269    0.2360 H   0  0  0  0  0  0  0  0  0  0  0  0
    3.0662    2.4402   -0.9109 H   0  0  0  0  0  0  0  0  0  0  0  0
    3.1318    2.4792    0.8325 H   0  0  0  0  0  0  0  0  0  0  0  0
    0.9412    3.7769    0.8879 H   0  0  0  0  0  0  0  0  0  0  0  0
    0.8888    3.7326   -0.8714 H   0  0  0  0  0  0  0  0  0  0  0  0
    2.5259    5.1638   -2.2188 H   0  0  0  0  0  0  0  0  0  0  0  0
    3.9183    7.4252   -1.4533 H   0  0  0  0  0  0  0  0  0  0  0  0
  1  2  1  0  0  0  0
  1  6  2  0  0  0  0
  1 17  1  0  0  0  0
  2  3  2  0  0  0  0
  2 18  1  0  0  0  0
  3  4  1  0  0  0  0
  3  8  1  0  0  0  0
  4  5  2  0  0  0  0
  4 19  1  0  0  0  0
  5  6  1  0  0  0  0
  5  7  1  0  0  0  0
  6 20  1  0  0  0  0
  8  9  1  0  0  0  0
  8 21  1  0  0  0  0
  8 22  1  0  0  0  0
  9 10  1  0  0  0  0
  9 23  1  0  0  0  0
  9 24  1  0  0  0  0
 10 11  1  0  0  0  0
 10 14  1  0  0  0  0
 11 12  2  0  0  0  0
 11 25  1  0  0  0  0
 12 13  1  0  0  0  0
 12 26  1  0  0  0  0
 13 14  2  0  0  0  0
 14 15  1  0  0  0  0
 15 16  3  0  0  0  0
M  END
$$$$
