
 OpenBabel07202414173D

 61 66  0  0  1  0  0  0  0  0999 V2000
    1.7102   -0.3163   -1.9329 Cl  0  0  0  0  0  0  0  0  0  0  0  0
    3.2289   -0.0856   -1.1544 C   0  0  0  0  0  0  0  0  0  0  0  0
    3.9022    1.1125   -1.2478 C   0  0  0  0  0  0  0  0  0  0  0  0
    5.1889    1.2057   -0.7116 C   0  0  0  0  0  0  0  0  0  0  0  0
    5.7755    0.1362    0.0061 C   0  0  0  0  0  0  0  0  0  0  0  0
    5.0162   -0.9802    0.3150 C   0  0  0  0  0  0  0  0  0  0  0  0
    3.7928   -1.1201   -0.4208 C   0  0  0  0  0  0  0  0  0  0  0  0
    5.5649   -2.1619    1.1730 C   0  0  3  0  0  0  0  0  0  0  0  0
    6.8180   -2.4549    0.2951 C   0  0  0  0  0  0  0  0  0  0  0  0
    7.8160   -1.2668    0.5570 N   0  0  0  0  0  0  0  0  0  0  0  0
    9.4371   -1.4889    0.0691 S   0  0  0  0  0  0  0  0  0  0  0  0
    9.7519   -2.8835    0.3471 O   0  0  0  0  0  0  0  0  0  0  0  0
    9.5915   -0.9266   -1.2347 O   0  0  0  0  0  0  0  0  0  0  0  0
   10.3566   -0.4678    1.2671 C   0  0  0  0  0  0  0  0  0  0  0  0
   11.8047   -0.4381    0.8116 C   0  0  0  0  0  0  0  0  0  0  0  0
   12.4846   -1.7238    0.7441 C   0  0  0  0  0  0  0  0  0  0  0  0
   13.0762   -2.7137    0.7128 N   0  0  0  0  0  0  0  0  0  0  0  0
   12.2719    0.6745   -0.1094 C   0  0  0  0  0  0  0  0  0  0  0  0
   12.6925    0.6930    1.3269 C   0  0  0  0  0  0  0  0  0  0  0  0
    7.2639    0.0940    0.2288 C   0  0  0  0  0  0  0  0  0  0  0  0
    6.2087   -2.4576    2.6661 C   0  0  0  0  0  0  0  0  0  0  0  0
    5.3589   -3.4060    3.5830 C   0  0  0  0  0  0  0  0  0  0  0  0
    3.9292   -2.8811    3.7667 C   0  0  0  0  0  0  0  0  0  0  0  0
    3.4750   -2.2052    2.5517 N   0  0  0  0  0  0  0  0  0  0  0  0
    3.3840   -0.7256    2.7363 C   0  0  0  0  0  0  0  0  0  0  0  0
    4.4062    0.0457    3.3086 C   0  0  0  0  0  0  0  0  0  0  0  0
    4.3471    1.3204    3.7574 N   0  0  0  0  0  0  0  0  0  0  0  0
    3.2068    1.9610    3.5108 C   0  0  0  0  0  0  0  0  0  0  0  0
    2.1884    1.4177    2.7511 C   0  0  0  0  0  0  0  0  0  0  0  0
    1.1816    2.2709    2.2980 C   0  0  0  0  0  0  0  0  0  0  0  0
    0.1591    1.7742    1.5082 C   0  0  0  0  0  0  0  0  0  0  0  0
    0.0937    0.4048    1.2583 C   0  0  0  0  0  0  0  0  0  0  0  0
    1.0966   -0.4654    1.7172 C   0  0  0  0  0  0  0  0  0  0  0  0
    2.2228    0.0272    2.4089 C   0  0  0  0  0  0  0  0  0  0  0  0
    4.2225   -2.8693    1.4624 C   0  0  0  0  0  0  0  0  0  0  0  0
    3.9126   -3.9645    0.9997 O   0  0  0  0  0  0  0  0  0  0  0  0
    3.4675    1.9344   -1.7972 H   0  0  0  0  0  0  0  0  0  0  0  0
    5.7658    2.1039   -0.9196 H   0  0  0  0  0  0  0  0  0  0  0  0
    3.2299   -2.0564   -0.4335 H   0  0  0  0  0  0  0  0  0  0  0  0
    6.6164   -2.5376   -0.7786 H   0  0  0  0  0  0  0  0  0  0  0  0
    7.2995   -3.3919    0.5926 H   0  0  0  0  0  0  0  0  0  0  0  0
   10.2536   -0.9151    2.2584 H   0  0  0  0  0  0  0  0  0  0  0  0
    9.9269    0.5359    1.2597 H   0  0  0  0  0  0  0  0  0  0  0  0
   11.5650    1.4323   -0.4303 H   0  0  0  0  0  0  0  0  0  0  0  0
   13.0248    0.4538   -0.8596 H   0  0  0  0  0  0  0  0  0  0  0  0
   12.2718    1.4549    1.9738 H   0  0  0  0  0  0  0  0  0  0  0  0
   13.7432    0.4949    1.5367 H   0  0  0  0  0  0  0  0  0  0  0  0
    7.7132    0.4550   -0.7028 H   0  0  0  0  0  0  0  0  0  0  0  0
    7.5201    0.7962    1.0306 H   0  0  0  0  0  0  0  0  0  0  0  0
    6.5360   -1.5838    3.2155 H   0  0  0  0  0  0  0  0  0  0  0  0
    7.1560   -3.0080    2.5707 H   0  0  0  0  0  0  0  0  0  0  0  0
    5.8339   -3.5930    4.5512 H   0  0  0  0  0  0  0  0  0  0  0  0
    5.3134   -4.3987    3.1025 H   0  0  0  0  0  0  0  0  0  0  0  0
    3.8818   -2.2103    4.6315 H   0  0  0  0  0  0  0  0  0  0  0  0
    3.2318   -3.7037    3.9671 H   0  0  0  0  0  0  0  0  0  0  0  0
    5.4162   -0.2864    3.3929 H   0  0  0  0  0  0  0  0  0  0  0  0
    3.1566    2.9654    3.9226 H   0  0  0  0  0  0  0  0  0  0  0  0
    1.2282    3.3413    2.4996 H   0  0  0  0  0  0  0  0  0  0  0  0
   -0.5747    2.4536    1.0856 H   0  0  0  0  0  0  0  0  0  0  0  0
   -0.7264    0.0167    0.6593 H   0  0  0  0  0  0  0  0  0  0  0  0
    1.0260   -1.5204    1.4650 H   0  0  0  0  0  0  0  0  0  0  0  0
  1  2  1  0  0  0  0
  2  3  1  0  0  0  0
  2  7  2  0  0  0  0
  3  4  2  0  0  0  0
  3 37  1  0  0  0  0
  4  5  1  0  0  0  0
  4 38  1  0  0  0  0
  5  6  2  0  0  0  0
  5 20  1  0  0  0  0
  6  7  1  0  0  0  0
  6  8  1  0  0  0  0
  7 39  1  0  0  0  0
  8  9  1  0  0  0  0
  8 21  1  0  0  0  0
  8 35  1  0  0  0  0
  9 10  1  0  0  0  0
  9 40  1  0  0  0  0
  9 41  1  0  0  0  0
 10 11  1  0  0  0  0
 10 20  1  0  0  0  0
 11 12  2  0  0  0  0
 11 13  2  0  0  0  0
 11 14  1  0  0  0  0
 14 15  1  0  0  0  0
 14 42  1  0  0  0  0
 14 43  1  0  0  0  0
 15 16  1  0  0  0  0
 15 18  1  0  0  0  0
 15 19  1  0  0  0  0
 16 17  3  0  0  0  0
 18 19  1  0  0  0  0
 18 44  1  0  0  0  0
 18 45  1  0  0  0  0
 19 46  1  0  0  0  0
 19 47  1  0  0  0  0
 20 48  1  0  0  0  0
 20 49  1  0  0  0  0
 21 22  1  0  0  0  0
 21 50  1  0  0  0  0
 21 51  1  0  0  0  0
 22 23  1  0  0  0  0
 22 52  1  0  0  0  0
 22 53  1  0  0  0  0
 23 24  1  0  0  0  0
 23 54  1  0  0  0  0
 23 55  1  0  0  0  0
 24 25  1  0  0  0  0
 24 35  1  0  0  0  0
 25 26  1  0  0  0  0
 25 34  2  0  0  0  0
 26 27  2  0  0  0  0
 26 56  1  0  0  0  0
 27 28  1  0  0  0  0
 28 29  2  0  0  0  0
 28 57  1  0  0  0  0
 29 30  1  0  0  0  0
 29 34  1  0  0  0  0
 30 31  2  0  0  0  0
 30 58  1  0  0  0  0
 31 32  1  0  0  0  0
 31 59  1  0  0  0  0
 32 33  2  0  0  0  0
 32 60  1  0  0  0  0
 33 34  1  0  0  0  0
 33 61  1  0  0  0  0
 35 36  2  0  0  0  0
M  END
$$$$
