
 OpenBabel07202414173D

 31 32  0  0  0  0  0  0  0  0999 V2000
    0.9740   -0.3982   -0.3704 Cl  0  0  0  0  0  0  0  0  0  0  0  0
    2.7254   -0.5321   -0.6171 C   0  0  0  0  0  0  0  0  0  0  0  0
    3.2947    0.6645   -1.3694 C   0  0  0  0  0  0  0  0  0  0  0  0
    2.5865    1.5622   -1.8245 O   0  0  0  0  0  0  0  0  0  0  0  0
    4.6819    0.7038   -1.5058 N   0  0  0  0  0  0  0  0  0  0  0  0
    5.6074   -0.3664   -1.1042 C   0  0  0  0  0  0  0  0  0  0  0  0
    6.8729    0.2025   -0.4353 C   0  0  0  0  0  0  0  0  0  0  0  0
    7.5224    1.2665   -1.2594 N   0  0  0  0  0  0  0  0  0  0  0  0
    8.4686    0.7439   -2.5786 S   0  0  0  0  0  0  0  0  0  0  0  0
    7.7321   -0.2820   -3.2825 O   0  0  0  0  0  0  0  0  0  0  0  0
    8.9665    1.9128   -3.2758 O   0  0  0  0  0  0  0  0  0  0  0  0
    9.9134   -0.0932   -1.9678 C   0  0  0  0  0  0  0  0  0  0  0  0
   10.3690   -1.3887   -2.1331 C   0  0  0  0  0  0  0  0  0  0  0  0
   11.6294   -1.6069   -1.5066 C   0  0  0  0  0  0  0  0  0  0  0  0
   12.0931   -0.4712   -0.8796 C   0  0  0  0  0  0  0  0  0  0  0  0
   10.9944    0.8357   -1.0211 S   0  0  0  0  0  0  0  0  0  0  0  0
    6.5372    2.3496   -1.5905 C   0  0  0  0  0  0  0  0  0  0  0  0
    5.2929    1.7876   -2.2913 C   0  0  0  0  0  0  0  0  0  0  0  0
    2.9153   -1.4460   -1.1860 H   0  0  0  0  0  0  0  0  0  0  0  0
    3.1799   -0.5949    0.3742 H   0  0  0  0  0  0  0  0  0  0  0  0
    5.8436   -0.9372   -2.0056 H   0  0  0  0  0  0  0  0  0  0  0  0
    5.1314   -1.0683   -0.4169 H   0  0  0  0  0  0  0  0  0  0  0  0
    7.5837   -0.5930   -0.1947 H   0  0  0  0  0  0  0  0  0  0  0  0
    6.5868    0.6614    0.5218 H   0  0  0  0  0  0  0  0  0  0  0  0
    9.8260   -2.1319   -2.7059 H   0  0  0  0  0  0  0  0  0  0  0  0
   12.1766   -2.5417   -1.5297 H   0  0  0  0  0  0  0  0  0  0  0  0
   13.0249   -0.3431   -0.3449 H   0  0  0  0  0  0  0  0  0  0  0  0
    7.0088    3.1308   -2.1944 H   0  0  0  0  0  0  0  0  0  0  0  0
    6.2420    2.8287   -0.6478 H   0  0  0  0  0  0  0  0  0  0  0  0
    5.5509    1.3723   -3.2731 H   0  0  0  0  0  0  0  0  0  0  0  0
    4.5791    2.5996   -2.4622 H   0  0  0  0  0  0  0  0  0  0  0  0
  1  2  1  0  0  0  0
  2  3  1  0  0  0  0
  2 19  1  0  0  0  0
  2 20  1  0  0  0  0
  3  4  2  0  0  0  0
  3  5  1  0  0  0  0
  5  6  1  0  0  0  0
  5 18  1  0  0  0  0
  6  7  1  0  0  0  0
  6 21  1  0  0  0  0
  6 22  1  0  0  0  0
  7  8  1  0  0  0  0
  7 23  1  0  0  0  0
  7 24  1  0  0  0  0
  8  9  1  0  0  0  0
  8 17  1  0  0  0  0
  9 10  2  0  0  0  0
  9 11  2  0  0  0  0
  9 12  1  0  0  0  0
 12 13  2  0  0  0  0
 12 16  1  0  0  0  0
 13 14  1  0  0  0  0
 13 25  1  0  0  0  0
 14 15  2  0  0  0  0
 14 26  1  0  0  0  0
 15 16  1  0  0  0  0
 15 27  1  0  0  0  0
 17 18  1  0  0  0  0
 17 28  1  0  0  0  0
 17 29  1  0  0  0  0
 18 30  1  0  0  0  0
 18 31  1  0  0  0  0
M  END
$$$$
