
 OpenBabel07202414173D

 34 35  0  0  0  0  0  0  0  0999 V2000
    0.9660    0.4460   -0.6726 Cl  0  0  0  0  0  0  0  0  0  0  0  0
    2.7374    0.4890   -0.7872 C   0  0  0  0  0  0  0  0  0  0  0  0
    3.3568    1.4392    0.2328 C   0  0  0  0  0  0  0  0  0  0  0  0
    2.6797    2.1619    0.9647 O   0  0  0  0  0  0  0  0  0  0  0  0
    4.7559    1.4489    0.3025 N   0  0  0  0  0  0  0  0  0  0  0  0
    5.6387    0.7617   -0.6542 C   0  0  0  0  0  0  0  0  0  0  0  0
    6.9983    0.3671   -0.0327 C   0  0  0  0  0  0  0  0  0  0  0  0
    7.6566    1.5099    0.6771 N   0  0  0  0  0  0  0  0  0  0  0  0
    8.4526    2.6746   -0.3026 S   0  0  0  0  0  0  0  0  0  0  0  0
    7.6855    2.7675   -1.5220 O   0  0  0  0  0  0  0  0  0  0  0  0
    8.6570    3.8696    0.4863 O   0  0  0  0  0  0  0  0  0  0  0  0
   10.0598    1.9857   -0.6151 C   0  0  0  0  0  0  0  0  0  0  0  0
   10.5139    1.6933   -1.9118 C   0  0  0  0  0  0  0  0  0  0  0  0
    9.5792    1.7977   -3.3610 Cl  0  0  0  0  0  0  0  0  0  0  0  0
   11.8442    1.2845   -2.1219 C   0  0  0  0  0  0  0  0  0  0  0  0
   12.7380    1.1816   -1.0638 C   0  0  0  0  0  0  0  0  0  0  0  0
   12.3004    1.4759    0.2204 C   0  0  0  0  0  0  0  0  0  0  0  0
   10.9714    1.8700    0.4527 C   0  0  0  0  0  0  0  0  0  0  0  0
   10.5858    2.1792    2.1123 Cl  0  0  0  0  0  0  0  0  0  0  0  0
    6.7183    2.0777    1.7048 C   0  0  0  0  0  0  0  0  0  0  0  0
    5.3943    2.5266    1.0755 C   0  0  0  0  0  0  0  0  0  0  0  0
    2.9970    0.8194   -1.7969 H   0  0  0  0  0  0  0  0  0  0  0  0
    3.0882   -0.5307   -0.6151 H   0  0  0  0  0  0  0  0  0  0  0  0
    5.7555    1.4325   -1.5093 H   0  0  0  0  0  0  0  0  0  0  0  0
    5.1585   -0.1409   -1.0388 H   0  0  0  0  0  0  0  0  0  0  0  0
    7.6676   -0.0629   -0.7834 H   0  0  0  0  0  0  0  0  0  0  0  0
    6.8210   -0.4203    0.7131 H   0  0  0  0  0  0  0  0  0  0  0  0
   12.1986    1.0632   -3.1287 H   0  0  0  0  0  0  0  0  0  0  0  0
   13.7698    0.8851   -1.2412 H   0  0  0  0  0  0  0  0  0  0  0  0
   13.0087    1.4113    1.0455 H   0  0  0  0  0  0  0  0  0  0  0  0
    7.1924    2.8967    2.2537 H   0  0  0  0  0  0  0  0  0  0  0  0
    6.5217    1.2918    2.4463 H   0  0  0  0  0  0  0  0  0  0  0  0
    5.5563    3.3628    0.3849 H   0  0  0  0  0  0  0  0  0  0  0  0
    4.7240    2.8836    1.8642 H   0  0  0  0  0  0  0  0  0  0  0  0
  1  2  1  0  0  0  0
  2  3  1  0  0  0  0
  2 22  1  0  0  0  0
  2 23  1  0  0  0  0
  3  4  2  0  0  0  0
  3  5  1  0  0  0  0
  5  6  1  0  0  0  0
  5 21  1  0  0  0  0
  6  7  1  0  0  0  0
  6 24  1  0  0  0  0
  6 25  1  0  0  0  0
  7  8  1  0  0  0  0
  7 26  1  0  0  0  0
  7 27  1  0  0  0  0
  8  9  1  0  0  0  0
  8 20  1  0  0  0  0
  9 10  2  0  0  0  0
  9 11  2  0  0  0  0
  9 12  1  0  0  0  0
 12 13  1  0  0  0  0
 12 18  2  0  0  0  0
 13 14  1  0  0  0  0
 13 15  2  0  0  0  0
 15 16  1  0  0  0  0
 15 28  1  0  0  0  0
 16 17  2  0  0  0  0
 16 29  1  0  0  0  0
 17 18  1  0  0  0  0
 17 30  1  0  0  0  0
 18 19  1  0  0  0  0
 20 21  1  0  0  0  0
 20 31  1  0  0  0  0
 20 32  1  0  0  0  0
 21 33  1  0  0  0  0
 21 34  1  0  0  0  0
M  END
$$$$
