
 OpenBabel07202414163D

 30 31  0  0  0  0  0  0  0  0999 V2000
    1.7157    2.4031   -0.1218 C   0  0  0  0  0  0  0  0  0  0  0  0
    0.8611    1.1867   -0.3409 C   0  0  0  0  0  0  0  0  0  0  0  0
    1.5157   -0.0297   -0.6079 C   0  0  0  0  0  0  0  0  0  0  0  0
    0.7707   -1.1783   -0.8107 C   0  0  0  0  0  0  0  0  0  0  0  0
   -0.5685   -1.2085   -0.7467 N   0  0  0  0  0  0  0  0  0  0  0  0
   -1.1876   -0.0293   -0.4854 C   0  0  0  0  0  0  0  0  0  0  0  0
   -0.5469    1.2001   -0.2843 C   0  0  0  0  0  0  0  0  0  0  0  0
   -1.2545    2.4170   -0.0543 N   0  0  0  0  0  0  0  0  0  0  0  0
   -2.6272    2.5685   -0.1603 C   0  0  0  0  0  0  0  0  0  0  0  0
   -3.4145    1.6631   -0.4093 O   0  0  0  0  0  0  0  0  0  0  0  0
   -3.0348    3.8918   -0.0193 N   0  0  0  0  0  0  0  0  0  0  0  0
   -4.4060    4.2380   -0.1360 C   0  0  0  0  0  0  0  0  0  0  0  0
   -4.7478    5.3598   -0.8997 C   0  0  0  0  0  0  0  0  0  0  0  0
   -6.0931    5.6753   -1.1175 C   0  0  0  0  0  0  0  0  0  0  0  0
   -7.0997    4.9103   -0.5288 C   0  0  0  0  0  0  0  0  0  0  0  0
   -6.7571    3.8220    0.2713 C   0  0  0  0  0  0  0  0  0  0  0  0
   -8.0000    2.8991    1.0255 Cl  0  0  0  0  0  0  0  0  0  0  0  0
   -5.4185    3.4820    0.4656 C   0  0  0  0  0  0  0  0  0  0  0  0
    2.7522    2.2175   -0.4308 H   0  0  0  0  0  0  0  0  0  0  0  0
    1.7284    2.6711    0.9390 H   0  0  0  0  0  0  0  0  0  0  0  0
    1.3593    3.2495   -0.7158 H   0  0  0  0  0  0  0  0  0  0  0  0
    2.5978   -0.0890   -0.6684 H   0  0  0  0  0  0  0  0  0  0  0  0
    1.2449   -2.1296   -1.0337 H   0  0  0  0  0  0  0  0  0  0  0  0
   -2.2642   -0.1460   -0.4290 H   0  0  0  0  0  0  0  0  0  0  0  0
   -0.7160    3.2289    0.1948 H   0  0  0  0  0  0  0  0  0  0  0  0
   -2.3718    4.5753   -0.3522 H   0  0  0  0  0  0  0  0  0  0  0  0
   -3.9842    5.9518   -1.3938 H   0  0  0  0  0  0  0  0  0  0  0  0
   -6.3582    6.5123   -1.7599 H   0  0  0  0  0  0  0  0  0  0  0  0
   -8.1433    5.1610   -0.6986 H   0  0  0  0  0  0  0  0  0  0  0  0
   -5.1730    2.6152    1.0755 H   0  0  0  0  0  0  0  0  0  0  0  0
  1  2  1  0  0  0  0
  1 19  1  0  0  0  0
  1 20  1  0  0  0  0
  1 21  1  0  0  0  0
  2  3  1  0  0  0  0
  2  7  2  0  0  0  0
  3  4  2  0  0  0  0
  3 22  1  0  0  0  0
  4  5  1  0  0  0  0
  4 23  1  0  0  0  0
  5  6  2  0  0  0  0
  6  7  1  0  0  0  0
  6 24  1  0  0  0  0
  7  8  1  0  0  0  0
  8  9  1  0  0  0  0
  8 25  1  0  0  0  0
  9 10  2  0  0  0  0
  9 11  1  0  0  0  0
 11 12  1  0  0  0  0
 11 26  1  0  0  0  0
 12 13  1  0  0  0  0
 12 18  2  0  0  0  0
 13 14  2  0  0  0  0
 13 27  1  0  0  0  0
 14 15  1  0  0  0  0
 14 28  1  0  0  0  0
 15 16  2  0  0  0  0
 15 29  1  0  0  0  0
 16 17  1  0  0  0  0
 16 18  1  0  0  0  0
 18 30  1  0  0  0  0
M  END
$$$$
