
 OpenBabel07202414163D

 45 48  0  0  0  0  0  0  0  0999 V2000
   -0.3243   -1.0512    2.6217 Cl  0  0  0  0  0  0  0  0  0  0  0  0
    0.3606   -0.4607    1.1574 C   0  0  0  0  0  0  0  0  0  0  0  0
    1.0245    0.7661    1.1507 C   0  0  0  0  0  0  0  0  0  0  0  0
    1.5877    1.2463   -0.0371 C   0  0  0  0  0  0  0  0  0  0  0  0
    2.3120    2.5724   -0.0814 C   0  0  0  0  0  0  0  0  0  0  0  0
    1.4759    3.8081   -0.3849 C   0  0  0  0  0  0  0  0  0  0  0  0
    1.9174    4.9273   -0.1265 O   0  0  0  0  0  0  0  0  0  0  0  0
    0.2457    3.5851   -0.9731 N   0  0  0  0  0  0  0  0  0  0  0  0
   -0.6240    4.6394   -1.3408 C   0  0  0  0  0  0  0  0  0  0  0  0
   -0.1576    5.7423   -2.0562 C   0  0  0  0  0  0  0  0  0  0  0  0
   -0.9413    6.7520   -2.4977 N   0  0  0  0  0  0  0  0  0  0  0  0
   -2.2509    6.6782   -2.1736 C   0  0  0  0  0  0  0  0  0  0  0  0
   -2.8315    5.6366   -1.4375 C   0  0  0  0  0  0  0  0  0  0  0  0
   -4.1943    5.6495   -1.0999 C   0  0  0  0  0  0  0  0  0  0  0  0
   -4.7427    4.6215   -0.3233 C   0  0  0  0  0  0  0  0  0  0  0  0
   -3.9337    3.5828    0.1148 C   0  0  0  0  0  0  0  0  0  0  0  0
   -2.5824    3.5576   -0.2268 C   0  0  0  0  0  0  0  0  0  0  0  0
   -1.9991    4.5791   -1.0149 C   0  0  0  0  0  0  0  0  0  0  0  0
    1.4623    0.4782   -1.2061 C   0  0  0  0  0  0  0  0  0  0  0  0
    0.7858   -0.7502   -1.2121 C   0  0  0  0  0  0  0  0  0  0  0  0
    0.6995   -1.5399   -2.3751 N   0  0  0  0  0  0  0  0  0  0  0  0
    0.6386   -1.1281   -3.7194 C   0  0  0  0  0  0  0  0  0  0  0  0
    1.1515   -1.9406   -4.7313 C   0  0  0  0  0  0  0  0  0  0  0  0
    1.1096   -1.6504   -6.0532 N   0  0  0  0  0  0  0  0  0  0  0  0
    0.5235   -0.4851   -6.3977 C   0  0  0  0  0  0  0  0  0  0  0  0
    0.4279   -0.0518   -8.2403 Br  0  0  0  0  0  0  0  0  0  0  0  0
   -0.0198    0.3972   -5.4762 C   0  0  0  0  0  0  0  0  0  0  0  0
    0.0396    0.0657   -4.1223 C   0  0  0  0  0  0  0  0  0  0  0  0
    0.2438   -1.2165   -0.0101 C   0  0  0  0  0  0  0  0  0  0  0  0
    1.1178    1.3334    2.0753 H   0  0  0  0  0  0  0  0  0  0  0  0
    3.1008    2.5300   -0.8425 H   0  0  0  0  0  0  0  0  0  0  0  0
    2.8124    2.7335    0.8809 H   0  0  0  0  0  0  0  0  0  0  0  0
   -0.1797    2.6838   -0.8082 H   0  0  0  0  0  0  0  0  0  0  0  0
    0.8876    5.8299   -2.3434 H   0  0  0  0  0  0  0  0  0  0  0  0
   -2.8437    7.5188   -2.5223 H   0  0  0  0  0  0  0  0  0  0  0  0
   -4.8384    6.4630   -1.4178 H   0  0  0  0  0  0  0  0  0  0  0  0
   -5.7927    4.6485   -0.0509 H   0  0  0  0  0  0  0  0  0  0  0  0
   -4.3497    2.7950    0.7404 H   0  0  0  0  0  0  0  0  0  0  0  0
   -1.9831    2.7443    0.1759 H   0  0  0  0  0  0  0  0  0  0  0  0
    1.9292    0.8346   -2.1237 H   0  0  0  0  0  0  0  0  0  0  0  0
    0.2194   -2.4260   -2.2374 H   0  0  0  0  0  0  0  0  0  0  0  0
    1.6434   -2.8805   -4.4929 H   0  0  0  0  0  0  0  0  0  0  0  0
   -0.4928    1.3207   -5.7919 H   0  0  0  0  0  0  0  0  0  0  0  0
   -0.4106    0.7355   -3.3958 H   0  0  0  0  0  0  0  0  0  0  0  0
   -0.2735   -2.1722    0.0237 H   0  0  0  0  0  0  0  0  0  0  0  0
  1  2  1  0  0  0  0
  2  3  2  0  0  0  0
  2 29  1  0  0  0  0
  3  4  1  0  0  0  0
  3 30  1  0  0  0  0
  4  5  1  0  0  0  0
  4 19  2  0  0  0  0
  5  6  1  0  0  0  0
  5 31  1  0  0  0  0
  5 32  1  0  0  0  0
  6  7  2  0  0  0  0
  6  8  1  0  0  0  0
  8  9  1  0  0  0  0
  8 33  1  0  0  0  0
  9 10  2  0  0  0  0
  9 18  1  0  0  0  0
 10 11  1  0  0  0  0
 10 34  1  0  0  0  0
 11 12  2  0  0  0  0
 12 13  1  0  0  0  0
 12 35  1  0  0  0  0
 13 14  2  0  0  0  0
 13 18  1  0  0  0  0
 14 15  1  0  0  0  0
 14 36  1  0  0  0  0
 15 16  2  0  0  0  0
 15 37  1  0  0  0  0
 16 17  1  0  0  0  0
 16 38  1  0  0  0  0
 17 18  2  0  0  0  0
 17 39  1  0  0  0  0
 19 20  1  0  0  0  0
 19 40  1  0  0  0  0
 20 21  1  0  0  0  0
 20 29  2  0  0  0  0
 21 22  1  0  0  0  0
 21 41  1  0  0  0  0
 22 23  2  0  0  0  0
 22 28  1  0  0  0  0
 23 24  1  0  0  0  0
 23 42  1  0  0  0  0
 24 25  2  0  0  0  0
 25 26  1  0  0  0  0
 25 27  1  0  0  0  0
 27 28  2  0  0  0  0
 27 43  1  0  0  0  0
 28 44  1  0  0  0  0
 29 45  1  0  0  0  0
M  END
$$$$
