
 OpenBabel07202414153D

 43 46  0  0  1  0  0  0  0  0999 V2000
    4.6379    1.3132    1.2918 C   0  0  0  0  0  0  0  0  0  0  0  0
    3.3887    0.8991    1.8413 O   0  0  0  0  0  0  0  0  0  0  0  0
    2.8235   -0.2930    1.2717 C   0  0  1  0  0  0  0  0  0  0  0  0
    3.8339   -1.4770    1.3450 C   0  0  0  0  0  0  0  0  0  0  0  0
    3.1130   -2.7549    0.9327 C   0  0  0  0  0  0  0  0  0  0  0  0
    2.0910   -3.1064    1.8622 O   0  0  0  0  0  0  0  0  0  0  0  0
    1.3564   -2.0680    2.3629 C   0  0  0  0  0  0  0  0  0  0  0  0
    1.6337   -0.7108    2.1338 C   0  0  0  0  0  0  0  0  0  0  0  0
    0.8440    0.2468    2.7961 C   0  0  0  0  0  0  0  0  0  0  0  0
   -0.1927   -0.1407    3.6548 C   0  0  0  0  0  0  0  0  0  0  0  0
   -0.4590   -1.4970    3.8594 C   0  0  0  0  0  0  0  0  0  0  0  0
    0.3178   -2.4559    3.2129 C   0  0  0  0  0  0  0  0  0  0  0  0
   -1.7171   -2.0517    4.9043 Cl  0  0  0  0  0  0  0  0  0  0  0  0
   -1.0912    1.1070    4.4412 Cl  0  0  0  0  0  0  0  0  0  0  0  0
    2.4850   -0.0630   -0.2312 C   0  0  0  0  0  0  0  0  0  0  0  0
    3.3014   -0.4883   -1.0546 O   0  0  0  0  0  0  0  0  0  0  0  0
    1.3383    0.6455   -0.6109 N   0  0  0  0  0  0  0  0  0  0  0  0
    1.0519    0.7771   -2.0077 C   0  0  0  0  0  0  0  0  0  0  0  0
    2.1015    0.7861   -2.9368 C   0  0  0  0  0  0  0  0  0  0  0  0
    2.0025    0.4223   -4.2321 N   0  0  0  0  0  0  0  0  0  0  0  0
    0.7735    0.0810   -4.6416 C   0  0  0  0  0  0  0  0  0  0  0  0
   -0.3829    0.2966   -3.8909 C   0  0  0  0  0  0  0  0  0  0  0  0
   -0.2620    0.7346   -2.5464 C   0  0  0  0  0  0  0  0  0  0  0  0
   -1.4538    1.0995   -1.8808 C   0  0  0  0  0  0  0  0  0  0  0  0
   -2.6956    1.0298   -2.5270 C   0  0  0  0  0  0  0  0  0  0  0  0
   -2.7933    0.4979   -3.8141 C   0  0  0  0  0  0  0  0  0  0  0  0
   -1.6389    0.1048   -4.4821 C   0  0  0  0  0  0  0  0  0  0  0  0
    4.8343    2.3343    1.6302 H   0  0  0  0  0  0  0  0  0  0  0  0
    4.6292    1.3223    0.1988 H   0  0  0  0  0  0  0  0  0  0  0  0
    5.4496    0.6774    1.6572 H   0  0  0  0  0  0  0  0  0  0  0  0
    4.2343   -1.5774    2.3622 H   0  0  0  0  0  0  0  0  0  0  0  0
    4.6994   -1.3218    0.6896 H   0  0  0  0  0  0  0  0  0  0  0  0
    3.8244   -3.5867    0.8961 H   0  0  0  0  0  0  0  0  0  0  0  0
    2.6596   -2.6951   -0.0631 H   0  0  0  0  0  0  0  0  0  0  0  0
    1.0701    1.3065    2.6803 H   0  0  0  0  0  0  0  0  0  0  0  0
    0.1389   -3.5160    3.3833 H   0  0  0  0  0  0  0  0  0  0  0  0
    0.5539    0.6548    0.0294 H   0  0  0  0  0  0  0  0  0  0  0  0
    3.1132    1.0557   -2.6432 H   0  0  0  0  0  0  0  0  0  0  0  0
    0.7371   -0.3354   -5.6436 H   0  0  0  0  0  0  0  0  0  0  0  0
   -1.4190    1.5377   -0.8837 H   0  0  0  0  0  0  0  0  0  0  0  0
   -3.5941    1.4063   -2.0396 H   0  0  0  0  0  0  0  0  0  0  0  0
   -3.7543    0.4224   -4.3079 H   0  0  0  0  0  0  0  0  0  0  0  0
   -1.7218   -0.3013   -5.4882 H   0  0  0  0  0  0  0  0  0  0  0  0
  1  2  1  0  0  0  0
  1 28  1  0  0  0  0
  1 29  1  0  0  0  0
  1 30  1  0  0  0  0
  3  4  1  0  0  0  0
  3  8  1  0  0  0  0
  3 15  1  6  0  0  0
  3  2  1  0  0  0  0
  4  5  1  0  0  0  0
  4 31  1  0  0  0  0
  4 32  1  0  0  0  0
  5  6  1  0  0  0  0
  5 33  1  0  0  0  0
  5 34  1  0  0  0  0
  6  7  1  0  0  0  0
  7  8  1  0  0  0  0
  7 12  2  0  0  0  0
  8  9  2  0  0  0  0
  9 10  1  0  0  0  0
  9 35  1  0  0  0  0
 10 11  2  0  0  0  0
 10 14  1  0  0  0  0
 11 12  1  0  0  0  0
 11 13  1  0  0  0  0
 12 36  1  0  0  0  0
 15 16  2  0  0  0  0
 15 17  1  0  0  0  0
 17 18  1  0  0  0  0
 17 37  1  0  0  0  0
 18 19  1  0  0  0  0
 18 23  2  0  0  0  0
 19 20  2  0  0  0  0
 19 38  1  0  0  0  0
 20 21  1  0  0  0  0
 21 22  2  0  0  0  0
 21 39  1  0  0  0  0
 22 23  1  0  0  0  0
 22 27  1  0  0  0  0
 23 24  1  0  0  0  0
 24 25  2  0  0  0  0
 24 40  1  0  0  0  0
 25 26  1  0  0  0  0
 25 41  1  0  0  0  0
 26 27  2  0  0  0  0
 26 42  1  0  0  0  0
 27 43  1  0  0  0  0
M  END
$$$$
