
 OpenBabel07202414123D

 70 74  0  0  1  0  0  0  0  0999 V2000
    1.7231    2.2889    2.2049 C   0  0  0  0  0  0  0  0  0  0  0  0
    3.2308    2.1270    2.0474 C   0  0  0  0  0  0  0  0  0  0  0  0
    3.9477    3.4301    2.4015 C   0  0  0  0  0  0  0  0  0  0  0  0
    3.6625    1.0571    2.9074 O   0  0  0  0  0  0  0  0  0  0  0  0
    4.8233    0.4078    2.5819 C   0  0  0  0  0  0  0  0  0  0  0  0
    5.5461    0.6112    1.4192 C   0  0  0  0  0  0  0  0  0  0  0  0
    6.7435   -0.0731    1.1993 C   0  0  0  0  0  0  0  0  0  0  0  0
    7.3121   -0.9360    2.1451 C   0  0  0  0  0  0  0  0  0  0  0  0
    8.6342   -1.5061    1.9044 N   0  0  0  0  0  0  0  0  0  0  0  0
    9.0464   -2.7991    2.5348 C   0  0  3  0  0  0  0  0  0  0  0  0
    9.7014   -2.5795    3.9492 C   0  0  0  0  0  0  0  0  0  0  0  0
    9.1492   -1.9791    4.8693 O   0  0  0  0  0  0  0  0  0  0  0  0
   10.8874   -3.2755    4.1462 N   0  0  0  0  0  0  0  0  0  0  0  0
   11.4519   -3.5024    5.4725 C   0  0  0  0  0  0  0  0  0  0  0  0
   10.9111   -4.7998    6.0908 C   0  0  0  0  0  0  0  0  0  0  0  0
   11.4370   -5.0791    7.4734 C   0  0  0  0  0  0  0  0  0  0  0  0
   10.7540   -4.5914    8.5931 C   0  0  0  0  0  0  0  0  0  0  0  0
   11.2177   -4.8580    9.8844 C   0  0  0  0  0  0  0  0  0  0  0  0
   12.3805   -5.6173   10.0730 C   0  0  0  0  0  0  0  0  0  0  0  0
   12.8585   -5.8924   11.3820 N   0  0  0  0  0  0  0  0  0  0  0  0
   12.3104   -5.5172   12.5839 C   0  0  0  0  0  0  0  0  0  0  0  0
   13.0402   -5.9587   13.5833 N   0  0  0  0  0  0  0  0  0  0  0  0
   14.0993   -6.6427   13.0498 N   0  0  0  0  0  0  0  0  0  0  0  0
   13.9816   -6.5966   11.7430 C   0  0  0  0  0  0  0  0  0  0  0  0
   13.0653   -6.1055    8.9504 C   0  0  0  0  0  0  0  0  0  0  0  0
   12.5950   -5.8372    7.6612 C   0  0  0  0  0  0  0  0  0  0  0  0
    7.9971   -3.9277    2.5939 C   0  0  0  0  0  0  0  0  0  0  0  0
    6.9653   -4.0850    1.6654 C   0  0  0  0  0  0  0  0  0  0  0  0
    6.0211   -5.0968    1.8360 C   0  0  0  0  0  0  0  0  0  0  0  0
    6.1607   -5.9716    2.9026 C   0  0  0  0  0  0  0  0  0  0  0  0
    7.1918   -5.9256    3.7543 N   0  0  0  0  0  0  0  0  0  0  0  0
    8.0786   -4.9207    3.5732 C   0  0  0  0  0  0  0  0  0  0  0  0
    9.5601   -0.7363    1.1304 C   0  0  0  0  0  0  0  0  0  0  0  0
    9.3019    0.3644    0.6441 O   0  0  0  0  0  0  0  0  0  0  0  0
   10.9127   -1.2344    0.8643 C   0  0  0  0  0  0  0  0  0  0  0  0
   11.6432   -0.8739   -0.2495 C   0  0  0  0  0  0  0  0  0  0  0  0
   12.8959   -1.3803   -0.1306 O   0  0  0  0  0  0  0  0  0  0  0  0
   12.8719   -2.0186    1.0672 C   0  0  0  0  0  0  0  0  0  0  0  0
   11.7144   -2.0054    1.6937 N   0  0  0  0  0  0  0  0  0  0  0  0
    6.5342   -1.1989    3.2802 C   0  0  0  0  0  0  0  0  0  0  0  0
    5.3065   -0.5344    3.4941 C   0  0  0  0  0  0  0  0  0  0  0  0
    1.3491    3.0810    1.5469 H   0  0  0  0  0  0  0  0  0  0  0  0
    1.4476    2.5246    3.2368 H   0  0  0  0  0  0  0  0  0  0  0  0
    1.2164    1.3554    1.9373 H   0  0  0  0  0  0  0  0  0  0  0  0
    3.3785    1.8808    0.9916 H   0  0  0  0  0  0  0  0  0  0  0  0
    3.8631    3.6511    3.4708 H   0  0  0  0  0  0  0  0  0  0  0  0
    3.5400    4.2733    1.8342 H   0  0  0  0  0  0  0  0  0  0  0  0
    5.0179    3.3661    2.1788 H   0  0  0  0  0  0  0  0  0  0  0  0
    5.2429    1.3080    0.6484 H   0  0  0  0  0  0  0  0  0  0  0  0
    7.2064    0.1123    0.2340 H   0  0  0  0  0  0  0  0  0  0  0  0
    9.8018   -3.2454    1.8809 H   0  0  0  0  0  0  0  0  0  0  0  0
   11.4815   -3.4068    3.3324 H   0  0  0  0  0  0  0  0  0  0  0  0
   11.2240   -2.6471    6.1174 H   0  0  0  0  0  0  0  0  0  0  0  0
   12.5397   -3.5612    5.3591 H   0  0  0  0  0  0  0  0  0  0  0  0
   11.1390   -5.6512    5.4344 H   0  0  0  0  0  0  0  0  0  0  0  0
    9.8174   -4.7628    6.1519 H   0  0  0  0  0  0  0  0  0  0  0  0
    9.8430   -4.0069    8.4656 H   0  0  0  0  0  0  0  0  0  0  0  0
   10.6391   -4.4559   10.7111 H   0  0  0  0  0  0  0  0  0  0  0  0
   11.4039   -4.9416   12.6908 H   0  0  0  0  0  0  0  0  0  0  0  0
   14.6725   -7.0467   11.0472 H   0  0  0  0  0  0  0  0  0  0  0  0
   13.9656   -6.7069    9.0337 H   0  0  0  0  0  0  0  0  0  0  0  0
   13.1348   -6.2389    6.8061 H   0  0  0  0  0  0  0  0  0  0  0  0
    6.8563   -3.4044    0.8238 H   0  0  0  0  0  0  0  0  0  0  0  0
    5.1765   -5.1958    1.1619 H   0  0  0  0  0  0  0  0  0  0  0  0
    5.4315   -6.7506    3.1012 H   0  0  0  0  0  0  0  0  0  0  0  0
    8.8905   -4.9597    4.2830 H   0  0  0  0  0  0  0  0  0  0  0  0
   11.4354   -0.2760   -1.1276 H   0  0  0  0  0  0  0  0  0  0  0  0
   13.8015   -2.4684    1.3889 H   0  0  0  0  0  0  0  0  0  0  0  0
    6.8601   -1.8840    4.0559 H   0  0  0  0  0  0  0  0  0  0  0  0
    4.7444   -0.7395    4.4032 H   0  0  0  0  0  0  0  0  0  0  0  0
  1  2  1  0  0  0  0
  1 42  1  0  0  0  0
  1 43  1  0  0  0  0
  1 44  1  0  0  0  0
  2  3  1  0  0  0  0
  2  4  1  0  0  0  0
  2 45  1  0  0  0  0
  3 46  1  0  0  0  0
  3 47  1  0  0  0  0
  3 48  1  0  0  0  0
  4  5  1  0  0  0  0
  5  6  1  0  0  0  0
  5 41  2  0  0  0  0
  6  7  2  0  0  0  0
  6 49  1  0  0  0  0
  7  8  1  0  0  0  0
  7 50  1  0  0  0  0
  8  9  1  0  0  0  0
  8 40  2  0  0  0  0
  9 10  1  0  0  0  0
  9 33  1  0  0  0  0
 10 11  1  0  0  0  0
 10 27  1  0  0  0  0
 10 51  1  0  0  0  0
 11 12  2  0  0  0  0
 11 13  1  0  0  0  0
 13 14  1  0  0  0  0
 13 52  1  0  0  0  0
 14 15  1  0  0  0  0
 14 53  1  0  0  0  0
 14 54  1  0  0  0  0
 15 16  1  0  0  0  0
 15 55  1  0  0  0  0
 15 56  1  0  0  0  0
 16 17  1  0  0  0  0
 16 26  2  0  0  0  0
 17 18  2  0  0  0  0
 17 57  1  0  0  0  0
 18 19  1  0  0  0  0
 18 58  1  0  0  0  0
 19 20  1  0  0  0  0
 19 25  2  0  0  0  0
 20 21  1  0  0  0  0
 20 24  1  0  0  0  0
 21 22  2  0  0  0  0
 21 59  1  0  0  0  0
 22 23  1  0  0  0  0
 23 24  2  0  0  0  0
 24 60  1  0  0  0  0
 25 26  1  0  0  0  0
 25 61  1  0  0  0  0
 26 62  1  0  0  0  0
 27 28  1  0  0  0  0
 27 32  2  0  0  0  0
 28 29  2  0  0  0  0
 28 63  1  0  0  0  0
 29 30  1  0  0  0  0
 29 64  1  0  0  0  0
 30 31  2  0  0  0  0
 30 65  1  0  0  0  0
 31 32  1  0  0  0  0
 32 66  1  0  0  0  0
 33 34  2  0  0  0  0
 33 35  1  0  0  0  0
 35 36  2  0  0  0  0
 35 39  1  0  0  0  0
 36 37  1  0  0  0  0
 36 67  1  0  0  0  0
 37 38  1  0  0  0  0
 38 39  2  0  0  0  0
 38 68  1  0  0  0  0
 40 41  1  0  0  0  0
 40 69  1  0  0  0  0
 41 70  1  0  0  0  0
M  END
$$$$
