
 OpenBabel07202414203D

 44 47  0  0  1  0  0  0  0  0999 V2000
    5.2675    1.1510   -3.4352 C   0  0  0  0  0  0  0  0  0  0  0  0
    5.0912    2.4501   -2.9762 C   0  0  0  0  0  0  0  0  0  0  0  0
    3.9049    2.8187   -2.3228 C   0  0  0  0  0  0  0  0  0  0  0  0
    2.8523    1.8936   -2.1061 C   0  0  0  0  0  0  0  0  0  0  0  0
    3.0630    0.5779   -2.5999 C   0  0  0  0  0  0  0  0  0  0  0  0
    4.2537    0.2174   -3.2501 C   0  0  0  0  0  0  0  0  0  0  0  0
    2.0542   -0.3681   -2.4387 C   0  0  0  0  0  0  0  0  0  0  0  0
    0.8823   -0.1302   -1.8293 N   0  0  0  0  0  0  0  0  0  0  0  0
    0.6911    1.1280   -1.3693 C   0  0  0  0  0  0  0  0  0  0  0  0
    1.6082    2.1846   -1.4707 C   0  0  0  0  0  0  0  0  0  0  0  0
    1.3147    3.4783   -0.9164 N   0  0  0  0  0  0  0  0  0  0  0  0
    0.0303    3.9197   -0.6459 C   0  0  0  0  0  0  0  0  0  0  0  0
   -0.9834    3.3430   -1.0458 O   0  0  0  0  0  0  0  0  0  0  0  0
   -0.1514    5.1827    0.1932 C   0  0  3  0  0  0  0  0  0  0  0  0
    0.5186    5.1060    1.5519 C   0  0  0  0  0  0  0  0  0  0  0  0
   -0.0411    6.2559    2.3762 C   0  0  0  0  0  0  0  0  0  0  0  0
    0.3519    7.5608    1.8215 N   0  0  0  0  0  0  0  0  0  0  0  0
    0.2355    7.6924    0.3767 C   0  0  0  0  0  0  0  0  0  0  0  0
    0.0823    6.5384   -0.4467 C   0  0  0  0  0  0  0  0  0  0  0  0
   -0.0271    6.6831   -1.8449 C   0  0  0  0  0  0  0  0  0  0  0  0
   -0.0169    7.9468   -2.4296 C   0  0  0  0  0  0  0  0  0  0  0  0
    0.0894    9.0791   -1.6385 C   0  0  0  0  0  0  0  0  0  0  0  0
    0.2197    8.9494   -0.2523 C   0  0  0  0  0  0  0  0  0  0  0  0
   -0.1893    8.1075   -4.1328 Cl  0  0  0  0  0  0  0  0  0  0  0  0
    0.6975    8.6360    2.6439 C   0  0  0  0  0  0  0  0  0  0  0  0
    1.0806    9.7507    2.2987 O   0  0  0  0  0  0  0  0  0  0  0  0
    0.6055    8.4318    3.9895 N   0  0  0  0  0  0  0  0  0  0  0  0
    6.1849    0.8630   -3.9433 H   0  0  0  0  0  0  0  0  0  0  0  0
    5.8773    3.1854   -3.1325 H   0  0  0  0  0  0  0  0  0  0  0  0
    3.8160    3.8528   -2.0048 H   0  0  0  0  0  0  0  0  0  0  0  0
    4.4060   -0.7953   -3.6247 H   0  0  0  0  0  0  0  0  0  0  0  0
    2.1652   -1.3846   -2.8064 H   0  0  0  0  0  0  0  0  0  0  0  0
   -0.2625    1.2366   -0.8628 H   0  0  0  0  0  0  0  0  0  0  0  0
    2.0695    4.1480   -0.8547 H   0  0  0  0  0  0  0  0  0  0  0  0
   -1.2372    5.1811    0.3897 H   0  0  0  0  0  0  0  0  0  0  0  0
    1.6098    5.1923    1.4718 H   0  0  0  0  0  0  0  0  0  0  0  0
    0.2977    4.1509    2.0416 H   0  0  0  0  0  0  0  0  0  0  0  0
    0.2902    6.1241    3.4064 H   0  0  0  0  0  0  0  0  0  0  0  0
   -1.1399    6.2362    2.4043 H   0  0  0  0  0  0  0  0  0  0  0  0
   -0.1688    5.8159   -2.4868 H   0  0  0  0  0  0  0  0  0  0  0  0
    0.0511   10.0721   -2.0798 H   0  0  0  0  0  0  0  0  0  0  0  0
    0.2510    9.8774    0.3106 H   0  0  0  0  0  0  0  0  0  0  0  0
    0.9951    7.5855    4.3732 H   0  0  0  0  0  0  0  0  0  0  0  0
    0.9208    9.2505    4.4976 H   0  0  0  0  0  0  0  0  0  0  0  0
  1  2  1  0  0  0  0
  1  6  2  0  0  0  0
  1 28  1  0  0  0  0
  2  3  2  0  0  0  0
  2 29  1  0  0  0  0
  3  4  1  0  0  0  0
  3 30  1  0  0  0  0
  4  5  1  0  0  0  0
  4 10  2  0  0  0  0
  5  6  1  0  0  0  0
  5  7  2  0  0  0  0
  6 31  1  0  0  0  0
  7  8  1  0  0  0  0
  7 32  1  0  0  0  0
  8  9  2  0  0  0  0
  9 10  1  0  0  0  0
  9 33  1  0  0  0  0
 10 11  1  0  0  0  0
 11 12  1  0  0  0  0
 11 34  1  0  0  0  0
 12 13  2  0  0  0  0
 12 14  1  0  0  0  0
 14 15  1  0  0  0  0
 14 19  1  0  0  0  0
 14 35  1  0  0  0  0
 15 16  1  0  0  0  0
 15 36  1  0  0  0  0
 15 37  1  0  0  0  0
 16 17  1  0  0  0  0
 16 38  1  0  0  0  0
 16 39  1  0  0  0  0
 17 18  1  0  0  0  0
 17 25  1  0  0  0  0
 18 19  1  0  0  0  0
 18 23  2  0  0  0  0
 19 20  2  0  0  0  0
 20 21  1  0  0  0  0
 20 40  1  0  0  0  0
 21 22  2  0  0  0  0
 21 24  1  0  0  0  0
 22 23  1  0  0  0  0
 22 41  1  0  0  0  0
 23 42  1  0  0  0  0
 25 26  2  0  0  0  0
 25 27  1  0  0  0  0
 27 43  1  0  0  0  0
 27 44  1  0  0  0  0
M  END
$$$$
