
 OpenBabel07202414183D

 58 63  0  0  1  0  0  0  0  0999 V2000
    9.7871   -3.7198    1.1346 F   0  0  0  0  0  0  0  0  0  0  0  0
    8.9887   -3.0355    0.3068 C   0  0  0  0  0  0  0  0  0  0  0  0
    9.5493   -2.1476   -0.5955 C   0  0  0  0  0  0  0  0  0  0  0  0
    8.7090   -1.3878   -1.3952 C   0  0  0  0  0  0  0  0  0  0  0  0
    7.3210   -1.5623   -1.3319 C   0  0  0  0  0  0  0  0  0  0  0  0
    6.5125   -0.7159   -2.0829 C   0  0  0  0  0  0  0  0  0  0  0  0
    5.1804   -0.7829   -2.1075 N   0  0  0  0  0  0  0  0  0  0  0  0
    4.6399   -1.7877   -1.3845 C   0  0  0  0  0  0  0  0  0  0  0  0
    5.3179   -2.7382   -0.5810 C   0  0  0  0  0  0  0  0  0  0  0  0
    4.5308   -3.7255    0.1082 N   0  0  0  0  0  0  0  0  0  0  0  0
    4.8640   -4.8131    0.9902 C   0  0  0  0  0  0  0  0  0  0  0  0
    3.4507   -5.4825    1.2990 C   0  0  0  0  0  0  0  0  0  0  0  0
    2.5630   -4.2214    1.3600 C   0  0  3  0  0  0  0  0  0  0  0  0
    2.8416   -3.6382    2.7930 C   0  0  0  0  0  0  0  0  0  0  0  0
    2.8566   -2.1384    2.9123 N   0  0  0  0  0  0  0  0  0  0  0  0
    4.3897   -1.6062    3.3964 S   0  0  0  0  0  0  0  0  0  0  0  0
    4.6033   -2.2066    4.6949 O   0  0  0  0  0  0  0  0  0  0  0  0
    5.2657   -1.9326    2.3094 O   0  0  0  0  0  0  0  0  0  0  0  0
    4.3827    0.1755    3.6077 C   0  0  0  0  0  0  0  0  0  0  0  0
    5.8132    0.5095    4.0455 C   0  0  0  0  0  0  0  0  0  0  0  0
    6.8662    0.2733    3.0731 C   0  0  0  0  0  0  0  0  0  0  0  0
    7.7377    0.1373    2.3204 N   0  0  0  0  0  0  0  0  0  0  0  0
    6.0365    1.7546    4.9000 C   0  0  0  0  0  0  0  0  0  0  0  0
    6.1836    0.4007    5.5216 C   0  0  0  0  0  0  0  0  0  0  0  0
    2.0916   -1.5322    1.7978 C   0  0  0  0  0  0  0  0  0  0  0  0
    0.8766   -2.4296    1.4585 C   0  0  0  0  0  0  0  0  0  0  0  0
   -0.4146   -1.9182    1.4020 C   0  0  0  0  0  0  0  0  0  0  0  0
   -1.4684   -2.7745    1.0826 C   0  0  0  0  0  0  0  0  0  0  0  0
   -1.2283   -4.1218    0.7741 C   0  0  0  0  0  0  0  0  0  0  0  0
   -2.5579   -5.1221    0.3251 Cl  0  0  0  0  0  0  0  0  0  0  0  0
    0.0581   -4.6668    0.8329 C   0  0  0  0  0  0  0  0  0  0  0  0
    1.1058   -3.8397    1.2223 C   0  0  0  0  0  0  0  0  0  0  0  0
    3.1575   -3.7072    0.0353 C   0  0  0  0  0  0  0  0  0  0  0  0
    2.5043   -3.4967   -0.9828 O   0  0  0  0  0  0  0  0  0  0  0  0
    6.7254   -2.5593   -0.5004 C   0  0  0  0  0  0  0  0  0  0  0  0
    7.6101   -3.2414    0.3657 C   0  0  0  0  0  0  0  0  0  0  0  0
   10.6250   -2.0256   -0.6409 H   0  0  0  0  0  0  0  0  0  0  0  0
    9.1431   -0.6513   -2.0691 H   0  0  0  0  0  0  0  0  0  0  0  0
    6.9237    0.0845   -2.6894 H   0  0  0  0  0  0  0  0  0  0  0  0
    3.5609   -1.7645   -1.4878 H   0  0  0  0  0  0  0  0  0  0  0  0
    5.3167   -4.4375    1.9122 H   0  0  0  0  0  0  0  0  0  0  0  0
    5.5431   -5.5237    0.5135 H   0  0  0  0  0  0  0  0  0  0  0  0
    3.4727   -6.0708    2.2240 H   0  0  0  0  0  0  0  0  0  0  0  0
    3.1669   -6.1578    0.4817 H   0  0  0  0  0  0  0  0  0  0  0  0
    3.7260   -4.0752    3.2654 H   0  0  0  0  0  0  0  0  0  0  0  0
    2.0384   -3.9753    3.4727 H   0  0  0  0  0  0  0  0  0  0  0  0
    3.6479    0.4283    4.3772 H   0  0  0  0  0  0  0  0  0  0  0  0
    4.1361    0.6477    2.6551 H   0  0  0  0  0  0  0  0  0  0  0  0
    5.1871    2.3598    5.1894 H   0  0  0  0  0  0  0  0  0  0  0  0
    6.9477    2.3316    4.7535 H   0  0  0  0  0  0  0  0  0  0  0  0
    5.4327    0.0948    6.2430 H   0  0  0  0  0  0  0  0  0  0  0  0
    7.1827    0.0602    5.7836 H   0  0  0  0  0  0  0  0  0  0  0  0
    2.7225   -1.4175    0.9099 H   0  0  0  0  0  0  0  0  0  0  0  0
    1.7585   -0.5273    2.0714 H   0  0  0  0  0  0  0  0  0  0  0  0
   -0.6092   -0.8715    1.6164 H   0  0  0  0  0  0  0  0  0  0  0  0
   -2.4826   -2.3830    1.0680 H   0  0  0  0  0  0  0  0  0  0  0  0
    0.2270   -5.7033    0.5568 H   0  0  0  0  0  0  0  0  0  0  0  0
    7.2508   -3.9013    1.1435 H   0  0  0  0  0  0  0  0  0  0  0  0
  1  2  1  0  0  0  0
  2  3  1  0  0  0  0
  2 36  2  0  0  0  0
  3  4  2  0  0  0  0
  3 37  1  0  0  0  0
  4  5  1  0  0  0  0
  4 38  1  0  0  0  0
  5  6  1  0  0  0  0
  5 35  2  0  0  0  0
  6  7  2  0  0  0  0
  6 39  1  0  0  0  0
  7  8  1  0  0  0  0
  8  9  2  0  0  0  0
  8 40  1  0  0  0  0
  9 10  1  0  0  0  0
  9 35  1  0  0  0  0
 10 11  1  0  0  0  0
 10 33  1  0  0  0  0
 11 12  1  0  0  0  0
 11 41  1  0  0  0  0
 11 42  1  0  0  0  0
 12 13  1  0  0  0  0
 12 43  1  0  0  0  0
 12 44  1  0  0  0  0
 13 14  1  0  0  0  0
 13 32  1  0  0  0  0
 13 33  1  0  0  0  0
 14 15  1  0  0  0  0
 14 45  1  0  0  0  0
 14 46  1  0  0  0  0
 15 16  1  0  0  0  0
 15 25  1  0  0  0  0
 16 17  2  0  0  0  0
 16 18  2  0  0  0  0
 16 19  1  0  0  0  0
 19 20  1  0  0  0  0
 19 47  1  0  0  0  0
 19 48  1  0  0  0  0
 20 21  1  0  0  0  0
 20 23  1  0  0  0  0
 20 24  1  0  0  0  0
 21 22  3  0  0  0  0
 23 24  1  0  0  0  0
 23 49  1  0  0  0  0
 23 50  1  0  0  0  0
 24 51  1  0  0  0  0
 24 52  1  0  0  0  0
 25 26  1  0  0  0  0
 25 53  1  0  0  0  0
 25 54  1  0  0  0  0
 26 27  1  0  0  0  0
 26 32  2  0  0  0  0
 27 28  2  0  0  0  0
 27 55  1  0  0  0  0
 28 29  1  0  0  0  0
 28 56  1  0  0  0  0
 29 30  1  0  0  0  0
 29 31  2  0  0  0  0
 31 32  1  0  0  0  0
 31 57  1  0  0  0  0
 33 34  2  0  0  0  0
 35 36  1  0  0  0  0
 36 58  1  0  0  0  0
M  END
$$$$
