
 OpenBabel07202414133D

 55 58  0  0  1  0  0  0  0  0999 V2000
    8.7208    2.0404    5.3420 C   0  0  0  0  0  0  0  0  0  0  0  0
    7.8676    0.8556    4.9137 C   0  0  0  0  0  0  0  0  0  0  0  0
    6.4693    1.2801    4.4718 C   0  0  0  0  0  0  0  0  0  0  0  0
    6.5037    2.1334    3.3045 N   0  0  0  0  0  0  0  0  0  0  0  0
    6.5824    1.6183    2.0334 C   0  0  0  0  0  0  0  0  0  0  0  0
    6.5407    0.4146    1.7909 O   0  0  0  0  0  0  0  0  0  0  0  0
    6.5619    2.6583    0.9199 C   0  0  0  0  0  0  0  0  0  0  0  0
    7.3902    3.8507    1.1457 N   0  0  0  0  0  0  0  0  0  0  0  0
    8.8071    3.7931    0.8007 C   0  0  0  0  0  0  0  0  0  0  0  0
    9.1250    4.7326   -0.3611 C   0  0  3  0  0  0  0  0  0  0  0  0
    8.5861    4.1298   -1.6723 C   0  0  0  0  0  0  0  0  0  0  0  0
    9.2930    3.3976   -2.3493 O   0  0  0  0  0  0  0  0  0  0  0  0
    7.2595    4.4282   -1.9341 N   0  0  0  0  0  0  0  0  0  0  0  0
    6.4052    3.8961   -2.9276 C   0  0  0  0  0  0  0  0  0  0  0  0
    6.7771    2.8556   -3.7758 C   0  0  0  0  0  0  0  0  0  0  0  0
    5.9264    2.2101   -4.6017 N   0  0  0  0  0  0  0  0  0  0  0  0
    4.6540    2.6621   -4.6394 C   0  0  0  0  0  0  0  0  0  0  0  0
    4.1949    3.7806   -3.9488 C   0  0  0  0  0  0  0  0  0  0  0  0
    2.9012    4.2872   -4.1639 C   0  0  0  0  0  0  0  0  0  0  0  0
    2.4821    5.4346   -3.5040 C   0  0  0  0  0  0  0  0  0  0  0  0
    1.2813    5.9582   -3.7798 F   0  0  0  0  0  0  0  0  0  0  0  0
    3.3027    6.0585   -2.5809 C   0  0  0  0  0  0  0  0  0  0  0  0
    4.5802    5.5465   -2.3424 C   0  0  0  0  0  0  0  0  0  0  0  0
    5.0795    4.4124   -3.0425 C   0  0  0  0  0  0  0  0  0  0  0  0
    8.5805    6.1172   -0.0406 C   0  0  0  0  0  0  0  0  0  0  0  0
    9.1147    7.2430   -0.6868 C   0  0  0  0  0  0  0  0  0  0  0  0
    8.5377    8.4975   -0.4907 C   0  0  0  0  0  0  0  0  0  0  0  0
    9.1831    9.8662   -1.3068 Cl  0  0  0  0  0  0  0  0  0  0  0  0
    7.4264    8.6447    0.3388 C   0  0  0  0  0  0  0  0  0  0  0  0
    6.8959    7.5338    1.0012 C   0  0  0  0  0  0  0  0  0  0  0  0
    7.4750    6.2708    0.8290 C   0  0  0  0  0  0  0  0  0  0  0  0
    6.7895    5.0690    1.4109 C   0  0  0  0  0  0  0  0  0  0  0  0
    5.7017    5.1737    1.9635 O   0  0  0  0  0  0  0  0  0  0  0  0
    9.6935    1.6949    5.7044 H   0  0  0  0  0  0  0  0  0  0  0  0
    8.2349    2.6000    6.1476 H   0  0  0  0  0  0  0  0  0  0  0  0
    8.8981    2.7249    4.5062 H   0  0  0  0  0  0  0  0  0  0  0  0
    7.7788    0.1575    5.7540 H   0  0  0  0  0  0  0  0  0  0  0  0
    8.3766    0.3210    4.1028 H   0  0  0  0  0  0  0  0  0  0  0  0
    5.9564    1.8285    5.2685 H   0  0  0  0  0  0  0  0  0  0  0  0
    5.8750    0.3886    4.2412 H   0  0  0  0  0  0  0  0  0  0  0  0
    6.4623    3.1422    3.4122 H   0  0  0  0  0  0  0  0  0  0  0  0
    5.5195    2.9609    0.7694 H   0  0  0  0  0  0  0  0  0  0  0  0
    6.9062    2.1827   -0.0049 H   0  0  0  0  0  0  0  0  0  0  0  0
    9.1054    2.7592    0.5988 H   0  0  0  0  0  0  0  0  0  0  0  0
    9.3547    4.1251    1.6935 H   0  0  0  0  0  0  0  0  0  0  0  0
   10.2164    4.8051   -0.4634 H   0  0  0  0  0  0  0  0  0  0  0  0
    6.8030    5.0423   -1.2819 H   0  0  0  0  0  0  0  0  0  0  0  0
    7.7937    2.4705   -3.8160 H   0  0  0  0  0  0  0  0  0  0  0  0
    3.9952    2.0840   -5.2835 H   0  0  0  0  0  0  0  0  0  0  0  0
    2.2246    3.8240   -4.8775 H   0  0  0  0  0  0  0  0  0  0  0  0
    2.9570    6.9506   -2.0684 H   0  0  0  0  0  0  0  0  0  0  0  0
    5.1890    6.0910   -1.6271 H   0  0  0  0  0  0  0  0  0  0  0  0
    9.9615    7.1399   -1.3632 H   0  0  0  0  0  0  0  0  0  0  0  0
    6.9590    9.6193    0.4610 H   0  0  0  0  0  0  0  0  0  0  0  0
    6.0083    7.6536    1.6213 H   0  0  0  0  0  0  0  0  0  0  0  0
  1  2  1  0  0  0  0
  1 34  1  0  0  0  0
  1 35  1  0  0  0  0
  1 36  1  0  0  0  0
  2  3  1  0  0  0  0
  2 37  1  0  0  0  0
  2 38  1  0  0  0  0
  3  4  1  0  0  0  0
  3 39  1  0  0  0  0
  3 40  1  0  0  0  0
  4  5  1  0  0  0  0
  4 41  1  0  0  0  0
  5  6  2  0  0  0  0
  5  7  1  0  0  0  0
  7  8  1  0  0  0  0
  7 42  1  0  0  0  0
  7 43  1  0  0  0  0
  8  9  1  0  0  0  0
  8 32  1  0  0  0  0
  9 10  1  0  0  0  0
  9 44  1  0  0  0  0
  9 45  1  0  0  0  0
 10 11  1  0  0  0  0
 10 25  1  0  0  0  0
 10 46  1  0  0  0  0
 11 12  2  0  0  0  0
 11 13  1  0  0  0  0
 13 14  1  0  0  0  0
 13 47  1  0  0  0  0
 14 15  1  0  0  0  0
 14 24  2  0  0  0  0
 15 16  2  0  0  0  0
 15 48  1  0  0  0  0
 16 17  1  0  0  0  0
 17 18  2  0  0  0  0
 17 49  1  0  0  0  0
 18 19  1  0  0  0  0
 18 24  1  0  0  0  0
 19 20  2  0  0  0  0
 19 50  1  0  0  0  0
 20 21  1  0  0  0  0
 20 22  1  0  0  0  0
 22 23  2  0  0  0  0
 22 51  1  0  0  0  0
 23 24  1  0  0  0  0
 23 52  1  0  0  0  0
 25 26  1  0  0  0  0
 25 31  2  0  0  0  0
 26 27  2  0  0  0  0
 26 53  1  0  0  0  0
 27 28  1  0  0  0  0
 27 29  1  0  0  0  0
 29 30  2  0  0  0  0
 29 54  1  0  0  0  0
 30 31  1  0  0  0  0
 30 55  1  0  0  0  0
 31 32  1  0  0  0  0
 32 33  2  0  0  0  0
M  END
$$$$
