
 OpenBabel07202414173D

 48 50  0  0  1  0  0  0  0  0999 V2000
    0.9893    0.3553    0.1258 Cl  0  0  0  0  0  0  0  0  0  0  0  0
    2.7112    0.4377    0.5539 C   0  0  0  0  0  0  0  0  0  0  0  0
    3.2631   -0.9224    0.9516 C   0  0  0  0  0  0  0  0  0  0  0  0
    2.5538   -1.9260    1.0456 O   0  0  0  0  0  0  0  0  0  0  0  0
    4.6359   -0.9938    1.1720 N   0  0  0  0  0  0  0  0  0  0  0  0
    5.5675    0.1417    1.2398 C   0  0  0  0  0  0  0  0  0  0  0  0
    6.7801   -0.0619    0.3061 C   0  0  0  0  0  0  0  0  0  0  0  0
    7.4728   -1.3788    0.4407 N   0  0  0  0  0  0  0  0  0  0  0  0
    8.2394   -1.5240    1.7201 C   0  0  3  0  0  0  0  0  0  0  0  0
    9.0465   -2.8709    1.9382 C   0  0  0  0  0  0  0  0  0  0  0  0
    9.9910   -3.2002    0.7713 C   0  0  0  0  0  0  0  0  0  0  0  0
   10.7507   -4.4886    1.0430 C   0  0  0  0  0  0  0  0  0  0  0  0
    9.8365   -5.5641    1.2360 O   0  0  0  0  0  0  0  0  0  0  0  0
    9.0513   -5.3852    2.4097 C   0  0  0  0  0  0  0  0  0  0  0  0
    8.2106   -4.1123    2.3306 C   0  0  0  0  0  0  0  0  0  0  0  0
    9.2354   -0.3584    1.9517 C   0  0  0  0  0  0  0  0  0  0  0  0
    9.4536    0.1243    3.2530 C   0  0  0  0  0  0  0  0  0  0  0  0
   10.3493    1.1758    3.4849 C   0  0  0  0  0  0  0  0  0  0  0  0
   11.0343    1.7661    2.4250 C   0  0  0  0  0  0  0  0  0  0  0  0
   10.8385    1.2889    1.1281 C   0  0  0  0  0  0  0  0  0  0  0  0
    9.9586    0.2268    0.8972 C   0  0  0  0  0  0  0  0  0  0  0  0
    6.4123   -2.3967    0.2342 C   0  0  0  0  0  0  0  0  0  0  0  0
    5.2693   -2.3126    1.2687 C   0  0  0  0  0  0  0  0  0  0  0  0
    2.8171    1.1446    1.3795 H   0  0  0  0  0  0  0  0  0  0  0  0
    3.2415    0.7971   -0.3324 H   0  0  0  0  0  0  0  0  0  0  0  0
    5.9004    0.2271    2.2799 H   0  0  0  0  0  0  0  0  0  0  0  0
    5.0719    1.0808    0.9851 H   0  0  0  0  0  0  0  0  0  0  0  0
    7.4633    0.7855    0.4077 H   0  0  0  0  0  0  0  0  0  0  0  0
    6.4216    0.0072   -0.7328 H   0  0  0  0  0  0  0  0  0  0  0  0
    7.5258   -1.4578    2.5522 H   0  0  0  0  0  0  0  0  0  0  0  0
    9.6952   -2.7057    2.8130 H   0  0  0  0  0  0  0  0  0  0  0  0
   10.7182   -2.3983    0.6169 H   0  0  0  0  0  0  0  0  0  0  0  0
    9.4120   -3.3127   -0.1511 H   0  0  0  0  0  0  0  0  0  0  0  0
   11.4004   -4.3952    1.9219 H   0  0  0  0  0  0  0  0  0  0  0  0
   11.3887   -4.7326    0.1873 H   0  0  0  0  0  0  0  0  0  0  0  0
    9.7003   -5.3855    3.2923 H   0  0  0  0  0  0  0  0  0  0  0  0
    8.3881   -6.2552    2.4912 H   0  0  0  0  0  0  0  0  0  0  0  0
    7.7021   -3.9411    3.2861 H   0  0  0  0  0  0  0  0  0  0  0  0
    7.4318   -4.3276    1.6062 H   0  0  0  0  0  0  0  0  0  0  0  0
    8.9365   -0.3201    4.1029 H   0  0  0  0  0  0  0  0  0  0  0  0
   10.5124    1.5358    4.4995 H   0  0  0  0  0  0  0  0  0  0  0  0
   11.7179    2.5872    2.6060 H   0  0  0  0  0  0  0  0  0  0  0  0
   11.3707    1.7460    0.2964 H   0  0  0  0  0  0  0  0  0  0  0  0
    9.8230   -0.1355   -0.1229 H   0  0  0  0  0  0  0  0  0  0  0  0
    6.8268   -3.3965    0.1367 H   0  0  0  0  0  0  0  0  0  0  0  0
    5.9715   -2.2293   -0.7605 H   0  0  0  0  0  0  0  0  0  0  0  0
    5.6277   -2.4368    2.2963 H   0  0  0  0  0  0  0  0  0  0  0  0
    4.5502   -3.1164    1.0842 H   0  0  0  0  0  0  0  0  0  0  0  0
  1  2  1  0  0  0  0
  2  3  1  0  0  0  0
  2 24  1  0  0  0  0
  2 25  1  0  0  0  0
  3  4  2  0  0  0  0
  3  5  1  0  0  0  0
  5  6  1  0  0  0  0
  5 23  1  0  0  0  0
  6  7  1  0  0  0  0
  6 26  1  0  0  0  0
  6 27  1  0  0  0  0
  7  8  1  0  0  0  0
  7 28  1  0  0  0  0
  7 29  1  0  0  0  0
  8  9  1  0  0  0  0
  8 22  1  0  0  0  0
  9 10  1  0  0  0  0
  9 16  1  0  0  0  0
  9 30  1  0  0  0  0
 10 11  1  0  0  0  0
 10 15  1  0  0  0  0
 10 31  1  0  0  0  0
 11 12  1  0  0  0  0
 11 32  1  0  0  0  0
 11 33  1  0  0  0  0
 12 13  1  0  0  0  0
 12 34  1  0  0  0  0
 12 35  1  0  0  0  0
 13 14  1  0  0  0  0
 14 15  1  0  0  0  0
 14 36  1  0  0  0  0
 14 37  1  0  0  0  0
 15 38  1  0  0  0  0
 15 39  1  0  0  0  0
 16 17  1  0  0  0  0
 16 21  2  0  0  0  0
 17 18  2  0  0  0  0
 17 40  1  0  0  0  0
 18 19  1  0  0  0  0
 18 41  1  0  0  0  0
 19 20  2  0  0  0  0
 19 42  1  0  0  0  0
 20 21  1  0  0  0  0
 20 43  1  0  0  0  0
 21 44  1  0  0  0  0
 22 23  1  0  0  0  0
 22 45  1  0  0  0  0
 22 46  1  0  0  0  0
 23 47  1  0  0  0  0
 23 48  1  0  0  0  0
M  END
$$$$
