
 OpenBabel07202414183D

 54 58  0  0  1  0  0  0  0  0999 V2000
    0.9689   -0.0571   -0.1558 Cl  0  0  0  0  0  0  0  0  0  0  0  0
    2.6848   -0.0704   -0.0337 C   0  0  0  0  0  0  0  0  0  0  0  0
    3.3949    1.1197   -0.1514 C   0  0  0  0  0  0  0  0  0  0  0  0
    4.7879    1.1052   -0.0689 C   0  0  0  0  0  0  0  0  0  0  0  0
    5.4841   -0.0981    0.1391 C   0  0  0  0  0  0  0  0  0  0  0  0
    4.7595   -1.2969    0.2635 C   0  0  0  0  0  0  0  0  0  0  0  0
    3.3560   -1.2733    0.1751 C   0  0  0  0  0  0  0  0  0  0  0  0
    5.4795   -2.6068    0.5326 C   0  0  2  0  0  0  0  0  0  0  0  0
    5.3668   -3.0409    2.0118 C   0  0  0  0  0  0  0  0  0  0  0  0
    4.8030   -2.3400    2.8489 O   0  0  0  0  0  0  0  0  0  0  0  0
    5.8795   -4.3053    2.2730 N   0  0  0  0  0  0  0  0  0  0  0  0
    5.9621   -4.9509    3.5419 C   0  0  0  0  0  0  0  0  0  0  0  0
    5.4226   -4.4066    4.7093 C   0  0  0  0  0  0  0  0  0  0  0  0
    5.6424   -4.8866    5.9561 N   0  0  0  0  0  0  0  0  0  0  0  0
    6.3969   -5.9980    6.0481 C   0  0  0  0  0  0  0  0  0  0  0  0
    6.8776   -6.7158    4.9557 C   0  0  0  0  0  0  0  0  0  0  0  0
    7.5500   -7.9379    5.1385 C   0  0  0  0  0  0  0  0  0  0  0  0
    8.0029   -8.6706    4.0456 C   0  0  0  0  0  0  0  0  0  0  0  0
    7.8102   -8.1779    2.7629 C   0  0  0  0  0  0  0  0  0  0  0  0
    7.1545   -6.9571    2.5712 C   0  0  0  0  0  0  0  0  0  0  0  0
    6.6602   -6.1898    3.6590 C   0  0  0  0  0  0  0  0  0  0  0  0
    6.9225   -2.5435    0.0095 C   0  0  0  0  0  0  0  0  0  0  0  0
    7.6694   -1.3464    0.5119 N   0  0  0  0  0  0  0  0  0  0  0  0
    9.3477   -1.3767    0.1284 S   0  0  0  0  0  0  0  0  0  0  0  0
    9.7346   -2.7774    0.1193 O   0  0  0  0  0  0  0  0  0  0  0  0
    9.5588   -0.5459   -1.0339 O   0  0  0  0  0  0  0  0  0  0  0  0
   10.0991   -0.6007    1.5667 C   0  0  0  0  0  0  0  0  0  0  0  0
   11.5859   -0.4777    1.2764 C   0  0  0  0  0  0  0  0  0  0  0  0
   12.3093   -1.7123    1.0435 C   0  0  0  0  0  0  0  0  0  0  0  0
   12.9314   -2.6769    0.8854 N   0  0  0  0  0  0  0  0  0  0  0  0
   12.1094    0.7952    0.6263 C   0  0  0  0  0  0  0  0  0  0  0  0
   12.3755    0.5541    2.0812 C   0  0  0  0  0  0  0  0  0  0  0  0
    6.9983   -0.0700    0.1278 C   0  0  0  0  0  0  0  0  0  0  0  0
    2.8727    2.0587   -0.3128 H   0  0  0  0  0  0  0  0  0  0  0  0
    5.3313    2.0419   -0.1793 H   0  0  0  0  0  0  0  0  0  0  0  0
    2.7842   -2.1926    0.2820 H   0  0  0  0  0  0  0  0  0  0  0  0
    4.9669   -3.3894   -0.0460 H   0  0  0  0  0  0  0  0  0  0  0  0
    6.3667   -4.7672    1.5217 H   0  0  0  0  0  0  0  0  0  0  0  0
    4.7725   -3.5385    4.7052 H   0  0  0  0  0  0  0  0  0  0  0  0
    6.6023   -6.3146    7.0679 H   0  0  0  0  0  0  0  0  0  0  0  0
    7.7021   -8.3399    6.1386 H   0  0  0  0  0  0  0  0  0  0  0  0
    8.4969   -9.6272    4.1954 H   0  0  0  0  0  0  0  0  0  0  0  0
    8.1615   -8.7458    1.9045 H   0  0  0  0  0  0  0  0  0  0  0  0
    7.0133   -6.6408    1.5427 H   0  0  0  0  0  0  0  0  0  0  0  0
    6.9141   -2.5090   -1.0883 H   0  0  0  0  0  0  0  0  0  0  0  0
    7.4510   -3.4546    0.3040 H   0  0  0  0  0  0  0  0  0  0  0  0
    9.9113   -1.2358    2.4370 H   0  0  0  0  0  0  0  0  0  0  0  0
    9.6325    0.3784    1.7043 H   0  0  0  0  0  0  0  0  0  0  0  0
   11.4143    1.5854    0.3670 H   0  0  0  0  0  0  0  0  0  0  0  0
   12.9428    0.7173   -0.0664 H   0  0  0  0  0  0  0  0  0  0  0  0
   11.8590    1.1653    2.8092 H   0  0  0  0  0  0  0  0  0  0  0  0
   13.3976    0.3207    2.3699 H   0  0  0  0  0  0  0  0  0  0  0  0
    7.2776    0.1983   -0.8976 H   0  0  0  0  0  0  0  0  0  0  0  0
    7.3431    0.7154    0.8100 H   0  0  0  0  0  0  0  0  0  0  0  0
  1  2  1  0  0  0  0
  2  3  1  0  0  0  0
  2  7  2  0  0  0  0
  3  4  2  0  0  0  0
  3 34  1  0  0  0  0
  4  5  1  0  0  0  0
  4 35  1  0  0  0  0
  5  6  2  0  0  0  0
  5 33  1  0  0  0  0
  6  7  1  0  0  0  0
  6  8  1  0  0  0  0
  7 36  1  0  0  0  0
  8  9  1  0  0  0  0
  8 22  1  0  0  0  0
  8 37  1  6  0  0  0
  9 10  2  0  0  0  0
  9 11  1  0  0  0  0
 11 12  1  0  0  0  0
 11 38  1  0  0  0  0
 12 13  1  0  0  0  0
 12 21  2  0  0  0  0
 13 14  2  0  0  0  0
 13 39  1  0  0  0  0
 14 15  1  0  0  0  0
 15 16  2  0  0  0  0
 15 40  1  0  0  0  0
 16 17  1  0  0  0  0
 16 21  1  0  0  0  0
 17 18  2  0  0  0  0
 17 41  1  0  0  0  0
 18 19  1  0  0  0  0
 18 42  1  0  0  0  0
 19 20  2  0  0  0  0
 19 43  1  0  0  0  0
 20 21  1  0  0  0  0
 20 44  1  0  0  0  0
 22 23  1  0  0  0  0
 22 45  1  0  0  0  0
 22 46  1  0  0  0  0
 23 24  1  0  0  0  0
 23 33  1  0  0  0  0
 24 25  2  0  0  0  0
 24 26  2  0  0  0  0
 24 27  1  0  0  0  0
 27 28  1  0  0  0  0
 27 47  1  0  0  0  0
 27 48  1  0  0  0  0
 28 29  1  0  0  0  0
 28 31  1  0  0  0  0
 28 32  1  0  0  0  0
 29 30  3  0  0  0  0
 31 32  1  0  0  0  0
 31 49  1  0  0  0  0
 31 50  1  0  0  0  0
 32 51  1  0  0  0  0
 32 52  1  0  0  0  0
 33 53  1  0  0  0  0
 33 54  1  0  0  0  0
M  END
$$$$
