
 OpenBabel07202414203D

 48 51  0  0  0  0  0  0  0  0999 V2000
    2.2464    1.4545   -0.3715 O   0  5  0  0  0  0  0  0  0  0  0  0
    2.9706    1.4917    0.6396 N   0  3  0  0  0  0  0  0  0  0  0  0
    2.9827    2.3994    1.4783 O   0  0  0  0  0  0  0  0  0  0  0  0
    3.9075    0.4067    0.8073 C   0  0  0  0  0  0  0  0  0  0  0  0
    4.7696    0.0413   -0.2427 C   0  0  0  0  0  0  0  0  0  0  0  0
    4.7735    0.7023   -1.4884 N   0  0  0  0  0  0  0  0  0  0  0  0
    5.8320    0.9995   -2.3658 C   0  0  0  0  0  0  0  0  0  0  0  0
    7.1542    1.1479   -1.9198 C   0  0  0  0  0  0  0  0  0  0  0  0
    8.2042    1.4382   -2.8064 C   0  0  0  0  0  0  0  0  0  0  0  0
    9.6043    1.6655   -2.2879 C   0  0  0  0  0  0  0  0  0  0  0  0
   10.4904    0.4336   -2.3376 C   0  0  0  0  0  0  0  0  0  0  0  0
   10.9443    0.0086   -3.3960 O   0  0  0  0  0  0  0  0  0  0  0  0
   10.7027   -0.1522   -1.0981 N   0  0  0  0  0  0  0  0  0  0  0  0
   11.5547   -1.2698   -0.9100 C   0  0  0  0  0  0  0  0  0  0  0  0
   12.7864   -1.3532   -1.5632 C   0  0  0  0  0  0  0  0  0  0  0  0
   13.6728   -2.3630   -1.4050 N   0  0  0  0  0  0  0  0  0  0  0  0
   13.2934   -3.3666   -0.5836 C   0  0  0  0  0  0  0  0  0  0  0  0
   12.0817   -3.4098    0.1082 C   0  0  0  0  0  0  0  0  0  0  0  0
   11.7389   -4.5145    0.9098 C   0  0  0  0  0  0  0  0  0  0  0  0
   10.5109   -4.5628    1.5654 C   0  0  0  0  0  0  0  0  0  0  0  0
    9.6199   -3.5053    1.4400 C   0  0  0  0  0  0  0  0  0  0  0  0
    9.9529   -2.3990    0.6525 C   0  0  0  0  0  0  0  0  0  0  0  0
   11.1888   -2.3233   -0.0341 C   0  0  0  0  0  0  0  0  0  0  0  0
    7.9182    1.5412   -4.1747 C   0  0  0  0  0  0  0  0  0  0  0  0
    6.6118    1.3739   -4.6292 C   0  0  0  0  0  0  0  0  0  0  0  0
    6.2683    1.5135   -6.3114 Cl  0  0  0  0  0  0  0  0  0  0  0  0
    5.5737    1.1035   -3.7377 C   0  0  0  0  0  0  0  0  0  0  0  0
    5.6941   -0.9840    0.0235 C   0  0  0  0  0  0  0  0  0  0  0  0
    5.7347   -1.6299    1.2643 C   0  0  0  0  0  0  0  0  0  0  0  0
    4.8541   -1.2577    2.2733 C   0  0  0  0  0  0  0  0  0  0  0  0
    3.9391   -0.2365    2.0427 C   0  0  0  0  0  0  0  0  0  0  0  0
    3.0864    0.0899    3.0224 F   0  0  0  0  0  0  0  0  0  0  0  0
    3.8637    1.0555   -1.7919 H   0  0  0  0  0  0  0  0  0  0  0  0
    7.3635    1.0904   -0.8560 H   0  0  0  0  0  0  0  0  0  0  0  0
    9.5610    2.0590   -1.2655 H   0  0  0  0  0  0  0  0  0  0  0  0
   10.0970    2.4470   -2.8787 H   0  0  0  0  0  0  0  0  0  0  0  0
   10.0214    0.0390   -0.3777 H   0  0  0  0  0  0  0  0  0  0  0  0
   13.1308   -0.5646   -2.2268 H   0  0  0  0  0  0  0  0  0  0  0  0
   14.0174   -4.1738   -0.5068 H   0  0  0  0  0  0  0  0  0  0  0  0
   12.4204   -5.3577    1.0088 H   0  0  0  0  0  0  0  0  0  0  0  0
   10.2462   -5.4310    2.1641 H   0  0  0  0  0  0  0  0  0  0  0  0
    8.6575   -3.5476    1.9408 H   0  0  0  0  0  0  0  0  0  0  0  0
    9.2106   -1.6130    0.5595 H   0  0  0  0  0  0  0  0  0  0  0  0
    8.7142    1.7601   -4.8844 H   0  0  0  0  0  0  0  0  0  0  0  0
    4.5642    0.9644   -4.1160 H   0  0  0  0  0  0  0  0  0  0  0  0
    6.3731   -1.3209   -0.7594 H   0  0  0  0  0  0  0  0  0  0  0  0
    6.4459   -2.4358    1.4313 H   0  0  0  0  0  0  0  0  0  0  0  0
    4.8667   -1.7594    3.2370 H   0  0  0  0  0  0  0  0  0  0  0  0
  1  2  1  0  0  0  0
  2  3  2  0  0  0  0
  2  4  1  0  0  0  0
  4  5  2  0  0  0  0
  4 31  1  0  0  0  0
  5  6  1  0  0  0  0
  5 28  1  0  0  0  0
  6  7  1  0  0  0  0
  6 33  1  0  0  0  0
  7  8  2  0  0  0  0
  7 27  1  0  0  0  0
  8  9  1  0  0  0  0
  8 34  1  0  0  0  0
  9 10  1  0  0  0  0
  9 24  2  0  0  0  0
 10 11  1  0  0  0  0
 10 35  1  0  0  0  0
 10 36  1  0  0  0  0
 11 12  2  0  0  0  0
 11 13  1  0  0  0  0
 13 14  1  0  0  0  0
 13 37  1  0  0  0  0
 14 15  2  0  0  0  0
 14 23  1  0  0  0  0
 15 16  1  0  0  0  0
 15 38  1  0  0  0  0
 16 17  2  0  0  0  0
 17 18  1  0  0  0  0
 17 39  1  0  0  0  0
 18 19  2  0  0  0  0
 18 23  1  0  0  0  0
 19 20  1  0  0  0  0
 19 40  1  0  0  0  0
 20 21  2  0  0  0  0
 20 41  1  0  0  0  0
 21 22  1  0  0  0  0
 21 42  1  0  0  0  0
 22 23  2  0  0  0  0
 22 43  1  0  0  0  0
 24 25  1  0  0  0  0
 24 44  1  0  0  0  0
 25 26  1  0  0  0  0
 25 27  2  0  0  0  0
 27 45  1  0  0  0  0
 28 29  2  0  0  0  0
 28 46  1  0  0  0  0
 29 30  1  0  0  0  0
 29 47  1  0  0  0  0
 30 31  2  0  0  0  0
 30 48  1  0  0  0  0
 31 32  1  0  0  0  0
M  CHG  2   1  -1   2   1
M  END
$$$$
