
 OpenBabel07202414113D

 41 43  0  0  0  0  0  0  0  0999 V2000
    1.0978   -0.2907    0.2849 C   0  0  0  0  0  0  0  0  0  0  0  0
    2.5754   -0.2920    0.5798 C   0  0  0  0  0  0  0  0  0  0  0  0
    3.0037    0.1351    1.6459 O   0  0  0  0  0  0  0  0  0  0  0  0
    3.3200   -0.7882   -0.4804 N   0  0  0  0  0  0  0  0  0  0  0  0
    4.7272   -0.8897   -0.5355 C   0  0  0  0  0  0  0  0  0  0  0  0
    5.5331   -0.8097    0.5943 C   0  0  0  0  0  0  0  0  0  0  0  0
    6.9182   -0.8534    0.4695 C   0  0  0  0  0  0  0  0  0  0  0  0
    7.5214   -0.9466   -0.7912 C   0  0  0  0  0  0  0  0  0  0  0  0
    8.9085   -0.9255   -0.8935 C   0  0  0  0  0  0  0  0  0  0  0  0
    9.5842   -0.9651   -2.0547 N   0  0  0  0  0  0  0  0  0  0  0  0
    8.8395   -1.0459   -3.1802 C   0  0  0  0  0  0  0  0  0  0  0  0
    7.4415   -1.1066   -3.2214 C   0  0  0  0  0  0  0  0  0  0  0  0
    6.7313   -1.1788   -4.4568 N   0  0  0  0  0  0  0  0  0  0  0  0
    7.2955   -1.3856   -5.7082 C   0  0  0  0  0  0  0  0  0  0  0  0
    8.4793   -1.6212   -5.9337 O   0  0  0  0  0  0  0  0  0  0  0  0
    6.3013   -1.3274   -6.8584 C   0  0  0  0  0  0  0  0  0  0  0  0
    5.6984   -2.6662   -7.2067 C   0  0  0  0  0  0  0  0  0  0  0  0
    6.5125   -3.7913   -7.4187 C   0  0  0  0  0  0  0  0  0  0  0  0
    5.9565   -5.0177   -7.7921 C   0  0  0  0  0  0  0  0  0  0  0  0
    4.5806   -5.1294   -7.9773 C   0  0  0  0  0  0  0  0  0  0  0  0
    3.7668   -4.0158   -7.7868 C   0  0  0  0  0  0  0  0  0  0  0  0
    2.0688   -4.1459   -8.0322 Cl  0  0  0  0  0  0  0  0  0  0  0  0
    4.3170   -2.7895   -7.4080 C   0  0  0  0  0  0  0  0  0  0  0  0
    6.7452   -1.0456   -1.9729 C   0  0  0  0  0  0  0  0  0  0  0  0
    5.3298   -1.0568   -1.7973 C   0  0  0  0  0  0  0  0  0  0  0  0
    0.5643    0.2185    1.0932 H   0  0  0  0  0  0  0  0  0  0  0  0
    0.7360   -1.3192    0.2129 H   0  0  0  0  0  0  0  0  0  0  0  0
    0.9007    0.2434   -0.6489 H   0  0  0  0  0  0  0  0  0  0  0  0
    2.8168   -0.9679   -1.3391 H   0  0  0  0  0  0  0  0  0  0  0  0
    5.1158   -0.7198    1.5933 H   0  0  0  0  0  0  0  0  0  0  0  0
    7.5232   -0.7870    1.3725 H   0  0  0  0  0  0  0  0  0  0  0  0
    9.5423   -0.8575   -0.0137 H   0  0  0  0  0  0  0  0  0  0  0  0
    9.4514   -1.0278   -4.0747 H   0  0  0  0  0  0  0  0  0  0  0  0
    5.7238   -1.1337   -4.4138 H   0  0  0  0  0  0  0  0  0  0  0  0
    6.8296   -0.9389   -7.7382 H   0  0  0  0  0  0  0  0  0  0  0  0
    5.5223   -0.5927   -6.6221 H   0  0  0  0  0  0  0  0  0  0  0  0
    7.5944   -3.7246   -7.2987 H   0  0  0  0  0  0  0  0  0  0  0  0
    6.5996   -5.8768   -7.9501 H   0  0  0  0  0  0  0  0  0  0  0  0
    4.1538   -6.0819   -8.2798 H   0  0  0  0  0  0  0  0  0  0  0  0
    3.6647   -1.9279   -7.2856 H   0  0  0  0  0  0  0  0  0  0  0  0
    4.6810   -1.1556   -2.6611 H   0  0  0  0  0  0  0  0  0  0  0  0
  1  2  1  0  0  0  0
  1 26  1  0  0  0  0
  1 27  1  0  0  0  0
  1 28  1  0  0  0  0
  2  3  2  0  0  0  0
  2  4  1  0  0  0  0
  4  5  1  0  0  0  0
  4 29  1  0  0  0  0
  5  6  1  0  0  0  0
  5 25  2  0  0  0  0
  6  7  2  0  0  0  0
  6 30  1  0  0  0  0
  7  8  1  0  0  0  0
  7 31  1  0  0  0  0
  8  9  1  0  0  0  0
  8 24  2  0  0  0  0
  9 10  2  0  0  0  0
  9 32  1  0  0  0  0
 10 11  1  0  0  0  0
 11 12  2  0  0  0  0
 11 33  1  0  0  0  0
 12 13  1  0  0  0  0
 12 24  1  0  0  0  0
 13 14  1  0  0  0  0
 13 34  1  0  0  0  0
 14 15  2  0  0  0  0
 14 16  1  0  0  0  0
 16 17  1  0  0  0  0
 16 35  1  0  0  0  0
 16 36  1  0  0  0  0
 17 18  1  0  0  0  0
 17 23  2  0  0  0  0
 18 19  2  0  0  0  0
 18 37  1  0  0  0  0
 19 20  1  0  0  0  0
 19 38  1  0  0  0  0
 20 21  2  0  0  0  0
 20 39  1  0  0  0  0
 21 22  1  0  0  0  0
 21 23  1  0  0  0  0
 23 40  1  0  0  0  0
 24 25  1  0  0  0  0
 25 41  1  0  0  0  0
M  END
$$$$
