
 OpenBabel07202414163D

 25 26  0  0  0  0  0  0  0  0999 V2000
    0.9634   -0.1393    0.0606 C   0  0  0  0  0  0  0  0  0  0  0  0
    2.4598   -0.2133    0.0638 C   0  0  0  0  0  0  0  0  0  0  0  0
    3.1700    1.0136    0.0540 C   0  0  0  0  0  0  0  0  0  0  0  0
    4.5743    1.0639    0.0449 C   0  0  0  0  0  0  0  0  0  0  0  0
    5.3231   -0.1018    0.0434 C   0  0  0  0  0  0  0  0  0  0  0  0
    4.6129   -1.2883    0.0537 C   0  0  0  0  0  0  0  0  0  0  0  0
    3.2109   -1.3892    0.0692 C   0  0  0  0  0  0  0  0  0  0  0  0
    2.8363   -2.7583    0.0786 N   0  0  0  0  0  0  0  0  0  0  0  0
    3.9595   -3.5823    0.0408 C   0  0  0  0  0  0  0  0  0  0  0  0
    4.0184   -4.7932    0.0072 O   0  0  0  0  0  0  0  0  0  0  0  0
    5.1703   -2.6393    0.0411 C   0  0  0  0  0  0  0  0  0  0  0  0
    6.3403   -2.9452    0.0222 O   0  0  0  0  0  0  0  0  0  0  0  0
    1.5041   -3.3260    0.0732 C   0  0  0  0  0  0  0  0  0  0  0  0
    1.1841   -4.2164    1.2720 C   0  0  0  0  0  0  0  0  0  0  0  0
    1.2710   -3.2108    2.9390 Br  0  0  0  0  0  0  0  0  0  0  0  0
    5.4481    2.7399    0.0295 Br  0  0  0  0  0  0  0  0  0  0  0  0
    0.6091    0.8975    0.0648 H   0  0  0  0  0  0  0  0  0  0  0  0
    0.5518   -0.6136    0.9556 H   0  0  0  0  0  0  0  0  0  0  0  0
    0.5604   -0.6012   -0.8460 H   0  0  0  0  0  0  0  0  0  0  0  0
    2.6148    1.9524    0.0501 H   0  0  0  0  0  0  0  0  0  0  0  0
    6.4077   -0.0977    0.0303 H   0  0  0  0  0  0  0  0  0  0  0  0
    1.4289   -3.9397   -0.8331 H   0  0  0  0  0  0  0  0  0  0  0  0
    0.7404   -2.5598   -0.0168 H   0  0  0  0  0  0  0  0  0  0  0  0
    1.8674   -5.0622    1.3759 H   0  0  0  0  0  0  0  0  0  0  0  0
    0.1608   -4.5975    1.2037 H   0  0  0  0  0  0  0  0  0  0  0  0
  1  2  1  0  0  0  0
  1 17  1  0  0  0  0
  1 18  1  0  0  0  0
  1 19  1  0  0  0  0
  2  3  1  0  0  0  0
  2  7  2  0  0  0  0
  3  4  2  0  0  0  0
  3 20  1  0  0  0  0
  4  5  1  0  0  0  0
  4 16  1  0  0  0  0
  5  6  2  0  0  0  0
  5 21  1  0  0  0  0
  6  7  1  0  0  0  0
  6 11  1  0  0  0  0
  7  8  1  0  0  0  0
  8  9  1  0  0  0  0
  8 13  1  0  0  0  0
  9 10  2  0  0  0  0
  9 11  1  0  0  0  0
 11 12  2  0  0  0  0
 13 14  1  0  0  0  0
 13 22  1  0  0  0  0
 13 23  1  0  0  0  0
 14 15  1  0  0  0  0
 14 24  1  0  0  0  0
 14 25  1  0  0  0  0
M  END
$$$$
