
 OpenBabel07202414113D

 43 45  0  0  0  0  0  0  0  0999 V2000
    4.4195    4.9430    3.4637 C   0  0  0  0  0  0  0  0  0  0  0  0
    4.2865    4.0836    4.6930 C   0  0  0  0  0  0  0  0  0  0  0  0
    3.9371    4.5897    5.7597 O   0  0  0  0  0  0  0  0  0  0  0  0
    4.5285    2.7303    4.5492 N   0  0  0  0  0  0  0  0  0  0  0  0
    4.9938    2.0613    3.3306 C   0  0  0  0  0  0  0  0  0  0  0  0
    4.0442    0.9102    2.9317 C   0  0  0  0  0  0  0  0  0  0  0  0
    3.7402   -0.0549    4.0151 N   0  0  0  0  0  0  0  0  0  0  0  0
    3.2765    0.7110    5.2062 C   0  0  0  0  0  0  0  0  0  0  0  0
    4.2362    1.8271    5.6653 C   0  0  0  0  0  0  0  0  0  0  0  0
    4.9131   -0.9038    4.3192 C   0  0  0  0  0  0  0  0  0  0  0  0
    4.5854   -1.9054    5.4313 C   0  0  0  0  0  0  0  0  0  0  0  0
    4.7019   -1.5984    6.6197 O   0  0  0  0  0  0  0  0  0  0  0  0
    4.1679   -3.1437    4.9900 N   0  0  0  0  0  0  0  0  0  0  0  0
    3.7524   -4.1513    5.8916 C   0  0  0  0  0  0  0  0  0  0  0  0
    2.7880   -3.8823    6.8647 C   0  0  0  0  0  0  0  0  0  0  0  0
    2.2657   -4.8120    7.6961 N   0  0  0  0  0  0  0  0  0  0  0  0
    2.7527   -6.0643    7.5694 C   0  0  0  0  0  0  0  0  0  0  0  0
    3.7475   -6.4484    6.6615 C   0  0  0  0  0  0  0  0  0  0  0  0
    4.2678   -5.4612    5.7956 C   0  0  0  0  0  0  0  0  0  0  0  0
    5.3300   -5.8296    4.9361 C   0  0  0  0  0  0  0  0  0  0  0  0
    5.8330   -7.1305    4.9170 C   0  0  0  0  0  0  0  0  0  0  0  0
    5.2798   -8.0992    5.7455 C   0  0  0  0  0  0  0  0  0  0  0  0
    4.2439   -7.7605    6.6152 C   0  0  0  0  0  0  0  0  0  0  0  0
    4.2865    5.9934    3.7402 H   0  0  0  0  0  0  0  0  0  0  0  0
    3.6385    4.6734    2.7469 H   0  0  0  0  0  0  0  0  0  0  0  0
    5.4103    4.8382    3.0158 H   0  0  0  0  0  0  0  0  0  0  0  0
    5.9987    1.6760    3.5390 H   0  0  0  0  0  0  0  0  0  0  0  0
    5.0870    2.7572    2.4952 H   0  0  0  0  0  0  0  0  0  0  0  0
    4.4405    0.3871    2.0536 H   0  0  0  0  0  0  0  0  0  0  0  0
    3.0921    1.3536    2.6090 H   0  0  0  0  0  0  0  0  0  0  0  0
    3.0418    0.0474    6.0435 H   0  0  0  0  0  0  0  0  0  0  0  0
    2.3125    1.1682    4.9422 H   0  0  0  0  0  0  0  0  0  0  0  0
    5.1875    1.4147    6.0180 H   0  0  0  0  0  0  0  0  0  0  0  0
    3.7853    2.3683    6.5029 H   0  0  0  0  0  0  0  0  0  0  0  0
    5.7917   -0.3322    4.6366 H   0  0  0  0  0  0  0  0  0  0  0  0
    5.2091   -1.4607    3.4203 H   0  0  0  0  0  0  0  0  0  0  0  0
    4.4733   -3.4336    4.0717 H   0  0  0  0  0  0  0  0  0  0  0  0
    2.3589   -2.8891    6.9734 H   0  0  0  0  0  0  0  0  0  0  0  0
    2.3172   -6.7836    8.2605 H   0  0  0  0  0  0  0  0  0  0  0  0
    5.8171   -5.0920    4.3038 H   0  0  0  0  0  0  0  0  0  0  0  0
    6.6652   -7.3805    4.2649 H   0  0  0  0  0  0  0  0  0  0  0  0
    5.6688   -9.1143    5.7298 H   0  0  0  0  0  0  0  0  0  0  0  0
    3.8393   -8.5262    7.2746 H   0  0  0  0  0  0  0  0  0  0  0  0
  1  2  1  0  0  0  0
  1 24  1  0  0  0  0
  1 25  1  0  0  0  0
  1 26  1  0  0  0  0
  2  3  2  0  0  0  0
  2  4  1  0  0  0  0
  4  5  1  0  0  0  0
  4  9  1  0  0  0  0
  5  6  1  0  0  0  0
  5 27  1  0  0  0  0
  5 28  1  0  0  0  0
  6  7  1  0  0  0  0
  6 29  1  0  0  0  0
  6 30  1  0  0  0  0
  7  8  1  0  0  0  0
  7 10  1  0  0  0  0
  8  9  1  0  0  0  0
  8 31  1  0  0  0  0
  8 32  1  0  0  0  0
  9 33  1  0  0  0  0
  9 34  1  0  0  0  0
 10 11  1  0  0  0  0
 10 35  1  0  0  0  0
 10 36  1  0  0  0  0
 11 12  2  0  0  0  0
 11 13  1  0  0  0  0
 13 14  1  0  0  0  0
 13 37  1  0  0  0  0
 14 15  1  0  0  0  0
 14 19  2  0  0  0  0
 15 16  2  0  0  0  0
 15 38  1  0  0  0  0
 16 17  1  0  0  0  0
 17 18  2  0  0  0  0
 17 39  1  0  0  0  0
 18 19  1  0  0  0  0
 18 23  1  0  0  0  0
 19 20  1  0  0  0  0
 20 21  2  0  0  0  0
 20 40  1  0  0  0  0
 21 22  1  0  0  0  0
 21 41  1  0  0  0  0
 22 23  2  0  0  0  0
 22 42  1  0  0  0  0
 23 43  1  0  0  0  0
M  END
$$$$
