
 OpenBabel07202414173D

 44 46  0  0  0  0  0  0  0  0999 V2000
    1.1125   -0.0345    0.5584 Cl  0  0  0  0  0  0  0  0  0  0  0  0
    2.8602   -0.3381    0.6208 C   0  0  0  0  0  0  0  0  0  0  0  0
    3.3312   -1.2151   -0.5326 C   0  0  0  0  0  0  0  0  0  0  0  0
    2.5575   -1.7017   -1.3545 O   0  0  0  0  0  0  0  0  0  0  0  0
    4.7059   -1.4242   -0.6245 N   0  0  0  0  0  0  0  0  0  0  0  0
    5.7137   -0.9833    0.3468 C   0  0  0  0  0  0  0  0  0  0  0  0
    6.8550   -0.2263   -0.3559 C   0  0  0  0  0  0  0  0  0  0  0  0
    7.4997   -0.9642   -1.4662 N   0  0  0  0  0  0  0  0  0  0  0  0
    8.2924   -2.1613   -1.0385 C   0  0  0  0  0  0  0  0  0  0  0  0
    8.9411   -2.8435   -2.2503 C   0  0  0  0  0  0  0  0  0  0  0  0
    9.8356   -2.1444   -3.0787 C   0  0  0  0  0  0  0  0  0  0  0  0
   10.3961   -2.7560   -4.1999 C   0  0  0  0  0  0  0  0  0  0  0  0
   10.0624   -4.0708   -4.5157 C   0  0  0  0  0  0  0  0  0  0  0  0
    9.1617   -4.7726   -3.7166 C   0  0  0  0  0  0  0  0  0  0  0  0
    8.6054   -4.1659   -2.5885 C   0  0  0  0  0  0  0  0  0  0  0  0
    9.3458   -1.9236    0.0600 C   0  0  0  0  0  0  0  0  0  0  0  0
    9.6266   -2.9545    0.9793 C   0  0  0  0  0  0  0  0  0  0  0  0
   10.5756   -2.7840    1.9922 C   0  0  0  0  0  0  0  0  0  0  0  0
   11.2707   -1.5837    2.0980 C   0  0  0  0  0  0  0  0  0  0  0  0
   11.0343   -0.5648    1.1790 C   0  0  0  0  0  0  0  0  0  0  0  0
   10.0898   -0.7354    0.1603 C   0  0  0  0  0  0  0  0  0  0  0  0
    6.4110   -1.3441   -2.4201 C   0  0  0  0  0  0  0  0  0  0  0  0
    5.2457   -2.1379   -1.7864 C   0  0  0  0  0  0  0  0  0  0  0  0
    3.0792   -0.8276    1.5730 H   0  0  0  0  0  0  0  0  0  0  0  0
    3.3548    0.6342    0.5639 H   0  0  0  0  0  0  0  0  0  0  0  0
    6.0948   -1.8771    0.8533 H   0  0  0  0  0  0  0  0  0  0  0  0
    5.2785   -0.3429    1.1161 H   0  0  0  0  0  0  0  0  0  0  0  0
    7.5820    0.1194    0.3853 H   0  0  0  0  0  0  0  0  0  0  0  0
    6.4364    0.6960   -0.7801 H   0  0  0  0  0  0  0  0  0  0  0  0
    7.5881   -2.8785   -0.5970 H   0  0  0  0  0  0  0  0  0  0  0  0
   10.0815   -1.1078   -2.8602 H   0  0  0  0  0  0  0  0  0  0  0  0
   11.0865   -2.2014   -4.8295 H   0  0  0  0  0  0  0  0  0  0  0  0
   10.5002   -4.5460   -5.3894 H   0  0  0  0  0  0  0  0  0  0  0  0
    8.8889   -5.7921   -3.9762 H   0  0  0  0  0  0  0  0  0  0  0  0
    7.8942   -4.7272   -1.9874 H   0  0  0  0  0  0  0  0  0  0  0  0
    9.1155   -3.9121    0.9043 H   0  0  0  0  0  0  0  0  0  0  0  0
   10.7762   -3.5912    2.6916 H   0  0  0  0  0  0  0  0  0  0  0  0
   12.0071   -1.4470    2.8877 H   0  0  0  0  0  0  0  0  0  0  0  0
   11.5909    0.3685    1.2499 H   0  0  0  0  0  0  0  0  0  0  0  0
    9.9286    0.0696   -0.5510 H   0  0  0  0  0  0  0  0  0  0  0  0
    6.7994   -1.8842   -3.2895 H   0  0  0  0  0  0  0  0  0  0  0  0
    6.0009   -0.4126   -2.8348 H   0  0  0  0  0  0  0  0  0  0  0  0
    5.5756   -3.1250   -1.4418 H   0  0  0  0  0  0  0  0  0  0  0  0
    4.4732   -2.3067   -2.5424 H   0  0  0  0  0  0  0  0  0  0  0  0
  1  2  1  0  0  0  0
  2  3  1  0  0  0  0
  2 24  1  0  0  0  0
  2 25  1  0  0  0  0
  3  4  2  0  0  0  0
  3  5  1  0  0  0  0
  5  6  1  0  0  0  0
  5 23  1  0  0  0  0
  6  7  1  0  0  0  0
  6 26  1  0  0  0  0
  6 27  1  0  0  0  0
  7  8  1  0  0  0  0
  7 28  1  0  0  0  0
  7 29  1  0  0  0  0
  8  9  1  0  0  0  0
  8 22  1  0  0  0  0
  9 10  1  0  0  0  0
  9 16  1  0  0  0  0
  9 30  1  0  0  0  0
 10 11  1  0  0  0  0
 10 15  2  0  0  0  0
 11 12  2  0  0  0  0
 11 31  1  0  0  0  0
 12 13  1  0  0  0  0
 12 32  1  0  0  0  0
 13 14  2  0  0  0  0
 13 33  1  0  0  0  0
 14 15  1  0  0  0  0
 14 34  1  0  0  0  0
 15 35  1  0  0  0  0
 16 17  1  0  0  0  0
 16 21  2  0  0  0  0
 17 18  2  0  0  0  0
 17 36  1  0  0  0  0
 18 19  1  0  0  0  0
 18 37  1  0  0  0  0
 19 20  2  0  0  0  0
 19 38  1  0  0  0  0
 20 21  1  0  0  0  0
 20 39  1  0  0  0  0
 21 40  1  0  0  0  0
 22 23  1  0  0  0  0
 22 41  1  0  0  0  0
 22 42  1  0  0  0  0
 23 43  1  0  0  0  0
 23 44  1  0  0  0  0
M  END
$$$$
