
 OpenBabel07202414143D

 49 53  0  0  1  0  0  0  0  0999 V2000
    3.4314   -0.0445   -0.0868 C   0  0  0  0  0  0  0  0  0  0  0  0
    2.0231    0.2830    0.0170 N   0  0  0  0  0  0  0  0  0  0  0  0
    1.5838    1.5794   -0.4672 C   0  0  0  0  0  0  0  0  0  0  0  0
    0.2782    2.0193    0.1990 C   0  0  1  0  0  0  0  0  0  0  0  0
   -0.0996    3.3535   -0.4308 C   0  0  0  0  0  0  0  0  0  0  0  0
    0.0568    4.4048    0.1859 O   0  0  0  0  0  0  0  0  0  0  0  0
   -0.5824    3.2728   -1.7267 N   0  0  0  0  0  0  0  0  0  0  0  0
   -0.9679    4.4176   -2.4625 C   0  0  0  0  0  0  0  0  0  0  0  0
   -0.1477    5.5460   -2.5144 C   0  0  0  0  0  0  0  0  0  0  0  0
   -0.4177    6.6502   -3.2447 N   0  0  0  0  0  0  0  0  0  0  0  0
   -1.5827    6.6440   -3.9271 C   0  0  0  0  0  0  0  0  0  0  0  0
   -2.4996    5.5889   -3.9292 C   0  0  0  0  0  0  0  0  0  0  0  0
   -3.7189    5.6747   -4.6237 C   0  0  0  0  0  0  0  0  0  0  0  0
   -4.6427    4.6326   -4.5721 C   0  0  0  0  0  0  0  0  0  0  0  0
   -4.3568    3.4908   -3.8345 C   0  0  0  0  0  0  0  0  0  0  0  0
   -3.1422    3.3872   -3.1544 C   0  0  0  0  0  0  0  0  0  0  0  0
   -2.1838    4.4304   -3.1854 C   0  0  0  0  0  0  0  0  0  0  0  0
   -0.7612    0.9192    0.0967 C   0  0  0  0  0  0  0  0  0  0  0  0
   -2.1405    1.1903    0.1573 C   0  0  0  0  0  0  0  0  0  0  0  0
   -3.1109    0.1782    0.0204 C   0  0  0  0  0  0  0  0  0  0  0  0
   -4.5795    0.5307    0.0027 C   0  0  0  0  0  0  0  0  0  0  0  0
   -5.1944    1.1548    1.2351 C   0  0  0  0  0  0  0  0  0  0  0  0
   -5.5933   -0.2294    0.8230 C   0  0  0  0  0  0  0  0  0  0  0  0
   -2.6533   -1.1357   -0.1412 C   0  0  0  0  0  0  0  0  0  0  0  0
   -1.2882   -1.4375   -0.1281 C   0  0  0  0  0  0  0  0  0  0  0  0
   -0.3396   -0.4158   -0.0017 C   0  0  0  0  0  0  0  0  0  0  0  0
    1.1107   -0.7759    0.0554 C   0  0  0  0  0  0  0  0  0  0  0  0
    1.4487   -1.9498    0.1331 O   0  0  0  0  0  0  0  0  0  0  0  0
    4.0393    0.8637   -0.0391 H   0  0  0  0  0  0  0  0  0  0  0  0
    3.6110   -0.5642   -1.0319 H   0  0  0  0  0  0  0  0  0  0  0  0
    3.7086   -0.7018    0.7423 H   0  0  0  0  0  0  0  0  0  0  0  0
    1.4757    1.4948   -1.5572 H   0  0  0  0  0  0  0  0  0  0  0  0
    2.3628    2.3242   -0.2676 H   0  0  0  0  0  0  0  0  0  0  0  0
    0.4509    2.1904    1.2704 H   0  0  0  0  0  0  0  0  0  0  0  0
   -0.9955    2.3917   -2.0066 H   0  0  0  0  0  0  0  0  0  0  0  0
    0.8008    5.5825   -1.9851 H   0  0  0  0  0  0  0  0  0  0  0  0
   -1.7757    7.5573   -4.4846 H   0  0  0  0  0  0  0  0  0  0  0  0
   -3.9667    6.5688   -5.1927 H   0  0  0  0  0  0  0  0  0  0  0  0
   -5.5912    4.7185   -5.0959 H   0  0  0  0  0  0  0  0  0  0  0  0
   -5.0831    2.6846   -3.7726 H   0  0  0  0  0  0  0  0  0  0  0  0
   -2.9790    2.4878   -2.5677 H   0  0  0  0  0  0  0  0  0  0  0  0
   -2.4905    2.2135    0.3053 H   0  0  0  0  0  0  0  0  0  0  0  0
   -4.9445    0.9050   -0.9526 H   0  0  0  0  0  0  0  0  0  0  0  0
   -5.9036    1.9613    1.0901 H   0  0  0  0  0  0  0  0  0  0  0  0
   -4.5944    1.2519    2.1336 H   0  0  0  0  0  0  0  0  0  0  0  0
   -6.5862   -0.3618    0.4061 H   0  0  0  0  0  0  0  0  0  0  0  0
   -5.2662   -1.0536    1.4459 H   0  0  0  0  0  0  0  0  0  0  0  0
   -3.3725   -1.9492   -0.2559 H   0  0  0  0  0  0  0  0  0  0  0  0
   -0.9662   -2.4726   -0.2167 H   0  0  0  0  0  0  0  0  0  0  0  0
  1  2  1  0  0  0  0
  1 29  1  0  0  0  0
  1 30  1  0  0  0  0
  1 31  1  0  0  0  0
  2  3  1  0  0  0  0
  2 27  1  0  0  0  0
  3  4  1  0  0  0  0
  3 32  1  0  0  0  0
  3 33  1  0  0  0  0
  4  5  1  0  0  0  0
  4 18  1  0  0  0  0
  4 34  1  1  0  0  0
  5  6  2  0  0  0  0
  5  7  1  0  0  0  0
  7  8  1  0  0  0  0
  7 35  1  0  0  0  0
  8  9  1  0  0  0  0
  8 17  2  0  0  0  0
  9 10  2  0  0  0  0
  9 36  1  0  0  0  0
 10 11  1  0  0  0  0
 11 12  2  0  0  0  0
 11 37  1  0  0  0  0
 12 13  1  0  0  0  0
 12 17  1  0  0  0  0
 13 14  2  0  0  0  0
 13 38  1  0  0  0  0
 14 15  1  0  0  0  0
 14 39  1  0  0  0  0
 15 16  2  0  0  0  0
 15 40  1  0  0  0  0
 16 17  1  0  0  0  0
 16 41  1  0  0  0  0
 18 19  1  0  0  0  0
 18 26  2  0  0  0  0
 19 20  2  0  0  0  0
 19 42  1  0  0  0  0
 20 21  1  0  0  0  0
 20 24  1  0  0  0  0
 21 22  1  0  0  0  0
 21 23  1  0  0  0  0
 21 43  1  0  0  0  0
 22 23  1  0  0  0  0
 22 44  1  0  0  0  0
 22 45  1  0  0  0  0
 23 46  1  0  0  0  0
 23 47  1  0  0  0  0
 24 25  2  0  0  0  0
 24 48  1  0  0  0  0
 25 26  1  0  0  0  0
 25 49  1  0  0  0  0
 26 27  1  0  0  0  0
 27 28  2  0  0  0  0
M  END
$$$$
