
 OpenBabel07202414153D

 51 53  0  0  1  0  0  0  0  0999 V2000
   -1.1411   -1.8282    1.0868 C   0  0  0  0  0  0  0  0  0  0  0  0
   -0.3763   -1.3538    2.1890 O   0  0  0  0  0  0  0  0  0  0  0  0
    0.7907   -2.0131    2.4597 C   0  0  0  0  0  0  0  0  0  0  0  0
    1.2968   -3.0976    1.7588 C   0  0  0  0  0  0  0  0  0  0  0  0
    2.5031   -3.6864    2.1569 C   0  0  0  0  0  0  0  0  0  0  0  0
    3.2446   -3.2108    3.2610 C   0  0  0  0  0  0  0  0  0  0  0  0
    4.4932   -3.9386    3.7143 C   0  0  0  0  0  0  0  0  0  0  0  0
    4.8035   -5.1267    2.9317 N   0  0  0  0  0  0  0  0  0  0  0  0
    5.5311   -6.1289    3.4928 C   0  0  0  0  0  0  0  0  0  0  0  0
    6.4067   -6.1159    4.5621 C   0  0  0  0  0  0  0  0  0  0  0  0
    7.0117   -7.3150    4.8698 N   0  0  0  0  0  0  0  0  0  0  0  0
    6.5304   -8.2685    4.0927 C   0  0  0  0  0  0  0  0  0  0  0  0
    6.8760   -9.7476    4.1836 C   0  0  1  0  0  0  0  0  0  0  0  0
    8.0334  -10.0352    3.3493 N   0  0  0  0  0  0  0  0  0  0  0  0
    7.9054  -10.3848    2.0233 C   0  0  0  0  0  0  0  0  0  0  0  0
    6.8138  -10.5747    1.4901 O   0  0  0  0  0  0  0  0  0  0  0  0
    9.1966  -10.6440    1.2702 C   0  0  0  0  0  0  0  0  0  0  0  0
   10.5444   -9.6769    1.9071 Cl  0  0  0  0  0  0  0  0  0  0  0  0
    7.1191  -10.2280    5.6118 C   0  0  0  0  0  0  0  0  0  0  0  0
    6.3036  -11.2444    6.1477 C   0  0  0  0  0  0  0  0  0  0  0  0
    6.4686  -11.6696    7.4625 C   0  0  0  0  0  0  0  0  0  0  0  0
    7.4531  -11.1057    8.2670 C   0  0  0  0  0  0  0  0  0  0  0  0
    8.2867  -10.1133    7.7530 C   0  0  0  0  0  0  0  0  0  0  0  0
    8.1240   -9.6836    6.4333 C   0  0  0  0  0  0  0  0  0  0  0  0
    5.4322   -7.7238    2.8790 S   0  0  0  0  0  0  0  0  0  0  0  0
    2.7311   -2.0995    3.9569 C   0  0  0  0  0  0  0  0  0  0  0  0
    3.2224   -1.5061    5.0900 O   0  0  0  0  0  0  0  0  0  0  0  0
    4.6218   -1.4631    5.3119 C   0  0  0  0  0  0  0  0  0  0  0  0
    1.5090   -1.5289    3.5536 C   0  0  0  0  0  0  0  0  0  0  0  0
   -2.0020   -1.1640    0.9636 H   0  0  0  0  0  0  0  0  0  0  0  0
   -1.5213   -2.8371    1.2791 H   0  0  0  0  0  0  0  0  0  0  0  0
   -0.5638   -1.7944    0.1567 H   0  0  0  0  0  0  0  0  0  0  0  0
    0.7752   -3.5288    0.9109 H   0  0  0  0  0  0  0  0  0  0  0  0
    2.8347   -4.5613    1.6004 H   0  0  0  0  0  0  0  0  0  0  0  0
    4.3304   -4.2296    4.7588 H   0  0  0  0  0  0  0  0  0  0  0  0
    5.3571   -3.2751    3.6368 H   0  0  0  0  0  0  0  0  0  0  0  0
    5.0649   -4.9040    1.9723 H   0  0  0  0  0  0  0  0  0  0  0  0
    6.6669   -5.2407    5.1444 H   0  0  0  0  0  0  0  0  0  0  0  0
    6.0261  -10.3172    3.7825 H   0  0  0  0  0  0  0  0  0  0  0  0
    8.9351   -9.7091    3.6705 H   0  0  0  0  0  0  0  0  0  0  0  0
    9.0632  -10.3797    0.2175 H   0  0  0  0  0  0  0  0  0  0  0  0
    9.4491  -11.7033    1.3588 H   0  0  0  0  0  0  0  0  0  0  0  0
    5.5212  -11.6942    5.5404 H   0  0  0  0  0  0  0  0  0  0  0  0
    5.8183  -12.4454    7.8666 H   0  0  0  0  0  0  0  0  0  0  0  0
    7.5647  -11.4285    9.2992 H   0  0  0  0  0  0  0  0  0  0  0  0
    9.0426   -9.6540    8.3844 H   0  0  0  0  0  0  0  0  0  0  0  0
    8.7635   -8.8834    6.0624 H   0  0  0  0  0  0  0  0  0  0  0  0
    4.8351   -0.6250    5.9804 H   0  0  0  0  0  0  0  0  0  0  0  0
    5.1875   -1.2940    4.3909 H   0  0  0  0  0  0  0  0  0  0  0  0
    4.9493   -2.3711    5.8292 H   0  0  0  0  0  0  0  0  0  0  0  0
    1.1051   -0.6893    4.1168 H   0  0  0  0  0  0  0  0  0  0  0  0
  1  2  1  0  0  0  0
  1 30  1  0  0  0  0
  1 31  1  0  0  0  0
  1 32  1  0  0  0  0
  2  3  1  0  0  0  0
  3  4  1  0  0  0  0
  3 29  2  0  0  0  0
  4  5  2  0  0  0  0
  4 33  1  0  0  0  0
  5  6  1  0  0  0  0
  5 34  1  0  0  0  0
  6  7  1  0  0  0  0
  6 26  2  0  0  0  0
  7  8  1  0  0  0  0
  7 35  1  0  0  0  0
  7 36  1  0  0  0  0
  8  9  1  0  0  0  0
  8 37  1  0  0  0  0
  9 10  2  0  0  0  0
  9 25  1  0  0  0  0
 10 11  1  0  0  0  0
 10 38  1  0  0  0  0
 11 12  2  0  0  0  0
 12 13  1  0  0  0  0
 12 25  1  0  0  0  0
 13 14  1  0  0  0  0
 13 19  1  0  0  0  0
 13 39  1  6  0  0  0
 14 15  1  0  0  0  0
 14 40  1  0  0  0  0
 15 16  2  0  0  0  0
 15 17  1  0  0  0  0
 17 18  1  0  0  0  0
 17 41  1  0  0  0  0
 17 42  1  0  0  0  0
 19 20  1  0  0  0  0
 19 24  2  0  0  0  0
 20 21  2  0  0  0  0
 20 43  1  0  0  0  0
 21 22  1  0  0  0  0
 21 44  1  0  0  0  0
 22 23  2  0  0  0  0
 22 45  1  0  0  0  0
 23 24  1  0  0  0  0
 23 46  1  0  0  0  0
 24 47  1  0  0  0  0
 26 27  1  0  0  0  0
 26 29  1  0  0  0  0
 27 28  1  0  0  0  0
 28 48  1  0  0  0  0
 28 49  1  0  0  0  0
 28 50  1  0  0  0  0
 29 51  1  0  0  0  0
M  END
$$$$
