
 OpenBabel07202414193D

 50 53  0  0  1  0  0  0  0  0999 V2000
    6.9246   -0.6287   -1.3840 O   0  0  0  0  0  0  0  0  0  0  0  0
    5.7720   -0.4266   -0.7199 C   0  0  0  0  0  0  0  0  0  0  0  0
    4.9862   -1.3338   -0.5106 O   0  0  0  0  0  0  0  0  0  0  0  0
    5.5264    1.0039   -0.4180 C   0  0  0  0  0  0  0  0  0  0  0  0
    6.4338    1.9208   -0.8124 C   0  0  0  0  0  0  0  0  0  0  0  0
    4.1965    1.3001    0.2659 C   0  0  0  0  0  0  0  0  0  0  0  0
    4.1686    2.5519    0.9899 N   0  0  0  0  0  0  0  0  0  0  0  0
    4.9951    2.6563    2.1816 C   0  0  0  0  0  0  0  0  0  0  0  0
    5.6791    4.0239    2.2319 C   0  0  0  0  0  0  0  0  0  0  0  0
    4.8161    5.1555    1.7195 C   0  0  0  0  0  0  0  0  0  0  0  0
    3.5729    4.9056    1.0752 C   0  0  0  0  0  0  0  0  0  0  0  0
    3.0047    5.9738    0.3524 C   0  0  0  0  0  0  0  0  0  0  0  0
    3.6431    7.2258    0.2963 C   0  0  0  0  0  0  0  0  0  0  0  0
    3.0273    8.4557   -0.7438 Cl  0  0  0  0  0  0  0  0  0  0  0  0
    4.8162    7.4769    1.0002 C   0  0  0  0  0  0  0  0  0  0  0  0
    5.4017    6.4388    1.7163 C   0  0  0  0  0  0  0  0  0  0  0  0
    3.0060    3.4610    0.9502 C   0  0  3  0  0  0  0  0  0  0  0  0
    1.7777    3.0415    1.9512 C   0  0  0  0  0  0  0  0  0  0  0  0
    1.5856    3.5814    3.0376 O   0  0  0  0  0  0  0  0  0  0  0  0
    0.9577    2.0152    1.4393 N   0  0  0  0  0  0  0  0  0  0  0  0
   -0.3740    1.5060    1.8136 C   0  0  0  0  0  0  0  0  0  0  0  0
   -1.4089    2.1875    2.4776 C   0  0  0  0  0  0  0  0  0  0  0  0
   -2.4141    1.5564    3.2996 C   0  0  0  0  0  0  0  0  0  0  0  0
   -3.6643    2.1572    3.5871 C   0  0  0  0  0  0  0  0  0  0  0  0
   -3.8558    3.4850    3.2285 C   0  0  0  0  0  0  0  0  0  0  0  0
   -2.9172    4.0502    2.3773 C   0  0  0  0  0  0  0  0  0  0  0  0
   -2.0055    3.1919    1.7453 C   0  0  0  0  0  0  0  0  0  0  0  0
   -2.2684    2.7012    0.4551 C   0  0  0  0  0  0  0  0  0  0  0  0
   -1.8319    1.4835   -0.0183 N   0  0  0  0  0  0  0  0  0  0  0  0
   -0.9253    0.8343    0.7479 C   0  0  0  0  0  0  0  0  0  0  0  0
    6.8439   -1.5122   -1.7926 H   0  0  0  0  0  0  0  0  0  0  0  0
    7.3655    1.6466   -1.3031 H   0  0  0  0  0  0  0  0  0  0  0  0
    6.2648    2.9850   -0.6894 H   0  0  0  0  0  0  0  0  0  0  0  0
    3.9163    0.4913    0.9494 H   0  0  0  0  0  0  0  0  0  0  0  0
    3.4461    1.3122   -0.5339 H   0  0  0  0  0  0  0  0  0  0  0  0
    5.7914    1.9001    2.1993 H   0  0  0  0  0  0  0  0  0  0  0  0
    4.3958    2.4948    3.0819 H   0  0  0  0  0  0  0  0  0  0  0  0
    6.5693    3.9941    1.5837 H   0  0  0  0  0  0  0  0  0  0  0  0
    6.0327    4.2375    3.2472 H   0  0  0  0  0  0  0  0  0  0  0  0
    2.1169    5.8122   -0.2519 H   0  0  0  0  0  0  0  0  0  0  0  0
    5.3121    8.4419    0.9450 H   0  0  0  0  0  0  0  0  0  0  0  0
    6.3597    6.6082    2.2077 H   0  0  0  0  0  0  0  0  0  0  0  0
    2.5849    3.4114   -0.0631 H   0  0  0  0  0  0  0  0  0  0  0  0
    1.3189    1.5865    0.5977 H   0  0  0  0  0  0  0  0  0  0  0  0
   -2.2964    0.5036    3.5684 H   0  0  0  0  0  0  0  0  0  0  0  0
   -4.4598    1.6037    4.0779 H   0  0  0  0  0  0  0  0  0  0  0  0
   -4.7194    4.0457    3.5764 H   0  0  0  0  0  0  0  0  0  0  0  0
   -2.9142    5.1212    2.1733 H   0  0  0  0  0  0  0  0  0  0  0  0
   -3.0219    3.1646   -0.1794 H   0  0  0  0  0  0  0  0  0  0  0  0
   -0.5138   -0.0836    0.3507 H   0  0  0  0  0  0  0  0  0  0  0  0
  1  2  1  0  0  0  0
  1 31  1  0  0  0  0
  2  3  2  0  0  0  0
  2  4  1  0  0  0  0
  4  5  2  0  0  0  0
  4  6  1  0  0  0  0
  5 32  1  0  0  0  0
  5 33  1  0  0  0  0
  6  7  1  0  0  0  0
  6 34  1  0  0  0  0
  6 35  1  0  0  0  0
  7  8  1  0  0  0  0
  7 17  1  0  0  0  0
  8  9  1  0  0  0  0
  8 36  1  0  0  0  0
  8 37  1  0  0  0  0
  9 10  1  0  0  0  0
  9 38  1  0  0  0  0
  9 39  1  0  0  0  0
 10 11  2  0  0  0  0
 10 16  1  0  0  0  0
 11 12  1  0  0  0  0
 11 17  1  0  0  0  0
 12 13  2  0  0  0  0
 12 40  1  0  0  0  0
 13 14  1  0  0  0  0
 13 15  1  0  0  0  0
 15 16  2  0  0  0  0
 15 41  1  0  0  0  0
 16 42  1  0  0  0  0
 17 18  1  0  0  0  0
 17 43  1  0  0  0  0
 18 19  2  0  0  0  0
 18 20  1  0  0  0  0
 20 21  1  0  0  0  0
 20 44  1  0  0  0  0
 21 22  2  0  0  0  0
 21 30  1  0  0  0  0
 22 23  1  0  0  0  0
 22 27  1  0  0  0  0
 23 24  2  0  0  0  0
 23 45  1  0  0  0  0
 24 25  1  0  0  0  0
 24 46  1  0  0  0  0
 25 26  2  0  0  0  0
 25 47  1  0  0  0  0
 26 27  1  0  0  0  0
 26 48  1  0  0  0  0
 27 28  2  0  0  0  0
 28 29  1  0  0  0  0
 28 49  1  0  0  0  0
 29 30  2  0  0  0  0
 30 50  1  0  0  0  0
M  END
$$$$
