
 OpenBabel07202414143D

 46 49  0  0  0  0  0  0  0  0999 V2000
    0.8464   -0.3085    0.4262 C   0  0  0  0  0  0  0  0  0  0  0  0
    1.6462   -0.2792   -0.7853 N   0  0  0  0  0  0  0  0  0  0  0  0
    2.5699   -1.3097   -1.0126 C   0  0  0  0  0  0  0  0  0  0  0  0
    2.3770   -2.6258   -0.5720 C   0  0  0  0  0  0  0  0  0  0  0  0
    3.2653   -3.6503   -0.9163 C   0  0  0  0  0  0  0  0  0  0  0  0
    4.3768   -3.3801   -1.7099 C   0  0  0  0  0  0  0  0  0  0  0  0
    5.2182   -4.4404   -2.1464 N   0  0  0  0  0  0  0  0  0  0  0  0
    6.4757   -4.7256   -1.4492 C   0  0  0  0  0  0  0  0  0  0  0  0
    6.7323   -3.9972   -0.1691 C   0  0  0  0  0  0  0  0  0  0  0  0
    6.2979   -4.4460    1.1243 C   0  0  0  0  0  0  0  0  0  0  0  0
    6.7440   -3.6343    2.1436 C   0  0  0  0  0  0  0  0  0  0  0  0
    7.6855   -2.3335    1.5621 S   0  0  0  0  0  0  0  0  0  0  0  0
    7.5092   -2.8589   -0.0538 C   0  0  0  0  0  0  0  0  0  0  0  0
    4.8292   -5.1482   -3.2947 C   0  0  0  0  0  0  0  0  0  0  0  0
    3.7209   -5.0149   -3.8311 O   0  0  0  0  0  0  0  0  0  0  0  0
    5.8441   -6.0443   -3.9546 C   0  0  0  0  0  0  0  0  0  0  0  0
    5.7791   -7.4351   -3.5509 N   0  0  0  0  0  0  0  0  0  0  0  0
    6.8018   -7.9136   -2.8051 N   0  0  0  0  0  0  0  0  0  0  0  0
    7.0661   -9.1416   -3.2307 N   0  0  0  0  0  0  0  0  0  0  0  0
    6.1321   -9.4730   -4.1741 C   0  0  0  0  0  0  0  0  0  0  0  0
    6.0194  -10.6012   -4.9965 C   0  0  0  0  0  0  0  0  0  0  0  0
    4.9234  -10.6855   -5.8649 C   0  0  0  0  0  0  0  0  0  0  0  0
    3.9509   -9.6810   -5.8910 C   0  0  0  0  0  0  0  0  0  0  0  0
    4.0749   -8.5236   -5.1119 C   0  0  0  0  0  0  0  0  0  0  0  0
    5.2033   -8.4449   -4.2905 C   0  0  0  0  0  0  0  0  0  0  0  0
    4.5781   -2.0821   -2.1839 C   0  0  0  0  0  0  0  0  0  0  0  0
    3.6708   -1.0649   -1.8481 C   0  0  0  0  0  0  0  0  0  0  0  0
    0.2530    0.6110    0.4899 H   0  0  0  0  0  0  0  0  0  0  0  0
    1.4793   -0.3557    1.3183 H   0  0  0  0  0  0  0  0  0  0  0  0
    0.1394   -1.1443    0.4304 H   0  0  0  0  0  0  0  0  0  0  0  0
    2.0486    0.6388   -0.9602 H   0  0  0  0  0  0  0  0  0  0  0  0
    1.5013   -2.8880    0.0197 H   0  0  0  0  0  0  0  0  0  0  0  0
    3.0634   -4.6648   -0.5818 H   0  0  0  0  0  0  0  0  0  0  0  0
    7.3056   -4.5102   -2.1478 H   0  0  0  0  0  0  0  0  0  0  0  0
    6.4891   -5.7995   -1.2404 H   0  0  0  0  0  0  0  0  0  0  0  0
    5.7016   -5.3344    1.2971 H   0  0  0  0  0  0  0  0  0  0  0  0
    6.5701   -3.7477    3.2046 H   0  0  0  0  0  0  0  0  0  0  0  0
    8.0018   -2.3142   -0.8482 H   0  0  0  0  0  0  0  0  0  0  0  0
    6.8694   -5.6915   -3.8122 H   0  0  0  0  0  0  0  0  0  0  0  0
    5.6825   -6.0070   -5.0400 H   0  0  0  0  0  0  0  0  0  0  0  0
    6.7785  -11.3757   -4.9728 H   0  0  0  0  0  0  0  0  0  0  0  0
    4.8286  -11.5457   -6.5241 H   0  0  0  0  0  0  0  0  0  0  0  0
    3.0909   -9.7896   -6.5502 H   0  0  0  0  0  0  0  0  0  0  0  0
    3.3356   -7.7292   -5.1555 H   0  0  0  0  0  0  0  0  0  0  0  0
    5.4068   -1.8523   -2.8419 H   0  0  0  0  0  0  0  0  0  0  0  0
    3.8246   -0.0718   -2.2648 H   0  0  0  0  0  0  0  0  0  0  0  0
  1  2  1  0  0  0  0
  1 28  1  0  0  0  0
  1 29  1  0  0  0  0
  1 30  1  0  0  0  0
  2  3  1  0  0  0  0
  2 31  1  0  0  0  0
  3  4  1  0  0  0  0
  3 27  2  0  0  0  0
  4  5  2  0  0  0  0
  4 32  1  0  0  0  0
  5  6  1  0  0  0  0
  5 33  1  0  0  0  0
  6  7  1  0  0  0  0
  6 26  2  0  0  0  0
  7  8  1  0  0  0  0
  7 14  1  0  0  0  0
  8  9  1  0  0  0  0
  8 34  1  0  0  0  0
  8 35  1  0  0  0  0
  9 10  1  0  0  0  0
  9 13  2  0  0  0  0
 10 11  2  0  0  0  0
 10 36  1  0  0  0  0
 11 12  1  0  0  0  0
 11 37  1  0  0  0  0
 12 13  1  0  0  0  0
 13 38  1  0  0  0  0
 14 15  2  0  0  0  0
 14 16  1  0  0  0  0
 16 17  1  0  0  0  0
 16 39  1  0  0  0  0
 16 40  1  0  0  0  0
 17 18  1  0  0  0  0
 17 25  1  0  0  0  0
 18 19  2  0  0  0  0
 19 20  1  0  0  0  0
 20 21  1  0  0  0  0
 20 25  2  0  0  0  0
 21 22  2  0  0  0  0
 21 41  1  0  0  0  0
 22 23  1  0  0  0  0
 22 42  1  0  0  0  0
 23 24  2  0  0  0  0
 23 43  1  0  0  0  0
 24 25  1  0  0  0  0
 24 44  1  0  0  0  0
 26 27  1  0  0  0  0
 26 45  1  0  0  0  0
 27 46  1  0  0  0  0
M  END
$$$$
