
 OpenBabel07202414123D

 37 39  0  0  1  0  0  0  0  0999 V2000
    3.1786    1.3481   -0.2434 C   0  0  0  0  0  0  0  0  0  0  0  0
    2.4569    0.0500    0.1225 C   0  0  3  0  0  0  0  0  0  0  0  0
    3.0594   -0.4996    1.4174 C   0  0  0  0  0  0  0  0  0  0  0  0
    3.8936   -1.4034    1.3859 O   0  0  0  0  0  0  0  0  0  0  0  0
    2.6360    0.1255    2.5748 N   0  0  0  0  0  0  0  0  0  0  0  0
    3.1595   -0.1607    3.8597 C   0  0  0  0  0  0  0  0  0  0  0  0
    4.5269   -0.3652    4.0603 C   0  0  0  0  0  0  0  0  0  0  0  0
    5.1015   -0.5491    5.2712 N   0  0  0  0  0  0  0  0  0  0  0  0
    4.2704   -0.5629    6.3338 C   0  0  0  0  0  0  0  0  0  0  0  0
    2.8836   -0.4098    6.2616 C   0  0  0  0  0  0  0  0  0  0  0  0
    2.0724   -0.4860    7.4081 C   0  0  0  0  0  0  0  0  0  0  0  0
    0.6900   -0.3845    7.3083 C   0  0  0  0  0  0  0  0  0  0  0  0
    0.0989   -0.2000    6.0667 C   0  0  0  0  0  0  0  0  0  0  0  0
    0.8929   -0.1028    4.9217 C   0  0  0  0  0  0  0  0  0  0  0  0
    2.3046   -0.1965    4.9890 C   0  0  0  0  0  0  0  0  0  0  0  0
    0.9339    0.1598    0.1335 C   0  0  0  0  0  0  0  0  0  0  0  0
    0.2627    1.3533    0.4412 C   0  0  0  0  0  0  0  0  0  0  0  0
   -1.1339    1.4221    0.3980 C   0  0  0  0  0  0  0  0  0  0  0  0
   -1.8863    0.3000    0.0467 C   0  0  0  0  0  0  0  0  0  0  0  0
   -3.6040    0.4710   -0.0103 Cl  0  0  0  0  0  0  0  0  0  0  0  0
   -1.2373   -0.9014   -0.2467 C   0  0  0  0  0  0  0  0  0  0  0  0
   -2.0985   -2.3302   -0.6964 Cl  0  0  0  0  0  0  0  0  0  0  0  0
    0.1621   -0.9700   -0.1917 C   0  0  0  0  0  0  0  0  0  0  0  0
    4.2555    1.1701   -0.3480 H   0  0  0  0  0  0  0  0  0  0  0  0
    3.0610    2.1201    0.5272 H   0  0  0  0  0  0  0  0  0  0  0  0
    2.8084    1.7493   -1.1921 H   0  0  0  0  0  0  0  0  0  0  0  0
    2.7108   -0.6761   -0.6653 H   0  0  0  0  0  0  0  0  0  0  0  0
    1.7418    0.5931    2.5424 H   0  0  0  0  0  0  0  0  0  0  0  0
    5.2316   -0.3369    3.2337 H   0  0  0  0  0  0  0  0  0  0  0  0
    4.7690   -0.7279    7.2860 H   0  0  0  0  0  0  0  0  0  0  0  0
    2.5223   -0.6490    8.3869 H   0  0  0  0  0  0  0  0  0  0  0  0
    0.0719   -0.4678    8.1986 H   0  0  0  0  0  0  0  0  0  0  0  0
   -0.9848   -0.1531    5.9785 H   0  0  0  0  0  0  0  0  0  0  0  0
    0.3807   -0.0007    3.9690 H   0  0  0  0  0  0  0  0  0  0  0  0
    0.8073    2.2579    0.7029 H   0  0  0  0  0  0  0  0  0  0  0  0
   -1.6293    2.3643    0.6245 H   0  0  0  0  0  0  0  0  0  0  0  0
    0.6550   -1.9132   -0.4320 H   0  0  0  0  0  0  0  0  0  0  0  0
  1  2  1  0  0  0  0
  1 24  1  0  0  0  0
  1 25  1  0  0  0  0
  1 26  1  0  0  0  0
  2  3  1  0  0  0  0
  2 16  1  0  0  0  0
  2 27  1  0  0  0  0
  3  4  2  0  0  0  0
  3  5  1  0  0  0  0
  5  6  1  0  0  0  0
  5 28  1  0  0  0  0
  6  7  1  0  0  0  0
  6 15  2  0  0  0  0
  7  8  2  0  0  0  0
  7 29  1  0  0  0  0
  8  9  1  0  0  0  0
  9 10  2  0  0  0  0
  9 30  1  0  0  0  0
 10 11  1  0  0  0  0
 10 15  1  0  0  0  0
 11 12  2  0  0  0  0
 11 31  1  0  0  0  0
 12 13  1  0  0  0  0
 12 32  1  0  0  0  0
 13 14  2  0  0  0  0
 13 33  1  0  0  0  0
 14 15  1  0  0  0  0
 14 34  1  0  0  0  0
 16 17  1  0  0  0  0
 16 23  2  0  0  0  0
 17 18  2  0  0  0  0
 17 35  1  0  0  0  0
 18 19  1  0  0  0  0
 18 36  1  0  0  0  0
 19 20  1  0  0  0  0
 19 21  2  0  0  0  0
 21 22  1  0  0  0  0
 21 23  1  0  0  0  0
 23 37  1  0  0  0  0
M  END
$$$$
