
 OpenBabel07202414133D

 49 52  0  0  0  0  0  0  0  0999 V2000
    0.8036    0.8838   -0.1462 C   0  0  0  0  0  0  0  0  0  0  0  0
    1.8121    0.3263    0.7516 N   0  0  0  0  0  0  0  0  0  0  0  0
    1.7156   -1.1087    1.0215 C   0  0  0  0  0  0  0  0  0  0  0  0
    2.6666    1.1448    1.4960 C   0  0  0  0  0  0  0  0  0  0  0  0
    2.6132    2.5495    1.4318 C   0  0  0  0  0  0  0  0  0  0  0  0
    3.4566    3.3857    2.2029 C   0  0  0  0  0  0  0  0  0  0  0  0
    4.4175    2.8446    3.0545 C   0  0  0  0  0  0  0  0  0  0  0  0
    4.5124    1.4515    3.1181 C   0  0  0  0  0  0  0  0  0  0  0  0
    3.6528    0.6285    2.3530 C   0  0  0  0  0  0  0  0  0  0  0  0
    5.3021    3.6837    3.8325 N   0  0  0  0  0  0  0  0  0  0  0  0
    6.6262    4.0014    3.2780 C   0  0  0  0  0  0  0  0  0  0  0  0
    7.2888    2.9880    2.4039 C   0  0  0  0  0  0  0  0  0  0  0  0
    8.4971    2.3382    2.5313 C   0  0  0  0  0  0  0  0  0  0  0  0
    8.6145    1.5701    1.3532 C   0  0  0  0  0  0  0  0  0  0  0  0
    7.5850    1.7298    0.5329 N   0  0  0  0  0  0  0  0  0  0  0  0
    6.8080    2.5971    1.1815 N   0  0  0  0  0  0  0  0  0  0  0  0
    4.7306    4.4293    4.8904 C   0  0  0  0  0  0  0  0  0  0  0  0
    3.5583    4.2143    5.2384 O   0  0  0  0  0  0  0  0  0  0  0  0
    5.5405    5.3590    5.8026 C   0  0  0  0  0  0  0  0  0  0  0  0
    6.2932    6.4773    5.2450 N   0  0  0  0  0  0  0  0  0  0  0  0
    5.9795    7.8134    5.0220 C   0  0  0  0  0  0  0  0  0  0  0  0
    4.8393    8.6338    5.0824 C   0  0  0  0  0  0  0  0  0  0  0  0
    4.9699    9.9765    4.6615 C   0  0  0  0  0  0  0  0  0  0  0  0
    6.2020   10.4976    4.2319 C   0  0  0  0  0  0  0  0  0  0  0  0
    7.3389    9.6962    4.2513 C   0  0  0  0  0  0  0  0  0  0  0  0
    7.2196    8.3536    4.6486 C   0  0  0  0  0  0  0  0  0  0  0  0
    8.1920    7.4088    4.7512 N   0  0  0  0  0  0  0  0  0  0  0  0
    7.6300    6.2898    5.1607 N   0  0  0  0  0  0  0  0  0  0  0  0
    0.1891    0.1032   -0.6112 H   0  0  0  0  0  0  0  0  0  0  0  0
    1.2783    1.4308   -0.9693 H   0  0  0  0  0  0  0  0  0  0  0  0
    0.1150    1.5460    0.3885 H   0  0  0  0  0  0  0  0  0  0  0  0
    0.9408   -1.5894    0.4096 H   0  0  0  0  0  0  0  0  0  0  0  0
    1.4479   -1.2981    2.0664 H   0  0  0  0  0  0  0  0  0  0  0  0
    2.6537   -1.6185    0.7810 H   0  0  0  0  0  0  0  0  0  0  0  0
    1.8918    3.0393    0.7847 H   0  0  0  0  0  0  0  0  0  0  0  0
    3.3441    4.4648    2.1146 H   0  0  0  0  0  0  0  0  0  0  0  0
    5.2544    0.9799    3.7536 H   0  0  0  0  0  0  0  0  0  0  0  0
    3.7870   -0.4459    2.4448 H   0  0  0  0  0  0  0  0  0  0  0  0
    7.2986    4.1481    4.1300 H   0  0  0  0  0  0  0  0  0  0  0  0
    6.5450    4.9555    2.7453 H   0  0  0  0  0  0  0  0  0  0  0  0
    9.2141    2.4264    3.3357 H   0  0  0  0  0  0  0  0  0  0  0  0
    9.4225    0.9067    1.0679 H   0  0  0  0  0  0  0  0  0  0  0  0
    5.9211    2.8745    0.7404 H   0  0  0  0  0  0  0  0  0  0  0  0
    6.2533    4.7295    6.3540 H   0  0  0  0  0  0  0  0  0  0  0  0
    4.8662    5.7828    6.5573 H   0  0  0  0  0  0  0  0  0  0  0  0
    3.8747    8.2722    5.4262 H   0  0  0  0  0  0  0  0  0  0  0  0
    4.1142   10.6415    4.6626 H   0  0  0  0  0  0  0  0  0  0  0  0
    6.2802   11.5270    3.8956 H   0  0  0  0  0  0  0  0  0  0  0  0
    8.3082   10.0862    3.9609 H   0  0  0  0  0  0  0  0  0  0  0  0
  1  2  1  0  0  0  0
  1 29  1  0  0  0  0
  1 30  1  0  0  0  0
  1 31  1  0  0  0  0
  2  3  1  0  0  0  0
  2  4  1  0  0  0  0
  3 32  1  0  0  0  0
  3 33  1  0  0  0  0
  3 34  1  0  0  0  0
  4  5  1  0  0  0  0
  4  9  2  0  0  0  0
  5  6  2  0  0  0  0
  5 35  1  0  0  0  0
  6  7  1  0  0  0  0
  6 36  1  0  0  0  0
  7  8  2  0  0  0  0
  7 10  1  0  0  0  0
  8  9  1  0  0  0  0
  8 37  1  0  0  0  0
  9 38  1  0  0  0  0
 10 11  1  0  0  0  0
 10 17  1  0  0  0  0
 11 12  1  0  0  0  0
 11 39  1  0  0  0  0
 11 40  1  0  0  0  0
 12 13  2  0  0  0  0
 12 16  1  0  0  0  0
 13 14  1  0  0  0  0
 13 41  1  0  0  0  0
 14 15  2  0  0  0  0
 14 42  1  0  0  0  0
 15 16  1  0  0  0  0
 16 43  1  0  0  0  0
 17 18  2  0  0  0  0
 17 19  1  0  0  0  0
 19 20  1  0  0  0  0
 19 44  1  0  0  0  0
 19 45  1  0  0  0  0
 20 21  1  0  0  0  0
 20 28  1  0  0  0  0
 21 22  1  0  0  0  0
 21 26  2  0  0  0  0
 22 23  2  0  0  0  0
 22 46  1  0  0  0  0
 23 24  1  0  0  0  0
 23 47  1  0  0  0  0
 24 25  2  0  0  0  0
 24 48  1  0  0  0  0
 25 26  1  0  0  0  0
 25 49  1  0  0  0  0
 26 27  1  0  0  0  0
 27 28  2  0  0  0  0
M  END
$$$$
