
 OpenBabel07202414143D

 49 52  0  0  1  0  0  0  0  0999 V2000
    1.3243   -0.0468    3.0552 C   0  0  0  0  0  0  0  0  0  0  0  0
    2.5574    0.5711    2.6418 N   0  0  0  0  0  0  0  0  0  0  0  0
    3.3077    0.0292    1.6255 C   0  0  0  0  0  0  0  0  0  0  0  0
    2.9899   -1.0110    1.0490 O   0  0  0  0  0  0  0  0  0  0  0  0
    4.4837    0.8745    1.1241 C   0  0  0  0  0  0  0  0  0  0  0  0
    5.1447    1.7919    2.0640 N   0  0  0  0  0  0  0  0  0  0  0  0
    6.5391    1.5456    2.4313 C   0  0  0  0  0  0  0  0  0  0  0  0
    7.4763    2.6126    1.8567 C   0  0  3  0  0  0  0  0  0  0  0  0
    7.6597    2.4097    0.3395 C   0  0  0  0  0  0  0  0  0  0  0  0
    8.5800    1.7171   -0.0853 O   0  0  0  0  0  0  0  0  0  0  0  0
    6.6832    2.9962   -0.4404 N   0  0  0  0  0  0  0  0  0  0  0  0
    6.4459    2.8726   -1.8286 C   0  0  0  0  0  0  0  0  0  0  0  0
    7.2021    2.0633   -2.6690 C   0  0  0  0  0  0  0  0  0  0  0  0
    6.8015    1.6949   -3.9078 N   0  0  0  0  0  0  0  0  0  0  0  0
    5.6694    2.2615   -4.3765 C   0  0  0  0  0  0  0  0  0  0  0  0
    4.9884    3.2928   -3.7346 C   0  0  0  0  0  0  0  0  0  0  0  0
    3.9988    4.0522   -4.3934 C   0  0  0  0  0  0  0  0  0  0  0  0
    3.3506    5.0944   -3.7348 C   0  0  0  0  0  0  0  0  0  0  0  0
    3.6243    5.3167   -2.3966 C   0  0  0  0  0  0  0  0  0  0  0  0
    2.9815    6.2911   -1.7407 F   0  0  0  0  0  0  0  0  0  0  0  0
    4.5850    4.5670   -1.7267 C   0  0  0  0  0  0  0  0  0  0  0  0
    5.3437    3.5725   -2.3968 C   0  0  0  0  0  0  0  0  0  0  0  0
    6.9369    3.9787    2.2579 C   0  0  0  0  0  0  0  0  0  0  0  0
    7.8011    5.0793    2.3672 C   0  0  0  0  0  0  0  0  0  0  0  0
    7.2827    6.3493    2.6425 C   0  0  0  0  0  0  0  0  0  0  0  0
    8.3514    7.6914    2.7746 Cl  0  0  0  0  0  0  0  0  0  0  0  0
    5.9203    6.5379    2.7935 C   0  0  0  0  0  0  0  0  0  0  0  0
    5.0459    5.4565    2.7106 C   0  0  0  0  0  0  0  0  0  0  0  0
    5.5555    4.1688    2.4593 C   0  0  0  0  0  0  0  0  0  0  0  0
    4.5945    3.0535    2.2584 C   0  0  0  0  0  0  0  0  0  0  0  0
    3.3818    3.2688    2.1324 O   0  0  0  0  0  0  0  0  0  0  0  0
    0.7652    0.6554    3.6771 H   0  0  0  0  0  0  0  0  0  0  0  0
    1.5604   -0.9477    3.6274 H   0  0  0  0  0  0  0  0  0  0  0  0
    0.7287   -0.3220    2.1793 H   0  0  0  0  0  0  0  0  0  0  0  0
    2.7176    1.5508    2.8686 H   0  0  0  0  0  0  0  0  0  0  0  0
    4.1111    1.4732    0.2842 H   0  0  0  0  0  0  0  0  0  0  0  0
    5.2370    0.1834    0.7301 H   0  0  0  0  0  0  0  0  0  0  0  0
    6.8349    0.5292    2.1540 H   0  0  0  0  0  0  0  0  0  0  0  0
    6.5745    1.6001    3.5293 H   0  0  0  0  0  0  0  0  0  0  0  0
    8.4639    2.4822    2.3165 H   0  0  0  0  0  0  0  0  0  0  0  0
    5.9417    3.4580    0.0593 H   0  0  0  0  0  0  0  0  0  0  0  0
    8.1610    1.6473   -2.3767 H   0  0  0  0  0  0  0  0  0  0  0  0
    5.3143    1.8500   -5.3184 H   0  0  0  0  0  0  0  0  0  0  0  0
    3.7761    3.8751   -5.4443 H   0  0  0  0  0  0  0  0  0  0  0  0
    2.6450    5.7353   -4.2535 H   0  0  0  0  0  0  0  0  0  0  0  0
    4.7534    4.8286   -0.6888 H   0  0  0  0  0  0  0  0  0  0  0  0
    8.8793    4.9524    2.2355 H   0  0  0  0  0  0  0  0  0  0  0  0
    5.5093    7.5345    2.9681 H   0  0  0  0  0  0  0  0  0  0  0  0
    3.9717    5.6107    2.8083 H   0  0  0  0  0  0  0  0  0  0  0  0
  1  2  1  0  0  0  0
  1 32  1  0  0  0  0
  1 33  1  0  0  0  0
  1 34  1  0  0  0  0
  2  3  1  0  0  0  0
  2 35  1  0  0  0  0
  3  4  2  0  0  0  0
  3  5  1  0  0  0  0
  5  6  1  0  0  0  0
  5 36  1  0  0  0  0
  5 37  1  0  0  0  0
  6  7  1  0  0  0  0
  6 30  1  0  0  0  0
  7  8  1  0  0  0  0
  7 38  1  0  0  0  0
  7 39  1  0  0  0  0
  8  9  1  0  0  0  0
  8 23  1  0  0  0  0
  8 40  1  0  0  0  0
  9 10  2  0  0  0  0
  9 11  1  0  0  0  0
 11 12  1  0  0  0  0
 11 41  1  0  0  0  0
 12 13  1  0  0  0  0
 12 22  2  0  0  0  0
 13 14  2  0  0  0  0
 13 42  1  0  0  0  0
 14 15  1  0  0  0  0
 15 16  2  0  0  0  0
 15 43  1  0  0  0  0
 16 17  1  0  0  0  0
 16 22  1  0  0  0  0
 17 18  2  0  0  0  0
 17 44  1  0  0  0  0
 18 19  1  0  0  0  0
 18 45  1  0  0  0  0
 19 20  1  0  0  0  0
 19 21  2  0  0  0  0
 21 22  1  0  0  0  0
 21 46  1  0  0  0  0
 23 24  1  0  0  0  0
 23 29  2  0  0  0  0
 24 25  2  0  0  0  0
 24 47  1  0  0  0  0
 25 26  1  0  0  0  0
 25 27  1  0  0  0  0
 27 28  2  0  0  0  0
 27 48  1  0  0  0  0
 28 29  1  0  0  0  0
 28 49  1  0  0  0  0
 29 30  1  0  0  0  0
 30 31  2  0  0  0  0
M  END
$$$$
