
 OpenBabel07202414193D

 56 60  0  0  1  0  0  0  0  0999 V2000
    1.3789   -0.8167    0.5665 O   0  0  0  0  0  0  0  0  0  0  0  0
    2.2937   -0.1205    0.0963 C   0  0  0  0  0  0  0  0  0  0  0  0
    2.6296   -0.3863   -1.3571 C   0  0  0  0  0  0  0  0  0  0  0  0
    1.9174    0.4909   -2.3623 C   0  0  0  0  0  0  0  0  0  0  0  0
    0.6174    0.9277   -2.0806 C   0  0  0  0  0  0  0  0  0  0  0  0
   -0.1580    1.6392   -2.9269 N   0  0  0  0  0  0  0  0  0  0  0  0
    0.3678    1.9049   -4.1364 C   0  0  0  0  0  0  0  0  0  0  0  0
    1.6350    1.5062   -4.5586 C   0  0  0  0  0  0  0  0  0  0  0  0
    2.0894    1.8109   -5.8518 C   0  0  0  0  0  0  0  0  0  0  0  0
    3.3560    1.4087   -6.2713 C   0  0  0  0  0  0  0  0  0  0  0  0
    4.1699    0.6980   -5.4015 C   0  0  0  0  0  0  0  0  0  0  0  0
    3.7201    0.3796   -4.1142 C   0  0  0  0  0  0  0  0  0  0  0  0
    2.4411    0.7772   -3.6526 C   0  0  0  0  0  0  0  0  0  0  0  0
    2.9120    0.8481    0.8777 N   0  0  0  0  0  0  0  0  0  0  0  0
    2.5325    0.7692    2.3084 C   0  0  0  0  0  0  0  0  0  0  0  0
    2.3210    2.1460    2.9443 C   0  0  0  0  0  0  0  0  0  0  0  0
    3.5022    3.0194    2.8566 N   0  0  0  0  0  0  0  0  0  0  0  0
    4.6431    2.5614    3.6657 C   0  0  0  0  0  0  0  0  0  0  0  0
    4.3667    2.4338    5.1491 C   0  0  0  0  0  0  0  0  0  0  0  0
    4.4595    1.1839    5.7824 C   0  0  0  0  0  0  0  0  0  0  0  0
    4.2491    1.0662    7.1569 C   0  0  0  0  0  0  0  0  0  0  0  0
    3.9457    2.1954    7.9140 C   0  0  0  0  0  0  0  0  0  0  0  0
    3.8425    3.4407    7.2958 C   0  0  0  0  0  0  0  0  0  0  0  0
    4.0477    3.5600    5.9201 C   0  0  0  0  0  0  0  0  0  0  0  0
    3.8802    3.1121    1.4266 C   0  0  0  0  0  0  0  0  0  0  0  0
    4.1048    1.7490    0.6576 C   0  0  2  0  0  0  0  0  0  0  0  0
    4.5871    1.9817   -0.7603 C   0  0  0  0  0  0  0  0  0  0  0  0
    5.8074    2.8479   -1.0183 C   0  0  0  0  0  0  0  0  0  0  0  0
    4.4644    3.2796   -1.5305 C   0  0  0  0  0  0  0  0  0  0  0  0
    2.2850   -1.4111   -1.5627 H   0  0  0  0  0  0  0  0  0  0  0  0
    3.7061   -0.4734   -1.4760 H   0  0  0  0  0  0  0  0  0  0  0  0
    0.1241    0.6975   -1.1402 H   0  0  0  0  0  0  0  0  0  0  0  0
   -0.2936    2.4666   -4.7931 H   0  0  0  0  0  0  0  0  0  0  0  0
    1.4575    2.3620   -6.5444 H   0  0  0  0  0  0  0  0  0  0  0  0
    3.6983    1.6476   -7.2734 H   0  0  0  0  0  0  0  0  0  0  0  0
    5.1594    0.3807   -5.7233 H   0  0  0  0  0  0  0  0  0  0  0  0
    4.3939   -0.1854   -3.4800 H   0  0  0  0  0  0  0  0  0  0  0  0
    3.3298    0.2157    2.8194 H   0  0  0  0  0  0  0  0  0  0  0  0
    1.6180    0.1908    2.4709 H   0  0  0  0  0  0  0  0  0  0  0  0
    1.9843    2.0369    3.9807 H   0  0  0  0  0  0  0  0  0  0  0  0
    1.4884    2.6416    2.4249 H   0  0  0  0  0  0  0  0  0  0  0  0
    5.4618    3.2883    3.5639 H   0  0  0  0  0  0  0  0  0  0  0  0
    5.0500    1.6129    3.2991 H   0  0  0  0  0  0  0  0  0  0  0  0
    4.7043    0.2925    5.2100 H   0  0  0  0  0  0  0  0  0  0  0  0
    4.3284    0.0947    7.6379 H   0  0  0  0  0  0  0  0  0  0  0  0
    3.7901    2.1055    8.9857 H   0  0  0  0  0  0  0  0  0  0  0  0
    3.6047    4.3216    7.8865 H   0  0  0  0  0  0  0  0  0  0  0  0
    3.9618    4.5359    5.4459 H   0  0  0  0  0  0  0  0  0  0  0  0
    4.7615    3.7576    1.3477 H   0  0  0  0  0  0  0  0  0  0  0  0
    3.0734    3.6600    0.9199 H   0  0  0  0  0  0  0  0  0  0  0  0
    4.9309    1.2159    1.1457 H   0  0  0  0  0  0  0  0  0  0  0  0
    4.7008    1.0615   -1.3015 H   0  0  0  0  0  0  0  0  0  0  0  0
    6.5334    2.4914   -1.7438 H   0  0  0  0  0  0  0  0  0  0  0  0
    6.2620    3.4019   -0.2066 H   0  0  0  0  0  0  0  0  0  0  0  0
    4.2911    3.2230   -2.6006 H   0  0  0  0  0  0  0  0  0  0  0  0
    4.0205    4.1592   -1.0805 H   0  0  0  0  0  0  0  0  0  0  0  0
  1  2  2  0  0  0  0
  2  3  1  0  0  0  0
  2 14  1  0  0  0  0
  3  4  1  0  0  0  0
  3 30  1  0  0  0  0
  3 31  1  0  0  0  0
  4  5  1  0  0  0  0
  4 13  2  0  0  0  0
  5  6  2  0  0  0  0
  5 32  1  0  0  0  0
  6  7  1  0  0  0  0
  7  8  2  0  0  0  0
  7 33  1  0  0  0  0
  8  9  1  0  0  0  0
  8 13  1  0  0  0  0
  9 10  2  0  0  0  0
  9 34  1  0  0  0  0
 10 11  1  0  0  0  0
 10 35  1  0  0  0  0
 11 12  2  0  0  0  0
 11 36  1  0  0  0  0
 12 13  1  0  0  0  0
 12 37  1  0  0  0  0
 14 15  1  0  0  0  0
 14 26  1  0  0  0  0
 15 16  1  0  0  0  0
 15 38  1  0  0  0  0
 15 39  1  0  0  0  0
 16 17  1  0  0  0  0
 16 40  1  0  0  0  0
 16 41  1  0  0  0  0
 17 18  1  0  0  0  0
 17 25  1  0  0  0  0
 18 19  1  0  0  0  0
 18 42  1  0  0  0  0
 18 43  1  0  0  0  0
 19 20  1  0  0  0  0
 19 24  2  0  0  0  0
 20 21  2  0  0  0  0
 20 44  1  0  0  0  0
 21 22  1  0  0  0  0
 21 45  1  0  0  0  0
 22 23  2  0  0  0  0
 22 46  1  0  0  0  0
 23 24  1  0  0  0  0
 23 47  1  0  0  0  0
 24 48  1  0  0  0  0
 25 26  1  0  0  0  0
 25 49  1  0  0  0  0
 25 50  1  0  0  0  0
 26 27  1  0  0  0  0
 26 51  1  1  0  0  0
 27 28  1  0  0  0  0
 27 29  1  0  0  0  0
 27 52  1  0  0  0  0
 28 29  1  0  0  0  0
 28 53  1  0  0  0  0
 28 54  1  0  0  0  0
 29 55  1  0  0  0  0
 29 56  1  0  0  0  0
M  END
$$$$
