
 OpenBabel07202414203D

 24 25  0  0  0  0  0  0  0  0999 V2000
   -2.8551   -0.6446   -0.0522 C   0  0  0  0  0  0  0  0  0  0  0  0
   -1.6997   -1.4448   -0.0972 C   0  0  0  0  0  0  0  0  0  0  0  0
   -0.4713   -0.8116   -0.0427 C   0  0  0  0  0  0  0  0  0  0  0  0
   -0.4022    0.5832    0.0223 C   0  0  0  0  0  0  0  0  0  0  0  0
   -1.5129    1.4050    0.0598 C   0  0  0  0  0  0  0  0  0  0  0  0
   -2.7575    0.7663    0.0354 C   0  0  0  0  0  0  0  0  0  0  0  0
   -3.9825    1.5763    0.1226 N   0  3  0  0  0  0  0  0  0  0  0  0
   -5.0664    0.9776    0.1127 O   0  0  0  0  0  0  0  0  0  0  0  0
   -3.8532    2.8043    0.2066 O   0  5  0  0  0  0  0  0  0  0  0  0
    1.0127    0.9488    0.0702 C   0  0  0  0  0  0  0  0  0  0  0  0
    1.4759    2.0643    0.0861 O   0  0  0  0  0  0  0  0  0  0  0  0
    1.7828   -0.3946    0.0991 C   0  0  0  0  0  0  0  0  0  0  0  0
    2.9746   -0.5331    0.2660 O   0  0  0  0  0  0  0  0  0  0  0  0
    0.8155   -1.3791   -0.0141 N   0  0  0  0  0  0  0  0  0  0  0  0
    1.1050   -2.7987   -0.1275 C   0  0  0  0  0  0  0  0  0  0  0  0
    0.9734   -3.5885    1.1679 C   0  0  0  0  0  0  0  0  0  0  0  0
    0.7488   -4.7908    1.1929 O   0  0  0  0  0  0  0  0  0  0  0  0
    1.2146   -2.8848    2.2964 O   0  0  0  0  0  0  0  0  0  0  0  0
   -3.8299   -1.1318   -0.0729 H   0  0  0  0  0  0  0  0  0  0  0  0
   -1.7969   -2.5249   -0.1522 H   0  0  0  0  0  0  0  0  0  0  0  0
   -1.4013    2.4837    0.1255 H   0  0  0  0  0  0  0  0  0  0  0  0
    2.1403   -2.9171   -0.4673 H   0  0  0  0  0  0  0  0  0  0  0  0
    0.4420   -3.2348   -0.8810 H   0  0  0  0  0  0  0  0  0  0  0  0
    1.5545   -1.9852    2.1315 H   0  0  0  0  0  0  0  0  0  0  0  0
  1  2  1  0  0  0  0
  1  6  2  0  0  0  0
  1 19  1  0  0  0  0
  2  3  2  0  0  0  0
  2 20  1  0  0  0  0
  3  4  1  0  0  0  0
  3 14  1  0  0  0  0
  4  5  2  0  0  0  0
  4 10  1  0  0  0  0
  5  6  1  0  0  0  0
  5 21  1  0  0  0  0
  6  7  1  0  0  0  0
  7  8  2  0  0  0  0
  7  9  1  0  0  0  0
 10 11  2  0  0  0  0
 10 12  1  0  0  0  0
 12 13  2  0  0  0  0
 12 14  1  0  0  0  0
 14 15  1  0  0  0  0
 15 16  1  0  0  0  0
 15 22  1  0  0  0  0
 15 23  1  0  0  0  0
 16 17  2  0  0  0  0
 16 18  1  0  0  0  0
 18 24  1  0  0  0  0
M  CHG  2   7   1   9  -1
M  END
$$$$
