
 OpenBabel07202414203D

 38 40  0  0  0  0  0  0  0  0999 V2000
    1.3720   -0.4469    0.5735 C   0  0  0  0  0  0  0  0  0  0  0  0
    0.3514   -1.2898    0.9955 C   0  0  0  0  0  0  0  0  0  0  0  0
   -0.9859   -0.9582    0.7359 C   0  0  0  0  0  0  0  0  0  0  0  0
   -1.3486    0.2325    0.0685 C   0  0  0  0  0  0  0  0  0  0  0  0
   -0.2911    1.0898   -0.2709 C   0  0  0  0  0  0  0  0  0  0  0  0
    1.0510    0.7468   -0.0577 C   0  0  0  0  0  0  0  0  0  0  0  0
   -2.7792    0.5526   -0.2291 C   0  0  0  0  0  0  0  0  0  0  0  0
   -3.7865    0.1054    0.6520 C   0  0  0  0  0  0  0  0  0  0  0  0
   -5.1225    0.3997    0.4088 C   0  0  0  0  0  0  0  0  0  0  0  0
   -5.5521    1.1262   -0.6386 N   0  0  0  0  0  0  0  0  0  0  0  0
   -4.5934    1.5671   -1.4794 C   0  0  0  0  0  0  0  0  0  0  0  0
   -3.2266    1.3123   -1.3353 C   0  0  0  0  0  0  0  0  0  0  0  0
   -2.3538    1.9016   -2.2769 N   0  0  0  0  0  0  0  0  0  0  0  0
   -1.9070    1.1654   -3.3740 C   0  0  0  0  0  0  0  0  0  0  0  0
   -2.2050   -0.0017   -3.6081 O   0  0  0  0  0  0  0  0  0  0  0  0
   -1.0072    1.9734   -4.3008 C   0  0  0  0  0  0  0  0  0  0  0  0
   -1.7545    2.8224   -5.3020 C   0  0  0  0  0  0  0  0  0  0  0  0
   -2.5841    2.2274   -6.2641 C   0  0  0  0  0  0  0  0  0  0  0  0
   -3.2592    3.0096   -7.2067 C   0  0  0  0  0  0  0  0  0  0  0  0
   -3.1119    4.3963   -7.2022 C   0  0  0  0  0  0  0  0  0  0  0  0
   -2.2808    4.9965   -6.2596 C   0  0  0  0  0  0  0  0  0  0  0  0
   -1.6019    4.2190   -5.3164 C   0  0  0  0  0  0  0  0  0  0  0  0
   -2.0837    6.7041   -6.2573 Cl  0  0  0  0  0  0  0  0  0  0  0  0
    2.4111   -0.7186    0.7369 H   0  0  0  0  0  0  0  0  0  0  0  0
    0.5918   -2.2152    1.5134 H   0  0  0  0  0  0  0  0  0  0  0  0
   -1.7416   -1.6719    1.0594 H   0  0  0  0  0  0  0  0  0  0  0  0
   -0.4828    2.0589   -0.7235 H   0  0  0  0  0  0  0  0  0  0  0  0
    1.8409    1.4158   -0.3904 H   0  0  0  0  0  0  0  0  0  0  0  0
   -3.5517   -0.4593    1.5489 H   0  0  0  0  0  0  0  0  0  0  0  0
   -5.9032    0.0475    1.0788 H   0  0  0  0  0  0  0  0  0  0  0  0
   -4.9706    2.1351   -2.3251 H   0  0  0  0  0  0  0  0  0  0  0  0
   -2.5961    2.8491   -2.5491 H   0  0  0  0  0  0  0  0  0  0  0  0
   -0.3434    1.2804   -4.8329 H   0  0  0  0  0  0  0  0  0  0  0  0
   -0.3531    2.6014   -3.6811 H   0  0  0  0  0  0  0  0  0  0  0  0
   -2.7034    1.1448   -6.2940 H   0  0  0  0  0  0  0  0  0  0  0  0
   -3.8962    2.5345   -7.9494 H   0  0  0  0  0  0  0  0  0  0  0  0
   -3.6387    4.9983   -7.9370 H   0  0  0  0  0  0  0  0  0  0  0  0
   -0.9401    4.7081   -4.6045 H   0  0  0  0  0  0  0  0  0  0  0  0
  1  2  1  0  0  0  0
  1  6  2  0  0  0  0
  1 24  1  0  0  0  0
  2  3  2  0  0  0  0
  2 25  1  0  0  0  0
  3  4  1  0  0  0  0
  3 26  1  0  0  0  0
  4  5  2  0  0  0  0
  4  7  1  0  0  0  0
  5  6  1  0  0  0  0
  5 27  1  0  0  0  0
  6 28  1  0  0  0  0
  7  8  1  0  0  0  0
  7 12  2  0  0  0  0
  8  9  2  0  0  0  0
  8 29  1  0  0  0  0
  9 10  1  0  0  0  0
  9 30  1  0  0  0  0
 10 11  2  0  0  0  0
 11 12  1  0  0  0  0
 11 31  1  0  0  0  0
 12 13  1  0  0  0  0
 13 14  1  0  0  0  0
 13 32  1  0  0  0  0
 14 15  2  0  0  0  0
 14 16  1  0  0  0  0
 16 17  1  0  0  0  0
 16 33  1  0  0  0  0
 16 34  1  0  0  0  0
 17 18  1  0  0  0  0
 17 22  2  0  0  0  0
 18 19  2  0  0  0  0
 18 35  1  0  0  0  0
 19 20  1  0  0  0  0
 19 36  1  0  0  0  0
 20 21  2  0  0  0  0
 20 37  1  0  0  0  0
 21 22  1  0  0  0  0
 21 23  1  0  0  0  0
 22 38  1  0  0  0  0
M  END
$$$$
