
 OpenBabel07202414153D

 44 46  0  0  1  0  0  0  0  0999 V2000
    2.3814   -0.4660   -0.9586 C   0  0  0  0  0  0  0  0  0  0  0  0
    2.0497    0.3266    0.1748 O   0  0  0  0  0  0  0  0  0  0  0  0
    2.9201    1.3278    0.5105 C   0  0  0  0  0  0  0  0  0  0  0  0
    3.7804    1.9282   -0.4154 C   0  0  0  0  0  0  0  0  0  0  0  0
    4.5995    2.9994   -0.0470 C   0  0  0  0  0  0  0  0  0  0  0  0
    4.5784    3.5020    1.2637 C   0  0  0  0  0  0  0  0  0  0  0  0
    3.7012    2.9138    2.1816 C   0  0  0  0  0  0  0  0  0  0  0  0
    2.8912    1.8250    1.8253 C   0  0  0  0  0  0  0  0  0  0  0  0
    2.0890    1.3891    2.8507 O   0  0  0  0  0  0  0  0  0  0  0  0
    1.8314   -0.0089    2.8963 C   0  0  0  0  0  0  0  0  0  0  0  0
    5.4482    4.6901    1.6130 C   0  0  3  0  0  0  0  0  0  0  0  0
    4.7154    6.0039    1.3508 C   0  0  0  0  0  0  0  0  0  0  0  0
    5.1096    6.7829    2.5764 C   0  0  0  0  0  0  0  0  0  0  0  0
    5.7399    6.1007    3.4853 N   0  0  0  0  0  0  0  0  0  0  0  0
    5.8757    4.8203    3.0071 N   0  0  0  0  0  0  0  0  0  0  0  0
    6.6810    3.8944    3.6667 C   0  0  0  0  0  0  0  0  0  0  0  0
    6.9362    2.7870    3.1952 O   0  0  0  0  0  0  0  0  0  0  0  0
    7.2415    4.4074    4.9856 C   0  0  0  0  0  0  0  0  0  0  0  0
    8.1236    3.1435    5.8690 Cl  0  0  0  0  0  0  0  0  0  0  0  0
    4.7657    8.2151    2.7409 C   0  0  0  0  0  0  0  0  0  0  0  0
    4.0415    8.9102    1.7670 C   0  0  0  0  0  0  0  0  0  0  0  0
    3.7090   10.2522    1.9706 C   0  0  0  0  0  0  0  0  0  0  0  0
    4.0970   10.9018    3.1423 C   0  0  0  0  0  0  0  0  0  0  0  0
    4.8253   10.2157    4.1116 C   0  0  0  0  0  0  0  0  0  0  0  0
    5.1615    8.8761    3.9114 C   0  0  0  0  0  0  0  0  0  0  0  0
    1.6747   -1.3007   -1.0023 H   0  0  0  0  0  0  0  0  0  0  0  0
    3.3893   -0.8849   -0.8682 H   0  0  0  0  0  0  0  0  0  0  0  0
    2.2710    0.1027   -1.8876 H   0  0  0  0  0  0  0  0  0  0  0  0
    3.8164    1.6042   -1.4520 H   0  0  0  0  0  0  0  0  0  0  0  0
    5.2489    3.4450   -0.7973 H   0  0  0  0  0  0  0  0  0  0  0  0
    3.6470    3.2880    3.2034 H   0  0  0  0  0  0  0  0  0  0  0  0
    1.5622   -0.2605    3.9275 H   0  0  0  0  0  0  0  0  0  0  0  0
    2.7116   -0.6063    2.6306 H   0  0  0  0  0  0  0  0  0  0  0  0
    0.9718   -0.2626    2.2696 H   0  0  0  0  0  0  0  0  0  0  0  0
    6.3729    4.6417    1.0218 H   0  0  0  0  0  0  0  0  0  0  0  0
    3.6252    5.8986    1.3347 H   0  0  0  0  0  0  0  0  0  0  0  0
    5.0581    6.4832    0.4301 H   0  0  0  0  0  0  0  0  0  0  0  0
    6.4383    4.7647    5.6354 H   0  0  0  0  0  0  0  0  0  0  0  0
    7.9476    5.2180    4.7813 H   0  0  0  0  0  0  0  0  0  0  0  0
    3.7158    8.4314    0.8487 H   0  0  0  0  0  0  0  0  0  0  0  0
    3.1408   10.7921    1.2167 H   0  0  0  0  0  0  0  0  0  0  0  0
    3.8295   11.9438    3.3013 H   0  0  0  0  0  0  0  0  0  0  0  0
    5.1274   10.7206    5.0260 H   0  0  0  0  0  0  0  0  0  0  0  0
    5.7261    8.3527    4.6804 H   0  0  0  0  0  0  0  0  0  0  0  0
  1  2  1  0  0  0  0
  1 26  1  0  0  0  0
  1 27  1  0  0  0  0
  1 28  1  0  0  0  0
  2  3  1  0  0  0  0
  3  4  1  0  0  0  0
  3  8  2  0  0  0  0
  4  5  2  0  0  0  0
  4 29  1  0  0  0  0
  5  6  1  0  0  0  0
  5 30  1  0  0  0  0
  6  7  2  0  0  0  0
  6 11  1  0  0  0  0
  7  8  1  0  0  0  0
  7 31  1  0  0  0  0
  8  9  1  0  0  0  0
  9 10  1  0  0  0  0
 10 32  1  0  0  0  0
 10 33  1  0  0  0  0
 10 34  1  0  0  0  0
 11 12  1  0  0  0  0
 11 15  1  0  0  0  0
 11 35  1  0  0  0  0
 12 13  1  0  0  0  0
 12 36  1  0  0  0  0
 12 37  1  0  0  0  0
 13 14  2  0  0  0  0
 13 20  1  0  0  0  0
 14 15  1  0  0  0  0
 15 16  1  0  0  0  0
 16 17  2  0  0  0  0
 16 18  1  0  0  0  0
 18 19  1  0  0  0  0
 18 38  1  0  0  0  0
 18 39  1  0  0  0  0
 20 21  1  0  0  0  0
 20 25  2  0  0  0  0
 21 22  2  0  0  0  0
 21 40  1  0  0  0  0
 22 23  1  0  0  0  0
 22 41  1  0  0  0  0
 23 24  2  0  0  0  0
 23 42  1  0  0  0  0
 24 25  1  0  0  0  0
 24 43  1  0  0  0  0
 25 44  1  0  0  0  0
M  END
$$$$
