
 OpenBabel07202414133D

 47 49  0  0  0  0  0  0  0  0999 V2000
    3.7751    0.3298   -2.1702 C   0  0  0  0  0  0  0  0  0  0  0  0
    5.2695    0.3592   -1.8940 C   0  0  0  0  0  0  0  0  0  0  0  0
    5.6901   -0.9887   -1.6550 O   0  0  0  0  0  0  0  0  0  0  0  0
    5.5412   -1.4082   -0.3717 C   0  0  0  0  0  0  0  0  0  0  0  0
    5.4065   -0.6917    0.6057 O   0  0  0  0  0  0  0  0  0  0  0  0
    5.4251   -2.8355   -0.3425 C   0  0  0  0  0  0  0  0  0  0  0  0
    5.4612   -3.7999   -1.3303 C   0  0  0  0  0  0  0  0  0  0  0  0
    5.1904   -5.0307   -0.6803 C   0  0  0  0  0  0  0  0  0  0  0  0
    4.9964   -4.8308    0.6337 N   0  0  0  0  0  0  0  0  0  0  0  0
    5.1534   -3.5110    0.8061 N   0  0  0  0  0  0  0  0  0  0  0  0
    5.0830   -6.3735   -1.2658 C   0  0  0  0  0  0  0  0  0  0  0  0
    5.2379   -6.5906   -2.6482 C   0  0  0  0  0  0  0  0  0  0  0  0
    5.1266   -7.8792   -3.1969 C   0  0  0  0  0  0  0  0  0  0  0  0
    4.8513   -8.9566   -2.3427 C   0  0  0  0  0  0  0  0  0  0  0  0
    4.7077   -8.7501   -0.9723 C   0  0  0  0  0  0  0  0  0  0  0  0
    4.8239   -7.4737   -0.4343 C   0  0  0  0  0  0  0  0  0  0  0  0
    4.3968  -10.0865    0.0651 Cl  0  0  0  0  0  0  0  0  0  0  0  0
    5.3915   -8.1284   -4.6650 C   0  0  0  0  0  0  0  0  0  0  0  0
    4.5209   -7.3611   -5.6421 C   0  0  0  0  0  0  0  0  0  0  0  0
    5.0244   -6.6923   -6.5434 O   0  0  0  0  0  0  0  0  0  0  0  0
    3.1580   -7.5086   -5.4464 N   0  0  0  0  0  0  0  0  0  0  0  0
    2.2290   -6.8792   -6.3046 C   0  0  0  0  0  0  0  0  0  0  0  0
    2.2965   -7.0298   -7.6924 C   0  0  0  0  0  0  0  0  0  0  0  0
    1.4211   -6.4731   -8.5652 N   0  0  0  0  0  0  0  0  0  0  0  0
    0.4496   -5.7076   -8.0309 C   0  0  0  0  0  0  0  0  0  0  0  0
    0.3027   -5.4868   -6.6687 C   0  0  0  0  0  0  0  0  0  0  0  0
    1.2035   -6.0843   -5.7788 C   0  0  0  0  0  0  0  0  0  0  0  0
    1.1050   -5.7858   -4.3108 C   0  0  0  0  0  0  0  0  0  0  0  0
    3.4006    1.3182   -2.4372 H   0  0  0  0  0  0  0  0  0  0  0  0
    3.2277   -0.0311   -1.2941 H   0  0  0  0  0  0  0  0  0  0  0  0
    3.5546   -0.3715   -2.9846 H   0  0  0  0  0  0  0  0  0  0  0  0
    5.5115    1.0243   -1.0579 H   0  0  0  0  0  0  0  0  0  0  0  0
    5.8090    0.7248   -2.7726 H   0  0  0  0  0  0  0  0  0  0  0  0
    5.6344   -3.6206   -2.3810 H   0  0  0  0  0  0  0  0  0  0  0  0
    5.0300   -3.1184    1.7342 H   0  0  0  0  0  0  0  0  0  0  0  0
    5.4724   -5.7570   -3.3088 H   0  0  0  0  0  0  0  0  0  0  0  0
    4.7727   -9.9672   -2.7376 H   0  0  0  0  0  0  0  0  0  0  0  0
    4.7243   -7.3324    0.6407 H   0  0  0  0  0  0  0  0  0  0  0  0
    5.2838   -9.1927   -4.9053 H   0  0  0  0  0  0  0  0  0  0  0  0
    6.4378   -7.8666   -4.8662 H   0  0  0  0  0  0  0  0  0  0  0  0
    2.8666   -7.6704   -4.4904 H   0  0  0  0  0  0  0  0  0  0  0  0
    3.0623   -7.6459   -8.1575 H   0  0  0  0  0  0  0  0  0  0  0  0
   -0.2261   -5.2488   -8.7480 H   0  0  0  0  0  0  0  0  0  0  0  0
   -0.4900   -4.8348   -6.3160 H   0  0  0  0  0  0  0  0  0  0  0  0
    0.3829   -4.9859   -4.1135 H   0  0  0  0  0  0  0  0  0  0  0  0
    2.0726   -5.4423   -3.9287 H   0  0  0  0  0  0  0  0  0  0  0  0
    0.7907   -6.6765   -3.7605 H   0  0  0  0  0  0  0  0  0  0  0  0
  1  2  1  0  0  0  0
  1 29  1  0  0  0  0
  1 30  1  0  0  0  0
  1 31  1  0  0  0  0
  2  3  1  0  0  0  0
  2 32  1  0  0  0  0
  2 33  1  0  0  0  0
  3  4  1  0  0  0  0
  4  5  2  0  0  0  0
  4  6  1  0  0  0  0
  6  7  2  0  0  0  0
  6 10  1  0  0  0  0
  7  8  1  0  0  0  0
  7 34  1  0  0  0  0
  8  9  2  0  0  0  0
  8 11  1  0  0  0  0
  9 10  1  0  0  0  0
 10 35  1  0  0  0  0
 11 12  1  0  0  0  0
 11 16  2  0  0  0  0
 12 13  2  0  0  0  0
 12 36  1  0  0  0  0
 13 14  1  0  0  0  0
 13 18  1  0  0  0  0
 14 15  2  0  0  0  0
 14 37  1  0  0  0  0
 15 16  1  0  0  0  0
 15 17  1  0  0  0  0
 16 38  1  0  0  0  0
 18 19  1  0  0  0  0
 18 39  1  0  0  0  0
 18 40  1  0  0  0  0
 19 20  2  0  0  0  0
 19 21  1  0  0  0  0
 21 22  1  0  0  0  0
 21 41  1  0  0  0  0
 22 23  1  0  0  0  0
 22 27  2  0  0  0  0
 23 24  2  0  0  0  0
 23 42  1  0  0  0  0
 24 25  1  0  0  0  0
 25 26  2  0  0  0  0
 25 43  1  0  0  0  0
 26 27  1  0  0  0  0
 26 44  1  0  0  0  0
 27 28  1  0  0  0  0
 28 45  1  0  0  0  0
 28 46  1  0  0  0  0
 28 47  1  0  0  0  0
M  END
$$$$
