
 OpenBabel07202414183D

 38 42  0  0  1  0  0  0  0  0999 V2000
    2.5752   -0.2180   -3.7276 F   0  0  0  0  0  0  0  0  0  0  0  0
    3.4804   -0.1075   -2.7471 C   0  0  0  0  0  0  0  0  0  0  0  0
    3.9285    1.1424   -2.3715 C   0  0  0  0  0  0  0  0  0  0  0  0
    4.8877    1.2350   -1.3695 C   0  0  0  0  0  0  0  0  0  0  0  0
    5.3560    0.0799   -0.7081 C   0  0  0  0  0  0  0  0  0  0  0  0
    6.3118    0.1894    0.2956 C   0  0  0  0  0  0  0  0  0  0  0  0
    6.8078   -0.8520    0.9907 N   0  0  0  0  0  0  0  0  0  0  0  0
    6.3037   -2.0764    0.7076 C   0  0  0  0  0  0  0  0  0  0  0  0
    5.3034   -2.3320   -0.2393 C   0  0  0  0  0  0  0  0  0  0  0  0
    4.5851   -3.5954   -0.1986 N   0  0  0  0  0  0  0  0  0  0  0  0
    4.8570   -4.6142    0.7051 C   0  0  0  0  0  0  0  0  0  0  0  0
    5.9334   -5.0335    1.1024 O   0  0  0  0  0  0  0  0  0  0  0  0
    3.6241   -5.0469    1.2526 N   0  0  0  0  0  0  0  0  0  0  0  0
    2.7085   -3.9535    1.0785 C   0  0  3  0  0  0  0  0  0  0  0  0
    2.9965   -2.7932    2.0722 C   0  0  0  0  0  0  0  0  0  0  0  0
    1.8584   -2.5942    2.9256 O   0  0  0  0  0  0  0  0  0  0  0  0
    0.8376   -3.1664    2.2190 C   0  0  0  0  0  0  0  0  0  0  0  0
   -0.4732   -2.7856    2.4087 C   0  0  0  0  0  0  0  0  0  0  0  0
   -1.4334   -3.3273    1.5613 C   0  0  0  0  0  0  0  0  0  0  0  0
   -1.0612   -4.2731    0.5927 C   0  0  0  0  0  0  0  0  0  0  0  0
   -2.2746   -4.9143   -0.4485 Cl  0  0  0  0  0  0  0  0  0  0  0  0
    0.2776   -4.6557    0.4211 C   0  0  0  0  0  0  0  0  0  0  0  0
    1.2394   -4.0600    1.2269 C   0  0  0  0  0  0  0  0  0  0  0  0
    3.2149   -3.5910   -0.3012 C   0  0  0  0  0  0  0  0  0  0  0  0
    2.5446   -3.6078   -1.3252 O   0  0  0  0  0  0  0  0  0  0  0  0
    4.8631   -1.2123   -1.0293 C   0  0  0  0  0  0  0  0  0  0  0  0
    3.9588   -1.2576   -2.1220 C   0  0  0  0  0  0  0  0  0  0  0  0
    3.5475    2.0262   -2.8727 H   0  0  0  0  0  0  0  0  0  0  0  0
    5.2641    2.2204   -1.1000 H   0  0  0  0  0  0  0  0  0  0  0  0
    6.7229    1.1559    0.5805 H   0  0  0  0  0  0  0  0  0  0  0  0
    6.7040   -2.8430    1.3657 H   0  0  0  0  0  0  0  0  0  0  0  0
    3.6590   -5.6203    2.0856 H   0  0  0  0  0  0  0  0  0  0  0  0
    3.1696   -1.8413    1.5576 H   0  0  0  0  0  0  0  0  0  0  0  0
    3.8642   -2.9949    2.7130 H   0  0  0  0  0  0  0  0  0  0  0  0
   -0.7261   -2.0303    3.1462 H   0  0  0  0  0  0  0  0  0  0  0  0
   -2.4638   -2.9899    1.6394 H   0  0  0  0  0  0  0  0  0  0  0  0
    0.5545   -5.3216   -0.3922 H   0  0  0  0  0  0  0  0  0  0  0  0
    3.6149   -2.1955   -2.5421 H   0  0  0  0  0  0  0  0  0  0  0  0
  1  2  1  0  0  0  0
  2  3  1  0  0  0  0
  2 27  2  0  0  0  0
  3  4  2  0  0  0  0
  3 28  1  0  0  0  0
  4  5  1  0  0  0  0
  4 29  1  0  0  0  0
  5  6  1  0  0  0  0
  5 26  2  0  0  0  0
  6  7  2  0  0  0  0
  6 30  1  0  0  0  0
  7  8  1  0  0  0  0
  8  9  2  0  0  0  0
  8 31  1  0  0  0  0
  9 10  1  0  0  0  0
  9 26  1  0  0  0  0
 10 11  1  0  0  0  0
 10 24  1  0  0  0  0
 11 12  2  0  0  0  0
 11 13  1  0  0  0  0
 13 14  1  0  0  0  0
 13 32  1  0  0  0  0
 14 15  1  0  0  0  0
 14 23  1  0  0  0  0
 14 24  1  0  0  0  0
 15 16  1  0  0  0  0
 15 33  1  0  0  0  0
 15 34  1  0  0  0  0
 16 17  1  0  0  0  0
 17 18  1  0  0  0  0
 17 23  2  0  0  0  0
 18 19  2  0  0  0  0
 18 35  1  0  0  0  0
 19 20  1  0  0  0  0
 19 36  1  0  0  0  0
 20 21  1  0  0  0  0
 20 22  2  0  0  0  0
 22 23  1  0  0  0  0
 22 37  1  0  0  0  0
 24 25  2  0  0  0  0
 26 27  1  0  0  0  0
 27 38  1  0  0  0  0
M  END
$$$$
