
 OpenBabel07202414193D

 40 43  0  0  1  0  0  0  0  0999 V2000
    2.4124   -0.5002   -0.0822 O   0  0  0  0  0  0  0  0  0  0  0  0
    1.2073   -0.4291   -0.1181 C   0  0  0  0  0  0  0  0  0  0  0  0
    0.4372    0.8547    0.0763 C   0  0  0  0  0  0  0  0  0  0  0  0
   -0.9773    0.5357   -0.3813 C   0  0  1  0  0  0  0  0  0  0  0  0
   -1.3874    0.9781   -1.7977 C   0  0  0  0  0  0  0  0  0  0  0  0
   -1.3966    2.4529   -2.0972 C   0  0  0  0  0  0  0  0  0  0  0  0
   -0.6006    2.9501   -3.1387 C   0  0  0  0  0  0  0  0  0  0  0  0
   -0.6629    4.2951   -3.5026 C   0  0  0  0  0  0  0  0  0  0  0  0
   -1.5322    5.1563   -2.8386 C   0  0  0  0  0  0  0  0  0  0  0  0
   -2.3387    4.6722   -1.8101 C   0  0  0  0  0  0  0  0  0  0  0  0
   -2.2701    3.3273   -1.4367 C   0  0  0  0  0  0  0  0  0  0  0  0
   -1.0606   -0.9282   -0.3141 N   0  0  0  0  0  0  0  0  0  0  0  0
    0.2410   -1.4414   -0.2212 N   0  0  0  0  0  0  0  0  0  0  0  0
    0.4730   -2.8538   -0.1357 C   0  0  0  0  0  0  0  0  0  0  0  0
    1.7764   -3.3588   -0.2375 C   0  0  0  0  0  0  0  0  0  0  0  0
    2.1224   -4.6588   -0.0711 N   0  0  0  0  0  0  0  0  0  0  0  0
    1.1068   -5.5309    0.0642 C   0  0  0  0  0  0  0  0  0  0  0  0
   -0.2405   -5.1903   -0.0281 C   0  0  0  0  0  0  0  0  0  0  0  0
   -1.2327   -6.1811   -0.1704 C   0  0  0  0  0  0  0  0  0  0  0  0
   -2.5823   -5.8361   -0.2446 C   0  0  0  0  0  0  0  0  0  0  0  0
   -2.9559   -4.5292   -0.0069 C   0  0  0  0  0  0  0  0  0  0  0  0
   -1.9703   -3.5572    0.1661 C   0  0  0  0  0  0  0  0  0  0  0  0
   -0.5820   -3.8217   -0.0006 C   0  0  0  0  0  0  0  0  0  0  0  0
    0.9077    1.6861   -0.4496 H   0  0  0  0  0  0  0  0  0  0  0  0
    0.4439    1.0490    1.1583 H   0  0  0  0  0  0  0  0  0  0  0  0
   -1.6908    0.9541    0.3372 H   0  0  0  0  0  0  0  0  0  0  0  0
   -2.4154    0.6267   -1.9772 H   0  0  0  0  0  0  0  0  0  0  0  0
   -0.7725    0.4540   -2.5428 H   0  0  0  0  0  0  0  0  0  0  0  0
    0.0569    2.2861   -3.6961 H   0  0  0  0  0  0  0  0  0  0  0  0
   -0.0451    4.6651   -4.3166 H   0  0  0  0  0  0  0  0  0  0  0  0
   -1.5898    6.2012   -3.1323 H   0  0  0  0  0  0  0  0  0  0  0  0
   -3.0353    5.3414   -1.3111 H   0  0  0  0  0  0  0  0  0  0  0  0
   -2.9316    2.9663   -0.6522 H   0  0  0  0  0  0  0  0  0  0  0  0
   -1.4668   -1.3009   -1.1788 H   0  0  0  0  0  0  0  0  0  0  0  0
    2.6256   -2.7319   -0.4973 H   0  0  0  0  0  0  0  0  0  0  0  0
    1.4170   -6.5546    0.2604 H   0  0  0  0  0  0  0  0  0  0  0  0
   -0.9560   -7.2244   -0.2864 H   0  0  0  0  0  0  0  0  0  0  0  0
   -3.3370   -6.5880   -0.4523 H   0  0  0  0  0  0  0  0  0  0  0  0
   -4.0033   -4.2442    0.0353 H   0  0  0  0  0  0  0  0  0  0  0  0
   -2.3291   -2.5719    0.4407 H   0  0  0  0  0  0  0  0  0  0  0  0
  1  2  2  0  0  0  0
  2  3  1  0  0  0  0
  2 13  1  0  0  0  0
  3  4  1  0  0  0  0
  3 24  1  0  0  0  0
  3 25  1  0  0  0  0
  4  5  1  0  0  0  0
  4 12  1  0  0  0  0
  4 26  1  1  0  0  0
  5  6  1  0  0  0  0
  5 27  1  0  0  0  0
  5 28  1  0  0  0  0
  6  7  1  0  0  0  0
  6 11  2  0  0  0  0
  7  8  2  0  0  0  0
  7 29  1  0  0  0  0
  8  9  1  0  0  0  0
  8 30  1  0  0  0  0
  9 10  2  0  0  0  0
  9 31  1  0  0  0  0
 10 11  1  0  0  0  0
 10 32  1  0  0  0  0
 11 33  1  0  0  0  0
 12 13  1  0  0  0  0
 12 34  1  0  0  0  0
 13 14  1  0  0  0  0
 14 15  1  0  0  0  0
 14 23  2  0  0  0  0
 15 16  2  0  0  0  0
 15 35  1  0  0  0  0
 16 17  1  0  0  0  0
 17 18  2  0  0  0  0
 17 36  1  0  0  0  0
 18 19  1  0  0  0  0
 18 23  1  0  0  0  0
 19 20  2  0  0  0  0
 19 37  1  0  0  0  0
 20 21  1  0  0  0  0
 20 38  1  0  0  0  0
 21 22  2  0  0  0  0
 21 39  1  0  0  0  0
 22 23  1  0  0  0  0
 22 40  1  0  0  0  0
M  END
$$$$
