
 OpenBabel07202414133D

 49 52  0  0  0  0  0  0  0  0999 V2000
    7.3380   -5.0377   -3.2864 C   0  0  0  0  0  0  0  0  0  0  0  0
    7.2516   -3.7126   -2.5805 C   0  0  0  0  0  0  0  0  0  0  0  0
    8.3539   -2.9419   -2.1723 C   0  0  0  0  0  0  0  0  0  0  0  0
   10.3484   -3.4978   -2.5001 I   0  0  0  0  0  0  0  0  0  0  0  0
    8.1532   -1.7166   -1.5092 C   0  0  0  0  0  0  0  0  0  0  0  0
    6.8657   -1.2312   -1.2641 C   0  0  0  0  0  0  0  0  0  0  0  0
    6.6380   -0.0212   -0.5666 N   0  0  0  0  0  0  0  0  0  0  0  0
    7.4194    1.1518   -0.6226 C   0  0  0  0  0  0  0  0  0  0  0  0
    7.5014    2.0004    0.4857 C   0  0  0  0  0  0  0  0  0  0  0  0
    8.2405    3.1812    0.4121 C   0  0  0  0  0  0  0  0  0  0  0  0
    8.3587    4.1972    1.7969 Cl  0  0  0  0  0  0  0  0  0  0  0  0
    8.8911    3.5475   -0.7672 C   0  0  0  0  0  0  0  0  0  0  0  0
    8.7940    2.7321   -1.8993 C   0  0  0  0  0  0  0  0  0  0  0  0
    9.5016    3.0894   -3.1865 C   0  0  0  0  0  0  0  0  0  0  0  0
    8.6018    3.0989   -4.4291 C   0  0  0  0  0  0  0  0  0  0  0  0
    8.9477    2.5172   -5.4512 O   0  0  0  0  0  0  0  0  0  0  0  0
    7.4747    3.8883   -4.2810 N   0  0  0  0  0  0  0  0  0  0  0  0
    6.6141    4.1689   -5.3665 C   0  0  0  0  0  0  0  0  0  0  0  0
    6.3938    5.5140   -5.6743 C   0  0  0  0  0  0  0  0  0  0  0  0
    5.6105    5.9582   -6.6781 N   0  0  0  0  0  0  0  0  0  0  0  0
    4.9225    5.0105   -7.3484 C   0  0  0  0  0  0  0  0  0  0  0  0
    4.9434    3.6488   -7.0467 C   0  0  0  0  0  0  0  0  0  0  0  0
    4.0350    2.7635   -7.6507 C   0  0  0  0  0  0  0  0  0  0  0  0
    4.0308    1.4112   -7.3169 C   0  0  0  0  0  0  0  0  0  0  0  0
    4.9891    0.9200   -6.4400 C   0  0  0  0  0  0  0  0  0  0  0  0
    5.8935    1.7940   -5.8271 C   0  0  0  0  0  0  0  0  0  0  0  0
    5.8631    3.1907   -6.0729 C   0  0  0  0  0  0  0  0  0  0  0  0
    8.0581    1.5400   -1.8102 C   0  0  0  0  0  0  0  0  0  0  0  0
    5.7729   -2.0025   -1.6514 C   0  0  0  0  0  0  0  0  0  0  0  0
    5.9640   -3.2178   -2.3087 C   0  0  0  0  0  0  0  0  0  0  0  0
    8.3514   -5.4209   -3.3923 H   0  0  0  0  0  0  0  0  0  0  0  0
    6.9099   -4.9461   -4.2905 H   0  0  0  0  0  0  0  0  0  0  0  0
    6.7704   -5.7909   -2.7277 H   0  0  0  0  0  0  0  0  0  0  0  0
    9.0130   -1.1407   -1.1773 H   0  0  0  0  0  0  0  0  0  0  0  0
    6.2802   -0.2187    0.3665 H   0  0  0  0  0  0  0  0  0  0  0  0
    6.9978    1.7399    1.4134 H   0  0  0  0  0  0  0  0  0  0  0  0
    9.4713    4.4679   -0.7952 H   0  0  0  0  0  0  0  0  0  0  0  0
   10.3026    2.3589   -3.3461 H   0  0  0  0  0  0  0  0  0  0  0  0
    9.9760    4.0744   -3.1114 H   0  0  0  0  0  0  0  0  0  0  0  0
    7.5571    4.6111   -3.5808 H   0  0  0  0  0  0  0  0  0  0  0  0
    6.8872    6.3047   -5.1159 H   0  0  0  0  0  0  0  0  0  0  0  0
    4.3066    5.3959   -8.1574 H   0  0  0  0  0  0  0  0  0  0  0  0
    3.2828    3.1349   -8.3446 H   0  0  0  0  0  0  0  0  0  0  0  0
    3.2887    0.7453   -7.7469 H   0  0  0  0  0  0  0  0  0  0  0  0
    5.0199   -0.1410   -6.2074 H   0  0  0  0  0  0  0  0  0  0  0  0
    6.6167    1.3716   -5.1318 H   0  0  0  0  0  0  0  0  0  0  0  0
    7.9699    0.9050   -2.6903 H   0  0  0  0  0  0  0  0  0  0  0  0
    4.7631   -1.6467   -1.4645 H   0  0  0  0  0  0  0  0  0  0  0  0
    5.0879   -3.7850   -2.6233 H   0  0  0  0  0  0  0  0  0  0  0  0
  1  2  1  0  0  0  0
  1 31  1  0  0  0  0
  1 32  1  0  0  0  0
  1 33  1  0  0  0  0
  2  3  2  0  0  0  0
  2 30  1  0  0  0  0
  3  4  1  0  0  0  0
  3  5  1  0  0  0  0
  5  6  2  0  0  0  0
  5 34  1  0  0  0  0
  6  7  1  0  0  0  0
  6 29  1  0  0  0  0
  7  8  1  0  0  0  0
  7 35  1  0  0  0  0
  8  9  2  0  0  0  0
  8 28  1  0  0  0  0
  9 10  1  0  0  0  0
  9 36  1  0  0  0  0
 10 11  1  0  0  0  0
 10 12  2  0  0  0  0
 12 13  1  0  0  0  0
 12 37  1  0  0  0  0
 13 14  1  0  0  0  0
 13 28  2  0  0  0  0
 14 15  1  0  0  0  0
 14 38  1  0  0  0  0
 14 39  1  0  0  0  0
 15 16  2  0  0  0  0
 15 17  1  0  0  0  0
 17 18  1  0  0  0  0
 17 40  1  0  0  0  0
 18 19  2  0  0  0  0
 18 27  1  0  0  0  0
 19 20  1  0  0  0  0
 19 41  1  0  0  0  0
 20 21  2  0  0  0  0
 21 22  1  0  0  0  0
 21 42  1  0  0  0  0
 22 23  2  0  0  0  0
 22 27  1  0  0  0  0
 23 24  1  0  0  0  0
 23 43  1  0  0  0  0
 24 25  2  0  0  0  0
 24 44  1  0  0  0  0
 25 26  1  0  0  0  0
 25 45  1  0  0  0  0
 26 27  2  0  0  0  0
 26 46  1  0  0  0  0
 28 47  1  0  0  0  0
 29 30  2  0  0  0  0
 29 48  1  0  0  0  0
 30 49  1  0  0  0  0
M  END
$$$$
