
 OpenBabel07202414163D

 40 42  0  0  0  0  0  0  0  0999 V2000
    2.1221   -3.2137   -3.0953 C   0  0  0  0  0  0  0  0  0  0  0  0
    3.3842   -2.6464   -2.5225 C   0  0  0  0  0  0  0  0  0  0  0  0
    4.4089   -2.2744   -3.4287 C   0  0  0  0  0  0  0  0  0  0  0  0
    5.6313   -1.7349   -2.9926 C   0  0  0  0  0  0  0  0  0  0  0  0
    5.8790   -1.5450   -1.6432 C   0  0  0  0  0  0  0  0  0  0  0  0
    4.8669   -1.9105   -0.7744 C   0  0  0  0  0  0  0  0  0  0  0  0
    3.6303   -2.4517   -1.1647 C   0  0  0  0  0  0  0  0  0  0  0  0
    2.8374   -2.6983   -0.0148 N   0  0  0  0  0  0  0  0  0  0  0  0
    3.5213   -2.3468    1.1455 C   0  0  0  0  0  0  0  0  0  0  0  0
    3.1776   -2.4442    2.3046 O   0  0  0  0  0  0  0  0  0  0  0  0
    4.8841   -1.8091    0.6812 C   0  0  0  0  0  0  0  0  0  0  0  0
    5.7843   -1.3953    1.3715 O   0  0  0  0  0  0  0  0  0  0  0  0
    1.5052   -3.2616    0.0485 C   0  0  0  0  0  0  0  0  0  0  0  0
    1.4561   -4.7750    0.0517 C   0  0  0  0  0  0  0  0  0  0  0  0
    2.4206   -5.5466    0.7019 C   0  0  0  0  0  0  0  0  0  0  0  0
    2.3561   -6.9433    0.6833 C   0  0  0  0  0  0  0  0  0  0  0  0
    1.3132   -7.6150    0.0328 C   0  0  0  0  0  0  0  0  0  0  0  0
    0.2953   -6.8539   -0.5671 C   0  0  0  0  0  0  0  0  0  0  0  0
    0.3763   -5.4476   -0.5420 C   0  0  0  0  0  0  0  0  0  0  0  0
   -0.8321   -7.2957   -1.2143 O   0  0  0  0  0  0  0  0  0  0  0  0
   -1.0473   -8.6948   -1.3391 C   0  0  0  0  0  0  0  0  0  0  0  0
    1.2419   -8.9797   -0.0374 O   0  0  0  0  0  0  0  0  0  0  0  0
    2.3085   -9.7422    0.5115 C   0  0  0  0  0  0  0  0  0  0  0  0
    6.9509   -1.2652   -4.2622 Br  0  0  0  0  0  0  0  0  0  0  0  0
    2.1792   -3.2980   -4.1865 H   0  0  0  0  0  0  0  0  0  0  0  0
    1.2720   -2.5624   -2.8761 H   0  0  0  0  0  0  0  0  0  0  0  0
    1.9468   -4.2213   -2.7142 H   0  0  0  0  0  0  0  0  0  0  0  0
    4.2510   -2.4090   -4.4993 H   0  0  0  0  0  0  0  0  0  0  0  0
    6.8122   -1.1312   -1.2745 H   0  0  0  0  0  0  0  0  0  0  0  0
    0.9078   -2.8463   -0.7667 H   0  0  0  0  0  0  0  0  0  0  0  0
    1.0276   -2.9180    0.9749 H   0  0  0  0  0  0  0  0  0  0  0  0
    3.2402   -5.0801    1.2427 H   0  0  0  0  0  0  0  0  0  0  0  0
    3.1468   -7.4784    1.1991 H   0  0  0  0  0  0  0  0  0  0  0  0
   -0.4285   -4.8783   -1.0061 H   0  0  0  0  0  0  0  0  0  0  0  0
   -1.9961   -8.8403   -1.8653 H   0  0  0  0  0  0  0  0  0  0  0  0
   -1.1490   -9.1756   -0.3606 H   0  0  0  0  0  0  0  0  0  0  0  0
   -0.2676   -9.1611   -1.9500 H   0  0  0  0  0  0  0  0  0  0  0  0
    2.1117  -10.7959    0.2916 H   0  0  0  0  0  0  0  0  0  0  0  0
    2.3467   -9.6302    1.5997 H   0  0  0  0  0  0  0  0  0  0  0  0
    3.2666   -9.4827    0.0491 H   0  0  0  0  0  0  0  0  0  0  0  0
  1  2  1  0  0  0  0
  1 25  1  0  0  0  0
  1 26  1  0  0  0  0
  1 27  1  0  0  0  0
  2  3  1  0  0  0  0
  2  7  2  0  0  0  0
  3  4  2  0  0  0  0
  3 28  1  0  0  0  0
  4  5  1  0  0  0  0
  4 24  1  0  0  0  0
  5  6  2  0  0  0  0
  5 29  1  0  0  0  0
  6  7  1  0  0  0  0
  6 11  1  0  0  0  0
  7  8  1  0  0  0  0
  8  9  1  0  0  0  0
  8 13  1  0  0  0  0
  9 10  2  0  0  0  0
  9 11  1  0  0  0  0
 11 12  2  0  0  0  0
 13 14  1  0  0  0  0
 13 30  1  0  0  0  0
 13 31  1  0  0  0  0
 14 15  1  0  0  0  0
 14 19  2  0  0  0  0
 15 16  2  0  0  0  0
 15 32  1  0  0  0  0
 16 17  1  0  0  0  0
 16 33  1  0  0  0  0
 17 18  2  0  0  0  0
 17 22  1  0  0  0  0
 18 19  1  0  0  0  0
 18 20  1  0  0  0  0
 19 34  1  0  0  0  0
 20 21  1  0  0  0  0
 21 35  1  0  0  0  0
 21 36  1  0  0  0  0
 21 37  1  0  0  0  0
 22 23  1  0  0  0  0
 23 38  1  0  0  0  0
 23 39  1  0  0  0  0
 23 40  1  0  0  0  0
M  END
$$$$
