
 OpenBabel07202414183D

 34 36  0  0  0  0  0  0  0  0999 V2000
    2.5347    1.3442   -5.3009 Cl  0  0  0  0  0  0  0  0  0  0  0  0
    2.3849    0.7921   -3.6745 C   0  0  0  0  0  0  0  0  0  0  0  0
    1.6241    1.5327   -2.7748 C   0  0  0  0  0  0  0  0  0  0  0  0
    1.4974    1.0864   -1.4657 C   0  0  0  0  0  0  0  0  0  0  0  0
    2.1497   -0.0788   -1.0552 C   0  0  0  0  0  0  0  0  0  0  0  0
    2.9540   -0.8096   -1.9420 C   0  0  0  0  0  0  0  0  0  0  0  0
    3.6883   -1.9588   -1.5353 N   0  0  0  0  0  0  0  0  0  0  0  0
    3.9539   -2.3125   -0.2200 C   0  0  0  0  0  0  0  0  0  0  0  0
    3.6265   -1.6682    0.7792 O   0  0  0  0  0  0  0  0  0  0  0  0
    4.7571   -3.5898   -0.0455 C   0  0  0  0  0  0  0  0  0  0  0  0
    6.2598   -3.4058    0.0281 C   0  0  0  0  0  0  0  0  0  0  0  0
    6.8101   -2.2024    0.4789 C   0  0  0  0  0  0  0  0  0  0  0  0
    8.1326   -1.9404    0.5450 N   0  0  0  0  0  0  0  0  0  0  0  0
    8.9659   -2.9349    0.1825 C   0  0  0  0  0  0  0  0  0  0  0  0
    8.5517   -4.2025   -0.2179 C   0  0  0  0  0  0  0  0  0  0  0  0
    9.4874   -5.2016   -0.5390 C   0  0  0  0  0  0  0  0  0  0  0  0
    9.0652   -6.4740   -0.9109 C   0  0  0  0  0  0  0  0  0  0  0  0
    7.7071   -6.7589   -0.9631 C   0  0  0  0  0  0  0  0  0  0  0  0
    6.7689   -5.7680   -0.6543 C   0  0  0  0  0  0  0  0  0  0  0  0
    7.1618   -4.4595   -0.2851 C   0  0  0  0  0  0  0  0  0  0  0  0
    3.0417   -0.3806   -3.2733 C   0  0  0  0  0  0  0  0  0  0  0  0
    1.1289    2.4496   -3.0827 H   0  0  0  0  0  0  0  0  0  0  0  0
    0.9015    1.6432   -0.7492 H   0  0  0  0  0  0  0  0  0  0  0  0
    2.0012   -0.3955   -0.0299 H   0  0  0  0  0  0  0  0  0  0  0  0
    4.1567   -2.4749   -2.2656 H   0  0  0  0  0  0  0  0  0  0  0  0
    4.4817   -4.2609   -0.8679 H   0  0  0  0  0  0  0  0  0  0  0  0
    4.4183   -4.0632    0.8834 H   0  0  0  0  0  0  0  0  0  0  0  0
    6.1912   -1.3743    0.8189 H   0  0  0  0  0  0  0  0  0  0  0  0
   10.0203   -2.6777    0.2372 H   0  0  0  0  0  0  0  0  0  0  0  0
   10.5547   -4.9940   -0.4908 H   0  0  0  0  0  0  0  0  0  0  0  0
    9.7962   -7.2428   -1.1500 H   0  0  0  0  0  0  0  0  0  0  0  0
    7.3721   -7.7554   -1.2406 H   0  0  0  0  0  0  0  0  0  0  0  0
    5.7199   -6.0484   -0.6923 H   0  0  0  0  0  0  0  0  0  0  0  0
    3.6410   -0.9216   -3.9972 H   0  0  0  0  0  0  0  0  0  0  0  0
  1  2  1  0  0  0  0
  2  3  1  0  0  0  0
  2 21  2  0  0  0  0
  3  4  2  0  0  0  0
  3 22  1  0  0  0  0
  4  5  1  0  0  0  0
  4 23  1  0  0  0  0
  5  6  2  0  0  0  0
  5 24  1  0  0  0  0
  6  7  1  0  0  0  0
  6 21  1  0  0  0  0
  7  8  1  0  0  0  0
  7 25  1  0  0  0  0
  8  9  2  0  0  0  0
  8 10  1  0  0  0  0
 10 11  1  0  0  0  0
 10 26  1  0  0  0  0
 10 27  1  0  0  0  0
 11 12  1  0  0  0  0
 11 20  2  0  0  0  0
 12 13  2  0  0  0  0
 12 28  1  0  0  0  0
 13 14  1  0  0  0  0
 14 15  2  0  0  0  0
 14 29  1  0  0  0  0
 15 16  1  0  0  0  0
 15 20  1  0  0  0  0
 16 17  2  0  0  0  0
 16 30  1  0  0  0  0
 17 18  1  0  0  0  0
 17 31  1  0  0  0  0
 18 19  2  0  0  0  0
 18 32  1  0  0  0  0
 19 20  1  0  0  0  0
 19 33  1  0  0  0  0
 21 34  1  0  0  0  0
M  END
$$$$
