
 OpenBabel07202414143D

 60 64  0  0  0  0  0  0  0  0999 V2000
    2.1425   -1.5408   -1.1099 C   0  0  0  0  0  0  0  0  0  0  0  0
    2.9115   -0.3595   -0.7155 N   0  0  0  0  0  0  0  0  0  0  0  0
    3.0320    0.6993   -1.6407 N   0  0  0  0  0  0  0  0  0  0  0  0
    1.9381    1.2622   -2.3237 C   0  0  0  0  0  0  0  0  0  0  0  0
    2.1284    1.7891   -3.6076 C   0  0  0  0  0  0  0  0  0  0  0  0
    1.0418    2.2664   -4.3433 C   0  0  0  0  0  0  0  0  0  0  0  0
   -0.2349    2.2592   -3.7841 C   0  0  0  0  0  0  0  0  0  0  0  0
   -0.4284    1.7726   -2.4924 C   0  0  0  0  0  0  0  0  0  0  0  0
    0.6532    1.2673   -1.7684 C   0  0  0  0  0  0  0  0  0  0  0  0
    4.2162    1.3905   -1.3709 C   0  0  0  0  0  0  0  0  0  0  0  0
    4.6543    2.4341   -1.8324 O   0  0  0  0  0  0  0  0  0  0  0  0
    4.9540    0.5832   -0.3361 C   0  0  0  0  0  0  0  0  0  0  0  0
    6.2069    0.9631    0.0950 N   0  0  0  0  0  0  0  0  0  0  0  0
    7.3499    0.1491   -0.0881 C   0  0  0  0  0  0  0  0  0  0  0  0
    7.5136   -0.6772   -1.2134 C   0  0  0  0  0  0  0  0  0  0  0  0
    8.6901   -1.4199   -1.4051 C   0  0  0  0  0  0  0  0  0  0  0  0
    8.8542   -2.3129   -2.6176 C   0  0  0  0  0  0  0  0  0  0  0  0
    8.4239   -3.7721   -2.4817 C   0  0  0  0  0  0  0  0  0  0  0  0
    8.2919   -4.4746   -3.4825 O   0  0  0  0  0  0  0  0  0  0  0  0
    8.2255   -4.2211   -1.1908 N   0  0  0  0  0  0  0  0  0  0  0  0
    7.7856   -5.5361   -0.8975 C   0  0  0  0  0  0  0  0  0  0  0  0
    6.5787   -5.6642   -0.2095 C   0  0  0  0  0  0  0  0  0  0  0  0
    6.0693   -6.8269    0.2413 N   0  0  0  0  0  0  0  0  0  0  0  0
    6.8760   -7.9012    0.1243 C   0  0  0  0  0  0  0  0  0  0  0  0
    8.1639   -7.8716   -0.4127 C   0  0  0  0  0  0  0  0  0  0  0  0
    9.0334   -8.9649   -0.2587 C   0  0  0  0  0  0  0  0  0  0  0  0
   10.3096   -8.9393   -0.8122 C   0  0  0  0  0  0  0  0  0  0  0  0
   10.6915   -7.8601   -1.5997 C   0  0  0  0  0  0  0  0  0  0  0  0
    9.8522   -6.7451   -1.7154 C   0  0  0  0  0  0  0  0  0  0  0  0
    8.5996   -6.6898   -1.0543 C   0  0  0  0  0  0  0  0  0  0  0  0
    9.7118   -1.3214   -0.4501 C   0  0  0  0  0  0  0  0  0  0  0  0
    9.5667   -0.4734    0.6490 C   0  0  0  0  0  0  0  0  0  0  0  0
   10.8381   -0.3513    1.8022 Cl  0  0  0  0  0  0  0  0  0  0  0  0
    8.4039    0.2721    0.8218 C   0  0  0  0  0  0  0  0  0  0  0  0
    4.1459   -0.4550   -0.0793 C   0  0  0  0  0  0  0  0  0  0  0  0
    4.4939   -1.6409    0.7723 C   0  0  0  0  0  0  0  0  0  0  0  0
    1.3192   -1.3143   -1.7897 H   0  0  0  0  0  0  0  0  0  0  0  0
    1.6983   -1.9935   -0.2157 H   0  0  0  0  0  0  0  0  0  0  0  0
    2.7766   -2.2885   -1.5974 H   0  0  0  0  0  0  0  0  0  0  0  0
    3.1160    1.7860   -4.0615 H   0  0  0  0  0  0  0  0  0  0  0  0
    1.1921    2.6354   -5.3548 H   0  0  0  0  0  0  0  0  0  0  0  0
   -1.0794    2.6368   -4.3546 H   0  0  0  0  0  0  0  0  0  0  0  0
   -1.4196    1.7875   -2.0472 H   0  0  0  0  0  0  0  0  0  0  0  0
    0.4930    0.9040   -0.7564 H   0  0  0  0  0  0  0  0  0  0  0  0
    6.4061    1.9062   -0.2572 H   0  0  0  0  0  0  0  0  0  0  0  0
    6.7245   -0.7258   -1.9625 H   0  0  0  0  0  0  0  0  0  0  0  0
    9.9088   -2.3146   -2.9191 H   0  0  0  0  0  0  0  0  0  0  0  0
    8.2910   -1.8769   -3.4524 H   0  0  0  0  0  0  0  0  0  0  0  0
    7.8780   -3.5087   -0.5589 H   0  0  0  0  0  0  0  0  0  0  0  0
    5.9604   -4.7974    0.0019 H   0  0  0  0  0  0  0  0  0  0  0  0
    6.4492   -8.8259    0.5053 H   0  0  0  0  0  0  0  0  0  0  0  0
    8.7391   -9.8186    0.3491 H   0  0  0  0  0  0  0  0  0  0  0  0
   10.9974   -9.7622   -0.6349 H   0  0  0  0  0  0  0  0  0  0  0  0
   11.6560   -7.8711   -2.1014 H   0  0  0  0  0  0  0  0  0  0  0  0
   10.1892   -5.9121   -2.3271 H   0  0  0  0  0  0  0  0  0  0  0  0
   10.6290   -1.8952   -0.5675 H   0  0  0  0  0  0  0  0  0  0  0  0
    8.3021    0.9348    1.6784 H   0  0  0  0  0  0  0  0  0  0  0  0
    5.4392   -1.5084    1.3070 H   0  0  0  0  0  0  0  0  0  0  0  0
    4.6001   -2.5322    0.1430 H   0  0  0  0  0  0  0  0  0  0  0  0
    3.7156   -1.8329    1.5156 H   0  0  0  0  0  0  0  0  0  0  0  0
  1  2  1  0  0  0  0
  1 37  1  0  0  0  0
  1 38  1  0  0  0  0
  1 39  1  0  0  0  0
  2  3  1  0  0  0  0
  2 35  1  0  0  0  0
  3  4  1  0  0  0  0
  3 10  1  0  0  0  0
  4  5  2  0  0  0  0
  4  9  1  0  0  0  0
  5  6  1  0  0  0  0
  5 40  1  0  0  0  0
  6  7  2  0  0  0  0
  6 41  1  0  0  0  0
  7  8  1  0  0  0  0
  7 42  1  0  0  0  0
  8  9  2  0  0  0  0
  8 43  1  0  0  0  0
  9 44  1  0  0  0  0
 10 11  2  0  0  0  0
 10 12  1  0  0  0  0
 12 13  1  0  0  0  0
 12 35  2  0  0  0  0
 13 14  1  0  0  0  0
 13 45  1  0  0  0  0
 14 15  2  0  0  0  0
 14 34  1  0  0  0  0
 15 16  1  0  0  0  0
 15 46  1  0  0  0  0
 16 17  1  0  0  0  0
 16 31  2  0  0  0  0
 17 18  1  0  0  0  0
 17 47  1  0  0  0  0
 17 48  1  0  0  0  0
 18 19  2  0  0  0  0
 18 20  1  0  0  0  0
 20 21  1  0  0  0  0
 20 49  1  0  0  0  0
 21 22  2  0  0  0  0
 21 30  1  0  0  0  0
 22 23  1  0  0  0  0
 22 50  1  0  0  0  0
 23 24  2  0  0  0  0
 24 25  1  0  0  0  0
 24 51  1  0  0  0  0
 25 26  2  0  0  0  0
 25 30  1  0  0  0  0
 26 27  1  0  0  0  0
 26 52  1  0  0  0  0
 27 28  2  0  0  0  0
 27 53  1  0  0  0  0
 28 29  1  0  0  0  0
 28 54  1  0  0  0  0
 29 30  2  0  0  0  0
 29 55  1  0  0  0  0
 31 32  1  0  0  0  0
 31 56  1  0  0  0  0
 32 33  1  0  0  0  0
 32 34  2  0  0  0  0
 34 57  1  0  0  0  0
 35 36  1  0  0  0  0
 36 58  1  0  0  0  0
 36 59  1  0  0  0  0
 36 60  1  0  0  0  0
M  END
$$$$
