
 OpenBabel07202414123D

 60 62  0  0  1  0  0  0  0  0999 V2000
    9.6796   -2.0324   -3.1629 C   0  0  0  0  0  0  0  0  0  0  0  0
    8.7759   -3.1021   -3.8003 C   0  0  0  0  0  0  0  0  0  0  0  0
    9.2904   -3.4293   -5.2119 C   0  0  0  0  0  0  0  0  0  0  0  0
    8.8652   -4.3889   -2.9509 C   0  0  0  0  0  0  0  0  0  0  0  0
    7.3629   -2.5786   -3.8530 C   0  0  0  0  0  0  0  0  0  0  0  0
    6.6409   -1.7515   -4.6912 C   0  0  0  0  0  0  0  0  0  0  0  0
    5.3441   -1.6194   -4.0928 C   0  0  0  0  0  0  0  0  0  0  0  0
    5.3381   -2.3404   -2.9640 N   0  0  0  0  0  0  0  0  0  0  0  0
    6.5605   -2.9225   -2.8172 O   0  0  0  0  0  0  0  0  0  0  0  0
    4.2183   -0.8531   -4.5535 N   0  0  0  0  0  0  0  0  0  0  0  0
    4.3455   -0.0787   -5.8232 C   0  0  3  0  0  0  0  0  0  0  0  0
    3.3154   -0.3783   -6.9260 C   0  0  0  0  0  0  0  0  0  0  0  0
    2.4395   -1.4772   -6.8921 C   0  0  0  0  0  0  0  0  0  0  0  0
    1.4679   -1.6330   -7.8807 C   0  0  0  0  0  0  0  0  0  0  0  0
    1.4412   -0.7336   -8.9297 C   0  0  0  0  0  0  0  0  0  0  0  0
    2.3288    0.2750   -9.0620 N   0  0  0  0  0  0  0  0  0  0  0  0
    3.2440    0.4210   -8.0738 C   0  0  0  0  0  0  0  0  0  0  0  0
    0.3057   -2.8904   -7.7722 Cl  0  0  0  0  0  0  0  0  0  0  0  0
    4.6602    1.4490   -5.6514 C   0  0  0  0  0  0  0  0  0  0  0  0
    5.3079    2.0330   -6.5284 O   0  0  0  0  0  0  0  0  0  0  0  0
    4.0935    2.1770   -4.6167 N   0  0  0  0  0  0  0  0  0  0  0  0
    4.3637    3.6189   -4.5747 C   0  0  0  0  0  0  0  0  0  0  0  0
    3.6695    4.3985   -3.4516 C   0  0  0  0  0  0  0  0  0  0  0  0
    4.0171    5.8735   -3.5022 C   0  0  0  0  0  0  0  0  0  0  0  0
    3.1868    6.7946   -4.1723 C   0  0  0  0  0  0  0  0  0  0  0  0
    3.5284    8.1493   -4.2429 C   0  0  0  0  0  0  0  0  0  0  0  0
    4.7018    8.6095   -3.6555 C   0  0  0  0  0  0  0  0  0  0  0  0
    5.5296    7.7045   -2.9967 C   0  0  0  0  0  0  0  0  0  0  0  0
    5.1992    6.3538   -2.9171 C   0  0  0  0  0  0  0  0  0  0  0  0
    6.6658    8.1419   -2.4358 F   0  0  0  0  0  0  0  0  0  0  0  0
    3.0502   -0.9274   -3.7690 C   0  0  0  0  0  0  0  0  0  0  0  0
    2.8935   -1.6702   -2.7991 O   0  0  0  0  0  0  0  0  0  0  0  0
    1.8780   -0.0615   -4.1160 C   0  0  0  0  0  0  0  0  0  0  0  0
    0.7587   -0.1551   -3.3812 C   0  0  0  0  0  0  0  0  0  0  0  0
   10.7113   -2.3893   -3.0656 H   0  0  0  0  0  0  0  0  0  0  0  0
    9.3260   -1.7596   -2.1611 H   0  0  0  0  0  0  0  0  0  0  0  0
    9.6985   -1.1154   -3.7633 H   0  0  0  0  0  0  0  0  0  0  0  0
   10.3098   -3.8317   -5.1762 H   0  0  0  0  0  0  0  0  0  0  0  0
    9.3120   -2.5398   -5.8518 H   0  0  0  0  0  0  0  0  0  0  0  0
    8.6560   -4.1762   -5.7036 H   0  0  0  0  0  0  0  0  0  0  0  0
    9.8891   -4.7801   -2.9282 H   0  0  0  0  0  0  0  0  0  0  0  0
    8.2159   -5.1769   -3.3503 H   0  0  0  0  0  0  0  0  0  0  0  0
    8.5655   -4.2102   -1.9111 H   0  0  0  0  0  0  0  0  0  0  0  0
    7.0286   -1.3072   -5.5946 H   0  0  0  0  0  0  0  0  0  0  0  0
    5.2627   -0.4434   -6.3001 H   0  0  0  0  0  0  0  0  0  0  0  0
    2.4748   -2.2055   -6.0850 H   0  0  0  0  0  0  0  0  0  0  0  0
    0.6934   -0.7953   -9.7147 H   0  0  0  0  0  0  0  0  0  0  0  0
    3.9396    1.2363   -8.2632 H   0  0  0  0  0  0  0  0  0  0  0  0
    3.8886    1.7009   -3.7449 H   0  0  0  0  0  0  0  0  0  0  0  0
    4.0587    4.0343   -5.5446 H   0  0  0  0  0  0  0  0  0  0  0  0
    5.4505    3.7426   -4.5022 H   0  0  0  0  0  0  0  0  0  0  0  0
    3.9611    3.9943   -2.4745 H   0  0  0  0  0  0  0  0  0  0  0  0
    2.5816    4.2736   -3.5139 H   0  0  0  0  0  0  0  0  0  0  0  0
    2.2667    6.4589   -4.6462 H   0  0  0  0  0  0  0  0  0  0  0  0
    2.8763    8.8506   -4.7654 H   0  0  0  0  0  0  0  0  0  0  0  0
    4.9816    9.6564   -3.7072 H   0  0  0  0  0  0  0  0  0  0  0  0
    5.8777    5.6840   -2.3963 H   0  0  0  0  0  0  0  0  0  0  0  0
    1.9003    0.6223   -4.9487 H   0  0  0  0  0  0  0  0  0  0  0  0
    0.6849   -0.8370   -2.5346 H   0  0  0  0  0  0  0  0  0  0  0  0
   -0.1201    0.4370   -3.6078 H   0  0  0  0  0  0  0  0  0  0  0  0
  1  2  1  0  0  0  0
  1 35  1  0  0  0  0
  1 36  1  0  0  0  0
  1 37  1  0  0  0  0
  2  3  1  0  0  0  0
  2  4  1  0  0  0  0
  2  5  1  0  0  0  0
  3 38  1  0  0  0  0
  3 39  1  0  0  0  0
  3 40  1  0  0  0  0
  4 41  1  0  0  0  0
  4 42  1  0  0  0  0
  4 43  1  0  0  0  0
  5  6  2  0  0  0  0
  5  9  1  0  0  0  0
  6  7  1  0  0  0  0
  6 44  1  0  0  0  0
  7  8  2  0  0  0  0
  7 10  1  0  0  0  0
  8  9  1  0  0  0  0
 10 11  1  0  0  0  0
 10 31  1  0  0  0  0
 11 12  1  0  0  0  0
 11 19  1  0  0  0  0
 11 45  1  0  0  0  0
 12 13  1  0  0  0  0
 12 17  2  0  0  0  0
 13 14  2  0  0  0  0
 13 46  1  0  0  0  0
 14 15  1  0  0  0  0
 14 18  1  0  0  0  0
 15 16  2  0  0  0  0
 15 47  1  0  0  0  0
 16 17  1  0  0  0  0
 17 48  1  0  0  0  0
 19 20  2  0  0  0  0
 19 21  1  0  0  0  0
 21 22  1  0  0  0  0
 21 49  1  0  0  0  0
 22 23  1  0  0  0  0
 22 50  1  0  0  0  0
 22 51  1  0  0  0  0
 23 24  1  0  0  0  0
 23 52  1  0  0  0  0
 23 53  1  0  0  0  0
 24 25  1  0  0  0  0
 24 29  2  0  0  0  0
 25 26  2  0  0  0  0
 25 54  1  0  0  0  0
 26 27  1  0  0  0  0
 26 55  1  0  0  0  0
 27 28  2  0  0  0  0
 27 56  1  0  0  0  0
 28 29  1  0  0  0  0
 28 30  1  0  0  0  0
 29 57  1  0  0  0  0
 31 32  2  0  0  0  0
 31 33  1  0  0  0  0
 33 34  2  0  0  0  0
 33 58  1  0  0  0  0
 34 59  1  0  0  0  0
 34 60  1  0  0  0  0
M  END
$$$$
