
 OpenBabel07202414203D

 62 67  0  0  1  0  0  0  0  0999 V2000
    0.8980    0.0653    3.7192 O   0  0  0  0  0  0  0  0  0  0  0  0
    0.9449   -1.2353    4.3395 C   0  0  0  0  0  0  0  0  0  0  0  0
    2.1240   -2.1071    3.9703 C   0  0  0  0  0  0  0  0  0  0  0  0
    3.3866   -1.4498    4.2254 N   0  0  0  0  0  0  0  0  0  0  0  0
    3.8685   -0.4807    3.3809 C   0  0  0  0  0  0  0  0  0  0  0  0
    3.2650   -0.1599    2.3525 O   0  0  0  0  0  0  0  0  0  0  0  0
    5.2024    0.1561    3.7524 C   0  0  0  0  0  0  0  0  0  0  0  0
    5.4495    0.2107    5.2095 N   0  0  0  0  0  0  0  0  0  0  0  0
    4.5191    1.1007    5.9240 C   0  0  0  0  0  0  0  0  0  0  0  0
    4.8053    2.5818    5.8148 C   0  0  0  0  0  0  0  0  0  0  0  0
    3.7542    3.4837    6.0659 C   0  0  0  0  0  0  0  0  0  0  0  0
    3.9698    4.8615    6.0532 C   0  0  0  0  0  0  0  0  0  0  0  0
    5.2424    5.3507    5.7988 C   0  0  0  0  0  0  0  0  0  0  0  0
    5.5285    7.0472    5.7932 Cl  0  0  0  0  0  0  0  0  0  0  0  0
    6.2967    4.4729    5.5523 C   0  0  0  0  0  0  0  0  0  0  0  0
    6.0994    3.0756    5.5577 C   0  0  0  0  0  0  0  0  0  0  0  0
    7.2494    2.1079    5.2517 C   0  0  3  0  0  0  0  0  0  0  0  0
    8.4718    2.3795    6.1466 C   0  0  0  0  0  0  0  0  0  0  0  0
    9.4637    3.1409    5.3001 C   0  0  0  0  0  0  0  0  0  0  0  0
    8.9413    3.2342    3.9738 N   0  0  0  0  0  0  0  0  0  0  0  0
    9.5250    4.0540    2.9363 C   0  0  0  0  0  0  0  0  0  0  0  0
    8.8004    4.2633    1.7501 C   0  0  0  0  0  0  0  0  0  0  0  0
    9.2225    4.9730    0.6768 N   0  0  0  0  0  0  0  0  0  0  0  0
   10.4212    5.5649    0.7851 C   0  0  0  0  0  0  0  0  0  0  0  0
   11.2065    5.5443    1.9323 C   0  0  0  0  0  0  0  0  0  0  0  0
   12.3988    6.3005    1.9591 C   0  0  0  0  0  0  0  0  0  0  0  0
   13.2088    6.3311    3.0865 C   0  0  0  0  0  0  0  0  0  0  0  0
   12.8635    5.5577    4.1777 C   0  0  0  0  0  0  0  0  0  0  0  0
   11.7026    4.7784    4.1401 C   0  0  0  0  0  0  0  0  0  0  0  0
   10.7896    4.7569    3.0404 C   0  0  0  0  0  0  0  0  0  0  0  0
    7.8135    2.3962    3.8379 C   0  0  0  0  0  0  0  0  0  0  0  0
    7.3110    2.0176    2.7880 O   0  0  0  0  0  0  0  0  0  0  0  0
    6.8396    0.6229    5.4861 C   0  0  0  0  0  0  0  0  0  0  0  0
   -0.4050   -1.8762    4.5287 C   0  0  0  0  0  0  0  0  0  0  0  0
    0.3285   -1.3065    5.7106 C   0  0  0  0  0  0  0  0  0  0  0  0
    1.5146    0.1150    2.9560 H   0  0  0  0  0  0  0  0  0  0  0  0
    2.0667   -2.3519    2.9035 H   0  0  0  0  0  0  0  0  0  0  0  0
    2.1221   -3.0460    4.5336 H   0  0  0  0  0  0  0  0  0  0  0  0
    3.8683   -1.5726    5.1096 H   0  0  0  0  0  0  0  0  0  0  0  0
    5.2107    1.1523    3.3071 H   0  0  0  0  0  0  0  0  0  0  0  0
    5.9709   -0.4668    3.2757 H   0  0  0  0  0  0  0  0  0  0  0  0
    4.5637    0.8449    6.9916 H   0  0  0  0  0  0  0  0  0  0  0  0
    3.4860    0.9001    5.6194 H   0  0  0  0  0  0  0  0  0  0  0  0
    2.7520    3.1114    6.2737 H   0  0  0  0  0  0  0  0  0  0  0  0
    3.1438    5.5411    6.2424 H   0  0  0  0  0  0  0  0  0  0  0  0
    7.2742    4.8999    5.3452 H   0  0  0  0  0  0  0  0  0  0  0  0
    8.9543    1.4521    6.4816 H   0  0  0  0  0  0  0  0  0  0  0  0
    8.2267    2.9355    7.0592 H   0  0  0  0  0  0  0  0  0  0  0  0
   10.3906    2.5578    5.2532 H   0  0  0  0  0  0  0  0  0  0  0  0
    9.6206    4.1338    5.7281 H   0  0  0  0  0  0  0  0  0  0  0  0
    7.7882    3.8926    1.6157 H   0  0  0  0  0  0  0  0  0  0  0  0
   10.7413    6.0933   -0.1091 H   0  0  0  0  0  0  0  0  0  0  0  0
   12.6888    6.9027    1.1020 H   0  0  0  0  0  0  0  0  0  0  0  0
   14.0993    6.9497    3.1159 H   0  0  0  0  0  0  0  0  0  0  0  0
   13.4887    5.5512    5.0682 H   0  0  0  0  0  0  0  0  0  0  0  0
   11.5520    4.1921    5.0321 H   0  0  0  0  0  0  0  0  0  0  0  0
    6.9899    0.3945    6.5533 H   0  0  0  0  0  0  0  0  0  0  0  0
    7.5370   -0.0465    4.9644 H   0  0  0  0  0  0  0  0  0  0  0  0
   -0.4841   -2.9532    4.4443 H   0  0  0  0  0  0  0  0  0  0  0  0
   -1.2725   -1.3402    4.1594 H   0  0  0  0  0  0  0  0  0  0  0  0
    0.7451   -1.9970    6.4326 H   0  0  0  0  0  0  0  0  0  0  0  0
   -0.0527   -0.3872    6.1408 H   0  0  0  0  0  0  0  0  0  0  0  0
  1  2  1  0  0  0  0
  1 36  1  0  0  0  0
  2  3  1  0  0  0  0
  2 34  1  0  0  0  0
  2 35  1  0  0  0  0
  3  4  1  0  0  0  0
  3 37  1  0  0  0  0
  3 38  1  0  0  0  0
  4  5  1  0  0  0  0
  4 39  1  0  0  0  0
  5  6  2  0  0  0  0
  5  7  1  0  0  0  0
  7  8  1  0  0  0  0
  7 40  1  0  0  0  0
  7 41  1  0  0  0  0
  8  9  1  0  0  0  0
  8 33  1  0  0  0  0
  9 10  1  0  0  0  0
  9 42  1  0  0  0  0
  9 43  1  0  0  0  0
 10 11  1  0  0  0  0
 10 16  2  0  0  0  0
 11 12  2  0  0  0  0
 11 44  1  0  0  0  0
 12 13  1  0  0  0  0
 12 45  1  0  0  0  0
 13 14  1  0  0  0  0
 13 15  2  0  0  0  0
 15 16  1  0  0  0  0
 15 46  1  0  0  0  0
 16 17  1  0  0  0  0
 17 18  1  0  0  0  0
 17 31  1  0  0  0  0
 17 33  1  0  0  0  0
 18 19  1  0  0  0  0
 18 47  1  0  0  0  0
 18 48  1  0  0  0  0
 19 20  1  0  0  0  0
 19 49  1  0  0  0  0
 19 50  1  0  0  0  0
 20 21  1  0  0  0  0
 20 31  1  0  0  0  0
 21 22  1  0  0  0  0
 21 30  2  0  0  0  0
 22 23  2  0  0  0  0
 22 51  1  0  0  0  0
 23 24  1  0  0  0  0
 24 25  2  0  0  0  0
 24 52  1  0  0  0  0
 25 26  1  0  0  0  0
 25 30  1  0  0  0  0
 26 27  2  0  0  0  0
 26 53  1  0  0  0  0
 27 28  1  0  0  0  0
 27 54  1  0  0  0  0
 28 29  2  0  0  0  0
 28 55  1  0  0  0  0
 29 30  1  0  0  0  0
 29 56  1  0  0  0  0
 31 32  2  0  0  0  0
 33 57  1  0  0  0  0
 33 58  1  0  0  0  0
 34 35  1  0  0  0  0
 34 59  1  0  0  0  0
 34 60  1  0  0  0  0
 35 61  1  0  0  0  0
 35 62  1  0  0  0  0
M  END
$$$$
