
 OpenBabel07202414143D

 58 63  0  0  1  0  0  0  0  0999 V2000
    3.3873   -4.0078   -0.7904 C   0  0  0  0  0  0  0  0  0  0  0  0
    3.4566   -2.5762   -0.7644 N   0  0  0  0  0  0  0  0  0  0  0  0
    4.5204   -1.9356   -1.3395 C   0  0  0  0  0  0  0  0  0  0  0  0
    5.4806   -2.5071   -1.8455 O   0  0  0  0  0  0  0  0  0  0  0  0
    4.4294   -0.4247   -1.3194 C   0  0  0  0  0  0  0  0  0  0  0  0
    4.6323    0.1683    0.0417 N   0  0  3  0  0  0  0  0  0  0  0  0
    5.9439   -0.1176    0.6246 C   0  0  0  0  0  0  0  0  0  0  0  0
    6.9965    0.9246    0.3236 C   0  0  0  0  0  0  0  0  0  0  0  0
    8.3386    0.5439    0.4984 C   0  0  0  0  0  0  0  0  0  0  0  0
    9.3639    1.4711    0.3185 C   0  0  0  0  0  0  0  0  0  0  0  0
    9.0540    2.7673   -0.0664 C   0  0  0  0  0  0  0  0  0  0  0  0
   10.3196    3.9219   -0.2396 Cl  0  0  0  0  0  0  0  0  0  0  0  0
    7.7295    3.1578   -0.2557 C   0  0  0  0  0  0  0  0  0  0  0  0
    6.6693    2.2585   -0.0282 C   0  0  0  0  0  0  0  0  0  0  0  0
    5.2042    2.7188   -0.0891 C   0  0  1  0  0  0  0  0  0  0  0  0
    4.9693    3.9230    0.8576 C   0  0  0  0  0  0  0  0  0  0  0  0
    4.5395    5.1004   -0.0024 C   0  0  0  0  0  0  0  0  0  0  0  0
    4.1824    4.5884   -1.2875 N   0  0  0  0  0  0  0  0  0  0  0  0
    3.8447    5.4121   -2.4478 C   0  0  0  0  0  0  0  0  0  0  0  0
    3.6902    4.8035   -3.7074 C   0  0  0  0  0  0  0  0  0  0  0  0
    3.6584    5.4276   -4.9077 N   0  0  0  0  0  0  0  0  0  0  0  0
    3.7734    6.7603   -4.8766 C   0  0  0  0  0  0  0  0  0  0  0  0
    3.7497    7.5118   -3.7074 C   0  0  0  0  0  0  0  0  0  0  0  0
    3.7236    8.9135   -3.7987 C   0  0  0  0  0  0  0  0  0  0  0  0
    3.6253    9.6965   -2.6568 C   0  0  0  0  0  0  0  0  0  0  0  0
    3.5432    9.0818   -1.4207 C   0  0  0  0  0  0  0  0  0  0  0  0
    3.5894    7.6880   -1.3223 C   0  0  0  0  0  0  0  0  0  0  0  0
    3.7351    6.8394   -2.4517 C   0  0  0  0  0  0  0  0  0  0  0  0
    4.7899    3.3315   -1.4433 C   0  0  0  0  0  0  0  0  0  0  0  0
    5.0348    2.8454   -2.5349 O   0  0  0  0  0  0  0  0  0  0  0  0
    4.2463    1.5591    0.3449 C   0  0  0  0  0  0  0  0  0  0  0  0
    3.4866    0.2689   -2.2808 C   0  0  0  0  0  0  0  0  0  0  0  0
    4.9565    0.1873   -2.5923 C   0  0  0  0  0  0  0  0  0  0  0  0
    2.4991   -4.3300   -0.2485 H   0  0  0  0  0  0  0  0  0  0  0  0
    4.2881   -4.4222   -0.3291 H   0  0  0  0  0  0  0  0  0  0  0  0
    3.3368   -4.3351   -1.8332 H   0  0  0  0  0  0  0  0  0  0  0  0
    2.7521   -2.0164   -0.3017 H   0  0  0  0  0  0  0  0  0  0  0  0
    6.3039   -1.1077    0.3217 H   0  0  0  0  0  0  0  0  0  0  0  0
    5.8343   -0.1710    1.7165 H   0  0  0  0  0  0  0  0  0  0  0  0
    8.5861   -0.4732    0.7994 H   0  0  0  0  0  0  0  0  0  0  0  0
   10.3918    1.1654    0.4919 H   0  0  0  0  0  0  0  0  0  0  0  0
    7.5200    4.1859   -0.5535 H   0  0  0  0  0  0  0  0  0  0  0  0
    5.8476    4.1936    1.4562 H   0  0  0  0  0  0  0  0  0  0  0  0
    4.1743    3.7211    1.5850 H   0  0  0  0  0  0  0  0  0  0  0  0
    5.3715    5.8052   -0.1167 H   0  0  0  0  0  0  0  0  0  0  0  0
    3.6811    5.5692    0.4791 H   0  0  0  0  0  0  0  0  0  0  0  0
    3.5514    3.7274   -3.8210 H   0  0  0  0  0  0  0  0  0  0  0  0
    3.8505    7.2237   -5.8559 H   0  0  0  0  0  0  0  0  0  0  0  0
    3.7564    9.4092   -4.7676 H   0  0  0  0  0  0  0  0  0  0  0  0
    3.5868   10.7797   -2.7349 H   0  0  0  0  0  0  0  0  0  0  0  0
    3.4247    9.6773   -0.5185 H   0  0  0  0  0  0  0  0  0  0  0  0
    3.4419    7.2911   -0.3331 H   0  0  0  0  0  0  0  0  0  0  0  0
    3.2084    1.7583    0.0532 H   0  0  0  0  0  0  0  0  0  0  0  0
    4.2012    1.5791    1.4476 H   0  0  0  0  0  0  0  0  0  0  0  0
    3.0460    1.2218   -2.0254 H   0  0  0  0  0  0  0  0  0  0  0  0
    2.8157   -0.3405   -2.8765 H   0  0  0  0  0  0  0  0  0  0  0  0
    5.7330    0.9109   -2.4228 H   0  0  0  0  0  0  0  0  0  0  0  0
    5.2145   -0.4286   -3.4493 H   0  0  0  0  0  0  0  0  0  0  0  0
  1  2  1  0  0  0  0
  1 34  1  0  0  0  0
  1 35  1  0  0  0  0
  1 36  1  0  0  0  0
  2  3  1  0  0  0  0
  2 37  1  0  0  0  0
  3  4  2  0  0  0  0
  3  5  1  0  0  0  0
  5  6  1  0  0  0  0
  5 32  1  0  0  0  0
  5 33  1  0  0  0  0
  6  7  1  0  0  0  0
  6 31  1  0  0  0  0
  7  8  1  0  0  0  0
  7 38  1  0  0  0  0
  7 39  1  0  0  0  0
  8  9  1  0  0  0  0
  8 14  2  0  0  0  0
  9 10  2  0  0  0  0
  9 40  1  0  0  0  0
 10 11  1  0  0  0  0
 10 41  1  0  0  0  0
 11 12  1  0  0  0  0
 11 13  2  0  0  0  0
 13 14  1  0  0  0  0
 13 42  1  0  0  0  0
 15 14  1  6  0  0  0
 15 16  1  0  0  0  0
 15 29  1  0  0  0  0
 15 31  1  0  0  0  0
 16 17  1  0  0  0  0
 16 43  1  0  0  0  0
 16 44  1  0  0  0  0
 17 18  1  0  0  0  0
 17 45  1  0  0  0  0
 17 46  1  0  0  0  0
 18 19  1  0  0  0  0
 18 29  1  0  0  0  0
 19 20  1  0  0  0  0
 19 28  2  0  0  0  0
 20 21  2  0  0  0  0
 20 47  1  0  0  0  0
 21 22  1  0  0  0  0
 22 23  2  0  0  0  0
 22 48  1  0  0  0  0
 23 24  1  0  0  0  0
 23 28  1  0  0  0  0
 24 25  2  0  0  0  0
 24 49  1  0  0  0  0
 25 26  1  0  0  0  0
 25 50  1  0  0  0  0
 26 27  2  0  0  0  0
 26 51  1  0  0  0  0
 27 28  1  0  0  0  0
 27 52  1  0  0  0  0
 29 30  2  0  0  0  0
 31 53  1  0  0  0  0
 31 54  1  0  0  0  0
 32 33  1  0  0  0  0
 32 55  1  0  0  0  0
 32 56  1  0  0  0  0
 33 57  1  0  0  0  0
 33 58  1  0  0  0  0
M  END
$$$$
