
 OpenBabel07202414183D

 30 32  0  0  0  0  0  0  0  0999 V2000
   -1.2659   -4.6323   -2.5695 Cl  0  0  0  0  0  0  0  0  0  0  0  0
    0.1849   -3.7068   -2.5648 C   0  0  0  0  0  0  0  0  0  0  0  0
    0.6984   -3.2167   -3.7613 C   0  0  0  0  0  0  0  0  0  0  0  0
    1.8610   -2.4468   -3.7457 C   0  0  0  0  0  0  0  0  0  0  0  0
    2.5145   -2.1775   -2.5357 C   0  0  0  0  0  0  0  0  0  0  0  0
    2.0268   -2.6970   -1.3275 C   0  0  0  0  0  0  0  0  0  0  0  0
    2.6575   -2.3967    0.0143 C   0  0  0  0  0  0  0  0  0  0  0  0
    4.1563   -2.1512    0.0255 C   0  0  0  0  0  0  0  0  0  0  0  0
    4.6162   -1.0086    0.0379 O   0  0  0  0  0  0  0  0  0  0  0  0
    4.9317   -3.2978    0.0066 N   0  0  0  0  0  0  0  0  0  0  0  0
    6.3430   -3.2183    0.0415 C   0  0  0  0  0  0  0  0  0  0  0  0
    7.1122   -3.8869   -0.9170 C   0  0  0  0  0  0  0  0  0  0  0  0
    8.4690   -3.8804   -0.9877 N   0  0  0  0  0  0  0  0  0  0  0  0
    9.1686   -3.1928   -0.0474 C   0  0  0  0  0  0  0  0  0  0  0  0
    8.4620   -2.5470    0.9540 C   0  0  0  0  0  0  0  0  0  0  0  0
    8.9889   -1.8614    2.0003 O   0  0  0  0  0  0  0  0  0  0  0  0
    7.9588   -1.3936    2.8033 N   0  0  0  0  0  0  0  0  0  0  0  0
    6.8314   -1.7911    2.2013 C   0  0  0  0  0  0  0  0  0  0  0  0
    7.0793   -2.5287    1.0194 C   0  0  0  0  0  0  0  0  0  0  0  0
    0.8363   -3.4461   -1.3575 C   0  0  0  0  0  0  0  0  0  0  0  0
    0.1916   -3.4178   -4.7023 H   0  0  0  0  0  0  0  0  0  0  0  0
    2.2497   -2.0414   -4.6761 H   0  0  0  0  0  0  0  0  0  0  0  0
    3.3981   -1.5402   -2.5564 H   0  0  0  0  0  0  0  0  0  0  0  0
    2.4584   -3.2221    0.7104 H   0  0  0  0  0  0  0  0  0  0  0  0
    2.1738   -1.5059    0.4348 H   0  0  0  0  0  0  0  0  0  0  0  0
    4.5211   -4.0879   -0.4802 H   0  0  0  0  0  0  0  0  0  0  0  0
    6.6347   -4.4385   -1.7244 H   0  0  0  0  0  0  0  0  0  0  0  0
   10.2481   -3.1943   -0.1126 H   0  0  0  0  0  0  0  0  0  0  0  0
    5.8865   -1.5461    2.6588 H   0  0  0  0  0  0  0  0  0  0  0  0
    0.4016   -3.8178   -0.4316 H   0  0  0  0  0  0  0  0  0  0  0  0
  1  2  1  0  0  0  0
  2  3  1  0  0  0  0
  2 20  2  0  0  0  0
  3  4  2  0  0  0  0
  3 21  1  0  0  0  0
  4  5  1  0  0  0  0
  4 22  1  0  0  0  0
  5  6  2  0  0  0  0
  5 23  1  0  0  0  0
  6  7  1  0  0  0  0
  6 20  1  0  0  0  0
  7  8  1  0  0  0  0
  7 24  1  0  0  0  0
  7 25  1  0  0  0  0
  8  9  2  0  0  0  0
  8 10  1  0  0  0  0
 10 11  1  0  0  0  0
 10 26  1  0  0  0  0
 11 12  1  0  0  0  0
 11 19  2  0  0  0  0
 12 13  2  0  0  0  0
 12 27  1  0  0  0  0
 13 14  1  0  0  0  0
 14 15  2  0  0  0  0
 14 28  1  0  0  0  0
 15 16  1  0  0  0  0
 15 19  1  0  0  0  0
 16 17  1  0  0  0  0
 17 18  2  0  0  0  0
 18 19  1  0  0  0  0
 18 29  1  0  0  0  0
 20 30  1  0  0  0  0
M  END
$$$$
