
 OpenBabel07202414173D

 52 57  0  0  1  0  0  0  0  0999 V2000
    0.8976    0.3863    0.0882 Cl  0  0  0  0  0  0  0  0  0  0  0  0
    2.6159    0.2639    0.0806 C   0  0  0  0  0  0  0  0  0  0  0  0
    3.3937    1.4123    0.0703 C   0  0  0  0  0  0  0  0  0  0  0  0
    4.7823    1.3049    0.0446 C   0  0  0  0  0  0  0  0  0  0  0  0
    5.4027    0.0416    0.0457 C   0  0  0  0  0  0  0  0  0  0  0  0
    4.6174   -1.1274    0.0636 C   0  0  0  0  0  0  0  0  0  0  0  0
    3.2158   -0.9934    0.0781 C   0  0  0  0  0  0  0  0  0  0  0  0
    5.2890   -2.5073    0.1193 C   0  0  3  0  0  0  0  0  0  0  0  0
    6.8375   -2.4209   -0.0202 C   0  0  0  0  0  0  0  0  0  0  0  0
    7.5230   -1.2284    0.5068 N   0  0  0  0  0  0  0  0  0  0  0  0
    7.5644   -1.2288    1.9827 C   0  0  0  0  0  0  0  0  0  0  0  0
    8.3565   -0.1064    2.5795 C   0  0  0  0  0  0  0  0  0  0  0  0
    7.8234    1.0242    3.0111 N   0  0  0  0  0  0  0  0  0  0  0  0
    8.7583    1.8799    3.5464 N   0  0  0  0  0  0  0  0  0  0  0  0
    9.9655    1.3631    3.5039 C   0  0  0  0  0  0  0  0  0  0  0  0
   10.0595   -0.1925    2.7886 S   0  0  0  0  0  0  0  0  0  0  0  0
    6.9111   -0.0189   -0.0601 C   0  0  0  0  0  0  0  0  0  0  0  0
    4.7702   -3.4409   -0.9873 C   0  0  0  0  0  0  0  0  0  0  0  0
    3.7818   -4.3800   -0.3304 C   0  0  0  0  0  0  0  0  0  0  0  0
    3.7710   -4.0976    1.0697 N   0  0  0  0  0  0  0  0  0  0  0  0
    2.8273   -4.6494    2.0109 C   0  0  0  0  0  0  0  0  0  0  0  0
    2.7728   -4.1048    3.3067 C   0  0  0  0  0  0  0  0  0  0  0  0
    1.9826   -4.5336    4.3183 N   0  0  0  0  0  0  0  0  0  0  0  0
    1.1496   -5.5450    4.0311 C   0  0  0  0  0  0  0  0  0  0  0  0
    1.0140   -6.1208    2.7729 C   0  0  0  0  0  0  0  0  0  0  0  0
    0.0274   -7.1072    2.5784 C   0  0  0  0  0  0  0  0  0  0  0  0
   -0.1703   -7.6918    1.3332 C   0  0  0  0  0  0  0  0  0  0  0  0
    0.6436   -7.3237    0.2825 C   0  0  0  0  0  0  0  0  0  0  0  0
    1.6461   -6.3678    0.4801 C   0  0  0  0  0  0  0  0  0  0  0  0
    1.8656   -5.6900    1.7181 C   0  0  0  0  0  0  0  0  0  0  0  0
    4.8491   -3.2539    1.3964 C   0  0  0  0  0  0  0  0  0  0  0  0
    5.3304   -3.0894    2.5071 O   0  0  0  0  0  0  0  0  0  0  0  0
    2.9281    2.3943    0.0788 H   0  0  0  0  0  0  0  0  0  0  0  0
    5.3849    2.2114    0.0271 H   0  0  0  0  0  0  0  0  0  0  0  0
    2.5675   -1.8666    0.1029 H   0  0  0  0  0  0  0  0  0  0  0  0
    7.0839   -2.4372   -1.0933 H   0  0  0  0  0  0  0  0  0  0  0  0
    7.3084   -3.3290    0.3799 H   0  0  0  0  0  0  0  0  0  0  0  0
    8.0041   -2.1771    2.3220 H   0  0  0  0  0  0  0  0  0  0  0  0
    6.5606   -1.1612    2.4069 H   0  0  0  0  0  0  0  0  0  0  0  0
   10.8288    1.8835    3.8916 H   0  0  0  0  0  0  0  0  0  0  0  0
    7.1594    0.0223   -1.1300 H   0  0  0  0  0  0  0  0  0  0  0  0
    7.3630    0.8835    0.3675 H   0  0  0  0  0  0  0  0  0  0  0  0
    5.5733   -4.0434   -1.4319 H   0  0  0  0  0  0  0  0  0  0  0  0
    4.3039   -2.9022   -1.8198 H   0  0  0  0  0  0  0  0  0  0  0  0
    4.1419   -5.4070   -0.4627 H   0  0  0  0  0  0  0  0  0  0  0  0
    2.7921   -4.2324   -0.7669 H   0  0  0  0  0  0  0  0  0  0  0  0
    3.3568   -3.2349    3.5947 H   0  0  0  0  0  0  0  0  0  0  0  0
    0.5573   -5.8865    4.8775 H   0  0  0  0  0  0  0  0  0  0  0  0
   -0.6168   -7.4138    3.4010 H   0  0  0  0  0  0  0  0  0  0  0  0
   -0.9574   -8.4251    1.1865 H   0  0  0  0  0  0  0  0  0  0  0  0
    0.5117   -7.7711   -0.6997 H   0  0  0  0  0  0  0  0  0  0  0  0
    2.2409   -6.1745   -0.3984 H   0  0  0  0  0  0  0  0  0  0  0  0
  1  2  1  0  0  0  0
  2  3  1  0  0  0  0
  2  7  2  0  0  0  0
  3  4  2  0  0  0  0
  3 33  1  0  0  0  0
  4  5  1  0  0  0  0
  4 34  1  0  0  0  0
  5  6  2  0  0  0  0
  5 17  1  0  0  0  0
  6  7  1  0  0  0  0
  6  8  1  0  0  0  0
  7 35  1  0  0  0  0
  8  9  1  0  0  0  0
  8 18  1  0  0  0  0
  8 31  1  0  0  0  0
  9 10  1  0  0  0  0
  9 36  1  0  0  0  0
  9 37  1  0  0  0  0
 10 11  1  0  0  0  0
 10 17  1  0  0  0  0
 11 12  1  0  0  0  0
 11 38  1  0  0  0  0
 11 39  1  0  0  0  0
 12 13  2  0  0  0  0
 12 16  1  0  0  0  0
 13 14  1  0  0  0  0
 14 15  2  0  0  0  0
 15 16  1  0  0  0  0
 15 40  1  0  0  0  0
 17 41  1  0  0  0  0
 17 42  1  0  0  0  0
 18 19  1  0  0  0  0
 18 43  1  0  0  0  0
 18 44  1  0  0  0  0
 19 20  1  0  0  0  0
 19 45  1  0  0  0  0
 19 46  1  0  0  0  0
 20 21  1  0  0  0  0
 20 31  1  0  0  0  0
 21 22  1  0  0  0  0
 21 30  2  0  0  0  0
 22 23  2  0  0  0  0
 22 47  1  0  0  0  0
 23 24  1  0  0  0  0
 24 25  2  0  0  0  0
 24 48  1  0  0  0  0
 25 26  1  0  0  0  0
 25 30  1  0  0  0  0
 26 27  2  0  0  0  0
 26 49  1  0  0  0  0
 27 28  1  0  0  0  0
 27 50  1  0  0  0  0
 28 29  2  0  0  0  0
 28 51  1  0  0  0  0
 29 30  1  0  0  0  0
 29 52  1  0  0  0  0
 31 32  2  0  0  0  0
M  END
$$$$
