
 OpenBabel07202414133D

 52 55  0  0  0  0  0  0  0  0999 V2000
    0.6544   -0.3010    0.9892 C   0  0  0  0  0  0  0  0  0  0  0  0
    1.6238   -0.5317   -0.0745 N   0  0  0  0  0  0  0  0  0  0  0  0
    1.6421    0.4097   -1.1854 C   0  0  0  0  0  0  0  0  0  0  0  0
    2.4922   -1.6216   -0.0401 C   0  0  0  0  0  0  0  0  0  0  0  0
    2.4770   -2.5545    1.0158 C   0  0  0  0  0  0  0  0  0  0  0  0
    3.3183   -3.6823    1.0380 C   0  0  0  0  0  0  0  0  0  0  0  0
    4.2216   -3.9002    0.0024 C   0  0  0  0  0  0  0  0  0  0  0  0
    4.9824   -5.1019   -0.0432 N   0  0  0  0  0  0  0  0  0  0  0  0
    6.2253   -5.2181    0.7336 C   0  0  0  0  0  0  0  0  0  0  0  0
    6.6792   -3.9922    1.4724 C   0  0  0  0  0  0  0  0  0  0  0  0
    6.4034   -3.7350    2.8592 C   0  0  0  0  0  0  0  0  0  0  0  0
    6.9661   -2.5613    3.3082 C   0  0  0  0  0  0  0  0  0  0  0  0
    7.8438   -1.7636    2.0801 S   0  0  0  0  0  0  0  0  0  0  0  0
    7.4757   -2.9899    0.9449 C   0  0  0  0  0  0  0  0  0  0  0  0
    4.4829   -6.1389   -0.8391 C   0  0  0  0  0  0  0  0  0  0  0  0
    3.5331   -5.9959   -1.6162 O   0  0  0  0  0  0  0  0  0  0  0  0
    5.1144   -7.5218   -0.7171 C   0  0  0  0  0  0  0  0  0  0  0  0
    6.1994   -7.8814   -1.7085 C   0  0  0  0  0  0  0  0  0  0  0  0
    6.6876   -6.9546   -2.6286 C   0  0  0  0  0  0  0  0  0  0  0  0
    7.7373   -7.1711   -3.4479 N   0  0  0  0  0  0  0  0  0  0  0  0
    8.2935   -8.4004   -3.4087 C   0  0  0  0  0  0  0  0  0  0  0  0
    7.8339   -9.4500   -2.6169 C   0  0  0  0  0  0  0  0  0  0  0  0
    8.3952  -10.7373   -2.7083 C   0  0  0  0  0  0  0  0  0  0  0  0
    7.9048  -11.7826   -1.9299 C   0  0  0  0  0  0  0  0  0  0  0  0
    6.8791  -11.5418   -1.0252 C   0  0  0  0  0  0  0  0  0  0  0  0
    6.3270  -10.2605   -0.9160 C   0  0  0  0  0  0  0  0  0  0  0  0
    6.7700   -9.1868   -1.7255 C   0  0  0  0  0  0  0  0  0  0  0  0
    4.2757   -2.9906   -1.0476 C   0  0  0  0  0  0  0  0  0  0  0  0
    3.4304   -1.8662   -1.0556 C   0  0  0  0  0  0  0  0  0  0  0  0
    0.0505    0.5954    0.8060 H   0  0  0  0  0  0  0  0  0  0  0  0
    1.1592   -0.1499    1.9492 H   0  0  0  0  0  0  0  0  0  0  0  0
   -0.0449   -1.1400    1.0729 H   0  0  0  0  0  0  0  0  0  0  0  0
    0.8602    1.1695   -1.0902 H   0  0  0  0  0  0  0  0  0  0  0  0
    1.4664   -0.0985   -2.1404 H   0  0  0  0  0  0  0  0  0  0  0  0
    2.5989    0.9422   -1.2252 H   0  0  0  0  0  0  0  0  0  0  0  0
    1.7757   -2.4503    1.8358 H   0  0  0  0  0  0  0  0  0  0  0  0
    3.2304   -4.3878    1.8561 H   0  0  0  0  0  0  0  0  0  0  0  0
    7.0148   -5.5271    0.0375 H   0  0  0  0  0  0  0  0  0  0  0  0
    6.1013   -6.0345    1.4542 H   0  0  0  0  0  0  0  0  0  0  0  0
    5.8174   -4.3851    3.4975 H   0  0  0  0  0  0  0  0  0  0  0  0
    6.9082   -2.1356    4.3006 H   0  0  0  0  0  0  0  0  0  0  0  0
    7.8677   -2.9129   -0.0603 H   0  0  0  0  0  0  0  0  0  0  0  0
    4.2844   -8.2313   -0.8386 H   0  0  0  0  0  0  0  0  0  0  0  0
    5.4897   -7.6756    0.2986 H   0  0  0  0  0  0  0  0  0  0  0  0
    6.2443   -5.9689   -2.7476 H   0  0  0  0  0  0  0  0  0  0  0  0
    9.1484   -8.5263   -4.0686 H   0  0  0  0  0  0  0  0  0  0  0  0
    9.2011  -10.9385   -3.4112 H   0  0  0  0  0  0  0  0  0  0  0  0
    8.3181  -12.7825   -2.0356 H   0  0  0  0  0  0  0  0  0  0  0  0
    6.4952  -12.3530   -0.4114 H   0  0  0  0  0  0  0  0  0  0  0  0
    5.5185  -10.1255   -0.2017 H   0  0  0  0  0  0  0  0  0  0  0  0
    4.9554   -3.1481   -1.8795 H   0  0  0  0  0  0  0  0  0  0  0  0
    3.5134   -1.1978   -1.9049 H   0  0  0  0  0  0  0  0  0  0  0  0
  1  2  1  0  0  0  0
  1 30  1  0  0  0  0
  1 31  1  0  0  0  0
  1 32  1  0  0  0  0
  2  3  1  0  0  0  0
  2  4  1  0  0  0  0
  3 33  1  0  0  0  0
  3 34  1  0  0  0  0
  3 35  1  0  0  0  0
  4  5  1  0  0  0  0
  4 29  2  0  0  0  0
  5  6  2  0  0  0  0
  5 36  1  0  0  0  0
  6  7  1  0  0  0  0
  6 37  1  0  0  0  0
  7  8  1  0  0  0  0
  7 28  2  0  0  0  0
  8  9  1  0  0  0  0
  8 15  1  0  0  0  0
  9 10  1  0  0  0  0
  9 38  1  0  0  0  0
  9 39  1  0  0  0  0
 10 11  1  0  0  0  0
 10 14  2  0  0  0  0
 11 12  2  0  0  0  0
 11 40  1  0  0  0  0
 12 13  1  0  0  0  0
 12 41  1  0  0  0  0
 13 14  1  0  0  0  0
 14 42  1  0  0  0  0
 15 16  2  0  0  0  0
 15 17  1  0  0  0  0
 17 18  1  0  0  0  0
 17 43  1  0  0  0  0
 17 44  1  0  0  0  0
 18 19  1  0  0  0  0
 18 27  2  0  0  0  0
 19 20  2  0  0  0  0
 19 45  1  0  0  0  0
 20 21  1  0  0  0  0
 21 22  2  0  0  0  0
 21 46  1  0  0  0  0
 22 23  1  0  0  0  0
 22 27  1  0  0  0  0
 23 24  2  0  0  0  0
 23 47  1  0  0  0  0
 24 25  1  0  0  0  0
 24 48  1  0  0  0  0
 25 26  2  0  0  0  0
 25 49  1  0  0  0  0
 26 27  1  0  0  0  0
 26 50  1  0  0  0  0
 28 29  1  0  0  0  0
 28 51  1  0  0  0  0
 29 52  1  0  0  0  0
M  END
$$$$
