
 OpenBabel07202414183D

 41 45  0  0  1  0  0  0  0  0999 V2000
    1.0434   -0.1673    0.0336 Cl  0  0  0  0  0  0  0  0  0  0  0  0
    2.7564   -0.0513   -0.0747 C   0  0  0  0  0  0  0  0  0  0  0  0
    3.5356   -1.1970    0.0485 C   0  0  0  0  0  0  0  0  0  0  0  0
    4.9231   -1.0942   -0.0306 C   0  0  0  0  0  0  0  0  0  0  0  0
    5.5265    0.1505   -0.2255 C   0  0  0  0  0  0  0  0  0  0  0  0
    4.7521    1.3119   -0.3683 C   0  0  0  0  0  0  0  0  0  0  0  0
    3.3526    1.1949   -0.2787 C   0  0  0  0  0  0  0  0  0  0  0  0
    5.4340    2.6499   -0.5438 C   0  0  2  0  0  0  0  0  0  0  0  0
    6.8892    2.4780   -0.9729 C   0  0  0  0  0  0  0  0  0  0  0  0
    7.5188    1.4036   -0.0950 C   0  0  0  0  0  0  0  0  0  0  0  0
    6.8940    0.1352   -0.2893 O   0  0  0  0  0  0  0  0  0  0  0  0
    5.3870    3.3780    0.7019 N   0  0  0  0  0  0  0  0  0  0  0  0
    4.8869    4.6342    0.5233 C   0  0  0  0  0  0  0  0  0  0  0  0
    5.1384    5.5348    1.3108 O   0  0  0  0  0  0  0  0  0  0  0  0
    4.2279    4.6873   -0.6807 N   0  0  0  0  0  0  0  0  0  0  0  0
    3.5374    5.8682   -1.0506 C   0  0  0  0  0  0  0  0  0  0  0  0
    3.8228    6.5349   -2.2327 C   0  0  0  0  0  0  0  0  0  0  0  0
    3.5062    7.8368   -2.4418 N   0  0  0  0  0  0  0  0  0  0  0  0
    2.8413    8.4750   -1.4476 C   0  0  0  0  0  0  0  0  0  0  0  0
    2.3473    7.8554   -0.2976 C   0  0  0  0  0  0  0  0  0  0  0  0
    1.5582    8.5351    0.6507 C   0  0  0  0  0  0  0  0  0  0  0  0
    1.0274    7.8607    1.7546 C   0  0  0  0  0  0  0  0  0  0  0  0
    1.2781    6.5052    1.9180 C   0  0  0  0  0  0  0  0  0  0  0  0
    2.0851    5.8363    0.9969 C   0  0  0  0  0  0  0  0  0  0  0  0
    2.6690    6.4982   -0.1130 C   0  0  0  0  0  0  0  0  0  0  0  0
    4.6853    3.6553   -1.4718 C   0  0  0  0  0  0  0  0  0  0  0  0
    4.5140    3.5218   -2.6825 O   0  0  0  0  0  0  0  0  0  0  0  0
    3.0734   -2.1674    0.2087 H   0  0  0  0  0  0  0  0  0  0  0  0
    5.5388   -1.9848    0.0709 H   0  0  0  0  0  0  0  0  0  0  0  0
    2.7138    2.0711   -0.3624 H   0  0  0  0  0  0  0  0  0  0  0  0
    7.4493    3.4165   -0.8747 H   0  0  0  0  0  0  0  0  0  0  0  0
    6.9436    2.1668   -2.0225 H   0  0  0  0  0  0  0  0  0  0  0  0
    7.4773    1.6565    0.9724 H   0  0  0  0  0  0  0  0  0  0  0  0
    8.5787    1.2894   -0.3444 H   0  0  0  0  0  0  0  0  0  0  0  0
    6.0002    3.2225    1.4926 H   0  0  0  0  0  0  0  0  0  0  0  0
    4.3897    6.0801   -3.0392 H   0  0  0  0  0  0  0  0  0  0  0  0
    2.7009    9.5399   -1.6112 H   0  0  0  0  0  0  0  0  0  0  0  0
    1.3319    9.5911    0.5287 H   0  0  0  0  0  0  0  0  0  0  0  0
    0.4089    8.3900    2.4767 H   0  0  0  0  0  0  0  0  0  0  0  0
    0.8515    5.9645    2.7590 H   0  0  0  0  0  0  0  0  0  0  0  0
    2.2394    4.7696    1.1481 H   0  0  0  0  0  0  0  0  0  0  0  0
  1  2  1  0  0  0  0
  2  3  1  0  0  0  0
  2  7  2  0  0  0  0
  3  4  2  0  0  0  0
  3 28  1  0  0  0  0
  4  5  1  0  0  0  0
  4 29  1  0  0  0  0
  5  6  2  0  0  0  0
  5 11  1  0  0  0  0
  6  7  1  0  0  0  0
  7 30  1  0  0  0  0
  8  6  1  1  0  0  0
  8  9  1  0  0  0  0
  8 12  1  0  0  0  0
  8 26  1  0  0  0  0
  9 10  1  0  0  0  0
  9 31  1  0  0  0  0
  9 32  1  0  0  0  0
 10 11  1  0  0  0  0
 10 33  1  0  0  0  0
 10 34  1  0  0  0  0
 12 13  1  0  0  0  0
 12 35  1  0  0  0  0
 13 14  2  0  0  0  0
 13 15  1  0  0  0  0
 15 16  1  0  0  0  0
 15 26  1  0  0  0  0
 16 17  1  0  0  0  0
 16 25  2  0  0  0  0
 17 18  2  0  0  0  0
 17 36  1  0  0  0  0
 18 19  1  0  0  0  0
 19 20  2  0  0  0  0
 19 37  1  0  0  0  0
 20 21  1  0  0  0  0
 20 25  1  0  0  0  0
 21 22  2  0  0  0  0
 21 38  1  0  0  0  0
 22 23  1  0  0  0  0
 22 39  1  0  0  0  0
 23 24  2  0  0  0  0
 23 40  1  0  0  0  0
 24 25  1  0  0  0  0
 24 41  1  0  0  0  0
 26 27  2  0  0  0  0
M  END
$$$$
