
 OpenBabel07202414193D

 47 50  0  0  0  0  0  0  0  0999 V2000
    1.4498   -1.0133    0.5732 O   0  0  0  0  0  0  0  0  0  0  0  0
    2.2469   -0.1518    0.1953 C   0  0  0  0  0  0  0  0  0  0  0  0
    2.5189    0.0668   -1.2813 C   0  0  0  0  0  0  0  0  0  0  0  0
    1.4232    0.8509   -1.9636 C   0  0  0  0  0  0  0  0  0  0  0  0
    1.5476    2.2386   -2.0247 C   0  0  0  0  0  0  0  0  0  0  0  0
    0.6579    3.0667   -2.6107 N   0  0  0  0  0  0  0  0  0  0  0  0
   -0.4266    2.4829   -3.1634 C   0  0  0  0  0  0  0  0  0  0  0  0
   -0.6806    1.1107   -3.1601 C   0  0  0  0  0  0  0  0  0  0  0  0
   -1.8374    0.5798   -3.7586 C   0  0  0  0  0  0  0  0  0  0  0  0
   -2.0804   -0.7915   -3.7435 C   0  0  0  0  0  0  0  0  0  0  0  0
   -1.1737   -1.6417   -3.1210 C   0  0  0  0  0  0  0  0  0  0  0  0
   -0.0222   -1.1221   -2.5215 C   0  0  0  0  0  0  0  0  0  0  0  0
    0.2623    0.2636   -2.5338 C   0  0  0  0  0  0  0  0  0  0  0  0
    2.9037    0.6575    1.0799 N   0  0  0  0  0  0  0  0  0  0  0  0
    2.9087    0.5665    2.5297 C   0  0  0  0  0  0  0  0  0  0  0  0
    4.4026    0.9599    2.4625 C   0  0  0  0  0  0  0  0  0  0  0  0
    5.4441   -0.1700    2.5917 C   0  0  0  0  0  0  0  0  0  0  0  0
    5.3184   -0.8663    3.9570 C   0  0  0  0  0  0  0  0  0  0  0  0
    6.4112   -1.9123    4.1660 C   0  0  0  0  0  0  0  0  0  0  0  0
    7.7996   -1.3051    4.0093 C   0  0  0  0  0  0  0  0  0  0  0  0
    7.9515   -0.6205    2.6555 C   0  0  0  0  0  0  0  0  0  0  0  0
    6.8563    0.4178    2.4202 C   0  0  0  0  0  0  0  0  0  0  0  0
    4.1148    1.4518    1.0177 C   0  0  0  0  0  0  0  0  0  0  0  0
    2.6535   -0.9138   -1.7523 H   0  0  0  0  0  0  0  0  0  0  0  0
    3.4802    0.5696   -1.4328 H   0  0  0  0  0  0  0  0  0  0  0  0
    2.4062    2.7476   -1.5923 H   0  0  0  0  0  0  0  0  0  0  0  0
   -1.1188    3.1796   -3.6275 H   0  0  0  0  0  0  0  0  0  0  0  0
   -2.5596    1.2356   -4.2410 H   0  0  0  0  0  0  0  0  0  0  0  0
   -2.9765   -1.1938   -4.2085 H   0  0  0  0  0  0  0  0  0  0  0  0
   -1.3623   -2.7117   -3.0945 H   0  0  0  0  0  0  0  0  0  0  0  0
    0.6458   -1.8245   -2.0272 H   0  0  0  0  0  0  0  0  0  0  0  0
    2.6693   -0.4236    2.9204 H   0  0  0  0  0  0  0  0  0  0  0  0
    2.2554    1.3149    2.9910 H   0  0  0  0  0  0  0  0  0  0  0  0
    4.6373    1.7815    3.1539 H   0  0  0  0  0  0  0  0  0  0  0  0
    5.2761   -0.9194    1.8066 H   0  0  0  0  0  0  0  0  0  0  0  0
    4.3446   -1.3598    4.0465 H   0  0  0  0  0  0  0  0  0  0  0  0
    5.3649   -0.1226    4.7632 H   0  0  0  0  0  0  0  0  0  0  0  0
    6.2831   -2.7252    3.4402 H   0  0  0  0  0  0  0  0  0  0  0  0
    6.3121   -2.3566    5.1625 H   0  0  0  0  0  0  0  0  0  0  0  0
    8.5605   -2.0863    4.1173 H   0  0  0  0  0  0  0  0  0  0  0  0
    7.9728   -0.5768    4.8113 H   0  0  0  0  0  0  0  0  0  0  0  0
    7.9173   -1.3739    1.8591 H   0  0  0  0  0  0  0  0  0  0  0  0
    8.9340   -0.1385    2.5971 H   0  0  0  0  0  0  0  0  0  0  0  0
    6.9708    0.8397    1.4153 H   0  0  0  0  0  0  0  0  0  0  0  0
    6.9994    1.2503    3.1218 H   0  0  0  0  0  0  0  0  0  0  0  0
    4.8364    1.1438    0.2585 H   0  0  0  0  0  0  0  0  0  0  0  0
    3.9091    2.5234    0.9262 H   0  0  0  0  0  0  0  0  0  0  0  0
  1  2  2  0  0  0  0
  2  3  1  0  0  0  0
  2 14  1  0  0  0  0
  3  4  1  0  0  0  0
  3 24  1  0  0  0  0
  3 25  1  0  0  0  0
  4  5  1  0  0  0  0
  4 13  2  0  0  0  0
  5  6  2  0  0  0  0
  5 26  1  0  0  0  0
  6  7  1  0  0  0  0
  7  8  2  0  0  0  0
  7 27  1  0  0  0  0
  8  9  1  0  0  0  0
  8 13  1  0  0  0  0
  9 10  2  0  0  0  0
  9 28  1  0  0  0  0
 10 11  1  0  0  0  0
 10 29  1  0  0  0  0
 11 12  2  0  0  0  0
 11 30  1  0  0  0  0
 12 13  1  0  0  0  0
 12 31  1  0  0  0  0
 14 15  1  0  0  0  0
 14 23  1  0  0  0  0
 15 16  1  0  0  0  0
 15 32  1  0  0  0  0
 15 33  1  0  0  0  0
 16 17  1  0  0  0  0
 16 23  1  0  0  0  0
 16 34  1  0  0  0  0
 17 18  1  0  0  0  0
 17 22  1  0  0  0  0
 17 35  1  0  0  0  0
 18 19  1  0  0  0  0
 18 36  1  0  0  0  0
 18 37  1  0  0  0  0
 19 20  1  0  0  0  0
 19 38  1  0  0  0  0
 19 39  1  0  0  0  0
 20 21  1  0  0  0  0
 20 40  1  0  0  0  0
 20 41  1  0  0  0  0
 21 22  1  0  0  0  0
 21 42  1  0  0  0  0
 21 43  1  0  0  0  0
 22 44  1  0  0  0  0
 22 45  1  0  0  0  0
 23 46  1  0  0  0  0
 23 47  1  0  0  0  0
M  END
$$$$
