
 OpenBabel07202414133D

 47 50  0  0  0  0  0  0  0  0999 V2000
    7.3459    4.9901    2.7996 C   0  0  0  0  0  0  0  0  0  0  0  0
    7.2488    3.6756    2.0875 C   0  0  0  0  0  0  0  0  0  0  0  0
    8.3602    3.1738    1.5384 N   0  0  0  0  0  0  0  0  0  0  0  0
    8.2320    2.0053    0.8729 C   0  0  0  0  0  0  0  0  0  0  0  0
    9.7103    1.5502    0.1101 Cl  0  0  0  0  0  0  0  0  0  0  0  0
    7.0543    1.2954    0.7117 C   0  0  0  0  0  0  0  0  0  0  0  0
    6.8971    0.0793    0.0194 N   0  0  0  0  0  0  0  0  0  0  0  0
    7.6406   -1.1186    0.0782 C   0  0  0  0  0  0  0  0  0  0  0  0
    7.5585   -1.9821   -1.0108 C   0  0  0  0  0  0  0  0  0  0  0  0
    8.3015   -3.1646   -1.0474 C   0  0  0  0  0  0  0  0  0  0  0  0
    8.2209   -4.1896   -2.4263 Cl  0  0  0  0  0  0  0  0  0  0  0  0
    9.1253   -3.5023    0.0212 C   0  0  0  0  0  0  0  0  0  0  0  0
    9.2185   -2.6610    1.1379 C   0  0  0  0  0  0  0  0  0  0  0  0
   10.1921   -3.0021    2.2376 C   0  0  0  0  0  0  0  0  0  0  0  0
    9.6914   -2.9478    3.6684 C   0  0  0  0  0  0  0  0  0  0  0  0
   10.4275   -2.4946    4.5328 O   0  0  0  0  0  0  0  0  0  0  0  0
    8.5020   -3.5896    3.8974 N   0  0  0  0  0  0  0  0  0  0  0  0
    7.7947   -3.7216    5.1228 C   0  0  0  0  0  0  0  0  0  0  0  0
    7.0972   -4.9284    5.2663 C   0  0  0  0  0  0  0  0  0  0  0  0
    6.2285   -5.2241    6.2531 N   0  0  0  0  0  0  0  0  0  0  0  0
    5.9766   -4.2287    7.1172 C   0  0  0  0  0  0  0  0  0  0  0  0
    6.6041   -2.9866    7.1016 C   0  0  0  0  0  0  0  0  0  0  0  0
    6.2318   -2.0171    8.0403 C   0  0  0  0  0  0  0  0  0  0  0  0
    7.0796   -0.9597    8.3223 C   0  0  0  0  0  0  0  0  0  0  0  0
    8.1629   -0.7295    7.4889 C   0  0  0  0  0  0  0  0  0  0  0  0
    8.3494   -1.5321    6.3515 C   0  0  0  0  0  0  0  0  0  0  0  0
    7.6345   -2.7382    6.1580 C   0  0  0  0  0  0  0  0  0  0  0  0
    8.4816   -1.4593    1.1453 C   0  0  0  0  0  0  0  0  0  0  0  0
    5.9953    1.9253    1.3463 C   0  0  0  0  0  0  0  0  0  0  0  0
    4.4061    1.2489    1.3105 Cl  0  0  0  0  0  0  0  0  0  0  0  0
    6.0486    3.0872    2.0258 N   0  0  0  0  0  0  0  0  0  0  0  0
    8.3792    5.3421    2.8360 H   0  0  0  0  0  0  0  0  0  0  0  0
    6.9603    4.8917    3.8188 H   0  0  0  0  0  0  0  0  0  0  0  0
    6.7430    5.7360    2.2683 H   0  0  0  0  0  0  0  0  0  0  0  0
    5.9289   -0.0978   -0.2531 H   0  0  0  0  0  0  0  0  0  0  0  0
    6.9354   -1.7269   -1.8742 H   0  0  0  0  0  0  0  0  0  0  0  0
    9.7204   -4.4118   -0.0354 H   0  0  0  0  0  0  0  0  0  0  0  0
   11.0421   -2.3035    2.1516 H   0  0  0  0  0  0  0  0  0  0  0  0
   10.6001   -4.0070    2.0941 H   0  0  0  0  0  0  0  0  0  0  0  0
    8.1989   -4.2023    3.1531 H   0  0  0  0  0  0  0  0  0  0  0  0
    7.2540   -5.7497    4.5719 H   0  0  0  0  0  0  0  0  0  0  0  0
    5.2697   -4.4866    7.9053 H   0  0  0  0  0  0  0  0  0  0  0  0
    5.2856   -2.0950    8.5701 H   0  0  0  0  0  0  0  0  0  0  0  0
    6.8953   -0.3246    9.1832 H   0  0  0  0  0  0  0  0  0  0  0  0
    8.8453    0.0902    7.6990 H   0  0  0  0  0  0  0  0  0  0  0  0
    9.1248   -1.2055    5.6681 H   0  0  0  0  0  0  0  0  0  0  0  0
    8.5755   -0.7886    1.9988 H   0  0  0  0  0  0  0  0  0  0  0  0
  1  2  1  0  0  0  0
  1 32  1  0  0  0  0
  1 33  1  0  0  0  0
  1 34  1  0  0  0  0
  2  3  2  0  0  0  0
  2 31  1  0  0  0  0
  3  4  1  0  0  0  0
  4  5  1  0  0  0  0
  4  6  2  0  0  0  0
  6  7  1  0  0  0  0
  6 29  1  0  0  0  0
  7  8  1  0  0  0  0
  7 35  1  0  0  0  0
  8  9  2  0  0  0  0
  8 28  1  0  0  0  0
  9 10  1  0  0  0  0
  9 36  1  0  0  0  0
 10 11  1  0  0  0  0
 10 12  2  0  0  0  0
 12 13  1  0  0  0  0
 12 37  1  0  0  0  0
 13 14  1  0  0  0  0
 13 28  2  0  0  0  0
 14 15  1  0  0  0  0
 14 38  1  0  0  0  0
 14 39  1  0  0  0  0
 15 16  2  0  0  0  0
 15 17  1  0  0  0  0
 17 18  1  0  0  0  0
 17 40  1  0  0  0  0
 18 19  2  0  0  0  0
 18 27  1  0  0  0  0
 19 20  1  0  0  0  0
 19 41  1  0  0  0  0
 20 21  2  0  0  0  0
 21 22  1  0  0  0  0
 21 42  1  0  0  0  0
 22 23  2  0  0  0  0
 22 27  1  0  0  0  0
 23 24  1  0  0  0  0
 23 43  1  0  0  0  0
 24 25  2  0  0  0  0
 24 44  1  0  0  0  0
 25 26  1  0  0  0  0
 25 45  1  0  0  0  0
 26 27  2  0  0  0  0
 26 46  1  0  0  0  0
 28 47  1  0  0  0  0
 29 30  1  0  0  0  0
 29 31  2  0  0  0  0
M  END
$$$$
