
 OpenBabel07202414123D

 61 63  0  0  1  0  0  0  0  0999 V2000
    2.5929    1.5153   -0.1547 C   0  0  0  0  0  0  0  0  0  0  0  0
    2.5446    0.0125    0.2069 C   0  0  0  0  0  0  0  0  0  0  0  0
    3.3154   -0.1600    1.5327 C   0  0  0  0  0  0  0  0  0  0  0  0
    1.0604   -0.3487    0.4443 C   0  0  0  0  0  0  0  0  0  0  0  0
    3.1195   -0.9053   -0.8876 C   0  0  0  0  0  0  0  0  0  0  0  0
    3.5490   -0.4308   -2.1303 C   0  0  0  0  0  0  0  0  0  0  0  0
    3.9459   -1.3044   -3.1632 C   0  0  0  0  0  0  0  0  0  0  0  0
    3.9542   -2.6973   -3.0077 C   0  0  0  0  0  0  0  0  0  0  0  0
    3.6250   -3.1594   -1.7221 C   0  0  0  0  0  0  0  0  0  0  0  0
    3.1980   -2.2913   -0.6978 C   0  0  0  0  0  0  0  0  0  0  0  0
    4.2176   -3.6157   -4.1271 N   0  0  0  0  0  0  0  0  0  0  0  0
    3.6310   -4.9980   -4.0021 C   0  0  3  0  0  0  0  0  0  0  0  0
    2.5646   -5.3492   -5.0395 C   0  0  0  0  0  0  0  0  0  0  0  0
    1.7060   -4.3621   -5.5524 C   0  0  0  0  0  0  0  0  0  0  0  0
    0.6850   -4.7075   -6.4329 C   0  0  0  0  0  0  0  0  0  0  0  0
    0.5376   -6.0387   -6.7724 C   0  0  0  0  0  0  0  0  0  0  0  0
    1.3313   -7.0206   -6.2993 N   0  0  0  0  0  0  0  0  0  0  0  0
    2.3079   -6.6614   -5.4335 C   0  0  0  0  0  0  0  0  0  0  0  0
    4.6448   -6.1319   -3.6401 C   0  0  0  0  0  0  0  0  0  0  0  0
    4.2620   -7.1431   -3.0404 O   0  0  0  0  0  0  0  0  0  0  0  0
    5.9421   -6.0265   -4.0787 N   0  0  0  0  0  0  0  0  0  0  0  0
    6.9263   -7.0577   -3.8071 C   0  0  0  0  0  0  0  0  0  0  0  0
    8.3378   -6.5167   -3.7675 C   0  0  0  0  0  0  0  0  0  0  0  0
    8.6172   -5.2296   -3.2752 C   0  0  0  0  0  0  0  0  0  0  0  0
    9.9316   -4.7653   -3.2002 C   0  0  0  0  0  0  0  0  0  0  0  0
   10.9747   -5.5917   -3.5957 C   0  0  0  0  0  0  0  0  0  0  0  0
   10.7281   -6.8756   -4.0651 C   0  0  0  0  0  0  0  0  0  0  0  0
    9.4127   -7.3399   -4.1477 C   0  0  0  0  0  0  0  0  0  0  0  0
   12.2361   -5.1492   -3.5127 F   0  0  0  0  0  0  0  0  0  0  0  0
    4.9020   -3.1605   -5.2700 C   0  0  0  0  0  0  0  0  0  0  0  0
    5.4371   -2.0568   -5.3795 O   0  0  0  0  0  0  0  0  0  0  0  0
    5.0907   -4.0995   -6.4202 C   0  0  0  0  0  0  0  0  0  0  0  0
    6.1891   -3.9919   -7.1824 C   0  0  0  0  0  0  0  0  0  0  0  0
    2.1758    2.1311    0.6513 H   0  0  0  0  0  0  0  0  0  0  0  0
    2.0088    1.7333   -1.0567 H   0  0  0  0  0  0  0  0  0  0  0  0
    3.6212    1.8550   -0.3241 H   0  0  0  0  0  0  0  0  0  0  0  0
    2.9042    0.4929    2.3128 H   0  0  0  0  0  0  0  0  0  0  0  0
    4.3742    0.0948    1.4111 H   0  0  0  0  0  0  0  0  0  0  0  0
    3.2612   -1.1842    1.9163 H   0  0  0  0  0  0  0  0  0  0  0  0
    0.6233    0.2740    1.2343 H   0  0  0  0  0  0  0  0  0  0  0  0
    0.9320   -1.3930    0.7495 H   0  0  0  0  0  0  0  0  0  0  0  0
    0.4656   -0.1963   -0.4643 H   0  0  0  0  0  0  0  0  0  0  0  0
    3.5609    0.6327   -2.3563 H   0  0  0  0  0  0  0  0  0  0  0  0
    4.1937   -0.8261   -4.1057 H   0  0  0  0  0  0  0  0  0  0  0  0
    3.6868   -4.2093   -1.4492 H   0  0  0  0  0  0  0  0  0  0  0  0
    2.9061   -2.7338    0.2532 H   0  0  0  0  0  0  0  0  0  0  0  0
    2.9898   -4.9911   -3.1136 H   0  0  0  0  0  0  0  0  0  0  0  0
    1.8119   -3.3182   -5.2620 H   0  0  0  0  0  0  0  0  0  0  0  0
    0.0108   -3.9568   -6.8291 H   0  0  0  0  0  0  0  0  0  0  0  0
   -0.2523   -6.3641   -7.4431 H   0  0  0  0  0  0  0  0  0  0  0  0
    2.8761   -7.5066   -5.0541 H   0  0  0  0  0  0  0  0  0  0  0  0
    6.2109   -5.3238   -4.7497 H   0  0  0  0  0  0  0  0  0  0  0  0
    6.8286   -7.7993   -4.6092 H   0  0  0  0  0  0  0  0  0  0  0  0
    6.7030   -7.5511   -2.8549 H   0  0  0  0  0  0  0  0  0  0  0  0
    7.8135   -4.5779   -2.9373 H   0  0  0  0  0  0  0  0  0  0  0  0
   10.1459   -3.7690   -2.8270 H   0  0  0  0  0  0  0  0  0  0  0  0
   11.5615   -7.5086   -4.3531 H   0  0  0  0  0  0  0  0  0  0  0  0
    9.2347   -8.3534   -4.5027 H   0  0  0  0  0  0  0  0  0  0  0  0
    4.3573   -4.8503   -6.6634 H   0  0  0  0  0  0  0  0  0  0  0  0
    6.9448   -3.2327   -6.9916 H   0  0  0  0  0  0  0  0  0  0  0  0
    6.3533   -4.6548   -8.0254 H   0  0  0  0  0  0  0  0  0  0  0  0
  1  2  1  0  0  0  0
  1 34  1  0  0  0  0
  1 35  1  0  0  0  0
  1 36  1  0  0  0  0
  2  3  1  0  0  0  0
  2  4  1  0  0  0  0
  2  5  1  0  0  0  0
  3 37  1  0  0  0  0
  3 38  1  0  0  0  0
  3 39  1  0  0  0  0
  4 40  1  0  0  0  0
  4 41  1  0  0  0  0
  4 42  1  0  0  0  0
  5  6  1  0  0  0  0
  5 10  2  0  0  0  0
  6  7  2  0  0  0  0
  6 43  1  0  0  0  0
  7  8  1  0  0  0  0
  7 44  1  0  0  0  0
  8  9  2  0  0  0  0
  8 11  1  0  0  0  0
  9 10  1  0  0  0  0
  9 45  1  0  0  0  0
 10 46  1  0  0  0  0
 11 12  1  0  0  0  0
 11 30  1  0  0  0  0
 12 13  1  0  0  0  0
 12 19  1  0  0  0  0
 12 47  1  0  0  0  0
 13 14  1  0  0  0  0
 13 18  2  0  0  0  0
 14 15  2  0  0  0  0
 14 48  1  0  0  0  0
 15 16  1  0  0  0  0
 15 49  1  0  0  0  0
 16 17  2  0  0  0  0
 16 50  1  0  0  0  0
 17 18  1  0  0  0  0
 18 51  1  0  0  0  0
 19 20  2  0  0  0  0
 19 21  1  0  0  0  0
 21 22  1  0  0  0  0
 21 52  1  0  0  0  0
 22 23  1  0  0  0  0
 22 53  1  0  0  0  0
 22 54  1  0  0  0  0
 23 24  1  0  0  0  0
 23 28  2  0  0  0  0
 24 25  2  0  0  0  0
 24 55  1  0  0  0  0
 25 26  1  0  0  0  0
 25 56  1  0  0  0  0
 26 27  2  0  0  0  0
 26 29  1  0  0  0  0
 27 28  1  0  0  0  0
 27 57  1  0  0  0  0
 28 58  1  0  0  0  0
 30 31  2  0  0  0  0
 30 32  1  0  0  0  0
 32 33  2  0  0  0  0
 32 59  1  0  0  0  0
 33 60  1  0  0  0  0
 33 61  1  0  0  0  0
M  END
$$$$
