
 OpenBabel07202414133D

 37 38  0  0  1  0  0  0  0  0999 V2000
    0.9559   -0.0136    0.2373 C   0  0  0  0  0  0  0  0  0  0  0  0
    2.4822   -0.0614    0.1066 C   0  0  3  0  0  0  0  0  0  0  0  0
    3.0207    1.0073   -0.8806 C   0  0  0  0  0  0  0  0  0  0  0  0
    2.6524    0.7297   -2.2883 N   0  0  0  0  0  0  0  0  0  0  0  0
    3.1378   -0.6247   -2.6624 C   0  0  0  0  0  0  0  0  0  0  0  0
    2.6440   -1.7310   -1.7104 C   0  0  0  0  0  0  0  0  0  0  0  0
    2.9374   -1.4040   -0.3101 N   0  0  0  0  0  0  0  0  0  0  0  0
    3.7895   -2.2307    0.4116 C   0  0  0  0  0  0  0  0  0  0  0  0
    4.2826   -3.2484   -0.0843 O   0  0  0  0  0  0  0  0  0  0  0  0
    4.1013   -1.8782    1.8542 C   0  0  0  0  0  0  0  0  0  0  0  0
    5.4754   -0.7560    1.9023 Cl  0  0  0  0  0  0  0  0  0  0  0  0
    3.2406    1.7208   -3.2083 C   0  0  0  0  0  0  0  0  0  0  0  0
    2.7708    3.1424   -2.9811 C   0  0  0  0  0  0  0  0  0  0  0  0
    1.4143    3.4815   -3.0967 C   0  0  0  0  0  0  0  0  0  0  0  0
    0.9956    4.8040   -2.9302 C   0  0  0  0  0  0  0  0  0  0  0  0
    1.9275    5.8013   -2.6433 C   0  0  0  0  0  0  0  0  0  0  0  0
    3.2741    5.4703   -2.5139 C   0  0  0  0  0  0  0  0  0  0  0  0
    3.6986    4.1522   -2.6806 C   0  0  0  0  0  0  0  0  0  0  0  0
    4.4255    6.6974   -2.1529 Cl  0  0  0  0  0  0  0  0  0  0  0  0
    0.6334    0.9616    0.6165 H   0  0  0  0  0  0  0  0  0  0  0  0
    0.6068   -0.7818    0.9357 H   0  0  0  0  0  0  0  0  0  0  0  0
    0.4486   -0.1816   -0.7180 H   0  0  0  0  0  0  0  0  0  0  0  0
    2.8878    0.1849    1.0884 H   0  0  0  0  0  0  0  0  0  0  0  0
    4.1146    1.0504   -0.7856 H   0  0  0  0  0  0  0  0  0  0  0  0
    2.6282    1.9815   -0.5672 H   0  0  0  0  0  0  0  0  0  0  0  0
    4.2362   -0.6398   -2.6720 H   0  0  0  0  0  0  0  0  0  0  0  0
    2.7964   -0.8675   -3.6759 H   0  0  0  0  0  0  0  0  0  0  0  0
    3.0957   -2.6854   -1.9998 H   0  0  0  0  0  0  0  0  0  0  0  0
    1.5595   -1.8549   -1.8036 H   0  0  0  0  0  0  0  0  0  0  0  0
    4.3813   -2.7885    2.3931 H   0  0  0  0  0  0  0  0  0  0  0  0
    3.2407   -1.4439    2.3683 H   0  0  0  0  0  0  0  0  0  0  0  0
    2.9682    1.4637   -4.2409 H   0  0  0  0  0  0  0  0  0  0  0  0
    4.3373    1.6820   -3.1618 H   0  0  0  0  0  0  0  0  0  0  0  0
    0.6794    2.7095   -3.3184 H   0  0  0  0  0  0  0  0  0  0  0  0
   -0.0571    5.0568   -3.0287 H   0  0  0  0  0  0  0  0  0  0  0  0
    1.5994    6.8302   -2.5239 H   0  0  0  0  0  0  0  0  0  0  0  0
    4.7545    3.9124   -2.5805 H   0  0  0  0  0  0  0  0  0  0  0  0
  1  2  1  0  0  0  0
  1 20  1  0  0  0  0
  1 21  1  0  0  0  0
  1 22  1  0  0  0  0
  2  3  1  0  0  0  0
  2  7  1  0  0  0  0
  2 23  1  0  0  0  0
  3  4  1  0  0  0  0
  3 24  1  0  0  0  0
  3 25  1  0  0  0  0
  4  5  1  0  0  0  0
  4 12  1  0  0  0  0
  5  6  1  0  0  0  0
  5 26  1  0  0  0  0
  5 27  1  0  0  0  0
  6  7  1  0  0  0  0
  6 28  1  0  0  0  0
  6 29  1  0  0  0  0
  7  8  1  0  0  0  0
  8  9  2  0  0  0  0
  8 10  1  0  0  0  0
 10 11  1  0  0  0  0
 10 30  1  0  0  0  0
 10 31  1  0  0  0  0
 12 13  1  0  0  0  0
 12 32  1  0  0  0  0
 12 33  1  0  0  0  0
 13 14  1  0  0  0  0
 13 18  2  0  0  0  0
 14 15  2  0  0  0  0
 14 34  1  0  0  0  0
 15 16  1  0  0  0  0
 15 35  1  0  0  0  0
 16 17  2  0  0  0  0
 16 36  1  0  0  0  0
 17 18  1  0  0  0  0
 17 19  1  0  0  0  0
 18 37  1  0  0  0  0
M  END
$$$$
