
 OpenBabel07202414193D

 47 50  0  0  0  0  0  0  0  0999 V2000
    1.5180   -0.8011    1.0205 O   0  0  0  0  0  0  0  0  0  0  0  0
    2.4092   -0.3183    0.3155 C   0  0  0  0  0  0  0  0  0  0  0  0
    2.7058   -0.9592   -1.0332 C   0  0  0  0  0  0  0  0  0  0  0  0
    1.9067   -0.3788   -2.1810 C   0  0  0  0  0  0  0  0  0  0  0  0
    0.5793    0.0096   -1.9683 C   0  0  0  0  0  0  0  0  0  0  0  0
   -0.2383    0.5136   -2.9155 N   0  0  0  0  0  0  0  0  0  0  0  0
    0.2793    0.6306   -4.1537 C   0  0  0  0  0  0  0  0  0  0  0  0
    1.5765    0.2648   -4.5072 C   0  0  0  0  0  0  0  0  0  0  0  0
    2.0412    0.4234   -5.8248 C   0  0  0  0  0  0  0  0  0  0  0  0
    3.3348    0.0447   -6.1723 C   0  0  0  0  0  0  0  0  0  0  0  0
    4.1670   -0.5150   -5.2118 C   0  0  0  0  0  0  0  0  0  0  0  0
    3.7127   -0.6791   -3.8997 C   0  0  0  0  0  0  0  0  0  0  0  0
    2.4154   -0.2755   -3.5040 C   0  0  0  0  0  0  0  0  0  0  0  0
    3.1366    0.7931    0.7116 N   0  0  0  0  0  0  0  0  0  0  0  0
    4.1381    1.5008   -0.0862 C   0  0  0  0  0  0  0  0  0  0  0  0
    5.3893    1.7979    0.7494 C   0  0  0  0  0  0  0  0  0  0  0  0
    5.0724    2.5206    2.0770 C   0  0  0  0  0  0  0  0  0  0  0  0
    4.7222    4.0037    1.9739 C   0  0  0  0  0  0  0  0  0  0  0  0
    4.7478    4.7208    0.7686 C   0  0  0  0  0  0  0  0  0  0  0  0
    4.3871    6.0707    0.7219 C   0  0  0  0  0  0  0  0  0  0  0  0
    4.0128    6.7373    1.8835 C   0  0  0  0  0  0  0  0  0  0  0  0
    4.0262    6.0604    3.0964 C   0  0  0  0  0  0  0  0  0  0  0  0
    4.3879    4.7146    3.1429 C   0  0  0  0  0  0  0  0  0  0  0  0
    3.9886    1.7056    2.8230 C   0  0  0  0  0  0  0  0  0  0  0  0
    2.7609    1.4667    1.9532 C   0  0  0  0  0  0  0  0  0  0  0  0
    2.4652   -2.0260   -0.9535 H   0  0  0  0  0  0  0  0  0  0  0  0
    3.7831   -0.9279   -1.2027 H   0  0  0  0  0  0  0  0  0  0  0  0
    0.1061   -0.0778   -0.9917 H   0  0  0  0  0  0  0  0  0  0  0  0
   -0.4119    1.0386   -4.8872 H   0  0  0  0  0  0  0  0  0  0  0  0
    1.3931    0.8462   -6.5903 H   0  0  0  0  0  0  0  0  0  0  0  0
    3.6880    0.1797   -7.1908 H   0  0  0  0  0  0  0  0  0  0  0  0
    5.1732   -0.8273   -5.4801 H   0  0  0  0  0  0  0  0  0  0  0  0
    4.3986   -1.1388   -3.1937 H   0  0  0  0  0  0  0  0  0  0  0  0
    3.6678    2.4186   -0.4512 H   0  0  0  0  0  0  0  0  0  0  0  0
    4.4359    0.9367   -0.9702 H   0  0  0  0  0  0  0  0  0  0  0  0
    6.1237    2.3542    0.1562 H   0  0  0  0  0  0  0  0  0  0  0  0
    5.8676    0.8384    0.9927 H   0  0  0  0  0  0  0  0  0  0  0  0
    5.9888    2.4833    2.6817 H   0  0  0  0  0  0  0  0  0  0  0  0
    5.0427    4.2569   -0.1687 H   0  0  0  0  0  0  0  0  0  0  0  0
    4.3971    6.6000   -0.2288 H   0  0  0  0  0  0  0  0  0  0  0  0
    3.7262    7.7827    1.8424 H   0  0  0  0  0  0  0  0  0  0  0  0
    3.7512    6.5806    4.0119 H   0  0  0  0  0  0  0  0  0  0  0  0
    4.4059    4.2230    4.1133 H   0  0  0  0  0  0  0  0  0  0  0  0
    3.6825    2.1784    3.7613 H   0  0  0  0  0  0  0  0  0  0  0  0
    4.4151    0.7316    3.0991 H   0  0  0  0  0  0  0  0  0  0  0  0
    2.2715    2.4119    1.6856 H   0  0  0  0  0  0  0  0  0  0  0  0
    2.0306    0.8796    2.5180 H   0  0  0  0  0  0  0  0  0  0  0  0
  1  2  2  0  0  0  0
  2  3  1  0  0  0  0
  2 14  1  0  0  0  0
  3  4  1  0  0  0  0
  3 26  1  0  0  0  0
  3 27  1  0  0  0  0
  4  5  1  0  0  0  0
  4 13  2  0  0  0  0
  5  6  2  0  0  0  0
  5 28  1  0  0  0  0
  6  7  1  0  0  0  0
  7  8  2  0  0  0  0
  7 29  1  0  0  0  0
  8  9  1  0  0  0  0
  8 13  1  0  0  0  0
  9 10  2  0  0  0  0
  9 30  1  0  0  0  0
 10 11  1  0  0  0  0
 10 31  1  0  0  0  0
 11 12  2  0  0  0  0
 11 32  1  0  0  0  0
 12 13  1  0  0  0  0
 12 33  1  0  0  0  0
 14 15  1  0  0  0  0
 14 25  1  0  0  0  0
 15 16  1  0  0  0  0
 15 34  1  0  0  0  0
 15 35  1  0  0  0  0
 16 17  1  0  0  0  0
 16 36  1  0  0  0  0
 16 37  1  0  0  0  0
 17 18  1  0  0  0  0
 17 24  1  0  0  0  0
 17 38  1  0  0  0  0
 18 19  1  0  0  0  0
 18 23  2  0  0  0  0
 19 20  2  0  0  0  0
 19 39  1  0  0  0  0
 20 21  1  0  0  0  0
 20 40  1  0  0  0  0
 21 22  2  0  0  0  0
 21 41  1  0  0  0  0
 22 23  1  0  0  0  0
 22 42  1  0  0  0  0
 23 43  1  0  0  0  0
 24 25  1  0  0  0  0
 24 44  1  0  0  0  0
 24 45  1  0  0  0  0
 25 46  1  0  0  0  0
 25 47  1  0  0  0  0
M  END
$$$$
