
 OpenBabel07202414123D

 74 78  0  0  1  0  0  0  0  0999 V2000
   -0.4004    3.9990   -0.2816 C   0  0  0  0  0  0  0  0  0  0  0  0
   -0.8208    3.7238    1.1895 C   0  0  0  0  0  0  0  0  0  0  0  0
   -1.6718    4.9258    1.6533 C   0  0  0  0  0  0  0  0  0  0  0  0
   -1.7334    2.4792    1.1384 C   0  0  0  0  0  0  0  0  0  0  0  0
    0.3934    3.5560    2.1361 C   0  0  0  0  0  0  0  0  0  0  0  0
    1.5892    4.2212    1.8757 C   0  0  0  0  0  0  0  0  0  0  0  0
    2.7074    4.1245    2.7296 C   0  0  0  0  0  0  0  0  0  0  0  0
    2.7316    3.3604    3.9113 C   0  0  0  0  0  0  0  0  0  0  0  0
    3.9208    3.3555    4.8071 N   0  0  0  0  0  0  0  0  0  0  0  0
    3.7635    3.1432    6.3029 C   0  0  3  0  0  0  0  0  0  0  0  0
    2.4515    3.7056    6.8532 C   0  0  0  0  0  0  0  0  0  0  0  0
    1.5850    3.0542    7.4274 O   0  0  0  0  0  0  0  0  0  0  0  0
    2.4017    5.0728    6.6957 N   0  0  0  0  0  0  0  0  0  0  0  0
    1.2119    5.7936    7.0274 C   0  0  0  0  0  0  0  0  0  0  0  0
    1.5868    7.2230    7.3635 C   0  0  0  0  0  0  0  0  0  0  0  0
    0.3742    7.9544    7.8425 C   0  0  0  0  0  0  0  0  0  0  0  0
   -0.4378    8.6464    6.9449 C   0  0  0  0  0  0  0  0  0  0  0  0
   -1.6114    9.2508    7.3912 C   0  0  0  0  0  0  0  0  0  0  0  0
   -1.9756    9.1555    8.7336 C   0  0  0  0  0  0  0  0  0  0  0  0
   -1.1665    8.4559    9.6275 C   0  0  0  0  0  0  0  0  0  0  0  0
   -1.5365    8.3438   10.9060 F   0  0  0  0  0  0  0  0  0  0  0  0
    0.0051    7.8480    9.1921 C   0  0  0  0  0  0  0  0  0  0  0  0
    4.0390    1.7619    6.8197 C   0  0  0  0  0  0  0  0  0  0  0  0
    3.6001    0.6502    6.1943 C   0  0  0  0  0  0  0  0  0  0  0  0
    4.7244   -0.3280    6.0918 C   0  0  0  0  0  0  0  0  0  0  0  0
    4.8965   -0.9964    5.0707 O   0  0  0  0  0  0  0  0  0  0  0  0
    5.5570   -0.4283    7.1966 N   0  0  0  0  0  0  0  0  0  0  0  0
    5.1378    0.2352    8.3692 C   0  0  0  0  0  0  0  0  0  0  0  0
    5.1616   -0.4618    9.5732 C   0  0  0  0  0  0  0  0  0  0  0  0
    4.5720    0.1138   10.6911 C   0  0  0  0  0  0  0  0  0  0  0  0
    4.0783    1.4209   10.6172 C   0  0  0  0  0  0  0  0  0  0  0  0
    4.0476    2.1135    9.3932 C   0  0  0  0  0  0  0  0  0  0  0  0
    4.4683    1.4650    8.2308 C   0  0  0  0  0  0  0  0  0  0  0  0
    5.1734    3.8081    4.2783 C   0  0  0  0  0  0  0  0  0  0  0  0
    5.3867    4.0210    3.0858 O   0  0  0  0  0  0  0  0  0  0  0  0
    6.2807    4.1243    5.1929 C   0  0  0  0  0  0  0  0  0  0  0  0
    7.1423    5.1996    5.0349 C   0  0  0  0  0  0  0  0  0  0  0  0
    8.0507    5.1055    6.0454 N   0  0  0  0  0  0  0  0  0  0  0  0
    7.7342    3.9890    6.7747 C   0  0  0  0  0  0  0  0  0  0  0  0
    6.6710    3.3918    6.2893 N   0  0  0  0  0  0  0  0  0  0  0  0
    1.5286    2.6896    4.1756 C   0  0  0  0  0  0  0  0  0  0  0  0
    0.3865    2.7924    3.3165 C   0  0  0  0  0  0  0  0  0  0  0  0
   -1.2749    4.0591   -0.9422 H   0  0  0  0  0  0  0  0  0  0  0  0
    0.2495    3.2045   -0.6650 H   0  0  0  0  0  0  0  0  0  0  0  0
    0.1254    4.9534   -0.3958 H   0  0  0  0  0  0  0  0  0  0  0  0
   -2.5295    5.0825    0.9853 H   0  0  0  0  0  0  0  0  0  0  0  0
   -1.0902    5.8553    1.6542 H   0  0  0  0  0  0  0  0  0  0  0  0
   -2.0663    4.7772    2.6638 H   0  0  0  0  0  0  0  0  0  0  0  0
   -2.5719    2.6381    0.4461 H   0  0  0  0  0  0  0  0  0  0  0  0
   -2.1741    2.2439    2.1116 H   0  0  0  0  0  0  0  0  0  0  0  0
   -1.1842    1.5990    0.7865 H   0  0  0  0  0  0  0  0  0  0  0  0
    1.7016    4.8571    1.0014 H   0  0  0  0  0  0  0  0  0  0  0  0
    3.5454    4.7318    2.4073 H   0  0  0  0  0  0  0  0  0  0  0  0
    4.4947    3.7968    6.7886 H   0  0  0  0  0  0  0  0  0  0  0  0
    3.0475    5.4853    6.0322 H   0  0  0  0  0  0  0  0  0  0  0  0
    0.7062    5.2972    7.8647 H   0  0  0  0  0  0  0  0  0  0  0  0
    0.5442    5.7387    6.1603 H   0  0  0  0  0  0  0  0  0  0  0  0
    2.0189    7.7202    6.4861 H   0  0  0  0  0  0  0  0  0  0  0  0
    2.3694    7.2428    8.1330 H   0  0  0  0  0  0  0  0  0  0  0  0
   -0.1734    8.6995    5.8906 H   0  0  0  0  0  0  0  0  0  0  0  0
   -2.2496    9.7839    6.6850 H   0  0  0  0  0  0  0  0  0  0  0  0
   -2.8936    9.6147    9.0917 H   0  0  0  0  0  0  0  0  0  0  0  0
    0.5953    7.2839    9.9032 H   0  0  0  0  0  0  0  0  0  0  0  0
    2.8686    0.0541    6.7655 H   0  0  0  0  0  0  0  0  0  0  0  0
    6.4651   -0.1013    6.8829 H   0  0  0  0  0  0  0  0  0  0  0  0
    5.5238   -1.4872    9.6072 H   0  0  0  0  0  0  0  0  0  0  0  0
    4.4628   -0.4663   11.6048 H   0  0  0  0  0  0  0  0  0  0  0  0
    3.6355    1.8676   11.5061 H   0  0  0  0  0  0  0  0  0  0  0  0
    3.5755    3.0904    9.3698 H   0  0  0  0  0  0  0  0  0  0  0  0
    7.1782    5.9859    4.2939 H   0  0  0  0  0  0  0  0  0  0  0  0
    8.8282    5.7202    6.2203 H   0  0  0  0  0  0  0  0  0  0  0  0
    8.3028    3.6754    7.6307 H   0  0  0  0  0  0  0  0  0  0  0  0
    1.4175    2.0474    5.0449 H   0  0  0  0  0  0  0  0  0  0  0  0
   -0.5112    2.2540    3.6162 H   0  0  0  0  0  0  0  0  0  0  0  0
  1  2  1  0  0  0  0
  1 43  1  0  0  0  0
  1 44  1  0  0  0  0
  1 45  1  0  0  0  0
  2  3  1  0  0  0  0
  2  4  1  0  0  0  0
  2  5  1  0  0  0  0
  3 46  1  0  0  0  0
  3 47  1  0  0  0  0
  3 48  1  0  0  0  0
  4 49  1  0  0  0  0
  4 50  1  0  0  0  0
  4 51  1  0  0  0  0
  5  6  1  0  0  0  0
  5 42  2  0  0  0  0
  6  7  2  0  0  0  0
  6 52  1  0  0  0  0
  7  8  1  0  0  0  0
  7 53  1  0  0  0  0
  8  9  1  0  0  0  0
  8 41  2  0  0  0  0
  9 10  1  0  0  0  0
  9 34  1  0  0  0  0
 10 11  1  0  0  0  0
 10 23  1  0  0  0  0
 10 54  1  0  0  0  0
 11 12  2  0  0  0  0
 11 13  1  0  0  0  0
 13 14  1  0  0  0  0
 13 55  1  0  0  0  0
 14 15  1  0  0  0  0
 14 56  1  0  0  0  0
 14 57  1  0  0  0  0
 15 16  1  0  0  0  0
 15 58  1  0  0  0  0
 15 59  1  0  0  0  0
 16 17  1  0  0  0  0
 16 22  2  0  0  0  0
 17 18  2  0  0  0  0
 17 60  1  0  0  0  0
 18 19  1  0  0  0  0
 18 61  1  0  0  0  0
 19 20  2  0  0  0  0
 19 62  1  0  0  0  0
 20 21  1  0  0  0  0
 20 22  1  0  0  0  0
 22 63  1  0  0  0  0
 23 24  2  0  0  0  0
 23 33  1  0  0  0  0
 24 25  1  0  0  0  0
 24 64  1  0  0  0  0
 25 26  2  0  0  0  0
 25 27  1  0  0  0  0
 27 28  1  0  0  0  0
 27 65  1  0  0  0  0
 28 29  1  0  0  0  0
 28 33  2  0  0  0  0
 29 30  2  0  0  0  0
 29 66  1  0  0  0  0
 30 31  1  0  0  0  0
 30 67  1  0  0  0  0
 31 32  2  0  0  0  0
 31 68  1  0  0  0  0
 32 33  1  0  0  0  0
 32 69  1  0  0  0  0
 34 35  2  0  0  0  0
 34 36  1  0  0  0  0
 36 37  2  0  0  0  0
 36 40  1  0  0  0  0
 37 38  1  0  0  0  0
 37 70  1  0  0  0  0
 38 39  1  0  0  0  0
 38 71  1  0  0  0  0
 39 40  2  0  0  0  0
 39 72  1  0  0  0  0
 41 42  1  0  0  0  0
 41 73  1  0  0  0  0
 42 74  1  0  0  0  0
M  END
$$$$
