
 OpenBabel07202414123D

 58 59  0  0  1  0  0  0  0  0999 V2000
    3.5209    1.2025    0.0133 C   0  0  0  0  0  0  0  0  0  0  0  0
    2.4291    0.1136    0.1146 C   0  0  0  0  0  0  0  0  0  0  0  0
    1.5853    0.4261    1.3673 C   0  0  0  0  0  0  0  0  0  0  0  0
    1.5464    0.2263   -1.1464 C   0  0  0  0  0  0  0  0  0  0  0  0
    2.9953   -1.3085    0.2036 C   0  0  0  0  0  0  0  0  0  0  0  0
    4.3619   -1.5788    0.1217 C   0  0  0  0  0  0  0  0  0  0  0  0
    4.8574   -2.8912    0.1214 C   0  0  0  0  0  0  0  0  0  0  0  0
    4.0204   -4.0054    0.2221 C   0  0  0  0  0  0  0  0  0  0  0  0
    2.6532   -3.7248    0.3774 C   0  0  0  0  0  0  0  0  0  0  0  0
    2.1482   -2.4158    0.3498 C   0  0  0  0  0  0  0  0  0  0  0  0
    4.5267   -5.3720    0.1134 N   0  0  0  0  0  0  0  0  0  0  0  0
    3.5602   -6.4867   -0.1554 C   0  0  3  0  0  0  0  0  0  0  0  0
    3.0279   -7.1154    1.1418 C   0  0  0  0  0  0  0  0  0  0  0  0
    2.8678   -6.4098    2.3424 C   0  0  0  0  0  0  0  0  0  0  0  0
    2.4154   -7.0514    3.4912 C   0  0  0  0  0  0  0  0  0  0  0  0
    2.1499   -8.4033    3.4191 C   0  0  0  0  0  0  0  0  0  0  0  0
    2.2781   -9.1273    2.2892 N   0  0  0  0  0  0  0  0  0  0  0  0
    2.6955   -8.4706    1.1822 C   0  0  0  0  0  0  0  0  0  0  0  0
    2.4507   -6.3894   -1.2724 C   0  0  0  0  0  0  0  0  0  0  0  0
    1.6493   -7.3099   -1.4587 O   0  0  0  0  0  0  0  0  0  0  0  0
    2.4278   -5.2788   -2.0875 N   0  0  0  0  0  0  0  0  0  0  0  0
    1.4430   -5.1384   -3.1526 C   0  0  0  0  0  0  0  0  0  0  0  0
    1.4809   -3.7770   -3.8532 C   0  0  0  0  0  0  0  0  0  0  0  0
    3.1162   -3.5120   -4.6308 S   0  0  0  0  0  0  0  0  0  0  0  0
    2.8137   -1.9006   -5.3925 C   0  0  0  0  0  0  0  0  0  0  0  0
    5.8984   -5.6454    0.3527 C   0  0  0  0  0  0  0  0  0  0  0  0
    6.7503   -4.8119    0.6659 O   0  0  0  0  0  0  0  0  0  0  0  0
    6.3862   -7.0641    0.2585 C   0  0  0  0  0  0  0  0  0  0  0  0
    7.6459   -7.3134   -0.1235 C   0  0  0  0  0  0  0  0  0  0  0  0
    3.0800    2.2024   -0.0664 H   0  0  0  0  0  0  0  0  0  0  0  0
    4.1543    1.0607   -0.8708 H   0  0  0  0  0  0  0  0  0  0  0  0
    4.1691    1.2026    0.8985 H   0  0  0  0  0  0  0  0  0  0  0  0
    1.1814    1.4438    1.3249 H   0  0  0  0  0  0  0  0  0  0  0  0
    2.1881    0.3431    2.2795 H   0  0  0  0  0  0  0  0  0  0  0  0
    0.7333   -0.2536    1.4766 H   0  0  0  0  0  0  0  0  0  0  0  0
    1.1677    1.2471   -1.2738 H   0  0  0  0  0  0  0  0  0  0  0  0
    0.6769   -0.4393   -1.1024 H   0  0  0  0  0  0  0  0  0  0  0  0
    2.1114   -0.0341   -2.0498 H   0  0  0  0  0  0  0  0  0  0  0  0
    5.0967   -0.7824    0.0325 H   0  0  0  0  0  0  0  0  0  0  0  0
    5.9322   -2.9755   -0.0003 H   0  0  0  0  0  0  0  0  0  0  0  0
    1.9154   -4.5068    0.5235 H   0  0  0  0  0  0  0  0  0  0  0  0
    1.0719   -2.2834    0.4278 H   0  0  0  0  0  0  0  0  0  0  0  0
    4.1724   -7.2691   -0.6209 H   0  0  0  0  0  0  0  0  0  0  0  0
    3.1019   -5.3525    2.4240 H   0  0  0  0  0  0  0  0  0  0  0  0
    2.2911   -6.5046    4.4194 H   0  0  0  0  0  0  0  0  0  0  0  0
    1.8242   -8.9552    4.2958 H   0  0  0  0  0  0  0  0  0  0  0  0
    2.7669   -9.0995    0.2953 H   0  0  0  0  0  0  0  0  0  0  0  0
    3.2288   -4.6526   -2.1034 H   0  0  0  0  0  0  0  0  0  0  0  0
    0.4496   -5.2912   -2.7102 H   0  0  0  0  0  0  0  0  0  0  0  0
    1.6049   -5.9522   -3.8664 H   0  0  0  0  0  0  0  0  0  0  0  0
    1.2953   -2.9720   -3.1351 H   0  0  0  0  0  0  0  0  0  0  0  0
    0.7103   -3.7441   -4.6220 H   0  0  0  0  0  0  0  0  0  0  0  0
    3.7142   -1.5954   -5.9342 H   0  0  0  0  0  0  0  0  0  0  0  0
    2.5979   -1.1507   -4.6288 H   0  0  0  0  0  0  0  0  0  0  0  0
    1.9862   -1.9555   -6.1052 H   0  0  0  0  0  0  0  0  0  0  0  0
    5.7512   -7.8753    0.5786 H   0  0  0  0  0  0  0  0  0  0  0  0
    8.3305   -6.5137   -0.3998 H   0  0  0  0  0  0  0  0  0  0  0  0
    8.0292   -8.3261   -0.1477 H   0  0  0  0  0  0  0  0  0  0  0  0
  1  2  1  0  0  0  0
  1 30  1  0  0  0  0
  1 31  1  0  0  0  0
  1 32  1  0  0  0  0
  2  3  1  0  0  0  0
  2  4  1  0  0  0  0
  2  5  1  0  0  0  0
  3 33  1  0  0  0  0
  3 34  1  0  0  0  0
  3 35  1  0  0  0  0
  4 36  1  0  0  0  0
  4 37  1  0  0  0  0
  4 38  1  0  0  0  0
  5  6  1  0  0  0  0
  5 10  2  0  0  0  0
  6  7  2  0  0  0  0
  6 39  1  0  0  0  0
  7  8  1  0  0  0  0
  7 40  1  0  0  0  0
  8  9  2  0  0  0  0
  8 11  1  0  0  0  0
  9 10  1  0  0  0  0
  9 41  1  0  0  0  0
 10 42  1  0  0  0  0
 11 12  1  0  0  0  0
 11 26  1  0  0  0  0
 12 13  1  0  0  0  0
 12 19  1  0  0  0  0
 12 43  1  0  0  0  0
 13 14  1  0  0  0  0
 13 18  2  0  0  0  0
 14 15  2  0  0  0  0
 14 44  1  0  0  0  0
 15 16  1  0  0  0  0
 15 45  1  0  0  0  0
 16 17  2  0  0  0  0
 16 46  1  0  0  0  0
 17 18  1  0  0  0  0
 18 47  1  0  0  0  0
 19 20  2  0  0  0  0
 19 21  1  0  0  0  0
 21 22  1  0  0  0  0
 21 48  1  0  0  0  0
 22 23  1  0  0  0  0
 22 49  1  0  0  0  0
 22 50  1  0  0  0  0
 23 24  1  0  0  0  0
 23 51  1  0  0  0  0
 23 52  1  0  0  0  0
 24 25  1  0  0  0  0
 25 53  1  0  0  0  0
 25 54  1  0  0  0  0
 25 55  1  0  0  0  0
 26 27  2  0  0  0  0
 26 28  1  0  0  0  0
 28 29  2  0  0  0  0
 28 56  1  0  0  0  0
 29 57  1  0  0  0  0
 29 58  1  0  0  0  0
M  END
$$$$
