
 OpenBabel07202414163D

 58 60  0  0  1  0  0  0  0  0999 V2000
    1.8885   -0.8307    1.7439 C   0  0  0  0  0  0  0  0  0  0  0  0
    0.7580   -0.4292    0.8512 C   0  0  0  0  0  0  0  0  0  0  0  0
    0.1021    0.7888    1.0331 C   0  0  0  0  0  0  0  0  0  0  0  0
   -0.8615    1.2388    0.1254 C   0  0  0  0  0  0  0  0  0  0  0  0
   -1.1952    0.3513   -0.8951 C   0  0  0  0  0  0  0  0  0  0  0  0
   -0.6320   -0.8683   -1.0727 N   0  0  0  0  0  0  0  0  0  0  0  0
    0.3370   -1.2263   -0.2005 C   0  0  0  0  0  0  0  0  0  0  0  0
   -1.5788    2.5761    0.2646 C   0  0  3  0  0  0  0  0  0  0  0  0
   -2.5096    2.5762    1.5215 C   0  0  0  0  0  0  0  0  0  0  0  0
   -2.1183    2.3754    2.6699 O   0  0  0  0  0  0  0  0  0  0  0  0
   -3.8592    2.8103    1.2819 N   0  0  0  0  0  0  0  0  0  0  0  0
   -4.7619    2.8277    2.4247 C   0  0  0  0  0  0  0  0  0  0  0  0
   -6.2312    2.9412    2.0302 C   0  0  0  0  0  0  0  0  0  0  0  0
   -7.1392    2.9230    3.2363 C   0  0  0  0  0  0  0  0  0  0  0  0
   -7.6425    1.7101    3.7327 C   0  0  0  0  0  0  0  0  0  0  0  0
   -8.4732    1.6892    4.8577 C   0  0  0  0  0  0  0  0  0  0  0  0
   -8.8035    2.8803    5.5010 C   0  0  0  0  0  0  0  0  0  0  0  0
   -8.2971    4.0801    5.0179 C   0  0  0  0  0  0  0  0  0  0  0  0
   -7.4685    4.1127    3.8995 C   0  0  0  0  0  0  0  0  0  0  0  0
   -8.6106    5.2254    5.6382 F   0  0  0  0  0  0  0  0  0  0  0  0
   -0.7136    3.7932    0.1675 N   0  0  0  0  0  0  0  0  0  0  0  0
   -0.9330    4.6709   -0.9377 C   0  0  0  0  0  0  0  0  0  0  0  0
   -0.5931    4.2879   -2.2377 C   0  0  0  0  0  0  0  0  0  0  0  0
   -0.5620    5.2450   -3.2681 C   0  0  0  0  0  0  0  0  0  0  0  0
   -0.8896    6.5885   -3.0140 C   0  0  0  0  0  0  0  0  0  0  0  0
   -1.3133    6.9431   -1.7268 C   0  0  0  0  0  0  0  0  0  0  0  0
   -1.3350    5.9918   -0.6972 C   0  0  0  0  0  0  0  0  0  0  0  0
   -0.7513    7.6626   -4.0708 C   0  0  0  0  0  0  0  0  0  0  0  0
   -0.2556    7.2074   -5.2539 F   0  0  0  0  0  0  0  0  0  0  0  0
   -1.9376    8.2623   -4.3634 F   0  0  0  0  0  0  0  0  0  0  0  0
    0.0856    8.6650   -3.6787 F   0  0  0  0  0  0  0  0  0  0  0  0
    0.1655    4.1412    1.1985 C   0  0  0  0  0  0  0  0  0  0  0  0
    0.2689    3.5486    2.2668 O   0  0  0  0  0  0  0  0  0  0  0  0
    1.0719    5.3091    0.9787 C   0  0  0  0  0  0  0  0  0  0  0  0
    1.4618    6.0395    2.0334 C   0  0  0  0  0  0  0  0  0  0  0  0
    2.1564   -0.0207    2.4321 H   0  0  0  0  0  0  0  0  0  0  0  0
    2.7769   -1.0431    1.1396 H   0  0  0  0  0  0  0  0  0  0  0  0
    1.6310   -1.7119    2.3373 H   0  0  0  0  0  0  0  0  0  0  0  0
    0.3494    1.3745    1.9132 H   0  0  0  0  0  0  0  0  0  0  0  0
   -1.9620    0.5861   -1.6290 H   0  0  0  0  0  0  0  0  0  0  0  0
    0.7831   -2.2006   -0.3813 H   0  0  0  0  0  0  0  0  0  0  0  0
   -2.2659    2.6370   -0.5934 H   0  0  0  0  0  0  0  0  0  0  0  0
   -4.1406    3.2545    0.4181 H   0  0  0  0  0  0  0  0  0  0  0  0
   -4.4653    3.6643    3.0690 H   0  0  0  0  0  0  0  0  0  0  0  0
   -4.5943    1.9061    2.9976 H   0  0  0  0  0  0  0  0  0  0  0  0
   -6.5045    2.1233    1.3516 H   0  0  0  0  0  0  0  0  0  0  0  0
   -6.3954    3.8650    1.4615 H   0  0  0  0  0  0  0  0  0  0  0  0
   -7.3886    0.7689    3.2481 H   0  0  0  0  0  0  0  0  0  0  0  0
   -8.8591    0.7443    5.2317 H   0  0  0  0  0  0  0  0  0  0  0  0
   -9.4483    2.8807    6.3740 H   0  0  0  0  0  0  0  0  0  0  0  0
   -7.0874    5.0711    3.5600 H   0  0  0  0  0  0  0  0  0  0  0  0
   -0.2526    3.2769   -2.4516 H   0  0  0  0  0  0  0  0  0  0  0  0
   -0.2299    4.9454   -4.2642 H   0  0  0  0  0  0  0  0  0  0  0  0
   -1.5829    7.9746   -1.5019 H   0  0  0  0  0  0  0  0  0  0  0  0
   -1.6179    6.3106    0.3030 H   0  0  0  0  0  0  0  0  0  0  0  0
    1.4117    5.5349   -0.0227 H   0  0  0  0  0  0  0  0  0  0  0  0
    1.1308    5.7965    3.0414 H   0  0  0  0  0  0  0  0  0  0  0  0
    2.1217    6.8900    1.9138 H   0  0  0  0  0  0  0  0  0  0  0  0
  1  2  1  0  0  0  0
  1 36  1  0  0  0  0
  1 37  1  0  0  0  0
  1 38  1  0  0  0  0
  2  3  1  0  0  0  0
  2  7  2  0  0  0  0
  3  4  2  0  0  0  0
  3 39  1  0  0  0  0
  4  5  1  0  0  0  0
  4  8  1  0  0  0  0
  5  6  2  0  0  0  0
  5 40  1  0  0  0  0
  6  7  1  0  0  0  0
  7 41  1  0  0  0  0
  8  9  1  0  0  0  0
  8 21  1  0  0  0  0
  8 42  1  0  0  0  0
  9 10  2  0  0  0  0
  9 11  1  0  0  0  0
 11 12  1  0  0  0  0
 11 43  1  0  0  0  0
 12 13  1  0  0  0  0
 12 44  1  0  0  0  0
 12 45  1  0  0  0  0
 13 14  1  0  0  0  0
 13 46  1  0  0  0  0
 13 47  1  0  0  0  0
 14 15  1  0  0  0  0
 14 19  2  0  0  0  0
 15 16  2  0  0  0  0
 15 48  1  0  0  0  0
 16 17  1  0  0  0  0
 16 49  1  0  0  0  0
 17 18  2  0  0  0  0
 17 50  1  0  0  0  0
 18 19  1  0  0  0  0
 18 20  1  0  0  0  0
 19 51  1  0  0  0  0
 21 22  1  0  0  0  0
 21 32  1  0  0  0  0
 22 23  1  0  0  0  0
 22 27  2  0  0  0  0
 23 24  2  0  0  0  0
 23 52  1  0  0  0  0
 24 25  1  0  0  0  0
 24 53  1  0  0  0  0
 25 26  2  0  0  0  0
 25 28  1  0  0  0  0
 26 27  1  0  0  0  0
 26 54  1  0  0  0  0
 27 55  1  0  0  0  0
 28 29  1  0  0  0  0
 28 30  1  0  0  0  0
 28 31  1  0  0  0  0
 32 33  2  0  0  0  0
 32 34  1  0  0  0  0
 34 35  2  0  0  0  0
 34 56  1  0  0  0  0
 35 57  1  0  0  0  0
 35 58  1  0  0  0  0
M  END
$$$$
