
 OpenBabel07202414193D

 44 47  0  0  1  0  0  0  0  0999 V2000
    1.6127    0.7372   -0.5511 N   0  0  0  0  0  0  0  0  0  0  0  0
    2.7205    0.0119   -0.2235 C   0  0  0  0  0  0  0  0  0  0  0  0
    2.9998    0.0367    0.9662 O   0  0  0  0  0  0  0  0  0  0  0  0
    3.3788   -0.6323   -1.2699 N   0  0  0  0  0  0  0  0  0  0  0  0
    2.9482   -0.4292   -2.6610 C   0  0  0  0  0  0  0  0  0  0  0  0
    3.1545   -1.6501   -3.5331 C   0  0  0  0  0  0  0  0  0  0  0  0
    4.6177   -2.0529   -3.5558 C   0  0  3  0  0  0  0  0  0  0  0  0
    5.4293   -1.1363   -4.4888 C   0  0  0  0  0  0  0  0  0  0  0  0
    5.5391   -1.4137   -5.6787 O   0  0  0  0  0  0  0  0  0  0  0  0
    5.9205    0.0151   -3.8906 N   0  0  0  0  0  0  0  0  0  0  0  0
    6.7615    1.0023   -4.4595 C   0  0  0  0  0  0  0  0  0  0  0  0
    7.2112    0.9527   -5.7771 C   0  0  0  0  0  0  0  0  0  0  0  0
    8.2166    1.7158   -6.2647 N   0  0  0  0  0  0  0  0  0  0  0  0
    8.7426    2.6285   -5.4232 C   0  0  0  0  0  0  0  0  0  0  0  0
    8.2420    2.9097   -4.1538 C   0  0  0  0  0  0  0  0  0  0  0  0
    8.7109    4.0095   -3.4116 C   0  0  0  0  0  0  0  0  0  0  0  0
    8.1901    4.2915   -2.1515 C   0  0  0  0  0  0  0  0  0  0  0  0
    7.2250    3.4581   -1.6045 C   0  0  0  0  0  0  0  0  0  0  0  0
    6.7543    2.3615   -2.3332 C   0  0  0  0  0  0  0  0  0  0  0  0
    7.2340    2.0651   -3.6371 C   0  0  0  0  0  0  0  0  0  0  0  0
    5.1615   -2.1306   -2.1484 C   0  0  0  0  0  0  0  0  0  0  0  0
    6.3035   -2.9513   -1.9428 C   0  0  0  0  0  0  0  0  0  0  0  0
    6.8939   -3.0334   -0.6908 C   0  0  0  0  0  0  0  0  0  0  0  0
    8.2726   -4.0371   -0.4554 Cl  0  0  0  0  0  0  0  0  0  0  0  0
    6.3698   -2.3090    0.3687 C   0  0  0  0  0  0  0  0  0  0  0  0
    5.2279   -1.5164    0.1783 C   0  0  0  0  0  0  0  0  0  0  0  0
    4.5850   -1.4271   -1.0661 C   0  0  0  0  0  0  0  0  0  0  0  0
    1.1771    1.1183    0.2835 H   0  0  0  0  0  0  0  0  0  0  0  0
    0.9268    0.2932   -1.1464 H   0  0  0  0  0  0  0  0  0  0  0  0
    3.4819    0.4508   -3.0422 H   0  0  0  0  0  0  0  0  0  0  0  0
    1.8888   -0.1779   -2.7211 H   0  0  0  0  0  0  0  0  0  0  0  0
    2.7903   -1.4486   -4.5524 H   0  0  0  0  0  0  0  0  0  0  0  0
    2.5545   -2.4760   -3.1329 H   0  0  0  0  0  0  0  0  0  0  0  0
    4.6726   -3.0560   -3.9973 H   0  0  0  0  0  0  0  0  0  0  0  0
    5.8267    0.0671   -2.8855 H   0  0  0  0  0  0  0  0  0  0  0  0
    6.7932    0.2737   -6.5131 H   0  0  0  0  0  0  0  0  0  0  0  0
    9.6089    3.1549   -5.8176 H   0  0  0  0  0  0  0  0  0  0  0  0
    9.4589    4.6786   -3.8324 H   0  0  0  0  0  0  0  0  0  0  0  0
    8.5299    5.1663   -1.6025 H   0  0  0  0  0  0  0  0  0  0  0  0
    6.8193    3.6666   -0.6173 H   0  0  0  0  0  0  0  0  0  0  0  0
    5.9691    1.7713   -1.8691 H   0  0  0  0  0  0  0  0  0  0  0  0
    6.7269   -3.5083   -2.7735 H   0  0  0  0  0  0  0  0  0  0  0  0
    6.8326   -2.3552    1.3476 H   0  0  0  0  0  0  0  0  0  0  0  0
    4.8914   -0.9784    1.0533 H   0  0  0  0  0  0  0  0  0  0  0  0
  1  2  1  0  0  0  0
  1 28  1  0  0  0  0
  1 29  1  0  0  0  0
  2  3  2  0  0  0  0
  2  4  1  0  0  0  0
  4  5  1  0  0  0  0
  4 27  1  0  0  0  0
  5  6  1  0  0  0  0
  5 30  1  0  0  0  0
  5 31  1  0  0  0  0
  6  7  1  0  0  0  0
  6 32  1  0  0  0  0
  6 33  1  0  0  0  0
  7  8  1  0  0  0  0
  7 21  1  0  0  0  0
  7 34  1  0  0  0  0
  8  9  2  0  0  0  0
  8 10  1  0  0  0  0
 10 11  1  0  0  0  0
 10 35  1  0  0  0  0
 11 12  1  0  0  0  0
 11 20  2  0  0  0  0
 12 13  2  0  0  0  0
 12 36  1  0  0  0  0
 13 14  1  0  0  0  0
 14 15  2  0  0  0  0
 14 37  1  0  0  0  0
 15 16  1  0  0  0  0
 15 20  1  0  0  0  0
 16 17  2  0  0  0  0
 16 38  1  0  0  0  0
 17 18  1  0  0  0  0
 17 39  1  0  0  0  0
 18 19  2  0  0  0  0
 18 40  1  0  0  0  0
 19 20  1  0  0  0  0
 19 41  1  0  0  0  0
 21 22  1  0  0  0  0
 21 27  2  0  0  0  0
 22 23  2  0  0  0  0
 22 42  1  0  0  0  0
 23 24  1  0  0  0  0
 23 25  1  0  0  0  0
 25 26  2  0  0  0  0
 25 43  1  0  0  0  0
 26 27  1  0  0  0  0
 26 44  1  0  0  0  0
M  END
$$$$
