
 OpenBabel07202414183D

 46 49  0  0  0  0  0  0  0  0999 V2000
    1.9910    0.1677    1.4478 F   0  0  0  0  0  0  0  0  0  0  0  0
    0.9742    1.0397    1.4228 C   0  0  0  0  0  0  0  0  0  0  0  0
    1.1098    2.2365    0.7050 C   0  0  0  0  0  0  0  0  0  0  0  0
    2.3028    2.5201    0.0057 N   0  0  0  0  0  0  0  0  0  0  0  0
    2.9607    3.7608   -0.1370 C   0  0  0  0  0  0  0  0  0  0  0  0
    3.7820    3.9521   -1.2458 C   0  0  0  0  0  0  0  0  0  0  0  0
    4.4645    5.1530   -1.4136 C   0  0  0  0  0  0  0  0  0  0  0  0
    5.4785    5.3902   -2.7903 Cl  0  0  0  0  0  0  0  0  0  0  0  0
    4.3443    6.1775   -0.4827 C   0  0  0  0  0  0  0  0  0  0  0  0
    3.5309    6.0131    0.6626 C   0  0  0  0  0  0  0  0  0  0  0  0
    3.5063    7.0774    1.7399 C   0  0  0  0  0  0  0  0  0  0  0  0
    2.1312    7.5935    2.0975 C   0  0  0  0  0  0  0  0  0  0  0  0
    1.5573    7.2411    3.1224 O   0  0  0  0  0  0  0  0  0  0  0  0
    1.5885    8.4782    1.1743 N   0  0  0  0  0  0  0  0  0  0  0  0
    0.2008    8.6163    0.9197 C   0  0  0  0  0  0  0  0  0  0  0  0
   -0.6818    7.5991    1.2746 C   0  0  0  0  0  0  0  0  0  0  0  0
   -1.7658    7.2832    0.5412 N   0  0  0  0  0  0  0  0  0  0  0  0
   -2.0313    8.0829   -0.5151 C   0  0  0  0  0  0  0  0  0  0  0  0
   -1.3803    9.2892   -0.7717 C   0  0  0  0  0  0  0  0  0  0  0  0
   -1.8403   10.1941   -1.7443 C   0  0  0  0  0  0  0  0  0  0  0  0
   -1.2395   11.4448   -1.8887 C   0  0  0  0  0  0  0  0  0  0  0  0
   -0.1436   11.7803   -1.1010 C   0  0  0  0  0  0  0  0  0  0  0  0
    0.3774   10.8506   -0.1928 C   0  0  0  0  0  0  0  0  0  0  0  0
   -0.2355    9.5870   -0.0083 C   0  0  0  0  0  0  0  0  0  0  0  0
    2.8403    4.8014    0.8060 C   0  0  0  0  0  0  0  0  0  0  0  0
    0.0248    3.1212    0.6861 C   0  0  0  0  0  0  0  0  0  0  0  0
   -1.1502    2.8267    1.3822 C   0  0  0  0  0  0  0  0  0  0  0  0
   -1.2518    1.6348    2.1006 C   0  0  0  0  0  0  0  0  0  0  0  0
   -2.9951    1.2113    3.1483 I   0  0  0  0  0  0  0  0  0  0  0  0
   -0.1905    0.7326    2.1248 C   0  0  0  0  0  0  0  0  0  0  0  0
    2.9579    1.7391    0.0342 H   0  0  0  0  0  0  0  0  0  0  0  0
    3.9047    3.1582   -1.9796 H   0  0  0  0  0  0  0  0  0  0  0  0
    4.9060    7.0946   -0.6185 H   0  0  0  0  0  0  0  0  0  0  0  0
    4.1340    7.9349    1.4571 H   0  0  0  0  0  0  0  0  0  0  0  0
    3.9608    6.6554    2.6443 H   0  0  0  0  0  0  0  0  0  0  0  0
    2.1687    8.7336    0.3779 H   0  0  0  0  0  0  0  0  0  0  0  0
   -0.4947    6.9279    2.1063 H   0  0  0  0  0  0  0  0  0  0  0  0
   -2.8294    7.7245   -1.1585 H   0  0  0  0  0  0  0  0  0  0  0  0
   -2.7051    9.9489   -2.3567 H   0  0  0  0  0  0  0  0  0  0  0  0
   -1.6484   12.1634   -2.5944 H   0  0  0  0  0  0  0  0  0  0  0  0
    0.2953   12.7736   -1.1815 H   0  0  0  0  0  0  0  0  0  0  0  0
    1.2122   11.1534    0.4361 H   0  0  0  0  0  0  0  0  0  0  0  0
    2.2336    4.6426    1.6977 H   0  0  0  0  0  0  0  0  0  0  0  0
    0.0784    4.0430    0.1103 H   0  0  0  0  0  0  0  0  0  0  0  0
   -1.9700    3.5413    1.3528 H   0  0  0  0  0  0  0  0  0  0  0  0
   -0.2425   -0.1981    2.6793 H   0  0  0  0  0  0  0  0  0  0  0  0
  1  2  1  0  0  0  0
  2  3  2  0  0  0  0
  2 30  1  0  0  0  0
  3  4  1  0  0  0  0
  3 26  1  0  0  0  0
  4  5  1  0  0  0  0
  4 31  1  0  0  0  0
  5  6  2  0  0  0  0
  5 25  1  0  0  0  0
  6  7  1  0  0  0  0
  6 32  1  0  0  0  0
  7  8  1  0  0  0  0
  7  9  2  0  0  0  0
  9 10  1  0  0  0  0
  9 33  1  0  0  0  0
 10 11  1  0  0  0  0
 10 25  2  0  0  0  0
 11 12  1  0  0  0  0
 11 34  1  0  0  0  0
 11 35  1  0  0  0  0
 12 13  2  0  0  0  0
 12 14  1  0  0  0  0
 14 15  1  0  0  0  0
 14 36  1  0  0  0  0
 15 16  2  0  0  0  0
 15 24  1  0  0  0  0
 16 17  1  0  0  0  0
 16 37  1  0  0  0  0
 17 18  2  0  0  0  0
 18 19  1  0  0  0  0
 18 38  1  0  0  0  0
 19 20  2  0  0  0  0
 19 24  1  0  0  0  0
 20 21  1  0  0  0  0
 20 39  1  0  0  0  0
 21 22  2  0  0  0  0
 21 40  1  0  0  0  0
 22 23  1  0  0  0  0
 22 41  1  0  0  0  0
 23 24  2  0  0  0  0
 23 42  1  0  0  0  0
 25 43  1  0  0  0  0
 26 27  2  0  0  0  0
 26 44  1  0  0  0  0
 27 28  1  0  0  0  0
 27 45  1  0  0  0  0
 28 29  1  0  0  0  0
 28 30  2  0  0  0  0
 30 46  1  0  0  0  0
M  END
$$$$
