
 OpenBabel07202414123D

 51 52  0  0  1  0  0  0  0  0999 V2000
    2.5917   -1.4482   -0.4614 C   0  0  0  0  0  0  0  0  0  0  0  0
    1.7282   -0.4725    0.3773 C   0  0  0  0  0  0  0  0  0  0  0  0
    1.4574    0.7820   -0.4745 C   0  0  0  0  0  0  0  0  0  0  0  0
    0.3808   -1.1980    0.6113 C   0  0  0  0  0  0  0  0  0  0  0  0
    2.4216   -0.0659    1.6982 C   0  0  0  0  0  0  0  0  0  0  0  0
    3.8244   -0.0824    1.8264 C   0  0  0  0  0  0  0  0  0  0  0  0
    4.4600    0.1863    3.0459 C   0  0  0  0  0  0  0  0  0  0  0  0
    3.7050    0.5147    4.1674 C   0  0  0  0  0  0  0  0  0  0  0  0
    2.3182    0.6177    4.0554 C   0  0  0  0  0  0  0  0  0  0  0  0
    1.6877    0.3375    2.8311 C   0  0  0  0  0  0  0  0  0  0  0  0
    4.3439    0.6557    5.4288 N   0  0  0  0  0  0  0  0  0  0  0  0
    4.4478   -0.6004    6.2256 C   0  0  3  0  0  0  0  0  0  0  0  0
    5.8621   -0.9895    6.6447 C   0  0  0  0  0  0  0  0  0  0  0  0
    6.4961   -0.5186    7.7997 C   0  0  0  0  0  0  0  0  0  0  0  0
    7.7579   -1.0012    8.1472 C   0  0  0  0  0  0  0  0  0  0  0  0
    8.3564   -1.9426    7.3331 C   0  0  0  0  0  0  0  0  0  0  0  0
    7.7976   -2.4052    6.1965 N   0  0  0  0  0  0  0  0  0  0  0  0
    6.5682   -1.9207    5.8849 C   0  0  0  0  0  0  0  0  0  0  0  0
    3.4025   -0.8354    7.3484 C   0  0  0  0  0  0  0  0  0  0  0  0
    3.1267   -1.9767    7.7275 O   0  0  0  0  0  0  0  0  0  0  0  0
    2.8461    0.2739    7.9471 N   0  0  0  0  0  0  0  0  0  0  0  0
    1.8665    0.1227    8.9980 C   0  0  0  0  0  0  0  0  0  0  0  0
    4.7253    1.8841    5.9465 C   0  0  0  0  0  0  0  0  0  0  0  0
    5.0015    2.0434    7.1355 O   0  0  0  0  0  0  0  0  0  0  0  0
    4.7891    3.0426    5.0014 C   0  0  0  0  0  0  0  0  0  0  0  0
    5.3990    4.1812    5.3554 C   0  0  0  0  0  0  0  0  0  0  0  0
    2.0551   -1.7905   -1.3533 H   0  0  0  0  0  0  0  0  0  0  0  0
    2.8637   -2.3366    0.1224 H   0  0  0  0  0  0  0  0  0  0  0  0
    3.5162   -0.9816   -0.8187 H   0  0  0  0  0  0  0  0  0  0  0  0
    0.9548    0.5176   -1.4139 H   0  0  0  0  0  0  0  0  0  0  0  0
    2.3864    1.2995   -0.7344 H   0  0  0  0  0  0  0  0  0  0  0  0
    0.8128    1.4958    0.0517 H   0  0  0  0  0  0  0  0  0  0  0  0
   -0.0750   -1.4942   -0.3423 H   0  0  0  0  0  0  0  0  0  0  0  0
   -0.3553   -0.5667    1.1196 H   0  0  0  0  0  0  0  0  0  0  0  0
    0.5171   -2.1075    1.2069 H   0  0  0  0  0  0  0  0  0  0  0  0
    4.4625   -0.3277    0.9814 H   0  0  0  0  0  0  0  0  0  0  0  0
    5.5437    0.1253    3.1085 H   0  0  0  0  0  0  0  0  0  0  0  0
    1.7112    0.8921    4.9151 H   0  0  0  0  0  0  0  0  0  0  0  0
    0.6042    0.4229    2.7917 H   0  0  0  0  0  0  0  0  0  0  0  0
    4.1464   -1.3910    5.5176 H   0  0  0  0  0  0  0  0  0  0  0  0
    6.0150    0.2074    8.4496 H   0  0  0  0  0  0  0  0  0  0  0  0
    8.2558   -0.6589    9.0529 H   0  0  0  0  0  0  0  0  0  0  0  0
    9.3280   -2.3670    7.5778 H   0  0  0  0  0  0  0  0  0  0  0  0
    6.1494   -2.3452    4.9766 H   0  0  0  0  0  0  0  0  0  0  0  0
    3.3905    1.1348    7.9123 H   0  0  0  0  0  0  0  0  0  0  0  0
    1.2364   -0.7539    8.8153 H   0  0  0  0  0  0  0  0  0  0  0  0
    1.2413    1.0171    9.0214 H   0  0  0  0  0  0  0  0  0  0  0  0
    2.3827    0.0043    9.9540 H   0  0  0  0  0  0  0  0  0  0  0  0
    4.3497    2.9598    4.0184 H   0  0  0  0  0  0  0  0  0  0  0  0
    5.8699    4.3048    6.3298 H   0  0  0  0  0  0  0  0  0  0  0  0
    5.4544    5.0200    4.6681 H   0  0  0  0  0  0  0  0  0  0  0  0
  1  2  1  0  0  0  0
  1 27  1  0  0  0  0
  1 28  1  0  0  0  0
  1 29  1  0  0  0  0
  2  3  1  0  0  0  0
  2  4  1  0  0  0  0
  2  5  1  0  0  0  0
  3 30  1  0  0  0  0
  3 31  1  0  0  0  0
  3 32  1  0  0  0  0
  4 33  1  0  0  0  0
  4 34  1  0  0  0  0
  4 35  1  0  0  0  0
  5  6  1  0  0  0  0
  5 10  2  0  0  0  0
  6  7  2  0  0  0  0
  6 36  1  0  0  0  0
  7  8  1  0  0  0  0
  7 37  1  0  0  0  0
  8  9  2  0  0  0  0
  8 11  1  0  0  0  0
  9 10  1  0  0  0  0
  9 38  1  0  0  0  0
 10 39  1  0  0  0  0
 11 12  1  0  0  0  0
 11 23  1  0  0  0  0
 12 13  1  0  0  0  0
 12 19  1  0  0  0  0
 12 40  1  0  0  0  0
 13 14  1  0  0  0  0
 13 18  2  0  0  0  0
 14 15  2  0  0  0  0
 14 41  1  0  0  0  0
 15 16  1  0  0  0  0
 15 42  1  0  0  0  0
 16 17  2  0  0  0  0
 16 43  1  0  0  0  0
 17 18  1  0  0  0  0
 18 44  1  0  0  0  0
 19 20  2  0  0  0  0
 19 21  1  0  0  0  0
 21 22  1  0  0  0  0
 21 45  1  0  0  0  0
 22 46  1  0  0  0  0
 22 47  1  0  0  0  0
 22 48  1  0  0  0  0
 23 24  2  0  0  0  0
 23 25  1  0  0  0  0
 25 26  2  0  0  0  0
 25 49  1  0  0  0  0
 26 50  1  0  0  0  0
 26 51  1  0  0  0  0
M  END
$$$$
