
 OpenBabel07202414203D

 26 28  0  0  0  0  0  0  0  0999 V2000
    1.7819    0.8846    0.9326 C   0  0  0  0  0  0  0  0  0  0  0  0
    0.3831    0.9277    0.8958 C   0  0  0  0  0  0  0  0  0  0  0  0
   -0.3129    0.1216   -0.0019 C   0  0  0  0  0  0  0  0  0  0  0  0
    0.3766   -0.7259   -0.8649 C   0  0  0  0  0  0  0  0  0  0  0  0
    1.7743   -0.7663   -0.8278 C   0  0  0  0  0  0  0  0  0  0  0  0
    2.4960    0.0362    0.0712 C   0  0  0  0  0  0  0  0  0  0  0  0
    3.9520   -0.0346    0.0847 C   0  0  0  0  0  0  0  0  0  0  0  0
    4.7688   -0.7308   -0.6795 N   0  0  0  0  0  0  0  0  0  0  0  0
    6.0471   -0.4414   -0.2493 N   0  0  0  0  0  0  0  0  0  0  0  0
    5.9251    0.3982    0.7594 C   0  0  0  0  0  0  0  0  0  0  0  0
    4.6164    0.7244    1.0112 O   0  0  0  0  0  0  0  0  0  0  0  0
    7.2710    1.1040    1.5929 S   0  0  0  0  0  0  0  0  0  0  0  0
    7.0322    0.3496    3.1551 C   0  0  0  0  0  0  0  0  0  0  0  0
    5.9568   -0.3366    3.4843 N   0  0  0  0  0  0  0  0  0  0  0  0
    6.0732   -0.7938    4.7870 C   0  0  0  0  0  0  0  0  0  0  0  0
    7.2372   -0.4322    5.4201 C   0  0  0  0  0  0  0  0  0  0  0  0
    8.2239    0.4919    4.3933 S   0  0  0  0  0  0  0  0  0  0  0  0
    7.6256   -0.7525    6.7568 N   0  3  0  0  0  0  0  0  0  0  0  0
    6.8241   -1.4309    7.4112 O   0  0  0  0  0  0  0  0  0  0  0  0
    8.7150   -0.3322    7.1655 O   0  5  0  0  0  0  0  0  0  0  0  0
   -2.0314    0.1730   -0.0447 Cl  0  0  0  0  0  0  0  0  0  0  0  0
    2.3052    1.5223    1.6429 H   0  0  0  0  0  0  0  0  0  0  0  0
   -0.1539    1.5908    1.5692 H   0  0  0  0  0  0  0  0  0  0  0  0
   -0.1624   -1.3571   -1.5668 H   0  0  0  0  0  0  0  0  0  0  0  0
    2.2999   -1.4345   -1.5094 H   0  0  0  0  0  0  0  0  0  0  0  0
    5.2711   -1.3851    5.2168 H   0  0  0  0  0  0  0  0  0  0  0  0
  1  2  1  0  0  0  0
  1  6  2  0  0  0  0
  1 22  1  0  0  0  0
  2  3  2  0  0  0  0
  2 23  1  0  0  0  0
  3  4  1  0  0  0  0
  3 21  1  0  0  0  0
  4  5  2  0  0  0  0
  4 24  1  0  0  0  0
  5  6  1  0  0  0  0
  5 25  1  0  0  0  0
  6  7  1  0  0  0  0
  7  8  2  0  0  0  0
  7 11  1  0  0  0  0
  8  9  1  0  0  0  0
  9 10  2  0  0  0  0
 10 11  1  0  0  0  0
 10 12  1  0  0  0  0
 12 13  1  0  0  0  0
 13 14  2  0  0  0  0
 13 17  1  0  0  0  0
 14 15  1  0  0  0  0
 15 16  2  0  0  0  0
 15 26  1  0  0  0  0
 16 17  1  0  0  0  0
 16 18  1  0  0  0  0
 18 19  2  0  0  0  0
 18 20  1  0  0  0  0
M  CHG  2  18   1  20  -1
M  END
$$$$
