
 OpenBabel07202414133D

 43 46  0  0  1  0  0  0  0  0999 V2000
    1.0741    0.1504   -0.1856 C   0  0  0  0  0  0  0  0  0  0  0  0
    2.5311    0.1972   -0.1595 N   0  0  0  0  0  0  0  0  0  0  0  0
    3.2645   -1.0524   -0.3471 C   0  0  0  0  0  0  0  0  0  0  0  0
    4.4088   -1.1387    0.6494 C   0  0  0  0  0  0  0  0  0  0  0  0
    5.3656    0.0429    0.4336 C   0  0  3  0  0  0  0  0  0  0  0  0
    4.5939    1.3485    0.4198 C   0  0  0  0  0  0  0  0  0  0  0  0
    3.2208    1.3740    0.0899 C   0  0  0  0  0  0  0  0  0  0  0  0
    2.5957    2.6312    0.0459 C   0  0  0  0  0  0  0  0  0  0  0  0
    3.2956    3.8158    0.3098 C   0  0  0  0  0  0  0  0  0  0  0  0
    4.6361    3.7632    0.6619 C   0  0  0  0  0  0  0  0  0  0  0  0
    5.2811    2.5379    0.7396 C   0  0  0  0  0  0  0  0  0  0  0  0
    5.5116    5.2105    0.9585 Cl  0  0  0  0  0  0  0  0  0  0  0  0
    6.2614   -0.2173   -0.7959 C   0  0  0  0  0  0  0  0  0  0  0  0
    6.6229   -1.3683   -1.0404 O   0  0  0  0  0  0  0  0  0  0  0  0
    6.6696    0.8918   -1.5278 N   0  0  0  0  0  0  0  0  0  0  0  0
    7.5138    0.8460   -2.6783 C   0  0  0  0  0  0  0  0  0  0  0  0
    8.3108   -0.2646   -2.9611 C   0  0  0  0  0  0  0  0  0  0  0  0
    8.9575   -0.4711   -4.1285 N   0  0  0  0  0  0  0  0  0  0  0  0
    8.7993    0.4770   -5.0699 C   0  0  0  0  0  0  0  0  0  0  0  0
    8.1263    1.6831   -4.8735 C   0  0  0  0  0  0  0  0  0  0  0  0
    7.5133    1.9169   -3.6160 C   0  0  0  0  0  0  0  0  0  0  0  0
    6.9509    3.2048   -3.4154 C   0  0  0  0  0  0  0  0  0  0  0  0
    6.9460    4.1721   -4.4222 C   0  0  0  0  0  0  0  0  0  0  0  0
    7.4757    3.8820   -5.6749 C   0  0  0  0  0  0  0  0  0  0  0  0
    8.0645    2.6407   -5.8979 C   0  0  0  0  0  0  0  0  0  0  0  0
    0.7020   -0.8722   -0.3133 H   0  0  0  0  0  0  0  0  0  0  0  0
    0.6737    0.7415   -1.0149 H   0  0  0  0  0  0  0  0  0  0  0  0
    0.6603    0.5235    0.7582 H   0  0  0  0  0  0  0  0  0  0  0  0
    3.6269   -1.1092   -1.3808 H   0  0  0  0  0  0  0  0  0  0  0  0
    2.6070   -1.9181   -0.1988 H   0  0  0  0  0  0  0  0  0  0  0  0
    4.9187   -2.1032    0.5448 H   0  0  0  0  0  0  0  0  0  0  0  0
    4.0050   -1.1066    1.6701 H   0  0  0  0  0  0  0  0  0  0  0  0
    6.0499    0.0580    1.2936 H   0  0  0  0  0  0  0  0  0  0  0  0
    1.5460    2.7201   -0.2159 H   0  0  0  0  0  0  0  0  0  0  0  0
    2.7809    4.7691    0.2399 H   0  0  0  0  0  0  0  0  0  0  0  0
    6.3325    2.4996    1.0222 H   0  0  0  0  0  0  0  0  0  0  0  0
    6.1052    1.7233   -1.4388 H   0  0  0  0  0  0  0  0  0  0  0  0
    8.4755   -1.0563   -2.2373 H   0  0  0  0  0  0  0  0  0  0  0  0
    9.2673    0.2406   -6.0210 H   0  0  0  0  0  0  0  0  0  0  0  0
    6.5406    3.4907   -2.4484 H   0  0  0  0  0  0  0  0  0  0  0  0
    6.5323    5.1618   -4.2326 H   0  0  0  0  0  0  0  0  0  0  0  0
    7.4506    4.6223   -6.4704 H   0  0  0  0  0  0  0  0  0  0  0  0
    8.4888    2.4280   -6.8772 H   0  0  0  0  0  0  0  0  0  0  0  0
  1  2  1  0  0  0  0
  1 26  1  0  0  0  0
  1 27  1  0  0  0  0
  1 28  1  0  0  0  0
  2  3  1  0  0  0  0
  2  7  1  0  0  0  0
  3  4  1  0  0  0  0
  3 29  1  0  0  0  0
  3 30  1  0  0  0  0
  4  5  1  0  0  0  0
  4 31  1  0  0  0  0
  4 32  1  0  0  0  0
  5  6  1  0  0  0  0
  5 13  1  0  0  0  0
  5 33  1  0  0  0  0
  6  7  1  0  0  0  0
  6 11  2  0  0  0  0
  7  8  2  0  0  0  0
  8  9  1  0  0  0  0
  8 34  1  0  0  0  0
  9 10  2  0  0  0  0
  9 35  1  0  0  0  0
 10 11  1  0  0  0  0
 10 12  1  0  0  0  0
 11 36  1  0  0  0  0
 13 14  2  0  0  0  0
 13 15  1  0  0  0  0
 15 16  1  0  0  0  0
 15 37  1  0  0  0  0
 16 17  1  0  0  0  0
 16 21  2  0  0  0  0
 17 18  2  0  0  0  0
 17 38  1  0  0  0  0
 18 19  1  0  0  0  0
 19 20  2  0  0  0  0
 19 39  1  0  0  0  0
 20 21  1  0  0  0  0
 20 25  1  0  0  0  0
 21 22  1  0  0  0  0
 22 23  2  0  0  0  0
 22 40  1  0  0  0  0
 23 24  1  0  0  0  0
 23 41  1  0  0  0  0
 24 25  2  0  0  0  0
 24 42  1  0  0  0  0
 25 43  1  0  0  0  0
M  END
$$$$
