
 OpenBabel07202414123D

 57 59  0  0  1  0  0  0  0  0999 V2000
    3.5236   -0.6028   -1.3001 C   0  0  0  0  0  0  0  0  0  0  0  0
    4.3270   -1.1717   -0.1121 C   0  0  0  0  0  0  0  0  0  0  0  0
    3.3992   -2.0545    0.7488 C   0  0  0  0  0  0  0  0  0  0  0  0
    5.4286   -2.0815   -0.6879 C   0  0  0  0  0  0  0  0  0  0  0  0
    4.9561   -0.0865    0.6909 N   0  0  0  0  0  0  0  0  0  0  0  0
    4.2256    0.8918    1.3319 C   0  0  0  0  0  0  0  0  0  0  0  0
    2.9940    0.8435    1.2912 O   0  0  0  0  0  0  0  0  0  0  0  0
    4.9569    2.0595    2.1204 C   0  0  3  0  0  0  0  0  0  0  0  0
    4.5492    2.1248    3.6212 C   0  0  0  0  0  0  0  0  0  0  0  0
    5.4946    2.0003    4.6431 C   0  0  0  0  0  0  0  0  0  0  0  0
    5.2417    1.8607    5.9614 N   0  0  0  0  0  0  0  0  0  0  0  0
    3.9550    1.9041    6.3277 C   0  0  0  0  0  0  0  0  0  0  0  0
    2.9112    2.1611    5.4534 C   0  0  0  0  0  0  0  0  0  0  0  0
    3.1963    2.3052    4.0689 C   0  0  0  0  0  0  0  0  0  0  0  0
    2.0862    2.6461    3.2544 C   0  0  0  0  0  0  0  0  0  0  0  0
    0.7883    2.7795    3.7659 C   0  0  0  0  0  0  0  0  0  0  0  0
    0.5488    2.5976    5.1193 C   0  0  0  0  0  0  0  0  0  0  0  0
    1.6086    2.2899    5.9611 C   0  0  0  0  0  0  0  0  0  0  0  0
    6.4263    2.2571    1.8257 N   0  0  0  0  0  0  0  0  0  0  0  0
    7.4105    1.3046    2.3689 C   0  0  0  0  0  0  0  0  0  0  0  0
    8.3315    0.5829    1.4129 C   0  0  0  0  0  0  0  0  0  0  0  0
    8.3591    0.8520    0.0371 C   0  0  0  0  0  0  0  0  0  0  0  0
    9.1989    0.1389   -0.8144 C   0  0  0  0  0  0  0  0  0  0  0  0
   10.0342   -0.8531   -0.3069 C   0  0  0  0  0  0  0  0  0  0  0  0
   10.0521   -1.1121    1.0608 C   0  0  0  0  0  0  0  0  0  0  0  0
    9.2179   -0.3924    1.9167 C   0  0  0  0  0  0  0  0  0  0  0  0
    9.3283   -0.7414    3.6099 Cl  0  0  0  0  0  0  0  0  0  0  0  0
    6.9561    3.4660    1.3720 C   0  0  0  0  0  0  0  0  0  0  0  0
    8.1590    3.7268    1.3784 O   0  0  0  0  0  0  0  0  0  0  0  0
    6.0304    4.4541    0.7783 C   0  0  0  0  0  0  0  0  0  0  0  0
    6.1181    4.7242   -0.5308 C   0  0  0  0  0  0  0  0  0  0  0  0
    3.0946   -1.4087   -1.9080 H   0  0  0  0  0  0  0  0  0  0  0  0
    4.1595    0.0068   -1.9513 H   0  0  0  0  0  0  0  0  0  0  0  0
    2.6872    0.0252   -0.9779 H   0  0  0  0  0  0  0  0  0  0  0  0
    3.0291   -2.9136    0.1757 H   0  0  0  0  0  0  0  0  0  0  0  0
    2.5165   -1.5131    1.1038 H   0  0  0  0  0  0  0  0  0  0  0  0
    3.9246   -2.4403    1.6289 H   0  0  0  0  0  0  0  0  0  0  0  0
    5.0003   -2.8481   -1.3513 H   0  0  0  0  0  0  0  0  0  0  0  0
    5.9771   -2.5976    0.1047 H   0  0  0  0  0  0  0  0  0  0  0  0
    6.1499   -1.5062   -1.2758 H   0  0  0  0  0  0  0  0  0  0  0  0
    5.9508    0.0499    0.5885 H   0  0  0  0  0  0  0  0  0  0  0  0
    4.4672    2.9382    1.6907 H   0  0  0  0  0  0  0  0  0  0  0  0
    6.5593    2.0263    4.4725 H   0  0  0  0  0  0  0  0  0  0  0  0
    3.7883    1.7531    7.3906 H   0  0  0  0  0  0  0  0  0  0  0  0
    2.2027    2.8191    2.1878 H   0  0  0  0  0  0  0  0  0  0  0  0
   -0.0335    3.0225    3.0972 H   0  0  0  0  0  0  0  0  0  0  0  0
   -0.4541    2.7060    5.5215 H   0  0  0  0  0  0  0  0  0  0  0  0
    1.4160    2.1655    7.0249 H   0  0  0  0  0  0  0  0  0  0  0  0
    6.8570    0.5306    2.9103 H   0  0  0  0  0  0  0  0  0  0  0  0
    8.0507    1.8616    3.0677 H   0  0  0  0  0  0  0  0  0  0  0  0
    7.7397    1.6350   -0.3913 H   0  0  0  0  0  0  0  0  0  0  0  0
    9.2095    0.3689   -1.8768 H   0  0  0  0  0  0  0  0  0  0  0  0
   10.6834   -1.4113   -0.9748 H   0  0  0  0  0  0  0  0  0  0  0  0
   10.7236   -1.8701    1.4560 H   0  0  0  0  0  0  0  0  0  0  0  0
    5.3452    4.9740    1.4338 H   0  0  0  0  0  0  0  0  0  0  0  0
    6.8437    4.2255   -1.1693 H   0  0  0  0  0  0  0  0  0  0  0  0
    5.4791    5.4724   -0.9893 H   0  0  0  0  0  0  0  0  0  0  0  0
  1  2  1  0  0  0  0
  1 32  1  0  0  0  0
  1 33  1  0  0  0  0
  1 34  1  0  0  0  0
  2  3  1  0  0  0  0
  2  4  1  0  0  0  0
  2  5  1  0  0  0  0
  3 35  1  0  0  0  0
  3 36  1  0  0  0  0
  3 37  1  0  0  0  0
  4 38  1  0  0  0  0
  4 39  1  0  0  0  0
  4 40  1  0  0  0  0
  5  6  1  0  0  0  0
  5 41  1  0  0  0  0
  6  7  2  0  0  0  0
  6  8  1  0  0  0  0
  8  9  1  0  0  0  0
  8 19  1  0  0  0  0
  8 42  1  0  0  0  0
  9 10  1  0  0  0  0
  9 14  2  0  0  0  0
 10 11  2  0  0  0  0
 10 43  1  0  0  0  0
 11 12  1  0  0  0  0
 12 13  2  0  0  0  0
 12 44  1  0  0  0  0
 13 14  1  0  0  0  0
 13 18  1  0  0  0  0
 14 15  1  0  0  0  0
 15 16  2  0  0  0  0
 15 45  1  0  0  0  0
 16 17  1  0  0  0  0
 16 46  1  0  0  0  0
 17 18  2  0  0  0  0
 17 47  1  0  0  0  0
 18 48  1  0  0  0  0
 19 20  1  0  0  0  0
 19 28  1  0  0  0  0
 20 21  1  0  0  0  0
 20 49  1  0  0  0  0
 20 50  1  0  0  0  0
 21 22  1  0  0  0  0
 21 26  2  0  0  0  0
 22 23  2  0  0  0  0
 22 51  1  0  0  0  0
 23 24  1  0  0  0  0
 23 52  1  0  0  0  0
 24 25  2  0  0  0  0
 24 53  1  0  0  0  0
 25 26  1  0  0  0  0
 25 54  1  0  0  0  0
 26 27  1  0  0  0  0
 28 29  2  0  0  0  0
 28 30  1  0  0  0  0
 30 31  2  0  0  0  0
 30 55  1  0  0  0  0
 31 56  1  0  0  0  0
 31 57  1  0  0  0  0
M  END
$$$$
