
 OpenBabel07202414153D

 52 55  0  0  1  0  0  0  0  0999 V2000
    3.1680    1.5240   -0.9284 C   0  0  0  0  0  0  0  0  0  0  0  0
    2.8429    0.3407   -0.2102 O   0  0  0  0  0  0  0  0  0  0  0  0
    3.1598   -0.8578   -0.9347 C   0  0  2  0  0  0  0  0  0  0  0  0
    2.4626   -2.0062   -0.2011 C   0  0  0  0  0  0  0  0  0  0  0  0
    4.6980   -1.0772   -1.0116 C   0  0  0  0  0  0  0  0  0  0  0  0
    5.0681   -2.3419   -1.6360 N   0  0  0  0  0  0  0  0  0  0  0  0
    6.2950   -3.0203   -1.2399 C   0  0  0  0  0  0  0  0  0  0  0  0
    6.1194   -4.5456   -1.2599 C   0  0  2  0  0  0  0  0  0  0  0  0
    7.5136   -5.1841   -1.3273 C   0  0  0  0  0  0  0  0  0  0  0  0
    8.1231   -5.4339   -0.2891 O   0  0  0  0  0  0  0  0  0  0  0  0
    8.0077   -5.3591   -2.6126 N   0  0  0  0  0  0  0  0  0  0  0  0
    9.2845   -5.8525   -3.0005 C   0  0  0  0  0  0  0  0  0  0  0  0
   10.2870   -6.1607   -2.0791 C   0  0  0  0  0  0  0  0  0  0  0  0
   11.5554   -6.4977   -2.4098 N   0  0  0  0  0  0  0  0  0  0  0  0
   11.8253   -6.5961   -3.7261 C   0  0  0  0  0  0  0  0  0  0  0  0
   10.8899   -6.4343   -4.7432 C   0  0  0  0  0  0  0  0  0  0  0  0
   11.2318   -6.6934   -6.0842 C   0  0  0  0  0  0  0  0  0  0  0  0
   10.2865   -6.5613   -7.0974 C   0  0  0  0  0  0  0  0  0  0  0  0
    9.0047   -6.1336   -6.7837 C   0  0  0  0  0  0  0  0  0  0  0  0
    8.6565   -5.8666   -5.4554 C   0  0  0  0  0  0  0  0  0  0  0  0
    9.5793   -6.0306   -4.3862 C   0  0  0  0  0  0  0  0  0  0  0  0
    5.1677   -5.0047   -2.3565 C   0  0  0  0  0  0  0  0  0  0  0  0
    4.8370   -6.3627   -2.4859 C   0  0  0  0  0  0  0  0  0  0  0  0
    3.9316   -6.7749   -3.4663 C   0  0  0  0  0  0  0  0  0  0  0  0
    3.4653   -8.4271   -3.5511 Cl  0  0  0  0  0  0  0  0  0  0  0  0
    3.3764   -5.8546   -4.3533 C   0  0  0  0  0  0  0  0  0  0  0  0
    3.6826   -4.5042   -4.2275 C   0  0  0  0  0  0  0  0  0  0  0  0
    4.5435   -4.0765   -3.2099 C   0  0  0  0  0  0  0  0  0  0  0  0
    4.5960   -2.6236   -2.9093 C   0  0  0  0  0  0  0  0  0  0  0  0
    4.1171   -1.7987   -3.6747 O   0  0  0  0  0  0  0  0  0  0  0  0
    2.7604    2.3769   -0.3805 H   0  0  0  0  0  0  0  0  0  0  0  0
    2.7309    1.5106   -1.9317 H   0  0  0  0  0  0  0  0  0  0  0  0
    4.2520    1.6480   -0.9886 H   0  0  0  0  0  0  0  0  0  0  0  0
    2.7163   -0.7887   -1.9337 H   0  0  0  0  0  0  0  0  0  0  0  0
    2.8508   -2.1182    0.8166 H   0  0  0  0  0  0  0  0  0  0  0  0
    2.5735   -2.9597   -0.7255 H   0  0  0  0  0  0  0  0  0  0  0  0
    1.3892   -1.7991   -0.1046 H   0  0  0  0  0  0  0  0  0  0  0  0
    5.0992   -1.0538    0.0086 H   0  0  0  0  0  0  0  0  0  0  0  0
    5.1841   -0.2720   -1.5712 H   0  0  0  0  0  0  0  0  0  0  0  0
    6.5996   -2.6926   -0.2392 H   0  0  0  0  0  0  0  0  0  0  0  0
    7.0796   -2.6969   -1.9380 H   0  0  0  0  0  0  0  0  0  0  0  0
    5.6610   -4.8482   -0.3085 H   0  0  0  0  0  0  0  0  0  0  0  0
    7.3984   -5.0971   -3.3723 H   0  0  0  0  0  0  0  0  0  0  0  0
   10.1253   -6.1481   -1.0078 H   0  0  0  0  0  0  0  0  0  0  0  0
   12.8654   -6.8296   -3.9522 H   0  0  0  0  0  0  0  0  0  0  0  0
   12.2330   -7.0352   -6.3436 H   0  0  0  0  0  0  0  0  0  0  0  0
   10.5487   -6.8022   -8.1243 H   0  0  0  0  0  0  0  0  0  0  0  0
    8.2630   -6.0243   -7.5703 H   0  0  0  0  0  0  0  0  0  0  0  0
    7.6309   -5.5611   -5.2778 H   0  0  0  0  0  0  0  0  0  0  0  0
    5.2521   -7.0964   -1.7965 H   0  0  0  0  0  0  0  0  0  0  0  0
    2.6608   -6.1756   -5.1082 H   0  0  0  0  0  0  0  0  0  0  0  0
    3.1936   -3.7762   -4.8752 H   0  0  0  0  0  0  0  0  0  0  0  0
  1  2  1  0  0  0  0
  1 31  1  0  0  0  0
  1 32  1  0  0  0  0
  1 33  1  0  0  0  0
  3  5  1  0  0  0  0
  3  4  1  0  0  0  0
  3  2  1  0  0  0  0
  3 34  1  6  0  0  0
  4 35  1  0  0  0  0
  4 36  1  0  0  0  0
  4 37  1  0  0  0  0
  5  6  1  0  0  0  0
  5 38  1  0  0  0  0
  5 39  1  0  0  0  0
  6  7  1  0  0  0  0
  6 29  1  0  0  0  0
  7  8  1  0  0  0  0
  7 40  1  0  0  0  0
  7 41  1  0  0  0  0
  8 22  1  0  0  0  0
  8  9  1  0  0  0  0
  8 42  1  1  0  0  0
  9 10  2  0  0  0  0
  9 11  1  0  0  0  0
 11 12  1  0  0  0  0
 11 43  1  0  0  0  0
 12 13  1  0  0  0  0
 12 21  2  0  0  0  0
 13 14  2  0  0  0  0
 13 44  1  0  0  0  0
 14 15  1  0  0  0  0
 15 16  2  0  0  0  0
 15 45  1  0  0  0  0
 16 17  1  0  0  0  0
 16 21  1  0  0  0  0
 17 18  2  0  0  0  0
 17 46  1  0  0  0  0
 18 19  1  0  0  0  0
 18 47  1  0  0  0  0
 19 20  2  0  0  0  0
 19 48  1  0  0  0  0
 20 21  1  0  0  0  0
 20 49  1  0  0  0  0
 22 23  1  0  0  0  0
 22 28  2  0  0  0  0
 23 24  2  0  0  0  0
 23 50  1  0  0  0  0
 24 25  1  0  0  0  0
 24 26  1  0  0  0  0
 26 27  2  0  0  0  0
 26 51  1  0  0  0  0
 27 28  1  0  0  0  0
 27 52  1  0  0  0  0
 28 29  1  0  0  0  0
 29 30  2  0  0  0  0
M  END
$$$$
