
 OpenBabel07202414193D

 37 38  0  0  0  0  0  0  0  0999 V2000
    0.2787    1.6588    1.1345 F   0  0  0  0  0  0  0  0  0  0  0  0
   -0.1368    0.8279    0.1700 C   0  0  0  0  0  0  0  0  0  0  0  0
    0.1746    1.1134   -1.1565 C   0  0  0  0  0  0  0  0  0  0  0  0
   -0.2449    0.2440   -2.1634 C   0  0  0  0  0  0  0  0  0  0  0  0
   -0.9777   -0.9000   -1.8311 C   0  0  0  0  0  0  0  0  0  0  0  0
   -1.3123   -1.1564   -0.4927 C   0  0  0  0  0  0  0  0  0  0  0  0
   -2.1916   -2.6556   -0.0509 S   0  0  0  0  0  0  0  0  0  0  0  0
   -2.0131   -3.5798   -1.1518 O   0  0  0  0  0  0  0  0  0  0  0  0
   -1.7982   -3.0065    1.2917 O   0  0  0  0  0  0  0  0  0  0  0  0
   -3.8625   -2.1911   -0.0302 N   0  0  0  0  0  0  0  0  0  0  0  0
   -4.3242   -1.4893   -1.2632 C   0  0  0  0  0  0  0  0  0  0  0  0
   -5.7325   -1.8605   -1.7057 C   0  0  0  0  0  0  0  0  0  0  0  0
   -6.8891   -1.5056   -0.7756 C   0  0  0  0  0  0  0  0  0  0  0  0
   -6.5128   -0.7563    0.4145 N   0  0  0  0  0  0  0  0  0  0  0  0
   -6.7180    0.6230    0.4481 C   0  0  0  0  0  0  0  0  0  0  0  0
   -7.2083    1.2275   -0.5066 O   0  0  0  0  0  0  0  0  0  0  0  0
   -6.3008    1.3868    1.6957 C   0  0  0  0  0  0  0  0  0  0  0  0
   -7.6461    1.4257    2.8482 Cl  0  0  0  0  0  0  0  0  0  0  0  0
   -5.8279   -1.5306    1.4470 C   0  0  0  0  0  0  0  0  0  0  0  0
   -4.3035   -1.5913    1.2659 C   0  0  0  0  0  0  0  0  0  0  0  0
   -0.8701   -0.3032    0.5174 C   0  0  0  0  0  0  0  0  0  0  0  0
    0.7514    2.0022   -1.3944 H   0  0  0  0  0  0  0  0  0  0  0  0
    0.0102    0.4541   -3.2009 H   0  0  0  0  0  0  0  0  0  0  0  0
   -1.2728   -1.5861   -2.6256 H   0  0  0  0  0  0  0  0  0  0  0  0
   -3.6775   -1.7762   -2.1009 H   0  0  0  0  0  0  0  0  0  0  0  0
   -4.2221   -0.4059   -1.1437 H   0  0  0  0  0  0  0  0  0  0  0  0
   -5.7825   -2.9305   -1.9448 H   0  0  0  0  0  0  0  0  0  0  0  0
   -5.9131   -1.3481   -2.6613 H   0  0  0  0  0  0  0  0  0  0  0  0
   -7.3882   -2.4253   -0.4462 H   0  0  0  0  0  0  0  0  0  0  0  0
   -7.6479   -0.9545   -1.3434 H   0  0  0  0  0  0  0  0  0  0  0  0
   -6.0402    2.4126    1.4218 H   0  0  0  0  0  0  0  0  0  0  0  0
   -5.4287    0.9492    2.1805 H   0  0  0  0  0  0  0  0  0  0  0  0
   -6.2559   -2.5406    1.4642 H   0  0  0  0  0  0  0  0  0  0  0  0
   -6.0485   -1.0992    2.4275 H   0  0  0  0  0  0  0  0  0  0  0  0
   -3.9478   -2.2259    2.0855 H   0  0  0  0  0  0  0  0  0  0  0  0
   -3.8588   -0.6000    1.3838 H   0  0  0  0  0  0  0  0  0  0  0  0
   -1.0654   -0.5095    1.5642 H   0  0  0  0  0  0  0  0  0  0  0  0
  1  2  1  0  0  0  0
  2  3  1  0  0  0  0
  2 21  2  0  0  0  0
  3  4  2  0  0  0  0
  3 22  1  0  0  0  0
  4  5  1  0  0  0  0
  4 23  1  0  0  0  0
  5  6  2  0  0  0  0
  5 24  1  0  0  0  0
  6  7  1  0  0  0  0
  6 21  1  0  0  0  0
  7  8  2  0  0  0  0
  7  9  2  0  0  0  0
  7 10  1  0  0  0  0
 10 11  1  0  0  0  0
 10 20  1  0  0  0  0
 11 12  1  0  0  0  0
 11 25  1  0  0  0  0
 11 26  1  0  0  0  0
 12 13  1  0  0  0  0
 12 27  1  0  0  0  0
 12 28  1  0  0  0  0
 13 14  1  0  0  0  0
 13 29  1  0  0  0  0
 13 30  1  0  0  0  0
 14 15  1  0  0  0  0
 14 19  1  0  0  0  0
 15 16  2  0  0  0  0
 15 17  1  0  0  0  0
 17 18  1  0  0  0  0
 17 31  1  0  0  0  0
 17 32  1  0  0  0  0
 19 20  1  0  0  0  0
 19 33  1  0  0  0  0
 19 34  1  0  0  0  0
 20 35  1  0  0  0  0
 20 36  1  0  0  0  0
 21 37  1  0  0  0  0
M  END
$$$$
