
 OpenBabel07202414153D

 41 42  0  0  0  0  0  0  0  0999 V2000
    5.7441    2.8943    5.0236 C   0  0  0  0  0  0  0  0  0  0  0  0
    5.9577    1.9955    3.9409 O   0  0  0  0  0  0  0  0  0  0  0  0
    4.7481    1.3373    3.5739 C   0  0  0  0  0  0  0  0  0  0  0  0
    4.9749    0.4538    2.3682 C   0  0  0  0  0  0  0  0  0  0  0  0
    5.9592   -0.5570    2.3593 C   0  0  0  0  0  0  0  0  0  0  0  0
    6.1106   -1.4287    1.2621 C   0  0  0  0  0  0  0  0  0  0  0  0
    5.2545   -1.2638    0.1593 C   0  0  0  0  0  0  0  0  0  0  0  0
    4.2909   -0.2545    0.1544 C   0  0  0  0  0  0  0  0  0  0  0  0
    4.1459    0.5960    1.2465 C   0  0  0  0  0  0  0  0  0  0  0  0
    3.2376   -0.0916   -1.1992 Cl  0  0  0  0  0  0  0  0  0  0  0  0
    7.0937   -2.5923    1.2898 C   0  0  0  0  0  0  0  0  0  0  0  0
    8.4924   -2.2105    1.5303 N   0  0  0  0  0  0  0  0  0  0  0  0
    9.1093   -1.4683    0.4190 C   0  0  0  0  0  0  0  0  0  0  0  0
    9.3908   -2.2970   -0.8483 C   0  0  0  0  0  0  0  0  0  0  0  0
   10.0756   -3.5694   -0.6026 N   0  0  0  0  0  0  0  0  0  0  0  0
    9.7857   -4.2636    0.6553 C   0  0  0  0  0  0  0  0  0  0  0  0
    9.3494   -3.3742    1.8387 C   0  0  0  0  0  0  0  0  0  0  0  0
   10.5765   -4.3762   -1.6412 C   0  0  0  0  0  0  0  0  0  0  0  0
   11.0490   -5.4889   -1.4043 O   0  0  0  0  0  0  0  0  0  0  0  0
   10.4525   -3.8162   -3.0560 C   0  0  0  0  0  0  0  0  0  0  0  0
   11.0781   -4.9450   -4.2779 Cl  0  0  0  0  0  0  0  0  0  0  0  0
    6.6997    3.3605    5.2773 H   0  0  0  0  0  0  0  0  0  0  0  0
    5.3726    2.3574    5.9024 H   0  0  0  0  0  0  0  0  0  0  0  0
    5.0379    3.6824    4.7414 H   0  0  0  0  0  0  0  0  0  0  0  0
    3.9828    2.0921    3.3481 H   0  0  0  0  0  0  0  0  0  0  0  0
    4.3828    0.7242    4.4055 H   0  0  0  0  0  0  0  0  0  0  0  0
    6.6021   -0.6772    3.2328 H   0  0  0  0  0  0  0  0  0  0  0  0
    5.3272   -1.9359   -0.6917 H   0  0  0  0  0  0  0  0  0  0  0  0
    3.3705    1.3631    1.2284 H   0  0  0  0  0  0  0  0  0  0  0  0
    7.0001   -3.1834    0.3704 H   0  0  0  0  0  0  0  0  0  0  0  0
    6.7494   -3.2478    2.1016 H   0  0  0  0  0  0  0  0  0  0  0  0
   10.0648   -1.0671    0.7841 H   0  0  0  0  0  0  0  0  0  0  0  0
    8.5120   -0.5889    0.1544 H   0  0  0  0  0  0  0  0  0  0  0  0
   10.0163   -1.6998   -1.5212 H   0  0  0  0  0  0  0  0  0  0  0  0
    8.4585   -2.5205   -1.3766 H   0  0  0  0  0  0  0  0  0  0  0  0
   10.6824   -4.8255    0.9494 H   0  0  0  0  0  0  0  0  0  0  0  0
    9.0042   -5.0016    0.4378 H   0  0  0  0  0  0  0  0  0  0  0  0
   10.2587   -2.9845    2.3145 H   0  0  0  0  0  0  0  0  0  0  0  0
    8.8807   -4.0058    2.6044 H   0  0  0  0  0  0  0  0  0  0  0  0
   11.0127   -2.8847   -3.1531 H   0  0  0  0  0  0  0  0  0  0  0  0
    9.3964   -3.6535   -3.2877 H   0  0  0  0  0  0  0  0  0  0  0  0
  1  2  1  0  0  0  0
  1 22  1  0  0  0  0
  1 23  1  0  0  0  0
  1 24  1  0  0  0  0
  2  3  1  0  0  0  0
  3  4  1  0  0  0  0
  3 25  1  0  0  0  0
  3 26  1  0  0  0  0
  4  5  1  0  0  0  0
  4  9  2  0  0  0  0
  5  6  2  0  0  0  0
  5 27  1  0  0  0  0
  6  7  1  0  0  0  0
  6 11  1  0  0  0  0
  7  8  2  0  0  0  0
  7 28  1  0  0  0  0
  8  9  1  0  0  0  0
  8 10  1  0  0  0  0
  9 29  1  0  0  0  0
 11 12  1  0  0  0  0
 11 30  1  0  0  0  0
 11 31  1  0  0  0  0
 12 13  1  0  0  0  0
 12 17  1  0  0  0  0
 13 14  1  0  0  0  0
 13 32  1  0  0  0  0
 13 33  1  0  0  0  0
 14 15  1  0  0  0  0
 14 34  1  0  0  0  0
 14 35  1  0  0  0  0
 15 16  1  0  0  0  0
 15 18  1  0  0  0  0
 16 17  1  0  0  0  0
 16 36  1  0  0  0  0
 16 37  1  0  0  0  0
 17 38  1  0  0  0  0
 17 39  1  0  0  0  0
 18 19  2  0  0  0  0
 18 20  1  0  0  0  0
 20 21  1  0  0  0  0
 20 40  1  0  0  0  0
 20 41  1  0  0  0  0
M  END
$$$$
