
 OpenBabel07202414133D

 66 71  0  0  1  0  0  0  0  0999 V2000
   14.4695   -4.8862    5.3659 C   0  0  0  0  0  0  0  0  0  0  0  0
   13.1671   -4.4748    4.8573 N   0  0  0  0  0  0  0  0  0  0  0  0
   12.2795   -5.6509    4.6783 C   0  0  0  0  0  0  0  0  0  0  0  0
   11.7834   -4.9951    3.3601 C   0  0  0  0  0  0  0  0  0  0  0  0
   10.5474   -4.1355    3.5679 C   0  0  0  0  0  0  0  0  0  0  0  0
   10.0430   -3.6854    2.2855 N   0  0  0  0  0  0  0  0  0  0  0  0
    8.8497   -2.9929    2.2336 C   0  0  0  0  0  0  0  0  0  0  0  0
    8.1079   -2.9065    3.2134 O   0  0  0  0  0  0  0  0  0  0  0  0
    8.4567   -2.3502    0.8944 C   0  0  0  0  0  0  0  0  0  0  0  0
    9.5434   -2.2830   -0.1130 N   0  0  0  0  0  0  0  0  0  0  0  0
   10.6271   -1.3652    0.2565 C   0  0  0  0  0  0  0  0  0  0  0  0
   10.3546    0.1030    0.0452 C   0  0  0  0  0  0  0  0  0  0  0  0
   11.1759    1.0157    0.7400 C   0  0  0  0  0  0  0  0  0  0  0  0
   11.0413    2.3861    0.5528 C   0  0  0  0  0  0  0  0  0  0  0  0
   10.0788    2.8542   -0.3288 C   0  0  0  0  0  0  0  0  0  0  0  0
    9.9222    4.5476   -0.5975 Cl  0  0  0  0  0  0  0  0  0  0  0  0
    9.2629    1.9664   -1.0316 C   0  0  0  0  0  0  0  0  0  0  0  0
    9.3978    0.5674   -0.8781 C   0  0  0  0  0  0  0  0  0  0  0  0
    8.5532   -0.4281   -1.6905 C   0  0  3  0  0  0  0  0  0  0  0  0
    8.6574   -0.1278   -3.2008 C   0  0  0  0  0  0  0  0  0  0  0  0
    7.4099    0.6475   -3.5847 C   0  0  0  0  0  0  0  0  0  0  0  0
    6.5211    0.6089   -2.4535 N   0  0  0  0  0  0  0  0  0  0  0  0
    5.5496    1.6551   -2.2113 C   0  0  0  0  0  0  0  0  0  0  0  0
    5.2185    2.0013   -0.8945 C   0  0  0  0  0  0  0  0  0  0  0  0
    4.6316    3.1636   -0.5181 N   0  0  0  0  0  0  0  0  0  0  0  0
    4.2875    4.0131   -1.5024 C   0  0  0  0  0  0  0  0  0  0  0  0
    4.3877    3.7186   -2.8570 C   0  0  0  0  0  0  0  0  0  0  0  0
    3.8580    4.6049   -3.8158 C   0  0  0  0  0  0  0  0  0  0  0  0
    3.8828    4.2835   -5.1683 C   0  0  0  0  0  0  0  0  0  0  0  0
    4.4474    3.0842   -5.5720 C   0  0  0  0  0  0  0  0  0  0  0  0
    4.9949    2.2121   -4.6247 C   0  0  0  0  0  0  0  0  0  0  0  0
    5.0096    2.4993   -3.2363 C   0  0  0  0  0  0  0  0  0  0  0  0
    7.0422   -0.2269   -1.4465 C   0  0  0  0  0  0  0  0  0  0  0  0
    6.4118   -0.6748   -0.4997 O   0  0  0  0  0  0  0  0  0  0  0  0
    9.0128   -1.9022   -1.4450 C   0  0  0  0  0  0  0  0  0  0  0  0
   13.1787   -4.3060    3.3819 C   0  0  0  0  0  0  0  0  0  0  0  0
   14.3759   -5.1950    6.4135 H   0  0  0  0  0  0  0  0  0  0  0  0
   15.1654   -4.0411    5.3410 H   0  0  0  0  0  0  0  0  0  0  0  0
   14.9214   -5.7157    4.8099 H   0  0  0  0  0  0  0  0  0  0  0  0
   11.5327   -5.7806    5.4676 H   0  0  0  0  0  0  0  0  0  0  0  0
   12.7860   -6.6125    4.5204 H   0  0  0  0  0  0  0  0  0  0  0  0
   11.6519   -5.7219    2.5492 H   0  0  0  0  0  0  0  0  0  0  0  0
   10.7447   -3.2540    4.1901 H   0  0  0  0  0  0  0  0  0  0  0  0
    9.7535   -4.7164    4.0504 H   0  0  0  0  0  0  0  0  0  0  0  0
   10.6081   -3.7015    1.4445 H   0  0  0  0  0  0  0  0  0  0  0  0
    8.0692   -1.3547    1.1274 H   0  0  0  0  0  0  0  0  0  0  0  0
    7.6425   -2.9733    0.5034 H   0  0  0  0  0  0  0  0  0  0  0  0
   11.5069   -1.6261   -0.3466 H   0  0  0  0  0  0  0  0  0  0  0  0
   10.9293   -1.5165    1.2990 H   0  0  0  0  0  0  0  0  0  0  0  0
   11.9385    0.6514    1.4273 H   0  0  0  0  0  0  0  0  0  0  0  0
   11.6866    3.0736    1.0905 H   0  0  0  0  0  0  0  0  0  0  0  0
    8.5312    2.3845   -1.7141 H   0  0  0  0  0  0  0  0  0  0  0  0
    8.6858   -1.0503   -3.7940 H   0  0  0  0  0  0  0  0  0  0  0  0
    9.5616    0.4323   -3.4679 H   0  0  0  0  0  0  0  0  0  0  0  0
    6.9316    0.1267   -4.4191 H   0  0  0  0  0  0  0  0  0  0  0  0
    7.6557    1.6739   -3.8721 H   0  0  0  0  0  0  0  0  0  0  0  0
    5.4621    1.3698   -0.0460 H   0  0  0  0  0  0  0  0  0  0  0  0
    3.8893    4.9642   -1.1557 H   0  0  0  0  0  0  0  0  0  0  0  0
    3.3852    5.5372   -3.5093 H   0  0  0  0  0  0  0  0  0  0  0  0
    3.4366    4.9503   -5.9015 H   0  0  0  0  0  0  0  0  0  0  0  0
    4.4460    2.8073   -6.6234 H   0  0  0  0  0  0  0  0  0  0  0  0
    5.3558    1.2624   -4.9994 H   0  0  0  0  0  0  0  0  0  0  0  0
    9.8347   -2.1169   -2.1451 H   0  0  0  0  0  0  0  0  0  0  0  0
    8.2176   -2.6011   -1.7372 H   0  0  0  0  0  0  0  0  0  0  0  0
   13.2112   -3.2679    3.0389 H   0  0  0  0  0  0  0  0  0  0  0  0
   13.9523   -4.8739    2.8469 H   0  0  0  0  0  0  0  0  0  0  0  0
  1  2  1  0  0  0  0
  1 37  1  0  0  0  0
  1 38  1  0  0  0  0
  1 39  1  0  0  0  0
  2  3  1  0  0  0  0
  2 36  1  0  0  0  0
  3  4  1  0  0  0  0
  3 40  1  0  0  0  0
  3 41  1  0  0  0  0
  4  5  1  0  0  0  0
  4 36  1  0  0  0  0
  4 42  1  0  0  0  0
  5  6  1  0  0  0  0
  5 43  1  0  0  0  0
  5 44  1  0  0  0  0
  6  7  1  0  0  0  0
  6 45  1  0  0  0  0
  7  8  2  0  0  0  0
  7  9  1  0  0  0  0
  9 10  1  0  0  0  0
  9 46  1  0  0  0  0
  9 47  1  0  0  0  0
 10 11  1  0  0  0  0
 10 35  1  0  0  0  0
 11 12  1  0  0  0  0
 11 48  1  0  0  0  0
 11 49  1  0  0  0  0
 12 13  1  0  0  0  0
 12 18  2  0  0  0  0
 13 14  2  0  0  0  0
 13 50  1  0  0  0  0
 14 15  1  0  0  0  0
 14 51  1  0  0  0  0
 15 16  1  0  0  0  0
 15 17  2  0  0  0  0
 17 18  1  0  0  0  0
 17 52  1  0  0  0  0
 18 19  1  0  0  0  0
 19 20  1  0  0  0  0
 19 33  1  0  0  0  0
 19 35  1  0  0  0  0
 20 21  1  0  0  0  0
 20 53  1  0  0  0  0
 20 54  1  0  0  0  0
 21 22  1  0  0  0  0
 21 55  1  0  0  0  0
 21 56  1  0  0  0  0
 22 23  1  0  0  0  0
 22 33  1  0  0  0  0
 23 24  1  0  0  0  0
 23 32  2  0  0  0  0
 24 25  2  0  0  0  0
 24 57  1  0  0  0  0
 25 26  1  0  0  0  0
 26 27  2  0  0  0  0
 26 58  1  0  0  0  0
 27 28  1  0  0  0  0
 27 32  1  0  0  0  0
 28 29  2  0  0  0  0
 28 59  1  0  0  0  0
 29 30  1  0  0  0  0
 29 60  1  0  0  0  0
 30 31  2  0  0  0  0
 30 61  1  0  0  0  0
 31 32  1  0  0  0  0
 31 62  1  0  0  0  0
 33 34  2  0  0  0  0
 35 63  1  0  0  0  0
 35 64  1  0  0  0  0
 36 65  1  0  0  0  0
 36 66  1  0  0  0  0
M  END
$$$$
