
 OpenBabel07202414133D

 74 78  0  0  1  0  0  0  0  0999 V2000
    9.1661  -11.4414    5.6520 C   0  0  0  0  0  0  0  0  0  0  0  0
    9.7760  -10.1590    5.2805 N   0  0  0  0  0  0  0  0  0  0  0  0
   11.2331  -10.3064    5.2623 C   0  0  0  0  0  0  0  0  0  0  0  0
    9.2370   -9.7188    3.9775 C   0  0  0  0  0  0  0  0  0  0  0  0
    9.7364   -8.3479    3.4946 C   0  0  0  0  0  0  0  0  0  0  0  0
    9.1096   -8.0496    2.2371 O   0  0  0  0  0  0  0  0  0  0  0  0
    9.4931   -6.8837    1.6264 C   0  0  0  0  0  0  0  0  0  0  0  0
   10.3939   -5.9650    2.1551 C   0  0  0  0  0  0  0  0  0  0  0  0
   10.7048   -4.8126    1.4425 C   0  0  0  0  0  0  0  0  0  0  0  0
   10.1038   -4.5524    0.2044 C   0  0  0  0  0  0  0  0  0  0  0  0
   10.4192   -3.3800   -0.4745 C   0  0  0  0  0  0  0  0  0  0  0  0
    9.8856   -3.0187   -1.6507 N   0  0  0  0  0  0  0  0  0  0  0  0
    8.9673   -3.8625   -2.1729 C   0  0  0  0  0  0  0  0  0  0  0  0
    8.5489   -5.0715   -1.5975 C   0  0  0  0  0  0  0  0  0  0  0  0
    7.5437   -5.8844   -2.2183 N   0  0  0  0  0  0  0  0  0  0  0  0
    6.5920   -5.3892   -3.1004 C   0  0  0  0  0  0  0  0  0  0  0  0
    6.5418   -4.1990   -3.4184 O   0  0  0  0  0  0  0  0  0  0  0  0
    5.6298   -6.3784   -3.7751 C   0  0  3  0  0  0  0  0  0  0  0  0
    4.3377   -5.6117   -4.1510 C   0  0  0  0  0  0  0  0  0  0  0  0
    3.5077   -5.3822   -2.9142 N   0  0  0  0  0  0  0  0  0  0  0  0
    2.3405   -4.1538   -3.0636 S   0  0  0  0  0  0  0  0  0  0  0  0
    2.8704   -3.1725   -3.9793 O   0  0  0  0  0  0  0  0  0  0  0  0
    1.0601   -4.7916   -3.3159 O   0  0  0  0  0  0  0  0  0  0  0  0
    2.2667   -3.4011   -1.4118 C   0  0  0  0  0  0  0  0  0  0  0  0
    1.2046   -2.2680   -1.3519 C   0  0  0  0  0  0  0  0  0  0  0  0
    1.5237   -1.1399   -2.3467 C   0  0  0  0  0  0  0  0  0  0  0  0
    0.9681   -1.6531    0.0758 C   0  0  0  0  0  0  0  0  0  0  0  0
   -0.7793   -1.5182   -0.2420 S   0  0  0  0  0  0  0  0  0  0  0  0
   -1.5546   -2.0493    0.8530 O   0  0  0  0  0  0  0  0  0  0  0  0
   -1.1263   -0.2872   -0.9271 O   0  0  0  0  0  0  0  0  0  0  0  0
   -0.2760   -2.7918   -1.3699 C   0  0  0  0  0  0  0  0  0  0  0  0
    2.9917   -6.6719   -2.3998 C   0  0  0  0  0  0  0  0  0  0  0  0
    4.0271   -7.7829   -2.3847 C   0  0  0  0  0  0  0  0  0  0  0  0
    3.6692   -9.0094   -1.8007 C   0  0  0  0  0  0  0  0  0  0  0  0
    4.5406  -10.0963   -1.8375 C   0  0  0  0  0  0  0  0  0  0  0  0
    5.7737   -9.9690   -2.4682 C   0  0  0  0  0  0  0  0  0  0  0  0
    6.8439  -11.3143   -2.5209 Cl  0  0  0  0  0  0  0  0  0  0  0  0
    6.1418   -8.7646   -3.0714 C   0  0  0  0  0  0  0  0  0  0  0  0
    5.2758   -7.6563   -3.0326 C   0  0  0  0  0  0  0  0  0  0  0  0
    9.1629   -5.4499   -0.3651 C   0  0  0  0  0  0  0  0  0  0  0  0
    8.8928   -6.6307    0.3802 C   0  0  0  0  0  0  0  0  0  0  0  0
    9.5398  -11.7820    6.6243 H   0  0  0  0  0  0  0  0  0  0  0  0
    9.3744  -12.2236    4.9122 H   0  0  0  0  0  0  0  0  0  0  0  0
    8.0801  -11.3392    5.7513 H   0  0  0  0  0  0  0  0  0  0  0  0
   11.5948  -10.6531    6.2375 H   0  0  0  0  0  0  0  0  0  0  0  0
   11.7291   -9.3466    5.0884 H   0  0  0  0  0  0  0  0  0  0  0  0
   11.5667  -11.0179    4.4989 H   0  0  0  0  0  0  0  0  0  0  0  0
    8.1428   -9.6521    4.0516 H   0  0  0  0  0  0  0  0  0  0  0  0
    9.4379  -10.4650    3.1976 H   0  0  0  0  0  0  0  0  0  0  0  0
   10.8223   -8.3787    3.3532 H   0  0  0  0  0  0  0  0  0  0  0  0
    9.4718   -7.5828    4.2352 H   0  0  0  0  0  0  0  0  0  0  0  0
   10.8704   -6.1049    3.1200 H   0  0  0  0  0  0  0  0  0  0  0  0
   11.4122   -4.1059    1.8743 H   0  0  0  0  0  0  0  0  0  0  0  0
   11.1367   -2.6672   -0.0747 H   0  0  0  0  0  0  0  0  0  0  0  0
    8.5935   -3.5133   -3.1304 H   0  0  0  0  0  0  0  0  0  0  0  0
    7.4060   -6.8120   -1.8438 H   0  0  0  0  0  0  0  0  0  0  0  0
    6.1148   -6.6618   -4.7198 H   0  0  0  0  0  0  0  0  0  0  0  0
    3.7469   -6.1906   -4.8742 H   0  0  0  0  0  0  0  0  0  0  0  0
    4.5924   -4.6671   -4.6406 H   0  0  0  0  0  0  0  0  0  0  0  0
    3.2641   -3.0082   -1.1865 H   0  0  0  0  0  0  0  0  0  0  0  0
    2.0269   -4.1958   -0.6975 H   0  0  0  0  0  0  0  0  0  0  0  0
    2.5506   -0.7859   -2.2053 H   0  0  0  0  0  0  0  0  0  0  0  0
    0.8723   -0.2705   -2.2393 H   0  0  0  0  0  0  0  0  0  0  0  0
    1.3958   -1.4670   -3.3796 H   0  0  0  0  0  0  0  0  0  0  0  0
    1.4410   -0.6871    0.2757 H   0  0  0  0  0  0  0  0  0  0  0  0
    1.1556   -2.3215    0.9229 H   0  0  0  0  0  0  0  0  0  0  0  0
   -0.7892   -2.7639   -2.3340 H   0  0  0  0  0  0  0  0  0  0  0  0
   -0.4242   -3.7792   -0.9147 H   0  0  0  0  0  0  0  0  0  0  0  0
    2.1702   -7.0171   -3.0399 H   0  0  0  0  0  0  0  0  0  0  0  0
    2.6209   -6.5249   -1.3800 H   0  0  0  0  0  0  0  0  0  0  0  0
    2.6909   -9.1309   -1.3377 H   0  0  0  0  0  0  0  0  0  0  0  0
    4.2418  -11.0409   -1.3898 H   0  0  0  0  0  0  0  0  0  0  0  0
    7.0919   -8.7053   -3.6002 H   0  0  0  0  0  0  0  0  0  0  0  0
    8.1943   -7.3747    0.0078 H   0  0  0  0  0  0  0  0  0  0  0  0
  1  2  1  0  0  0  0
  1 42  1  0  0  0  0
  1 43  1  0  0  0  0
  1 44  1  0  0  0  0
  2  3  1  0  0  0  0
  2  4  1  0  0  0  0
  3 45  1  0  0  0  0
  3 46  1  0  0  0  0
  3 47  1  0  0  0  0
  4  5  1  0  0  0  0
  4 48  1  0  0  0  0
  4 49  1  0  0  0  0
  5  6  1  0  0  0  0
  5 50  1  0  0  0  0
  5 51  1  0  0  0  0
  6  7  1  0  0  0  0
  7  8  1  0  0  0  0
  7 41  2  0  0  0  0
  8  9  2  0  0  0  0
  8 52  1  0  0  0  0
  9 10  1  0  0  0  0
  9 53  1  0  0  0  0
 10 11  1  0  0  0  0
 10 40  2  0  0  0  0
 11 12  2  0  0  0  0
 11 54  1  0  0  0  0
 12 13  1  0  0  0  0
 13 14  2  0  0  0  0
 13 55  1  0  0  0  0
 14 15  1  0  0  0  0
 14 40  1  0  0  0  0
 15 16  1  0  0  0  0
 15 56  1  0  0  0  0
 16 17  2  0  0  0  0
 16 18  1  0  0  0  0
 18 19  1  0  0  0  0
 18 39  1  0  0  0  0
 18 57  1  0  0  0  0
 19 20  1  0  0  0  0
 19 58  1  0  0  0  0
 19 59  1  0  0  0  0
 20 21  1  0  0  0  0
 20 32  1  0  0  0  0
 21 22  2  0  0  0  0
 21 23  2  0  0  0  0
 21 24  1  0  0  0  0
 24 25  1  0  0  0  0
 24 60  1  0  0  0  0
 24 61  1  0  0  0  0
 25 26  1  0  0  0  0
 25 27  1  0  0  0  0
 25 31  1  0  0  0  0
 26 62  1  0  0  0  0
 26 63  1  0  0  0  0
 26 64  1  0  0  0  0
 27 28  1  0  0  0  0
 27 65  1  0  0  0  0
 27 66  1  0  0  0  0
 28 29  2  0  0  0  0
 28 30  2  0  0  0  0
 28 31  1  0  0  0  0
 31 67  1  0  0  0  0
 31 68  1  0  0  0  0
 32 33  1  0  0  0  0
 32 69  1  0  0  0  0
 32 70  1  0  0  0  0
 33 34  1  0  0  0  0
 33 39  2  0  0  0  0
 34 35  2  0  0  0  0
 34 71  1  0  0  0  0
 35 36  1  0  0  0  0
 35 72  1  0  0  0  0
 36 37  1  0  0  0  0
 36 38  2  0  0  0  0
 38 39  1  0  0  0  0
 38 73  1  0  0  0  0
 40 41  1  0  0  0  0
 41 74  1  0  0  0  0
M  END
$$$$
