
 OpenBabel07202414143D

 83 86  0  0  1  0  0  0  0  0999 V2000
    2.2784    4.1562    5.0611 C   0  0  0  0  0  0  0  0  0  0  0  0
    3.1729    3.5190    4.1493 O   0  0  0  0  0  0  0  0  0  0  0  0
    4.2776    2.9919    4.7402 C   0  0  0  0  0  0  0  0  0  0  0  0
    4.5557    3.1148    5.9298 O   0  0  0  0  0  0  0  0  0  0  0  0
    5.2271    2.3357    3.7398 C   0  0  2  0  0  0  0  0  0  0  0  0
    6.2981    3.3808    3.3597 C   0  0  0  0  0  0  0  0  0  0  0  0
    6.9239    2.8177    2.0848 C   0  0  2  0  0  0  0  0  0  0  0  0
    7.5013    3.8012    1.1796 N   0  0  0  0  0  0  0  0  0  0  0  0
    8.1354    3.3432    0.0372 C   0  0  0  0  0  0  0  0  0  0  0  0
    8.1472    2.1454   -0.2413 O   0  0  0  0  0  0  0  0  0  0  0  0
    8.9218    4.3623   -0.8221 C   0  0  3  0  0  0  0  0  0  0  0  0
    8.0713    5.4259   -1.4580 N   0  0  0  0  0  0  0  0  0  0  0  0
    7.7993    6.7270   -0.9804 C   0  0  0  0  0  0  0  0  0  0  0  0
    7.1423    7.5456   -1.6285 O   0  0  0  0  0  0  0  0  0  0  0  0
    8.3138    7.1776    0.3054 C   0  0  0  0  0  0  0  0  0  0  0  0
    8.5988    8.5005    0.5815 C   0  0  0  0  0  0  0  0  0  0  0  0
    9.0803    8.5820    1.8478 O   0  0  0  0  0  0  0  0  0  0  0  0
    9.0266    7.2987    2.2950 C   0  0  0  0  0  0  0  0  0  0  0  0
    8.5287    6.4229    1.4444 N   0  0  0  0  0  0  0  0  0  0  0  0
    7.4593    5.0723   -2.7248 C   0  0  0  0  0  0  0  0  0  0  0  0
    7.5684    5.9332   -3.8230 C   0  0  0  0  0  0  0  0  0  0  0  0
    6.8790    5.6903   -5.0194 C   0  0  0  0  0  0  0  0  0  0  0  0
    6.0479    4.5731   -5.1735 C   0  0  0  0  0  0  0  0  0  0  0  0
    5.2516    4.3116   -6.4681 C   0  0  0  0  0  0  0  0  0  0  0  0
    5.4824    5.3851   -7.5594 C   0  0  0  0  0  0  0  0  0  0  0  0
    5.6659    2.9516   -7.0673 C   0  0  0  0  0  0  0  0  0  0  0  0
    3.7328    4.2862   -6.1861 C   0  0  0  0  0  0  0  0  0  0  0  0
    5.9763    3.6885   -4.0801 C   0  0  0  0  0  0  0  0  0  0  0  0
    6.6814    3.9224   -2.8815 C   0  0  0  0  0  0  0  0  0  0  0  0
   10.2480    4.7958   -0.1923 C   0  0  0  0  0  0  0  0  0  0  0  0
   11.1023    5.7106   -0.8200 C   0  0  0  0  0  0  0  0  0  0  0  0
   12.2783    6.1150   -0.1864 C   0  0  0  0  0  0  0  0  0  0  0  0
   12.5854    5.5771    1.0516 C   0  0  0  0  0  0  0  0  0  0  0  0
   11.8225    4.6582    1.6707 N   0  0  0  0  0  0  0  0  0  0  0  0
   10.6936    4.2762    1.0298 C   0  0  0  0  0  0  0  0  0  0  0  0
    5.7750    2.0497    1.4275 C   0  0  0  0  0  0  0  0  0  0  0  0
    4.7386    1.9298    2.4284 N   0  0  0  0  0  0  0  0  0  0  0  0
    3.6832    1.1092    2.1255 C   0  0  0  0  0  0  0  0  0  0  0  0
    3.4934    0.7090    0.9831 O   0  0  0  0  0  0  0  0  0  0  0  0
    2.8828    0.8148    3.1823 O   0  0  0  0  0  0  0  0  0  0  0  0
    1.6365    0.1119    2.9102 C   0  0  0  0  0  0  0  0  0  0  0  0
    1.8898   -1.2991    2.3564 C   0  0  0  0  0  0  0  0  0  0  0  0
    0.9272   -0.0276    4.2650 C   0  0  0  0  0  0  0  0  0  0  0  0
    0.7245    0.9373    1.9860 C   0  0  0  0  0  0  0  0  0  0  0  0
    1.3588    4.3957    4.5214 H   0  0  0  0  0  0  0  0  0  0  0  0
    2.7189    5.0865    5.4333 H   0  0  0  0  0  0  0  0  0  0  0  0
    2.0245    3.4901    5.8926 H   0  0  0  0  0  0  0  0  0  0  0  0
    5.6687    1.4480    4.2093 H   0  0  0  0  0  0  0  0  0  0  0  0
    7.0352    3.5310    4.1558 H   0  0  0  0  0  0  0  0  0  0  0  0
    5.8353    4.3563    3.1577 H   0  0  0  0  0  0  0  0  0  0  0  0
    7.7212    2.1157    2.3639 H   0  0  0  0  0  0  0  0  0  0  0  0
    7.7226    4.7453    1.5048 H   0  0  0  0  0  0  0  0  0  0  0  0
    9.2703    3.7527   -1.6727 H   0  0  0  0  0  0  0  0  0  0  0  0
    8.5374    9.4213    0.0163 H   0  0  0  0  0  0  0  0  0  0  0  0
    9.3941    7.1278    3.2971 H   0  0  0  0  0  0  0  0  0  0  0  0
    8.1840    6.8279   -3.7654 H   0  0  0  0  0  0  0  0  0  0  0  0
    7.0023    6.4214   -5.8135 H   0  0  0  0  0  0  0  0  0  0  0  0
    6.5376    5.4447   -7.8502 H   0  0  0  0  0  0  0  0  0  0  0  0
    5.1657    6.3785   -7.2186 H   0  0  0  0  0  0  0  0  0  0  0  0
    4.9101    5.1613   -8.4675 H   0  0  0  0  0  0  0  0  0  0  0  0
    6.7401    2.9263   -7.2834 H   0  0  0  0  0  0  0  0  0  0  0  0
    5.1323    2.7541   -8.0048 H   0  0  0  0  0  0  0  0  0  0  0  0
    5.4436    2.1189   -6.3913 H   0  0  0  0  0  0  0  0  0  0  0  0
    3.3841    5.2475   -5.7911 H   0  0  0  0  0  0  0  0  0  0  0  0
    3.4551    3.5097   -5.4659 H   0  0  0  0  0  0  0  0  0  0  0  0
    3.1686    4.0862   -7.1065 H   0  0  0  0  0  0  0  0  0  0  0  0
    5.3433    2.8035   -4.1322 H   0  0  0  0  0  0  0  0  0  0  0  0
    6.5294    3.2189   -2.0687 H   0  0  0  0  0  0  0  0  0  0  0  0
   10.8551    6.1249   -1.7943 H   0  0  0  0  0  0  0  0  0  0  0  0
   12.9420    6.8392   -0.6453 H   0  0  0  0  0  0  0  0  0  0  0  0
   13.4798    5.8734    1.5915 H   0  0  0  0  0  0  0  0  0  0  0  0
   10.1393    3.5204    1.5802 H   0  0  0  0  0  0  0  0  0  0  0  0
    6.1069    1.0454    1.1333 H   0  0  0  0  0  0  0  0  0  0  0  0
    5.3594    2.5489    0.5455 H   0  0  0  0  0  0  0  0  0  0  0  0
    2.5361   -1.8695    3.0327 H   0  0  0  0  0  0  0  0  0  0  0  0
    2.3937   -1.2906    1.3861 H   0  0  0  0  0  0  0  0  0  0  0  0
    0.9519   -1.8484    2.2226 H   0  0  0  0  0  0  0  0  0  0  0  0
    1.5353   -0.6063    4.9688 H   0  0  0  0  0  0  0  0  0  0  0  0
   -0.0432   -0.5264    4.1586 H   0  0  0  0  0  0  0  0  0  0  0  0
    0.7622    0.9536    4.7238 H   0  0  0  0  0  0  0  0  0  0  0  0
    1.1193    1.0122    0.9685 H   0  0  0  0  0  0  0  0  0  0  0  0
    0.6255    1.9635    2.3585 H   0  0  0  0  0  0  0  0  0  0  0  0
   -0.2745    0.4951    1.9105 H   0  0  0  0  0  0  0  0  0  0  0  0
  1  2  1  0  0  0  0
  1 45  1  0  0  0  0
  1 46  1  0  0  0  0
  1 47  1  0  0  0  0
  2  3  1  0  0  0  0
  3  4  2  0  0  0  0
  3  5  1  0  0  0  0
  5  6  1  0  0  0  0
  5 37  1  0  0  0  0
  5 48  1  1  0  0  0
  6  7  1  0  0  0  0
  6 49  1  0  0  0  0
  6 50  1  0  0  0  0
  7 36  1  0  0  0  0
  7  8  1  0  0  0  0
  7 51  1  1  0  0  0
  8  9  1  0  0  0  0
  8 52  1  0  0  0  0
  9 10  2  0  0  0  0
  9 11  1  0  0  0  0
 11 12  1  0  0  0  0
 11 30  1  0  0  0  0
 11 53  1  0  0  0  0
 12 13  1  0  0  0  0
 12 20  1  0  0  0  0
 13 14  2  0  0  0  0
 13 15  1  0  0  0  0
 15 16  2  0  0  0  0
 15 19  1  0  0  0  0
 16 17  1  0  0  0  0
 16 54  1  0  0  0  0
 17 18  1  0  0  0  0
 18 19  2  0  0  0  0
 18 55  1  0  0  0  0
 20 21  1  0  0  0  0
 20 29  2  0  0  0  0
 21 22  2  0  0  0  0
 21 56  1  0  0  0  0
 22 23  1  0  0  0  0
 22 57  1  0  0  0  0
 23 24  1  0  0  0  0
 23 28  2  0  0  0  0
 24 25  1  0  0  0  0
 24 26  1  0  0  0  0
 24 27  1  0  0  0  0
 25 58  1  0  0  0  0
 25 59  1  0  0  0  0
 25 60  1  0  0  0  0
 26 61  1  0  0  0  0
 26 62  1  0  0  0  0
 26 63  1  0  0  0  0
 27 64  1  0  0  0  0
 27 65  1  0  0  0  0
 27 66  1  0  0  0  0
 28 29  1  0  0  0  0
 28 67  1  0  0  0  0
 29 68  1  0  0  0  0
 30 31  1  0  0  0  0
 30 35  2  0  0  0  0
 31 32  2  0  0  0  0
 31 69  1  0  0  0  0
 32 33  1  0  0  0  0
 32 70  1  0  0  0  0
 33 34  2  0  0  0  0
 33 71  1  0  0  0  0
 34 35  1  0  0  0  0
 35 72  1  0  0  0  0
 36 37  1  0  0  0  0
 36 73  1  0  0  0  0
 36 74  1  0  0  0  0
 37 38  1  0  0  0  0
 38 39  2  0  0  0  0
 38 40  1  0  0  0  0
 40 41  1  0  0  0  0
 41 42  1  0  0  0  0
 41 43  1  0  0  0  0
 41 44  1  0  0  0  0
 42 75  1  0  0  0  0
 42 76  1  0  0  0  0
 42 77  1  0  0  0  0
 43 78  1  0  0  0  0
 43 79  1  0  0  0  0
 43 80  1  0  0  0  0
 44 81  1  0  0  0  0
 44 82  1  0  0  0  0
 44 83  1  0  0  0  0
M  END
$$$$
