
 OpenBabel07202414183D

 39 42  0  0  1  0  0  0  0  0999 V2000
    1.7990    1.5252   -2.9311 F   0  0  0  0  0  0  0  0  0  0  0  0
    2.8884    1.2598   -2.2000 C   0  0  0  0  0  0  0  0  0  0  0  0
    3.7358    2.2945   -1.8374 C   0  0  0  0  0  0  0  0  0  0  0  0
    4.8798    2.0170   -1.0873 C   0  0  0  0  0  0  0  0  0  0  0  0
    5.2071    0.6914   -0.7045 C   0  0  0  0  0  0  0  0  0  0  0  0
    6.3928    0.3339   -0.0212 C   0  0  0  0  0  0  0  0  0  0  0  0
    7.2759    1.3301    0.4669 N   0  0  0  0  0  0  0  0  0  0  0  0
    8.6388    1.3073    0.2040 C   0  0  0  0  0  0  0  0  0  0  0  0
    9.1951    0.4341   -0.4575 O   0  0  0  0  0  0  0  0  0  0  0  0
    9.4353    2.4688    0.8079 C   0  0  3  0  0  0  0  0  0  0  0  0
    9.4657    2.2581    2.3243 C   0  0  0  0  0  0  0  0  0  0  0  0
    9.8290    3.4407    3.0784 N   0  0  0  0  0  0  0  0  0  0  0  0
    9.4410    4.7039    2.7290 C   0  0  0  0  0  0  0  0  0  0  0  0
    9.5008    5.6267    3.5361 O   0  0  0  0  0  0  0  0  0  0  0  0
    8.9419    4.9034    1.3433 C   0  0  0  0  0  0  0  0  0  0  0  0
    8.5111    6.1843    0.9676 C   0  0  0  0  0  0  0  0  0  0  0  0
    8.0666    6.4260   -0.3349 C   0  0  0  0  0  0  0  0  0  0  0  0
    8.0789    5.3923   -1.2665 C   0  0  0  0  0  0  0  0  0  0  0  0
    7.5283    5.6841   -2.8692 Cl  0  0  0  0  0  0  0  0  0  0  0  0
    8.5260    4.1174   -0.9093 C   0  0  0  0  0  0  0  0  0  0  0  0
    8.9294    3.8462    0.4135 C   0  0  0  0  0  0  0  0  0  0  0  0
    6.6464   -1.0202    0.2046 C   0  0  0  0  0  0  0  0  0  0  0  0
    5.8011   -2.0195   -0.1363 N   0  0  0  0  0  0  0  0  0  0  0  0
    4.6676   -1.6585   -0.7761 C   0  0  0  0  0  0  0  0  0  0  0  0
    4.3256   -0.3459   -1.1043 C   0  0  0  0  0  0  0  0  0  0  0  0
    3.1652   -0.0503   -1.8341 C   0  0  0  0  0  0  0  0  0  0  0  0
    3.5141    3.3084   -2.1559 H   0  0  0  0  0  0  0  0  0  0  0  0
    5.5364    2.8490   -0.8518 H   0  0  0  0  0  0  0  0  0  0  0  0
    6.8669    2.2325    0.6752 H   0  0  0  0  0  0  0  0  0  0  0  0
   10.4633    2.3987    0.4258 H   0  0  0  0  0  0  0  0  0  0  0  0
   10.1902    1.4781    2.5797 H   0  0  0  0  0  0  0  0  0  0  0  0
    8.4965    1.9300    2.7175 H   0  0  0  0  0  0  0  0  0  0  0  0
   10.0524    3.3421    4.0653 H   0  0  0  0  0  0  0  0  0  0  0  0
    8.5350    7.0041    1.6850 H   0  0  0  0  0  0  0  0  0  0  0  0
    7.7341    7.4213   -0.6157 H   0  0  0  0  0  0  0  0  0  0  0  0
    8.5666    3.3410   -1.6724 H   0  0  0  0  0  0  0  0  0  0  0  0
    7.5412   -1.3514    0.7240 H   0  0  0  0  0  0  0  0  0  0  0  0
    4.0217   -2.4914   -1.0460 H   0  0  0  0  0  0  0  0  0  0  0  0
    2.4826   -0.8344   -2.1504 H   0  0  0  0  0  0  0  0  0  0  0  0
  1  2  1  0  0  0  0
  2  3  1  0  0  0  0
  2 26  2  0  0  0  0
  3  4  2  0  0  0  0
  3 27  1  0  0  0  0
  4  5  1  0  0  0  0
  4 28  1  0  0  0  0
  5  6  1  0  0  0  0
  5 25  2  0  0  0  0
  6  7  1  0  0  0  0
  6 22  2  0  0  0  0
  7  8  1  0  0  0  0
  7 29  1  0  0  0  0
  8  9  2  0  0  0  0
  8 10  1  0  0  0  0
 10 11  1  0  0  0  0
 10 21  1  0  0  0  0
 10 30  1  0  0  0  0
 11 12  1  0  0  0  0
 11 31  1  0  0  0  0
 11 32  1  0  0  0  0
 12 13  1  0  0  0  0
 12 33  1  0  0  0  0
 13 14  2  0  0  0  0
 13 15  1  0  0  0  0
 15 16  1  0  0  0  0
 15 21  2  0  0  0  0
 16 17  2  0  0  0  0
 16 34  1  0  0  0  0
 17 18  1  0  0  0  0
 17 35  1  0  0  0  0
 18 19  1  0  0  0  0
 18 20  2  0  0  0  0
 20 21  1  0  0  0  0
 20 36  1  0  0  0  0
 22 23  1  0  0  0  0
 22 37  1  0  0  0  0
 23 24  2  0  0  0  0
 24 25  1  0  0  0  0
 24 38  1  0  0  0  0
 25 26  1  0  0  0  0
 26 39  1  0  0  0  0
M  END
$$$$
