
 OpenBabel07202414173D

 46 48  0  0  1  0  0  0  0  0999 V2000
    0.6798    1.9822    0.9995 Cl  0  0  0  0  0  0  0  0  0  0  0  0
    2.4208    2.2160    1.2558 C   0  0  0  0  0  0  0  0  0  0  0  0
    3.2594    1.3841    0.2899 C   0  0  0  0  0  0  0  0  0  0  0  0
    2.7669    0.5814   -0.5040 O   0  0  0  0  0  0  0  0  0  0  0  0
    4.6402    1.5891    0.3296 N   0  0  0  0  0  0  0  0  0  0  0  0
    5.4965    0.9631   -0.6877 C   0  0  0  0  0  0  0  0  0  0  0  0
    6.7399    0.2716   -0.0931 C   0  0  0  0  0  0  0  0  0  0  0  0
    7.4571    1.1018    0.9470 N   0  0  0  0  0  0  0  0  0  0  0  0
    8.4243    2.3815    0.3308 S   0  0  0  0  0  0  0  0  0  0  0  0
    7.6942    3.0625   -0.7116 O   0  0  0  0  0  0  0  0  0  0  0  0
    8.9569    3.0952    1.4700 O   0  0  0  0  0  0  0  0  0  0  0  0
    9.8323    1.7512   -0.4493 C   0  0  0  0  0  0  0  0  0  0  0  0
   10.1279    1.9137   -1.8378 C   0  0  0  0  0  0  0  0  0  0  0  0
   11.3557    1.3808   -2.1670 C   0  0  0  0  0  0  0  0  0  0  0  0
   12.1373    0.6822   -0.8135 S   0  0  0  0  0  0  0  0  0  0  0  0
   10.8448    1.1056    0.2260 C   0  0  0  0  0  0  0  0  0  0  0  0
    6.4754    1.6004    1.9964 C   0  0  2  0  0  0  0  0  0  0  0  0
    5.8787    0.4690    2.8500 C   0  0  0  0  0  0  0  0  0  0  0  0
    4.7330    0.5406    3.2903 O   0  0  0  0  0  0  0  0  0  0  0  0
    6.7773   -0.5490    3.1308 N   0  0  0  0  0  0  0  0  0  0  0  0
    6.5103   -1.7364    3.8458 C   0  0  0  0  0  0  0  0  0  0  0  0
    5.2202   -2.1842    4.1499 C   0  0  0  0  0  0  0  0  0  0  0  0
    5.0232   -3.3611    4.8804 C   0  0  0  0  0  0  0  0  0  0  0  0
    6.1177   -4.1014    5.3220 C   0  0  0  0  0  0  0  0  0  0  0  0
    7.4111   -3.6715    5.0117 C   0  0  0  0  0  0  0  0  0  0  0  0
    8.5437   -4.4175    5.4794 C   0  0  0  0  0  0  0  0  0  0  0  0
    9.4664   -5.0105    5.8632 N   0  0  0  0  0  0  0  0  0  0  0  0
    7.6037   -2.5044    4.2611 C   0  0  0  0  0  0  0  0  0  0  0  0
    5.3358    2.4037    1.3380 C   0  0  0  0  0  0  0  0  0  0  0  0
    2.6387    1.9378    2.2888 H   0  0  0  0  0  0  0  0  0  0  0  0
    2.6300    3.2776    1.0941 H   0  0  0  0  0  0  0  0  0  0  0  0
    5.7849    1.7528   -1.3868 H   0  0  0  0  0  0  0  0  0  0  0  0
    4.9344    0.2291   -1.2744 H   0  0  0  0  0  0  0  0  0  0  0  0
    7.4380   -0.0231   -0.8838 H   0  0  0  0  0  0  0  0  0  0  0  0
    6.4270   -0.6624    0.3898 H   0  0  0  0  0  0  0  0  0  0  0  0
    9.4906    2.4220   -2.5535 H   0  0  0  0  0  0  0  0  0  0  0  0
   11.8403    1.3790   -3.1347 H   0  0  0  0  0  0  0  0  0  0  0  0
   10.9067    0.8911    1.2848 H   0  0  0  0  0  0  0  0  0  0  0  0
    7.0051    2.2382    2.7145 H   0  0  0  0  0  0  0  0  0  0  0  0
    7.7307   -0.3910    2.8203 H   0  0  0  0  0  0  0  0  0  0  0  0
    4.3356   -1.6481    3.8171 H   0  0  0  0  0  0  0  0  0  0  0  0
    4.0127   -3.6940    5.1066 H   0  0  0  0  0  0  0  0  0  0  0  0
    5.9542   -5.0044    5.9057 H   0  0  0  0  0  0  0  0  0  0  0  0
    8.6186   -2.1841    4.0320 H   0  0  0  0  0  0  0  0  0  0  0  0
    5.7167    3.2910    0.8234 H   0  0  0  0  0  0  0  0  0  0  0  0
    4.6507    2.7714    2.1042 H   0  0  0  0  0  0  0  0  0  0  0  0
  1  2  1  0  0  0  0
  2  3  1  0  0  0  0
  2 30  1  0  0  0  0
  2 31  1  0  0  0  0
  3  4  2  0  0  0  0
  3  5  1  0  0  0  0
  5  6  1  0  0  0  0
  5 29  1  0  0  0  0
  6  7  1  0  0  0  0
  6 32  1  0  0  0  0
  6 33  1  0  0  0  0
  7  8  1  0  0  0  0
  7 34  1  0  0  0  0
  7 35  1  0  0  0  0
  8  9  1  0  0  0  0
  8 17  1  0  0  0  0
  9 10  2  0  0  0  0
  9 11  2  0  0  0  0
  9 12  1  0  0  0  0
 12 13  1  0  0  0  0
 12 16  2  0  0  0  0
 13 14  2  0  0  0  0
 13 36  1  0  0  0  0
 14 15  1  0  0  0  0
 14 37  1  0  0  0  0
 15 16  1  0  0  0  0
 16 38  1  0  0  0  0
 17 29  1  0  0  0  0
 17 18  1  0  0  0  0
 17 39  1  1  0  0  0
 18 19  2  0  0  0  0
 18 20  1  0  0  0  0
 20 21  1  0  0  0  0
 20 40  1  0  0  0  0
 21 22  1  0  0  0  0
 21 28  2  0  0  0  0
 22 23  2  0  0  0  0
 22 41  1  0  0  0  0
 23 24  1  0  0  0  0
 23 42  1  0  0  0  0
 24 25  2  0  0  0  0
 24 43  1  0  0  0  0
 25 26  1  0  0  0  0
 25 28  1  0  0  0  0
 26 27  3  0  0  0  0
 28 44  1  0  0  0  0
 29 45  1  0  0  0  0
 29 46  1  0  0  0  0
M  END
$$$$
