
 OpenBabel07202414183D

 52 55  0  0  0  0  0  0  0  0999 V2000
    0.8674   -0.5952   -0.4455 F   0  0  0  0  0  0  0  0  0  0  0  0
    1.9474    0.2112   -0.5264 C   0  0  0  0  0  0  0  0  0  0  0  0
    1.4866    1.4835   -0.5825 F   0  0  0  0  0  0  0  0  0  0  0  0
    2.6286    0.0928    0.6325 F   0  0  0  0  0  0  0  0  0  0  0  0
    2.8092   -0.0859   -1.7544 C   0  0  0  0  0  0  0  0  0  0  0  0
    2.3232   -1.3195   -2.5352 C   0  0  0  0  0  0  0  0  0  0  0  0
    2.6182   -2.6159   -1.7856 C   0  0  0  0  0  0  0  0  0  0  0  0
    4.0505   -2.6700   -1.4898 N   0  0  0  0  0  0  0  0  0  0  0  0
    4.8441   -3.7218   -1.9090 C   0  0  0  0  0  0  0  0  0  0  0  0
    4.6162   -4.3607   -3.1380 C   0  0  0  0  0  0  0  0  0  0  0  0
    5.4358   -5.3994   -3.6158 C   0  0  0  0  0  0  0  0  0  0  0  0
    5.1538   -6.0214   -4.9616 C   0  0  0  0  0  0  0  0  0  0  0  0
    5.1110   -5.0233   -6.1092 C   0  0  0  0  0  0  0  0  0  0  0  0
    4.2261   -5.0774   -6.9598 O   0  0  0  0  0  0  0  0  0  0  0  0
    6.1866   -4.1531   -6.1532 N   0  0  0  0  0  0  0  0  0  0  0  0
    6.3440   -3.1582   -7.1484 C   0  0  0  0  0  0  0  0  0  0  0  0
    5.2512   -2.4127   -7.5997 C   0  0  0  0  0  0  0  0  0  0  0  0
    5.3299   -1.4217   -8.5163 N   0  0  0  0  0  0  0  0  0  0  0  0
    6.5532   -1.1889   -9.0375 C   0  0  0  0  0  0  0  0  0  0  0  0
    7.7155   -1.8777   -8.6873 C   0  0  0  0  0  0  0  0  0  0  0  0
    8.9458   -1.6136   -9.3110 C   0  0  0  0  0  0  0  0  0  0  0  0
   10.0851   -2.3480   -8.9810 C   0  0  0  0  0  0  0  0  0  0  0  0
   10.0081   -3.3435   -8.0155 C   0  0  0  0  0  0  0  0  0  0  0  0
    8.7927   -3.6043   -7.3773 C   0  0  0  0  0  0  0  0  0  0  0  0
    7.6204   -2.8863   -7.6952 C   0  0  0  0  0  0  0  0  0  0  0  0
    6.4990   -5.8403   -2.8264 C   0  0  0  0  0  0  0  0  0  0  0  0
    6.7376   -5.2310   -1.5987 C   0  0  0  0  0  0  0  0  0  0  0  0
    8.0550   -5.7661   -0.6273 Cl  0  0  0  0  0  0  0  0  0  0  0  0
    5.9258   -4.1870   -1.1487 C   0  0  0  0  0  0  0  0  0  0  0  0
    4.5904   -1.5755   -0.6843 C   0  0  0  0  0  0  0  0  0  0  0  0
    4.2966   -0.2479   -1.3942 C   0  0  0  0  0  0  0  0  0  0  0  0
    2.7251    0.7781   -2.4265 H   0  0  0  0  0  0  0  0  0  0  0  0
    2.8358   -1.3454   -3.5066 H   0  0  0  0  0  0  0  0  0  0  0  0
    1.2516   -1.2409   -2.7488 H   0  0  0  0  0  0  0  0  0  0  0  0
    2.2615   -3.4686   -2.3733 H   0  0  0  0  0  0  0  0  0  0  0  0
    2.0588   -2.6556   -0.8440 H   0  0  0  0  0  0  0  0  0  0  0  0
    3.8026   -4.0168   -3.7748 H   0  0  0  0  0  0  0  0  0  0  0  0
    4.1794   -6.5222   -4.9085 H   0  0  0  0  0  0  0  0  0  0  0  0
    5.8997   -6.7861   -5.2077 H   0  0  0  0  0  0  0  0  0  0  0  0
    6.9935   -4.3825   -5.5883 H   0  0  0  0  0  0  0  0  0  0  0  0
    4.2538   -2.5661   -7.1955 H   0  0  0  0  0  0  0  0  0  0  0  0
    6.5720   -0.4040   -9.7905 H   0  0  0  0  0  0  0  0  0  0  0  0
    9.0212   -0.8458  -10.0763 H   0  0  0  0  0  0  0  0  0  0  0  0
   11.0255   -2.1544   -9.4877 H   0  0  0  0  0  0  0  0  0  0  0  0
   10.8868   -3.9332   -7.7698 H   0  0  0  0  0  0  0  0  0  0  0  0
    8.7769   -4.4172   -6.6556 H   0  0  0  0  0  0  0  0  0  0  0  0
    7.1388   -6.6541   -3.1580 H   0  0  0  0  0  0  0  0  0  0  0  0
    6.1311   -3.7571   -0.1725 H   0  0  0  0  0  0  0  0  0  0  0  0
    5.6760   -1.6406   -0.5519 H   0  0  0  0  0  0  0  0  0  0  0  0
    4.1466   -1.6070    0.3165 H   0  0  0  0  0  0  0  0  0  0  0  0
    4.8834   -0.2146   -2.3222 H   0  0  0  0  0  0  0  0  0  0  0  0
    4.6393    0.5906   -0.7775 H   0  0  0  0  0  0  0  0  0  0  0  0
  1  2  1  0  0  0  0
  2  3  1  0  0  0  0
  2  4  1  0  0  0  0
  2  5  1  0  0  0  0
  5  6  1  0  0  0  0
  5 31  1  0  0  0  0
  5 32  1  0  0  0  0
  6  7  1  0  0  0  0
  6 33  1  0  0  0  0
  6 34  1  0  0  0  0
  7  8  1  0  0  0  0
  7 35  1  0  0  0  0
  7 36  1  0  0  0  0
  8  9  1  0  0  0  0
  8 30  1  0  0  0  0
  9 10  2  0  0  0  0
  9 29  1  0  0  0  0
 10 11  1  0  0  0  0
 10 37  1  0  0  0  0
 11 12  1  0  0  0  0
 11 26  2  0  0  0  0
 12 13  1  0  0  0  0
 12 38  1  0  0  0  0
 12 39  1  0  0  0  0
 13 14  2  0  0  0  0
 13 15  1  0  0  0  0
 15 16  1  0  0  0  0
 15 40  1  0  0  0  0
 16 17  2  0  0  0  0
 16 25  1  0  0  0  0
 17 18  1  0  0  0  0
 17 41  1  0  0  0  0
 18 19  2  0  0  0  0
 19 20  1  0  0  0  0
 19 42  1  0  0  0  0
 20 21  2  0  0  0  0
 20 25  1  0  0  0  0
 21 22  1  0  0  0  0
 21 43  1  0  0  0  0
 22 23  2  0  0  0  0
 22 44  1  0  0  0  0
 23 24  1  0  0  0  0
 23 45  1  0  0  0  0
 24 25  2  0  0  0  0
 24 46  1  0  0  0  0
 26 27  1  0  0  0  0
 26 47  1  0  0  0  0
 27 28  1  0  0  0  0
 27 29  2  0  0  0  0
 29 48  1  0  0  0  0
 30 31  1  0  0  0  0
 30 49  1  0  0  0  0
 30 50  1  0  0  0  0
 31 51  1  0  0  0  0
 31 52  1  0  0  0  0
M  END
$$$$
