
 OpenBabel07202414133D

 58 62  0  0  1  0  0  0  0  0999 V2000
    2.6512    0.0294   -2.8846 C   0  0  0  0  0  0  0  0  0  0  0  0
    4.0904   -0.2783   -3.0823 N   0  0  0  0  0  0  0  0  0  0  0  0
    4.7003    0.6895   -4.0250 C   0  0  0  0  0  0  0  0  0  0  0  0
    4.5170    2.0921   -3.4687 C   0  0  0  0  0  0  0  0  0  0  0  0
    4.3649    3.2557   -3.0071 N   0  0  0  0  0  0  0  0  0  0  0  0
    4.8347   -0.2513   -1.7954 C   0  0  0  0  0  0  0  0  0  0  0  0
    4.2593   -1.2403   -0.7681 C   0  0  1  0  0  0  0  0  0  0  0  0
    4.3139   -2.6329   -1.3625 C   0  0  0  0  0  0  0  0  0  0  0  0
    5.4819   -3.2650   -0.8399 N   0  0  0  0  0  0  0  0  0  0  0  0
    6.0294   -4.4780   -1.4057 C   0  0  0  0  0  0  0  0  0  0  0  0
    7.2092   -5.0086   -0.8673 C   0  0  0  0  0  0  0  0  0  0  0  0
    7.7804   -6.1827   -1.2205 N   0  0  0  0  0  0  0  0  0  0  0  0
    7.2181   -6.8335   -2.2493 C   0  0  0  0  0  0  0  0  0  0  0  0
    6.1611   -6.3467   -3.0002 C   0  0  0  0  0  0  0  0  0  0  0  0
    5.8086   -7.0167   -4.1909 C   0  0  0  0  0  0  0  0  0  0  0  0
    4.7811   -6.5535   -5.0058 C   0  0  0  0  0  0  0  0  0  0  0  0
    4.0129   -5.4971   -4.5653 C   0  0  0  0  0  0  0  0  0  0  0  0
    4.3219   -4.8765   -3.3477 C   0  0  0  0  0  0  0  0  0  0  0  0
    5.4777   -5.1853   -2.5548 C   0  0  0  0  0  0  0  0  0  0  0  0
    5.9230   -2.5872    0.3171 C   0  0  0  0  0  0  0  0  0  0  0  0
    6.8645   -2.8734    1.0410 O   0  0  0  0  0  0  0  0  0  0  0  0
    5.0040   -1.3872    0.5777 C   0  0  1  0  0  0  0  0  0  0  0  0
    5.8582   -0.1737    0.9900 C   0  0  0  0  0  0  0  0  0  0  0  0
    5.0095    0.9744    1.2955 N   0  0  0  0  0  0  0  0  0  0  0  0
    5.3215    2.3010    0.7929 C   0  0  0  0  0  0  0  0  0  0  0  0
    3.9808    0.8458    2.2143 C   0  0  0  0  0  0  0  0  0  0  0  0
    3.4224    1.8016    2.7411 O   0  0  0  0  0  0  0  0  0  0  0  0
    3.4866   -0.5423    2.4505 C   0  0  0  0  0  0  0  0  0  0  0  0
    2.4104   -0.6984    3.3366 C   0  0  0  0  0  0  0  0  0  0  0  0
    1.7402   -1.9154    3.4157 C   0  0  0  0  0  0  0  0  0  0  0  0
    2.1717   -2.9875    2.6413 C   0  0  0  0  0  0  0  0  0  0  0  0
    1.2586   -4.4457    2.6265 Cl  0  0  0  0  0  0  0  0  0  0  0  0
    3.2917   -2.8683    1.8132 C   0  0  0  0  0  0  0  0  0  0  0  0
    3.9537   -1.6313    1.6767 C   0  0  0  0  0  0  0  0  0  0  0  0
    2.1760    0.3072   -3.8199 H   0  0  0  0  0  0  0  0  0  0  0  0
    2.5070    0.8505   -2.1639 H   0  0  0  0  0  0  0  0  0  0  0  0
    2.1285   -0.8466   -2.5097 H   0  0  0  0  0  0  0  0  0  0  0  0
    4.2171    0.6122   -5.0054 H   0  0  0  0  0  0  0  0  0  0  0  0
    5.7648    0.4736   -4.1685 H   0  0  0  0  0  0  0  0  0  0  0  0
    4.8144    0.7510   -1.3622 H   0  0  0  0  0  0  0  0  0  0  0  0
    5.8859   -0.5030   -1.9898 H   0  0  0  0  0  0  0  0  0  0  0  0
    3.2158   -0.9604   -0.5847 H   0  0  0  0  0  0  0  0  0  0  0  0
    4.4107   -2.5558   -2.4416 H   0  0  0  0  0  0  0  0  0  0  0  0
    3.4342   -3.2189   -1.0804 H   0  0  0  0  0  0  0  0  0  0  0  0
    7.7936   -4.4899   -0.1157 H   0  0  0  0  0  0  0  0  0  0  0  0
    7.6791   -7.7926   -2.4771 H   0  0  0  0  0  0  0  0  0  0  0  0
    6.3815   -7.8834   -4.5241 H   0  0  0  0  0  0  0  0  0  0  0  0
    4.5766   -7.0203   -5.9648 H   0  0  0  0  0  0  0  0  0  0  0  0
    3.1733   -5.1413   -5.1576 H   0  0  0  0  0  0  0  0  0  0  0  0
    3.6007   -4.1226   -3.0669 H   0  0  0  0  0  0  0  0  0  0  0  0
    6.5932    0.0943    0.2229 H   0  0  0  0  0  0  0  0  0  0  0  0
    6.4307   -0.3913    1.9025 H   0  0  0  0  0  0  0  0  0  0  0  0
    6.1387    2.2686    0.0696 H   0  0  0  0  0  0  0  0  0  0  0  0
    5.5663    2.9703    1.6210 H   0  0  0  0  0  0  0  0  0  0  0  0
    4.4219    2.6824    0.2951 H   0  0  0  0  0  0  0  0  0  0  0  0
    2.0510    0.1506    3.9170 H   0  0  0  0  0  0  0  0  0  0  0  0
    0.8574   -2.0022    4.0445 H   0  0  0  0  0  0  0  0  0  0  0  0
    3.5912   -3.7351    1.2290 H   0  0  0  0  0  0  0  0  0  0  0  0
  1  2  1  0  0  0  0
  1 35  1  0  0  0  0
  1 36  1  0  0  0  0
  1 37  1  0  0  0  0
  2  3  1  0  0  0  0
  2  6  1  0  0  0  0
  3  4  1  0  0  0  0
  3 38  1  0  0  0  0
  3 39  1  0  0  0  0
  4  5  3  0  0  0  0
  6 40  1  0  0  0  0
  6 41  1  0  0  0  0
  7  8  1  0  0  0  0
  7 22  1  0  0  0  0
  7  6  1  0  0  0  0
  7 42  1  1  0  0  0
  8  9  1  0  0  0  0
  8 43  1  0  0  0  0
  8 44  1  0  0  0  0
  9 10  1  0  0  0  0
  9 20  1  0  0  0  0
 10 11  1  0  0  0  0
 10 19  2  0  0  0  0
 11 12  2  0  0  0  0
 11 45  1  0  0  0  0
 12 13  1  0  0  0  0
 13 14  2  0  0  0  0
 13 46  1  0  0  0  0
 14 15  1  0  0  0  0
 14 19  1  0  0  0  0
 15 16  2  0  0  0  0
 15 47  1  0  0  0  0
 16 17  1  0  0  0  0
 16 48  1  0  0  0  0
 17 18  2  0  0  0  0
 17 49  1  0  0  0  0
 18 19  1  0  0  0  0
 18 50  1  0  0  0  0
 20 21  2  0  0  0  0
 22 20  1  6  0  0  0
 22 23  1  0  0  0  0
 22 34  1  0  0  0  0
 23 24  1  0  0  0  0
 23 51  1  0  0  0  0
 23 52  1  0  0  0  0
 24 25  1  0  0  0  0
 24 26  1  0  0  0  0
 25 53  1  0  0  0  0
 25 54  1  0  0  0  0
 25 55  1  0  0  0  0
 26 27  2  0  0  0  0
 26 28  1  0  0  0  0
 28 29  1  0  0  0  0
 28 34  2  0  0  0  0
 29 30  2  0  0  0  0
 29 56  1  0  0  0  0
 30 31  1  0  0  0  0
 30 57  1  0  0  0  0
 31 32  1  0  0  0  0
 31 33  2  0  0  0  0
 33 34  1  0  0  0  0
 33 58  1  0  0  0  0
M  END
$$$$
