
 OpenBabel07202414173D

 39 42  0  0  1  0  0  0  0  0999 V2000
    8.1284    1.8937    1.2491 Cl  0  0  0  0  0  0  0  0  0  0  0  0
    8.0371    0.2492    0.7510 C   0  0  0  0  0  0  0  0  0  0  0  0
    9.1354   -0.3450    0.1351 C   0  0  0  0  0  0  0  0  0  0  0  0
    9.0508   -1.6660   -0.3051 C   0  0  0  0  0  0  0  0  0  0  0  0
    7.8669   -2.4036   -0.1307 C   0  0  0  0  0  0  0  0  0  0  0  0
    6.7628   -1.8003    0.5024 C   0  0  0  0  0  0  0  0  0  0  0  0
    6.8589   -0.4715    0.9460 C   0  0  0  0  0  0  0  0  0  0  0  0
    5.4742   -2.5817    0.6721 C   0  0  3  0  0  0  0  0  0  0  0  0
    5.2554   -3.0515    2.1227 C   0  0  0  0  0  0  0  0  0  0  0  0
    4.6773   -2.3210    2.9251 O   0  0  0  0  0  0  0  0  0  0  0  0
    5.7796   -4.2985    2.4082 N   0  0  0  0  0  0  0  0  0  0  0  0
    5.7683   -5.0031    3.6385 C   0  0  0  0  0  0  0  0  0  0  0  0
    5.2794   -4.4517    4.8226 C   0  0  0  0  0  0  0  0  0  0  0  0
    5.3808   -5.0360    6.0404 N   0  0  0  0  0  0  0  0  0  0  0  0
    5.9688   -6.2483    6.0801 C   0  0  0  0  0  0  0  0  0  0  0  0
    6.4073   -6.9517    4.9599 C   0  0  0  0  0  0  0  0  0  0  0  0
    6.9195   -8.2571    5.0805 C   0  0  0  0  0  0  0  0  0  0  0  0
    7.3063   -8.9776    3.9538 C   0  0  0  0  0  0  0  0  0  0  0  0
    7.2070   -8.3928    2.6994 C   0  0  0  0  0  0  0  0  0  0  0  0
    6.7232   -7.0865    2.5716 C   0  0  0  0  0  0  0  0  0  0  0  0
    6.3047   -6.3248    3.6956 C   0  0  0  0  0  0  0  0  0  0  0  0
    5.4245   -3.7418   -0.3284 C   0  0  0  0  0  0  0  0  0  0  0  0
    6.6248   -4.5242   -0.2149 O   0  0  0  0  0  0  0  0  0  0  0  0
    7.7655   -3.8003   -0.7046 C   0  0  0  0  0  0  0  0  0  0  0  0
   10.0523    0.2192   -0.0173 H   0  0  0  0  0  0  0  0  0  0  0  0
    9.9105   -2.1141   -0.8013 H   0  0  0  0  0  0  0  0  0  0  0  0
    6.0085    0.0060    1.4300 H   0  0  0  0  0  0  0  0  0  0  0  0
    4.6269   -1.9258    0.4314 H   0  0  0  0  0  0  0  0  0  0  0  0
    6.2916   -4.7387    1.6486 H   0  0  0  0  0  0  0  0  0  0  0  0
    4.7857   -3.4867    4.8556 H   0  0  0  0  0  0  0  0  0  0  0  0
    6.0675   -6.6630    7.0805 H   0  0  0  0  0  0  0  0  0  0  0  0
    6.9957   -8.7311    6.0573 H   0  0  0  0  0  0  0  0  0  0  0  0
    7.6703   -9.9967    4.0549 H   0  0  0  0  0  0  0  0  0  0  0  0
    7.4934   -8.9539    1.8130 H   0  0  0  0  0  0  0  0  0  0  0  0
    6.6463   -6.6923    1.5619 H   0  0  0  0  0  0  0  0  0  0  0  0
    5.3178   -3.3876   -1.3610 H   0  0  0  0  0  0  0  0  0  0  0  0
    4.5795   -4.4052   -0.1164 H   0  0  0  0  0  0  0  0  0  0  0  0
    7.7021   -3.7445   -1.7958 H   0  0  0  0  0  0  0  0  0  0  0  0
    8.6532   -4.3772   -0.4353 H   0  0  0  0  0  0  0  0  0  0  0  0
  1  2  1  0  0  0  0
  2  3  1  0  0  0  0
  2  7  2  0  0  0  0
  3  4  2  0  0  0  0
  3 25  1  0  0  0  0
  4  5  1  0  0  0  0
  4 26  1  0  0  0  0
  5  6  2  0  0  0  0
  5 24  1  0  0  0  0
  6  7  1  0  0  0  0
  6  8  1  0  0  0  0
  7 27  1  0  0  0  0
  8  9  1  0  0  0  0
  8 22  1  0  0  0  0
  8 28  1  0  0  0  0
  9 10  2  0  0  0  0
  9 11  1  0  0  0  0
 11 12  1  0  0  0  0
 11 29  1  0  0  0  0
 12 13  1  0  0  0  0
 12 21  2  0  0  0  0
 13 14  2  0  0  0  0
 13 30  1  0  0  0  0
 14 15  1  0  0  0  0
 15 16  2  0  0  0  0
 15 31  1  0  0  0  0
 16 17  1  0  0  0  0
 16 21  1  0  0  0  0
 17 18  2  0  0  0  0
 17 32  1  0  0  0  0
 18 19  1  0  0  0  0
 18 33  1  0  0  0  0
 19 20  2  0  0  0  0
 19 34  1  0  0  0  0
 20 21  1  0  0  0  0
 20 35  1  0  0  0  0
 22 23  1  0  0  0  0
 22 36  1  0  0  0  0
 22 37  1  0  0  0  0
 23 24  1  0  0  0  0
 24 38  1  0  0  0  0
 24 39  1  0  0  0  0
M  END
$$$$
