
 OpenBabel07202414173D

 56 60  0  0  1  0  0  0  0  0999 V2000
    0.9951   -0.1327    0.0720 Cl  0  0  0  0  0  0  0  0  0  0  0  0
    2.7118   -0.1872   -0.0345 C   0  0  0  0  0  0  0  0  0  0  0  0
    3.4367    0.9974    0.0227 C   0  0  0  0  0  0  0  0  0  0  0  0
    4.8273    0.9501   -0.0144 C   0  0  0  0  0  0  0  0  0  0  0  0
    5.5020   -0.2791   -0.1232 C   0  0  0  0  0  0  0  0  0  0  0  0
    4.7690   -1.4729   -0.2706 C   0  0  0  0  0  0  0  0  0  0  0  0
    3.3652   -1.4147   -0.1766 C   0  0  0  0  0  0  0  0  0  0  0  0
    5.4899   -2.8060   -0.4559 C   0  0  1  0  0  0  0  0  0  0  0  0
    4.8903   -3.6899   -1.5845 C   0  0  0  0  0  0  0  0  0  0  0  0
    4.4089   -3.2084   -2.6010 O   0  0  0  0  0  0  0  0  0  0  0  0
    4.9925   -5.0560   -1.3238 N   0  0  0  0  0  0  0  0  0  0  0  0
    4.4027   -6.1384   -2.0518 C   0  0  0  0  0  0  0  0  0  0  0  0
    3.5664   -5.9592   -3.1536 C   0  0  0  0  0  0  0  0  0  0  0  0
    2.8279   -6.9437   -3.7264 N   0  0  0  0  0  0  0  0  0  0  0  0
    2.9826   -8.1886   -3.2324 C   0  0  0  0  0  0  0  0  0  0  0  0
    3.9047   -8.5297   -2.2483 C   0  0  0  0  0  0  0  0  0  0  0  0
    4.1303   -9.8781   -1.9085 C   0  0  0  0  0  0  0  0  0  0  0  0
    5.0744  -10.2189   -0.9450 C   0  0  0  0  0  0  0  0  0  0  0  0
    5.7689   -9.2155   -0.2849 C   0  0  0  0  0  0  0  0  0  0  0  0
    5.5461   -7.8726   -0.6115 C   0  0  0  0  0  0  0  0  0  0  0  0
    4.6250   -7.4833   -1.6180 C   0  0  0  0  0  0  0  0  0  0  0  0
    6.9996   -2.6418   -0.7435 C   0  0  0  0  0  0  0  0  0  0  0  0
    7.6389   -1.5833    0.1258 N   0  0  0  0  0  0  0  0  0  0  0  0
    9.3543   -1.5285    0.0063 S   0  0  0  0  0  0  0  0  0  0  0  0
    9.7997   -2.8865   -0.1992 O   0  0  0  0  0  0  0  0  0  0  0  0
    9.7128   -0.4692   -0.9101 O   0  0  0  0  0  0  0  0  0  0  0  0
    9.8762   -1.0380    1.6571 C   0  0  0  0  0  0  0  0  0  0  0  0
   11.3903   -0.7935    1.6902 C   0  0  0  0  0  0  0  0  0  0  0  0
   12.1770   -1.9533    1.2980 C   0  0  0  0  0  0  0  0  0  0  0  0
   12.8396   -2.8638    1.0233 N   0  0  0  0  0  0  0  0  0  0  0  0
   11.9188   -0.1943    3.0295 C   0  0  0  0  0  0  0  0  0  0  0  0
   12.7402    0.7653    2.2648 N   0  0  0  0  0  0  0  0  0  0  0  0
   11.8758    0.5552    1.0856 C   0  0  0  0  0  0  0  0  0  0  0  0
    7.0114   -0.2592   -0.1451 C   0  0  0  0  0  0  0  0  0  0  0  0
    2.9305    1.9559    0.1010 H   0  0  0  0  0  0  0  0  0  0  0  0
    5.3884    1.8818    0.0374 H   0  0  0  0  0  0  0  0  0  0  0  0
    2.7689   -2.3232   -0.2305 H   0  0  0  0  0  0  0  0  0  0  0  0
    5.3729   -3.3372    0.4990 H   0  0  0  0  0  0  0  0  0  0  0  0
    5.4379   -5.3147   -0.4585 H   0  0  0  0  0  0  0  0  0  0  0  0
    3.4297   -4.9968   -3.6359 H   0  0  0  0  0  0  0  0  0  0  0  0
    2.3277   -8.9354   -3.6774 H   0  0  0  0  0  0  0  0  0  0  0  0
    3.5988  -10.6764   -2.4247 H   0  0  0  0  0  0  0  0  0  0  0  0
    5.2769  -11.2634   -0.7206 H   0  0  0  0  0  0  0  0  0  0  0  0
    6.5056   -9.4740    0.4722 H   0  0  0  0  0  0  0  0  0  0  0  0
    6.1517   -7.1405   -0.0874 H   0  0  0  0  0  0  0  0  0  0  0  0
    7.1765   -2.3962   -1.7979 H   0  0  0  0  0  0  0  0  0  0  0  0
    7.4751   -3.6090   -0.5404 H   0  0  0  0  0  0  0  0  0  0  0  0
    9.5888   -1.8404    2.3450 H   0  0  0  0  0  0  0  0  0  0  0  0
    9.3280   -0.1287    1.9250 H   0  0  0  0  0  0  0  0  0  0  0  0
   12.5004   -0.8646    3.6739 H   0  0  0  0  0  0  0  0  0  0  0  0
   11.1667    0.2975    3.6574 H   0  0  0  0  0  0  0  0  0  0  0  0
   13.7088    0.4610    2.1205 H   0  0  0  0  0  0  0  0  0  0  0  0
   12.4138    0.5080    0.1335 H   0  0  0  0  0  0  0  0  0  0  0  0
   11.1045    1.3308    0.9986 H   0  0  0  0  0  0  0  0  0  0  0  0
    7.3108    0.1066   -1.1341 H   0  0  0  0  0  0  0  0  0  0  0  0
    7.3579    0.4438    0.6216 H   0  0  0  0  0  0  0  0  0  0  0  0
  1  2  1  0  0  0  0
  2  3  1  0  0  0  0
  2  7  2  0  0  0  0
  3  4  2  0  0  0  0
  3 35  1  0  0  0  0
  4  5  1  0  0  0  0
  4 36  1  0  0  0  0
  5  6  2  0  0  0  0
  5 34  1  0  0  0  0
  6  7  1  0  0  0  0
  6  8  1  0  0  0  0
  7 37  1  0  0  0  0
  8 22  1  0  0  0  0
  8  9  1  0  0  0  0
  8 38  1  1  0  0  0
  9 10  2  0  0  0  0
  9 11  1  0  0  0  0
 11 12  1  0  0  0  0
 11 39  1  0  0  0  0
 12 13  1  0  0  0  0
 12 21  2  0  0  0  0
 13 14  2  0  0  0  0
 13 40  1  0  0  0  0
 14 15  1  0  0  0  0
 15 16  2  0  0  0  0
 15 41  1  0  0  0  0
 16 17  1  0  0  0  0
 16 21  1  0  0  0  0
 17 18  2  0  0  0  0
 17 42  1  0  0  0  0
 18 19  1  0  0  0  0
 18 43  1  0  0  0  0
 19 20  2  0  0  0  0
 19 44  1  0  0  0  0
 20 21  1  0  0  0  0
 20 45  1  0  0  0  0
 22 23  1  0  0  0  0
 22 46  1  0  0  0  0
 22 47  1  0  0  0  0
 23 24  1  0  0  0  0
 23 34  1  0  0  0  0
 24 25  2  0  0  0  0
 24 26  2  0  0  0  0
 24 27  1  0  0  0  0
 27 28  1  0  0  0  0
 27 48  1  0  0  0  0
 27 49  1  0  0  0  0
 28 29  1  0  0  0  0
 28 31  1  0  0  0  0
 28 33  1  0  0  0  0
 29 30  3  0  0  0  0
 31 32  1  0  0  0  0
 31 50  1  0  0  0  0
 31 51  1  0  0  0  0
 32 33  1  0  0  0  0
 32 52  1  0  0  0  0
 33 53  1  0  0  0  0
 33 54  1  0  0  0  0
 34 55  1  0  0  0  0
 34 56  1  0  0  0  0
M  END
$$$$
