
 OpenBabel07202414123D

 65 68  0  0  1  0  0  0  0  0999 V2000
    0.9520    0.7419   -0.7459 C   0  0  0  0  0  0  0  0  0  0  0  0
    2.2633    0.1064   -1.2050 C   0  0  0  0  0  0  0  0  0  0  0  0
    1.9765   -1.2281   -1.8913 C   0  0  0  0  0  0  0  0  0  0  0  0
    2.8704    1.0224   -2.1335 O   0  0  0  0  0  0  0  0  0  0  0  0
    4.2292    1.1388   -2.0930 C   0  0  0  0  0  0  0  0  0  0  0  0
    5.1002    0.1294   -1.7277 C   0  0  0  0  0  0  0  0  0  0  0  0
    6.4753    0.3796   -1.6205 C   0  0  0  0  0  0  0  0  0  0  0  0
    7.0515    1.6226   -1.9320 C   0  0  0  0  0  0  0  0  0  0  0  0
    8.4850    1.8888   -1.7036 N   0  0  0  0  0  0  0  0  0  0  0  0
    9.0302    3.3039   -1.6772 C   0  0  3  0  0  0  0  0  0  0  0  0
    9.6026    3.6151   -3.1093 C   0  0  0  0  0  0  0  0  0  0  0  0
   10.4567    4.4767   -3.3180 O   0  0  0  0  0  0  0  0  0  0  0  0
    8.9316    2.9972   -4.1499 N   0  0  0  0  0  0  0  0  0  0  0  0
    9.2317    3.2394   -5.5465 C   0  0  0  0  0  0  0  0  0  0  0  0
    7.9721    3.0739   -6.3985 C   0  0  0  0  0  0  0  0  0  0  0  0
    8.2395    3.2655   -7.8700 C   0  0  0  0  0  0  0  0  0  0  0  0
    8.1087    4.5292   -8.4606 C   0  0  0  0  0  0  0  0  0  0  0  0
    8.3608    4.7027   -9.8239 C   0  0  0  0  0  0  0  0  0  0  0  0
    8.7576    3.6206  -10.6033 C   0  0  0  0  0  0  0  0  0  0  0  0
    8.8940    2.3680  -10.0101 C   0  0  0  0  0  0  0  0  0  0  0  0
    9.2753    1.3270  -10.7640 F   0  0  0  0  0  0  0  0  0  0  0  0
    8.6445    2.1800   -8.6535 C   0  0  0  0  0  0  0  0  0  0  0  0
    8.1324    4.4414   -1.1511 C   0  0  0  0  0  0  0  0  0  0  0  0
    7.1640    4.2571   -0.1526 C   0  0  0  0  0  0  0  0  0  0  0  0
    6.2345    5.2632    0.1183 C   0  0  0  0  0  0  0  0  0  0  0  0
    6.3584    6.4696   -0.5446 C   0  0  0  0  0  0  0  0  0  0  0  0
    7.3636    6.7449   -1.3944 N   0  0  0  0  0  0  0  0  0  0  0  0
    8.2330    5.7404   -1.6607 C   0  0  0  0  0  0  0  0  0  0  0  0
    9.3987    0.7749   -1.6578 C   0  0  0  0  0  0  0  0  0  0  0  0
    9.0328   -0.3815   -1.8801 O   0  0  0  0  0  0  0  0  0  0  0  0
   10.8503    0.9362   -1.4151 C   0  0  0  0  0  0  0  0  0  0  0  0
   11.7140   -0.1379   -1.2452 C   0  0  0  0  0  0  0  0  0  0  0  0
   12.9669    0.3870   -1.1342 N   0  0  0  0  0  0  0  0  0  0  0  0
   12.8425    1.7413   -1.2230 C   0  0  0  0  0  0  0  0  0  0  0  0
   11.5882    2.1000   -1.3861 N   0  0  0  0  0  0  0  0  0  0  0  0
    6.1575    2.5804   -2.4405 C   0  0  0  0  0  0  0  0  0  0  0  0
    4.7677    2.3577   -2.4859 C   0  0  0  0  0  0  0  0  0  0  0  0
    0.3894    0.0672   -0.0916 H   0  0  0  0  0  0  0  0  0  0  0  0
    0.3231    1.0093   -1.6014 H   0  0  0  0  0  0  0  0  0  0  0  0
    1.1499    1.6668   -0.1936 H   0  0  0  0  0  0  0  0  0  0  0  0
    2.8814   -0.0431   -0.3096 H   0  0  0  0  0  0  0  0  0  0  0  0
    1.6548   -1.0801   -2.9268 H   0  0  0  0  0  0  0  0  0  0  0  0
    1.2123   -1.8009   -1.3563 H   0  0  0  0  0  0  0  0  0  0  0  0
    2.8742   -1.8524   -1.9263 H   0  0  0  0  0  0  0  0  0  0  0  0
    4.7543   -0.8712   -1.4991 H   0  0  0  0  0  0  0  0  0  0  0  0
    7.0505   -0.4586   -1.2430 H   0  0  0  0  0  0  0  0  0  0  0  0
    9.8592    3.3243   -0.9700 H   0  0  0  0  0  0  0  0  0  0  0  0
    8.4211    2.1520   -3.9235 H   0  0  0  0  0  0  0  0  0  0  0  0
   10.0014    2.5167   -5.8373 H   0  0  0  0  0  0  0  0  0  0  0  0
    9.6538    4.2433   -5.6657 H   0  0  0  0  0  0  0  0  0  0  0  0
    7.2013    3.7852   -6.0689 H   0  0  0  0  0  0  0  0  0  0  0  0
    7.5340    2.0804   -6.2358 H   0  0  0  0  0  0  0  0  0  0  0  0
    7.8004    5.3863   -7.8640 H   0  0  0  0  0  0  0  0  0  0  0  0
    8.2522    5.6890  -10.2742 H   0  0  0  0  0  0  0  0  0  0  0  0
    8.9566    3.7388  -11.6637 H   0  0  0  0  0  0  0  0  0  0  0  0
    8.7598    1.1833   -8.2353 H   0  0  0  0  0  0  0  0  0  0  0  0
    7.0617    3.3009    0.3533 H   0  0  0  0  0  0  0  0  0  0  0  0
    5.4077    5.0950    0.7994 H   0  0  0  0  0  0  0  0  0  0  0  0
    5.6339    7.2675   -0.4125 H   0  0  0  0  0  0  0  0  0  0  0  0
    9.0254    6.0435   -2.3401 H   0  0  0  0  0  0  0  0  0  0  0  0
   11.5292   -1.2035   -1.2300 H   0  0  0  0  0  0  0  0  0  0  0  0
   13.8302   -0.1302   -1.0300 H   0  0  0  0  0  0  0  0  0  0  0  0
   13.6958    2.4057   -1.1721 H   0  0  0  0  0  0  0  0  0  0  0  0
    6.4890    3.5508   -2.7978 H   0  0  0  0  0  0  0  0  0  0  0  0
    4.1088    3.1610   -2.8090 H   0  0  0  0  0  0  0  0  0  0  0  0
  1  2  1  0  0  0  0
  1 38  1  0  0  0  0
  1 39  1  0  0  0  0
  1 40  1  0  0  0  0
  2  3  1  0  0  0  0
  2  4  1  0  0  0  0
  2 41  1  0  0  0  0
  3 42  1  0  0  0  0
  3 43  1  0  0  0  0
  3 44  1  0  0  0  0
  4  5  1  0  0  0  0
  5  6  1  0  0  0  0
  5 37  2  0  0  0  0
  6  7  2  0  0  0  0
  6 45  1  0  0  0  0
  7  8  1  0  0  0  0
  7 46  1  0  0  0  0
  8  9  1  0  0  0  0
  8 36  2  0  0  0  0
  9 10  1  0  0  0  0
  9 29  1  0  0  0  0
 10 11  1  0  0  0  0
 10 23  1  0  0  0  0
 10 47  1  0  0  0  0
 11 12  2  0  0  0  0
 11 13  1  0  0  0  0
 13 14  1  0  0  0  0
 13 48  1  0  0  0  0
 14 15  1  0  0  0  0
 14 49  1  0  0  0  0
 14 50  1  0  0  0  0
 15 16  1  0  0  0  0
 15 51  1  0  0  0  0
 15 52  1  0  0  0  0
 16 17  1  0  0  0  0
 16 22  2  0  0  0  0
 17 18  2  0  0  0  0
 17 53  1  0  0  0  0
 18 19  1  0  0  0  0
 18 54  1  0  0  0  0
 19 20  2  0  0  0  0
 19 55  1  0  0  0  0
 20 21  1  0  0  0  0
 20 22  1  0  0  0  0
 22 56  1  0  0  0  0
 23 24  1  0  0  0  0
 23 28  2  0  0  0  0
 24 25  2  0  0  0  0
 24 57  1  0  0  0  0
 25 26  1  0  0  0  0
 25 58  1  0  0  0  0
 26 27  2  0  0  0  0
 26 59  1  0  0  0  0
 27 28  1  0  0  0  0
 28 60  1  0  0  0  0
 29 30  2  0  0  0  0
 29 31  1  0  0  0  0
 31 32  2  0  0  0  0
 31 35  1  0  0  0  0
 32 33  1  0  0  0  0
 32 61  1  0  0  0  0
 33 34  1  0  0  0  0
 33 62  1  0  0  0  0
 34 35  2  0  0  0  0
 34 63  1  0  0  0  0
 36 37  1  0  0  0  0
 36 64  1  0  0  0  0
 37 65  1  0  0  0  0
M  END
$$$$
