
 OpenBabel07202414203D

 40 43  0  0  1  0  0  0  0  0999 V2000
    1.1536    0.3263   -0.2627 O   0  0  0  0  0  0  0  0  0  0  0  0
    2.5928    0.2744   -0.3162 C   0  0  3  0  0  0  0  0  0  0  0  0
    3.0475    0.9957   -1.6399 C   0  0  0  0  0  0  0  0  0  0  0  0
    4.0905    0.7179   -2.2217 O   0  0  0  0  0  0  0  0  0  0  0  0
    2.1388    1.9773   -2.0347 N   0  0  0  0  0  0  0  0  0  0  0  0
    2.2815    2.9487   -3.0587 C   0  0  0  0  0  0  0  0  0  0  0  0
    3.3889    2.9942   -3.9092 C   0  0  0  0  0  0  0  0  0  0  0  0
    3.6487    3.9980   -4.7805 N   0  0  0  0  0  0  0  0  0  0  0  0
    2.7314    4.9812   -4.8615 C   0  0  0  0  0  0  0  0  0  0  0  0
    1.5196    4.9844   -4.1760 C   0  0  0  0  0  0  0  0  0  0  0  0
    0.5524    5.9755   -4.4297 C   0  0  0  0  0  0  0  0  0  0  0  0
   -0.6652    5.9688   -3.7573 C   0  0  0  0  0  0  0  0  0  0  0  0
   -0.9110    4.9955   -2.7986 C   0  0  0  0  0  0  0  0  0  0  0  0
    0.0468    4.0090   -2.5355 C   0  0  0  0  0  0  0  0  0  0  0  0
    1.2827    3.9553   -3.2317 C   0  0  0  0  0  0  0  0  0  0  0  0
    3.0724   -1.1785   -0.3790 C   0  0  0  0  0  0  0  0  0  0  0  0
    3.0022   -1.8855    0.9466 C   0  0  0  0  0  0  0  0  0  0  0  0
    2.7571   -3.0848    1.0401 O   0  0  0  0  0  0  0  0  0  0  0  0
    3.3618   -1.1557    2.0441 N   0  0  0  0  0  0  0  0  0  0  0  0
    3.4815    0.2315    2.0548 C   0  0  0  0  0  0  0  0  0  0  0  0
    3.9123    0.8481    3.2351 C   0  0  0  0  0  0  0  0  0  0  0  0
    3.9338    2.2386    3.3267 C   0  0  0  0  0  0  0  0  0  0  0  0
    3.5119    3.0003    2.2434 C   0  0  0  0  0  0  0  0  0  0  0  0
    3.4551    4.7151    2.3754 Cl  0  0  0  0  0  0  0  0  0  0  0  0
    3.1054    2.3861    1.0562 C   0  0  0  0  0  0  0  0  0  0  0  0
    3.1019    0.9863    0.9319 C   0  0  0  0  0  0  0  0  0  0  0  0
    0.8151   -0.2749   -0.9517 H   0  0  0  0  0  0  0  0  0  0  0  0
    1.3407    2.0663   -1.4152 H   0  0  0  0  0  0  0  0  0  0  0  0
    4.1402    2.2113   -3.9300 H   0  0  0  0  0  0  0  0  0  0  0  0
    3.0056    5.7956   -5.5280 H   0  0  0  0  0  0  0  0  0  0  0  0
    0.7315    6.7428   -5.1813 H   0  0  0  0  0  0  0  0  0  0  0  0
   -1.4210    6.7163   -3.9857 H   0  0  0  0  0  0  0  0  0  0  0  0
   -1.8565    4.9916   -2.2610 H   0  0  0  0  0  0  0  0  0  0  0  0
   -0.2162    3.2627   -1.7916 H   0  0  0  0  0  0  0  0  0  0  0  0
    4.1228   -1.2461   -0.6889 H   0  0  0  0  0  0  0  0  0  0  0  0
    2.4736   -1.7521   -1.0970 H   0  0  0  0  0  0  0  0  0  0  0  0
    3.4484   -1.6785    2.9011 H   0  0  0  0  0  0  0  0  0  0  0  0
    4.2237    0.2571    4.0933 H   0  0  0  0  0  0  0  0  0  0  0  0
    4.2571    2.7173    4.2475 H   0  0  0  0  0  0  0  0  0  0  0  0
    2.7712    3.0238    0.2430 H   0  0  0  0  0  0  0  0  0  0  0  0
  1  2  1  0  0  0  0
  1 27  1  0  0  0  0
  2  3  1  0  0  0  0
  2 16  1  0  0  0  0
  2 26  1  0  0  0  0
  3  4  2  0  0  0  0
  3  5  1  0  0  0  0
  5  6  1  0  0  0  0
  5 28  1  0  0  0  0
  6  7  1  0  0  0  0
  6 15  2  0  0  0  0
  7  8  2  0  0  0  0
  7 29  1  0  0  0  0
  8  9  1  0  0  0  0
  9 10  2  0  0  0  0
  9 30  1  0  0  0  0
 10 11  1  0  0  0  0
 10 15  1  0  0  0  0
 11 12  2  0  0  0  0
 11 31  1  0  0  0  0
 12 13  1  0  0  0  0
 12 32  1  0  0  0  0
 13 14  2  0  0  0  0
 13 33  1  0  0  0  0
 14 15  1  0  0  0  0
 14 34  1  0  0  0  0
 16 17  1  0  0  0  0
 16 35  1  0  0  0  0
 16 36  1  0  0  0  0
 17 18  2  0  0  0  0
 17 19  1  0  0  0  0
 19 20  1  0  0  0  0
 19 37  1  0  0  0  0
 20 21  1  0  0  0  0
 20 26  2  0  0  0  0
 21 22  2  0  0  0  0
 21 38  1  0  0  0  0
 22 23  1  0  0  0  0
 22 39  1  0  0  0  0
 23 24  1  0  0  0  0
 23 25  2  0  0  0  0
 25 26  1  0  0  0  0
 25 40  1  0  0  0  0
M  END
$$$$
