
 OpenBabel07202414143D

 67 72  0  0  1  0  0  0  0  0999 V2000
    8.8850   -3.0816   -0.3866 C   0  0  0  0  0  0  0  0  0  0  0  0
    7.6857   -3.0043    0.3859 O   0  0  0  0  0  0  0  0  0  0  0  0
    6.4807   -2.8931   -0.4282 C   0  0  0  0  0  0  0  0  0  0  0  0
    6.4657   -1.6101   -1.2171 C   0  0  0  0  0  0  0  0  0  0  0  0
    4.9702   -1.3047   -2.1221 S   0  0  0  0  0  0  0  0  0  0  0  0
    4.7424   -2.3955   -3.0503 O   0  0  0  0  0  0  0  0  0  0  0  0
    3.9560   -0.8306   -1.2117 O   0  0  0  0  0  0  0  0  0  0  0  0
    5.4717    0.0095   -3.0607 N   0  0  0  0  0  0  0  0  0  0  0  0
    5.7581    1.2930   -2.4044 C   0  0  0  0  0  0  0  0  0  0  0  0
    4.6969    2.3473   -2.6179 C   0  0  0  0  0  0  0  0  0  0  0  0
    4.7035    3.4780   -1.7843 C   0  0  0  0  0  0  0  0  0  0  0  0
    3.7812    4.5098   -1.9712 C   0  0  0  0  0  0  0  0  0  0  0  0
    2.8624    4.4286   -3.0104 C   0  0  0  0  0  0  0  0  0  0  0  0
    1.7530    5.7126   -3.2888 Cl  0  0  0  0  0  0  0  0  0  0  0  0
    2.8371    3.3095   -3.8371 C   0  0  0  0  0  0  0  0  0  0  0  0
    3.7578    2.2548   -3.6599 C   0  0  0  0  0  0  0  0  0  0  0  0
    3.6972    1.0221   -4.5746 C   0  0  3  0  0  0  0  0  0  0  0  0
    3.6875    1.4640   -6.0578 C   0  0  0  0  0  0  0  0  0  0  0  0
    2.3553    1.0934   -6.6242 C   0  0  0  0  0  0  0  0  0  0  0  0
    1.5469    0.5283   -5.5520 N   0  0  0  0  0  0  0  0  0  0  0  0
    0.1176    0.6558   -5.6266 C   0  0  0  0  0  0  0  0  0  0  0  0
   -0.6424    0.9360   -4.4828 C   0  0  0  0  0  0  0  0  0  0  0  0
   -1.8171    1.6113   -4.5281 N   0  0  0  0  0  0  0  0  0  0  0  0
   -2.3388    1.8784   -5.7465 C   0  0  0  0  0  0  0  0  0  0  0  0
   -1.8696    1.3050   -6.9238 C   0  0  0  0  0  0  0  0  0  0  0  0
   -2.6450    1.2487   -8.1113 C   0  0  0  0  0  0  0  0  0  0  0  0
   -2.1300    0.5928   -9.2336 C   0  0  0  0  0  0  0  0  0  0  0  0
   -3.1654    0.0831  -10.5867 S   0  0  0  0  0  0  0  0  0  0  0  0
   -3.5170   -1.6118  -10.1486 C   0  0  0  0  0  0  0  0  0  0  0  0
   -4.3971    0.8449  -10.5267 O   0  0  0  0  0  0  0  0  0  0  0  0
   -2.3383    0.0784  -11.7796 O   0  0  0  0  0  0  0  0  0  0  0  0
   -0.8257    0.1284   -9.2438 C   0  0  0  0  0  0  0  0  0  0  0  0
   -0.0935    0.1477   -8.0685 C   0  0  0  0  0  0  0  0  0  0  0  0
   -0.5883    0.7117   -6.8625 C   0  0  0  0  0  0  0  0  0  0  0  0
    2.3163    0.3173   -4.3904 C   0  0  0  0  0  0  0  0  0  0  0  0
    1.9277   -0.2247   -3.3903 O   0  0  0  0  0  0  0  0  0  0  0  0
    4.9488    0.1403   -4.4290 C   0  0  0  0  0  0  0  0  0  0  0  0
    5.2399   -3.5184    0.1732 C   0  0  0  0  0  0  0  0  0  0  0  0
    5.9961   -4.2442   -0.9060 C   0  0  0  0  0  0  0  0  0  0  0  0
    9.5631   -3.8006    0.0764 H   0  0  0  0  0  0  0  0  0  0  0  0
    9.3577   -2.0951   -0.4032 H   0  0  0  0  0  0  0  0  0  0  0  0
    8.6895   -3.4031   -1.4161 H   0  0  0  0  0  0  0  0  0  0  0  0
    7.2798   -1.6115   -1.9471 H   0  0  0  0  0  0  0  0  0  0  0  0
    6.6047   -0.7747   -0.5245 H   0  0  0  0  0  0  0  0  0  0  0  0
    6.7009    1.6728   -2.8232 H   0  0  0  0  0  0  0  0  0  0  0  0
    5.9358    1.1563   -1.3356 H   0  0  0  0  0  0  0  0  0  0  0  0
    5.4180    3.5622   -0.9694 H   0  0  0  0  0  0  0  0  0  0  0  0
    3.7913    5.3751   -1.3184 H   0  0  0  0  0  0  0  0  0  0  0  0
    2.0910    3.2691   -4.6307 H   0  0  0  0  0  0  0  0  0  0  0  0
    4.4486    0.9449   -6.6567 H   0  0  0  0  0  0  0  0  0  0  0  0
    3.8996    2.5294   -6.1993 H   0  0  0  0  0  0  0  0  0  0  0  0
    2.5088    0.3216   -7.3716 H   0  0  0  0  0  0  0  0  0  0  0  0
    1.8645    1.9694   -7.0677 H   0  0  0  0  0  0  0  0  0  0  0  0
   -0.3022    0.7059   -3.4820 H   0  0  0  0  0  0  0  0  0  0  0  0
   -3.1675    2.5838   -5.7431 H   0  0  0  0  0  0  0  0  0  0  0  0
   -3.6717    1.6141   -8.1143 H   0  0  0  0  0  0  0  0  0  0  0  0
   -4.1035   -1.6258   -9.2280 H   0  0  0  0  0  0  0  0  0  0  0  0
   -2.5757   -2.1487  -10.0066 H   0  0  0  0  0  0  0  0  0  0  0  0
   -4.0791   -2.0774  -10.9606 H   0  0  0  0  0  0  0  0  0  0  0  0
   -0.4000   -0.3388  -10.1305 H   0  0  0  0  0  0  0  0  0  0  0  0
    0.8427   -0.3919   -8.0832 H   0  0  0  0  0  0  0  0  0  0  0  0
    5.7805    0.6159   -4.9787 H   0  0  0  0  0  0  0  0  0  0  0  0
    4.8282   -0.8318   -4.9179 H   0  0  0  0  0  0  0  0  0  0  0  0
    4.2448   -3.1746   -0.0850 H   0  0  0  0  0  0  0  0  0  0  0  0
    5.2989   -3.8987    1.1881 H   0  0  0  0  0  0  0  0  0  0  0  0
    5.5544   -4.3428   -1.8868 H   0  0  0  0  0  0  0  0  0  0  0  0
    6.5603   -5.1214   -0.6025 H   0  0  0  0  0  0  0  0  0  0  0  0
  1  2  1  0  0  0  0
  1 40  1  0  0  0  0
  1 41  1  0  0  0  0
  1 42  1  0  0  0  0
  2  3  1  0  0  0  0
  3  4  1  0  0  0  0
  3 38  1  0  0  0  0
  3 39  1  0  0  0  0
  4  5  1  0  0  0  0
  4 43  1  0  0  0  0
  4 44  1  0  0  0  0
  5  6  2  0  0  0  0
  5  7  2  0  0  0  0
  5  8  1  0  0  0  0
  8  9  1  0  0  0  0
  8 37  1  0  0  0  0
  9 10  1  0  0  0  0
  9 45  1  0  0  0  0
  9 46  1  0  0  0  0
 10 11  1  0  0  0  0
 10 16  2  0  0  0  0
 11 12  2  0  0  0  0
 11 47  1  0  0  0  0
 12 13  1  0  0  0  0
 12 48  1  0  0  0  0
 13 14  1  0  0  0  0
 13 15  2  0  0  0  0
 15 16  1  0  0  0  0
 15 49  1  0  0  0  0
 16 17  1  0  0  0  0
 17 18  1  0  0  0  0
 17 35  1  0  0  0  0
 17 37  1  0  0  0  0
 18 19  1  0  0  0  0
 18 50  1  0  0  0  0
 18 51  1  0  0  0  0
 19 20  1  0  0  0  0
 19 52  1  0  0  0  0
 19 53  1  0  0  0  0
 20 21  1  0  0  0  0
 20 35  1  0  0  0  0
 21 22  1  0  0  0  0
 21 34  2  0  0  0  0
 22 23  2  0  0  0  0
 22 54  1  0  0  0  0
 23 24  1  0  0  0  0
 24 25  2  0  0  0  0
 24 55  1  0  0  0  0
 25 26  1  0  0  0  0
 25 34  1  0  0  0  0
 26 27  2  0  0  0  0
 26 56  1  0  0  0  0
 27 28  1  0  0  0  0
 27 32  1  0  0  0  0
 28 29  1  0  0  0  0
 28 30  2  0  0  0  0
 28 31  2  0  0  0  0
 29 57  1  0  0  0  0
 29 58  1  0  0  0  0
 29 59  1  0  0  0  0
 32 33  2  0  0  0  0
 32 60  1  0  0  0  0
 33 34  1  0  0  0  0
 33 61  1  0  0  0  0
 35 36  2  0  0  0  0
 37 62  1  0  0  0  0
 37 63  1  0  0  0  0
 38 39  1  0  0  0  0
 38 64  1  0  0  0  0
 38 65  1  0  0  0  0
 39 66  1  0  0  0  0
 39 67  1  0  0  0  0
M  END
$$$$
