
 OpenBabel07202414133D

 51 54  0  0  0  0  0  0  0  0999 V2000
    1.9790   -0.1674    1.2997 C   0  0  0  0  0  0  0  0  0  0  0  0
    2.6513    0.1378   -0.0356 C   0  0  0  0  0  0  0  0  0  0  0  0
    3.1160   -1.1433   -0.7176 C   0  0  0  0  0  0  0  0  0  0  0  0
    2.7979   -2.2424   -0.2772 O   0  0  0  0  0  0  0  0  0  0  0  0
    3.9072   -0.9281   -1.8401 N   0  0  0  0  0  0  0  0  0  0  0  0
    4.4377   -1.9450   -2.6798 C   0  0  0  0  0  0  0  0  0  0  0  0
    3.9918   -3.2713   -2.6534 C   0  0  0  0  0  0  0  0  0  0  0  0
    4.5577   -4.2479   -3.4866 C   0  0  0  0  0  0  0  0  0  0  0  0
    5.5833   -3.9198   -4.3670 C   0  0  0  0  0  0  0  0  0  0  0  0
    6.1355   -4.9304   -5.2096 N   0  0  0  0  0  0  0  0  0  0  0  0
    7.3082   -5.6277   -4.6572 C   0  0  0  0  0  0  0  0  0  0  0  0
    7.1331   -7.1254   -4.5742 C   0  0  0  0  0  0  0  0  0  0  0  0
    5.9356   -7.8833   -4.8296 C   0  0  0  0  0  0  0  0  0  0  0  0
    6.1324   -9.2444   -4.7558 C   0  0  0  0  0  0  0  0  0  0  0  0
    7.7265   -9.6342   -4.2920 S   0  0  0  0  0  0  0  0  0  0  0  0
    8.1718   -7.9842   -4.2476 C   0  0  0  0  0  0  0  0  0  0  0  0
    5.6887   -4.9903   -6.5292 C   0  0  0  0  0  0  0  0  0  0  0  0
    4.7253   -4.3201   -6.9258 O   0  0  0  0  0  0  0  0  0  0  0  0
    6.3751   -5.9158   -7.5320 C   0  0  0  0  0  0  0  0  0  0  0  0
    7.5915   -5.3270   -8.0476 N   0  0  0  0  0  0  0  0  0  0  0  0
    8.7678   -5.9159   -7.7451 N   0  0  0  0  0  0  0  0  0  0  0  0
    9.6528   -4.9440   -7.5721 N   0  0  0  0  0  0  0  0  0  0  0  0
    9.0484   -3.7622   -7.9055 C   0  0  0  0  0  0  0  0  0  0  0  0
    9.4887   -2.4407   -7.7863 C   0  0  0  0  0  0  0  0  0  0  0  0
    8.6440   -1.4165   -8.2344 C   0  0  0  0  0  0  0  0  0  0  0  0
    7.4062   -1.7053   -8.8174 C   0  0  0  0  0  0  0  0  0  0  0  0
    6.9298   -3.0171   -8.8977 C   0  0  0  0  0  0  0  0  0  0  0  0
    7.7701   -4.0099   -8.3874 C   0  0  0  0  0  0  0  0  0  0  0  0
    6.0301   -2.5896   -4.4153 C   0  0  0  0  0  0  0  0  0  0  0  0
    5.4530   -1.6104   -3.5859 C   0  0  0  0  0  0  0  0  0  0  0  0
    1.5982    0.7445    1.7688 H   0  0  0  0  0  0  0  0  0  0  0  0
    2.6881   -0.6370    1.9911 H   0  0  0  0  0  0  0  0  0  0  0  0
    1.1380   -0.8589    1.1721 H   0  0  0  0  0  0  0  0  0  0  0  0
    3.5062    0.8026    0.1299 H   0  0  0  0  0  0  0  0  0  0  0  0
    1.9370    0.6445   -0.6943 H   0  0  0  0  0  0  0  0  0  0  0  0
    4.2134    0.0204   -2.0215 H   0  0  0  0  0  0  0  0  0  0  0  0
    3.1737   -3.5787   -2.0076 H   0  0  0  0  0  0  0  0  0  0  0  0
    4.1834   -5.2657   -3.4344 H   0  0  0  0  0  0  0  0  0  0  0  0
    7.5320   -5.2517   -3.6497 H   0  0  0  0  0  0  0  0  0  0  0  0
    8.1717   -5.3863   -5.2806 H   0  0  0  0  0  0  0  0  0  0  0  0
    4.9811   -7.4556   -5.1127 H   0  0  0  0  0  0  0  0  0  0  0  0
    5.4136  -10.0292   -4.9491 H   0  0  0  0  0  0  0  0  0  0  0  0
    9.1925   -7.7239   -3.9983 H   0  0  0  0  0  0  0  0  0  0  0  0
    5.7048   -6.0996   -8.3778 H   0  0  0  0  0  0  0  0  0  0  0  0
    6.6160   -6.8878   -7.1083 H   0  0  0  0  0  0  0  0  0  0  0  0
   10.4471   -2.2251   -7.3290 H   0  0  0  0  0  0  0  0  0  0  0  0
    8.9579   -0.3811   -8.1262 H   0  0  0  0  0  0  0  0  0  0  0  0
    6.7824   -0.8920   -9.1840 H   0  0  0  0  0  0  0  0  0  0  0  0
    5.9425   -3.2375   -9.2934 H   0  0  0  0  0  0  0  0  0  0  0  0
    6.8287   -2.3081   -5.0989 H   0  0  0  0  0  0  0  0  0  0  0  0
    5.8217   -0.5898   -3.6539 H   0  0  0  0  0  0  0  0  0  0  0  0
  1  2  1  0  0  0  0
  1 31  1  0  0  0  0
  1 32  1  0  0  0  0
  1 33  1  0  0  0  0
  2  3  1  0  0  0  0
  2 34  1  0  0  0  0
  2 35  1  0  0  0  0
  3  4  2  0  0  0  0
  3  5  1  0  0  0  0
  5  6  1  0  0  0  0
  5 36  1  0  0  0  0
  6  7  1  0  0  0  0
  6 30  2  0  0  0  0
  7  8  2  0  0  0  0
  7 37  1  0  0  0  0
  8  9  1  0  0  0  0
  8 38  1  0  0  0  0
  9 10  1  0  0  0  0
  9 29  2  0  0  0  0
 10 11  1  0  0  0  0
 10 17  1  0  0  0  0
 11 12  1  0  0  0  0
 11 39  1  0  0  0  0
 11 40  1  0  0  0  0
 12 13  1  0  0  0  0
 12 16  2  0  0  0  0
 13 14  2  0  0  0  0
 13 41  1  0  0  0  0
 14 15  1  0  0  0  0
 14 42  1  0  0  0  0
 15 16  1  0  0  0  0
 16 43  1  0  0  0  0
 17 18  2  0  0  0  0
 17 19  1  0  0  0  0
 19 20  1  0  0  0  0
 19 44  1  0  0  0  0
 19 45  1  0  0  0  0
 20 21  1  0  0  0  0
 20 28  1  0  0  0  0
 21 22  2  0  0  0  0
 22 23  1  0  0  0  0
 23 24  1  0  0  0  0
 23 28  2  0  0  0  0
 24 25  2  0  0  0  0
 24 46  1  0  0  0  0
 25 26  1  0  0  0  0
 25 47  1  0  0  0  0
 26 27  2  0  0  0  0
 26 48  1  0  0  0  0
 27 28  1  0  0  0  0
 27 49  1  0  0  0  0
 29 30  1  0  0  0  0
 29 50  1  0  0  0  0
 30 51  1  0  0  0  0
M  END
$$$$
