
 OpenBabel07202414203D

 37 39  0  0  1  0  0  0  0  0999 V2000
    0.9217    0.0250    0.0666 O   0  0  0  0  0  0  0  0  0  0  0  0
    2.3482   -0.0331    0.0787 C   0  0  3  0  0  0  0  0  0  0  0  0
    2.8324   -1.4940    0.1023 C   0  0  0  0  0  0  0  0  0  0  0  0
    2.5968   -2.0903    1.4173 N   0  0  0  0  0  0  0  0  0  0  0  0
    1.6434   -3.0461    1.7294 C   0  0  0  0  0  0  0  0  0  0  0  0
    1.5310   -3.5074    2.8692 O   0  0  0  0  0  0  0  0  0  0  0  0
    0.7211   -3.5589    0.6265 C   0  0  0  0  0  0  0  0  0  0  0  0
    1.2569   -4.7803   -0.0841 C   0  0  0  0  0  0  0  0  0  0  0  0
    1.4953   -5.9689    0.6228 C   0  0  0  0  0  0  0  0  0  0  0  0
    2.0087   -7.0947   -0.0257 C   0  0  0  0  0  0  0  0  0  0  0  0
    2.3028   -7.0428   -1.3873 C   0  0  0  0  0  0  0  0  0  0  0  0
    2.0547   -5.8726   -2.0996 C   0  0  0  0  0  0  0  0  0  0  0  0
    2.4313   -5.7954   -3.7773 Cl  0  0  0  0  0  0  0  0  0  0  0  0
    1.5171   -4.7531   -1.4619 C   0  0  0  0  0  0  0  0  0  0  0  0
    3.3557   -1.4646    2.4965 C   0  0  0  0  0  0  0  0  0  0  0  0
    3.3088    0.0507    2.4315 C   0  0  0  0  0  0  0  0  0  0  0  0
    3.7755    0.7964    3.5281 C   0  0  0  0  0  0  0  0  0  0  0  0
    3.7526    2.1916    3.5002 C   0  0  0  0  0  0  0  0  0  0  0  0
    3.2645    2.8593    2.3818 C   0  0  0  0  0  0  0  0  0  0  0  0
    2.8087    2.1351    1.2799 C   0  0  0  0  0  0  0  0  0  0  0  0
    2.8412    0.7327    1.2882 C   0  0  0  0  0  0  0  0  0  0  0  0
    0.6143   -0.4119   -0.7430 H   0  0  0  0  0  0  0  0  0  0  0  0
    2.7135    0.4469   -0.8368 H   0  0  0  0  0  0  0  0  0  0  0  0
    3.9138   -1.5389   -0.0804 H   0  0  0  0  0  0  0  0  0  0  0  0
    2.3490   -2.0667   -0.6887 H   0  0  0  0  0  0  0  0  0  0  0  0
    0.4798   -2.7583   -0.0785 H   0  0  0  0  0  0  0  0  0  0  0  0
   -0.2425   -3.8139    1.0881 H   0  0  0  0  0  0  0  0  0  0  0  0
    1.2869   -6.0227    1.6916 H   0  0  0  0  0  0  0  0  0  0  0  0
    2.1866   -8.0090    0.5353 H   0  0  0  0  0  0  0  0  0  0  0  0
    2.7225   -7.9135   -1.8833 H   0  0  0  0  0  0  0  0  0  0  0  0
    1.3082   -3.8596   -2.0438 H   0  0  0  0  0  0  0  0  0  0  0  0
    4.3981   -1.7867    2.3838 H   0  0  0  0  0  0  0  0  0  0  0  0
    2.9986   -1.7999    3.4753 H   0  0  0  0  0  0  0  0  0  0  0  0
    4.1511    0.2908    4.4151 H   0  0  0  0  0  0  0  0  0  0  0  0
    4.1065    2.7560    4.3600 H   0  0  0  0  0  0  0  0  0  0  0  0
    3.2307    3.9460    2.3668 H   0  0  0  0  0  0  0  0  0  0  0  0
    2.4166    2.6688    0.4171 H   0  0  0  0  0  0  0  0  0  0  0  0
  1  2  1  0  0  0  0
  1 22  1  0  0  0  0
  2  3  1  0  0  0  0
  2 21  1  0  0  0  0
  2 23  1  0  0  0  0
  3  4  1  0  0  0  0
  3 24  1  0  0  0  0
  3 25  1  0  0  0  0
  4  5  1  0  0  0  0
  4 15  1  0  0  0  0
  5  6  2  0  0  0  0
  5  7  1  0  0  0  0
  7  8  1  0  0  0  0
  7 26  1  0  0  0  0
  7 27  1  0  0  0  0
  8  9  1  0  0  0  0
  8 14  2  0  0  0  0
  9 10  2  0  0  0  0
  9 28  1  0  0  0  0
 10 11  1  0  0  0  0
 10 29  1  0  0  0  0
 11 12  2  0  0  0  0
 11 30  1  0  0  0  0
 12 13  1  0  0  0  0
 12 14  1  0  0  0  0
 14 31  1  0  0  0  0
 15 16  1  0  0  0  0
 15 32  1  0  0  0  0
 15 33  1  0  0  0  0
 16 17  1  0  0  0  0
 16 21  2  0  0  0  0
 17 18  2  0  0  0  0
 17 34  1  0  0  0  0
 18 19  1  0  0  0  0
 18 35  1  0  0  0  0
 19 20  2  0  0  0  0
 19 36  1  0  0  0  0
 20 21  1  0  0  0  0
 20 37  1  0  0  0  0
M  END
$$$$
