
 OpenBabel07202414203D

 24 26  0  0  0  0  0  0  0  0999 V2000
    1.0092    1.4206    0.1471 C   0  0  0  0  0  0  0  0  0  0  0  0
   -0.2900    1.9626    0.2014 C   0  0  0  0  0  0  0  0  0  0  0  0
   -1.3628    1.0993    0.0744 C   0  0  0  0  0  0  0  0  0  0  0  0
   -1.1196   -0.2755   -0.0435 C   0  0  0  0  0  0  0  0  0  0  0  0
    0.1414   -0.8407   -0.0779 C   0  0  0  0  0  0  0  0  0  0  0  0
    1.2173    0.0347   -0.0005 C   0  0  0  0  0  0  0  0  0  0  0  0
    2.9808   -0.6437   -0.1056 Br  0  0  0  0  0  0  0  0  0  0  0  0
   -2.4138   -0.9450   -0.1171 C   0  0  0  0  0  0  0  0  0  0  0  0
   -2.6092   -2.1332   -0.1766 O   0  0  0  0  0  0  0  0  0  0  0  0
   -3.4658    0.1765   -0.0673 C   0  0  0  0  0  0  0  0  0  0  0  0
   -4.6696    0.0136   -0.1031 O   0  0  0  0  0  0  0  0  0  0  0  0
   -2.7492    1.3597    0.0471 N   0  0  0  0  0  0  0  0  0  0  0  0
   -3.4110    2.6459    0.0602 C   0  0  0  0  0  0  0  0  0  0  0  0
   -3.5836    3.2426   -1.3034 C   0  0  0  0  0  0  0  0  0  0  0  0
   -3.1295    2.6717   -2.4714 N   0  0  0  0  0  0  0  0  0  0  0  0
   -3.4102    3.6000   -3.3538 C   0  0  0  0  0  0  0  0  0  0  0  0
   -4.0197    4.6933   -2.8313 O   0  0  0  0  0  0  0  0  0  0  0  0
   -4.1385    4.4572   -1.4603 N   0  0  0  0  0  0  0  0  0  0  0  0
    1.8697    2.0854    0.2150 H   0  0  0  0  0  0  0  0  0  0  0  0
   -0.4148    3.0308    0.3445 H   0  0  0  0  0  0  0  0  0  0  0  0
    0.2687   -1.9141   -0.1760 H   0  0  0  0  0  0  0  0  0  0  0  0
   -2.8608    3.3349    0.7054 H   0  0  0  0  0  0  0  0  0  0  0  0
   -4.4091    2.5096    0.4989 H   0  0  0  0  0  0  0  0  0  0  0  0
   -3.2062    3.6178   -4.4156 H   0  0  0  0  0  0  0  0  0  0  0  0
  1  2  1  0  0  0  0
  1  6  2  0  0  0  0
  1 19  1  0  0  0  0
  2  3  2  0  0  0  0
  2 20  1  0  0  0  0
  3  4  1  0  0  0  0
  3 12  1  0  0  0  0
  4  5  2  0  0  0  0
  4  8  1  0  0  0  0
  5  6  1  0  0  0  0
  5 21  1  0  0  0  0
  6  7  1  0  0  0  0
  8  9  2  0  0  0  0
  8 10  1  0  0  0  0
 10 11  2  0  0  0  0
 10 12  1  0  0  0  0
 12 13  1  0  0  0  0
 13 14  1  0  0  0  0
 13 22  1  0  0  0  0
 13 23  1  0  0  0  0
 14 15  1  0  0  0  0
 14 18  2  0  0  0  0
 15 16  2  0  0  0  0
 16 17  1  0  0  0  0
 16 24  1  0  0  0  0
 17 18  1  0  0  0  0
M  END
$$$$
