
 OpenBabel07202414203D

 31 33  0  0  0  0  0  0  0  0999 V2000
    3.7436    1.6455   -3.4894 C   0  0  0  0  0  0  0  0  0  0  0  0
    2.8475    2.0138   -2.4788 C   0  0  0  0  0  0  0  0  0  0  0  0
    3.3147    2.3282   -1.1937 C   0  0  0  0  0  0  0  0  0  0  0  0
    4.6921    2.2670   -0.9399 C   0  0  0  0  0  0  0  0  0  0  0  0
    5.5790    1.8959   -1.9530 C   0  0  0  0  0  0  0  0  0  0  0  0
    5.1096    1.5838   -3.2254 C   0  0  0  0  0  0  0  0  0  0  0  0
    7.2649    1.8018   -1.6160 Cl  0  0  0  0  0  0  0  0  0  0  0  0
    2.3494    2.6389   -0.0736 C   0  0  0  0  0  0  0  0  0  0  0  0
    1.4178    3.8024   -0.3438 C   0  0  0  0  0  0  0  0  0  0  0  0
    0.2980    3.6282   -0.8213 O   0  0  0  0  0  0  0  0  0  0  0  0
    1.9560    5.0340   -0.0160 N   0  0  0  0  0  0  0  0  0  0  0  0
    1.1948    6.1726   -0.1903 C   0  0  0  0  0  0  0  0  0  0  0  0
   -0.1139    6.4740    0.2937 C   0  0  0  0  0  0  0  0  0  0  0  0
   -0.4362    7.6725   -0.3423 C   0  0  0  0  0  0  0  0  0  0  0  0
   -1.6693    8.3015   -0.1969 C   0  0  0  0  0  0  0  0  0  0  0  0
   -2.5401    7.6696    0.6761 C   0  0  0  0  0  0  0  0  0  0  0  0
   -2.2559    6.5451    1.3662 N   0  0  0  0  0  0  0  0  0  0  0  0
   -1.0541    5.9295    1.1863 C   0  0  0  0  0  0  0  0  0  0  0  0
   -0.6587    4.4631    2.3195 Br  0  0  0  0  0  0  0  0  0  0  0  0
    0.6747    8.0134   -1.0634 N   0  0  0  0  0  0  0  0  0  0  0  0
    1.7135    7.1792   -0.8982 N   0  0  0  0  0  0  0  0  0  0  0  0
    3.3687    1.3930   -4.4803 H   0  0  0  0  0  0  0  0  0  0  0  0
    1.7823    2.0338   -2.7004 H   0  0  0  0  0  0  0  0  0  0  0  0
    5.0801    2.4853    0.0526 H   0  0  0  0  0  0  0  0  0  0  0  0
    5.7997    1.2824   -4.0096 H   0  0  0  0  0  0  0  0  0  0  0  0
    2.8885    2.8362    0.8610 H   0  0  0  0  0  0  0  0  0  0  0  0
    1.7327    1.7515    0.1166 H   0  0  0  0  0  0  0  0  0  0  0  0
    2.9280    5.1679   -0.2636 H   0  0  0  0  0  0  0  0  0  0  0  0
   -1.9351    9.2151   -0.7125 H   0  0  0  0  0  0  0  0  0  0  0  0
   -3.5274    8.0804    0.8643 H   0  0  0  0  0  0  0  0  0  0  0  0
    0.7961    8.8174   -1.6705 H   0  0  0  0  0  0  0  0  0  0  0  0
  1  2  1  0  0  0  0
  1  6  2  0  0  0  0
  1 22  1  0  0  0  0
  2  3  2  0  0  0  0
  2 23  1  0  0  0  0
  3  4  1  0  0  0  0
  3  8  1  0  0  0  0
  4  5  2  0  0  0  0
  4 24  1  0  0  0  0
  5  6  1  0  0  0  0
  5  7  1  0  0  0  0
  6 25  1  0  0  0  0
  8  9  1  0  0  0  0
  8 26  1  0  0  0  0
  8 27  1  0  0  0  0
  9 10  2  0  0  0  0
  9 11  1  0  0  0  0
 11 12  1  0  0  0  0
 11 28  1  0  0  0  0
 12 13  1  0  0  0  0
 12 21  2  0  0  0  0
 13 14  1  0  0  0  0
 13 18  2  0  0  0  0
 14 15  2  0  0  0  0
 14 20  1  0  0  0  0
 15 16  1  0  0  0  0
 15 29  1  0  0  0  0
 16 17  2  0  0  0  0
 16 30  1  0  0  0  0
 17 18  1  0  0  0  0
 18 19  1  0  0  0  0
 20 21  1  0  0  0  0
 20 31  1  0  0  0  0
M  END
$$$$
