
 OpenBabel07202414153D

 48 51  0  0  0  0  0  0  0  0999 V2000
    2.3604    0.6633    0.6328 C   0  0  0  0  0  0  0  0  0  0  0  0
    3.4309    0.2588   -0.2177 O   0  0  0  0  0  0  0  0  0  0  0  0
    3.7337   -1.0760   -0.2140 C   0  0  0  0  0  0  0  0  0  0  0  0
    3.0701   -2.0552    0.5064 C   0  0  0  0  0  0  0  0  0  0  0  0
    3.5057   -3.3837    0.4405 C   0  0  0  0  0  0  0  0  0  0  0  0
    4.6120   -3.7797   -0.3350 C   0  0  0  0  0  0  0  0  0  0  0  0
    5.0184   -5.1104   -0.2685 N   0  0  0  0  0  0  0  0  0  0  0  0
    5.8405   -5.7676   -1.3132 C   0  0  0  0  0  0  0  0  0  0  0  0
    5.8196   -7.3327   -1.1253 C   0  0  0  0  0  0  0  0  0  0  0  0
    6.0307   -7.7331    0.2826 N   0  0  0  0  0  0  0  0  0  0  0  0
    7.1038   -8.4509    0.8059 C   0  0  0  0  0  0  0  0  0  0  0  0
    7.4955   -8.2892    1.9583 O   0  0  0  0  0  0  0  0  0  0  0  0
    7.5593   -9.6287    0.0227 C   0  0  0  0  0  0  0  0  0  0  0  0
    7.4960  -10.7755    0.7346 C   0  0  0  0  0  0  0  0  0  0  0  0
    7.6358  -12.0923    0.0536 C   0  0  0  0  0  0  0  0  0  0  0  0
    7.0786  -13.0830    0.4372 O   0  0  0  0  0  0  0  0  0  0  0  0
    8.4777  -12.0398   -1.0364 N   0  0  0  0  0  0  0  0  0  0  0  0
    9.2230  -10.8957   -1.3092 C   0  0  0  0  0  0  0  0  0  0  0  0
   10.4995  -11.0057   -1.8333 C   0  0  0  0  0  0  0  0  0  0  0  0
   11.2650   -9.8558   -2.0204 C   0  0  0  0  0  0  0  0  0  0  0  0
   10.7040   -8.5955   -1.7895 C   0  0  0  0  0  0  0  0  0  0  0  0
    9.4198   -8.4785   -1.2483 C   0  0  0  0  0  0  0  0  0  0  0  0
    8.6975   -9.6331   -0.9207 C   0  0  0  0  0  0  0  0  0  0  0  0
    5.1807   -7.0124    1.2273 C   0  0  0  0  0  0  0  0  0  0  0  0
    5.4174   -5.5135    1.1002 C   0  0  0  0  0  0  0  0  0  0  0  0
    5.2346   -2.7913   -1.0915 C   0  0  0  0  0  0  0  0  0  0  0  0
    4.8117   -1.4513   -1.0228 C   0  0  0  0  0  0  0  0  0  0  0  0
    2.2507    1.7480    0.5502 H   0  0  0  0  0  0  0  0  0  0  0  0
    2.5743    0.4338    1.6851 H   0  0  0  0  0  0  0  0  0  0  0  0
    1.4164    0.2082    0.3195 H   0  0  0  0  0  0  0  0  0  0  0  0
    2.2151   -1.8358    1.1393 H   0  0  0  0  0  0  0  0  0  0  0  0
    2.9525   -4.1312    1.0055 H   0  0  0  0  0  0  0  0  0  0  0  0
    6.8756   -5.4126   -1.2451 H   0  0  0  0  0  0  0  0  0  0  0  0
    5.4578   -5.5290   -2.3116 H   0  0  0  0  0  0  0  0  0  0  0  0
    6.5605   -7.7949   -1.7864 H   0  0  0  0  0  0  0  0  0  0  0  0
    4.8302   -7.7099   -1.4152 H   0  0  0  0  0  0  0  0  0  0  0  0
    7.6257  -10.7727    1.8098 H   0  0  0  0  0  0  0  0  0  0  0  0
    8.6485  -12.9121   -1.5125 H   0  0  0  0  0  0  0  0  0  0  0  0
   10.9551  -11.9828   -1.9760 H   0  0  0  0  0  0  0  0  0  0  0  0
   12.3096   -9.9378   -2.3186 H   0  0  0  0  0  0  0  0  0  0  0  0
   11.2969   -7.7040   -1.9706 H   0  0  0  0  0  0  0  0  0  0  0  0
    9.0335   -7.4902   -1.0140 H   0  0  0  0  0  0  0  0  0  0  0  0
    5.3545   -7.3371    2.2574 H   0  0  0  0  0  0  0  0  0  0  0  0
    4.1393   -7.2569    0.9758 H   0  0  0  0  0  0  0  0  0  0  0  0
    6.4782   -5.2747    1.2565 H   0  0  0  0  0  0  0  0  0  0  0  0
    4.8476   -5.0069    1.8871 H   0  0  0  0  0  0  0  0  0  0  0  0
    6.0928   -3.0275   -1.7160 H   0  0  0  0  0  0  0  0  0  0  0  0
    5.3350   -0.6904   -1.5975 H   0  0  0  0  0  0  0  0  0  0  0  0
  1  2  1  0  0  0  0
  1 28  1  0  0  0  0
  1 29  1  0  0  0  0
  1 30  1  0  0  0  0
  2  3  1  0  0  0  0
  3  4  1  0  0  0  0
  3 27  2  0  0  0  0
  4  5  2  0  0  0  0
  4 31  1  0  0  0  0
  5  6  1  0  0  0  0
  5 32  1  0  0  0  0
  6  7  1  0  0  0  0
  6 26  2  0  0  0  0
  7  8  1  0  0  0  0
  7 25  1  0  0  0  0
  8  9  1  0  0  0  0
  8 33  1  0  0  0  0
  8 34  1  0  0  0  0
  9 10  1  0  0  0  0
  9 35  1  0  0  0  0
  9 36  1  0  0  0  0
 10 11  1  0  0  0  0
 10 24  1  0  0  0  0
 11 12  2  0  0  0  0
 11 13  1  0  0  0  0
 13 14  2  0  0  0  0
 13 23  1  0  0  0  0
 14 15  1  0  0  0  0
 14 37  1  0  0  0  0
 15 16  2  0  0  0  0
 15 17  1  0  0  0  0
 17 18  1  0  0  0  0
 17 38  1  0  0  0  0
 18 19  1  0  0  0  0
 18 23  2  0  0  0  0
 19 20  2  0  0  0  0
 19 39  1  0  0  0  0
 20 21  1  0  0  0  0
 20 40  1  0  0  0  0
 21 22  2  0  0  0  0
 21 41  1  0  0  0  0
 22 23  1  0  0  0  0
 22 42  1  0  0  0  0
 24 25  1  0  0  0  0
 24 43  1  0  0  0  0
 24 44  1  0  0  0  0
 25 45  1  0  0  0  0
 25 46  1  0  0  0  0
 26 27  1  0  0  0  0
 26 47  1  0  0  0  0
 27 48  1  0  0  0  0
M  END
$$$$
