
 OpenBabel07202414123D

 76 78  0  0  1  0  0  0  0  0999 V2000
    1.2444    4.5708    2.7060 C   0  0  0  0  0  0  0  0  0  0  0  0
    2.2015    4.5586    3.9080 C   0  0  0  0  0  0  0  0  0  0  0  0
    2.2653    5.9195    4.6161 C   0  0  0  0  0  0  0  0  0  0  0  0
    1.6790    3.5198    4.9130 C   0  0  0  0  0  0  0  0  0  0  0  0
    3.5270    4.1080    3.5166 O   0  0  0  0  0  0  0  0  0  0  0  0
    4.1926    4.8252    2.5791 C   0  0  0  0  0  0  0  0  0  0  0  0
    3.7996    5.8617    2.0524 O   0  0  0  0  0  0  0  0  0  0  0  0
    5.3934    4.2473    2.2769 N   0  0  0  0  0  0  0  0  0  0  0  0
    6.2743    4.9575    1.3849 C   0  0  0  0  0  0  0  0  0  0  0  0
    7.5931    4.2563    1.1225 C   0  0  0  0  0  0  0  0  0  0  0  0
    8.4821    5.1092    0.2106 C   0  0  0  0  0  0  0  0  0  0  0  0
    8.7679    6.4400    0.7317 N   0  0  0  0  0  0  0  0  0  0  0  0
    9.5029    6.6192    1.8936 C   0  0  0  0  0  0  0  0  0  0  0  0
    9.8928    5.6494    2.5431 O   0  0  0  0  0  0  0  0  0  0  0  0
    9.8711    8.0972    2.2528 C   0  0  3  0  0  0  0  0  0  0  0  0
    9.4374    8.4256    3.6500 N   0  0  0  0  0  0  0  0  0  0  0  0
    8.5193    9.4368    4.0287 C   0  0  0  0  0  0  0  0  0  0  0  0
    8.2445    9.6448    5.2150 O   0  0  0  0  0  0  0  0  0  0  0  0
    7.8932   10.3427    3.0611 C   0  0  0  0  0  0  0  0  0  0  0  0
    7.0650   11.3813    3.4546 C   0  0  0  0  0  0  0  0  0  0  0  0
    6.6550   12.0613    2.3547 O   0  0  0  0  0  0  0  0  0  0  0  0
    7.2510   11.3981    1.3308 C   0  0  0  0  0  0  0  0  0  0  0  0
    7.9945   10.3703    1.6823 N   0  0  0  0  0  0  0  0  0  0  0  0
    9.9440    7.6035    4.7254 C   0  0  0  0  0  0  0  0  0  0  0  0
    9.0520    7.0307    5.6373 C   0  0  0  0  0  0  0  0  0  0  0  0
    9.5085    6.3256    6.7560 C   0  0  0  0  0  0  0  0  0  0  0  0
   10.8772    6.1613    7.0097 C   0  0  0  0  0  0  0  0  0  0  0  0
   11.4059    5.4170    8.2453 C   0  0  0  0  0  0  0  0  0  0  0  0
   10.2771    4.8465    9.1323 C   0  0  0  0  0  0  0  0  0  0  0  0
   12.2933    4.2357    7.8006 C   0  0  0  0  0  0  0  0  0  0  0  0
   12.2456    6.3645    9.1297 C   0  0  0  0  0  0  0  0  0  0  0  0
   11.7658    6.7097    6.0720 C   0  0  0  0  0  0  0  0  0  0  0  0
   11.3084    7.4084    4.9465 C   0  0  0  0  0  0  0  0  0  0  0  0
   11.3374    8.4154    1.9671 C   0  0  0  0  0  0  0  0  0  0  0  0
   11.8867    9.6572    2.3174 C   0  0  0  0  0  0  0  0  0  0  0  0
   13.2525    9.8832    2.1602 C   0  0  0  0  0  0  0  0  0  0  0  0
   14.0279    8.8775    1.6113 C   0  0  0  0  0  0  0  0  0  0  0  0
   13.5330    7.6930    1.2054 N   0  0  0  0  0  0  0  0  0  0  0  0
   12.2094    7.4856    1.3948 C   0  0  0  0  0  0  0  0  0  0  0  0
    0.2236    4.8213    3.0109 H   0  0  0  0  0  0  0  0  0  0  0  0
    1.2336    3.5908    2.2152 H   0  0  0  0  0  0  0  0  0  0  0  0
    1.5374    5.2941    1.9406 H   0  0  0  0  0  0  0  0  0  0  0  0
    1.2769    6.2304    4.9706 H   0  0  0  0  0  0  0  0  0  0  0  0
    2.6431    6.7134    3.9660 H   0  0  0  0  0  0  0  0  0  0  0  0
    2.9445    5.8766    5.4755 H   0  0  0  0  0  0  0  0  0  0  0  0
    0.6700    3.7718    5.2589 H   0  0  0  0  0  0  0  0  0  0  0  0
    2.3355    3.4502    5.7875 H   0  0  0  0  0  0  0  0  0  0  0  0
    1.6488    2.5205    4.4640 H   0  0  0  0  0  0  0  0  0  0  0  0
    5.7155    3.5049    2.8816 H   0  0  0  0  0  0  0  0  0  0  0  0
    6.4420    5.9494    1.8209 H   0  0  0  0  0  0  0  0  0  0  0  0
    5.7379    5.1046    0.4391 H   0  0  0  0  0  0  0  0  0  0  0  0
    7.4137    3.2828    0.6497 H   0  0  0  0  0  0  0  0  0  0  0  0
    8.0951    4.0451    2.0725 H   0  0  0  0  0  0  0  0  0  0  0  0
    8.0035    5.2409   -0.7668 H   0  0  0  0  0  0  0  0  0  0  0  0
    9.4379    4.5990    0.0468 H   0  0  0  0  0  0  0  0  0  0  0  0
    8.4280    7.2458    0.2176 H   0  0  0  0  0  0  0  0  0  0  0  0
    9.3193    8.7045    1.5434 H   0  0  0  0  0  0  0  0  0  0  0  0
    6.7111   11.7398    4.4119 H   0  0  0  0  0  0  0  0  0  0  0  0
    7.0569   11.7815    0.3393 H   0  0  0  0  0  0  0  0  0  0  0  0
    7.9783    7.1298    5.4964 H   0  0  0  0  0  0  0  0  0  0  0  0
    8.7512    5.9249    7.4225 H   0  0  0  0  0  0  0  0  0  0  0  0
    9.6548    4.1335    8.5787 H   0  0  0  0  0  0  0  0  0  0  0  0
    9.6258    5.6433    9.5122 H   0  0  0  0  0  0  0  0  0  0  0  0
   10.6809    4.3190   10.0032 H   0  0  0  0  0  0  0  0  0  0  0  0
   11.7399    3.5483    7.1506 H   0  0  0  0  0  0  0  0  0  0  0  0
   12.6517    3.6653    8.6652 H   0  0  0  0  0  0  0  0  0  0  0  0
   13.1795    4.5694    7.2492 H   0  0  0  0  0  0  0  0  0  0  0  0
   11.6451    7.2056    9.4953 H   0  0  0  0  0  0  0  0  0  0  0  0
   13.1062    6.7810    8.5949 H   0  0  0  0  0  0  0  0  0  0  0  0
   12.6386    5.8333   10.0055 H   0  0  0  0  0  0  0  0  0  0  0  0
   12.8420    6.6186    6.2069 H   0  0  0  0  0  0  0  0  0  0  0  0
   12.0669    7.8382    4.3072 H   0  0  0  0  0  0  0  0  0  0  0  0
   11.2694   10.4299    2.7694 H   0  0  0  0  0  0  0  0  0  0  0  0
   13.7060   10.8141    2.4807 H   0  0  0  0  0  0  0  0  0  0  0  0
   15.1001    8.9961    1.4864 H   0  0  0  0  0  0  0  0  0  0  0  0
   11.8881    6.4942    1.0841 H   0  0  0  0  0  0  0  0  0  0  0  0
  1  2  1  0  0  0  0
  1 40  1  0  0  0  0
  1 41  1  0  0  0  0
  1 42  1  0  0  0  0
  2  3  1  0  0  0  0
  2  4  1  0  0  0  0
  2  5  1  0  0  0  0
  3 43  1  0  0  0  0
  3 44  1  0  0  0  0
  3 45  1  0  0  0  0
  4 46  1  0  0  0  0
  4 47  1  0  0  0  0
  4 48  1  0  0  0  0
  5  6  1  0  0  0  0
  6  7  2  0  0  0  0
  6  8  1  0  0  0  0
  8  9  1  0  0  0  0
  8 49  1  0  0  0  0
  9 10  1  0  0  0  0
  9 50  1  0  0  0  0
  9 51  1  0  0  0  0
 10 11  1  0  0  0  0
 10 52  1  0  0  0  0
 10 53  1  0  0  0  0
 11 12  1  0  0  0  0
 11 54  1  0  0  0  0
 11 55  1  0  0  0  0
 12 13  1  0  0  0  0
 12 56  1  0  0  0  0
 13 14  2  0  0  0  0
 13 15  1  0  0  0  0
 15 16  1  0  0  0  0
 15 34  1  0  0  0  0
 15 57  1  0  0  0  0
 16 17  1  0  0  0  0
 16 24  1  0  0  0  0
 17 18  2  0  0  0  0
 17 19  1  0  0  0  0
 19 20  2  0  0  0  0
 19 23  1  0  0  0  0
 20 21  1  0  0  0  0
 20 58  1  0  0  0  0
 21 22  1  0  0  0  0
 22 23  2  0  0  0  0
 22 59  1  0  0  0  0
 24 25  1  0  0  0  0
 24 33  2  0  0  0  0
 25 26  2  0  0  0  0
 25 60  1  0  0  0  0
 26 27  1  0  0  0  0
 26 61  1  0  0  0  0
 27 28  1  0  0  0  0
 27 32  2  0  0  0  0
 28 29  1  0  0  0  0
 28 30  1  0  0  0  0
 28 31  1  0  0  0  0
 29 62  1  0  0  0  0
 29 63  1  0  0  0  0
 29 64  1  0  0  0  0
 30 65  1  0  0  0  0
 30 66  1  0  0  0  0
 30 67  1  0  0  0  0
 31 68  1  0  0  0  0
 31 69  1  0  0  0  0
 31 70  1  0  0  0  0
 32 33  1  0  0  0  0
 32 71  1  0  0  0  0
 33 72  1  0  0  0  0
 34 35  1  0  0  0  0
 34 39  2  0  0  0  0
 35 36  2  0  0  0  0
 35 73  1  0  0  0  0
 36 37  1  0  0  0  0
 36 74  1  0  0  0  0
 37 38  2  0  0  0  0
 37 75  1  0  0  0  0
 38 39  1  0  0  0  0
 39 76  1  0  0  0  0
M  END
$$$$
