
 OpenBabel07202414153D

 40 42  0  0  0  0  0  0  0  0999 V2000
    1.8134   -1.2019   -0.3403 C   0  0  0  0  0  0  0  0  0  0  0  0
    2.9516   -0.3693   -0.1486 O   0  0  0  0  0  0  0  0  0  0  0  0
    3.4214   -0.2527    1.1308 C   0  0  0  0  0  0  0  0  0  0  0  0
    2.8614   -0.8529    2.2578 C   0  0  0  0  0  0  0  0  0  0  0  0
    3.4524   -0.6757    3.5129 C   0  0  0  0  0  0  0  0  0  0  0  0
    4.6106    0.0925    3.6510 C   0  0  0  0  0  0  0  0  0  0  0  0
    5.1879    0.6888    2.5219 C   0  0  0  0  0  0  0  0  0  0  0  0
    4.5723    0.5247    1.2704 C   0  0  0  0  0  0  0  0  0  0  0  0
    6.4362    1.5026    2.5853 C   0  0  0  0  0  0  0  0  0  0  0  0
    6.5646    2.4171    1.7714 O   0  0  0  0  0  0  0  0  0  0  0  0
    7.3745    1.0964    3.5003 N   0  0  0  0  0  0  0  0  0  0  0  0
    8.6096    1.6807    3.6339 C   0  0  0  0  0  0  0  0  0  0  0  0
    8.9521    2.9302    3.1804 N   0  0  0  0  0  0  0  0  0  0  0  0
   10.2135    3.0343    3.5103 C   0  0  0  0  0  0  0  0  0  0  0  0
   10.6203    1.8828    4.1074 N   0  0  0  0  0  0  0  0  0  0  0  0
    9.5916    1.0305    4.2720 N   0  0  0  0  0  0  0  0  0  0  0  0
   11.3285    4.3306    3.2802 S   0  0  0  0  0  0  0  0  0  0  0  0
   10.2556    5.7937    3.3844 C   0  0  0  0  0  0  0  0  0  0  0  0
   11.0386    7.0851    3.2142 C   0  0  0  0  0  0  0  0  0  0  0  0
   11.2235    7.6380    1.9368 C   0  0  0  0  0  0  0  0  0  0  0  0
   11.9096    8.8456    1.7648 C   0  0  0  0  0  0  0  0  0  0  0  0
   12.4180    9.5189    2.8742 C   0  0  0  0  0  0  0  0  0  0  0  0
   12.2687    8.9781    4.1483 C   0  0  0  0  0  0  0  0  0  0  0  0
   11.5940    7.7618    4.3172 C   0  0  0  0  0  0  0  0  0  0  0  0
   13.2292   11.0221    2.6681 Cl  0  0  0  0  0  0  0  0  0  0  0  0
    1.6142   -1.2563   -1.4145 H   0  0  0  0  0  0  0  0  0  0  0  0
    0.9317   -0.7707    0.1455 H   0  0  0  0  0  0  0  0  0  0  0  0
    1.9977   -2.2227    0.0117 H   0  0  0  0  0  0  0  0  0  0  0  0
    1.9722   -1.4698    2.1933 H   0  0  0  0  0  0  0  0  0  0  0  0
    3.0020   -1.1472    4.3842 H   0  0  0  0  0  0  0  0  0  0  0  0
    5.0328    0.2314    4.6414 H   0  0  0  0  0  0  0  0  0  0  0  0
    5.0096    0.9936    0.3883 H   0  0  0  0  0  0  0  0  0  0  0  0
    7.2926    0.2131    3.9780 H   0  0  0  0  0  0  0  0  0  0  0  0
   11.5465    1.6343    4.4303 H   0  0  0  0  0  0  0  0  0  0  0  0
    9.7459    5.8022    4.3553 H   0  0  0  0  0  0  0  0  0  0  0  0
    9.4754    5.7399    2.6155 H   0  0  0  0  0  0  0  0  0  0  0  0
   10.8260    7.1282    1.0588 H   0  0  0  0  0  0  0  0  0  0  0  0
   12.0397    9.2550    0.7673 H   0  0  0  0  0  0  0  0  0  0  0  0
   12.6710    9.5002    5.0126 H   0  0  0  0  0  0  0  0  0  0  0  0
   11.5022    7.3546    5.3221 H   0  0  0  0  0  0  0  0  0  0  0  0
  1  2  1  0  0  0  0
  1 26  1  0  0  0  0
  1 27  1  0  0  0  0
  1 28  1  0  0  0  0
  2  3  1  0  0  0  0
  3  4  1  0  0  0  0
  3  8  2  0  0  0  0
  4  5  2  0  0  0  0
  4 29  1  0  0  0  0
  5  6  1  0  0  0  0
  5 30  1  0  0  0  0
  6  7  2  0  0  0  0
  6 31  1  0  0  0  0
  7  8  1  0  0  0  0
  7  9  1  0  0  0  0
  8 32  1  0  0  0  0
  9 10  2  0  0  0  0
  9 11  1  0  0  0  0
 11 12  1  0  0  0  0
 11 33  1  0  0  0  0
 12 13  1  0  0  0  0
 12 16  2  0  0  0  0
 13 14  2  0  0  0  0
 14 15  1  0  0  0  0
 14 17  1  0  0  0  0
 15 16  1  0  0  0  0
 15 34  1  0  0  0  0
 17 18  1  0  0  0  0
 18 19  1  0  0  0  0
 18 35  1  0  0  0  0
 18 36  1  0  0  0  0
 19 20  1  0  0  0  0
 19 24  2  0  0  0  0
 20 21  2  0  0  0  0
 20 37  1  0  0  0  0
 21 22  1  0  0  0  0
 21 38  1  0  0  0  0
 22 23  2  0  0  0  0
 22 25  1  0  0  0  0
 23 24  1  0  0  0  0
 23 39  1  0  0  0  0
 24 40  1  0  0  0  0
M  END
$$$$
