
 OpenBabel07202414123D

 61 64  0  0  1  0  0  0  0  0999 V2000
    1.8709   -0.0413    0.7349 C   0  0  0  0  0  0  0  0  0  0  0  0
    3.1561   -0.8850    0.5746 C   0  0  0  0  0  0  0  0  0  0  0  0
    4.2969   -0.1251    1.2801 C   0  0  0  0  0  0  0  0  0  0  0  0
    2.9151   -2.2214    1.3155 C   0  0  0  0  0  0  0  0  0  0  0  0
    3.5105   -1.1779   -0.8949 C   0  0  0  0  0  0  0  0  0  0  0  0
    2.6822   -0.7864   -1.9617 C   0  0  0  0  0  0  0  0  0  0  0  0
    2.9130   -1.2325   -3.2664 C   0  0  0  0  0  0  0  0  0  0  0  0
    3.9980   -2.0643   -3.5358 C   0  0  0  0  0  0  0  0  0  0  0  0
    4.0834   -2.6854   -4.8045 N   0  0  0  0  0  0  0  0  0  0  0  0
    3.8099   -4.1468   -4.8971 C   0  0  3  0  0  0  0  0  0  0  0  0
    5.1226   -4.9382   -4.6270 C   0  0  0  0  0  0  0  0  0  0  0  0
    5.4837   -5.2925   -3.5019 O   0  0  0  0  0  0  0  0  0  0  0  0
    5.9226   -5.1721   -5.7304 N   0  0  0  0  0  0  0  0  0  0  0  0
    7.2130   -5.8275   -5.5467 C   0  0  3  0  0  0  0  0  0  0  0  0
    8.3137   -4.8297   -5.2589 C   0  0  0  0  0  0  0  0  0  0  0  0
    8.8494   -4.4910   -6.6341 C   0  0  0  0  0  0  0  0  0  0  0  0
    8.5308   -5.5767   -7.5129 O   0  0  0  0  0  0  0  0  0  0  0  0
    7.7139   -6.5179   -6.8039 C   0  0  0  0  0  0  0  0  0  0  0  0
    2.6387   -4.7545   -4.1146 C   0  0  0  0  0  0  0  0  0  0  0  0
    1.5347   -5.3062   -4.7860 C   0  0  0  0  0  0  0  0  0  0  0  0
    0.6374   -6.1343   -4.1062 C   0  0  0  0  0  0  0  0  0  0  0  0
    0.8433   -6.3648   -2.7585 C   0  0  0  0  0  0  0  0  0  0  0  0
    1.8308   -5.7849   -2.0540 N   0  0  0  0  0  0  0  0  0  0  0  0
    2.6986   -5.0009   -2.7421 C   0  0  0  0  0  0  0  0  0  0  0  0
    4.7515   -2.1016   -5.9024 C   0  0  0  0  0  0  0  0  0  0  0  0
    4.9507   -2.7627   -6.9236 O   0  0  0  0  0  0  0  0  0  0  0  0
    5.2564   -0.7214   -5.8460 C   0  0  0  0  0  0  0  0  0  0  0  0
    5.9214   -0.1026   -6.8900 C   0  0  0  0  0  0  0  0  0  0  0  0
    6.2649    1.1562   -6.5051 O   0  0  0  0  0  0  0  0  0  0  0  0
    5.7900    1.2480   -5.2363 C   0  0  0  0  0  0  0  0  0  0  0  0
    5.1794    0.1687   -4.7953 N   0  0  0  0  0  0  0  0  0  0  0  0
    4.9086   -2.3526   -2.5212 C   0  0  0  0  0  0  0  0  0  0  0  0
    4.6577   -1.9263   -1.2145 C   0  0  0  0  0  0  0  0  0  0  0  0
    1.6405    0.1375    1.7908 H   0  0  0  0  0  0  0  0  0  0  0  0
    1.0006   -0.5472    0.2988 H   0  0  0  0  0  0  0  0  0  0  0  0
    1.9721    0.9373    0.2514 H   0  0  0  0  0  0  0  0  0  0  0  0
    4.0533    0.0501    2.3355 H   0  0  0  0  0  0  0  0  0  0  0  0
    4.4708    0.8507    0.8134 H   0  0  0  0  0  0  0  0  0  0  0  0
    5.2422   -0.6773    1.2599 H   0  0  0  0  0  0  0  0  0  0  0  0
    2.7088   -2.0504    2.3789 H   0  0  0  0  0  0  0  0  0  0  0  0
    3.7803   -2.8913    1.2602 H   0  0  0  0  0  0  0  0  0  0  0  0
    2.0572   -2.7593    0.8944 H   0  0  0  0  0  0  0  0  0  0  0  0
    1.8094   -0.1610   -1.8027 H   0  0  0  0  0  0  0  0  0  0  0  0
    2.2216   -0.9533   -4.0556 H   0  0  0  0  0  0  0  0  0  0  0  0
    3.5621   -4.3364   -5.9523 H   0  0  0  0  0  0  0  0  0  0  0  0
    5.7620   -4.6189   -6.5705 H   0  0  0  0  0  0  0  0  0  0  0  0
    7.1080   -6.5526   -4.7329 H   0  0  0  0  0  0  0  0  0  0  0  0
    9.1021   -5.3153   -4.6744 H   0  0  0  0  0  0  0  0  0  0  0  0
    7.9940   -3.9366   -4.7079 H   0  0  0  0  0  0  0  0  0  0  0  0
    9.9329   -4.3390   -6.6233 H   0  0  0  0  0  0  0  0  0  0  0  0
    8.3788   -3.5886   -7.0374 H   0  0  0  0  0  0  0  0  0  0  0  0
    8.3505   -7.3709   -6.5423 H   0  0  0  0  0  0  0  0  0  0  0  0
    6.9112   -6.8705   -7.4579 H   0  0  0  0  0  0  0  0  0  0  0  0
    1.3944   -5.1568   -5.8541 H   0  0  0  0  0  0  0  0  0  0  0  0
   -0.1812   -6.6242   -4.6226 H   0  0  0  0  0  0  0  0  0  0  0  0
    0.2161   -7.0516   -2.1973 H   0  0  0  0  0  0  0  0  0  0  0  0
    3.5085   -4.6247   -2.1250 H   0  0  0  0  0  0  0  0  0  0  0  0
    6.2125   -0.3986   -7.8860 H   0  0  0  0  0  0  0  0  0  0  0  0
    5.9543    2.1830   -4.7200 H   0  0  0  0  0  0  0  0  0  0  0  0
    5.7935   -2.9523   -2.7148 H   0  0  0  0  0  0  0  0  0  0  0  0
    5.3526   -2.2391   -0.4369 H   0  0  0  0  0  0  0  0  0  0  0  0
  1  2  1  0  0  0  0
  1 34  1  0  0  0  0
  1 35  1  0  0  0  0
  1 36  1  0  0  0  0
  2  3  1  0  0  0  0
  2  4  1  0  0  0  0
  2  5  1  0  0  0  0
  3 37  1  0  0  0  0
  3 38  1  0  0  0  0
  3 39  1  0  0  0  0
  4 40  1  0  0  0  0
  4 41  1  0  0  0  0
  4 42  1  0  0  0  0
  5  6  1  0  0  0  0
  5 33  2  0  0  0  0
  6  7  2  0  0  0  0
  6 43  1  0  0  0  0
  7  8  1  0  0  0  0
  7 44  1  0  0  0  0
  8  9  1  0  0  0  0
  8 32  2  0  0  0  0
  9 10  1  0  0  0  0
  9 25  1  0  0  0  0
 10 11  1  0  0  0  0
 10 19  1  0  0  0  0
 10 45  1  0  0  0  0
 11 12  2  0  0  0  0
 11 13  1  0  0  0  0
 13 14  1  0  0  0  0
 13 46  1  0  0  0  0
 14 15  1  0  0  0  0
 14 18  1  0  0  0  0
 14 47  1  0  0  0  0
 15 16  1  0  0  0  0
 15 48  1  0  0  0  0
 15 49  1  0  0  0  0
 16 17  1  0  0  0  0
 16 50  1  0  0  0  0
 16 51  1  0  0  0  0
 17 18  1  0  0  0  0
 18 52  1  0  0  0  0
 18 53  1  0  0  0  0
 19 20  1  0  0  0  0
 19 24  2  0  0  0  0
 20 21  2  0  0  0  0
 20 54  1  0  0  0  0
 21 22  1  0  0  0  0
 21 55  1  0  0  0  0
 22 23  2  0  0  0  0
 22 56  1  0  0  0  0
 23 24  1  0  0  0  0
 24 57  1  0  0  0  0
 25 26  2  0  0  0  0
 25 27  1  0  0  0  0
 27 28  2  0  0  0  0
 27 31  1  0  0  0  0
 28 29  1  0  0  0  0
 28 58  1  0  0  0  0
 29 30  1  0  0  0  0
 30 31  2  0  0  0  0
 30 59  1  0  0  0  0
 32 33  1  0  0  0  0
 32 60  1  0  0  0  0
 33 61  1  0  0  0  0
M  END
$$$$
