
 OpenBabel07202414193D

 43 45  0  0  1  0  0  0  0  0999 V2000
    6.5739    4.6696    4.6330 N   0  0  0  0  0  0  0  0  0  0  0  0
    6.1147    3.9044    3.8950 C   0  0  0  0  0  0  0  0  0  0  0  0
    5.5446    2.9592    2.9700 C   0  0  0  0  0  0  0  0  0  0  0  0
    6.3402    2.3633    1.9874 C   0  0  0  0  0  0  0  0  0  0  0  0
    5.7875    1.4368    1.0945 C   0  0  0  0  0  0  0  0  0  0  0  0
    4.4333    1.0865    1.1714 C   0  0  0  0  0  0  0  0  0  0  0  0
    3.8387    0.1142    0.1663 C   0  0  0  0  0  0  0  0  0  0  0  0
    4.4895   -1.2208    0.1293 N   0  0  0  0  0  0  0  0  0  0  0  0
    4.1962   -1.9659    1.3617 C   0  0  0  0  0  0  0  0  0  0  0  0
    4.5843   -3.4491    1.3388 C   0  0  0  0  0  0  0  0  0  0  0  0
    4.1417   -4.2278    0.0943 C   0  0  0  0  0  0  0  0  0  0  0  0
    2.7130   -4.8550    0.0674 C   0  0  3  0  0  0  0  0  0  0  0  0
    1.5084   -3.9451    0.2517 C   0  0  0  0  0  0  0  0  0  0  0  0
    1.2148   -4.0089    1.7338 C   0  0  0  0  0  0  0  0  0  0  0  0
    1.4824   -5.3954    2.1055 N   0  0  0  0  0  0  0  0  0  0  0  0
    2.4942   -5.9095    1.1687 C   0  0  0  0  0  0  0  0  0  0  0  0
    4.4898   -3.3966   -1.1498 C   0  0  0  0  0  0  0  0  0  0  0  0
    4.0606   -1.9301   -1.0850 C   0  0  0  0  0  0  0  0  0  0  0  0
    3.6362    1.7000    2.1503 C   0  0  0  0  0  0  0  0  0  0  0  0
    4.1873    2.6284    3.0452 C   0  0  0  0  0  0  0  0  0  0  0  0
    7.3961    2.6125    1.9051 H   0  0  0  0  0  0  0  0  0  0  0  0
    6.4174    0.9847    0.3304 H   0  0  0  0  0  0  0  0  0  0  0  0
    3.9276    0.5981   -0.8160 H   0  0  0  0  0  0  0  0  0  0  0  0
    2.7595    0.0033    0.3466 H   0  0  0  0  0  0  0  0  0  0  0  0
    3.1398   -1.8666    1.6187 H   0  0  0  0  0  0  0  0  0  0  0  0
    4.7590   -1.5078    2.1854 H   0  0  0  0  0  0  0  0  0  0  0  0
    4.2359   -3.9385    2.2544 H   0  0  0  0  0  0  0  0  0  0  0  0
    5.6821   -3.5008    1.3813 H   0  0  0  0  0  0  0  0  0  0  0  0
    4.8043   -5.1065    0.0466 H   0  0  0  0  0  0  0  0  0  0  0  0
    2.6143   -5.3574   -0.9057 H   0  0  0  0  0  0  0  0  0  0  0  0
    0.6563   -4.3746   -0.2954 H   0  0  0  0  0  0  0  0  0  0  0  0
    1.6345   -2.9279   -0.1098 H   0  0  0  0  0  0  0  0  0  0  0  0
    0.1864   -3.7142    1.9622 H   0  0  0  0  0  0  0  0  0  0  0  0
    1.8730   -3.3578    2.3104 H   0  0  0  0  0  0  0  0  0  0  0  0
    0.6249   -5.9366    1.9908 H   0  0  0  0  0  0  0  0  0  0  0  0
    2.1101   -6.8358    0.7228 H   0  0  0  0  0  0  0  0  0  0  0  0
    3.4128   -6.1699    1.7025 H   0  0  0  0  0  0  0  0  0  0  0  0
    4.0750   -3.8634   -2.0512 H   0  0  0  0  0  0  0  0  0  0  0  0
    5.5817   -3.4222   -1.2754 H   0  0  0  0  0  0  0  0  0  0  0  0
    2.9787   -1.8578   -1.2278 H   0  0  0  0  0  0  0  0  0  0  0  0
    4.5106   -1.4248   -1.9499 H   0  0  0  0  0  0  0  0  0  0  0  0
    2.5752    1.4682    2.2225 H   0  0  0  0  0  0  0  0  0  0  0  0
    3.5494    3.0903    3.7960 H   0  0  0  0  0  0  0  0  0  0  0  0
  1  2  3  0  0  0  0
  2  3  1  0  0  0  0
  3  4  1  0  0  0  0
  3 20  2  0  0  0  0
  4  5  2  0  0  0  0
  4 21  1  0  0  0  0
  5  6  1  0  0  0  0
  5 22  1  0  0  0  0
  6  7  1  0  0  0  0
  6 19  2  0  0  0  0
  7  8  1  0  0  0  0
  7 23  1  0  0  0  0
  7 24  1  0  0  0  0
  8  9  1  0  0  0  0
  8 18  1  0  0  0  0
  9 10  1  0  0  0  0
  9 25  1  0  0  0  0
  9 26  1  0  0  0  0
 10 11  1  0  0  0  0
 10 27  1  0  0  0  0
 10 28  1  0  0  0  0
 11 12  1  0  0  0  0
 11 17  1  0  0  0  0
 11 29  1  0  0  0  0
 12 13  1  0  0  0  0
 12 16  1  0  0  0  0
 12 30  1  0  0  0  0
 13 14  1  0  0  0  0
 13 31  1  0  0  0  0
 13 32  1  0  0  0  0
 14 15  1  0  0  0  0
 14 33  1  0  0  0  0
 14 34  1  0  0  0  0
 15 16  1  0  0  0  0
 15 35  1  0  0  0  0
 16 36  1  0  0  0  0
 16 37  1  0  0  0  0
 17 18  1  0  0  0  0
 17 38  1  0  0  0  0
 17 39  1  0  0  0  0
 18 40  1  0  0  0  0
 18 41  1  0  0  0  0
 19 20  1  0  0  0  0
 19 42  1  0  0  0  0
 20 43  1  0  0  0  0
M  END
$$$$
