
 OpenBabel07202414193D

 34 36  0  0  0  0  0  0  0  0999 V2000
    1.1870   -0.3592   -1.5939 F   0  0  0  0  0  0  0  0  0  0  0  0
    2.5184   -0.4043   -1.4308 C   0  0  0  0  0  0  0  0  0  0  0  0
    3.3047    0.4749   -2.1665 C   0  0  0  0  0  0  0  0  0  0  0  0
    4.6864    0.4384   -2.0257 C   0  0  0  0  0  0  0  0  0  0  0  0
    5.2728   -0.4744   -1.1467 C   0  0  0  0  0  0  0  0  0  0  0  0
    4.4917   -1.3889   -0.3956 C   0  0  0  0  0  0  0  0  0  0  0  0
    5.0306   -2.3930    0.4412 C   0  0  0  0  0  0  0  0  0  0  0  0
    6.4279   -2.4712    0.6640 N   0  0  0  0  0  0  0  0  0  0  0  0
    7.1274   -3.6632    0.5612 C   0  0  0  0  0  0  0  0  0  0  0  0
    6.6288   -4.7408    0.2512 O   0  0  0  0  0  0  0  0  0  0  0  0
    8.6116   -3.5221    0.8496 C   0  0  0  0  0  0  0  0  0  0  0  0
    9.4588   -3.0684   -0.3185 C   0  0  0  0  0  0  0  0  0  0  0  0
    9.4772   -3.7807   -1.5308 C   0  0  0  0  0  0  0  0  0  0  0  0
   10.3523   -3.4235   -2.5591 C   0  0  0  0  0  0  0  0  0  0  0  0
   11.2259   -2.3461   -2.3925 C   0  0  0  0  0  0  0  0  0  0  0  0
   11.2134   -1.6323   -1.1998 C   0  0  0  0  0  0  0  0  0  0  0  0
   12.3034   -0.3153   -0.9830 Cl  0  0  0  0  0  0  0  0  0  0  0  0
   10.3356   -1.9779   -0.1681 C   0  0  0  0  0  0  0  0  0  0  0  0
    4.1513   -3.2863    1.0557 C   0  0  0  0  0  0  0  0  0  0  0  0
    2.8029   -3.2300    0.9430 N   0  0  0  0  0  0  0  0  0  0  0  0
    2.3082   -2.2657    0.1374 C   0  0  0  0  0  0  0  0  0  0  0  0
    3.0882   -1.3418   -0.5585 C   0  0  0  0  0  0  0  0  0  0  0  0
    2.8353    1.1680   -2.8567 H   0  0  0  0  0  0  0  0  0  0  0  0
    5.3137    1.1047   -2.6128 H   0  0  0  0  0  0  0  0  0  0  0  0
    6.3580   -0.4916   -1.0962 H   0  0  0  0  0  0  0  0  0  0  0  0
    6.9684   -1.6278    0.5279 H   0  0  0  0  0  0  0  0  0  0  0  0
    8.9832   -4.4942    1.1921 H   0  0  0  0  0  0  0  0  0  0  0  0
    8.7294   -2.8370    1.6969 H   0  0  0  0  0  0  0  0  0  0  0  0
    8.8259   -4.6437   -1.6665 H   0  0  0  0  0  0  0  0  0  0  0  0
   10.3682   -3.9955   -3.4821 H   0  0  0  0  0  0  0  0  0  0  0  0
   11.9230   -2.0902   -3.1867 H   0  0  0  0  0  0  0  0  0  0  0  0
   10.3666   -1.4196    0.7619 H   0  0  0  0  0  0  0  0  0  0  0  0
    4.5098   -4.0736    1.7142 H   0  0  0  0  0  0  0  0  0  0  0  0
    1.2227   -2.2645    0.0471 H   0  0  0  0  0  0  0  0  0  0  0  0
  1  2  1  0  0  0  0
  2  3  1  0  0  0  0
  2 22  2  0  0  0  0
  3  4  2  0  0  0  0
  3 23  1  0  0  0  0
  4  5  1  0  0  0  0
  4 24  1  0  0  0  0
  5  6  2  0  0  0  0
  5 25  1  0  0  0  0
  6  7  1  0  0  0  0
  6 22  1  0  0  0  0
  7  8  1  0  0  0  0
  7 19  2  0  0  0  0
  8  9  1  0  0  0  0
  8 26  1  0  0  0  0
  9 10  2  0  0  0  0
  9 11  1  0  0  0  0
 11 12  1  0  0  0  0
 11 27  1  0  0  0  0
 11 28  1  0  0  0  0
 12 13  1  0  0  0  0
 12 18  2  0  0  0  0
 13 14  2  0  0  0  0
 13 29  1  0  0  0  0
 14 15  1  0  0  0  0
 14 30  1  0  0  0  0
 15 16  2  0  0  0  0
 15 31  1  0  0  0  0
 16 17  1  0  0  0  0
 16 18  1  0  0  0  0
 18 32  1  0  0  0  0
 19 20  1  0  0  0  0
 19 33  1  0  0  0  0
 20 21  2  0  0  0  0
 21 22  1  0  0  0  0
 21 34  1  0  0  0  0
M  END
$$$$
