
 OpenBabel07202414133D

 43 46  0  0  1  0  0  0  0  0999 V2000
    1.3720   -0.0666   -0.1102 C   0  0  0  0  0  0  0  0  0  0  0  0
    2.8310   -0.0424   -0.1327 N   0  0  0  0  0  0  0  0  0  0  0  0
    3.5271   -1.3094   -0.3463 C   0  0  0  0  0  0  0  0  0  0  0  0
    4.7826   -1.3948    0.5032 C   0  0  0  0  0  0  0  0  0  0  0  0
    5.7000   -0.2046    0.2353 C   0  0  3  0  0  0  0  0  0  0  0  0
    6.4773   -0.3919   -1.0850 C   0  0  0  0  0  0  0  0  0  0  0  0
    7.5254   -1.0241   -1.0810 O   0  0  0  0  0  0  0  0  0  0  0  0
    5.8521    0.1215   -2.2048 N   0  0  0  0  0  0  0  0  0  0  0  0
    6.3859    0.2546   -3.5115 C   0  0  0  0  0  0  0  0  0  0  0  0
    7.6799   -0.1458   -3.8454 C   0  0  0  0  0  0  0  0  0  0  0  0
    8.2975    0.1509   -5.0127 N   0  0  0  0  0  0  0  0  0  0  0  0
    7.5643    0.8272   -5.9216 C   0  0  0  0  0  0  0  0  0  0  0  0
    6.2166    1.1482   -5.7715 C   0  0  0  0  0  0  0  0  0  0  0  0
    5.4847    1.7109   -6.8316 C   0  0  0  0  0  0  0  0  0  0  0  0
    4.1311    2.0009   -6.6863 C   0  0  0  0  0  0  0  0  0  0  0  0
    3.5072    1.7715   -5.4677 C   0  0  0  0  0  0  0  0  0  0  0  0
    4.2285    1.2242   -4.4027 C   0  0  0  0  0  0  0  0  0  0  0  0
    5.5999    0.8741   -4.5296 C   0  0  0  0  0  0  0  0  0  0  0  0
    4.9326    1.1050    0.3129 C   0  0  0  0  0  0  0  0  0  0  0  0
    5.6491    2.2937    0.5558 C   0  0  0  0  0  0  0  0  0  0  0  0
    4.9888    3.5162    0.5803 C   0  0  0  0  0  0  0  0  0  0  0  0
    5.8660    4.9634    0.8824 Cl  0  0  0  0  0  0  0  0  0  0  0  0
    3.6211    3.5696    0.3557 C   0  0  0  0  0  0  0  0  0  0  0  0
    2.9081    2.3867    0.1256 C   0  0  0  0  0  0  0  0  0  0  0  0
    3.5355    1.1292    0.1004 C   0  0  0  0  0  0  0  0  0  0  0  0
    0.9817   -1.0858   -0.2127 H   0  0  0  0  0  0  0  0  0  0  0  0
    0.9588    0.5190   -0.9371 H   0  0  0  0  0  0  0  0  0  0  0  0
    0.9918    0.3253    0.8399 H   0  0  0  0  0  0  0  0  0  0  0  0
    3.7604   -1.4164   -1.4113 H   0  0  0  0  0  0  0  0  0  0  0  0
    2.8812   -2.1565   -0.0867 H   0  0  0  0  0  0  0  0  0  0  0  0
    5.2998   -2.3413    0.3077 H   0  0  0  0  0  0  0  0  0  0  0  0
    4.4959   -1.3992    1.5643 H   0  0  0  0  0  0  0  0  0  0  0  0
    6.4575   -0.1900    1.0319 H   0  0  0  0  0  0  0  0  0  0  0  0
    4.9630    0.5730   -2.0468 H   0  0  0  0  0  0  0  0  0  0  0  0
    8.3022   -0.7248   -3.1729 H   0  0  0  0  0  0  0  0  0  0  0  0
    8.1131    1.1037   -6.8185 H   0  0  0  0  0  0  0  0  0  0  0  0
    5.9604    1.8920   -7.7934 H   0  0  0  0  0  0  0  0  0  0  0  0
    3.5641    2.3954   -7.5254 H   0  0  0  0  0  0  0  0  0  0  0  0
    2.4515    2.0002   -5.3458 H   0  0  0  0  0  0  0  0  0  0  0  0
    3.6803    1.0430   -3.4825 H   0  0  0  0  0  0  0  0  0  0  0  0
    6.7235    2.2603    0.7250 H   0  0  0  0  0  0  0  0  0  0  0  0
    3.0975    4.5217    0.3584 H   0  0  0  0  0  0  0  0  0  0  0  0
    1.8395    2.4795   -0.0476 H   0  0  0  0  0  0  0  0  0  0  0  0
  1  2  1  0  0  0  0
  1 26  1  0  0  0  0
  1 27  1  0  0  0  0
  1 28  1  0  0  0  0
  2  3  1  0  0  0  0
  2 25  1  0  0  0  0
  3  4  1  0  0  0  0
  3 29  1  0  0  0  0
  3 30  1  0  0  0  0
  4  5  1  0  0  0  0
  4 31  1  0  0  0  0
  4 32  1  0  0  0  0
  5  6  1  0  0  0  0
  5 19  1  0  0  0  0
  5 33  1  0  0  0  0
  6  7  2  0  0  0  0
  6  8  1  0  0  0  0
  8  9  1  0  0  0  0
  8 34  1  0  0  0  0
  9 10  1  0  0  0  0
  9 18  2  0  0  0  0
 10 11  2  0  0  0  0
 10 35  1  0  0  0  0
 11 12  1  0  0  0  0
 12 13  2  0  0  0  0
 12 36  1  0  0  0  0
 13 14  1  0  0  0  0
 13 18  1  0  0  0  0
 14 15  2  0  0  0  0
 14 37  1  0  0  0  0
 15 16  1  0  0  0  0
 15 38  1  0  0  0  0
 16 17  2  0  0  0  0
 16 39  1  0  0  0  0
 17 18  1  0  0  0  0
 17 40  1  0  0  0  0
 19 20  1  0  0  0  0
 19 25  2  0  0  0  0
 20 21  2  0  0  0  0
 20 41  1  0  0  0  0
 21 22  1  0  0  0  0
 21 23  1  0  0  0  0
 23 24  2  0  0  0  0
 23 42  1  0  0  0  0
 24 25  1  0  0  0  0
 24 43  1  0  0  0  0
M  END
$$$$
