
 OpenBabel07202414183D

 46 49  0  0  0  0  0  0  0  0999 V2000
    6.7530    4.8629    2.9151 F   0  0  0  0  0  0  0  0  0  0  0  0
    6.7285    3.7197    2.2194 C   0  0  0  0  0  0  0  0  0  0  0  0
    7.9023    3.2453    1.6459 C   0  0  0  0  0  0  0  0  0  0  0  0
    7.8821    2.0500    0.9000 C   0  0  0  0  0  0  0  0  0  0  0  0
    9.3644    1.6146    0.1199 Cl  0  0  0  0  0  0  0  0  0  0  0  0
    6.6911    1.3358    0.7248 C   0  0  0  0  0  0  0  0  0  0  0  0
    6.5665    0.1375   -0.0109 N   0  0  0  0  0  0  0  0  0  0  0  0
    7.3347   -1.0492    0.0169 C   0  0  0  0  0  0  0  0  0  0  0  0
    7.2643   -1.9019   -1.0923 C   0  0  0  0  0  0  0  0  0  0  0  0
    8.0191   -3.0696   -1.1382 C   0  0  0  0  0  0  0  0  0  0  0  0
    7.9438   -4.0814   -2.5280 Cl  0  0  0  0  0  0  0  0  0  0  0  0
    8.8456   -3.4195   -0.0802 C   0  0  0  0  0  0  0  0  0  0  0  0
    8.9246   -2.5926    1.0545 C   0  0  0  0  0  0  0  0  0  0  0  0
    9.9036   -2.9344    2.1542 C   0  0  0  0  0  0  0  0  0  0  0  0
    9.4028   -2.9191    3.5808 C   0  0  0  0  0  0  0  0  0  0  0  0
   10.1704   -2.5066    4.4642 O   0  0  0  0  0  0  0  0  0  0  0  0
    8.2041   -3.5384    3.8128 N   0  0  0  0  0  0  0  0  0  0  0  0
    7.5123   -3.6881    5.0424 C   0  0  0  0  0  0  0  0  0  0  0  0
    6.7993   -4.8885    5.1714 C   0  0  0  0  0  0  0  0  0  0  0  0
    5.9388   -5.1899    6.1621 N   0  0  0  0  0  0  0  0  0  0  0  0
    5.7100   -4.2036    7.0466 C   0  0  0  0  0  0  0  0  0  0  0  0
    6.3547   -2.9708    7.0456 C   0  0  0  0  0  0  0  0  0  0  0  0
    5.9974   -2.0141    8.0079 C   0  0  0  0  0  0  0  0  0  0  0  0
    6.8477   -0.9567    8.2870 C   0  0  0  0  0  0  0  0  0  0  0  0
    7.9387   -0.7372    7.4639 C   0  0  0  0  0  0  0  0  0  0  0  0
    8.1226   -1.5310    6.3220 C   0  0  0  0  0  0  0  0  0  0  0  0
    7.3770   -2.7231    6.0961 C   0  0  0  0  0  0  0  0  0  0  0  0
    8.1720   -1.4040    1.0849 C   0  0  0  0  0  0  0  0  0  0  0  0
    5.5289    1.8643    1.3234 C   0  0  0  0  0  0  0  0  0  0  0  0
    4.3636    1.2103    1.1718 F   0  0  0  0  0  0  0  0  0  0  0  0
    5.5328    3.0424    2.0665 C   0  0  0  0  0  0  0  0  0  0  0  0
    8.8181    3.8165    1.7690 H   0  0  0  0  0  0  0  0  0  0  0  0
    5.5915   -0.0724   -0.2282 H   0  0  0  0  0  0  0  0  0  0  0  0
    6.6408   -1.6294   -1.9382 H   0  0  0  0  0  0  0  0  0  0  0  0
    9.4502   -4.3210   -0.1444 H   0  0  0  0  0  0  0  0  0  0  0  0
   10.7391   -2.2271    2.0825 H   0  0  0  0  0  0  0  0  0  0  0  0
   10.3230   -3.9400    1.9843 H   0  0  0  0  0  0  0  0  0  0  0  0
    7.8857   -4.1438    3.0569 H   0  0  0  0  0  0  0  0  0  0  0  0
    6.9318   -5.6942    4.4548 H   0  0  0  0  0  0  0  0  0  0  0  0
    5.0027   -4.4637    7.8322 H   0  0  0  0  0  0  0  0  0  0  0  0
    5.0676   -2.1133    8.5694 H   0  0  0  0  0  0  0  0  0  0  0  0
    6.6643   -0.3198    9.1469 H   0  0  0  0  0  0  0  0  0  0  0  0
    8.6382    0.0632    7.6890 H   0  0  0  0  0  0  0  0  0  0  0  0
    8.9143   -1.2203    5.6511 H   0  0  0  0  0  0  0  0  0  0  0  0
    8.2438   -0.7467    1.9505 H   0  0  0  0  0  0  0  0  0  0  0  0
    4.6198    3.4224    2.5078 H   0  0  0  0  0  0  0  0  0  0  0  0
  1  2  1  0  0  0  0
  2  3  2  0  0  0  0
  2 31  1  0  0  0  0
  3  4  1  0  0  0  0
  3 32  1  0  0  0  0
  4  5  1  0  0  0  0
  4  6  2  0  0  0  0
  6  7  1  0  0  0  0
  6 29  1  0  0  0  0
  7  8  1  0  0  0  0
  7 33  1  0  0  0  0
  8  9  2  0  0  0  0
  8 28  1  0  0  0  0
  9 10  1  0  0  0  0
  9 34  1  0  0  0  0
 10 11  1  0  0  0  0
 10 12  2  0  0  0  0
 12 13  1  0  0  0  0
 12 35  1  0  0  0  0
 13 14  1  0  0  0  0
 13 28  2  0  0  0  0
 14 15  1  0  0  0  0
 14 36  1  0  0  0  0
 14 37  1  0  0  0  0
 15 16  2  0  0  0  0
 15 17  1  0  0  0  0
 17 18  1  0  0  0  0
 17 38  1  0  0  0  0
 18 19  2  0  0  0  0
 18 27  1  0  0  0  0
 19 20  1  0  0  0  0
 19 39  1  0  0  0  0
 20 21  2  0  0  0  0
 21 22  1  0  0  0  0
 21 40  1  0  0  0  0
 22 23  2  0  0  0  0
 22 27  1  0  0  0  0
 23 24  1  0  0  0  0
 23 41  1  0  0  0  0
 24 25  2  0  0  0  0
 24 42  1  0  0  0  0
 25 26  1  0  0  0  0
 25 43  1  0  0  0  0
 26 27  2  0  0  0  0
 26 44  1  0  0  0  0
 28 45  1  0  0  0  0
 29 30  1  0  0  0  0
 29 31  2  0  0  0  0
 31 46  1  0  0  0  0
M  END
$$$$
