
 OpenBabel07202414143D

 53 56  0  0  0  0  0  0  0  0999 V2000
    1.9146    4.1630    6.5107 C   0  0  0  0  0  0  0  0  0  0  0  0
    2.9085    4.0488    5.4947 O   0  0  0  0  0  0  0  0  0  0  0  0
    3.4265    2.8002    5.2892 C   0  0  0  0  0  0  0  0  0  0  0  0
    4.6685    2.7087    4.6449 C   0  0  0  0  0  0  0  0  0  0  0  0
    5.4620    3.9070    4.1864 C   0  0  0  0  0  0  0  0  0  0  0  0
    4.8575    5.1192    4.3080 F   0  0  0  0  0  0  0  0  0  0  0  0
    6.6434    4.0187    4.8634 F   0  0  0  0  0  0  0  0  0  0  0  0
    5.8149    3.8102    2.8695 F   0  0  0  0  0  0  0  0  0  0  0  0
    5.2461    1.4336    4.4503 C   0  0  0  0  0  0  0  0  0  0  0  0
    4.6164    0.2737    4.9027 C   0  0  0  0  0  0  0  0  0  0  0  0
    5.2481   -0.9729    4.7221 N   0  0  0  0  0  0  0  0  0  0  0  0
    5.1136   -2.0865    5.5809 C   0  0  0  0  0  0  0  0  0  0  0  0
    5.0702   -3.3822    5.0493 C   0  0  0  0  0  0  0  0  0  0  0  0
    4.9495   -4.5131    5.8778 C   0  0  0  0  0  0  0  0  0  0  0  0
    4.8282   -5.9152    5.3164 C   0  0  0  0  0  0  0  0  0  0  0  0
    5.7273   -6.2338    4.1245 C   0  0  0  0  0  0  0  0  0  0  0  0
    5.7421   -5.5574    3.0995 O   0  0  0  0  0  0  0  0  0  0  0  0
    6.4536   -7.4007    4.2957 N   0  0  0  0  0  0  0  0  0  0  0  0
    7.2805   -7.9176    3.2667 C   0  0  0  0  0  0  0  0  0  0  0  0
    7.0069   -9.2081    2.8165 C   0  0  0  0  0  0  0  0  0  0  0  0
    7.7087   -9.8504    1.8632 N   0  0  0  0  0  0  0  0  0  0  0  0
    8.8190   -9.2199    1.4283 C   0  0  0  0  0  0  0  0  0  0  0  0
    9.2808   -7.9966    1.9165 C   0  0  0  0  0  0  0  0  0  0  0  0
   10.5692   -7.5335    1.5992 C   0  0  0  0  0  0  0  0  0  0  0  0
   11.0221   -6.3085    2.0800 C   0  0  0  0  0  0  0  0  0  0  0  0
   10.1612   -5.4992    2.8100 C   0  0  0  0  0  0  0  0  0  0  0  0
    8.8918   -5.9693    3.1650 C   0  0  0  0  0  0  0  0  0  0  0  0
    8.4450   -7.2614    2.7869 C   0  0  0  0  0  0  0  0  0  0  0  0
    4.8313   -4.3168    7.2615 C   0  0  0  0  0  0  0  0  0  0  0  0
    4.8940   -3.0332    7.7988 C   0  0  0  0  0  0  0  0  0  0  0  0
    4.7500   -2.8133    9.5021 Cl  0  0  0  0  0  0  0  0  0  0  0  0
    5.0300   -1.9268    6.9689 C   0  0  0  0  0  0  0  0  0  0  0  0
    3.3511    0.3834    5.4756 C   0  0  0  0  0  0  0  0  0  0  0  0
    2.7626    1.6307    5.6716 C   0  0  0  0  0  0  0  0  0  0  0  0
    1.7335    5.2269    6.6886 H   0  0  0  0  0  0  0  0  0  0  0  0
    2.2562    3.7196    7.4531 H   0  0  0  0  0  0  0  0  0  0  0  0
    0.9692    3.7159    6.1862 H   0  0  0  0  0  0  0  0  0  0  0  0
    6.2247    1.3579    3.9777 H   0  0  0  0  0  0  0  0  0  0  0  0
    5.2512   -1.2390    3.7380 H   0  0  0  0  0  0  0  0  0  0  0  0
    5.1263   -3.5009    3.9715 H   0  0  0  0  0  0  0  0  0  0  0  0
    3.7891   -6.0946    5.0162 H   0  0  0  0  0  0  0  0  0  0  0  0
    5.0488   -6.6294    6.1220 H   0  0  0  0  0  0  0  0  0  0  0  0
    5.9873   -8.0955    4.8668 H   0  0  0  0  0  0  0  0  0  0  0  0
    6.1687   -9.7766    3.2087 H   0  0  0  0  0  0  0  0  0  0  0  0
    9.3616   -9.7537    0.6520 H   0  0  0  0  0  0  0  0  0  0  0  0
   11.2493   -8.1571    1.0222 H   0  0  0  0  0  0  0  0  0  0  0  0
   12.0412   -5.9872    1.8808 H   0  0  0  0  0  0  0  0  0  0  0  0
   10.4847   -4.5116    3.1299 H   0  0  0  0  0  0  0  0  0  0  0  0
    8.2552   -5.3134    3.7535 H   0  0  0  0  0  0  0  0  0  0  0  0
    4.6953   -5.1686    7.9294 H   0  0  0  0  0  0  0  0  0  0  0  0
    5.1172   -0.9361    7.4080 H   0  0  0  0  0  0  0  0  0  0  0  0
    2.8067   -0.5059    5.7835 H   0  0  0  0  0  0  0  0  0  0  0  0
    1.7788    1.6509    6.1295 H   0  0  0  0  0  0  0  0  0  0  0  0
  1  2  1  0  0  0  0
  1 35  1  0  0  0  0
  1 36  1  0  0  0  0
  1 37  1  0  0  0  0
  2  3  1  0  0  0  0
  3  4  2  0  0  0  0
  3 34  1  0  0  0  0
  4  5  1  0  0  0  0
  4  9  1  0  0  0  0
  5  6  1  0  0  0  0
  5  7  1  0  0  0  0
  5  8  1  0  0  0  0
  9 10  2  0  0  0  0
  9 38  1  0  0  0  0
 10 11  1  0  0  0  0
 10 33  1  0  0  0  0
 11 12  1  0  0  0  0
 11 39  1  0  0  0  0
 12 13  2  0  0  0  0
 12 32  1  0  0  0  0
 13 14  1  0  0  0  0
 13 40  1  0  0  0  0
 14 15  1  0  0  0  0
 14 29  2  0  0  0  0
 15 16  1  0  0  0  0
 15 41  1  0  0  0  0
 15 42  1  0  0  0  0
 16 17  2  0  0  0  0
 16 18  1  0  0  0  0
 18 19  1  0  0  0  0
 18 43  1  0  0  0  0
 19 20  2  0  0  0  0
 19 28  1  0  0  0  0
 20 21  1  0  0  0  0
 20 44  1  0  0  0  0
 21 22  2  0  0  0  0
 22 23  1  0  0  0  0
 22 45  1  0  0  0  0
 23 24  2  0  0  0  0
 23 28  1  0  0  0  0
 24 25  1  0  0  0  0
 24 46  1  0  0  0  0
 25 26  2  0  0  0  0
 25 47  1  0  0  0  0
 26 27  1  0  0  0  0
 26 48  1  0  0  0  0
 27 28  2  0  0  0  0
 27 49  1  0  0  0  0
 29 30  1  0  0  0  0
 29 50  1  0  0  0  0
 30 31  1  0  0  0  0
 30 32  2  0  0  0  0
 32 51  1  0  0  0  0
 33 34  2  0  0  0  0
 33 52  1  0  0  0  0
 34 53  1  0  0  0  0
M  END
$$$$
