
 OpenBabel07202414163D

 38 40  0  0  1  0  0  0  0  0999 V2000
    1.5031    0.1234    0.0820 C   0  0  0  0  0  0  0  0  0  0  0  0
    2.8158   -0.5481   -0.1921 C   0  0  0  0  0  0  0  0  0  0  0  0
    3.8977    0.2632   -0.5795 C   0  0  0  0  0  0  0  0  0  0  0  0
    5.1528   -0.2985   -0.7452 C   0  0  0  0  0  0  0  0  0  0  0  0
    5.4118   -1.6075   -0.5756 N   0  0  0  0  0  0  0  0  0  0  0  0
    4.3774   -2.3818   -0.2199 C   0  0  0  0  0  0  0  0  0  0  0  0
    4.6644   -3.7576   -0.1433 N   0  0  0  0  0  0  0  0  0  0  0  0
    3.0560   -1.9202   -0.0111 C   0  0  0  0  0  0  0  0  0  0  0  0
    2.1137   -2.8663    0.4960 N   0  0  0  0  0  0  0  0  0  0  0  0
    0.8759   -3.1246   -0.0713 C   0  0  0  0  0  0  0  0  0  0  0  0
    0.4134   -2.5112   -1.0280 O   0  0  0  0  0  0  0  0  0  0  0  0
    0.0611   -4.2668    0.5806 C   0  0  3  0  0  0  0  0  0  0  0  0
   -0.6393   -3.7489    1.8537 C   0  0  0  0  0  0  0  0  0  0  0  0
   -0.6075   -4.6988    3.0454 C   0  0  0  0  0  0  0  0  0  0  0  0
   -0.6204   -6.0732    2.6830 O   0  0  0  0  0  0  0  0  0  0  0  0
    0.4596   -6.3752    1.9027 C   0  0  0  0  0  0  0  0  0  0  0  0
    1.1501   -7.5501    2.1930 C   0  0  0  0  0  0  0  0  0  0  0  0
    2.2245   -7.9323    1.3931 C   0  0  0  0  0  0  0  0  0  0  0  0
    2.5352   -7.1806    0.2619 C   0  0  0  0  0  0  0  0  0  0  0  0
    3.8246   -7.6738   -0.7644 Cl  0  0  0  0  0  0  0  0  0  0  0  0
    1.8176   -6.0212   -0.0432 C   0  0  0  0  0  0  0  0  0  0  0  0
    0.8171   -5.5590    0.8236 C   0  0  0  0  0  0  0  0  0  0  0  0
    1.5979    1.2144    0.0056 H   0  0  0  0  0  0  0  0  0  0  0  0
    1.1654   -0.0957    1.0983 H   0  0  0  0  0  0  0  0  0  0  0  0
    0.7450   -0.1709   -0.6446 H   0  0  0  0  0  0  0  0  0  0  0  0
    3.7781    1.3349   -0.7192 H   0  0  0  0  0  0  0  0  0  0  0  0
    6.0082    0.3135   -1.0219 H   0  0  0  0  0  0  0  0  0  0  0  0
    5.6647   -3.8124   -0.3384 H   0  0  0  0  0  0  0  0  0  0  0  0
    4.1646   -4.2277   -0.8937 H   0  0  0  0  0  0  0  0  0  0  0  0
    2.5784   -3.6769    0.8983 H   0  0  0  0  0  0  0  0  0  0  0  0
   -0.7244   -4.5259   -0.1435 H   0  0  0  0  0  0  0  0  0  0  0  0
   -1.6907   -3.5656    1.5956 H   0  0  0  0  0  0  0  0  0  0  0  0
   -0.2522   -2.7734    2.1738 H   0  0  0  0  0  0  0  0  0  0  0  0
   -1.4832   -4.5196    3.6803 H   0  0  0  0  0  0  0  0  0  0  0  0
    0.2729   -4.5091    3.6767 H   0  0  0  0  0  0  0  0  0  0  0  0
    0.8646   -8.1508    3.0530 H   0  0  0  0  0  0  0  0  0  0  0  0
    2.7978   -8.8195    1.6463 H   0  0  0  0  0  0  0  0  0  0  0  0
    2.0505   -5.4767   -0.9556 H   0  0  0  0  0  0  0  0  0  0  0  0
  1  2  1  0  0  0  0
  1 23  1  0  0  0  0
  1 24  1  0  0  0  0
  1 25  1  0  0  0  0
  2  3  1  0  0  0  0
  2  8  2  0  0  0  0
  3  4  2  0  0  0  0
  3 26  1  0  0  0  0
  4  5  1  0  0  0  0
  4 27  1  0  0  0  0
  5  6  2  0  0  0  0
  6  7  1  0  0  0  0
  6  8  1  0  0  0  0
  7 28  1  0  0  0  0
  7 29  1  0  0  0  0
  8  9  1  0  0  0  0
  9 10  1  0  0  0  0
  9 30  1  0  0  0  0
 10 11  2  0  0  0  0
 10 12  1  0  0  0  0
 12 13  1  0  0  0  0
 12 22  1  0  0  0  0
 12 31  1  0  0  0  0
 13 14  1  0  0  0  0
 13 32  1  0  0  0  0
 13 33  1  0  0  0  0
 14 15  1  0  0  0  0
 14 34  1  0  0  0  0
 14 35  1  0  0  0  0
 15 16  1  0  0  0  0
 16 17  1  0  0  0  0
 16 22  2  0  0  0  0
 17 18  2  0  0  0  0
 17 36  1  0  0  0  0
 18 19  1  0  0  0  0
 18 37  1  0  0  0  0
 19 20  1  0  0  0  0
 19 21  2  0  0  0  0
 21 22  1  0  0  0  0
 21 38  1  0  0  0  0
M  END
$$$$
