
 OpenBabel07202414203D

 47 50  0  0  0  0  0  0  0  0999 V2000
   -1.7305   -2.1436    1.0105 O   0  0  0  0  0  0  0  0  0  0  0  0
   -2.8632   -2.9024    0.8858 C   0  0  0  0  0  0  0  0  0  0  0  0
   -4.0479   -2.3276    0.3990 C   0  0  0  0  0  0  0  0  0  0  0  0
   -4.0259   -0.9982   -0.1063 N   0  0  0  0  0  0  0  0  0  0  0  0
   -5.1168   -0.0917   -0.0772 C   0  0  0  0  0  0  0  0  0  0  0  0
   -5.2862    0.8533   -1.0926 C   0  0  0  0  0  0  0  0  0  0  0  0
   -6.3099    1.8012   -1.0066 C   0  0  0  0  0  0  0  0  0  0  0  0
   -6.5158    2.9507   -2.2724 Cl  0  0  0  0  0  0  0  0  0  0  0  0
   -7.1662    1.8366    0.0931 C   0  0  0  0  0  0  0  0  0  0  0  0
   -7.0075    0.9114    1.1292 C   0  0  0  0  0  0  0  0  0  0  0  0
   -7.9253    0.9243    2.3288 C   0  0  0  0  0  0  0  0  0  0  0  0
   -7.1884    1.0995    3.6504 C   0  0  0  0  0  0  0  0  0  0  0  0
   -6.2279    0.4043    3.9694 O   0  0  0  0  0  0  0  0  0  0  0  0
   -7.7484    2.0564    4.4773 N   0  0  0  0  0  0  0  0  0  0  0  0
   -7.1926    2.3785    5.7372 C   0  0  0  0  0  0  0  0  0  0  0  0
   -5.8132    2.5365    5.8984 C   0  0  0  0  0  0  0  0  0  0  0  0
   -5.2167    2.9084    7.0483 N   0  0  0  0  0  0  0  0  0  0  0  0
   -6.0327    3.1059    8.1068 C   0  0  0  0  0  0  0  0  0  0  0  0
   -7.4220    2.9525    8.0834 C   0  0  0  0  0  0  0  0  0  0  0  0
   -8.2042    3.1300    9.2368 C   0  0  0  0  0  0  0  0  0  0  0  0
   -9.5809    2.9157    9.1988 C   0  0  0  0  0  0  0  0  0  0  0  0
  -10.1912    2.5228    8.0177 C   0  0  0  0  0  0  0  0  0  0  0  0
   -9.4287    2.3588    6.8609 C   0  0  0  0  0  0  0  0  0  0  0  0
   -8.0289    2.5794    6.8621 C   0  0  0  0  0  0  0  0  0  0  0  0
   -5.9794   -0.0411    1.0274 C   0  0  0  0  0  0  0  0  0  0  0  0
   -5.1841   -3.1400    0.3002 C   0  0  0  0  0  0  0  0  0  0  0  0
   -5.1459   -4.4708    0.7259 C   0  0  0  0  0  0  0  0  0  0  0  0
   -3.9575   -5.0089    1.2196 C   0  0  0  0  0  0  0  0  0  0  0  0
   -3.9159   -6.8109    1.7891 Br  0  0  0  0  0  0  0  0  0  0  0  0
   -2.8053   -4.2310    1.2937 C   0  0  0  0  0  0  0  0  0  0  0  0
   -2.0391   -1.2167    0.9897 H   0  0  0  0  0  0  0  0  0  0  0  0
   -3.5819   -1.0139   -1.0247 H   0  0  0  0  0  0  0  0  0  0  0  0
   -4.6319    0.8540   -1.9590 H   0  0  0  0  0  0  0  0  0  0  0  0
   -7.9477    2.5913    0.1422 H   0  0  0  0  0  0  0  0  0  0  0  0
   -8.4817   -0.0200    2.3711 H   0  0  0  0  0  0  0  0  0  0  0  0
   -8.6733    1.7185    2.2136 H   0  0  0  0  0  0  0  0  0  0  0  0
   -8.7181    2.2954    4.3220 H   0  0  0  0  0  0  0  0  0  0  0  0
   -5.1265    2.3998    5.0627 H   0  0  0  0  0  0  0  0  0  0  0  0
   -5.5156    3.3870    9.0208 H   0  0  0  0  0  0  0  0  0  0  0  0
   -7.7404    3.4153   10.1777 H   0  0  0  0  0  0  0  0  0  0  0  0
  -10.1742    3.0393   10.1044 H   0  0  0  0  0  0  0  0  0  0  0  0
  -11.2606    2.3257    7.9941 H   0  0  0  0  0  0  0  0  0  0  0  0
   -9.9418    2.0101    5.9707 H   0  0  0  0  0  0  0  0  0  0  0  0
   -5.8263   -0.7458    1.8451 H   0  0  0  0  0  0  0  0  0  0  0  0
   -6.1098   -2.7456   -0.1099 H   0  0  0  0  0  0  0  0  0  0  0  0
   -6.0452   -5.0774    0.6612 H   0  0  0  0  0  0  0  0  0  0  0  0
   -1.8749   -4.6387    1.6766 H   0  0  0  0  0  0  0  0  0  0  0  0
  1  2  1  0  0  0  0
  1 31  1  0  0  0  0
  2  3  2  0  0  0  0
  2 30  1  0  0  0  0
  3  4  1  0  0  0  0
  3 26  1  0  0  0  0
  4  5  1  0  0  0  0
  4 32  1  0  0  0  0
  5  6  2  0  0  0  0
  5 25  1  0  0  0  0
  6  7  1  0  0  0  0
  6 33  1  0  0  0  0
  7  8  1  0  0  0  0
  7  9  2  0  0  0  0
  9 10  1  0  0  0  0
  9 34  1  0  0  0  0
 10 11  1  0  0  0  0
 10 25  2  0  0  0  0
 11 12  1  0  0  0  0
 11 35  1  0  0  0  0
 11 36  1  0  0  0  0
 12 13  2  0  0  0  0
 12 14  1  0  0  0  0
 14 15  1  0  0  0  0
 14 37  1  0  0  0  0
 15 16  2  0  0  0  0
 15 24  1  0  0  0  0
 16 17  1  0  0  0  0
 16 38  1  0  0  0  0
 17 18  2  0  0  0  0
 18 19  1  0  0  0  0
 18 39  1  0  0  0  0
 19 20  2  0  0  0  0
 19 24  1  0  0  0  0
 20 21  1  0  0  0  0
 20 40  1  0  0  0  0
 21 22  2  0  0  0  0
 21 41  1  0  0  0  0
 22 23  1  0  0  0  0
 22 42  1  0  0  0  0
 23 24  2  0  0  0  0
 23 43  1  0  0  0  0
 25 44  1  0  0  0  0
 26 27  2  0  0  0  0
 26 45  1  0  0  0  0
 27 28  1  0  0  0  0
 27 46  1  0  0  0  0
 28 29  1  0  0  0  0
 28 30  2  0  0  0  0
 30 47  1  0  0  0  0
M  END
$$$$
