
 OpenBabel07202414153D

 73 77  0  0  1  0  0  0  0  0999 V2000
    4.1050   -7.3444    5.9624 C   0  0  0  0  0  0  0  0  0  0  0  0
    3.9683   -8.7578    5.8723 O   0  0  0  0  0  0  0  0  0  0  0  0
    4.0276   -9.3099    4.6118 C   0  0  0  0  0  0  0  0  0  0  0  0
    3.7208   -8.6051    3.4321 C   0  0  0  0  0  0  0  0  0  0  0  0
    3.7829   -9.2462    2.1873 C   0  0  0  0  0  0  0  0  0  0  0  0
    3.4881   -8.6599    0.8311 C   0  0  0  0  0  0  0  0  0  0  0  0
    3.1707   -7.2462    0.8199 N   0  0  0  0  0  0  0  0  0  0  0  0
    2.4757   -6.8907   -0.4281 C   0  0  0  0  0  0  0  0  0  0  0  0
    0.9001   -7.1084   -0.5904 C   0  0  3  0  0  0  0  0  0  0  0  0
    0.6589   -6.0631   -1.8091 C   0  0  0  0  0  0  0  0  0  0  0  0
   -0.0046   -5.0412   -1.6723 O   0  0  0  0  0  0  0  0  0  0  0  0
    1.2786   -6.4867   -3.0387 N   0  0  0  0  0  0  0  0  0  0  0  0
    1.2131   -5.9126   -4.3636 C   0  0  0  0  0  0  0  0  0  0  0  0
    0.5772   -4.7018   -4.6110 C   0  0  0  0  0  0  0  0  0  0  0  0
    0.5930   -4.0469   -5.8070 N   0  0  0  0  0  0  0  0  0  0  0  0
    1.2471   -4.6241   -6.8398 C   0  0  0  0  0  0  0  0  0  0  0  0
    1.8306   -5.8804   -6.7747 C   0  0  0  0  0  0  0  0  0  0  0  0
    2.4024   -6.4380   -7.9296 C   0  0  0  0  0  0  0  0  0  0  0  0
    2.9404   -7.7183   -7.9188 C   0  0  0  0  0  0  0  0  0  0  0  0
    2.9348   -8.4330   -6.7261 C   0  0  0  0  0  0  0  0  0  0  0  0
    2.3974   -7.8671   -5.5485 C   0  0  0  0  0  0  0  0  0  0  0  0
    1.8182   -6.5676   -5.5141 C   0  0  0  0  0  0  0  0  0  0  0  0
    0.2880   -6.8819    0.8261 C   0  0  0  0  0  0  0  0  0  0  0  0
    0.3855   -8.1385    1.7463 C   0  0  0  0  0  0  0  0  0  0  0  0
    0.1878   -9.4330    1.1807 O   0  0  0  0  0  0  0  0  0  0  0  0
    0.1522   -9.5333   -0.1729 C   0  0  0  0  0  0  0  0  0  0  0  0
   -0.1867  -10.8063   -0.6588 C   0  0  0  0  0  0  0  0  0  0  0  0
   -0.6703  -10.9561   -1.9529 C   0  0  0  0  0  0  0  0  0  0  0  0
   -0.9237   -9.8114   -2.6816 C   0  0  0  0  0  0  0  0  0  0  0  0
   -1.8049   -9.8896   -4.1549 Cl  0  0  0  0  0  0  0  0  0  0  0  0
   -0.4865   -8.5752   -2.2070 C   0  0  0  0  0  0  0  0  0  0  0  0
    0.2570   -8.4404   -1.0205 C   0  0  0  0  0  0  0  0  0  0  0  0
    4.0935  -10.6024    2.1548 C   0  0  0  0  0  0  0  0  0  0  0  0
    4.4565  -11.3099    3.2946 C   0  0  0  0  0  0  0  0  0  0  0  0
    4.8588  -12.6155    3.1721 O   0  0  0  0  0  0  0  0  0  0  0  0
    5.5230  -12.9310    1.9481 C   0  0  0  0  0  0  0  0  0  0  0  0
    4.3973  -10.6874    4.5483 C   0  0  0  0  0  0  0  0  0  0  0  0
    4.6713  -11.2714    5.7667 O   0  0  0  0  0  0  0  0  0  0  0  0
    4.7896  -12.6925    5.7862 C   0  0  0  0  0  0  0  0  0  0  0  0
    4.8408  -13.2843    7.1983 C   0  0  0  0  0  0  0  0  0  0  0  0
    4.9877  -12.3800    8.2136 N   0  0  0  0  0  0  0  0  0  0  0  0
    4.8012  -14.4903    7.4267 O   0  0  0  0  0  0  0  0  0  0  0  0
    4.3957   -7.0997    6.9904 H   0  0  0  0  0  0  0  0  0  0  0  0
    3.1488   -6.8569    5.7557 H   0  0  0  0  0  0  0  0  0  0  0  0
    4.8867   -6.9619    5.2984 H   0  0  0  0  0  0  0  0  0  0  0  0
    3.3799   -7.5739    3.4780 H   0  0  0  0  0  0  0  0  0  0  0  0
    2.6594   -9.2374    0.4174 H   0  0  0  0  0  0  0  0  0  0  0  0
    4.3460   -8.8413    0.1714 H   0  0  0  0  0  0  0  0  0  0  0  0
    4.0470   -6.7210    0.8878 H   0  0  0  0  0  0  0  0  0  0  0  0
    3.0264   -7.2950   -1.2848 H   0  0  0  0  0  0  0  0  0  0  0  0
    2.6263   -5.7998   -0.4758 H   0  0  0  0  0  0  0  0  0  0  0  0
    1.7684   -7.3713   -3.0062 H   0  0  0  0  0  0  0  0  0  0  0  0
    0.0017   -4.1865   -3.8489 H   0  0  0  0  0  0  0  0  0  0  0  0
    1.2501   -4.0419   -7.7546 H   0  0  0  0  0  0  0  0  0  0  0  0
    2.4008   -5.8907   -8.8795 H   0  0  0  0  0  0  0  0  0  0  0  0
    3.3474   -8.1617   -8.8306 H   0  0  0  0  0  0  0  0  0  0  0  0
    3.3279   -9.4480   -6.7143 H   0  0  0  0  0  0  0  0  0  0  0  0
    2.4075   -8.4845   -4.6566 H   0  0  0  0  0  0  0  0  0  0  0  0
   -0.7631   -6.5843    0.7632 H   0  0  0  0  0  0  0  0  0  0  0  0
    0.7961   -6.0661    1.3605 H   0  0  0  0  0  0  0  0  0  0  0  0
   -0.2895   -8.0375    2.6064 H   0  0  0  0  0  0  0  0  0  0  0  0
    1.3587   -8.2080    2.2185 H   0  0  0  0  0  0  0  0  0  0  0  0
   -0.1469  -11.6699    0.0011 H   0  0  0  0  0  0  0  0  0  0  0  0
   -0.9517  -11.9328   -2.3319 H   0  0  0  0  0  0  0  0  0  0  0  0
   -0.8134   -7.7049   -2.7769 H   0  0  0  0  0  0  0  0  0  0  0  0
    4.0300  -11.1043    1.1937 H   0  0  0  0  0  0  0  0  0  0  0  0
    6.0927  -13.8500    2.0965 H   0  0  0  0  0  0  0  0  0  0  0  0
    6.2271  -12.1434    1.6503 H   0  0  0  0  0  0  0  0  0  0  0  0
    4.7916  -13.1161    1.1536 H   0  0  0  0  0  0  0  0  0  0  0  0
    5.7302  -12.9879    5.3062 H   0  0  0  0  0  0  0  0  0  0  0  0
    3.9137  -13.1505    5.3171 H   0  0  0  0  0  0  0  0  0  0  0  0
    4.8773  -11.3894    8.0297 H   0  0  0  0  0  0  0  0  0  0  0  0
    4.9707  -12.7261    9.1643 H   0  0  0  0  0  0  0  0  0  0  0  0
  1  2  1  0  0  0  0
  1 43  1  0  0  0  0
  1 44  1  0  0  0  0
  1 45  1  0  0  0  0
  2  3  1  0  0  0  0
  3  4  1  0  0  0  0
  3 37  2  0  0  0  0
  4  5  2  0  0  0  0
  4 46  1  0  0  0  0
  5  6  1  0  0  0  0
  5 33  1  0  0  0  0
  6  7  1  0  0  0  0
  6 47  1  0  0  0  0
  6 48  1  0  0  0  0
  7  8  1  0  0  0  0
  7 49  1  0  0  0  0
  8  9  1  0  0  0  0
  8 50  1  0  0  0  0
  8 51  1  0  0  0  0
  9 10  1  0  0  0  0
  9 23  1  0  0  0  0
  9 32  1  0  0  0  0
 10 11  2  0  0  0  0
 10 12  1  0  0  0  0
 12 13  1  0  0  0  0
 12 52  1  0  0  0  0
 13 14  1  0  0  0  0
 13 22  2  0  0  0  0
 14 15  2  0  0  0  0
 14 53  1  0  0  0  0
 15 16  1  0  0  0  0
 16 17  2  0  0  0  0
 16 54  1  0  0  0  0
 17 18  1  0  0  0  0
 17 22  1  0  0  0  0
 18 19  2  0  0  0  0
 18 55  1  0  0  0  0
 19 20  1  0  0  0  0
 19 56  1  0  0  0  0
 20 21  2  0  0  0  0
 20 57  1  0  0  0  0
 21 22  1  0  0  0  0
 21 58  1  0  0  0  0
 23 24  1  0  0  0  0
 23 59  1  0  0  0  0
 23 60  1  0  0  0  0
 24 25  1  0  0  0  0
 24 61  1  0  0  0  0
 24 62  1  0  0  0  0
 25 26  1  0  0  0  0
 26 27  1  0  0  0  0
 26 32  2  0  0  0  0
 27 28  2  0  0  0  0
 27 63  1  0  0  0  0
 28 29  1  0  0  0  0
 28 64  1  0  0  0  0
 29 30  1  0  0  0  0
 29 31  2  0  0  0  0
 31 32  1  0  0  0  0
 31 65  1  0  0  0  0
 33 34  2  0  0  0  0
 33 66  1  0  0  0  0
 34 35  1  0  0  0  0
 34 37  1  0  0  0  0
 35 36  1  0  0  0  0
 36 67  1  0  0  0  0
 36 68  1  0  0  0  0
 36 69  1  0  0  0  0
 37 38  1  0  0  0  0
 38 39  1  0  0  0  0
 39 40  1  0  0  0  0
 39 70  1  0  0  0  0
 39 71  1  0  0  0  0
 40 41  1  0  0  0  0
 40 42  2  0  0  0  0
 41 72  1  0  0  0  0
 41 73  1  0  0  0  0
M  END
$$$$
