
 OpenBabel07202414193D

 44 47  0  0  1  0  0  0  0  0999 V2000
    2.8508   -0.6532   -0.8122 O   0  0  0  0  0  0  0  0  0  0  0  0
    2.4204   -0.2233    0.2571 C   0  0  0  0  0  0  0  0  0  0  0  0
    1.3660   -0.9831    1.0577 C   0  0  0  0  0  0  0  0  0  0  0  0
    0.2354   -1.6131    0.2727 C   0  0  0  0  0  0  0  0  0  0  0  0
   -0.8993   -0.8399    0.0110 C   0  0  0  0  0  0  0  0  0  0  0  0
   -2.0454   -1.3081   -0.5239 N   0  0  0  0  0  0  0  0  0  0  0  0
   -2.0695   -2.6233   -0.8259 C   0  0  0  0  0  0  0  0  0  0  0  0
   -0.9991   -3.4987   -0.6424 C   0  0  0  0  0  0  0  0  0  0  0  0
   -1.1058   -4.8631   -0.9678 C   0  0  0  0  0  0  0  0  0  0  0  0
   -0.0255   -5.7220   -0.7823 C   0  0  0  0  0  0  0  0  0  0  0  0
    1.1716   -5.2235   -0.2831 C   0  0  0  0  0  0  0  0  0  0  0  0
    1.2848   -3.8706    0.0523 C   0  0  0  0  0  0  0  0  0  0  0  0
    0.1998   -2.9791   -0.1009 C   0  0  0  0  0  0  0  0  0  0  0  0
    2.8971    0.9595    0.8184 N   0  0  0  0  0  0  0  0  0  0  0  0
    2.6625    1.4068    2.1826 C   0  0  0  0  0  0  0  0  0  0  0  0
    3.0987    2.8549    2.1638 C   0  0  0  0  0  0  0  0  0  0  0  0
    4.3330    2.8135    1.2733 C   0  0  0  0  0  0  0  0  0  0  0  0
    4.0102    1.7237    0.2260 C   0  0  2  0  0  0  0  0  0  0  0  0
    3.7412    2.3409   -1.1321 C   0  0  0  0  0  0  0  0  0  0  0  0
    4.8263    2.6691   -1.9674 C   0  0  0  0  0  0  0  0  0  0  0  0
    4.6074    3.2024   -3.2377 C   0  0  0  0  0  0  0  0  0  0  0  0
    5.6537    3.4980   -4.0161 F   0  0  0  0  0  0  0  0  0  0  0  0
    3.3211    3.4279   -3.7028 C   0  0  0  0  0  0  0  0  0  0  0  0
    2.2522    3.1387   -2.8677 C   0  0  0  0  0  0  0  0  0  0  0  0
    1.0040    3.3681   -3.2995 F   0  0  0  0  0  0  0  0  0  0  0  0
    2.4472    2.6145   -1.5934 C   0  0  0  0  0  0  0  0  0  0  0  0
    0.8775   -0.3331    1.7850 H   0  0  0  0  0  0  0  0  0  0  0  0
    1.8907   -1.7280    1.6637 H   0  0  0  0  0  0  0  0  0  0  0  0
   -0.9374    0.2142    0.2757 H   0  0  0  0  0  0  0  0  0  0  0  0
   -3.0159   -2.9706   -1.2341 H   0  0  0  0  0  0  0  0  0  0  0  0
   -2.0357   -5.2649   -1.3652 H   0  0  0  0  0  0  0  0  0  0  0  0
   -0.1157   -6.7750   -1.0353 H   0  0  0  0  0  0  0  0  0  0  0  0
    2.0250   -5.8846   -0.1552 H   0  0  0  0  0  0  0  0  0  0  0  0
    2.2455   -3.5195    0.4190 H   0  0  0  0  0  0  0  0  0  0  0  0
    3.2987    0.8033    2.8425 H   0  0  0  0  0  0  0  0  0  0  0  0
    1.6250    1.3103    2.4991 H   0  0  0  0  0  0  0  0  0  0  0  0
    3.2969    3.2497    3.1637 H   0  0  0  0  0  0  0  0  0  0  0  0
    2.3188    3.4692    1.6970 H   0  0  0  0  0  0  0  0  0  0  0  0
    5.1973    2.5055    1.8746 H   0  0  0  0  0  0  0  0  0  0  0  0
    4.5571    3.7995    0.8521 H   0  0  0  0  0  0  0  0  0  0  0  0
    4.8618    1.0362    0.1325 H   0  0  0  0  0  0  0  0  0  0  0  0
    5.8529    2.5032   -1.6469 H   0  0  0  0  0  0  0  0  0  0  0  0
    3.1543    3.8240   -4.6987 H   0  0  0  0  0  0  0  0  0  0  0  0
    1.5770    2.4030   -0.9824 H   0  0  0  0  0  0  0  0  0  0  0  0
  1  2  2  0  0  0  0
  2  3  1  0  0  0  0
  2 14  1  0  0  0  0
  3  4  1  0  0  0  0
  3 27  1  0  0  0  0
  3 28  1  0  0  0  0
  4  5  1  0  0  0  0
  4 13  2  0  0  0  0
  5  6  2  0  0  0  0
  5 29  1  0  0  0  0
  6  7  1  0  0  0  0
  7  8  2  0  0  0  0
  7 30  1  0  0  0  0
  8  9  1  0  0  0  0
  8 13  1  0  0  0  0
  9 10  2  0  0  0  0
  9 31  1  0  0  0  0
 10 11  1  0  0  0  0
 10 32  1  0  0  0  0
 11 12  2  0  0  0  0
 11 33  1  0  0  0  0
 12 13  1  0  0  0  0
 12 34  1  0  0  0  0
 14 15  1  0  0  0  0
 14 18  1  0  0  0  0
 15 16  1  0  0  0  0
 15 35  1  0  0  0  0
 15 36  1  0  0  0  0
 16 17  1  0  0  0  0
 16 37  1  0  0  0  0
 16 38  1  0  0  0  0
 17 18  1  0  0  0  0
 17 39  1  0  0  0  0
 17 40  1  0  0  0  0
 18 19  1  0  0  0  0
 18 41  1  6  0  0  0
 19 20  1  0  0  0  0
 19 26  2  0  0  0  0
 20 21  2  0  0  0  0
 20 42  1  0  0  0  0
 21 22  1  0  0  0  0
 21 23  1  0  0  0  0
 23 24  2  0  0  0  0
 23 43  1  0  0  0  0
 24 25  1  0  0  0  0
 24 26  1  0  0  0  0
 26 44  1  0  0  0  0
M  END
$$$$
