
 OpenBabel07202414163D

 40 43  0  0  1  0  0  0  0  0999 V2000
    1.1149   -0.2425    0.7012 C   0  0  0  0  0  0  0  0  0  0  0  0
    2.4757   -0.2437    0.0407 C   0  0  0  0  0  0  0  0  0  0  0  0
    3.0666    0.9636   -0.1528 C   0  0  0  0  0  0  0  0  0  0  0  0
    4.3344    1.1296   -0.8281 C   0  0  0  0  0  0  0  0  0  0  0  0
    4.9504    0.0454   -1.3072 C   0  0  0  0  0  0  0  0  0  0  0  0
    4.3828   -1.2129   -1.1322 N   0  0  0  0  0  0  0  0  0  0  0  0
    4.9098   -2.3691   -1.5880 N   0  0  0  0  0  0  0  0  0  0  0  0
    4.0797   -3.3016   -1.1621 C   0  0  0  0  0  0  0  0  0  0  0  0
    2.9763   -2.7954   -0.4274 C   0  0  0  0  0  0  0  0  0  0  0  0
    1.9555   -3.5144    0.1945 N   0  0  0  0  0  0  0  0  0  0  0  0
    1.8556   -4.8983    0.0810 C   0  0  0  0  0  0  0  0  0  0  0  0
    2.5372   -5.5854   -0.6800 O   0  0  0  0  0  0  0  0  0  0  0  0
    0.8383   -5.5551    0.9941 C   0  0  3  0  0  0  0  0  0  0  0  0
    1.1756   -7.0736    1.0671 C   0  0  0  0  0  0  0  0  0  0  0  0
    0.3734   -7.6726    2.1163 N   0  0  0  0  0  0  0  0  0  0  0  0
   -0.9533   -7.3316    2.2215 C   0  0  0  0  0  0  0  0  0  0  0  0
   -1.6519   -7.6130    3.1812 O   0  0  0  0  0  0  0  0  0  0  0  0
   -1.4559   -6.5324    1.0738 C   0  0  0  0  0  0  0  0  0  0  0  0
   -2.6244   -6.9256    0.4307 C   0  0  0  0  0  0  0  0  0  0  0  0
   -3.0034   -6.2646   -0.7359 C   0  0  0  0  0  0  0  0  0  0  0  0
   -2.2693   -5.1636   -1.1870 C   0  0  0  0  0  0  0  0  0  0  0  0
   -2.7854   -4.3211   -2.5956 Cl  0  0  0  0  0  0  0  0  0  0  0  0
   -1.0802   -4.7826   -0.5591 C   0  0  0  0  0  0  0  0  0  0  0  0
   -0.6120   -5.5381    0.5190 C   0  0  0  0  0  0  0  0  0  0  0  0
    3.1735   -1.4240   -0.4389 C   0  0  0  0  0  0  0  0  0  0  0  0
    0.7790    0.7702    0.9568 H   0  0  0  0  0  0  0  0  0  0  0  0
    1.1349   -0.8215    1.6294 H   0  0  0  0  0  0  0  0  0  0  0  0
    0.3646   -0.6695    0.0282 H   0  0  0  0  0  0  0  0  0  0  0  0
    2.5937    1.8859    0.1728 H   0  0  0  0  0  0  0  0  0  0  0  0
    4.7593    2.1197   -0.9510 H   0  0  0  0  0  0  0  0  0  0  0  0
    5.8924    0.0755   -1.8350 H   0  0  0  0  0  0  0  0  0  0  0  0
    4.3182   -4.3368   -1.3907 H   0  0  0  0  0  0  0  0  0  0  0  0
    1.2968   -2.9985    0.7652 H   0  0  0  0  0  0  0  0  0  0  0  0
    0.9165   -5.1108    1.9950 H   0  0  0  0  0  0  0  0  0  0  0  0
    2.2277   -7.2911    1.2656 H   0  0  0  0  0  0  0  0  0  0  0  0
    0.9078   -7.5791    0.1238 H   0  0  0  0  0  0  0  0  0  0  0  0
    0.7890   -8.1884    2.8824 H   0  0  0  0  0  0  0  0  0  0  0  0
   -3.1720   -7.7972    0.7811 H   0  0  0  0  0  0  0  0  0  0  0  0
   -3.8548   -6.6285   -1.3047 H   0  0  0  0  0  0  0  0  0  0  0  0
   -0.4971   -3.9714   -0.9858 H   0  0  0  0  0  0  0  0  0  0  0  0
  1  2  1  0  0  0  0
  1 26  1  0  0  0  0
  1 27  1  0  0  0  0
  1 28  1  0  0  0  0
  2  3  2  0  0  0  0
  2 25  1  0  0  0  0
  3  4  1  0  0  0  0
  3 29  1  0  0  0  0
  4  5  2  0  0  0  0
  4 30  1  0  0  0  0
  5  6  1  0  0  0  0
  5 31  1  0  0  0  0
  6  7  1  0  0  0  0
  6 25  1  0  0  0  0
  7  8  2  0  0  0  0
  8  9  1  0  0  0  0
  8 32  1  0  0  0  0
  9 10  1  0  0  0  0
  9 25  2  0  0  0  0
 10 11  1  0  0  0  0
 10 33  1  0  0  0  0
 11 12  2  0  0  0  0
 11 13  1  0  0  0  0
 13 14  1  0  0  0  0
 13 24  1  0  0  0  0
 13 34  1  0  0  0  0
 14 15  1  0  0  0  0
 14 35  1  0  0  0  0
 14 36  1  0  0  0  0
 15 16  1  0  0  0  0
 15 37  1  0  0  0  0
 16 17  2  0  0  0  0
 16 18  1  0  0  0  0
 18 19  1  0  0  0  0
 18 24  2  0  0  0  0
 19 20  2  0  0  0  0
 19 38  1  0  0  0  0
 20 21  1  0  0  0  0
 20 39  1  0  0  0  0
 21 22  1  0  0  0  0
 21 23  2  0  0  0  0
 23 24  1  0  0  0  0
 23 40  1  0  0  0  0
M  END
$$$$
