
 OpenBabel07202414183D

 54 58  0  0  1  0  0  0  0  0999 V2000
    7.5458   -1.1832   -5.4178 F   0  0  0  0  0  0  0  0  0  0  0  0
    7.5150   -1.0327   -4.0874 C   0  0  0  0  0  0  0  0  0  0  0  0
    8.5933   -0.4689   -3.4410 C   0  0  0  0  0  0  0  0  0  0  0  0
    8.5389   -0.3080   -2.0571 C   0  0  0  0  0  0  0  0  0  0  0  0
    7.3711   -0.5743   -1.2916 C   0  0  0  0  0  0  0  0  0  0  0  0
    7.1499   -0.2286    0.0803 C   0  0  0  0  0  0  0  0  0  0  0  0
    7.9312    0.6916    0.8588 N   0  0  0  0  0  0  0  0  0  0  0  0
    8.6818    1.7215    0.3260 C   0  0  0  0  0  0  0  0  0  0  0  0
    8.7394    1.9748   -0.8735 O   0  0  0  0  0  0  0  0  0  0  0  0
    9.5513    2.5269    1.2967 C   0  0  3  0  0  0  0  0  0  0  0  0
    9.2327    4.0322    1.3047 C   0  0  0  0  0  0  0  0  0  0  0  0
    9.5564    4.6995    0.0453 N   0  0  0  0  0  0  0  0  0  0  0  0
    8.5146    4.6850   -1.0047 C   0  0  0  0  0  0  0  0  0  0  0  0
    7.4292    5.7394   -1.1072 C   0  0  0  0  0  0  0  0  0  0  0  0
    6.3046    5.4450   -1.5146 O   0  0  0  0  0  0  0  0  0  0  0  0
    7.7718    7.0193   -0.7961 N   0  0  0  0  0  0  0  0  0  0  0  0
    6.7345    8.0724   -0.8755 C   0  0  0  0  0  0  0  0  0  0  0  0
    6.9341    9.2571    0.0616 C   0  0  0  0  0  0  0  0  0  0  0  0
    5.5789    9.1454    0.5668 O   0  0  0  0  0  0  0  0  0  0  0  0
    5.4642    7.8286   -0.0345 C   0  0  0  0  0  0  0  0  0  0  0  0
   10.8785    4.5566   -0.4125 C   0  0  0  0  0  0  0  0  0  0  0  0
   11.3513    5.2763   -1.2851 O   0  0  0  0  0  0  0  0  0  0  0  0
   11.6557    3.3746    0.1280 C   0  0  0  0  0  0  0  0  0  0  0  0
   12.9861    3.1827   -0.2653 C   0  0  0  0  0  0  0  0  0  0  0  0
   13.6213    1.9575   -0.0246 C   0  0  0  0  0  0  0  0  0  0  0  0
   12.9267    0.9199    0.5942 C   0  0  0  0  0  0  0  0  0  0  0  0
   13.6368   -0.6399    0.7357 Cl  0  0  0  0  0  0  0  0  0  0  0  0
   11.6328    1.1237    1.0626 C   0  0  0  0  0  0  0  0  0  0  0  0
   10.9977    2.3617    0.8606 C   0  0  0  0  0  0  0  0  0  0  0  0
    6.0347   -0.7917    0.7058 C   0  0  0  0  0  0  0  0  0  0  0  0
    5.1006   -1.5452    0.0934 N   0  0  0  0  0  0  0  0  0  0  0  0
    5.2623   -1.7342   -1.2384 C   0  0  0  0  0  0  0  0  0  0  0  0
    6.3448   -1.2668   -1.9760 C   0  0  0  0  0  0  0  0  0  0  0  0
    6.4149   -1.4775   -3.3673 C   0  0  0  0  0  0  0  0  0  0  0  0
    9.4652   -0.1437   -3.9985 H   0  0  0  0  0  0  0  0  0  0  0  0
    9.4397    0.0694   -1.5797 H   0  0  0  0  0  0  0  0  0  0  0  0
    7.6893    0.7622    1.8407 H   0  0  0  0  0  0  0  0  0  0  0  0
    9.4335    2.1447    2.3167 H   0  0  0  0  0  0  0  0  0  0  0  0
    9.8698    4.5155    2.0637 H   0  0  0  0  0  0  0  0  0  0  0  0
    8.1941    4.2548    1.5808 H   0  0  0  0  0  0  0  0  0  0  0  0
    7.8824    3.8272   -0.7903 H   0  0  0  0  0  0  0  0  0  0  0  0
    8.9635    4.5512   -1.9902 H   0  0  0  0  0  0  0  0  0  0  0  0
    8.7602    7.2279   -0.7161 H   0  0  0  0  0  0  0  0  0  0  0  0
    6.5157    8.3527   -1.9129 H   0  0  0  0  0  0  0  0  0  0  0  0
    7.1146   10.2123   -0.4322 H   0  0  0  0  0  0  0  0  0  0  0  0
    7.6625    9.1076    0.8703 H   0  0  0  0  0  0  0  0  0  0  0  0
    4.5366    7.7133   -0.6031 H   0  0  0  0  0  0  0  0  0  0  0  0
    5.5220    7.0470    0.7317 H   0  0  0  0  0  0  0  0  0  0  0  0
   13.5181    3.9622   -0.8081 H   0  0  0  0  0  0  0  0  0  0  0  0
   14.6417    1.7992   -0.3665 H   0  0  0  0  0  0  0  0  0  0  0  0
   11.0928    0.3002    1.5253 H   0  0  0  0  0  0  0  0  0  0  0  0
    5.8191   -0.6110    1.7574 H   0  0  0  0  0  0  0  0  0  0  0  0
    4.4658   -2.3098   -1.7064 H   0  0  0  0  0  0  0  0  0  0  0  0
    5.6135   -1.9692   -3.9021 H   0  0  0  0  0  0  0  0  0  0  0  0
  1  2  1  0  0  0  0
  2  3  1  0  0  0  0
  2 34  2  0  0  0  0
  3  4  2  0  0  0  0
  3 35  1  0  0  0  0
  4  5  1  0  0  0  0
  4 36  1  0  0  0  0
  5  6  1  0  0  0  0
  5 33  2  0  0  0  0
  6  7  1  0  0  0  0
  6 30  2  0  0  0  0
  7  8  1  0  0  0  0
  7 37  1  0  0  0  0
  8  9  2  0  0  0  0
  8 10  1  0  0  0  0
 10 11  1  0  0  0  0
 10 29  1  0  0  0  0
 10 38  1  0  0  0  0
 11 12  1  0  0  0  0
 11 39  1  0  0  0  0
 11 40  1  0  0  0  0
 12 13  1  0  0  0  0
 12 21  1  0  0  0  0
 13 14  1  0  0  0  0
 13 41  1  0  0  0  0
 13 42  1  0  0  0  0
 14 15  2  0  0  0  0
 14 16  1  0  0  0  0
 16 17  1  0  0  0  0
 16 43  1  0  0  0  0
 17 18  1  0  0  0  0
 17 20  1  0  0  0  0
 17 44  1  0  0  0  0
 18 19  1  0  0  0  0
 18 45  1  0  0  0  0
 18 46  1  0  0  0  0
 19 20  1  0  0  0  0
 20 47  1  0  0  0  0
 20 48  1  0  0  0  0
 21 22  2  0  0  0  0
 21 23  1  0  0  0  0
 23 24  1  0  0  0  0
 23 29  2  0  0  0  0
 24 25  2  0  0  0  0
 24 49  1  0  0  0  0
 25 26  1  0  0  0  0
 25 50  1  0  0  0  0
 26 27  1  0  0  0  0
 26 28  2  0  0  0  0
 28 29  1  0  0  0  0
 28 51  1  0  0  0  0
 30 31  1  0  0  0  0
 30 52  1  0  0  0  0
 31 32  2  0  0  0  0
 32 33  1  0  0  0  0
 32 53  1  0  0  0  0
 33 34  1  0  0  0  0
 34 54  1  0  0  0  0
M  END
$$$$
