
 OpenBabel07202414123D

 63 65  0  0  1  0  0  0  0  0999 V2000
    2.7663   -0.8209   -3.4630 C   0  0  0  0  0  0  0  0  0  0  0  0
    2.2355   -0.5606   -2.0532 C   0  0  0  0  0  0  0  0  0  0  0  0
    0.7626   -0.9646   -1.9668 C   0  0  0  0  0  0  0  0  0  0  0  0
    3.0556   -1.2905   -0.9762 C   0  0  0  0  0  0  0  0  0  0  0  0
    4.5583   -0.9237   -0.9187 C   0  0  2  0  0  0  0  0  0  0  0  0
    5.2373   -1.7588    0.2059 C   0  0  0  0  0  0  0  0  0  0  0  0
    6.6935   -1.5975    0.2339 N   0  0  0  0  0  0  0  0  0  0  0  0
    7.4483   -2.6590    0.7303 C   0  0  0  0  0  0  0  0  0  0  0  0
    6.9302   -3.7468    0.9943 O   0  0  0  0  0  0  0  0  0  0  0  0
    8.9673   -2.5031    0.8916 C   0  0  0  0  0  0  0  0  0  0  0  0
    9.6026   -3.0043   -0.2668 O   0  0  0  0  0  0  0  0  0  0  0  0
   11.2143   -3.1235   -0.2647 S   0  0  0  0  0  0  0  0  0  0  0  0
   11.7445   -1.7819   -0.1096 O   0  0  0  0  0  0  0  0  0  0  0  0
   11.5790   -4.1720    0.6618 O   0  0  0  0  0  0  0  0  0  0  0  0
   11.5973   -3.6593   -1.8273 N   0  0  0  0  0  0  0  0  0  0  0  0
   11.5336   -2.6470   -2.9154 C   0  0  0  0  0  0  0  0  0  0  0  0
   10.0798   -2.3900   -3.3052 C   0  0  0  0  0  0  0  0  0  0  0  0
    9.4702   -3.6011   -3.7773 O   0  0  0  0  0  0  0  0  0  0  0  0
    9.5126   -4.6531   -2.7972 C   0  0  0  0  0  0  0  0  0  0  0  0
   10.9348   -4.9221   -2.2724 C   0  0  0  0  0  0  0  0  0  0  0  0
    7.1523   -0.2124    0.1464 C   0  0  0  0  0  0  0  0  0  0  0  0
    6.4027    0.6208   -0.9169 C   0  0  0  0  0  0  0  0  0  0  0  0
    4.9253    0.5276   -0.9292 N   0  0  0  0  0  0  0  0  0  0  0  0
    4.2722    1.3925    0.0691 C   0  0  0  0  0  0  0  0  0  0  0  0
    4.4835    2.9055   -0.1292 C   0  0  0  0  0  0  0  0  0  0  0  0
    4.8005    3.4958   -1.3685 C   0  0  0  0  0  0  0  0  0  0  0  0
    5.0824    4.8701   -1.4740 C   0  0  0  0  0  0  0  0  0  0  0  0
    4.9984    5.6910   -0.3549 C   0  0  0  0  0  0  0  0  0  0  0  0
    4.5903    5.1372    0.8487 C   0  0  0  0  0  0  0  0  0  0  0  0
    4.4540    5.9293    1.9203 F   0  0  0  0  0  0  0  0  0  0  0  0
    4.3251    3.7706    0.9682 C   0  0  0  0  0  0  0  0  0  0  0  0
    2.1566   -0.2973   -4.2065 H   0  0  0  0  0  0  0  0  0  0  0  0
    2.7518   -1.8896   -3.7028 H   0  0  0  0  0  0  0  0  0  0  0  0
    3.7932   -0.4612   -3.5762 H   0  0  0  0  0  0  0  0  0  0  0  0
    2.2841    0.5183   -1.8671 H   0  0  0  0  0  0  0  0  0  0  0  0
    0.6175   -2.0213   -2.2179 H   0  0  0  0  0  0  0  0  0  0  0  0
    0.1608   -0.3671   -2.6599 H   0  0  0  0  0  0  0  0  0  0  0  0
    0.3680   -0.7984   -0.9586 H   0  0  0  0  0  0  0  0  0  0  0  0
    2.9863   -2.3714   -1.1761 H   0  0  0  0  0  0  0  0  0  0  0  0
    2.5961   -1.1433    0.0096 H   0  0  0  0  0  0  0  0  0  0  0  0
    4.9818   -1.3193   -1.8524 H   0  0  0  0  0  0  0  0  0  0  0  0
    4.9928   -2.8192    0.0571 H   0  0  0  0  0  0  0  0  0  0  0  0
    4.8567   -1.4761    1.1949 H   0  0  0  0  0  0  0  0  0  0  0  0
    9.2657   -3.0843    1.7716 H   0  0  0  0  0  0  0  0  0  0  0  0
    9.2612   -1.4691    1.0705 H   0  0  0  0  0  0  0  0  0  0  0  0
   12.0746   -3.0582   -3.7785 H   0  0  0  0  0  0  0  0  0  0  0  0
   12.0549   -1.7287   -2.6314 H   0  0  0  0  0  0  0  0  0  0  0  0
   10.0389   -1.6589   -4.1180 H   0  0  0  0  0  0  0  0  0  0  0  0
    9.4937   -1.9812   -2.4766 H   0  0  0  0  0  0  0  0  0  0  0  0
    9.1308   -5.5577   -3.2813 H   0  0  0  0  0  0  0  0  0  0  0  0
    8.8142   -4.4146   -1.9913 H   0  0  0  0  0  0  0  0  0  0  0  0
   11.5443   -5.3373   -3.0858 H   0  0  0  0  0  0  0  0  0  0  0  0
   10.9291   -5.6697   -1.4733 H   0  0  0  0  0  0  0  0  0  0  0  0
    8.2159   -0.1858   -0.0989 H   0  0  0  0  0  0  0  0  0  0  0  0
    7.0209    0.2279    1.1413 H   0  0  0  0  0  0  0  0  0  0  0  0
    6.7410    0.2825   -1.9046 H   0  0  0  0  0  0  0  0  0  0  0  0
    6.7433    1.6590   -0.8453 H   0  0  0  0  0  0  0  0  0  0  0  0
    4.6198    1.1303    1.0758 H   0  0  0  0  0  0  0  0  0  0  0  0
    3.1871    1.2467    0.0545 H   0  0  0  0  0  0  0  0  0  0  0  0
    4.8587    2.8836   -2.2665 H   0  0  0  0  0  0  0  0  0  0  0  0
    5.3751    5.2954   -2.4318 H   0  0  0  0  0  0  0  0  0  0  0  0
    5.2329    6.7496   -0.4142 H   0  0  0  0  0  0  0  0  0  0  0  0
    3.9956    3.3985    1.9339 H   0  0  0  0  0  0  0  0  0  0  0  0
  1  2  1  0  0  0  0
  1 32  1  0  0  0  0
  1 33  1  0  0  0  0
  1 34  1  0  0  0  0
  2  3  1  0  0  0  0
  2  4  1  0  0  0  0
  2 35  1  0  0  0  0
  3 36  1  0  0  0  0
  3 37  1  0  0  0  0
  3 38  1  0  0  0  0
  4  5  1  0  0  0  0
  4 39  1  0  0  0  0
  4 40  1  0  0  0  0
  5  6  1  0  0  0  0
  5 23  1  0  0  0  0
  5 41  1  6  0  0  0
  6  7  1  0  0  0  0
  6 42  1  0  0  0  0
  6 43  1  0  0  0  0
  7  8  1  0  0  0  0
  7 21  1  0  0  0  0
  8  9  2  0  0  0  0
  8 10  1  0  0  0  0
 10 11  1  0  0  0  0
 10 44  1  0  0  0  0
 10 45  1  0  0  0  0
 11 12  1  0  0  0  0
 12 13  2  0  0  0  0
 12 14  2  0  0  0  0
 12 15  1  0  0  0  0
 15 16  1  0  0  0  0
 15 20  1  0  0  0  0
 16 17  1  0  0  0  0
 16 46  1  0  0  0  0
 16 47  1  0  0  0  0
 17 18  1  0  0  0  0
 17 48  1  0  0  0  0
 17 49  1  0  0  0  0
 18 19  1  0  0  0  0
 19 20  1  0  0  0  0
 19 50  1  0  0  0  0
 19 51  1  0  0  0  0
 20 52  1  0  0  0  0
 20 53  1  0  0  0  0
 21 22  1  0  0  0  0
 21 54  1  0  0  0  0
 21 55  1  0  0  0  0
 22 23  1  0  0  0  0
 22 56  1  0  0  0  0
 22 57  1  0  0  0  0
 23 24  1  0  0  0  0
 24 25  1  0  0  0  0
 24 58  1  0  0  0  0
 24 59  1  0  0  0  0
 25 26  1  0  0  0  0
 25 31  2  0  0  0  0
 26 27  2  0  0  0  0
 26 60  1  0  0  0  0
 27 28  1  0  0  0  0
 27 61  1  0  0  0  0
 28 29  2  0  0  0  0
 28 62  1  0  0  0  0
 29 30  1  0  0  0  0
 29 31  1  0  0  0  0
 31 63  1  0  0  0  0
M  END
$$$$
