
 OpenBabel07202414133D

 49 51  0  0  0  0  0  0  0  0999 V2000
    6.4865    1.2306    1.3989 C   0  0  0  0  0  0  0  0  0  0  0  0
    5.7567    1.3177    2.7307 C   0  0  0  0  0  0  0  0  0  0  0  0
    4.2640    1.3803    2.4939 C   0  0  0  0  0  0  0  0  0  0  0  0
    3.7220    2.6638    2.2542 C   0  0  0  0  0  0  0  0  0  0  0  0
    2.4465    2.8195    1.7269 C   0  0  0  0  0  0  0  0  0  0  0  0
    1.7007    1.6922    1.4033 C   0  0  0  0  0  0  0  0  0  0  0  0
    2.2154    0.3976    1.6924 C   0  0  0  0  0  0  0  0  0  0  0  0
    3.4843    0.2194    2.2738 C   0  0  0  0  0  0  0  0  0  0  0  0
    3.9649   -1.0948    2.6030 N   0  0  0  0  0  0  0  0  0  0  0  0
    4.2841   -1.4142    4.0080 C   0  0  0  0  0  0  0  0  0  0  0  0
    3.6764   -0.5924    5.1400 C   0  0  0  0  0  0  0  0  0  0  0  0
    3.9488   -2.1314    1.6412 C   0  0  0  0  0  0  0  0  0  0  0  0
    3.3552   -2.0915    0.5827 O   0  0  0  0  0  0  0  0  0  0  0  0
    4.6978   -3.2771    2.0360 N   0  0  0  0  0  0  0  0  0  0  0  0
    4.2501   -4.5814    1.9414 C   0  0  0  0  0  0  0  0  0  0  0  0
    3.1438   -4.9792    1.2730 C   0  0  0  0  0  0  0  0  0  0  0  0
    2.3262   -5.9443    1.8646 N   0  0  0  0  0  0  0  0  0  0  0  0
    2.5485   -6.2455    3.1964 C   0  0  0  0  0  0  0  0  0  0  0  0
    1.7167   -6.3460    4.0834 O   0  0  0  0  0  0  0  0  0  0  0  0
    3.9667   -6.5310    3.4125 C   0  0  0  0  0  0  0  0  0  0  0  0
    4.8655   -5.6505    2.7985 C   0  0  0  0  0  0  0  0  0  0  0  0
    6.2135   -6.0061    2.8235 C   0  0  0  0  0  0  0  0  0  0  0  0
    6.6007   -7.2593    3.3453 C   0  0  0  0  0  0  0  0  0  0  0  0
    5.6505   -8.1642    3.8520 C   0  0  0  0  0  0  0  0  0  0  0  0
    4.3203   -7.7856    3.9043 C   0  0  0  0  0  0  0  0  0  0  0  0
    1.6432   -6.9604    1.0982 C   0  0  0  0  0  0  0  0  0  0  0  0
    7.5697    1.1904    1.5524 H   0  0  0  0  0  0  0  0  0  0  0  0
    6.2675    2.0992    0.7681 H   0  0  0  0  0  0  0  0  0  0  0  0
    6.1887    0.3361    0.8412 H   0  0  0  0  0  0  0  0  0  0  0  0
    6.0854    2.2201    3.2742 H   0  0  0  0  0  0  0  0  0  0  0  0
    6.0366    0.4777    3.3712 H   0  0  0  0  0  0  0  0  0  0  0  0
    4.3301    3.5536    2.4245 H   0  0  0  0  0  0  0  0  0  0  0  0
    2.0583    3.8094    1.5143 H   0  0  0  0  0  0  0  0  0  0  0  0
    0.7263    1.7991    0.9449 H   0  0  0  0  0  0  0  0  0  0  0  0
    1.5931   -0.4508    1.4390 H   0  0  0  0  0  0  0  0  0  0  0  0
    5.3776   -1.4344    4.1069 H   0  0  0  0  0  0  0  0  0  0  0  0
    3.9411   -2.4404    4.1939 H   0  0  0  0  0  0  0  0  0  0  0  0
    3.9618    0.4599    5.1077 H   0  0  0  0  0  0  0  0  0  0  0  0
    4.0356   -0.9983    6.0929 H   0  0  0  0  0  0  0  0  0  0  0  0
    2.5851   -0.6668    5.1438 H   0  0  0  0  0  0  0  0  0  0  0  0
    5.4285   -3.1129    2.6956 H   0  0  0  0  0  0  0  0  0  0  0  0
    2.6867   -4.4386    0.4509 H   0  0  0  0  0  0  0  0  0  0  0  0
    6.9703   -5.3859    2.3542 H   0  0  0  0  0  0  0  0  0  0  0  0
    7.6431   -7.5699    3.3122 H   0  0  0  0  0  0  0  0  0  0  0  0
    5.9425   -9.1695    4.1500 H   0  0  0  0  0  0  0  0  0  0  0  0
    3.5503   -8.4854    4.2255 H   0  0  0  0  0  0  0  0  0  0  0  0
    0.8382   -6.5335    0.5017 H   0  0  0  0  0  0  0  0  0  0  0  0
    1.2389   -7.7214    1.7794 H   0  0  0  0  0  0  0  0  0  0  0  0
    2.3774   -7.4689    0.4615 H   0  0  0  0  0  0  0  0  0  0  0  0
  1  2  1  0  0  0  0
  1 27  1  0  0  0  0
  1 28  1  0  0  0  0
  1 29  1  0  0  0  0
  2  3  1  0  0  0  0
  2 30  1  0  0  0  0
  2 31  1  0  0  0  0
  3  4  1  0  0  0  0
  3  8  2  0  0  0  0
  4  5  2  0  0  0  0
  4 32  1  0  0  0  0
  5  6  1  0  0  0  0
  5 33  1  0  0  0  0
  6  7  2  0  0  0  0
  6 34  1  0  0  0  0
  7  8  1  0  0  0  0
  7 35  1  0  0  0  0
  8  9  1  0  0  0  0
  9 10  1  0  0  0  0
  9 12  1  0  0  0  0
 10 11  1  0  0  0  0
 10 36  1  0  0  0  0
 10 37  1  0  0  0  0
 11 38  1  0  0  0  0
 11 39  1  0  0  0  0
 11 40  1  0  0  0  0
 12 13  2  0  0  0  0
 12 14  1  0  0  0  0
 14 15  1  0  0  0  0
 14 41  1  0  0  0  0
 15 16  2  0  0  0  0
 15 21  1  0  0  0  0
 16 17  1  0  0  0  0
 16 42  1  0  0  0  0
 17 18  1  0  0  0  0
 17 26  1  0  0  0  0
 18 19  2  0  0  0  0
 18 20  1  0  0  0  0
 20 21  1  0  0  0  0
 20 25  2  0  0  0  0
 21 22  2  0  0  0  0
 22 23  1  0  0  0  0
 22 43  1  0  0  0  0
 23 24  2  0  0  0  0
 23 44  1  0  0  0  0
 24 25  1  0  0  0  0
 24 45  1  0  0  0  0
 25 46  1  0  0  0  0
 26 47  1  0  0  0  0
 26 48  1  0  0  0  0
 26 49  1  0  0  0  0
M  END
$$$$
