
 OpenBabel07202414183D

 56 60  0  0  1  0  0  0  0  0999 V2000
    0.9852   -0.0278    0.0236 Cl  0  0  0  0  0  0  0  0  0  0  0  0
    2.6992   -0.0469    0.1667 C   0  0  0  0  0  0  0  0  0  0  0  0
    3.4153    1.1384    0.0381 C   0  0  0  0  0  0  0  0  0  0  0  0
    4.8071    1.1195    0.1288 C   0  0  0  0  0  0  0  0  0  0  0  0
    5.4963   -0.0838    0.3558 C   0  0  0  0  0  0  0  0  0  0  0  0
    4.7663   -1.2787    0.4983 C   0  0  0  0  0  0  0  0  0  0  0  0
    3.3636   -1.2495    0.3981 C   0  0  0  0  0  0  0  0  0  0  0  0
    5.4843   -2.5936    0.7682 C   0  0  2  0  0  0  0  0  0  0  0  0
    5.3700   -3.0092    2.2613 C   0  0  0  0  0  0  0  0  0  0  0  0
    4.3858   -2.6923    2.9301 O   0  0  0  0  0  0  0  0  0  0  0  0
    6.3663   -3.8441    2.7298 N   0  0  0  0  0  0  0  0  0  0  0  0
    6.5315   -4.3588    4.0444 C   0  0  0  0  0  0  0  0  0  0  0  0
    5.6400   -4.1122    5.0882 C   0  0  0  0  0  0  0  0  0  0  0  0
    5.8954   -4.3906    6.3885 N   0  0  0  0  0  0  0  0  0  0  0  0
    7.0625   -5.0103    6.6560 C   0  0  0  0  0  0  0  0  0  0  0  0
    7.9561   -5.4606    5.6863 C   0  0  0  0  0  0  0  0  0  0  0  0
    9.0752   -6.2410    6.0316 C   0  0  0  0  0  0  0  0  0  0  0  0
    9.9484   -6.7075    5.0518 C   0  0  0  0  0  0  0  0  0  0  0  0
    9.7322   -6.3724    3.7233 C   0  0  0  0  0  0  0  0  0  0  0  0
    8.6283   -5.5922    3.3713 C   0  0  0  0  0  0  0  0  0  0  0  0
    7.6986   -5.1234    4.3381 C   0  0  0  0  0  0  0  0  0  0  0  0
    6.8941   -2.5214    0.1559 C   0  0  0  0  0  0  0  0  0  0  0  0
    7.6781   -1.3546    0.6810 N   0  0  0  0  0  0  0  0  0  0  0  0
    9.3417   -1.3982    0.2515 S   0  0  0  0  0  0  0  0  0  0  0  0
    9.7244   -2.7925    0.2347 O   0  0  0  0  0  0  0  0  0  0  0  0
    9.5414   -0.5459   -0.8976 O   0  0  0  0  0  0  0  0  0  0  0  0
   10.1428   -0.6404    1.6611 C   0  0  0  0  0  0  0  0  0  0  0  0
   11.6388   -0.4548    1.3963 C   0  0  0  0  0  0  0  0  0  0  0  0
   12.3456   -1.6985    1.1022 C   0  0  0  0  0  0  0  0  0  0  0  0
   12.9378   -2.6677    0.9022 N   0  0  0  0  0  0  0  0  0  0  0  0
   12.3634    0.3678    2.4981 C   0  0  0  0  0  0  0  0  0  0  0  0
   13.0403    1.1591    1.4536 N   0  0  0  0  0  0  0  0  0  0  0  0
   12.0204    0.7365    0.4736 C   0  0  0  0  0  0  0  0  0  0  0  0
    7.0112   -0.0633    0.3230 C   0  0  0  0  0  0  0  0  0  0  0  0
    2.8987    2.0765   -0.1438 H   0  0  0  0  0  0  0  0  0  0  0  0
    5.3554    2.0513   -0.0002 H   0  0  0  0  0  0  0  0  0  0  0  0
    2.7880   -2.1663    0.5113 H   0  0  0  0  0  0  0  0  0  0  0  0
    4.9551   -3.3860    0.2193 H   0  0  0  0  0  0  0  0  0  0  0  0
    7.1699   -3.9739    2.1407 H   0  0  0  0  0  0  0  0  0  0  0  0
    4.6667   -3.6583    4.9342 H   0  0  0  0  0  0  0  0  0  0  0  0
    7.2630   -5.1484    7.7158 H   0  0  0  0  0  0  0  0  0  0  0  0
    9.2543   -6.5192    7.0682 H   0  0  0  0  0  0  0  0  0  0  0  0
   10.7895   -7.3400    5.3231 H   0  0  0  0  0  0  0  0  0  0  0  0
   10.4115   -6.7271    2.9514 H   0  0  0  0  0  0  0  0  0  0  0  0
    8.4976   -5.3977    2.3106 H   0  0  0  0  0  0  0  0  0  0  0  0
    6.8215   -2.4296   -0.9361 H   0  0  0  0  0  0  0  0  0  0  0  0
    7.4277   -3.4555    0.3456 H   0  0  0  0  0  0  0  0  0  0  0  0
    9.9668   -1.2869    2.5263 H   0  0  0  0  0  0  0  0  0  0  0  0
    9.6547    0.3235    1.8341 H   0  0  0  0  0  0  0  0  0  0  0  0
   13.0449   -0.1832    3.1563 H   0  0  0  0  0  0  0  0  0  0  0  0
   11.7109    0.9768    3.1346 H   0  0  0  0  0  0  0  0  0  0  0  0
   13.9847    0.8294    1.2315 H   0  0  0  0  0  0  0  0  0  0  0  0
   12.4203    0.4907   -0.5164 H   0  0  0  0  0  0  0  0  0  0  0  0
   11.2369    1.4921    0.3414 H   0  0  0  0  0  0  0  0  0  0  0  0
    7.2733    0.2105   -0.7061 H   0  0  0  0  0  0  0  0  0  0  0  0
    7.3722    0.7149    1.0041 H   0  0  0  0  0  0  0  0  0  0  0  0
  1  2  1  0  0  0  0
  2  3  1  0  0  0  0
  2  7  2  0  0  0  0
  3  4  2  0  0  0  0
  3 35  1  0  0  0  0
  4  5  1  0  0  0  0
  4 36  1  0  0  0  0
  5  6  2  0  0  0  0
  5 34  1  0  0  0  0
  6  7  1  0  0  0  0
  6  8  1  0  0  0  0
  7 37  1  0  0  0  0
  8  9  1  0  0  0  0
  8 22  1  0  0  0  0
  8 38  1  6  0  0  0
  9 10  2  0  0  0  0
  9 11  1  0  0  0  0
 11 12  1  0  0  0  0
 11 39  1  0  0  0  0
 12 13  1  0  0  0  0
 12 21  2  0  0  0  0
 13 14  2  0  0  0  0
 13 40  1  0  0  0  0
 14 15  1  0  0  0  0
 15 16  2  0  0  0  0
 15 41  1  0  0  0  0
 16 17  1  0  0  0  0
 16 21  1  0  0  0  0
 17 18  2  0  0  0  0
 17 42  1  0  0  0  0
 18 19  1  0  0  0  0
 18 43  1  0  0  0  0
 19 20  2  0  0  0  0
 19 44  1  0  0  0  0
 20 21  1  0  0  0  0
 20 45  1  0  0  0  0
 22 23  1  0  0  0  0
 22 46  1  0  0  0  0
 22 47  1  0  0  0  0
 23 24  1  0  0  0  0
 23 34  1  0  0  0  0
 24 25  2  0  0  0  0
 24 26  2  0  0  0  0
 24 27  1  0  0  0  0
 27 28  1  0  0  0  0
 27 48  1  0  0  0  0
 27 49  1  0  0  0  0
 28 29  1  0  0  0  0
 28 31  1  0  0  0  0
 28 33  1  0  0  0  0
 29 30  3  0  0  0  0
 31 32  1  0  0  0  0
 31 50  1  0  0  0  0
 31 51  1  0  0  0  0
 32 33  1  0  0  0  0
 32 52  1  0  0  0  0
 33 53  1  0  0  0  0
 33 54  1  0  0  0  0
 34 55  1  0  0  0  0
 34 56  1  0  0  0  0
M  END
$$$$
