
 OpenBabel07202414113D

 45 48  0  0  1  0  0  0  0  0999 V2000
    1.0268   -0.8208   -0.0102 C   0  0  0  0  0  0  0  0  0  0  0  0
    2.3688   -0.7799    0.0188 C   0  0  0  0  0  0  0  0  0  0  0  0
    3.0588   -0.1767    1.2027 C   0  0  0  0  0  0  0  0  0  0  0  0
    2.3729    0.3129    2.1006 O   0  0  0  0  0  0  0  0  0  0  0  0
    4.4556   -0.1912    1.2152 N   0  0  0  0  0  0  0  0  0  0  0  0
    5.1930   -0.0662   -0.0226 C   0  0  0  0  0  0  0  0  0  0  0  0
    6.1853   -1.0000   -0.3412 C   0  0  0  0  0  0  0  0  0  0  0  0
    6.8869   -1.0131   -1.4969 N   0  0  0  0  0  0  0  0  0  0  0  0
    6.6098   -0.0332   -2.3819 C   0  0  0  0  0  0  0  0  0  0  0  0
    5.6556    0.9649   -2.1845 C   0  0  0  0  0  0  0  0  0  0  0  0
    4.9360    0.9738   -0.9646 C   0  0  0  0  0  0  0  0  0  0  0  0
    4.0389    2.0535   -0.7596 C   0  0  0  0  0  0  0  0  0  0  0  0
    3.8013    3.0140   -1.7461 C   0  0  0  0  0  0  0  0  0  0  0  0
    4.4801    2.9509   -2.9551 C   0  0  0  0  0  0  0  0  0  0  0  0
    5.4177    1.9446   -3.1667 C   0  0  0  0  0  0  0  0  0  0  0  0
    5.2097   -0.3174    2.4041 C   0  0  0  0  0  0  0  0  0  0  0  0
    6.4456   -0.2591    2.4028 O   0  0  0  0  0  0  0  0  0  0  0  0
    4.4570   -0.4808    3.7451 C   0  0  2  0  0  0  0  0  0  0  0  0
    4.1303    0.8911    4.3457 C   0  0  0  0  0  0  0  0  0  0  0  0
    5.3491    1.4564    5.0555 C   0  0  0  0  0  0  0  0  0  0  0  0
    5.7746    0.6346    6.1408 O   0  0  0  0  0  0  0  0  0  0  0  0
    5.8418   -0.7025    5.8638 C   0  0  0  0  0  0  0  0  0  0  0  0
    5.2349   -1.3034    4.7546 C   0  0  0  0  0  0  0  0  0  0  0  0
    5.3235   -2.6981    4.6045 C   0  0  0  0  0  0  0  0  0  0  0  0
    6.0046   -3.4653    5.5502 C   0  0  0  0  0  0  0  0  0  0  0  0
    6.6048   -2.8610    6.6512 C   0  0  0  0  0  0  0  0  0  0  0  0
    6.5183   -1.4780    6.8081 C   0  0  0  0  0  0  0  0  0  0  0  0
    6.0863   -5.1736    5.3614 Cl  0  0  0  0  0  0  0  0  0  0  0  0
    0.4963   -1.2488   -0.8510 H   0  0  0  0  0  0  0  0  0  0  0  0
    0.4269   -0.4276    0.8081 H   0  0  0  0  0  0  0  0  0  0  0  0
    2.9458   -1.1926   -0.7985 H   0  0  0  0  0  0  0  0  0  0  0  0
    6.4280   -1.8227    0.3271 H   0  0  0  0  0  0  0  0  0  0  0  0
    7.2079   -0.0693   -3.2906 H   0  0  0  0  0  0  0  0  0  0  0  0
    3.5169    2.1758    0.1867 H   0  0  0  0  0  0  0  0  0  0  0  0
    3.0902    3.8166   -1.5606 H   0  0  0  0  0  0  0  0  0  0  0  0
    4.2913    3.6943   -3.7265 H   0  0  0  0  0  0  0  0  0  0  0  0
    5.9647    1.9277   -4.1079 H   0  0  0  0  0  0  0  0  0  0  0  0
    3.5270   -1.0334    3.5760 H   0  0  0  0  0  0  0  0  0  0  0  0
    3.3185    0.7716    5.0761 H   0  0  0  0  0  0  0  0  0  0  0  0
    3.7942    1.6060    3.5889 H   0  0  0  0  0  0  0  0  0  0  0  0
    5.0942    2.4347    5.4784 H   0  0  0  0  0  0  0  0  0  0  0  0
    6.1894    1.6161    4.3700 H   0  0  0  0  0  0  0  0  0  0  0  0
    4.8480   -3.1900    3.7599 H   0  0  0  0  0  0  0  0  0  0  0  0
    7.1325   -3.4558    7.3910 H   0  0  0  0  0  0  0  0  0  0  0  0
    6.9761   -1.0002    7.6708 H   0  0  0  0  0  0  0  0  0  0  0  0
  1  2  2  0  0  0  0
  1 29  1  0  0  0  0
  1 30  1  0  0  0  0
  2  3  1  0  0  0  0
  2 31  1  0  0  0  0
  3  4  2  0  0  0  0
  3  5  1  0  0  0  0
  5  6  1  0  0  0  0
  5 16  1  0  0  0  0
  6  7  1  0  0  0  0
  6 11  2  0  0  0  0
  7  8  2  0  0  0  0
  7 32  1  0  0  0  0
  8  9  1  0  0  0  0
  9 10  2  0  0  0  0
  9 33  1  0  0  0  0
 10 11  1  0  0  0  0
 10 15  1  0  0  0  0
 11 12  1  0  0  0  0
 12 13  2  0  0  0  0
 12 34  1  0  0  0  0
 13 14  1  0  0  0  0
 13 35  1  0  0  0  0
 14 15  2  0  0  0  0
 14 36  1  0  0  0  0
 15 37  1  0  0  0  0
 16 17  2  0  0  0  0
 16 18  1  0  0  0  0
 18 19  1  0  0  0  0
 18 23  1  0  0  0  0
 18 38  1  6  0  0  0
 19 20  1  0  0  0  0
 19 39  1  0  0  0  0
 19 40  1  0  0  0  0
 20 21  1  0  0  0  0
 20 41  1  0  0  0  0
 20 42  1  0  0  0  0
 21 22  1  0  0  0  0
 22 23  1  0  0  0  0
 22 27  2  0  0  0  0
 23 24  2  0  0  0  0
 24 25  1  0  0  0  0
 24 43  1  0  0  0  0
 25 26  2  0  0  0  0
 25 28  1  0  0  0  0
 26 27  1  0  0  0  0
 26 44  1  0  0  0  0
 27 45  1  0  0  0  0
M  END
$$$$
