
 OpenBabel07202414203D

 54 58  0  0  0  0  0  0  0  0999 V2000
    5.6192    3.5021    1.3810 O   0  0  0  0  0  0  0  0  0  0  0  0
    5.7426    2.7363    2.5765 C   0  0  0  0  0  0  0  0  0  0  0  0
    5.0921    1.3708    2.3884 C   0  0  0  0  0  0  0  0  0  0  0  0
    5.8243    0.5468    1.4486 N   0  0  0  0  0  0  0  0  0  0  0  0
    5.6154    0.4655    0.0983 C   0  0  0  0  0  0  0  0  0  0  0  0
    6.4650   -0.3596   -0.4826 N   0  0  0  0  0  0  0  0  0  0  0  0
    7.2567   -0.8313    0.5479 C   0  0  0  0  0  0  0  0  0  0  0  0
    6.8587   -0.2867    1.7594 C   0  0  0  0  0  0  0  0  0  0  0  0
    7.3778   -0.5154    2.9751 N   0  0  0  0  0  0  0  0  0  0  0  0
    8.3854   -1.3998    2.9004 C   0  0  0  0  0  0  0  0  0  0  0  0
    8.8860   -1.9961    1.8002 N   0  0  0  0  0  0  0  0  0  0  0  0
    8.3482   -1.7215    0.5750 C   0  0  0  0  0  0  0  0  0  0  0  0
    8.8378   -2.3210   -0.6013 N   0  0  0  0  0  0  0  0  0  0  0  0
    9.9763   -3.1210   -0.8053 C   0  0  0  0  0  0  0  0  0  0  0  0
   10.0254   -3.9999   -1.9077 C   0  0  0  0  0  0  0  0  0  0  0  0
   11.0763   -4.9263   -2.0637 C   0  0  0  0  0  0  0  0  0  0  0  0
   11.0553   -6.0056   -3.1278 C   0  0  0  0  0  0  0  0  0  0  0  0
   11.0828   -5.6654   -4.6054 C   0  0  0  0  0  0  0  0  0  0  0  0
   10.9573   -6.5894   -5.3842 O   0  0  0  0  0  0  0  0  0  0  0  0
   11.3713   -4.3670   -4.9528 N   0  0  0  0  0  0  0  0  0  0  0  0
   11.4181   -3.8114   -6.2595 C   0  0  0  0  0  0  0  0  0  0  0  0
   12.3780   -2.8041   -6.4274 C   0  0  0  0  0  0  0  0  0  0  0  0
   12.5168   -2.0196   -7.5129 N   0  0  0  0  0  0  0  0  0  0  0  0
   11.5881   -2.1891   -8.4695 C   0  0  0  0  0  0  0  0  0  0  0  0
   10.5845   -3.1568   -8.4343 C   0  0  0  0  0  0  0  0  0  0  0  0
    9.6527   -3.2057   -9.4862 C   0  0  0  0  0  0  0  0  0  0  0  0
    8.9167   -4.3581   -9.7100 C   0  0  0  0  0  0  0  0  0  0  0  0
    8.9284   -5.3513   -8.7475 C   0  0  0  0  0  0  0  0  0  0  0  0
    9.6254   -5.1526   -7.5451 C   0  0  0  0  0  0  0  0  0  0  0  0
   10.5478   -4.0842   -7.3696 C   0  0  0  0  0  0  0  0  0  0  0  0
   12.0911   -4.9588   -1.0920 C   0  0  0  0  0  0  0  0  0  0  0  0
   12.0596   -4.0873   -0.0095 C   0  0  0  0  0  0  0  0  0  0  0  0
   13.2813   -4.1795    1.1992 Cl  0  0  0  0  0  0  0  0  0  0  0  0
   11.0201   -3.1756    0.1268 C   0  0  0  0  0  0  0  0  0  0  0  0
    6.1561    4.3063    1.4975 H   0  0  0  0  0  0  0  0  0  0  0  0
    5.2323    3.2848    3.3745 H   0  0  0  0  0  0  0  0  0  0  0  0
    6.8037    2.6478    2.8328 H   0  0  0  0  0  0  0  0  0  0  0  0
    4.0700    1.4693    2.0073 H   0  0  0  0  0  0  0  0  0  0  0  0
    5.0518    0.8334    3.3427 H   0  0  0  0  0  0  0  0  0  0  0  0
    4.8419    1.0349   -0.4028 H   0  0  0  0  0  0  0  0  0  0  0  0
    8.8564   -1.6695    3.8413 H   0  0  0  0  0  0  0  0  0  0  0  0
    8.2741   -2.0953   -1.4146 H   0  0  0  0  0  0  0  0  0  0  0  0
    9.1975   -4.0088   -2.6158 H   0  0  0  0  0  0  0  0  0  0  0  0
   10.1626   -6.6204   -2.9397 H   0  0  0  0  0  0  0  0  0  0  0  0
   11.9234   -6.6612   -2.9686 H   0  0  0  0  0  0  0  0  0  0  0  0
   11.8192   -3.8180   -4.2253 H   0  0  0  0  0  0  0  0  0  0  0  0
   13.1297   -2.6164   -5.6618 H   0  0  0  0  0  0  0  0  0  0  0  0
   11.7121   -1.5432   -9.3362 H   0  0  0  0  0  0  0  0  0  0  0  0
    9.5119   -2.3506  -10.1453 H   0  0  0  0  0  0  0  0  0  0  0  0
    8.3426   -4.4731  -10.6245 H   0  0  0  0  0  0  0  0  0  0  0  0
    8.3714   -6.2718   -8.9104 H   0  0  0  0  0  0  0  0  0  0  0  0
    9.4719   -5.9031   -6.7828 H   0  0  0  0  0  0  0  0  0  0  0  0
   12.8835   -5.7015   -1.1462 H   0  0  0  0  0  0  0  0  0  0  0  0
   11.0274   -2.5113    0.9853 H   0  0  0  0  0  0  0  0  0  0  0  0
  1  2  1  0  0  0  0
  1 35  1  0  0  0  0
  2  3  1  0  0  0  0
  2 36  1  0  0  0  0
  2 37  1  0  0  0  0
  3  4  1  0  0  0  0
  3 38  1  0  0  0  0
  3 39  1  0  0  0  0
  4  5  1  0  0  0  0
  4  8  1  0  0  0  0
  5  6  2  0  0  0  0
  5 40  1  0  0  0  0
  6  7  1  0  0  0  0
  7  8  2  0  0  0  0
  7 12  1  0  0  0  0
  8  9  1  0  0  0  0
  9 10  2  0  0  0  0
 10 11  1  0  0  0  0
 10 41  1  0  0  0  0
 11 12  2  0  0  0  0
 12 13  1  0  0  0  0
 13 14  1  0  0  0  0
 13 42  1  0  0  0  0
 14 15  2  0  0  0  0
 14 34  1  0  0  0  0
 15 16  1  0  0  0  0
 15 43  1  0  0  0  0
 16 17  1  0  0  0  0
 16 31  2  0  0  0  0
 17 18  1  0  0  0  0
 17 44  1  0  0  0  0
 17 45  1  0  0  0  0
 18 19  2  0  0  0  0
 18 20  1  0  0  0  0
 20 21  1  0  0  0  0
 20 46  1  0  0  0  0
 21 22  2  0  0  0  0
 21 30  1  0  0  0  0
 22 23  1  0  0  0  0
 22 47  1  0  0  0  0
 23 24  2  0  0  0  0
 24 25  1  0  0  0  0
 24 48  1  0  0  0  0
 25 26  2  0  0  0  0
 25 30  1  0  0  0  0
 26 27  1  0  0  0  0
 26 49  1  0  0  0  0
 27 28  2  0  0  0  0
 27 50  1  0  0  0  0
 28 29  1  0  0  0  0
 28 51  1  0  0  0  0
 29 30  2  0  0  0  0
 29 52  1  0  0  0  0
 31 32  1  0  0  0  0
 31 53  1  0  0  0  0
 32 33  1  0  0  0  0
 32 34  2  0  0  0  0
 34 54  1  0  0  0  0
M  END
$$$$
