
 OpenBabel07202414153D

 46 49  0  0  1  0  0  0  0  0999 V2000
    4.5000    0.2742    1.0401 C   0  0  0  0  0  0  0  0  0  0  0  0
    3.2815   -0.1337   -0.1972 S   0  0  0  0  0  0  0  0  0  0  0  0
    3.2388   -1.5765   -0.3209 O   0  0  0  0  0  0  0  0  0  0  0  0
    2.0859    0.6315    0.0878 O   0  0  0  0  0  0  0  0  0  0  0  0
    3.9598    0.4799   -1.6197 N   0  0  0  0  0  0  0  0  0  0  0  0
    5.2420   -0.1125   -2.0873 C   0  0  0  0  0  0  0  0  0  0  0  0
    5.4376    0.1715   -3.5856 C   0  0  2  0  0  0  0  0  0  0  0  0
    6.8030   -0.4014   -4.0125 C   0  0  0  0  0  0  0  0  0  0  0  0
    7.8401   -0.1166   -3.4202 O   0  0  0  0  0  0  0  0  0  0  0  0
    6.7065   -1.2309   -5.1200 N   0  0  0  0  0  0  0  0  0  0  0  0
    7.7466   -1.7926   -5.9124 C   0  0  0  0  0  0  0  0  0  0  0  0
    9.1012   -1.5385   -5.6940 C   0  0  0  0  0  0  0  0  0  0  0  0
   10.0917   -1.9055   -6.5434 N   0  0  0  0  0  0  0  0  0  0  0  0
    9.7266   -2.5975   -7.6437 C   0  0  0  0  0  0  0  0  0  0  0  0
    8.4264   -3.0177   -7.9163 C   0  0  0  0  0  0  0  0  0  0  0  0
    8.1392   -3.8318   -9.0296 C   0  0  0  0  0  0  0  0  0  0  0  0
    6.8403   -4.2720   -9.2759 C   0  0  0  0  0  0  0  0  0  0  0  0
    5.8132   -3.8888   -8.4282 C   0  0  0  0  0  0  0  0  0  0  0  0
    6.0869   -3.0696   -7.3266 C   0  0  0  0  0  0  0  0  0  0  0  0
    7.3946   -2.6059   -7.0366 C   0  0  0  0  0  0  0  0  0  0  0  0
    5.2538    1.6518   -3.9119 C   0  0  0  0  0  0  0  0  0  0  0  0
    5.7303    2.2077   -5.1116 C   0  0  0  0  0  0  0  0  0  0  0  0
    5.4740    3.5458   -5.4278 C   0  0  0  0  0  0  0  0  0  0  0  0
    6.0504    4.2004   -6.9112 Cl  0  0  0  0  0  0  0  0  0  0  0  0
    4.7412    4.3526   -4.5649 C   0  0  0  0  0  0  0  0  0  0  0  0
    4.2499    3.8151   -3.3797 C   0  0  0  0  0  0  0  0  0  0  0  0
    4.4863    2.4680   -3.0524 C   0  0  0  0  0  0  0  0  0  0  0  0
    3.9060    1.9475   -1.7567 C   0  0  0  0  0  0  0  0  0  0  0  0
    4.1190   -0.0682    2.0045 H   0  0  0  0  0  0  0  0  0  0  0  0
    4.6458    1.3545    1.0717 H   0  0  0  0  0  0  0  0  0  0  0  0
    5.4309   -0.2457    0.8096 H   0  0  0  0  0  0  0  0  0  0  0  0
    5.2243   -1.1989   -1.9400 H   0  0  0  0  0  0  0  0  0  0  0  0
    6.0659    0.2920   -1.4885 H   0  0  0  0  0  0  0  0  0  0  0  0
    4.6384   -0.3529   -4.1274 H   0  0  0  0  0  0  0  0  0  0  0  0
    5.7750   -1.3815   -5.4738 H   0  0  0  0  0  0  0  0  0  0  0  0
    9.4636   -1.0054   -4.8200 H   0  0  0  0  0  0  0  0  0  0  0  0
   10.5433   -2.8224   -8.3259 H   0  0  0  0  0  0  0  0  0  0  0  0
    8.9340   -4.1512   -9.7015 H   0  0  0  0  0  0  0  0  0  0  0  0
    6.6318   -4.9236  -10.1209 H   0  0  0  0  0  0  0  0  0  0  0  0
    4.7996   -4.2322   -8.6046 H   0  0  0  0  0  0  0  0  0  0  0  0
    5.2481   -2.8335   -6.6814 H   0  0  0  0  0  0  0  0  0  0  0  0
    6.2973    1.6076   -5.8187 H   0  0  0  0  0  0  0  0  0  0  0  0
    4.5378    5.3913   -4.8114 H   0  0  0  0  0  0  0  0  0  0  0  0
    3.6631    4.4472   -2.7145 H   0  0  0  0  0  0  0  0  0  0  0  0
    2.8554    2.2615   -1.7181 H   0  0  0  0  0  0  0  0  0  0  0  0
    4.4500    2.4192   -0.9319 H   0  0  0  0  0  0  0  0  0  0  0  0
  1  2  1  0  0  0  0
  1 29  1  0  0  0  0
  1 30  1  0  0  0  0
  1 31  1  0  0  0  0
  2  3  2  0  0  0  0
  2  4  2  0  0  0  0
  2  5  1  0  0  0  0
  5  6  1  0  0  0  0
  5 28  1  0  0  0  0
  6  7  1  0  0  0  0
  6 32  1  0  0  0  0
  6 33  1  0  0  0  0
  7 21  1  0  0  0  0
  7  8  1  0  0  0  0
  7 34  1  6  0  0  0
  8  9  2  0  0  0  0
  8 10  1  0  0  0  0
 10 11  1  0  0  0  0
 10 35  1  0  0  0  0
 11 12  1  0  0  0  0
 11 20  2  0  0  0  0
 12 13  2  0  0  0  0
 12 36  1  0  0  0  0
 13 14  1  0  0  0  0
 14 15  2  0  0  0  0
 14 37  1  0  0  0  0
 15 16  1  0  0  0  0
 15 20  1  0  0  0  0
 16 17  2  0  0  0  0
 16 38  1  0  0  0  0
 17 18  1  0  0  0  0
 17 39  1  0  0  0  0
 18 19  2  0  0  0  0
 18 40  1  0  0  0  0
 19 20  1  0  0  0  0
 19 41  1  0  0  0  0
 21 22  1  0  0  0  0
 21 27  2  0  0  0  0
 22 23  2  0  0  0  0
 22 42  1  0  0  0  0
 23 24  1  0  0  0  0
 23 25  1  0  0  0  0
 25 26  2  0  0  0  0
 25 43  1  0  0  0  0
 26 27  1  0  0  0  0
 26 44  1  0  0  0  0
 27 28  1  0  0  0  0
 28 45  1  0  0  0  0
 28 46  1  0  0  0  0
M  END
$$$$
