
 OpenBabel07202414123D

 56 60  0  0  1  0  0  0  0  0999 V2000
    6.8010   -0.5613    0.3416 C   0  0  0  0  0  0  0  0  0  0  0  0
    5.8679   -1.7024    0.6769 C   0  0  0  0  0  0  0  0  0  0  0  0
    5.2580   -1.6911    2.0710 C   0  0  0  0  0  0  0  0  0  0  0  0
    4.1851   -0.2582    2.2616 S   0  0  0  0  0  0  0  0  0  0  0  0
    4.9456    0.9529    2.0254 O   0  0  0  0  0  0  0  0  0  0  0  0
    2.9237   -0.4953    1.5941 O   0  0  0  0  0  0  0  0  0  0  0  0
    3.8724   -0.2934    3.9442 N   0  0  0  0  0  0  0  0  0  0  0  0
    2.9762   -1.3743    4.4611 C   0  0  0  0  0  0  0  0  0  0  0  0
    3.2206   -1.5078    5.9796 C   0  0  2  0  0  0  0  0  0  0  0  0
    2.3914   -2.6782    6.5388 C   0  0  0  0  0  0  0  0  0  0  0  0
    1.3414   -3.0396    6.0298 O   0  0  0  0  0  0  0  0  0  0  0  0
    2.9984   -3.2452    7.6556 N   0  0  0  0  0  0  0  0  0  0  0  0
    2.6246   -4.4058    8.3808 C   0  0  0  0  0  0  0  0  0  0  0  0
    1.5899   -5.2514    7.9871 C   0  0  0  0  0  0  0  0  0  0  0  0
    1.3573   -6.4710    8.5290 N   0  0  0  0  0  0  0  0  0  0  0  0
    2.1428   -6.8367    9.5635 C   0  0  0  0  0  0  0  0  0  0  0  0
    3.1007   -6.0149   10.1530 C   0  0  0  0  0  0  0  0  0  0  0  0
    3.7617   -6.3993   11.3354 C   0  0  0  0  0  0  0  0  0  0  0  0
    4.6722   -5.5447   11.9514 C   0  0  0  0  0  0  0  0  0  0  0  0
    4.9726   -4.3245   11.3635 C   0  0  0  0  0  0  0  0  0  0  0  0
    4.3439   -3.9473   10.1730 C   0  0  0  0  0  0  0  0  0  0  0  0
    3.3686   -4.7667    9.5446 C   0  0  0  0  0  0  0  0  0  0  0  0
    3.0335   -0.1669    6.6948 C   0  0  0  0  0  0  0  0  0  0  0  0
    2.8383   -0.0711    8.0848 C   0  0  0  0  0  0  0  0  0  0  0  0
    2.7888    1.1719    8.7192 C   0  0  0  0  0  0  0  0  0  0  0  0
    2.6058    1.2453   10.4287 Cl  0  0  0  0  0  0  0  0  0  0  0  0
    2.9123    2.3453    7.9872 C   0  0  0  0  0  0  0  0  0  0  0  0
    3.1019    2.2756    6.6097 C   0  0  0  0  0  0  0  0  0  0  0  0
    3.1871    1.0317    5.9586 C   0  0  0  0  0  0  0  0  0  0  0  0
    3.4338    1.0289    4.4615 C   0  0  0  0  0  0  0  0  0  0  0  0
    6.2787   -3.0740    0.1669 C   0  0  0  0  0  0  0  0  0  0  0  0
    5.1279   -2.3584   -0.4738 C   0  0  0  0  0  0  0  0  0  0  0  0
    7.3659   -0.2440    1.2240 H   0  0  0  0  0  0  0  0  0  0  0  0
    6.2415    0.2944   -0.0493 H   0  0  0  0  0  0  0  0  0  0  0  0
    7.5288   -0.8429   -0.4275 H   0  0  0  0  0  0  0  0  0  0  0  0
    6.0445   -1.6271    2.8278 H   0  0  0  0  0  0  0  0  0  0  0  0
    4.6444   -2.5801    2.2438 H   0  0  0  0  0  0  0  0  0  0  0  0
    3.2114   -2.3264    3.9746 H   0  0  0  0  0  0  0  0  0  0  0  0
    1.9293   -1.1325    4.2375 H   0  0  0  0  0  0  0  0  0  0  0  0
    4.2816   -1.7695    6.1065 H   0  0  0  0  0  0  0  0  0  0  0  0
    3.8657   -2.8175    7.9483 H   0  0  0  0  0  0  0  0  0  0  0  0
    0.8966   -4.9956    7.1927 H   0  0  0  0  0  0  0  0  0  0  0  0
    1.9589   -7.8430    9.9333 H   0  0  0  0  0  0  0  0  0  0  0  0
    3.5357   -7.3528   11.8096 H   0  0  0  0  0  0  0  0  0  0  0  0
    5.1332   -5.8239   12.8956 H   0  0  0  0  0  0  0  0  0  0  0  0
    5.6804   -3.6503   11.8403 H   0  0  0  0  0  0  0  0  0  0  0  0
    4.6011   -2.9680    9.7813 H   0  0  0  0  0  0  0  0  0  0  0  0
    2.7327   -0.9550    8.7062 H   0  0  0  0  0  0  0  0  0  0  0  0
    2.8708    3.3130    8.4804 H   0  0  0  0  0  0  0  0  0  0  0  0
    3.2041    3.2004    6.0441 H   0  0  0  0  0  0  0  0  0  0  0  0
    4.2252    1.7614    4.2642 H   0  0  0  0  0  0  0  0  0  0  0  0
    2.5143    1.3466    3.9553 H   0  0  0  0  0  0  0  0  0  0  0  0
    6.0542   -3.9511    0.7650 H   0  0  0  0  0  0  0  0  0  0  0  0
    7.2004   -3.1696   -0.3978 H   0  0  0  0  0  0  0  0  0  0  0  0
    4.1288   -2.7470   -0.3091 H   0  0  0  0  0  0  0  0  0  0  0  0
    5.2771   -1.9722   -1.4781 H   0  0  0  0  0  0  0  0  0  0  0  0
  1  2  1  0  0  0  0
  1 33  1  0  0  0  0
  1 34  1  0  0  0  0
  1 35  1  0  0  0  0
  2  3  1  0  0  0  0
  2 31  1  0  0  0  0
  2 32  1  0  0  0  0
  3  4  1  0  0  0  0
  3 36  1  0  0  0  0
  3 37  1  0  0  0  0
  4  5  2  0  0  0  0
  4  6  2  0  0  0  0
  4  7  1  0  0  0  0
  7  8  1  0  0  0  0
  7 30  1  0  0  0  0
  8  9  1  0  0  0  0
  8 38  1  0  0  0  0
  8 39  1  0  0  0  0
  9 23  1  0  0  0  0
  9 10  1  0  0  0  0
  9 40  1  1  0  0  0
 10 11  2  0  0  0  0
 10 12  1  0  0  0  0
 12 13  1  0  0  0  0
 12 41  1  0  0  0  0
 13 14  1  0  0  0  0
 13 22  2  0  0  0  0
 14 15  2  0  0  0  0
 14 42  1  0  0  0  0
 15 16  1  0  0  0  0
 16 17  2  0  0  0  0
 16 43  1  0  0  0  0
 17 18  1  0  0  0  0
 17 22  1  0  0  0  0
 18 19  2  0  0  0  0
 18 44  1  0  0  0  0
 19 20  1  0  0  0  0
 19 45  1  0  0  0  0
 20 21  2  0  0  0  0
 20 46  1  0  0  0  0
 21 22  1  0  0  0  0
 21 47  1  0  0  0  0
 23 24  1  0  0  0  0
 23 29  2  0  0  0  0
 24 25  2  0  0  0  0
 24 48  1  0  0  0  0
 25 26  1  0  0  0  0
 25 27  1  0  0  0  0
 27 28  2  0  0  0  0
 27 49  1  0  0  0  0
 28 29  1  0  0  0  0
 28 50  1  0  0  0  0
 29 30  1  0  0  0  0
 30 51  1  0  0  0  0
 30 52  1  0  0  0  0
 31 32  1  0  0  0  0
 31 53  1  0  0  0  0
 31 54  1  0  0  0  0
 32 55  1  0  0  0  0
 32 56  1  0  0  0  0
M  END
$$$$
