
 OpenBabel07202414153D

 39 42  0  0  1  0  0  0  0  0999 V2000
    0.9630   -0.0981    0.0423 C   0  0  0  0  0  0  0  0  0  0  0  0
    2.4953   -0.0712    0.0651 C   0  0  2  0  0  0  0  0  0  0  0  0
    3.0076    1.3481   -0.2539 C   0  0  0  0  0  0  0  0  0  0  0  0
    3.1017    1.6184   -1.7538 C   0  0  0  0  0  0  0  0  0  0  0  0
    4.0343    0.5937   -2.3509 C   0  0  1  0  0  0  0  0  0  0  0  0
    3.5419   -0.7365   -2.1277 N   0  0  0  0  0  0  0  0  0  0  0  0
    3.0842   -1.1870   -0.8280 C   0  0  0  0  0  0  0  0  0  0  0  0
    3.6458   -1.5232   -3.2678 C   0  0  0  0  0  0  0  0  0  0  0  0
    3.3438   -2.7012   -3.3078 O   0  0  0  0  0  0  0  0  0  0  0  0
    4.0410   -0.7008   -4.3048 N   0  0  0  0  0  0  0  0  0  0  0  0
    4.0470   -1.0871   -5.6671 C   0  0  0  0  0  0  0  0  0  0  0  0
    3.3358   -0.3095   -6.5852 C   0  0  0  0  0  0  0  0  0  0  0  0
    3.2457   -0.5637   -7.9075 N   0  0  0  0  0  0  0  0  0  0  0  0
    3.9242   -1.6396   -8.3512 C   0  0  0  0  0  0  0  0  0  0  0  0
    4.6863   -2.4888   -7.5469 C   0  0  0  0  0  0  0  0  0  0  0  0
    5.3858   -3.5724   -8.1066 C   0  0  0  0  0  0  0  0  0  0  0  0
    6.1602   -4.4094   -7.3082 C   0  0  0  0  0  0  0  0  0  0  0  0
    6.2533   -4.1639   -5.9453 C   0  0  0  0  0  0  0  0  0  0  0  0
    5.5718   -3.0810   -5.3807 C   0  0  0  0  0  0  0  0  0  0  0  0
    4.7531   -2.2213   -6.1576 C   0  0  0  0  0  0  0  0  0  0  0  0
    4.1124    0.6031   -3.8689 C   0  0  0  0  0  0  0  0  0  0  0  0
    4.2941    1.6119   -4.5367 O   0  0  0  0  0  0  0  0  0  0  0  0
    0.5570    0.6479    0.7349 H   0  0  0  0  0  0  0  0  0  0  0  0
    0.5896   -1.0760    0.3659 H   0  0  0  0  0  0  0  0  0  0  0  0
    0.5657    0.1085   -0.9552 H   0  0  0  0  0  0  0  0  0  0  0  0
    2.7792   -0.3004    1.1011 H   0  0  0  0  0  0  0  0  0  0  0  0
    4.0058    1.4687    0.1869 H   0  0  0  0  0  0  0  0  0  0  0  0
    2.3697    2.1056    0.2155 H   0  0  0  0  0  0  0  0  0  0  0  0
    3.4743    2.6315   -1.9388 H   0  0  0  0  0  0  0  0  0  0  0  0
    2.1087    1.5558   -2.2169 H   0  0  0  0  0  0  0  0  0  0  0  0
    5.0504    0.6678   -1.9445 H   0  0  0  0  0  0  0  0  0  0  0  0
    3.9478   -1.6440   -0.3309 H   0  0  0  0  0  0  0  0  0  0  0  0
    2.3562   -1.9912   -0.9860 H   0  0  0  0  0  0  0  0  0  0  0  0
    2.7581    0.5546   -6.2683 H   0  0  0  0  0  0  0  0  0  0  0  0
    3.8434   -1.8031   -9.4235 H   0  0  0  0  0  0  0  0  0  0  0  0
    5.3358   -3.7676   -9.1767 H   0  0  0  0  0  0  0  0  0  0  0  0
    6.6919   -5.2479   -7.7500 H   0  0  0  0  0  0  0  0  0  0  0  0
    6.8552   -4.8127   -5.3139 H   0  0  0  0  0  0  0  0  0  0  0  0
    5.6919   -2.9205   -4.3123 H   0  0  0  0  0  0  0  0  0  0  0  0
  1  2  1  0  0  0  0
  1 23  1  0  0  0  0
  1 24  1  0  0  0  0
  1 25  1  0  0  0  0
  2  3  1  0  0  0  0
  2  7  1  0  0  0  0
  2 26  1  1  0  0  0
  3  4  1  0  0  0  0
  3 27  1  0  0  0  0
  3 28  1  0  0  0  0
  4  5  1  0  0  0  0
  4 29  1  0  0  0  0
  4 30  1  0  0  0  0
  5  6  1  0  0  0  0
  5 21  1  0  0  0  0
  5 31  1  1  0  0  0
  6  7  1  0  0  0  0
  6  8  1  0  0  0  0
  7 32  1  0  0  0  0
  7 33  1  0  0  0  0
  8  9  2  0  0  0  0
  8 10  1  0  0  0  0
 10 11  1  0  0  0  0
 10 21  1  0  0  0  0
 11 12  1  0  0  0  0
 11 20  2  0  0  0  0
 12 13  2  0  0  0  0
 12 34  1  0  0  0  0
 13 14  1  0  0  0  0
 14 15  2  0  0  0  0
 14 35  1  0  0  0  0
 15 16  1  0  0  0  0
 15 20  1  0  0  0  0
 16 17  2  0  0  0  0
 16 36  1  0  0  0  0
 17 18  1  0  0  0  0
 17 37  1  0  0  0  0
 18 19  2  0  0  0  0
 18 38  1  0  0  0  0
 19 20  1  0  0  0  0
 19 39  1  0  0  0  0
 21 22  2  0  0  0  0
M  END
$$$$
