
 OpenBabel07202414203D

 36 39  0  0  1  0  0  0  0  0999 V2000
    3.9163   -1.4110   -0.2159 C   0  0  0  0  0  0  0  0  0  0  0  0
    4.2250   -0.0607   -0.3126 C   0  0  0  0  0  0  0  0  0  0  0  0
    3.2055    0.8986   -0.2512 C   0  0  0  0  0  0  0  0  0  0  0  0
    1.8379    0.5394   -0.0990 C   0  0  0  0  0  0  0  0  0  0  0  0
    1.5626   -0.8461    0.0196 C   0  0  0  0  0  0  0  0  0  0  0  0
    2.5920   -1.8024   -0.0417 C   0  0  0  0  0  0  0  0  0  0  0  0
    0.2408   -1.2453    0.1973 C   0  0  0  0  0  0  0  0  0  0  0  0
   -0.8129   -0.4087    0.2496 N   0  0  0  0  0  0  0  0  0  0  0  0
   -0.5442    0.9097    0.1120 C   0  0  0  0  0  0  0  0  0  0  0  0
    0.7313    1.4479   -0.0611 C   0  0  0  0  0  0  0  0  0  0  0  0
    0.9575    2.8461   -0.1714 N   0  0  0  0  0  0  0  0  0  0  0  0
   -0.0013    3.8496   -0.2772 C   0  0  0  0  0  0  0  0  0  0  0  0
   -1.2056    3.6783   -0.4312 O   0  0  0  0  0  0  0  0  0  0  0  0
    0.6082    5.2296   -0.1072 C   0  0  3  0  0  0  0  0  0  0  0  0
   -0.1685    6.3640   -0.7813 C   0  0  0  0  0  0  0  0  0  0  0  0
    0.0295    7.5728    0.0028 O   0  0  0  0  0  0  0  0  0  0  0  0
    0.2525    7.0905    1.2671 C   0  0  0  0  0  0  0  0  0  0  0  0
    0.5343    5.7305    1.2963 C   0  0  0  0  0  0  0  0  0  0  0  0
    0.7122    5.0698    2.4999 C   0  0  0  0  0  0  0  0  0  0  0  0
    0.6188    5.8154    3.6762 C   0  0  0  0  0  0  0  0  0  0  0  0
    0.3845    7.1988    3.6399 C   0  0  0  0  0  0  0  0  0  0  0  0
    0.2005    7.8514    2.4169 C   0  0  0  0  0  0  0  0  0  0  0  0
    0.7878    5.0193    5.1932 Cl  0  0  0  0  0  0  0  0  0  0  0  0
    4.7032   -2.1594   -0.2764 H   0  0  0  0  0  0  0  0  0  0  0  0
    5.2591    0.2491   -0.4407 H   0  0  0  0  0  0  0  0  0  0  0  0
    3.5134    1.9365   -0.3315 H   0  0  0  0  0  0  0  0  0  0  0  0
    2.3663   -2.8635    0.0392 H   0  0  0  0  0  0  0  0  0  0  0  0
   -0.0209   -2.2958    0.3073 H   0  0  0  0  0  0  0  0  0  0  0  0
   -1.4337    1.5268    0.1737 H   0  0  0  0  0  0  0  0  0  0  0  0
    1.9227    3.1411   -0.1900 H   0  0  0  0  0  0  0  0  0  0  0  0
    1.6515    5.2482   -0.4443 H   0  0  0  0  0  0  0  0  0  0  0  0
   -1.2485    6.1805   -0.8492 H   0  0  0  0  0  0  0  0  0  0  0  0
    0.1997    6.5464   -1.7971 H   0  0  0  0  0  0  0  0  0  0  0  0
    0.8939    4.0011    2.5374 H   0  0  0  0  0  0  0  0  0  0  0  0
    0.3306    7.7664    4.5652 H   0  0  0  0  0  0  0  0  0  0  0  0
    0.0026    8.9166    2.3735 H   0  0  0  0  0  0  0  0  0  0  0  0
  1  2  1  0  0  0  0
  1  6  2  0  0  0  0
  1 24  1  0  0  0  0
  2  3  2  0  0  0  0
  2 25  1  0  0  0  0
  3  4  1  0  0  0  0
  3 26  1  0  0  0  0
  4  5  1  0  0  0  0
  4 10  2  0  0  0  0
  5  6  1  0  0  0  0
  5  7  2  0  0  0  0
  6 27  1  0  0  0  0
  7  8  1  0  0  0  0
  7 28  1  0  0  0  0
  8  9  2  0  0  0  0
  9 10  1  0  0  0  0
  9 29  1  0  0  0  0
 10 11  1  0  0  0  0
 11 12  1  0  0  0  0
 11 30  1  0  0  0  0
 12 13  2  0  0  0  0
 12 14  1  0  0  0  0
 14 15  1  0  0  0  0
 14 18  1  0  0  0  0
 14 31  1  0  0  0  0
 15 16  1  0  0  0  0
 15 32  1  0  0  0  0
 15 33  1  0  0  0  0
 16 17  1  0  0  0  0
 17 18  1  0  0  0  0
 17 22  2  0  0  0  0
 18 19  2  0  0  0  0
 19 20  1  0  0  0  0
 19 34  1  0  0  0  0
 20 21  2  0  0  0  0
 20 23  1  0  0  0  0
 21 22  1  0  0  0  0
 21 35  1  0  0  0  0
 22 36  1  0  0  0  0
M  END
$$$$
