
 OpenBabel07202414183D

 50 53  0  0  0  0  0  0  0  0999 V2000
    5.0834    3.1143    5.6513 F   0  0  0  0  0  0  0  0  0  0  0  0
    5.7449    3.5306    4.5412 C   0  0  0  0  0  0  0  0  0  0  0  0
    6.4150    4.6579    4.8845 F   0  0  0  0  0  0  0  0  0  0  0  0
    6.6873    2.5252    4.2108 O   0  0  0  0  0  0  0  0  0  0  0  0
    7.0907    2.5036    2.9065 C   0  0  0  0  0  0  0  0  0  0  0  0
    7.1258    3.6003    2.0449 C   0  0  0  0  0  0  0  0  0  0  0  0
    7.5342    3.4350    0.7121 C   0  0  0  0  0  0  0  0  0  0  0  0
    7.9484    2.1855    0.2355 C   0  0  0  0  0  0  0  0  0  0  0  0
    8.3365    2.0414   -1.1193 N   0  0  0  0  0  0  0  0  0  0  0  0
    9.2691    1.1049   -1.6265 C   0  0  0  0  0  0  0  0  0  0  0  0
    9.0724    0.4829   -2.8723 C   0  0  0  0  0  0  0  0  0  0  0  0
    9.9841   -0.4769   -3.3536 C   0  0  0  0  0  0  0  0  0  0  0  0
    9.8747   -1.1468   -4.7061 C   0  0  0  0  0  0  0  0  0  0  0  0
    8.4844   -1.4193   -5.2410 C   0  0  0  0  0  0  0  0  0  0  0  0
    8.0137   -0.7492   -6.1543 O   0  0  0  0  0  0  0  0  0  0  0  0
    7.8317   -2.4798   -4.6150 N   0  0  0  0  0  0  0  0  0  0  0  0
    6.5001   -2.7726   -5.0135 C   0  0  0  0  0  0  0  0  0  0  0  0
    6.2256   -3.1295   -6.3365 C   0  0  0  0  0  0  0  0  0  0  0  0
    4.9832   -3.2924   -6.8396 N   0  0  0  0  0  0  0  0  0  0  0  0
    3.9700   -2.9367   -6.0233 C   0  0  0  0  0  0  0  0  0  0  0  0
    4.1293   -2.4874   -4.7089 C   0  0  0  0  0  0  0  0  0  0  0  0
    3.0634   -1.9443   -3.9758 C   0  0  0  0  0  0  0  0  0  0  0  0
    3.2470   -1.5252   -2.6590 C   0  0  0  0  0  0  0  0  0  0  0  0
    4.4702   -1.7309   -2.0327 C   0  0  0  0  0  0  0  0  0  0  0  0
    5.5474   -2.2328   -2.7621 C   0  0  0  0  0  0  0  0  0  0  0  0
    5.4201   -2.5336   -4.1384 C   0  0  0  0  0  0  0  0  0  0  0  0
   11.1222   -0.7684   -2.5826 C   0  0  0  0  0  0  0  0  0  0  0  0
   11.3417   -0.1288   -1.3657 C   0  0  0  0  0  0  0  0  0  0  0  0
   12.7504   -0.4937   -0.4512 Cl  0  0  0  0  0  0  0  0  0  0  0  0
   10.4298    0.8022   -0.8958 C   0  0  0  0  0  0  0  0  0  0  0  0
    7.9308    1.1006    1.1204 C   0  0  0  0  0  0  0  0  0  0  0  0
    7.5176    1.2600    2.4449 C   0  0  0  0  0  0  0  0  0  0  0  0
    5.0107    3.7389    3.7559 H   0  0  0  0  0  0  0  0  0  0  0  0
    6.8661    4.5997    2.3841 H   0  0  0  0  0  0  0  0  0  0  0  0
    7.5635    4.3027    0.0564 H   0  0  0  0  0  0  0  0  0  0  0  0
    7.5545    2.2192   -1.7450 H   0  0  0  0  0  0  0  0  0  0  0  0
    8.2048    0.7509   -3.4744 H   0  0  0  0  0  0  0  0  0  0  0  0
   10.3921   -2.1139   -4.6852 H   0  0  0  0  0  0  0  0  0  0  0  0
   10.4004   -0.5266   -5.4424 H   0  0  0  0  0  0  0  0  0  0  0  0
    8.0373   -2.5453   -3.6267 H   0  0  0  0  0  0  0  0  0  0  0  0
    7.0270   -3.2895   -7.0527 H   0  0  0  0  0  0  0  0  0  0  0  0
    2.9837   -3.0110   -6.4767 H   0  0  0  0  0  0  0  0  0  0  0  0
    2.0963   -1.7876   -4.4506 H   0  0  0  0  0  0  0  0  0  0  0  0
    2.4344   -1.0426   -2.1227 H   0  0  0  0  0  0  0  0  0  0  0  0
    4.5997   -1.4676   -0.9862 H   0  0  0  0  0  0  0  0  0  0  0  0
    6.4921   -2.3666   -2.2436 H   0  0  0  0  0  0  0  0  0  0  0  0
   11.8669   -1.4684   -2.9489 H   0  0  0  0  0  0  0  0  0  0  0  0
   10.6263    1.3136    0.0441 H   0  0  0  0  0  0  0  0  0  0  0  0
    8.2310    0.1108    0.7875 H   0  0  0  0  0  0  0  0  0  0  0  0
    7.5184    0.4025    3.1140 H   0  0  0  0  0  0  0  0  0  0  0  0
  1  2  1  0  0  0  0
  2  3  1  0  0  0  0
  2  4  1  0  0  0  0
  2 33  1  0  0  0  0
  4  5  1  0  0  0  0
  5  6  2  0  0  0  0
  5 32  1  0  0  0  0
  6  7  1  0  0  0  0
  6 34  1  0  0  0  0
  7  8  2  0  0  0  0
  7 35  1  0  0  0  0
  8  9  1  0  0  0  0
  8 31  1  0  0  0  0
  9 10  1  0  0  0  0
  9 36  1  0  0  0  0
 10 11  2  0  0  0  0
 10 30  1  0  0  0  0
 11 12  1  0  0  0  0
 11 37  1  0  0  0  0
 12 13  1  0  0  0  0
 12 27  2  0  0  0  0
 13 14  1  0  0  0  0
 13 38  1  0  0  0  0
 13 39  1  0  0  0  0
 14 15  2  0  0  0  0
 14 16  1  0  0  0  0
 16 17  1  0  0  0  0
 16 40  1  0  0  0  0
 17 18  2  0  0  0  0
 17 26  1  0  0  0  0
 18 19  1  0  0  0  0
 18 41  1  0  0  0  0
 19 20  2  0  0  0  0
 20 21  1  0  0  0  0
 20 42  1  0  0  0  0
 21 22  2  0  0  0  0
 21 26  1  0  0  0  0
 22 23  1  0  0  0  0
 22 43  1  0  0  0  0
 23 24  2  0  0  0  0
 23 44  1  0  0  0  0
 24 25  1  0  0  0  0
 24 45  1  0  0  0  0
 25 26  2  0  0  0  0
 25 46  1  0  0  0  0
 27 28  1  0  0  0  0
 27 47  1  0  0  0  0
 28 29  1  0  0  0  0
 28 30  2  0  0  0  0
 30 48  1  0  0  0  0
 31 32  2  0  0  0  0
 31 49  1  0  0  0  0
 32 50  1  0  0  0  0
M  END
$$$$
