
 OpenBabel07202414123D

 54 57  0  0  0  0  0  0  0  0999 V2000
    2.4123    0.6786   -0.5497 C   0  0  0  0  0  0  0  0  0  0  0  0
    1.9528   -0.2571    0.5937 C   0  0  0  0  0  0  0  0  0  0  0  0
    2.1881    0.5097    1.9163 C   0  0  0  0  0  0  0  0  0  0  0  0
    0.4298   -0.4726    0.4147 C   0  0  0  0  0  0  0  0  0  0  0  0
    0.0329   -1.0591   -0.7507 N   0  0  0  0  0  0  0  0  0  0  0  0
   -0.4185   -0.1308    1.2354 O   0  0  0  0  0  0  0  0  0  0  0  0
    2.6941   -1.6167    0.6287 C   0  0  0  0  0  0  0  0  0  0  0  0
    3.6689   -1.9537   -0.3275 C   0  0  0  0  0  0  0  0  0  0  0  0
    4.2802   -3.2211   -0.3306 C   0  0  0  0  0  0  0  0  0  0  0  0
    3.9217   -4.1766    0.6083 C   0  0  0  0  0  0  0  0  0  0  0  0
    4.4470   -5.5014    0.4889 N   0  0  0  0  0  0  0  0  0  0  0  0
    3.5280   -6.5506    0.0264 C   0  0  0  0  0  0  0  0  0  0  0  0
    2.7506   -6.1864   -1.2024 C   0  0  0  0  0  0  0  0  0  0  0  0
    1.3431   -5.9105   -1.2133 C   0  0  0  0  0  0  0  0  0  0  0  0
    0.8397   -5.7786   -2.4877 C   0  0  0  0  0  0  0  0  0  0  0  0
    2.0635   -5.8843   -3.6741 S   0  0  0  0  0  0  0  0  0  0  0  0
    3.2648   -6.1565   -2.4875 C   0  0  0  0  0  0  0  0  0  0  0  0
    5.6352   -5.7969    1.1666 C   0  0  0  0  0  0  0  0  0  0  0  0
    6.3882   -4.9200    1.6031 O   0  0  0  0  0  0  0  0  0  0  0  0
    5.9627   -7.2474    1.4402 C   0  0  0  0  0  0  0  0  0  0  0  0
    6.7332   -7.9245    0.4103 N   0  0  0  0  0  0  0  0  0  0  0  0
    6.4176   -9.2190    0.1673 N   0  0  0  0  0  0  0  0  0  0  0  0
    7.5512   -9.8707   -0.0545 N   0  0  0  0  0  0  0  0  0  0  0  0
    8.5679   -8.9561   -0.0751 C   0  0  0  0  0  0  0  0  0  0  0  0
    9.9542   -9.1286   -0.1868 C   0  0  0  0  0  0  0  0  0  0  0  0
   10.7659   -7.9883   -0.2259 C   0  0  0  0  0  0  0  0  0  0  0  0
   10.2049   -6.7091   -0.1825 C   0  0  0  0  0  0  0  0  0  0  0  0
    8.8274   -6.5212   -0.0155 C   0  0  0  0  0  0  0  0  0  0  0  0
    8.0443   -7.6751    0.0730 C   0  0  0  0  0  0  0  0  0  0  0  0
    2.9892   -3.8486    1.6045 C   0  0  0  0  0  0  0  0  0  0  0  0
    2.3861   -2.5779    1.6042 C   0  0  0  0  0  0  0  0  0  0  0  0
    1.8244    1.6031   -0.5635 H   0  0  0  0  0  0  0  0  0  0  0  0
    2.2930    0.2187   -1.5360 H   0  0  0  0  0  0  0  0  0  0  0  0
    3.4663    0.9600   -0.4347 H   0  0  0  0  0  0  0  0  0  0  0  0
    1.6991    1.4930    1.8869 H   0  0  0  0  0  0  0  0  0  0  0  0
    3.2552    0.6726    2.0979 H   0  0  0  0  0  0  0  0  0  0  0  0
    1.7745   -0.0181    2.7818 H   0  0  0  0  0  0  0  0  0  0  0  0
    0.6822   -1.5934   -1.3210 H   0  0  0  0  0  0  0  0  0  0  0  0
   -0.9570   -1.2492   -0.8520 H   0  0  0  0  0  0  0  0  0  0  0  0
    3.9808   -1.2654   -1.1044 H   0  0  0  0  0  0  0  0  0  0  0  0
    5.0078   -3.4567   -1.0944 H   0  0  0  0  0  0  0  0  0  0  0  0
    2.8714   -6.8250    0.8581 H   0  0  0  0  0  0  0  0  0  0  0  0
    4.1053   -7.4411   -0.2367 H   0  0  0  0  0  0  0  0  0  0  0  0
    0.7219   -5.8637   -0.3267 H   0  0  0  0  0  0  0  0  0  0  0  0
   -0.1909   -5.6313   -2.7796 H   0  0  0  0  0  0  0  0  0  0  0  0
    4.2890   -6.3208   -2.7969 H   0  0  0  0  0  0  0  0  0  0  0  0
    5.0582   -7.8296    1.6449 H   0  0  0  0  0  0  0  0  0  0  0  0
    6.5619   -7.3071    2.3558 H   0  0  0  0  0  0  0  0  0  0  0  0
   10.3830  -10.1242   -0.2220 H   0  0  0  0  0  0  0  0  0  0  0  0
   11.8457   -8.1012   -0.2944 H   0  0  0  0  0  0  0  0  0  0  0  0
   10.8545   -5.8383   -0.2519 H   0  0  0  0  0  0  0  0  0  0  0  0
    8.4038   -5.5240    0.0495 H   0  0  0  0  0  0  0  0  0  0  0  0
    2.7241   -4.5606    2.3814 H   0  0  0  0  0  0  0  0  0  0  0  0
    1.6553   -2.3539    2.3840 H   0  0  0  0  0  0  0  0  0  0  0  0
  1  2  1  0  0  0  0
  1 32  1  0  0  0  0
  1 33  1  0  0  0  0
  1 34  1  0  0  0  0
  2  3  1  0  0  0  0
  2  4  1  0  0  0  0
  2  7  1  0  0  0  0
  3 35  1  0  0  0  0
  3 36  1  0  0  0  0
  3 37  1  0  0  0  0
  4  5  1  0  0  0  0
  4  6  2  0  0  0  0
  5 38  1  0  0  0  0
  5 39  1  0  0  0  0
  7  8  1  0  0  0  0
  7 31  2  0  0  0  0
  8  9  2  0  0  0  0
  8 40  1  0  0  0  0
  9 10  1  0  0  0  0
  9 41  1  0  0  0  0
 10 11  1  0  0  0  0
 10 30  2  0  0  0  0
 11 12  1  0  0  0  0
 11 18  1  0  0  0  0
 12 13  1  0  0  0  0
 12 42  1  0  0  0  0
 12 43  1  0  0  0  0
 13 14  1  0  0  0  0
 13 17  2  0  0  0  0
 14 15  2  0  0  0  0
 14 44  1  0  0  0  0
 15 16  1  0  0  0  0
 15 45  1  0  0  0  0
 16 17  1  0  0  0  0
 17 46  1  0  0  0  0
 18 19  2  0  0  0  0
 18 20  1  0  0  0  0
 20 21  1  0  0  0  0
 20 47  1  0  0  0  0
 20 48  1  0  0  0  0
 21 22  1  0  0  0  0
 21 29  1  0  0  0  0
 22 23  2  0  0  0  0
 23 24  1  0  0  0  0
 24 25  1  0  0  0  0
 24 29  2  0  0  0  0
 25 26  2  0  0  0  0
 25 49  1  0  0  0  0
 26 27  1  0  0  0  0
 26 50  1  0  0  0  0
 27 28  2  0  0  0  0
 27 51  1  0  0  0  0
 28 29  1  0  0  0  0
 28 52  1  0  0  0  0
 30 31  1  0  0  0  0
 30 53  1  0  0  0  0
 31 54  1  0  0  0  0
M  END
$$$$
