
 OpenBabel07202414143D

 52 55  0  0  0  0  0  0  0  0999 V2000
    5.8826   -7.8639    0.2980 C   0  0  0  0  0  0  0  0  0  0  0  0
    5.3645   -6.5433    0.1418 O   0  0  0  0  0  0  0  0  0  0  0  0
    4.7742   -6.3433   -1.0920 C   0  0  0  0  0  0  0  0  0  0  0  0
    4.2277   -5.1033   -1.3200 C   0  0  0  0  0  0  0  0  0  0  0  0
    3.6095   -4.9226   -2.5407 C   0  0  0  0  0  0  0  0  0  0  0  0
    3.0274   -3.6599   -2.8128 N   0  0  0  0  0  0  0  0  0  0  0  0
    1.9536   -3.3921   -3.6880 C   0  0  0  0  0  0  0  0  0  0  0  0
    1.8961   -2.1770   -4.3940 C   0  0  0  0  0  0  0  0  0  0  0  0
    0.7937   -1.8538   -5.2066 C   0  0  0  0  0  0  0  0  0  0  0  0
    0.7637   -0.5904   -6.0395 C   0  0  0  0  0  0  0  0  0  0  0  0
    0.9404    0.7136   -5.2832 C   0  0  0  0  0  0  0  0  0  0  0  0
    1.7298    1.5693   -5.6762 O   0  0  0  0  0  0  0  0  0  0  0  0
    0.1268    0.8480   -4.1734 N   0  0  0  0  0  0  0  0  0  0  0  0
    0.1270    2.0072   -3.3587 C   0  0  0  0  0  0  0  0  0  0  0  0
    0.1099    3.2850   -3.9286 C   0  0  0  0  0  0  0  0  0  0  0  0
    0.0518    4.4343   -3.2181 N   0  0  0  0  0  0  0  0  0  0  0  0
    0.0431    4.3057   -1.8752 C   0  0  0  0  0  0  0  0  0  0  0  0
    0.0879    3.0883   -1.1913 C   0  0  0  0  0  0  0  0  0  0  0  0
    0.1313    3.0372    0.2127 C   0  0  0  0  0  0  0  0  0  0  0  0
    0.2256    1.8149    0.8764 C   0  0  0  0  0  0  0  0  0  0  0  0
    0.2717    0.6344    0.1485 C   0  0  0  0  0  0  0  0  0  0  0  0
    0.2167    0.6714   -1.2457 C   0  0  0  0  0  0  0  0  0  0  0  0
    0.1193    1.8957   -1.9498 C   0  0  0  0  0  0  0  0  0  0  0  0
   -0.2726   -2.7596   -5.2890 C   0  0  0  0  0  0  0  0  0  0  0  0
   -0.2223   -3.9669   -4.5947 C   0  0  0  0  0  0  0  0  0  0  0  0
   -1.5442   -5.0631   -4.6997 Cl  0  0  0  0  0  0  0  0  0  0  0  0
    0.8812   -4.2858   -3.8084 C   0  0  0  0  0  0  0  0  0  0  0  0
    3.5642   -5.9025   -3.4603 N   0  0  0  0  0  0  0  0  0  0  0  0
    4.1638   -7.0614   -3.1453 C   0  0  0  0  0  0  0  0  0  0  0  0
    4.2116   -8.0916   -4.0581 O   0  0  0  0  0  0  0  0  0  0  0  0
    3.6666   -7.7478   -5.3225 C   0  0  0  0  0  0  0  0  0  0  0  0
    4.7651   -7.3361   -1.9873 N   0  0  0  0  0  0  0  0  0  0  0  0
    6.3635   -7.9230    1.2789 H   0  0  0  0  0  0  0  0  0  0  0  0
    6.6449   -8.0853   -0.4577 H   0  0  0  0  0  0  0  0  0  0  0  0
    5.0785   -8.6082    0.2740 H   0  0  0  0  0  0  0  0  0  0  0  0
    4.2523   -4.3318   -0.5633 H   0  0  0  0  0  0  0  0  0  0  0  0
    3.7354   -2.9341   -2.7907 H   0  0  0  0  0  0  0  0  0  0  0  0
    2.7345   -1.4823   -4.3329 H   0  0  0  0  0  0  0  0  0  0  0  0
   -0.1844   -0.5087   -6.5861 H   0  0  0  0  0  0  0  0  0  0  0  0
    1.5569   -0.6607   -6.7935 H   0  0  0  0  0  0  0  0  0  0  0  0
   -0.2179   -0.0069   -3.7570 H   0  0  0  0  0  0  0  0  0  0  0  0
    0.1002    3.4266   -5.0064 H   0  0  0  0  0  0  0  0  0  0  0  0
    0.0172    5.2489   -1.3382 H   0  0  0  0  0  0  0  0  0  0  0  0
    0.1125    3.9548    0.7984 H   0  0  0  0  0  0  0  0  0  0  0  0
    0.2785    1.7891    1.9621 H   0  0  0  0  0  0  0  0  0  0  0  0
    0.3658   -0.3195    0.6605 H   0  0  0  0  0  0  0  0  0  0  0  0
    0.2848   -0.2770   -1.7732 H   0  0  0  0  0  0  0  0  0  0  0  0
   -1.1419   -2.5356   -5.9048 H   0  0  0  0  0  0  0  0  0  0  0  0
    0.8964   -5.2298   -3.2685 H   0  0  0  0  0  0  0  0  0  0  0  0
    3.7960   -8.6110   -5.9832 H   0  0  0  0  0  0  0  0  0  0  0  0
    4.1997   -6.9040   -5.7743 H   0  0  0  0  0  0  0  0  0  0  0  0
    2.5938   -7.5437   -5.2466 H   0  0  0  0  0  0  0  0  0  0  0  0
  1  2  1  0  0  0  0
  1 33  1  0  0  0  0
  1 34  1  0  0  0  0
  1 35  1  0  0  0  0
  2  3  1  0  0  0  0
  3  4  2  0  0  0  0
  3 32  1  0  0  0  0
  4  5  1  0  0  0  0
  4 36  1  0  0  0  0
  5  6  1  0  0  0  0
  5 28  2  0  0  0  0
  6  7  1  0  0  0  0
  6 37  1  0  0  0  0
  7  8  2  0  0  0  0
  7 27  1  0  0  0  0
  8  9  1  0  0  0  0
  8 38  1  0  0  0  0
  9 10  1  0  0  0  0
  9 24  2  0  0  0  0
 10 11  1  0  0  0  0
 10 39  1  0  0  0  0
 10 40  1  0  0  0  0
 11 12  2  0  0  0  0
 11 13  1  0  0  0  0
 13 14  1  0  0  0  0
 13 41  1  0  0  0  0
 14 15  2  0  0  0  0
 14 23  1  0  0  0  0
 15 16  1  0  0  0  0
 15 42  1  0  0  0  0
 16 17  2  0  0  0  0
 17 18  1  0  0  0  0
 17 43  1  0  0  0  0
 18 19  2  0  0  0  0
 18 23  1  0  0  0  0
 19 20  1  0  0  0  0
 19 44  1  0  0  0  0
 20 21  2  0  0  0  0
 20 45  1  0  0  0  0
 21 22  1  0  0  0  0
 21 46  1  0  0  0  0
 22 23  2  0  0  0  0
 22 47  1  0  0  0  0
 24 25  1  0  0  0  0
 24 48  1  0  0  0  0
 25 26  1  0  0  0  0
 25 27  2  0  0  0  0
 27 49  1  0  0  0  0
 28 29  1  0  0  0  0
 29 30  1  0  0  0  0
 29 32  2  0  0  0  0
 30 31  1  0  0  0  0
 31 50  1  0  0  0  0
 31 51  1  0  0  0  0
 31 52  1  0  0  0  0
M  END
$$$$
