
 OpenBabel07202414153D

 52 55  0  0  0  0  0  0  0  0999 V2000
    2.6519    6.8654   -0.7635 C   0  0  0  0  0  0  0  0  0  0  0  0
    3.1509    5.7558   -0.0257 O   0  0  0  0  0  0  0  0  0  0  0  0
    4.4587    5.8184    0.3723 C   0  0  0  0  0  0  0  0  0  0  0  0
    5.3507    6.8493    0.0795 C   0  0  0  0  0  0  0  0  0  0  0  0
    6.6472    6.8068    0.5868 C   0  0  0  0  0  0  0  0  0  0  0  0
    7.0564    5.7373    1.3798 C   0  0  0  0  0  0  0  0  0  0  0  0
    6.1963    4.6695    1.6606 C   0  0  0  0  0  0  0  0  0  0  0  0
    6.6108    3.5254    2.5638 C   0  0  0  0  0  0  0  0  0  0  0  0
    7.7482    2.6086    2.0382 C   0  0  0  0  0  0  0  0  0  0  0  0
    9.0924    3.2413    2.0536 N   0  0  0  0  0  0  0  0  0  0  0  0
    9.7468    3.5693    0.8573 C   0  0  0  0  0  0  0  0  0  0  0  0
   10.4621    4.5254    0.6491 O   0  0  0  0  0  0  0  0  0  0  0  0
    9.6855    2.4858   -0.1654 C   0  0  0  0  0  0  0  0  0  0  0  0
   10.7989    1.7252   -0.1355 C   0  0  0  0  0  0  0  0  0  0  0  0
   10.8100    0.4907   -0.9295 C   0  0  0  0  0  0  0  0  0  0  0  0
   11.4368   -0.4979   -0.5669 O   0  0  0  0  0  0  0  0  0  0  0  0
   10.1092    0.5456   -2.1044 N   0  0  0  0  0  0  0  0  0  0  0  0
    9.5053    1.7236   -2.5079 C   0  0  0  0  0  0  0  0  0  0  0  0
    9.3511    1.9805   -3.8666 C   0  0  0  0  0  0  0  0  0  0  0  0
    8.8179    3.2034   -4.2472 C   0  0  0  0  0  0  0  0  0  0  0  0
    8.3049    4.0877   -3.2893 C   0  0  0  0  0  0  0  0  0  0  0  0
    8.4631    3.8107   -1.9267 C   0  0  0  0  0  0  0  0  0  0  0  0
    9.1597    2.6732   -1.5332 C   0  0  0  0  0  0  0  0  0  0  0  0
    9.5540    3.7292    3.3279 C   0  0  0  0  0  0  0  0  0  0  0  0
   10.1566    4.9820    3.4792 C   0  0  0  0  0  0  0  0  0  0  0  0
   10.4831    5.4779    4.7443 C   0  0  0  0  0  0  0  0  0  0  0  0
   10.2571    4.7056    5.8805 C   0  0  0  0  0  0  0  0  0  0  0  0
    9.7191    3.4311    5.7392 C   0  0  0  0  0  0  0  0  0  0  0  0
    9.4760    2.4491    7.1321 Cl  0  0  0  0  0  0  0  0  0  0  0  0
    9.3675    2.9448    4.4804 C   0  0  0  0  0  0  0  0  0  0  0  0
    4.8894    4.7359    1.1517 C   0  0  0  0  0  0  0  0  0  0  0  0
    1.5821    6.7045   -0.9271 H   0  0  0  0  0  0  0  0  0  0  0  0
    3.1358    6.9288   -1.7436 H   0  0  0  0  0  0  0  0  0  0  0  0
    2.7621    7.8026   -0.2070 H   0  0  0  0  0  0  0  0  0  0  0  0
    5.0650    7.7050   -0.5227 H   0  0  0  0  0  0  0  0  0  0  0  0
    7.3389    7.6207    0.3775 H   0  0  0  0  0  0  0  0  0  0  0  0
    8.0639    5.7619    1.7869 H   0  0  0  0  0  0  0  0  0  0  0  0
    5.7348    2.8879    2.7373 H   0  0  0  0  0  0  0  0  0  0  0  0
    6.8549    3.9484    3.5459 H   0  0  0  0  0  0  0  0  0  0  0  0
    7.4863    2.2965    1.0232 H   0  0  0  0  0  0  0  0  0  0  0  0
    7.7890    1.6920    2.6408 H   0  0  0  0  0  0  0  0  0  0  0  0
   11.7710    2.2554   -0.1412 H   0  0  0  0  0  0  0  0  0  0  0  0
   10.1208   -0.2913   -2.6809 H   0  0  0  0  0  0  0  0  0  0  0  0
    9.7758    1.3142   -4.6124 H   0  0  0  0  0  0  0  0  0  0  0  0
    8.8109    3.4951   -5.3001 H   0  0  0  0  0  0  0  0  0  0  0  0
    7.8415    5.0173   -3.5957 H   0  0  0  0  0  0  0  0  0  0  0  0
    8.0939    4.5292   -1.1974 H   0  0  0  0  0  0  0  0  0  0  0  0
   10.3253    5.6381    2.6273 H   0  0  0  0  0  0  0  0  0  0  0  0
   10.9005    6.4771    4.8414 H   0  0  0  0  0  0  0  0  0  0  0  0
   10.5028    5.0984    6.8632 H   0  0  0  0  0  0  0  0  0  0  0  0
    8.9808    1.9331    4.4088 H   0  0  0  0  0  0  0  0  0  0  0  0
    4.1732    3.9475    1.3810 H   0  0  0  0  0  0  0  0  0  0  0  0
  1  2  1  0  0  0  0
  1 32  1  0  0  0  0
  1 33  1  0  0  0  0
  1 34  1  0  0  0  0
  2  3  1  0  0  0  0
  3  4  1  0  0  0  0
  3 31  2  0  0  0  0
  4  5  2  0  0  0  0
  4 35  1  0  0  0  0
  5  6  1  0  0  0  0
  5 36  1  0  0  0  0
  6  7  2  0  0  0  0
  6 37  1  0  0  0  0
  7  8  1  0  0  0  0
  7 31  1  0  0  0  0
  8  9  1  0  0  0  0
  8 38  1  0  0  0  0
  8 39  1  0  0  0  0
  9 10  1  0  0  0  0
  9 40  1  0  0  0  0
  9 41  1  0  0  0  0
 10 11  1  0  0  0  0
 10 24  1  0  0  0  0
 11 12  2  0  0  0  0
 11 13  1  0  0  0  0
 13 14  2  0  0  0  0
 13 23  1  0  0  0  0
 14 15  1  0  0  0  0
 14 42  1  0  0  0  0
 15 16  2  0  0  0  0
 15 17  1  0  0  0  0
 17 18  1  0  0  0  0
 17 43  1  0  0  0  0
 18 19  1  0  0  0  0
 18 23  2  0  0  0  0
 19 20  2  0  0  0  0
 19 44  1  0  0  0  0
 20 21  1  0  0  0  0
 20 45  1  0  0  0  0
 21 22  2  0  0  0  0
 21 46  1  0  0  0  0
 22 23  1  0  0  0  0
 22 47  1  0  0  0  0
 24 25  1  0  0  0  0
 24 30  2  0  0  0  0
 25 26  2  0  0  0  0
 25 48  1  0  0  0  0
 26 27  1  0  0  0  0
 26 49  1  0  0  0  0
 27 28  2  0  0  0  0
 27 50  1  0  0  0  0
 28 29  1  0  0  0  0
 28 30  1  0  0  0  0
 30 51  1  0  0  0  0
 31 52  1  0  0  0  0
M  END
$$$$
