
 OpenBabel07202414163D

 37 39  0  0  0  0  0  0  0  0999 V2000
    0.9640    0.0491   -0.0391 C   0  0  0  0  0  0  0  0  0  0  0  0
    2.4578    0.0752    0.0843 C   0  0  0  0  0  0  0  0  0  0  0  0
    3.1520    1.2834    0.1039 C   0  0  0  0  0  0  0  0  0  0  0  0
    4.5449    1.2964    0.2025 C   0  0  0  0  0  0  0  0  0  0  0  0
    5.2935    0.0987    0.2794 C   0  0  0  0  0  0  0  0  0  0  0  0
    6.7071    0.0475    0.2973 C   0  0  0  0  0  0  0  0  0  0  0  0
    7.4705    1.2396    0.3469 N   0  0  0  0  0  0  0  0  0  0  0  0
    8.5604    1.4567   -0.4793 C   0  0  0  0  0  0  0  0  0  0  0  0
    8.9506    0.6789   -1.3443 O   0  0  0  0  0  0  0  0  0  0  0  0
    9.2468    2.7902   -0.2366 C   0  0  0  0  0  0  0  0  0  0  0  0
    8.6400    3.9732   -0.9478 C   0  0  0  0  0  0  0  0  0  0  0  0
    8.4845    3.9856   -2.3473 C   0  0  0  0  0  0  0  0  0  0  0  0
    8.0422    5.1390   -3.0068 C   0  0  0  0  0  0  0  0  0  0  0  0
    7.7486    6.2958   -2.2834 C   0  0  0  0  0  0  0  0  0  0  0  0
    7.8875    6.2906   -0.8987 C   0  0  0  0  0  0  0  0  0  0  0  0
    7.5477    7.7191    0.0008 Cl  0  0  0  0  0  0  0  0  0  0  0  0
    8.3247    5.1424   -0.2315 C   0  0  0  0  0  0  0  0  0  0  0  0
    7.3252   -1.2048    0.2942 C   0  0  0  0  0  0  0  0  0  0  0  0
    6.6620   -2.3839    0.3154 N   0  0  0  0  0  0  0  0  0  0  0  0
    5.3137   -2.3107    0.2941 C   0  0  0  0  0  0  0  0  0  0  0  0
    4.5815   -1.1209    0.2616 C   0  0  0  0  0  0  0  0  0  0  0  0
    3.1766   -1.1214    0.1781 C   0  0  0  0  0  0  0  0  0  0  0  0
    0.5622    1.0465   -0.2497 H   0  0  0  0  0  0  0  0  0  0  0  0
    0.5173   -0.3093    0.8929 H   0  0  0  0  0  0  0  0  0  0  0  0
    0.6620   -0.6074   -0.8618 H   0  0  0  0  0  0  0  0  0  0  0  0
    2.6202    2.2283    0.0160 H   0  0  0  0  0  0  0  0  0  0  0  0
    5.0349    2.2650    0.1665 H   0  0  0  0  0  0  0  0  0  0  0  0
    7.0162    2.0654    0.7126 H   0  0  0  0  0  0  0  0  0  0  0  0
   10.2917    2.6927   -0.5521 H   0  0  0  0  0  0  0  0  0  0  0  0
    9.2713    2.9666    0.8454 H   0  0  0  0  0  0  0  0  0  0  0  0
    8.7360    3.1058   -2.9344 H   0  0  0  0  0  0  0  0  0  0  0  0
    7.9457    5.1398   -4.0922 H   0  0  0  0  0  0  0  0  0  0  0  0
    7.4318    7.1961   -2.8031 H   0  0  0  0  0  0  0  0  0  0  0  0
    8.4509    5.1740    0.8482 H   0  0  0  0  0  0  0  0  0  0  0  0
    8.4076   -1.3024    0.3194 H   0  0  0  0  0  0  0  0  0  0  0  0
    4.8149   -3.2772    0.2857 H   0  0  0  0  0  0  0  0  0  0  0  0
    2.6377   -2.0677    0.1583 H   0  0  0  0  0  0  0  0  0  0  0  0
  1  2  1  0  0  0  0
  1 23  1  0  0  0  0
  1 24  1  0  0  0  0
  1 25  1  0  0  0  0
  2  3  1  0  0  0  0
  2 22  2  0  0  0  0
  3  4  2  0  0  0  0
  3 26  1  0  0  0  0
  4  5  1  0  0  0  0
  4 27  1  0  0  0  0
  5  6  1  0  0  0  0
  5 21  2  0  0  0  0
  6  7  1  0  0  0  0
  6 18  2  0  0  0  0
  7  8  1  0  0  0  0
  7 28  1  0  0  0  0
  8  9  2  0  0  0  0
  8 10  1  0  0  0  0
 10 11  1  0  0  0  0
 10 29  1  0  0  0  0
 10 30  1  0  0  0  0
 11 12  1  0  0  0  0
 11 17  2  0  0  0  0
 12 13  2  0  0  0  0
 12 31  1  0  0  0  0
 13 14  1  0  0  0  0
 13 32  1  0  0  0  0
 14 15  2  0  0  0  0
 14 33  1  0  0  0  0
 15 16  1  0  0  0  0
 15 17  1  0  0  0  0
 17 34  1  0  0  0  0
 18 19  1  0  0  0  0
 18 35  1  0  0  0  0
 19 20  2  0  0  0  0
 20 21  1  0  0  0  0
 20 36  1  0  0  0  0
 21 22  1  0  0  0  0
 22 37  1  0  0  0  0
M  END
$$$$
