
 OpenBabel07202414123D

 49 52  0  0  1  0  0  0  0  0999 V2000
    1.1432    0.0038   -0.2532 C   0  0  0  0  0  0  0  0  0  0  0  0
    2.6814    0.1855   -0.2828 C   0  0  3  0  0  0  0  0  0  0  0  0
    3.0697    0.9568   -1.5888 C   0  0  0  0  0  0  0  0  0  0  0  0
    2.2244    1.2397   -2.4346 O   0  0  0  0  0  0  0  0  0  0  0  0
    4.4163    1.2759   -1.6993 N   0  0  0  0  0  0  0  0  0  0  0  0
    5.0798    1.8849   -2.8094 C   0  0  0  0  0  0  0  0  0  0  0  0
    4.4256    2.2821   -3.9754 C   0  0  0  0  0  0  0  0  0  0  0  0
    5.0559    2.5910   -5.1344 N   0  0  0  0  0  0  0  0  0  0  0  0
    6.4036    2.5881   -5.1150 C   0  0  0  0  0  0  0  0  0  0  0  0
    7.1673    2.4289   -3.9617 C   0  0  0  0  0  0  0  0  0  0  0  0
    8.5615    2.6401   -3.9793 C   0  0  0  0  0  0  0  0  0  0  0  0
    9.3089    2.4829   -2.8123 C   0  0  0  0  0  0  0  0  0  0  0  0
   11.0721    2.7183   -2.8476 S   0  0  0  0  0  0  0  0  0  0  0  0
   11.3168    4.4112   -2.3860 C   0  0  0  0  0  0  0  0  0  0  0  0
   11.6336    1.8806   -1.8042 O   0  0  0  0  0  0  0  0  0  0  0  0
   11.4970    2.5574   -4.2230 O   0  0  0  0  0  0  0  0  0  0  0  0
    8.6912    2.0604   -1.6391 C   0  0  0  0  0  0  0  0  0  0  0  0
    7.3083    1.8549   -1.6179 C   0  0  0  0  0  0  0  0  0  0  0  0
    6.5034    2.0462   -2.7694 C   0  0  0  0  0  0  0  0  0  0  0  0
    3.3277   -1.2225   -0.3378 C   0  0  0  0  0  0  0  0  0  0  0  0
    2.9586   -1.9875    0.8801 N   0  0  0  0  0  0  0  0  0  0  0  0
    3.7164   -1.4329    2.2697 S   0  0  0  0  0  0  0  0  0  0  0  0
    2.9825   -1.9548    3.3977 O   0  0  0  0  0  0  0  0  0  0  0  0
    5.1344   -1.6782    2.1118 O   0  0  0  0  0  0  0  0  0  0  0  0
    3.4840    0.3208    2.1861 C   0  0  0  0  0  0  0  0  0  0  0  0
    3.7373    1.0445    3.3563 C   0  0  0  0  0  0  0  0  0  0  0  0
    3.5678    2.4270    3.3666 C   0  0  0  0  0  0  0  0  0  0  0  0
    3.1506    3.0778    2.2136 C   0  0  0  0  0  0  0  0  0  0  0  0
    2.9207    4.7819    2.2319 Cl  0  0  0  0  0  0  0  0  0  0  0  0
    2.8907    2.3569    1.0437 C   0  0  0  0  0  0  0  0  0  0  0  0
    3.0584    0.9575    0.9946 C   0  0  0  0  0  0  0  0  0  0  0  0
    0.8020   -0.6072   -1.0970 H   0  0  0  0  0  0  0  0  0  0  0  0
    0.6226    0.9662   -0.3134 H   0  0  0  0  0  0  0  0  0  0  0  0
    0.8055   -0.4854    0.6685 H   0  0  0  0  0  0  0  0  0  0  0  0
    5.0186    0.9478   -0.9612 H   0  0  0  0  0  0  0  0  0  0  0  0
    3.3452    2.3647   -4.0474 H   0  0  0  0  0  0  0  0  0  0  0  0
    6.8688    2.7260   -6.0895 H   0  0  0  0  0  0  0  0  0  0  0  0
    9.0540    2.9462   -4.9021 H   0  0  0  0  0  0  0  0  0  0  0  0
   10.9641    4.5658   -1.3645 H   0  0  0  0  0  0  0  0  0  0  0  0
   10.7842    5.0579   -3.0850 H   0  0  0  0  0  0  0  0  0  0  0  0
   12.3884    4.6217   -2.4389 H   0  0  0  0  0  0  0  0  0  0  0  0
    9.2708    1.8813   -0.7363 H   0  0  0  0  0  0  0  0  0  0  0  0
    6.8738    1.5672   -0.6675 H   0  0  0  0  0  0  0  0  0  0  0  0
    4.4210   -1.1864   -0.4297 H   0  0  0  0  0  0  0  0  0  0  0  0
    2.9718   -1.7823   -1.2112 H   0  0  0  0  0  0  0  0  0  0  0  0
    3.1043   -2.9970    0.7948 H   0  0  0  0  0  0  0  0  0  0  0  0
    4.0506    0.5341    4.2667 H   0  0  0  0  0  0  0  0  0  0  0  0
    3.7603    2.9860    4.2807 H   0  0  0  0  0  0  0  0  0  0  0  0
    2.5281    2.9020    0.1713 H   0  0  0  0  0  0  0  0  0  0  0  0
  1  2  1  0  0  0  0
  1 32  1  0  0  0  0
  1 33  1  0  0  0  0
  1 34  1  0  0  0  0
  2  3  1  0  0  0  0
  2 20  1  0  0  0  0
  2 31  1  0  0  0  0
  3  4  2  0  0  0  0
  3  5  1  0  0  0  0
  5  6  1  0  0  0  0
  5 35  1  0  0  0  0
  6  7  1  0  0  0  0
  6 19  2  0  0  0  0
  7  8  2  0  0  0  0
  7 36  1  0  0  0  0
  8  9  1  0  0  0  0
  9 10  2  0  0  0  0
  9 37  1  0  0  0  0
 10 11  1  0  0  0  0
 10 19  1  0  0  0  0
 11 12  2  0  0  0  0
 11 38  1  0  0  0  0
 12 13  1  0  0  0  0
 12 17  1  0  0  0  0
 13 14  1  0  0  0  0
 13 15  2  0  0  0  0
 13 16  2  0  0  0  0
 14 39  1  0  0  0  0
 14 40  1  0  0  0  0
 14 41  1  0  0  0  0
 17 18  2  0  0  0  0
 17 42  1  0  0  0  0
 18 19  1  0  0  0  0
 18 43  1  0  0  0  0
 20 21  1  0  0  0  0
 20 44  1  0  0  0  0
 20 45  1  0  0  0  0
 21 22  1  0  0  0  0
 21 46  1  0  0  0  0
 22 23  2  0  0  0  0
 22 24  2  0  0  0  0
 22 25  1  0  0  0  0
 25 26  1  0  0  0  0
 25 31  2  0  0  0  0
 26 27  2  0  0  0  0
 26 47  1  0  0  0  0
 27 28  1  0  0  0  0
 27 48  1  0  0  0  0
 28 29  1  0  0  0  0
 28 30  2  0  0  0  0
 30 31  1  0  0  0  0
 30 49  1  0  0  0  0
M  END
$$$$
