
 OpenBabel07202414133D

 51 54  0  0  1  0  0  0  0  0999 V2000
    1.0446   -0.1788   -0.1459 C   0  0  0  0  0  0  0  0  0  0  0  0
    2.5351   -0.3602   -0.2170 N   0  0  0  0  0  0  0  0  0  0  0  0
    3.1607    0.9683   -0.0015 C   0  0  0  0  0  0  0  0  0  0  0  0
    3.0429   -1.5773    0.8896 S   0  0  0  0  0  0  0  0  0  0  0  0
    2.6685   -1.1445    2.2156 O   0  0  0  0  0  0  0  0  0  0  0  0
    2.6386   -2.8795    0.4173 O   0  0  0  0  0  0  0  0  0  0  0  0
    4.7446   -1.5094    0.8115 N   0  0  0  0  0  0  0  0  0  0  0  0
    5.3311   -1.9210   -0.5028 C   0  0  0  0  0  0  0  0  0  0  0  0
    6.8319   -1.5377   -0.5546 C   0  0  3  0  0  0  0  0  0  0  0  0
    7.2666    0.1463   -0.5697 C   0  0  0  0  0  0  0  0  0  0  0  0
    8.3006    0.4462   -1.1751 O   0  0  0  0  0  0  0  0  0  0  0  0
    6.6031    1.2253    0.0970 N   0  0  0  0  0  0  0  0  0  0  0  0
    7.0308    2.7936    0.1429 C   0  0  0  0  0  0  0  0  0  0  0  0
    7.4214    4.3626    0.2227 C   0  0  0  0  0  0  0  0  0  0  0  0
    7.0749    5.3102    1.1422 N   0  0  0  0  0  0  0  0  0  0  0  0
    5.9012    4.8877    1.3697 C   0  0  0  0  0  0  0  0  0  0  0  0
    6.1320    3.9003    2.2567 C   0  0  0  0  0  0  0  0  0  0  0  0
    6.5240    4.2171    3.5792 C   0  0  0  0  0  0  0  0  0  0  0  0
    6.8382    3.2768    4.5534 C   0  0  0  0  0  0  0  0  0  0  0  0
    6.6582    1.9608    4.2365 C   0  0  0  0  0  0  0  0  0  0  0  0
    6.4121    1.6713    2.8650 C   0  0  0  0  0  0  0  0  0  0  0  0
    6.5146    2.7015    1.7057 C   0  0  0  0  0  0  0  0  0  0  0  0
    7.5328   -2.2420    0.6375 C   0  0  0  0  0  0  0  0  0  0  0  0
    8.9135   -2.5111    0.6014 C   0  0  0  0  0  0  0  0  0  0  0  0
    9.5869   -2.9934    1.7317 C   0  0  0  0  0  0  0  0  0  0  0  0
   11.2919   -3.2367    1.6722 Cl  0  0  0  0  0  0  0  0  0  0  0  0
    8.8943   -3.2549    2.9092 C   0  0  0  0  0  0  0  0  0  0  0  0
    7.5137   -3.0501    2.9472 C   0  0  0  0  0  0  0  0  0  0  0  0
    6.8238   -2.5436    1.8216 C   0  0  0  0  0  0  0  0  0  0  0  0
    5.3224   -2.3600    1.9146 C   0  0  0  0  0  0  0  0  0  0  0  0
    0.6983    0.5837   -0.8560 H   0  0  0  0  0  0  0  0  0  0  0  0
    0.7596    0.1585    0.8585 H   0  0  0  0  0  0  0  0  0  0  0  0
    0.5256   -1.1097   -0.3803 H   0  0  0  0  0  0  0  0  0  0  0  0
    2.7805    1.7059   -0.7191 H   0  0  0  0  0  0  0  0  0  0  0  0
    4.2311    0.9074   -0.1534 H   0  0  0  0  0  0  0  0  0  0  0  0
    2.9382    1.3379    1.0023 H   0  0  0  0  0  0  0  0  0  0  0  0
    4.7960   -1.4656   -1.3367 H   0  0  0  0  0  0  0  0  0  0  0  0
    5.1900   -3.0188   -0.5915 H   0  0  0  0  0  0  0  0  0  0  0  0
    7.2376   -2.0785   -1.4637 H   0  0  0  0  0  0  0  0  0  0  0  0
    5.7951    0.9193    0.6317 H   0  0  0  0  0  0  0  0  0  0  0  0
    7.4468    5.2246   -0.5911 H   0  0  0  0  0  0  0  0  0  0  0  0
    5.4077    4.7001    0.3489 H   0  0  0  0  0  0  0  0  0  0  0  0
    6.6249    5.2696    3.8262 H   0  0  0  0  0  0  0  0  0  0  0  0
    7.1173    3.5967    5.5510 H   0  0  0  0  0  0  0  0  0  0  0  0
    6.7472    1.2050    5.0261 H   0  0  0  0  0  0  0  0  0  0  0  0
    6.1791    0.6109    2.7349 H   0  0  0  0  0  0  0  0  0  0  0  0
    9.4827   -2.2976   -0.2990 H   0  0  0  0  0  0  0  0  0  0  0  0
    9.4188   -3.6111    3.7942 H   0  0  0  0  0  0  0  0  0  0  0  0
    6.9816   -3.2647    3.8749 H   0  0  0  0  0  0  0  0  0  0  0  0
    5.0994   -1.8941    2.8847 H   0  0  0  0  0  0  0  0  0  0  0  0
    4.8642   -3.3587    1.8978 H   0  0  0  0  0  0  0  0  0  0  0  0
  1  2  1  0  0  0  0
  1 31  1  0  0  0  0
  1 32  1  0  0  0  0
  1 33  1  0  0  0  0
  2  3  1  0  0  0  0
  2  4  1  0  0  0  0
  3 34  1  0  0  0  0
  3 35  1  0  0  0  0
  3 36  1  0  0  0  0
  4  5  2  0  0  0  0
  4  6  2  0  0  0  0
  4  7  1  0  0  0  0
  7  8  1  0  0  0  0
  7 30  1  0  0  0  0
  8  9  1  0  0  0  0
  8 37  1  0  0  0  0
  8 38  1  0  0  0  0
  9 10  1  0  0  0  0
  9 23  1  0  0  0  0
  9 39  1  0  0  0  0
 10 11  2  0  0  0  0
 10 12  1  0  0  0  0
 12 13  1  0  0  0  0
 12 40  1  0  0  0  0
 13 14  1  0  0  0  0
 13 22  2  0  0  0  0
 14 15  2  0  0  0  0
 14 41  1  0  0  0  0
 15 16  1  0  0  0  0
 16 17  2  0  0  0  0
 16 42  1  0  0  0  0
 17 18  1  0  0  0  0
 17 22  1  0  0  0  0
 18 19  2  0  0  0  0
 18 43  1  0  0  0  0
 19 20  1  0  0  0  0
 19 44  1  0  0  0  0
 20 21  2  0  0  0  0
 20 45  1  0  0  0  0
 21 22  1  0  0  0  0
 21 46  1  0  0  0  0
 23 24  1  0  0  0  0
 23 29  2  0  0  0  0
 24 25  2  0  0  0  0
 24 47  1  0  0  0  0
 25 26  1  0  0  0  0
 25 27  1  0  0  0  0
 27 28  2  0  0  0  0
 27 48  1  0  0  0  0
 28 29  1  0  0  0  0
 28 49  1  0  0  0  0
 29 30  1  0  0  0  0
 30 50  1  0  0  0  0
 30 51  1  0  0  0  0
M  END
$$$$
