
 OpenBabel07202414193D

 47 50  0  0  0  0  0  0  0  0999 V2000
    2.7223   -1.0708   -0.6162 O   0  0  0  0  0  0  0  0  0  0  0  0
    2.3527    0.0870   -0.4226 C   0  0  0  0  0  0  0  0  0  0  0  0
    0.8815    0.4699   -0.4502 C   0  0  0  0  0  0  0  0  0  0  0  0
    0.4283    0.8445   -1.8500 C   0  0  0  0  0  0  0  0  0  0  0  0
    0.9309    0.1287   -2.9457 C   0  0  0  0  0  0  0  0  0  0  0  0
    0.6488    0.3946   -4.2364 N   0  0  0  0  0  0  0  0  0  0  0  0
   -0.2059    1.4105   -4.4646 C   0  0  0  0  0  0  0  0  0  0  0  0
   -0.8011    2.1813   -3.4708 C   0  0  0  0  0  0  0  0  0  0  0  0
   -1.6881    3.2201   -3.7971 C   0  0  0  0  0  0  0  0  0  0  0  0
   -2.2954    3.9757   -2.7976 C   0  0  0  0  0  0  0  0  0  0  0  0
   -2.0283    3.6928   -1.4636 C   0  0  0  0  0  0  0  0  0  0  0  0
   -1.1445    2.6637   -1.1278 C   0  0  0  0  0  0  0  0  0  0  0  0
   -0.4999    1.8856   -2.1192 C   0  0  0  0  0  0  0  0  0  0  0  0
    3.2396    1.1231   -0.2941 N   0  0  0  0  0  0  0  0  0  0  0  0
    3.0333    2.5530   -0.1146 C   0  0  0  0  0  0  0  0  0  0  0  0
    4.5341    2.6922   -0.4591 C   0  0  0  0  0  0  0  0  0  0  0  0
    5.5024    2.6588    0.7280 C   0  0  0  0  0  0  0  0  0  0  0  0
    6.9345    2.8546    0.2300 C   0  0  0  0  0  0  0  0  0  0  0  0
    7.9504    2.6813    1.3281 C   0  0  0  0  0  0  0  0  0  0  0  0
    8.4963    1.4178    1.5917 C   0  0  0  0  0  0  0  0  0  0  0  0
    9.4556    1.2569    2.5921 C   0  0  0  0  0  0  0  0  0  0  0  0
    9.8707    2.3545    3.3433 C   0  0  0  0  0  0  0  0  0  0  0  0
    9.3184    3.6114    3.1027 C   0  0  0  0  0  0  0  0  0  0  0  0
    8.3589    3.7746    2.1022 C   0  0  0  0  0  0  0  0  0  0  0  0
    4.3797    1.3397   -1.1891 C   0  0  0  0  0  0  0  0  0  0  0  0
    0.7388    1.2881    0.2617 H   0  0  0  0  0  0  0  0  0  0  0  0
    0.2876   -0.3743   -0.0826 H   0  0  0  0  0  0  0  0  0  0  0  0
    1.6177   -0.7065   -2.8180 H   0  0  0  0  0  0  0  0  0  0  0  0
   -0.4010    1.5958   -5.5166 H   0  0  0  0  0  0  0  0  0  0  0  0
   -1.9130    3.4467   -4.8370 H   0  0  0  0  0  0  0  0  0  0  0  0
   -2.9807    4.7772   -3.0591 H   0  0  0  0  0  0  0  0  0  0  0  0
   -2.5108    4.2719   -0.6799 H   0  0  0  0  0  0  0  0  0  0  0  0
   -0.9832    2.4723   -0.0706 H   0  0  0  0  0  0  0  0  0  0  0  0
    2.7478    2.8396    0.9002 H   0  0  0  0  0  0  0  0  0  0  0  0
    2.3469    2.9939   -0.8435 H   0  0  0  0  0  0  0  0  0  0  0  0
    4.7301    3.5458   -1.1201 H   0  0  0  0  0  0  0  0  0  0  0  0
    5.4143    1.7093    1.2726 H   0  0  0  0  0  0  0  0  0  0  0  0
    5.2457    3.4523    1.4396 H   0  0  0  0  0  0  0  0  0  0  0  0
    7.0393    3.8537   -0.2126 H   0  0  0  0  0  0  0  0  0  0  0  0
    7.1600    2.1526   -0.5828 H   0  0  0  0  0  0  0  0  0  0  0  0
    8.1817    0.5517    1.0134 H   0  0  0  0  0  0  0  0  0  0  0  0
    9.8815    0.2751    2.7818 H   0  0  0  0  0  0  0  0  0  0  0  0
   10.6240    2.2300    4.1166 H   0  0  0  0  0  0  0  0  0  0  0  0
    9.6389    4.4665    3.6918 H   0  0  0  0  0  0  0  0  0  0  0  0
    7.9383    4.7615    1.9249 H   0  0  0  0  0  0  0  0  0  0  0  0
    5.1899    0.6174   -1.0781 H   0  0  0  0  0  0  0  0  0  0  0  0
    4.0757    1.4120   -2.2401 H   0  0  0  0  0  0  0  0  0  0  0  0
  1  2  2  0  0  0  0
  2  3  1  0  0  0  0
  2 14  1  0  0  0  0
  3  4  1  0  0  0  0
  3 26  1  0  0  0  0
  3 27  1  0  0  0  0
  4  5  1  0  0  0  0
  4 13  2  0  0  0  0
  5  6  2  0  0  0  0
  5 28  1  0  0  0  0
  6  7  1  0  0  0  0
  7  8  2  0  0  0  0
  7 29  1  0  0  0  0
  8  9  1  0  0  0  0
  8 13  1  0  0  0  0
  9 10  2  0  0  0  0
  9 30  1  0  0  0  0
 10 11  1  0  0  0  0
 10 31  1  0  0  0  0
 11 12  2  0  0  0  0
 11 32  1  0  0  0  0
 12 13  1  0  0  0  0
 12 33  1  0  0  0  0
 14 15  1  0  0  0  0
 14 25  1  0  0  0  0
 15 16  1  0  0  0  0
 15 34  1  0  0  0  0
 15 35  1  0  0  0  0
 16 17  1  0  0  0  0
 16 25  1  0  0  0  0
 16 36  1  0  0  0  0
 17 18  1  0  0  0  0
 17 37  1  0  0  0  0
 17 38  1  0  0  0  0
 18 19  1  0  0  0  0
 18 39  1  0  0  0  0
 18 40  1  0  0  0  0
 19 20  1  0  0  0  0
 19 24  2  0  0  0  0
 20 21  2  0  0  0  0
 20 41  1  0  0  0  0
 21 22  1  0  0  0  0
 21 42  1  0  0  0  0
 22 23  2  0  0  0  0
 22 43  1  0  0  0  0
 23 24  1  0  0  0  0
 23 44  1  0  0  0  0
 24 45  1  0  0  0  0
 25 46  1  0  0  0  0
 25 47  1  0  0  0  0
M  END
$$$$
