
 OpenBabel07202414193D

 34 35  0  0  0  0  0  0  0  0999 V2000
   -0.2512   -0.9761    2.2034 F   0  0  0  0  0  0  0  0  0  0  0  0
   -0.5510   -0.4809    0.9934 C   0  0  0  0  0  0  0  0  0  0  0  0
   -1.4290    0.6013    0.9329 C   0  0  0  0  0  0  0  0  0  0  0  0
   -1.7527    1.1651   -0.3001 C   0  0  0  0  0  0  0  0  0  0  0  0
   -1.1883    0.6512   -1.4633 C   0  0  0  0  0  0  0  0  0  0  0  0
   -0.3167   -0.4468   -1.4013 C   0  0  0  0  0  0  0  0  0  0  0  0
    0.0070   -1.0157   -0.1632 C   0  0  0  0  0  0  0  0  0  0  0  0
    0.8587   -2.5737   -0.1087 S   0  0  0  0  0  0  0  0  0  0  0  0
    0.4367   -3.2670    1.0890 O   0  0  0  0  0  0  0  0  0  0  0  0
    0.6683   -3.1891   -1.4071 O   0  0  0  0  0  0  0  0  0  0  0  0
    2.4986   -2.2467    0.0505 N   0  0  0  0  0  0  0  0  0  0  0  0
    3.0517   -1.7378    1.3156 C   0  0  0  0  0  0  0  0  0  0  0  0
    3.1750   -0.2135    1.2691 C   0  0  0  0  0  0  0  0  0  0  0  0
    3.8185    0.3087    0.0523 N   0  0  0  0  0  0  0  0  0  0  0  0
    4.1908    1.6588   -0.0740 C   0  0  0  0  0  0  0  0  0  0  0  0
    4.6304    2.0928   -1.1394 O   0  0  0  0  0  0  0  0  0  0  0  0
    3.9670    2.5376    1.1519 C   0  0  0  0  0  0  0  0  0  0  0  0
    4.4150    4.2275    0.8495 Cl  0  0  0  0  0  0  0  0  0  0  0  0
    3.5643   -0.3908   -1.2183 C   0  0  0  0  0  0  0  0  0  0  0  0
    3.3419   -1.8996   -1.1102 C   0  0  0  0  0  0  0  0  0  0  0  0
   -1.8771    0.9843    1.8473 H   0  0  0  0  0  0  0  0  0  0  0  0
   -2.4590    1.9916   -0.3528 H   0  0  0  0  0  0  0  0  0  0  0  0
   -1.4554    1.0774   -2.4290 H   0  0  0  0  0  0  0  0  0  0  0  0
    0.0630   -0.8734   -2.3272 H   0  0  0  0  0  0  0  0  0  0  0  0
    4.0467   -2.1838    1.4500 H   0  0  0  0  0  0  0  0  0  0  0  0
    2.4579   -2.0543    2.1774 H   0  0  0  0  0  0  0  0  0  0  0  0
    3.7498    0.1171    2.1404 H   0  0  0  0  0  0  0  0  0  0  0  0
    2.1877    0.2504    1.3328 H   0  0  0  0  0  0  0  0  0  0  0  0
    4.5645    2.1813    1.9930 H   0  0  0  0  0  0  0  0  0  0  0  0
    2.9037    2.5305    1.4084 H   0  0  0  0  0  0  0  0  0  0  0  0
    4.4008   -0.2035   -1.9033 H   0  0  0  0  0  0  0  0  0  0  0  0
    2.6793    0.0783   -1.6625 H   0  0  0  0  0  0  0  0  0  0  0  0
    4.3099   -2.4003   -0.9725 H   0  0  0  0  0  0  0  0  0  0  0  0
    2.9350   -2.2951   -2.0455 H   0  0  0  0  0  0  0  0  0  0  0  0
  1  2  1  0  0  0  0
  2  3  1  0  0  0  0
  2  7  2  0  0  0  0
  3  4  2  0  0  0  0
  3 21  1  0  0  0  0
  4  5  1  0  0  0  0
  4 22  1  0  0  0  0
  5  6  2  0  0  0  0
  5 23  1  0  0  0  0
  6  7  1  0  0  0  0
  6 24  1  0  0  0  0
  7  8  1  0  0  0  0
  8  9  2  0  0  0  0
  8 10  2  0  0  0  0
  8 11  1  0  0  0  0
 11 12  1  0  0  0  0
 11 20  1  0  0  0  0
 12 13  1  0  0  0  0
 12 25  1  0  0  0  0
 12 26  1  0  0  0  0
 13 14  1  0  0  0  0
 13 27  1  0  0  0  0
 13 28  1  0  0  0  0
 14 15  1  0  0  0  0
 14 19  1  0  0  0  0
 15 16  2  0  0  0  0
 15 17  1  0  0  0  0
 17 18  1  0  0  0  0
 17 29  1  0  0  0  0
 17 30  1  0  0  0  0
 19 20  1  0  0  0  0
 19 31  1  0  0  0  0
 19 32  1  0  0  0  0
 20 33  1  0  0  0  0
 20 34  1  0  0  0  0
M  END
$$$$
