
 OpenBabel07202414123D

 67 69  0  0  1  0  0  0  0  0999 V2000
    0.9252    0.0804    0.4736 C   0  0  0  0  0  0  0  0  0  0  0  0
    2.4197   -0.0631    0.1052 C   0  0  0  0  0  0  0  0  0  0  0  0
    3.2806    0.1521    1.3616 C   0  0  0  0  0  0  0  0  0  0  0  0
    2.6049   -1.5205   -0.3804 C   0  0  0  0  0  0  0  0  0  0  0  0
    2.8506    0.9618   -0.9483 C   0  0  0  0  0  0  0  0  0  0  0  0
    2.2815    2.2316   -1.0273 C   0  0  0  0  0  0  0  0  0  0  0  0
    2.6728    3.1585   -2.0114 C   0  0  0  0  0  0  0  0  0  0  0  0
    3.6288    2.8747   -2.9988 C   0  0  0  0  0  0  0  0  0  0  0  0
    3.9782    3.8091   -4.0894 N   0  0  0  0  0  0  0  0  0  0  0  0
    5.0068    3.3950   -5.1316 C   0  0  3  0  0  0  0  0  0  0  0  0
    6.4625    3.1280   -4.5663 C   0  0  0  0  0  0  0  0  0  0  0  0
    6.7283    2.2680   -3.7274 O   0  0  0  0  0  0  0  0  0  0  0  0
    7.5166    3.8758   -5.0871 N   0  0  0  0  0  0  0  0  0  0  0  0
    8.8535    3.4803   -4.6441 C   0  0  0  0  0  0  0  0  0  0  0  0
    9.9951    4.3440   -5.1660 C   0  0  0  0  0  0  0  0  0  0  0  0
   11.3144    3.9163   -4.5599 C   0  0  0  0  0  0  0  0  0  0  0  0
   11.7456    4.4649   -3.3422 C   0  0  0  0  0  0  0  0  0  0  0  0
   12.9522    4.0582   -2.7589 C   0  0  0  0  0  0  0  0  0  0  0  0
   13.7348    3.0934   -3.3854 C   0  0  0  0  0  0  0  0  0  0  0  0
   13.3056    2.5356   -4.5818 C   0  0  0  0  0  0  0  0  0  0  0  0
   14.0523    1.5988   -5.1795 F   0  0  0  0  0  0  0  0  0  0  0  0
   12.1052    2.9314   -5.1720 C   0  0  0  0  0  0  0  0  0  0  0  0
    4.5787    2.2757   -6.0952 C   0  0  0  0  0  0  0  0  0  0  0  0
    5.4215    1.8968   -7.1561 C   0  0  0  0  0  0  0  0  0  0  0  0
    5.1095    0.7963   -7.9531 C   0  0  0  0  0  0  0  0  0  0  0  0
    3.9411    0.1098   -7.6899 C   0  0  0  0  0  0  0  0  0  0  0  0
    3.0624    0.4856   -6.7419 N   0  0  0  0  0  0  0  0  0  0  0  0
    3.3904    1.5582   -5.9805 C   0  0  0  0  0  0  0  0  0  0  0  0
    3.3448    5.0788   -4.1552 C   0  0  0  0  0  0  0  0  0  0  0  0
    2.4485    5.4614   -3.3939 O   0  0  0  0  0  0  0  0  0  0  0  0
    3.7176    6.0652   -5.2481 C   0  0  0  0  0  0  0  0  0  0  0  0
    3.2357    7.4771   -4.8593 C   0  0  0  0  0  0  0  0  0  0  0  0
    3.5463    8.4288   -5.9225 C   0  0  0  0  0  0  0  0  0  0  0  0
    3.8166    9.1686   -6.7809 N   0  0  0  0  0  0  0  0  0  0  0  0
    4.1922    1.5984   -2.8854 C   0  0  0  0  0  0  0  0  0  0  0  0
    3.8573    0.6886   -1.8689 C   0  0  0  0  0  0  0  0  0  0  0  0
    0.6143   -0.6981    1.1794 H   0  0  0  0  0  0  0  0  0  0  0  0
    0.2917   -0.0071   -0.4179 H   0  0  0  0  0  0  0  0  0  0  0  0
    0.7012    1.0397    0.9512 H   0  0  0  0  0  0  0  0  0  0  0  0
    3.0103   -0.5548    2.1535 H   0  0  0  0  0  0  0  0  0  0  0  0
    3.1604    1.1656    1.7619 H   0  0  0  0  0  0  0  0  0  0  0  0
    4.3461    0.0128    1.1414 H   0  0  0  0  0  0  0  0  0  0  0  0
    2.2410   -2.2342    0.3676 H   0  0  0  0  0  0  0  0  0  0  0  0
    3.6555   -1.7720   -0.5601 H   0  0  0  0  0  0  0  0  0  0  0  0
    2.0518   -1.7009   -1.3102 H   0  0  0  0  0  0  0  0  0  0  0  0
    1.5103    2.5505   -0.3312 H   0  0  0  0  0  0  0  0  0  0  0  0
    2.1443    4.0997   -1.9389 H   0  0  0  0  0  0  0  0  0  0  0  0
    5.1346    4.2380   -5.8136 H   0  0  0  0  0  0  0  0  0  0  0  0
    7.4108    4.3497   -5.9744 H   0  0  0  0  0  0  0  0  0  0  0  0
    9.0049    2.4360   -4.9484 H   0  0  0  0  0  0  0  0  0  0  0  0
    8.8508    3.4933   -3.5456 H   0  0  0  0  0  0  0  0  0  0  0  0
    9.8105    5.3996   -4.9347 H   0  0  0  0  0  0  0  0  0  0  0  0
   10.0495    4.2778   -6.2596 H   0  0  0  0  0  0  0  0  0  0  0  0
   11.1411    5.2104   -2.8306 H   0  0  0  0  0  0  0  0  0  0  0  0
   13.2744    4.4937   -1.8163 H   0  0  0  0  0  0  0  0  0  0  0  0
   14.6749    2.7681   -2.9465 H   0  0  0  0  0  0  0  0  0  0  0  0
   11.8021    2.4600   -6.1012 H   0  0  0  0  0  0  0  0  0  0  0  0
    6.3458    2.4304   -7.3609 H   0  0  0  0  0  0  0  0  0  0  0  0
    5.7729    0.4689   -8.7462 H   0  0  0  0  0  0  0  0  0  0  0  0
    3.6722   -0.7830   -8.2471 H   0  0  0  0  0  0  0  0  0  0  0  0
    2.6355    1.7935   -5.2355 H   0  0  0  0  0  0  0  0  0  0  0  0
    3.2218    5.7447   -6.1745 H   0  0  0  0  0  0  0  0  0  0  0  0
    4.7946    6.1094   -5.3959 H   0  0  0  0  0  0  0  0  0  0  0  0
    3.7394    7.7881   -3.9349 H   0  0  0  0  0  0  0  0  0  0  0  0
    2.1624    7.4975   -4.6618 H   0  0  0  0  0  0  0  0  0  0  0  0
    4.9090    1.2032   -3.5916 H   0  0  0  0  0  0  0  0  0  0  0  0
    4.4096   -0.2471   -1.8457 H   0  0  0  0  0  0  0  0  0  0  0  0
  1  2  1  0  0  0  0
  1 37  1  0  0  0  0
  1 38  1  0  0  0  0
  1 39  1  0  0  0  0
  2  3  1  0  0  0  0
  2  4  1  0  0  0  0
  2  5  1  0  0  0  0
  3 40  1  0  0  0  0
  3 41  1  0  0  0  0
  3 42  1  0  0  0  0
  4 43  1  0  0  0  0
  4 44  1  0  0  0  0
  4 45  1  0  0  0  0
  5  6  1  0  0  0  0
  5 36  2  0  0  0  0
  6  7  2  0  0  0  0
  6 46  1  0  0  0  0
  7  8  1  0  0  0  0
  7 47  1  0  0  0  0
  8  9  1  0  0  0  0
  8 35  2  0  0  0  0
  9 10  1  0  0  0  0
  9 29  1  0  0  0  0
 10 11  1  0  0  0  0
 10 23  1  0  0  0  0
 10 48  1  0  0  0  0
 11 12  2  0  0  0  0
 11 13  1  0  0  0  0
 13 14  1  0  0  0  0
 13 49  1  0  0  0  0
 14 15  1  0  0  0  0
 14 50  1  0  0  0  0
 14 51  1  0  0  0  0
 15 16  1  0  0  0  0
 15 52  1  0  0  0  0
 15 53  1  0  0  0  0
 16 17  1  0  0  0  0
 16 22  2  0  0  0  0
 17 18  2  0  0  0  0
 17 54  1  0  0  0  0
 18 19  1  0  0  0  0
 18 55  1  0  0  0  0
 19 20  2  0  0  0  0
 19 56  1  0  0  0  0
 20 21  1  0  0  0  0
 20 22  1  0  0  0  0
 22 57  1  0  0  0  0
 23 24  1  0  0  0  0
 23 28  2  0  0  0  0
 24 25  2  0  0  0  0
 24 58  1  0  0  0  0
 25 26  1  0  0  0  0
 25 59  1  0  0  0  0
 26 27  2  0  0  0  0
 26 60  1  0  0  0  0
 27 28  1  0  0  0  0
 28 61  1  0  0  0  0
 29 30  2  0  0  0  0
 29 31  1  0  0  0  0
 31 32  1  0  0  0  0
 31 62  1  0  0  0  0
 31 63  1  0  0  0  0
 32 33  1  0  0  0  0
 32 64  1  0  0  0  0
 32 65  1  0  0  0  0
 33 34  3  0  0  0  0
 35 36  1  0  0  0  0
 35 66  1  0  0  0  0
 36 67  1  0  0  0  0
M  END
$$$$
