
 OpenBabel07202414153D

 46 49  0  0  1  0  0  0  0  0999 V2000
    1.0579    0.0526   -0.1729 C   0  0  0  0  0  0  0  0  0  0  0  0
    2.5758    0.1567    0.0077 C   0  0  2  0  0  0  0  0  0  0  0  0
    3.0740   -0.5994    1.2453 C   0  0  0  0  0  0  0  0  0  0  0  0
    2.6673    0.0874    2.5425 C   0  0  0  0  0  0  0  0  0  0  0  0
    3.0645    1.5722    2.5465 C   0  0  2  0  0  0  0  0  0  0  0  0
    2.6264    2.3098    1.2772 C   0  0  0  0  0  0  0  0  0  0  0  0
    3.0223    1.5649    0.0626 N   0  0  0  0  0  0  0  0  0  0  0  0
    3.7054    2.0678   -1.0361 C   0  0  0  0  0  0  0  0  0  0  0  0
    4.1690    3.5022   -1.0644 C   0  0  0  0  0  0  0  0  0  0  0  0
    3.9741    1.3591   -2.0114 O   0  0  0  0  0  0  0  0  0  0  0  0
    4.4749    1.7434    2.8190 N   0  0  0  0  0  0  0  0  0  0  0  0
    4.7018    2.0701    4.1408 C   0  0  0  0  0  0  0  0  0  0  0  0
    5.8115    2.0105    4.6446 O   0  0  0  0  0  0  0  0  0  0  0  0
    3.4931    2.3730    4.7199 N   0  0  0  0  0  0  0  0  0  0  0  0
    3.3000    2.5421    6.1079 C   0  0  0  0  0  0  0  0  0  0  0  0
    2.3908    1.7112    6.7698 C   0  0  0  0  0  0  0  0  0  0  0  0
    2.1836    1.7042    8.1037 N   0  0  0  0  0  0  0  0  0  0  0  0
    2.8961    2.5998    8.8199 C   0  0  0  0  0  0  0  0  0  0  0  0
    3.7944    3.5195    8.2739 C   0  0  0  0  0  0  0  0  0  0  0  0
    4.4511    4.4642    9.0820 C   0  0  0  0  0  0  0  0  0  0  0  0
    5.3027    5.4116    8.5174 C   0  0  0  0  0  0  0  0  0  0  0  0
    5.5139    5.4201    7.1459 C   0  0  0  0  0  0  0  0  0  0  0  0
    4.8790    4.4747    6.3354 C   0  0  0  0  0  0  0  0  0  0  0  0
    4.0119    3.4964    6.8767 C   0  0  0  0  0  0  0  0  0  0  0  0
    2.4734    2.1776    3.8194 C   0  0  0  0  0  0  0  0  0  0  0  0
    1.2759    2.3618    3.9999 O   0  0  0  0  0  0  0  0  0  0  0  0
    0.7470   -0.9960   -0.2278 H   0  0  0  0  0  0  0  0  0  0  0  0
    0.7471    0.5483   -1.0986 H   0  0  0  0  0  0  0  0  0  0  0  0
    0.5031    0.5180    0.6475 H   0  0  0  0  0  0  0  0  0  0  0  0
    3.0237   -0.3413   -0.8594 H   0  0  0  0  0  0  0  0  0  0  0  0
    4.1693   -0.6618    1.2087 H   0  0  0  0  0  0  0  0  0  0  0  0
    2.6999   -1.6296    1.2415 H   0  0  0  0  0  0  0  0  0  0  0  0
    3.1189   -0.4417    3.3916 H   0  0  0  0  0  0  0  0  0  0  0  0
    1.5817   -0.0077    2.6737 H   0  0  0  0  0  0  0  0  0  0  0  0
    3.0359    3.3193    1.2881 H   0  0  0  0  0  0  0  0  0  0  0  0
    1.5374    2.4296    1.2445 H   0  0  0  0  0  0  0  0  0  0  0  0
    3.8656    4.1133   -0.2210 H   0  0  0  0  0  0  0  0  0  0  0  0
    3.7720    3.9727   -1.9690 H   0  0  0  0  0  0  0  0  0  0  0  0
    5.2634    3.5092   -1.1122 H   0  0  0  0  0  0  0  0  0  0  0  0
    5.2254    1.3580    2.2562 H   0  0  0  0  0  0  0  0  0  0  0  0
    1.8122    0.9615    6.2350 H   0  0  0  0  0  0  0  0  0  0  0  0
    2.7042    2.5663    9.8892 H   0  0  0  0  0  0  0  0  0  0  0  0
    4.2874    4.4790   10.1574 H   0  0  0  0  0  0  0  0  0  0  0  0
    5.7954    6.1474    9.1494 H   0  0  0  0  0  0  0  0  0  0  0  0
    6.1687    6.1624    6.6972 H   0  0  0  0  0  0  0  0  0  0  0  0
    5.0638    4.5263    5.2654 H   0  0  0  0  0  0  0  0  0  0  0  0
  1  2  1  0  0  0  0
  1 27  1  0  0  0  0
  1 28  1  0  0  0  0
  1 29  1  0  0  0  0
  2  3  1  0  0  0  0
  2  7  1  0  0  0  0
  2 30  1  6  0  0  0
  3  4  1  0  0  0  0
  3 31  1  0  0  0  0
  3 32  1  0  0  0  0
  4  5  1  0  0  0  0
  4 33  1  0  0  0  0
  4 34  1  0  0  0  0
  5  6  1  0  0  0  0
  5 11  1  0  0  0  0
  5 25  1  1  0  0  0
  6  7  1  0  0  0  0
  6 35  1  0  0  0  0
  6 36  1  0  0  0  0
  7  8  1  0  0  0  0
  8  9  1  0  0  0  0
  8 10  2  0  0  0  0
  9 37  1  0  0  0  0
  9 38  1  0  0  0  0
  9 39  1  0  0  0  0
 11 12  1  0  0  0  0
 11 40  1  0  0  0  0
 12 13  2  0  0  0  0
 12 14  1  0  0  0  0
 14 15  1  0  0  0  0
 14 25  1  0  0  0  0
 15 16  1  0  0  0  0
 15 24  2  0  0  0  0
 16 17  2  0  0  0  0
 16 41  1  0  0  0  0
 17 18  1  0  0  0  0
 18 19  2  0  0  0  0
 18 42  1  0  0  0  0
 19 20  1  0  0  0  0
 19 24  1  0  0  0  0
 20 21  2  0  0  0  0
 20 43  1  0  0  0  0
 21 22  1  0  0  0  0
 21 44  1  0  0  0  0
 22 23  2  0  0  0  0
 22 45  1  0  0  0  0
 23 24  1  0  0  0  0
 23 46  1  0  0  0  0
 25 26  2  0  0  0  0
M  END
$$$$
