
 OpenBabel07202414153D

 68 71  0  0  1  0  0  0  0  0999 V2000
    2.5840   -2.1672   -3.1517 C   0  0  0  0  0  0  0  0  0  0  0  0
    3.2248   -1.7372   -1.9561 O   0  0  0  0  0  0  0  0  0  0  0  0
    3.7334   -2.7191   -1.1469 C   0  0  0  0  0  0  0  0  0  0  0  0
    4.2987   -2.2569    0.0437 C   0  0  0  0  0  0  0  0  0  0  0  0
    4.8441   -3.1537    0.9747 C   0  0  0  0  0  0  0  0  0  0  0  0
    4.8422   -4.5340    0.7305 C   0  0  0  0  0  0  0  0  0  0  0  0
    5.3891   -5.5036    1.7563 C   0  0  0  0  0  0  0  0  0  0  0  0
    4.3112   -5.9276    2.7596 C   0  0  0  0  0  0  0  0  0  0  0  0
    4.7987   -6.7404    3.8745 N   0  0  0  0  0  0  0  0  0  0  0  0
    4.0750   -6.7786    5.0684 C   0  0  0  0  0  0  0  0  0  0  0  0
    3.1056   -6.0335    5.2561 O   0  0  0  0  0  0  0  0  0  0  0  0
    4.5384   -7.8091    6.1323 C   0  0  3  0  0  0  0  0  0  0  0  0
    4.3556   -7.3181    7.5462 N   0  0  0  0  0  0  0  0  0  0  0  0
    3.1887   -7.5212    8.3142 C   0  0  0  0  0  0  0  0  0  0  0  0
    2.2312   -8.1760    7.9104 O   0  0  0  0  0  0  0  0  0  0  0  0
    3.1195   -7.0101    9.6979 C   0  0  0  0  0  0  0  0  0  0  0  0
    2.4043   -7.6171   10.7114 C   0  0  0  0  0  0  0  0  0  0  0  0
    2.5422   -6.8825   11.8499 O   0  0  0  0  0  0  0  0  0  0  0  0
    3.3236   -5.8395   11.4656 C   0  0  0  0  0  0  0  0  0  0  0  0
    3.6941   -5.8567   10.2057 N   0  0  0  0  0  0  0  0  0  0  0  0
    5.4289   -6.5400    8.0592 C   0  0  0  0  0  0  0  0  0  0  0  0
    6.3398   -7.1505    8.9244 C   0  0  0  0  0  0  0  0  0  0  0  0
    7.3477   -6.3973    9.5261 C   0  0  0  0  0  0  0  0  0  0  0  0
    7.5032   -5.0467    9.2193 C   0  0  0  0  0  0  0  0  0  0  0  0
    8.5289   -4.2544    9.6714 O   0  0  0  0  0  0  0  0  0  0  0  0
    9.7659   -4.9149    9.9965 C   0  0  0  0  0  0  0  0  0  0  0  0
   10.3888   -5.5851    8.7685 C   0  0  0  0  0  0  0  0  0  0  0  0
   10.7408   -3.8588   10.5192 C   0  0  0  0  0  0  0  0  0  0  0  0
    6.5686   -4.4272    8.3812 C   0  0  0  0  0  0  0  0  0  0  0  0
    5.5327   -5.1704    7.7974 C   0  0  0  0  0  0  0  0  0  0  0  0
    4.0047   -9.2060    5.8053 C   0  0  0  0  0  0  0  0  0  0  0  0
    2.6515   -9.4586    5.5325 C   0  0  0  0  0  0  0  0  0  0  0  0
    2.2135  -10.7408    5.2077 C   0  0  0  0  0  0  0  0  0  0  0  0
    3.1556  -11.7444    5.1113 C   0  0  0  0  0  0  0  0  0  0  0  0
    4.4739  -11.5491    5.3315 N   0  0  0  0  0  0  0  0  0  0  0  0
    4.8612  -10.2967    5.6812 C   0  0  0  0  0  0  0  0  0  0  0  0
    4.2765   -4.9935   -0.4708 C   0  0  0  0  0  0  0  0  0  0  0  0
    3.7352   -4.0938   -1.3898 C   0  0  0  0  0  0  0  0  0  0  0  0
    3.2169   -4.6091   -2.5143 F   0  0  0  0  0  0  0  0  0  0  0  0
    2.1982   -1.2826   -3.6677 H   0  0  0  0  0  0  0  0  0  0  0  0
    1.7300   -2.8163   -2.9313 H   0  0  0  0  0  0  0  0  0  0  0  0
    3.2974   -2.6548   -3.8241 H   0  0  0  0  0  0  0  0  0  0  0  0
    4.3080   -1.1897    0.2587 H   0  0  0  0  0  0  0  0  0  0  0  0
    5.2623   -2.7590    1.8994 H   0  0  0  0  0  0  0  0  0  0  0  0
    6.2311   -5.0344    2.2814 H   0  0  0  0  0  0  0  0  0  0  0  0
    5.8105   -6.3802    1.2469 H   0  0  0  0  0  0  0  0  0  0  0  0
    3.5329   -6.5140    2.2543 H   0  0  0  0  0  0  0  0  0  0  0  0
    3.8254   -5.0375    3.1737 H   0  0  0  0  0  0  0  0  0  0  0  0
    5.4498   -7.4916    3.6722 H   0  0  0  0  0  0  0  0  0  0  0  0
    5.6308   -7.8740    5.9989 H   0  0  0  0  0  0  0  0  0  0  0  0
    1.8009   -8.5114   10.7831 H   0  0  0  0  0  0  0  0  0  0  0  0
    3.5592   -5.1054   12.2235 H   0  0  0  0  0  0  0  0  0  0  0  0
    6.2534   -8.2086    9.1566 H   0  0  0  0  0  0  0  0  0  0  0  0
    8.0050   -6.8989   10.2316 H   0  0  0  0  0  0  0  0  0  0  0  0
    9.6098   -5.6360   10.8071 H   0  0  0  0  0  0  0  0  0  0  0  0
   10.5399   -4.8556    7.9655 H   0  0  0  0  0  0  0  0  0  0  0  0
    9.7482   -6.3701    8.3572 H   0  0  0  0  0  0  0  0  0  0  0  0
   11.3505   -6.0435    9.0176 H   0  0  0  0  0  0  0  0  0  0  0  0
   10.9232   -3.0846    9.7659 H   0  0  0  0  0  0  0  0  0  0  0  0
   11.7016   -4.3128   10.7875 H   0  0  0  0  0  0  0  0  0  0  0  0
   10.3370   -3.3564   11.4035 H   0  0  0  0  0  0  0  0  0  0  0  0
    6.6434   -3.3592    8.1866 H   0  0  0  0  0  0  0  0  0  0  0  0
    4.7901   -4.6619    7.1874 H   0  0  0  0  0  0  0  0  0  0  0  0
    1.9114   -8.6616    5.6031 H   0  0  0  0  0  0  0  0  0  0  0  0
    1.1613  -10.9441    5.0394 H   0  0  0  0  0  0  0  0  0  0  0  0
    2.8682  -12.7582    4.8458 H   0  0  0  0  0  0  0  0  0  0  0  0
    5.9325  -10.2030    5.8425 H   0  0  0  0  0  0  0  0  0  0  0  0
    4.2424   -6.0531   -0.7018 H   0  0  0  0  0  0  0  0  0  0  0  0
  1  2  1  0  0  0  0
  1 40  1  0  0  0  0
  1 41  1  0  0  0  0
  1 42  1  0  0  0  0
  2  3  1  0  0  0  0
  3  4  1  0  0  0  0
  3 38  2  0  0  0  0
  4  5  2  0  0  0  0
  4 43  1  0  0  0  0
  5  6  1  0  0  0  0
  5 44  1  0  0  0  0
  6  7  1  0  0  0  0
  6 37  2  0  0  0  0
  7  8  1  0  0  0  0
  7 45  1  0  0  0  0
  7 46  1  0  0  0  0
  8  9  1  0  0  0  0
  8 47  1  0  0  0  0
  8 48  1  0  0  0  0
  9 10  1  0  0  0  0
  9 49  1  0  0  0  0
 10 11  2  0  0  0  0
 10 12  1  0  0  0  0
 12 13  1  0  0  0  0
 12 31  1  0  0  0  0
 12 50  1  0  0  0  0
 13 14  1  0  0  0  0
 13 21  1  0  0  0  0
 14 15  2  0  0  0  0
 14 16  1  0  0  0  0
 16 17  2  0  0  0  0
 16 20  1  0  0  0  0
 17 18  1  0  0  0  0
 17 51  1  0  0  0  0
 18 19  1  0  0  0  0
 19 20  2  0  0  0  0
 19 52  1  0  0  0  0
 21 22  1  0  0  0  0
 21 30  2  0  0  0  0
 22 23  2  0  0  0  0
 22 53  1  0  0  0  0
 23 24  1  0  0  0  0
 23 54  1  0  0  0  0
 24 25  1  0  0  0  0
 24 29  2  0  0  0  0
 25 26  1  0  0  0  0
 26 27  1  0  0  0  0
 26 28  1  0  0  0  0
 26 55  1  0  0  0  0
 27 56  1  0  0  0  0
 27 57  1  0  0  0  0
 27 58  1  0  0  0  0
 28 59  1  0  0  0  0
 28 60  1  0  0  0  0
 28 61  1  0  0  0  0
 29 30  1  0  0  0  0
 29 62  1  0  0  0  0
 30 63  1  0  0  0  0
 31 32  1  0  0  0  0
 31 36  2  0  0  0  0
 32 33  2  0  0  0  0
 32 64  1  0  0  0  0
 33 34  1  0  0  0  0
 33 65  1  0  0  0  0
 34 35  2  0  0  0  0
 34 66  1  0  0  0  0
 35 36  1  0  0  0  0
 36 67  1  0  0  0  0
 37 38  1  0  0  0  0
 37 68  1  0  0  0  0
 38 39  1  0  0  0  0
M  END
$$$$
