
 OpenBabel07202414183D

 42 46  0  0  1  0  0  0  0  0999 V2000
    0.8793   -0.2014    0.0632 Cl  0  0  0  0  0  0  0  0  0  0  0  0
    2.5941   -0.1163   -0.0353 C   0  0  0  0  0  0  0  0  0  0  0  0
    3.3555   -1.2736    0.0802 C   0  0  0  0  0  0  0  0  0  0  0  0
    4.7450   -1.1894    0.0157 C   0  0  0  0  0  0  0  0  0  0  0  0
    5.3680    0.0483   -0.1629 C   0  0  0  0  0  0  0  0  0  0  0  0
    4.6095    1.2221   -0.3028 C   0  0  0  0  0  0  0  0  0  0  0  0
    3.2093    1.1215   -0.2214 C   0  0  0  0  0  0  0  0  0  0  0  0
    5.2896    2.5737   -0.4823 C   0  0  2  0  0  0  0  0  0  0  0  0
    6.7664    2.3601   -0.8703 C   0  0  0  0  0  0  0  0  0  0  0  0
    7.3668    1.2649    0.0208 C   0  0  0  0  0  0  0  0  0  0  0  0
    6.7345    0.0085   -0.2095 O   0  0  0  0  0  0  0  0  0  0  0  0
    5.2581    3.3359    0.8503 C   0  0  0  0  0  0  0  0  0  0  0  0
    4.9946    4.7283    0.3935 C   0  0  0  0  0  0  0  0  0  0  0  0
    5.5866    5.6877    0.8011 O   0  0  0  0  0  0  0  0  0  0  0  0
    4.0931    4.6333   -0.6591 N   0  0  0  0  0  0  0  0  0  0  0  0
    3.3300    5.7737   -1.0357 C   0  0  0  0  0  0  0  0  0  0  0  0
    3.3989    6.3654   -2.2883 C   0  0  0  0  0  0  0  0  0  0  0  0
    3.1999    7.6937   -2.4709 N   0  0  0  0  0  0  0  0  0  0  0  0
    2.7986    8.4071   -1.3917 C   0  0  0  0  0  0  0  0  0  0  0  0
    2.2724    7.8368   -0.2408 C   0  0  0  0  0  0  0  0  0  0  0  0
    1.5135    8.5672    0.7102 C   0  0  0  0  0  0  0  0  0  0  0  0
    1.0925    7.9581    1.8911 C   0  0  0  0  0  0  0  0  0  0  0  0
    1.3900    6.6221    2.1102 C   0  0  0  0  0  0  0  0  0  0  0  0
    2.0746    5.8834    1.1362 C   0  0  0  0  0  0  0  0  0  0  0  0
    2.5686    6.4779   -0.0486 C   0  0  0  0  0  0  0  0  0  0  0  0
    4.4830    3.5410   -1.4254 C   0  0  0  0  0  0  0  0  0  0  0  0
    4.2185    3.3323   -2.5972 O   0  0  0  0  0  0  0  0  0  0  0  0
    2.8783   -2.2384    0.2230 H   0  0  0  0  0  0  0  0  0  0  0  0
    5.3478   -2.0893    0.1158 H   0  0  0  0  0  0  0  0  0  0  0  0
    2.5811    2.0050   -0.3030 H   0  0  0  0  0  0  0  0  0  0  0  0
    7.3475    3.2828   -0.7503 H   0  0  0  0  0  0  0  0  0  0  0  0
    6.8520    2.0546   -1.9192 H   0  0  0  0  0  0  0  0  0  0  0  0
    7.3008    1.4928    1.0933 H   0  0  0  0  0  0  0  0  0  0  0  0
    8.4338    1.1394   -0.1924 H   0  0  0  0  0  0  0  0  0  0  0  0
    6.1994    3.3120    1.4060 H   0  0  0  0  0  0  0  0  0  0  0  0
    4.4484    3.0354    1.5242 H   0  0  0  0  0  0  0  0  0  0  0  0
    3.7083    5.8385   -3.1830 H   0  0  0  0  0  0  0  0  0  0  0  0
    3.0280    9.4709   -1.4313 H   0  0  0  0  0  0  0  0  0  0  0  0
    1.2201    9.5988    0.5187 H   0  0  0  0  0  0  0  0  0  0  0  0
    0.5249    8.5194    2.6355 H   0  0  0  0  0  0  0  0  0  0  0  0
    1.0987    6.1401    3.0401 H   0  0  0  0  0  0  0  0  0  0  0  0
    2.1853    4.8153    1.3018 H   0  0  0  0  0  0  0  0  0  0  0  0
  1  2  1  0  0  0  0
  2  3  1  0  0  0  0
  2  7  2  0  0  0  0
  3  4  2  0  0  0  0
  3 28  1  0  0  0  0
  4  5  1  0  0  0  0
  4 29  1  0  0  0  0
  5  6  2  0  0  0  0
  5 11  1  0  0  0  0
  6  7  1  0  0  0  0
  7 30  1  0  0  0  0
  8  6  1  1  0  0  0
  8  9  1  0  0  0  0
  8 12  1  0  0  0  0
  8 26  1  0  0  0  0
  9 10  1  0  0  0  0
  9 31  1  0  0  0  0
  9 32  1  0  0  0  0
 10 11  1  0  0  0  0
 10 33  1  0  0  0  0
 10 34  1  0  0  0  0
 12 13  1  0  0  0  0
 12 35  1  0  0  0  0
 12 36  1  0  0  0  0
 13 14  2  0  0  0  0
 13 15  1  0  0  0  0
 15 16  1  0  0  0  0
 15 26  1  0  0  0  0
 16 17  1  0  0  0  0
 16 25  2  0  0  0  0
 17 18  2  0  0  0  0
 17 37  1  0  0  0  0
 18 19  1  0  0  0  0
 19 20  2  0  0  0  0
 19 38  1  0  0  0  0
 20 21  1  0  0  0  0
 20 25  1  0  0  0  0
 21 22  2  0  0  0  0
 21 39  1  0  0  0  0
 22 23  1  0  0  0  0
 22 40  1  0  0  0  0
 23 24  2  0  0  0  0
 23 41  1  0  0  0  0
 24 25  1  0  0  0  0
 24 42  1  0  0  0  0
 26 27  2  0  0  0  0
M  END
$$$$
