
 OpenBabel07202414123D

 56 58  0  0  0  0  0  0  0  0999 V2000
    2.8378    0.8308    0.0270 C   0  0  0  0  0  0  0  0  0  0  0  0
    4.0465    0.1895    0.7055 C   0  0  0  0  0  0  0  0  0  0  0  0
    3.6098   -0.4558    2.0188 C   0  0  0  0  0  0  0  0  0  0  0  0
    4.5612   -0.7734   -0.2227 O   0  0  0  0  0  0  0  0  0  0  0  0
    5.7662   -1.4203    0.1754 C   0  0  0  0  0  0  0  0  0  0  0  0
    6.1830   -2.4177   -0.9092 C   0  0  0  0  0  0  0  0  0  0  0  0
    6.4514   -1.7417   -2.2667 C   0  0  0  0  0  0  0  0  0  0  0  0
    6.9678   -2.6681   -3.2965 N   0  0  0  0  0  0  0  0  0  0  0  0
    5.9928   -3.3569   -4.1577 C   0  0  0  0  0  0  0  0  0  0  0  0
    5.7459   -2.6030   -5.4265 C   0  0  0  0  0  0  0  0  0  0  0  0
    4.7577   -1.7310   -5.8430 C   0  0  0  0  0  0  0  0  0  0  0  0
    5.0956   -1.3305   -7.1629 C   0  0  0  0  0  0  0  0  0  0  0  0
    6.2311   -2.0285   -7.4914 C   0  0  0  0  0  0  0  0  0  0  0  0
    6.6255   -2.8144   -6.4541 O   0  0  0  0  0  0  0  0  0  0  0  0
    8.3475   -2.8439   -3.3287 C   0  0  0  0  0  0  0  0  0  0  0  0
    9.0473   -2.3134   -2.4589 O   0  0  0  0  0  0  0  0  0  0  0  0
    8.8625   -3.5930   -4.3635 N   0  0  0  0  0  0  0  0  0  0  0  0
   10.2203   -3.8461   -4.5801 C   0  0  0  0  0  0  0  0  0  0  0  0
   11.1334   -3.8234   -3.5894 C   0  0  0  0  0  0  0  0  0  0  0  0
   12.4876   -4.0361   -3.7718 N   0  0  0  0  0  0  0  0  0  0  0  0
   13.0405   -4.3234   -5.0106 C   0  0  0  0  0  0  0  0  0  0  0  0
   14.2471   -4.5114   -5.1922 O   0  0  0  0  0  0  0  0  0  0  0  0
   12.0961   -4.3724   -6.1555 C   0  0  0  0  0  0  0  0  0  0  0  0
   10.7207   -4.1267   -5.9541 C   0  0  0  0  0  0  0  0  0  0  0  0
    9.9025   -4.0936   -7.0956 C   0  0  0  0  0  0  0  0  0  0  0  0
   10.4249   -4.3095   -8.3780 C   0  0  0  0  0  0  0  0  0  0  0  0
   11.7812   -4.5714   -8.5479 C   0  0  0  0  0  0  0  0  0  0  0  0
   12.6133   -4.6072   -7.4402 C   0  0  0  0  0  0  0  0  0  0  0  0
   13.3983   -3.8650   -2.6511 C   0  0  0  0  0  0  0  0  0  0  0  0
    2.3692    1.5880    0.6634 H   0  0  0  0  0  0  0  0  0  0  0  0
    2.0868    0.0717   -0.2217 H   0  0  0  0  0  0  0  0  0  0  0  0
    3.1305    1.3010   -0.9179 H   0  0  0  0  0  0  0  0  0  0  0  0
    4.8012    0.9631    0.8945 H   0  0  0  0  0  0  0  0  0  0  0  0
    2.9439   -1.3047    1.8303 H   0  0  0  0  0  0  0  0  0  0  0  0
    3.0937    0.2619    2.6648 H   0  0  0  0  0  0  0  0  0  0  0  0
    4.4686   -0.8396    2.5778 H   0  0  0  0  0  0  0  0  0  0  0  0
    5.5948   -1.9788    1.1049 H   0  0  0  0  0  0  0  0  0  0  0  0
    6.5551   -0.6784    0.3656 H   0  0  0  0  0  0  0  0  0  0  0  0
    5.3790   -3.1535   -1.0341 H   0  0  0  0  0  0  0  0  0  0  0  0
    7.0684   -2.9643   -0.5630 H   0  0  0  0  0  0  0  0  0  0  0  0
    7.1999   -0.9533   -2.1062 H   0  0  0  0  0  0  0  0  0  0  0  0
    5.5594   -1.2504   -2.6511 H   0  0  0  0  0  0  0  0  0  0  0  0
    5.0556   -3.4828   -3.6055 H   0  0  0  0  0  0  0  0  0  0  0  0
    6.3580   -4.3610   -4.3991 H   0  0  0  0  0  0  0  0  0  0  0  0
    3.9031   -1.4049   -5.2633 H   0  0  0  0  0  0  0  0  0  0  0  0
    4.5728   -0.6229   -7.7923 H   0  0  0  0  0  0  0  0  0  0  0  0
    6.8487   -2.0646   -8.3786 H   0  0  0  0  0  0  0  0  0  0  0  0
    8.2437   -3.7205   -5.1478 H   0  0  0  0  0  0  0  0  0  0  0  0
   10.8438   -3.6370   -2.5619 H   0  0  0  0  0  0  0  0  0  0  0  0
    8.8418   -3.8779   -7.0321 H   0  0  0  0  0  0  0  0  0  0  0  0
    9.7705   -4.2558   -9.2431 H   0  0  0  0  0  0  0  0  0  0  0  0
   12.1873   -4.7295   -9.5449 H   0  0  0  0  0  0  0  0  0  0  0  0
   13.6798   -4.7872   -7.5737 H   0  0  0  0  0  0  0  0  0  0  0  0
   12.8673   -3.7344   -1.7067 H   0  0  0  0  0  0  0  0  0  0  0  0
   14.0232   -2.9850   -2.8391 H   0  0  0  0  0  0  0  0  0  0  0  0
   14.0518   -4.7430   -2.5777 H   0  0  0  0  0  0  0  0  0  0  0  0
  1  2  1  0  0  0  0
  1 30  1  0  0  0  0
  1 31  1  0  0  0  0
  1 32  1  0  0  0  0
  2  3  1  0  0  0  0
  2  4  1  0  0  0  0
  2 33  1  0  0  0  0
  3 34  1  0  0  0  0
  3 35  1  0  0  0  0
  3 36  1  0  0  0  0
  4  5  1  0  0  0  0
  5  6  1  0  0  0  0
  5 37  1  0  0  0  0
  5 38  1  0  0  0  0
  6  7  1  0  0  0  0
  6 39  1  0  0  0  0
  6 40  1  0  0  0  0
  7  8  1  0  0  0  0
  7 41  1  0  0  0  0
  7 42  1  0  0  0  0
  8  9  1  0  0  0  0
  8 15  1  0  0  0  0
  9 10  1  0  0  0  0
  9 43  1  0  0  0  0
  9 44  1  0  0  0  0
 10 11  2  0  0  0  0
 10 14  1  0  0  0  0
 11 12  1  0  0  0  0
 11 45  1  0  0  0  0
 12 13  2  0  0  0  0
 12 46  1  0  0  0  0
 13 14  1  0  0  0  0
 13 47  1  0  0  0  0
 15 16  2  0  0  0  0
 15 17  1  0  0  0  0
 17 18  1  0  0  0  0
 17 48  1  0  0  0  0
 18 19  2  0  0  0  0
 18 24  1  0  0  0  0
 19 20  1  0  0  0  0
 19 49  1  0  0  0  0
 20 21  1  0  0  0  0
 20 29  1  0  0  0  0
 21 22  2  0  0  0  0
 21 23  1  0  0  0  0
 23 24  1  0  0  0  0
 23 28  2  0  0  0  0
 24 25  2  0  0  0  0
 25 26  1  0  0  0  0
 25 50  1  0  0  0  0
 26 27  2  0  0  0  0
 26 51  1  0  0  0  0
 27 28  1  0  0  0  0
 27 52  1  0  0  0  0
 28 53  1  0  0  0  0
 29 54  1  0  0  0  0
 29 55  1  0  0  0  0
 29 56  1  0  0  0  0
M  END
$$$$
