
 OpenBabel07202414143D

 46 49  0  0  0  0  0  0  0  0999 V2000
    1.2303   -0.1652    0.0476 C   0  0  0  0  0  0  0  0  0  0  0  0
    2.6289    0.0343    0.3621 N   0  0  0  0  0  0  0  0  0  0  0  0
    3.2405   -0.3899    1.5400 C   0  0  0  0  0  0  0  0  0  0  0  0
    2.5931   -0.9476    2.6449 C   0  0  0  0  0  0  0  0  0  0  0  0
    3.2617   -1.2553    3.8766 C   0  0  0  0  0  0  0  0  0  0  0  0
    4.6198   -0.9588    4.0521 C   0  0  0  0  0  0  0  0  0  0  0  0
    5.2640   -0.4007    2.9240 C   0  0  0  0  0  0  0  0  0  0  0  0
    4.5841   -0.1031    1.7076 C   0  0  0  0  0  0  0  0  0  0  0  0
    5.3488   -1.0943    5.3264 N   0  0  0  0  0  0  0  0  0  0  0  0
    6.4285   -0.1424    5.4816 C   0  0  0  0  0  0  0  0  0  0  0  0
    7.7238   -0.6094    5.7578 C   0  0  0  0  0  0  0  0  0  0  0  0
    8.8092    0.2712    5.7696 C   0  0  0  0  0  0  0  0  0  0  0  0
    8.6123    1.6307    5.5333 C   0  0  0  0  0  0  0  0  0  0  0  0
    7.3260    2.1099    5.2981 C   0  0  0  0  0  0  0  0  0  0  0  0
    6.2361    1.2358    5.2726 C   0  0  0  0  0  0  0  0  0  0  0  0
    7.0877    3.7890    5.0030 Cl  0  0  0  0  0  0  0  0  0  0  0  0
    5.1320   -1.9785    6.4440 C   0  0  0  0  0  0  0  0  0  0  0  0
    5.5725   -1.7100    7.5695 O   0  0  0  0  0  0  0  0  0  0  0  0
    4.3449   -3.2494    6.2448 C   0  0  0  0  0  0  0  0  0  0  0  0
    4.6278   -4.5050    6.9740 N   0  0  0  0  0  0  0  0  0  0  0  0
    5.1877   -4.9450    8.1696 C   0  0  0  0  0  0  0  0  0  0  0  0
    5.7573   -4.3948    9.3434 C   0  0  0  0  0  0  0  0  0  0  0  0
    6.2684   -5.2852   10.3325 C   0  0  0  0  0  0  0  0  0  0  0  0
    6.2197   -6.6716   10.1841 C   0  0  0  0  0  0  0  0  0  0  0  0
    5.6187   -7.2105    9.0569 C   0  0  0  0  0  0  0  0  0  0  0  0
    5.0961   -6.3479    8.0738 C   0  0  0  0  0  0  0  0  0  0  0  0
    4.4406   -6.6903    6.9372 N   0  0  0  0  0  0  0  0  0  0  0  0
    4.1181   -5.5792    6.3061 N   0  0  0  0  0  0  0  0  0  0  0  0
    1.0615    0.0737   -1.0086 H   0  0  0  0  0  0  0  0  0  0  0  0
    0.5993    0.5101    0.6343 H   0  0  0  0  0  0  0  0  0  0  0  0
    0.9124   -1.2009    0.2031 H   0  0  0  0  0  0  0  0  0  0  0  0
    3.2405    0.0590   -0.4448 H   0  0  0  0  0  0  0  0  0  0  0  0
    1.5216   -1.1553    2.5854 H   0  0  0  0  0  0  0  0  0  0  0  0
    2.6577   -1.6445    4.6784 H   0  0  0  0  0  0  0  0  0  0  0  0
    6.3150   -0.1405    2.9384 H   0  0  0  0  0  0  0  0  0  0  0  0
    5.1475    0.3889    0.9171 H   0  0  0  0  0  0  0  0  0  0  0  0
    7.9042   -1.6696    5.9119 H   0  0  0  0  0  0  0  0  0  0  0  0
    9.8120   -0.1090    5.9482 H   0  0  0  0  0  0  0  0  0  0  0  0
    9.4629    2.3083    5.5317 H   0  0  0  0  0  0  0  0  0  0  0  0
    5.2424    1.6315    5.0756 H   0  0  0  0  0  0  0  0  0  0  0  0
    4.4827   -3.5314    5.1951 H   0  0  0  0  0  0  0  0  0  0  0  0
    3.2859   -3.0441    6.4312 H   0  0  0  0  0  0  0  0  0  0  0  0
    5.8093   -3.3214    9.5234 H   0  0  0  0  0  0  0  0  0  0  0  0
    6.7119   -4.8851   11.2467 H   0  0  0  0  0  0  0  0  0  0  0  0
    6.6270   -7.3261   10.9432 H   0  0  0  0  0  0  0  0  0  0  0  0
    5.5356   -8.2867    8.9259 H   0  0  0  0  0  0  0  0  0  0  0  0
  1  2  1  0  0  0  0
  1 29  1  0  0  0  0
  1 30  1  0  0  0  0
  1 31  1  0  0  0  0
  2  3  1  0  0  0  0
  2 32  1  0  0  0  0
  3  4  1  0  0  0  0
  3  8  2  0  0  0  0
  4  5  2  0  0  0  0
  4 33  1  0  0  0  0
  5  6  1  0  0  0  0
  5 34  1  0  0  0  0
  6  7  2  0  0  0  0
  6  9  1  0  0  0  0
  7  8  1  0  0  0  0
  7 35  1  0  0  0  0
  8 36  1  0  0  0  0
  9 10  1  0  0  0  0
  9 17  1  0  0  0  0
 10 11  1  0  0  0  0
 10 15  2  0  0  0  0
 11 12  2  0  0  0  0
 11 37  1  0  0  0  0
 12 13  1  0  0  0  0
 12 38  1  0  0  0  0
 13 14  2  0  0  0  0
 13 39  1  0  0  0  0
 14 15  1  0  0  0  0
 14 16  1  0  0  0  0
 15 40  1  0  0  0  0
 17 18  2  0  0  0  0
 17 19  1  0  0  0  0
 19 20  1  0  0  0  0
 19 41  1  0  0  0  0
 19 42  1  0  0  0  0
 20 21  1  0  0  0  0
 20 28  1  0  0  0  0
 21 22  1  0  0  0  0
 21 26  2  0  0  0  0
 22 23  2  0  0  0  0
 22 43  1  0  0  0  0
 23 24  1  0  0  0  0
 23 44  1  0  0  0  0
 24 25  2  0  0  0  0
 24 45  1  0  0  0  0
 25 26  1  0  0  0  0
 25 46  1  0  0  0  0
 26 27  1  0  0  0  0
 27 28  2  0  0  0  0
M  END
$$$$
