
 OpenBabel07202414213D

 40 43  0  0  1  0  0  0  0  0999 V2000
   -2.5690    2.7231   -6.7706 C   0  0  0  0  0  0  0  0  0  0  0  0
   -1.3831    3.0667   -6.1308 C   0  0  0  0  0  0  0  0  0  0  0  0
   -1.4018    3.5388   -4.8128 C   0  0  0  0  0  0  0  0  0  0  0  0
   -2.6114    3.6843   -4.0783 C   0  0  0  0  0  0  0  0  0  0  0  0
   -3.8054    3.3588   -4.7744 C   0  0  0  0  0  0  0  0  0  0  0  0
   -3.7753    2.8783   -6.0950 C   0  0  0  0  0  0  0  0  0  0  0  0
   -5.0216    3.5259   -4.1179 C   0  0  0  0  0  0  0  0  0  0  0  0
   -5.1560    3.9762   -2.8574 N   0  0  0  0  0  0  0  0  0  0  0  0
   -4.0122    4.2650   -2.1967 C   0  0  0  0  0  0  0  0  0  0  0  0
   -2.7241    4.1312   -2.7254 C   0  0  0  0  0  0  0  0  0  0  0  0
   -1.5623    4.4098   -1.9585 N   0  0  0  0  0  0  0  0  0  0  0  0
   -1.4983    4.8607   -0.6408 C   0  0  0  0  0  0  0  0  0  0  0  0
   -2.4613    5.0477    0.0956 O   0  0  0  0  0  0  0  0  0  0  0  0
   -0.0281    5.1701   -0.1853 C   0  0  2  0  0  0  0  0  0  0  0  0
    0.1418    5.0773    1.3321 C   0  0  0  0  0  0  0  0  0  0  0  0
   -0.4862    6.2673    2.0387 C   0  0  0  0  0  0  0  0  0  0  0  0
   -0.0259    7.5320    1.5681 O   0  0  0  0  0  0  0  0  0  0  0  0
    0.1961    7.6483    0.2266 C   0  0  0  0  0  0  0  0  0  0  0  0
    0.3303    6.5650   -0.6484 C   0  0  0  0  0  0  0  0  0  0  0  0
    0.6743    6.8183   -1.9887 C   0  0  0  0  0  0  0  0  0  0  0  0
    0.7793    8.1261   -2.4568 C   0  0  0  0  0  0  0  0  0  0  0  0
    0.5798    9.1986   -1.5950 C   0  0  0  0  0  0  0  0  0  0  0  0
    0.3179    8.9570   -0.2465 C   0  0  0  0  0  0  0  0  0  0  0  0
    1.1117    8.4072   -4.1205 Cl  0  0  0  0  0  0  0  0  0  0  0  0
    0.8446    4.2067   -0.8002 O   0  0  0  0  0  0  0  0  0  0  0  0
   -2.5583    2.3462   -7.7883 H   0  0  0  0  0  0  0  0  0  0  0  0
   -0.4394    2.9656   -6.6630 H   0  0  0  0  0  0  0  0  0  0  0  0
   -0.4448    3.8101   -4.3767 H   0  0  0  0  0  0  0  0  0  0  0  0
   -4.6999    2.6205   -6.6091 H   0  0  0  0  0  0  0  0  0  0  0  0
   -5.9637    3.2961   -4.6092 H   0  0  0  0  0  0  0  0  0  0  0  0
   -4.1959    4.6128   -1.1869 H   0  0  0  0  0  0  0  0  0  0  0  0
   -0.6603    4.2441   -2.3900 H   0  0  0  0  0  0  0  0  0  0  0  0
    1.2139    5.0472    1.5725 H   0  0  0  0  0  0  0  0  0  0  0  0
   -0.2832    4.1428    1.7187 H   0  0  0  0  0  0  0  0  0  0  0  0
   -0.2295    6.2163    3.1037 H   0  0  0  0  0  0  0  0  0  0  0  0
   -1.5790    6.2570    1.9920 H   0  0  0  0  0  0  0  0  0  0  0  0
    0.8310    5.9938   -2.6788 H   0  0  0  0  0  0  0  0  0  0  0  0
    0.6269   10.2198   -1.9617 H   0  0  0  0  0  0  0  0  0  0  0  0
    0.1789    9.7920    0.4363 H   0  0  0  0  0  0  0  0  0  0  0  0
    0.7257    3.3690   -0.3148 H   0  0  0  0  0  0  0  0  0  0  0  0
  1  2  1  0  0  0  0
  1  6  2  0  0  0  0
  1 26  1  0  0  0  0
  2  3  2  0  0  0  0
  2 27  1  0  0  0  0
  3  4  1  0  0  0  0
  3 28  1  0  0  0  0
  4  5  1  0  0  0  0
  4 10  2  0  0  0  0
  5  6  1  0  0  0  0
  5  7  2  0  0  0  0
  6 29  1  0  0  0  0
  7  8  1  0  0  0  0
  7 30  1  0  0  0  0
  8  9  2  0  0  0  0
  9 10  1  0  0  0  0
  9 31  1  0  0  0  0
 10 11  1  0  0  0  0
 11 12  1  0  0  0  0
 11 32  1  0  0  0  0
 12 13  2  0  0  0  0
 14 15  1  0  0  0  0
 14 19  1  0  0  0  0
 14 25  1  6  0  0  0
 14 12  1  0  0  0  0
 15 16  1  0  0  0  0
 15 33  1  0  0  0  0
 15 34  1  0  0  0  0
 16 17  1  0  0  0  0
 16 35  1  0  0  0  0
 16 36  1  0  0  0  0
 17 18  1  0  0  0  0
 18 19  1  0  0  0  0
 18 23  2  0  0  0  0
 19 20  2  0  0  0  0
 20 21  1  0  0  0  0
 20 37  1  0  0  0  0
 21 22  2  0  0  0  0
 21 24  1  0  0  0  0
 22 23  1  0  0  0  0
 22 38  1  0  0  0  0
 23 39  1  0  0  0  0
 25 40  1  0  0  0  0
M  END
$$$$
