
 OpenBabel07202414113D

 44 47  0  0  1  0  0  0  0  0999 V2000
    1.0540    0.1489   -0.0569 C   0  0  0  0  0  0  0  0  0  0  0  0
    2.2420    0.1214   -0.1483 C   0  0  0  0  0  0  0  0  0  0  0  0
    3.6632    0.0498   -0.2113 C   0  0  0  0  0  0  0  0  0  0  0  0
    4.4156    1.2203   -0.1932 C   0  0  0  0  0  0  0  0  0  0  0  0
    5.7994    1.1351   -0.1765 C   0  0  0  0  0  0  0  0  0  0  0  0
    6.4245   -0.1217   -0.1910 C   0  0  0  0  0  0  0  0  0  0  0  0
    5.6689   -1.3037   -0.2990 C   0  0  0  0  0  0  0  0  0  0  0  0
    4.2743   -1.2038   -0.2581 C   0  0  0  0  0  0  0  0  0  0  0  0
    6.3297   -2.6738   -0.4185 C   0  0  1  0  0  0  0  0  0  0  0  0
    5.7812   -3.5155   -1.6037 C   0  0  0  0  0  0  0  0  0  0  0  0
    5.7701   -4.7422   -1.5428 O   0  0  0  0  0  0  0  0  0  0  0  0
    5.3545   -2.7699   -2.6927 N   0  0  0  0  0  0  0  0  0  0  0  0
    4.8401   -3.2111   -3.9409 C   0  0  0  0  0  0  0  0  0  0  0  0
    4.7254   -4.5529   -4.2912 C   0  0  0  0  0  0  0  0  0  0  0  0
    4.5544   -4.9858   -5.5631 N   0  0  0  0  0  0  0  0  0  0  0  0
    4.3715   -4.0394   -6.5073 C   0  0  0  0  0  0  0  0  0  0  0  0
    4.1985   -2.6853   -6.2352 C   0  0  0  0  0  0  0  0  0  0  0  0
    3.7536   -1.7893   -7.2273 C   0  0  0  0  0  0  0  0  0  0  0  0
    3.5881   -0.4367   -6.9413 C   0  0  0  0  0  0  0  0  0  0  0  0
    3.9153    0.0402   -5.6799 C   0  0  0  0  0  0  0  0  0  0  0  0
    4.3508   -0.8442   -4.6872 C   0  0  0  0  0  0  0  0  0  0  0  0
    4.4767   -2.2400   -4.9239 C   0  0  0  0  0  0  0  0  0  0  0  0
    7.8592   -2.5493   -0.5233 C   0  0  0  0  0  0  0  0  0  0  0  0
    8.3670   -1.4630    0.3167 N   0  0  0  0  0  0  0  0  0  0  0  0
    9.5767   -1.6050    1.0993 C   0  0  0  0  0  0  0  0  0  0  0  0
    7.8701   -0.1830    0.1395 C   0  0  0  0  0  0  0  0  0  0  0  0
    8.5035    0.8406    0.3663 O   0  0  0  0  0  0  0  0  0  0  0  0
   -0.0043    0.1641    0.0151 H   0  0  0  0  0  0  0  0  0  0  0  0
    3.9350    2.1969   -0.1499 H   0  0  0  0  0  0  0  0  0  0  0  0
    6.4016    2.0369   -0.0947 H   0  0  0  0  0  0  0  0  0  0  0  0
    3.6625   -2.1049   -0.2466 H   0  0  0  0  0  0  0  0  0  0  0  0
    6.0895   -3.2166    0.5061 H   0  0  0  0  0  0  0  0  0  0  0  0
    5.5099   -1.7747   -2.6357 H   0  0  0  0  0  0  0  0  0  0  0  0
    4.7896   -5.3559   -3.5641 H   0  0  0  0  0  0  0  0  0  0  0  0
    4.3699   -4.4124   -7.5287 H   0  0  0  0  0  0  0  0  0  0  0  0
    3.4862   -2.1521   -8.2182 H   0  0  0  0  0  0  0  0  0  0  0  0
    3.1989    0.2404   -7.6977 H   0  0  0  0  0  0  0  0  0  0  0  0
    3.8131    1.0994   -5.4555 H   0  0  0  0  0  0  0  0  0  0  0  0
    4.5446   -0.4156   -3.7081 H   0  0  0  0  0  0  0  0  0  0  0  0
    8.1666   -2.3295   -1.5544 H   0  0  0  0  0  0  0  0  0  0  0  0
    8.3368   -3.4925   -0.2345 H   0  0  0  0  0  0  0  0  0  0  0  0
    9.8144   -2.6555    1.2709 H   0  0  0  0  0  0  0  0  0  0  0  0
    9.3944   -1.1257    2.0704 H   0  0  0  0  0  0  0  0  0  0  0  0
   10.4048   -1.0821    0.6150 H   0  0  0  0  0  0  0  0  0  0  0  0
  1  2  3  0  0  0  0
  1 28  1  0  0  0  0
  2  3  1  0  0  0  0
  3  4  1  0  0  0  0
  3  8  2  0  0  0  0
  4  5  2  0  0  0  0
  4 29  1  0  0  0  0
  5  6  1  0  0  0  0
  5 30  1  0  0  0  0
  6  7  2  0  0  0  0
  6 26  1  0  0  0  0
  7  8  1  0  0  0  0
  7  9  1  0  0  0  0
  8 31  1  0  0  0  0
  9 23  1  0  0  0  0
  9 10  1  0  0  0  0
  9 32  1  1  0  0  0
 10 11  2  0  0  0  0
 10 12  1  0  0  0  0
 12 13  1  0  0  0  0
 12 33  1  0  0  0  0
 13 14  1  0  0  0  0
 13 22  2  0  0  0  0
 14 15  2  0  0  0  0
 14 34  1  0  0  0  0
 15 16  1  0  0  0  0
 16 17  2  0  0  0  0
 16 35  1  0  0  0  0
 17 18  1  0  0  0  0
 17 22  1  0  0  0  0
 18 19  2  0  0  0  0
 18 36  1  0  0  0  0
 19 20  1  0  0  0  0
 19 37  1  0  0  0  0
 20 21  2  0  0  0  0
 20 38  1  0  0  0  0
 21 22  1  0  0  0  0
 21 39  1  0  0  0  0
 23 24  1  0  0  0  0
 23 40  1  0  0  0  0
 23 41  1  0  0  0  0
 24 25  1  0  0  0  0
 24 26  1  0  0  0  0
 25 42  1  0  0  0  0
 25 43  1  0  0  0  0
 25 44  1  0  0  0  0
 26 27  2  0  0  0  0
M  END
$$$$
