
 OpenBabel07202414193D

 53 56  0  0  1  0  0  0  0  0999 V2000
    1.5114   -0.6803   -0.8773 O   0  0  0  0  0  0  0  0  0  0  0  0
    2.4386   -0.2032   -0.2133 C   0  0  0  0  0  0  0  0  0  0  0  0
    2.9372    1.2005   -0.5318 C   0  0  0  0  0  0  0  0  0  0  0  0
    2.0479    2.3567   -0.0978 C   0  0  0  0  0  0  0  0  0  0  0  0
    0.6571    2.2137   -0.0792 C   0  0  0  0  0  0  0  0  0  0  0  0
   -0.2214    3.1980    0.2177 N   0  0  0  0  0  0  0  0  0  0  0  0
    0.3017    4.4102    0.4914 C   0  0  0  0  0  0  0  0  0  0  0  0
    1.6612    4.7004    0.4923 C   0  0  0  0  0  0  0  0  0  0  0  0
    2.1173    6.0019    0.7730 C   0  0  0  0  0  0  0  0  0  0  0  0
    3.4820    6.2922    0.7713 C   0  0  0  0  0  0  0  0  0  0  0  0
    4.3935    5.2879    0.4763 C   0  0  0  0  0  0  0  0  0  0  0  0
    3.9422    3.9920    0.1877 C   0  0  0  0  0  0  0  0  0  0  0  0
    2.5674    3.6547    0.1898 C   0  0  0  0  0  0  0  0  0  0  0  0
    3.0354   -0.9404    0.7925 N   0  0  0  0  0  0  0  0  0  0  0  0
    2.6465   -2.3345    0.9612 C   0  0  0  0  0  0  0  0  0  0  0  0
    3.0116   -2.6524    2.3934 C   0  0  0  0  0  0  0  0  0  0  0  0
    4.3081   -1.8778    2.5731 C   0  0  0  0  0  0  0  0  0  0  0  0
    4.1098   -0.5840    1.7467 C   0  0  2  0  0  0  0  0  0  0  0  0
    3.8380    0.6893    2.5982 C   0  0  0  0  0  0  0  0  0  0  0  0
    4.9994    0.9931    3.5647 C   0  0  0  0  0  0  0  0  0  0  0  0
    4.7382    2.1711    4.5017 C   0  0  0  0  0  0  0  0  0  0  0  0
    4.0364    1.7531    5.7933 C   0  0  0  0  0  0  0  0  0  0  0  0
    2.5695    1.3610    5.6536 C   0  0  0  0  0  0  0  0  0  0  0  0
    2.2838    0.2634    4.6350 C   0  0  0  0  0  0  0  0  0  0  0  0
    2.4252    0.7537    3.2017 C   0  0  0  0  0  0  0  0  0  0  0  0
    3.0268    1.2542   -1.6245 H   0  0  0  0  0  0  0  0  0  0  0  0
    3.9575    1.2962   -0.1608 H   0  0  0  0  0  0  0  0  0  0  0  0
    0.1720    1.2725   -0.3256 H   0  0  0  0  0  0  0  0  0  0  0  0
   -0.4410    5.1775    0.7045 H   0  0  0  0  0  0  0  0  0  0  0  0
    1.4140    6.8022    0.9938 H   0  0  0  0  0  0  0  0  0  0  0  0
    3.8259    7.3001    0.9881 H   0  0  0  0  0  0  0  0  0  0  0  0
    5.4587    5.5036    0.4714 H   0  0  0  0  0  0  0  0  0  0  0  0
    4.6993    3.2502   -0.0425 H   0  0  0  0  0  0  0  0  0  0  0  0
    3.2520   -2.9300    0.2663 H   0  0  0  0  0  0  0  0  0  0  0  0
    1.5895   -2.5071    0.7440 H   0  0  0  0  0  0  0  0  0  0  0  0
    3.1244   -3.7240    2.5791 H   0  0  0  0  0  0  0  0  0  0  0  0
    2.2407   -2.2688    3.0709 H   0  0  0  0  0  0  0  0  0  0  0  0
    5.1355   -2.4591    2.1464 H   0  0  0  0  0  0  0  0  0  0  0  0
    4.5369   -1.7308    3.6294 H   0  0  0  0  0  0  0  0  0  0  0  0
    5.0186   -0.4107    1.1550 H   0  0  0  0  0  0  0  0  0  0  0  0
    3.8676    1.5267    1.8981 H   0  0  0  0  0  0  0  0  0  0  0  0
    5.8826    1.2298    2.9551 H   0  0  0  0  0  0  0  0  0  0  0  0
    5.2832    0.1207    4.1599 H   0  0  0  0  0  0  0  0  0  0  0  0
    4.1874    2.9699    3.9919 H   0  0  0  0  0  0  0  0  0  0  0  0
    5.7107    2.5956    4.7823 H   0  0  0  0  0  0  0  0  0  0  0  0
    4.0928    2.5897    6.5005 H   0  0  0  0  0  0  0  0  0  0  0  0
    4.5875    0.9252    6.2564 H   0  0  0  0  0  0  0  0  0  0  0  0
    1.9754    2.2510    5.4115 H   0  0  0  0  0  0  0  0  0  0  0  0
    2.2159    1.0168    6.6332 H   0  0  0  0  0  0  0  0  0  0  0  0
    1.2413   -0.0507    4.7729 H   0  0  0  0  0  0  0  0  0  0  0  0
    2.8984   -0.6202    4.8282 H   0  0  0  0  0  0  0  0  0  0  0  0
    2.0758    1.7938    3.1447 H   0  0  0  0  0  0  0  0  0  0  0  0
    1.7181    0.2001    2.5754 H   0  0  0  0  0  0  0  0  0  0  0  0
  1  2  2  0  0  0  0
  2  3  1  0  0  0  0
  2 14  1  0  0  0  0
  3  4  1  0  0  0  0
  3 26  1  0  0  0  0
  3 27  1  0  0  0  0
  4  5  1  0  0  0  0
  4 13  2  0  0  0  0
  5  6  2  0  0  0  0
  5 28  1  0  0  0  0
  6  7  1  0  0  0  0
  7  8  2  0  0  0  0
  7 29  1  0  0  0  0
  8  9  1  0  0  0  0
  8 13  1  0  0  0  0
  9 10  2  0  0  0  0
  9 30  1  0  0  0  0
 10 11  1  0  0  0  0
 10 31  1  0  0  0  0
 11 12  2  0  0  0  0
 11 32  1  0  0  0  0
 12 13  1  0  0  0  0
 12 33  1  0  0  0  0
 14 15  1  0  0  0  0
 14 18  1  0  0  0  0
 15 16  1  0  0  0  0
 15 34  1  0  0  0  0
 15 35  1  0  0  0  0
 16 17  1  0  0  0  0
 16 36  1  0  0  0  0
 16 37  1  0  0  0  0
 17 18  1  0  0  0  0
 17 38  1  0  0  0  0
 17 39  1  0  0  0  0
 18 19  1  0  0  0  0
 18 40  1  6  0  0  0
 19 20  1  0  0  0  0
 19 25  1  0  0  0  0
 19 41  1  0  0  0  0
 20 21  1  0  0  0  0
 20 42  1  0  0  0  0
 20 43  1  0  0  0  0
 21 22  1  0  0  0  0
 21 44  1  0  0  0  0
 21 45  1  0  0  0  0
 22 23  1  0  0  0  0
 22 46  1  0  0  0  0
 22 47  1  0  0  0  0
 23 24  1  0  0  0  0
 23 48  1  0  0  0  0
 23 49  1  0  0  0  0
 24 25  1  0  0  0  0
 24 50  1  0  0  0  0
 24 51  1  0  0  0  0
 25 52  1  0  0  0  0
 25 53  1  0  0  0  0
M  END
$$$$
