
 OpenBabel07202414173D

 78 84  0  0  1  0  0  0  0  0999 V2000
    0.8884    0.4395   -0.0192 Cl  0  0  0  0  0  0  0  0  0  0  0  0
    2.6008    0.3178    0.0481 C   0  0  0  0  0  0  0  0  0  0  0  0
    3.3796    1.4651    0.0649 C   0  0  0  0  0  0  0  0  0  0  0  0
    4.7666    1.3452    0.1056 C   0  0  0  0  0  0  0  0  0  0  0  0
    5.3878    0.0807    0.1444 C   0  0  0  0  0  0  0  0  0  0  0  0
    4.6004   -1.0950    0.1304 C   0  0  0  0  0  0  0  0  0  0  0  0
    3.2020   -0.9407    0.0777 C   0  0  0  0  0  0  0  0  0  0  0  0
    5.2660   -2.4906    0.1808 C   0  0  3  0  0  0  0  0  0  0  0  0
    6.7919   -2.4097    0.0257 C   0  0  0  0  0  0  0  0  0  0  0  0
    7.4379   -1.2497    0.6930 N   0  0  0  0  0  0  0  0  0  0  0  0
    7.6845   -1.2229    2.3626 S   0  0  0  0  0  0  0  0  0  0  0  0
    8.5495   -0.0869    2.6013 O   0  0  0  0  0  0  0  0  0  0  0  0
    6.3826   -1.2781    3.0105 O   0  0  0  0  0  0  0  0  0  0  0  0
    8.6401   -2.7214    2.6856 C   0  0  0  0  0  0  0  0  0  0  0  0
    8.7376   -2.8850    4.1853 C   0  0  0  0  0  0  0  0  0  0  0  0
    9.2843   -1.7702    4.9302 C   0  0  0  0  0  0  0  0  0  0  0  0
    9.7434   -0.9077    5.5537 N   0  0  0  0  0  0  0  0  0  0  0  0
    7.7587   -3.7998    4.9052 C   0  0  0  0  0  0  0  0  0  0  0  0
    9.1678   -4.2600    4.6949 C   0  0  0  0  0  0  0  0  0  0  0  0
    6.8968    0.0269    0.1603 C   0  0  0  0  0  0  0  0  0  0  0  0
    4.7206   -3.4135   -0.9395 C   0  0  0  0  0  0  0  0  0  0  0  0
    3.7275   -4.3462   -0.2578 C   0  0  0  0  0  0  0  0  0  0  0  0
    3.5516   -3.8301    1.0753 N   0  0  0  0  0  0  0  0  0  0  0  0
    2.5966   -4.3590    2.0014 C   0  0  0  0  0  0  0  0  0  0  0  0
    2.8834   -4.4423    3.3647 C   0  0  0  0  0  0  0  0  0  0  0  0
    2.1506   -5.1414    4.2657 N   0  0  0  0  0  0  0  0  0  0  0  0
    1.0097   -5.7001    3.8171 C   0  0  0  0  0  0  0  0  0  0  0  0
    0.4908   -5.4979    2.5425 C   0  0  0  0  0  0  0  0  0  0  0  0
   -0.8056   -5.9358    2.1960 C   0  0  0  0  0  0  0  0  0  0  0  0
   -1.2888   -5.7772    0.8972 C   0  0  0  0  0  0  0  0  0  0  0  0
   -0.4873   -5.1664   -0.0502 C   0  0  0  0  0  0  0  0  0  0  0  0
   -0.9077   -5.1728   -1.3521 O   0  0  0  0  0  0  0  0  0  0  0  0
    0.1544   -5.3362   -2.3169 C   0  0  0  0  0  0  0  0  0  0  0  0
   -0.0958   -6.5919   -3.1636 C   0  0  0  0  0  0  0  0  0  0  0  0
    0.9604   -6.8932   -4.1580 N   0  0  0  0  0  0  0  0  0  0  0  0
    1.1606   -5.8234   -5.1623 C   0  0  0  0  0  0  0  0  0  0  0  0
   -0.0404   -5.6426   -6.1022 C   0  0  0  0  0  0  0  0  0  0  0  0
   -0.3339   -6.8606   -6.7981 O   0  0  0  0  0  0  0  0  0  0  0  0
   -0.5618   -7.9443   -5.8868 C   0  0  0  0  0  0  0  0  0  0  0  0
    0.6167   -8.1281   -4.9100 C   0  0  0  0  0  0  0  0  0  0  0  0
    0.7029   -4.5657    0.3529 C   0  0  0  0  0  0  0  0  0  0  0  0
    1.2961   -4.8040    1.6104 C   0  0  0  0  0  0  0  0  0  0  0  0
    4.8251   -3.3186    1.4028 C   0  0  0  0  0  0  0  0  0  0  0  0
    5.5173   -3.6503    2.3428 O   0  0  0  0  0  0  0  0  0  0  0  0
    2.9159    2.4489    0.0504 H   0  0  0  0  0  0  0  0  0  0  0  0
    5.3704    2.2541    0.1210 H   0  0  0  0  0  0  0  0  0  0  0  0
    2.5407   -1.8019    0.0660 H   0  0  0  0  0  0  0  0  0  0  0  0
    7.0215   -2.2876   -1.0462 H   0  0  0  0  0  0  0  0  0  0  0  0
    7.2894   -3.3448    0.2977 H   0  0  0  0  0  0  0  0  0  0  0  0
    9.6281   -2.5789    2.2349 H   0  0  0  0  0  0  0  0  0  0  0  0
    8.1521   -3.5808    2.2244 H   0  0  0  0  0  0  0  0  0  0  0  0
    6.9788   -4.3015    4.3418 H   0  0  0  0  0  0  0  0  0  0  0  0
    7.4470   -3.5312    5.9098 H   0  0  0  0  0  0  0  0  0  0  0  0
    9.3310   -5.0663    3.9882 H   0  0  0  0  0  0  0  0  0  0  0  0
    9.8166   -4.3138    5.5650 H   0  0  0  0  0  0  0  0  0  0  0  0
    7.2590    0.1478   -0.8747 H   0  0  0  0  0  0  0  0  0  0  0  0
    7.2985    0.8770    0.7140 H   0  0  0  0  0  0  0  0  0  0  0  0
    5.5040   -4.0235   -1.4056 H   0  0  0  0  0  0  0  0  0  0  0  0
    4.2421   -2.8494   -1.7475 H   0  0  0  0  0  0  0  0  0  0  0  0
    4.1654   -5.3495   -0.1617 H   0  0  0  0  0  0  0  0  0  0  0  0
    2.8460   -4.4342   -0.8761 H   0  0  0  0  0  0  0  0  0  0  0  0
    3.7482   -3.9561    3.8059 H   0  0  0  0  0  0  0  0  0  0  0  0
    0.4984   -6.3269    4.5437 H   0  0  0  0  0  0  0  0  0  0  0  0
   -1.4490   -6.3977    2.9426 H   0  0  0  0  0  0  0  0  0  0  0  0
   -2.2819   -6.1287    0.6324 H   0  0  0  0  0  0  0  0  0  0  0  0
    1.1474   -5.4472   -1.8707 H   0  0  0  0  0  0  0  0  0  0  0  0
    0.1568   -4.4334   -2.9350 H   0  0  0  0  0  0  0  0  0  0  0  0
   -1.0899   -6.5106   -3.6135 H   0  0  0  0  0  0  0  0  0  0  0  0
   -0.1559   -7.4407   -2.4688 H   0  0  0  0  0  0  0  0  0  0  0  0
    2.0342   -6.1007   -5.7696 H   0  0  0  0  0  0  0  0  0  0  0  0
    1.4305   -4.8764   -4.6847 H   0  0  0  0  0  0  0  0  0  0  0  0
    0.1920   -4.8814   -6.8537 H   0  0  0  0  0  0  0  0  0  0  0  0
   -0.9313   -5.3046   -5.5610 H   0  0  0  0  0  0  0  0  0  0  0  0
   -0.6887   -8.8530   -6.4834 H   0  0  0  0  0  0  0  0  0  0  0  0
   -1.5049   -7.7738   -5.3563 H   0  0  0  0  0  0  0  0  0  0  0  0
    1.5033   -8.4240   -5.4873 H   0  0  0  0  0  0  0  0  0  0  0  0
    0.4159   -8.9546   -4.2186 H   0  0  0  0  0  0  0  0  0  0  0  0
    1.1521   -3.8644   -0.3375 H   0  0  0  0  0  0  0  0  0  0  0  0
  1  2  1  0  0  0  0
  2  3  1  0  0  0  0
  2  7  2  0  0  0  0
  3  4  2  0  0  0  0
  3 45  1  0  0  0  0
  4  5  1  0  0  0  0
  4 46  1  0  0  0  0
  5  6  2  0  0  0  0
  5 20  1  0  0  0  0
  6  7  1  0  0  0  0
  6  8  1  0  0  0  0
  7 47  1  0  0  0  0
  8  9  1  0  0  0  0
  8 21  1  0  0  0  0
  8 43  1  0  0  0  0
  9 10  1  0  0  0  0
  9 48  1  0  0  0  0
  9 49  1  0  0  0  0
 10 11  1  0  0  0  0
 10 20  1  0  0  0  0
 11 12  2  0  0  0  0
 11 13  2  0  0  0  0
 11 14  1  0  0  0  0
 14 15  1  0  0  0  0
 14 50  1  0  0  0  0
 14 51  1  0  0  0  0
 15 16  1  0  0  0  0
 15 18  1  0  0  0  0
 15 19  1  0  0  0  0
 16 17  3  0  0  0  0
 18 19  1  0  0  0  0
 18 52  1  0  0  0  0
 18 53  1  0  0  0  0
 19 54  1  0  0  0  0
 19 55  1  0  0  0  0
 20 56  1  0  0  0  0
 20 57  1  0  0  0  0
 21 22  1  0  0  0  0
 21 58  1  0  0  0  0
 21 59  1  0  0  0  0
 22 23  1  0  0  0  0
 22 60  1  0  0  0  0
 22 61  1  0  0  0  0
 23 24  1  0  0  0  0
 23 43  1  0  0  0  0
 24 25  1  0  0  0  0
 24 42  2  0  0  0  0
 25 26  2  0  0  0  0
 25 62  1  0  0  0  0
 26 27  1  0  0  0  0
 27 28  2  0  0  0  0
 27 63  1  0  0  0  0
 28 29  1  0  0  0  0
 28 42  1  0  0  0  0
 29 30  2  0  0  0  0
 29 64  1  0  0  0  0
 30 31  1  0  0  0  0
 30 65  1  0  0  0  0
 31 32  1  0  0  0  0
 31 41  2  0  0  0  0
 32 33  1  0  0  0  0
 33 34  1  0  0  0  0
 33 66  1  0  0  0  0
 33 67  1  0  0  0  0
 34 35  1  0  0  0  0
 34 68  1  0  0  0  0
 34 69  1  0  0  0  0
 35 36  1  0  0  0  0
 35 40  1  0  0  0  0
 36 37  1  0  0  0  0
 36 70  1  0  0  0  0
 36 71  1  0  0  0  0
 37 38  1  0  0  0  0
 37 72  1  0  0  0  0
 37 73  1  0  0  0  0
 38 39  1  0  0  0  0
 39 40  1  0  0  0  0
 39 74  1  0  0  0  0
 39 75  1  0  0  0  0
 40 76  1  0  0  0  0
 40 77  1  0  0  0  0
 41 42  1  0  0  0  0
 41 78  1  0  0  0  0
 43 44  2  0  0  0  0
M  END
$$$$
