
 OpenBabel07202414133D

 58 62  0  0  1  0  0  0  0  0999 V2000
    0.9659    0.4177   -0.4508 C   0  0  0  0  0  0  0  0  0  0  0  0
    2.4736    0.2503   -0.5446 C   0  0  3  0  0  0  0  0  0  0  0  0
    2.8970   -1.2039   -0.7106 C   0  0  0  0  0  0  0  0  0  0  0  0
    4.2170   -1.3421    0.0489 C   0  0  0  0  0  0  0  0  0  0  0  0
    4.5597    0.0138    0.5929 N   0  0  0  0  0  0  0  0  0  0  0  0
    5.7269    0.8939   -0.2844 S   0  0  0  0  0  0  0  0  0  0  0  0
    5.6274    0.4966   -1.6716 O   0  0  0  0  0  0  0  0  0  0  0  0
    5.6439    2.2830    0.0966 O   0  0  0  0  0  0  0  0  0  0  0  0
    7.1902    0.3106    0.3122 N   0  0  0  0  0  0  0  0  0  0  0  0
    7.4560   -1.1433    0.2226 C   0  0  0  0  0  0  0  0  0  0  0  0
    8.9596   -1.4355    0.2818 C   0  0  3  0  0  0  0  0  0  0  0  0
    9.6376   -1.0910   -1.0567 C   0  0  0  0  0  0  0  0  0  0  0  0
   10.2729   -1.9469   -1.6657 O   0  0  0  0  0  0  0  0  0  0  0  0
    9.4565    0.2153   -1.4619 N   0  0  0  0  0  0  0  0  0  0  0  0
    9.7681    0.7994   -2.7156 C   0  0  0  0  0  0  0  0  0  0  0  0
   10.2786    0.0619   -3.7891 C   0  0  0  0  0  0  0  0  0  0  0  0
   10.4099    0.5390   -5.0480 N   0  0  0  0  0  0  0  0  0  0  0  0
   10.0791    1.8309   -5.2419 C   0  0  0  0  0  0  0  0  0  0  0  0
    9.6947    2.7082   -4.2305 C   0  0  0  0  0  0  0  0  0  0  0  0
    9.5243    4.0806   -4.4877 C   0  0  0  0  0  0  0  0  0  0  0  0
    9.1892    4.9612   -3.4623 C   0  0  0  0  0  0  0  0  0  0  0  0
    8.9637    4.4695   -2.1843 C   0  0  0  0  0  0  0  0  0  0  0  0
    9.1064    3.1029   -1.9242 C   0  0  0  0  0  0  0  0  0  0  0  0
    9.5101    2.1871   -2.9310 C   0  0  0  0  0  0  0  0  0  0  0  0
    9.6067   -0.7541    1.4636 C   0  0  0  0  0  0  0  0  0  0  0  0
   10.7871   -1.2870    2.0078 C   0  0  0  0  0  0  0  0  0  0  0  0
   11.4148   -0.6501    3.0748 C   0  0  0  0  0  0  0  0  0  0  0  0
   12.8253   -1.3425    3.7745 Cl  0  0  0  0  0  0  0  0  0  0  0  0
   10.8989    0.5372    3.5852 C   0  0  0  0  0  0  0  0  0  0  0  0
    9.7170    1.0662    3.0592 C   0  0  0  0  0  0  0  0  0  0  0  0
    9.0415    0.4131    2.0150 C   0  0  0  0  0  0  0  0  0  0  0  0
    7.6978    0.9525    1.5459 C   0  0  0  0  0  0  0  0  0  0  0  0
    3.2276    0.6941    0.7026 C   0  0  0  0  0  0  0  0  0  0  0  0
    0.4869    0.0984   -1.3833 H   0  0  0  0  0  0  0  0  0  0  0  0
    0.7013    1.4652   -0.2768 H   0  0  0  0  0  0  0  0  0  0  0  0
    0.5427   -0.1798    0.3635 H   0  0  0  0  0  0  0  0  0  0  0  0
    2.8345    0.8274   -1.4054 H   0  0  0  0  0  0  0  0  0  0  0  0
    3.0286   -1.4456   -1.7718 H   0  0  0  0  0  0  0  0  0  0  0  0
    2.1572   -1.9081   -0.3131 H   0  0  0  0  0  0  0  0  0  0  0  0
    4.9814   -1.7720   -0.5965 H   0  0  0  0  0  0  0  0  0  0  0  0
    4.0951   -2.0264    0.8976 H   0  0  0  0  0  0  0  0  0  0  0  0
    7.0658   -1.5471   -0.7155 H   0  0  0  0  0  0  0  0  0  0  0  0
    6.9533   -1.6465    1.0590 H   0  0  0  0  0  0  0  0  0  0  0  0
    9.0600   -2.5222    0.4050 H   0  0  0  0  0  0  0  0  0  0  0  0
    8.8859    0.7841   -0.8436 H   0  0  0  0  0  0  0  0  0  0  0  0
   10.5950   -0.9667   -3.6847 H   0  0  0  0  0  0  0  0  0  0  0  0
   10.1508    2.1600   -6.2763 H   0  0  0  0  0  0  0  0  0  0  0  0
    9.6928    4.4802   -5.4864 H   0  0  0  0  0  0  0  0  0  0  0  0
    9.1115    6.0272   -3.6589 H   0  0  0  0  0  0  0  0  0  0  0  0
    8.6904    5.1478   -1.3796 H   0  0  0  0  0  0  0  0  0  0  0  0
    8.9341    2.7812   -0.9025 H   0  0  0  0  0  0  0  0  0  0  0  0
   11.2099   -2.2064    1.6052 H   0  0  0  0  0  0  0  0  0  0  0  0
   11.4036    1.0469    4.4020 H   0  0  0  0  0  0  0  0  0  0  0  0
    9.3213    1.9891    3.4798 H   0  0  0  0  0  0  0  0  0  0  0  0
    7.8464    2.0194    1.3362 H   0  0  0  0  0  0  0  0  0  0  0  0
    6.9708    0.8395    2.3567 H   0  0  0  0  0  0  0  0  0  0  0  0
    3.3005    1.7809    0.7880 H   0  0  0  0  0  0  0  0  0  0  0  0
    2.7378    0.3311    1.6158 H   0  0  0  0  0  0  0  0  0  0  0  0
  1  2  1  0  0  0  0
  1 34  1  0  0  0  0
  1 35  1  0  0  0  0
  1 36  1  0  0  0  0
  2  3  1  0  0  0  0
  2 33  1  0  0  0  0
  2 37  1  0  0  0  0
  3  4  1  0  0  0  0
  3 38  1  0  0  0  0
  3 39  1  0  0  0  0
  4  5  1  0  0  0  0
  4 40  1  0  0  0  0
  4 41  1  0  0  0  0
  5  6  1  0  0  0  0
  5 33  1  0  0  0  0
  6  7  2  0  0  0  0
  6  8  2  0  0  0  0
  6  9  1  0  0  0  0
  9 10  1  0  0  0  0
  9 32  1  0  0  0  0
 10 11  1  0  0  0  0
 10 42  1  0  0  0  0
 10 43  1  0  0  0  0
 11 12  1  0  0  0  0
 11 25  1  0  0  0  0
 11 44  1  0  0  0  0
 12 13  2  0  0  0  0
 12 14  1  0  0  0  0
 14 15  1  0  0  0  0
 14 45  1  0  0  0  0
 15 16  1  0  0  0  0
 15 24  2  0  0  0  0
 16 17  2  0  0  0  0
 16 46  1  0  0  0  0
 17 18  1  0  0  0  0
 18 19  2  0  0  0  0
 18 47  1  0  0  0  0
 19 20  1  0  0  0  0
 19 24  1  0  0  0  0
 20 21  2  0  0  0  0
 20 48  1  0  0  0  0
 21 22  1  0  0  0  0
 21 49  1  0  0  0  0
 22 23  2  0  0  0  0
 22 50  1  0  0  0  0
 23 24  1  0  0  0  0
 23 51  1  0  0  0  0
 25 26  1  0  0  0  0
 25 31  2  0  0  0  0
 26 27  2  0  0  0  0
 26 52  1  0  0  0  0
 27 28  1  0  0  0  0
 27 29  1  0  0  0  0
 29 30  2  0  0  0  0
 29 53  1  0  0  0  0
 30 31  1  0  0  0  0
 30 54  1  0  0  0  0
 31 32  1  0  0  0  0
 32 55  1  0  0  0  0
 32 56  1  0  0  0  0
 33 57  1  0  0  0  0
 33 58  1  0  0  0  0
M  END
$$$$
