
 OpenBabel07202414173D

 61 65  0  0  1  0  0  0  0  0999 V2000
    0.9619   -0.1278    0.0542 Cl  0  0  0  0  0  0  0  0  0  0  0  0
    2.6813   -0.1542   -0.0136 C   0  0  0  0  0  0  0  0  0  0  0  0
    3.3847    1.0425    0.0632 C   0  0  0  0  0  0  0  0  0  0  0  0
    4.7764    1.0191    0.0564 C   0  0  0  0  0  0  0  0  0  0  0  0
    5.4737   -0.1985   -0.0372 C   0  0  0  0  0  0  0  0  0  0  0  0
    4.7657   -1.4055   -0.2003 C   0  0  0  0  0  0  0  0  0  0  0  0
    3.3575   -1.3686   -0.1425 C   0  0  0  0  0  0  0  0  0  0  0  0
    5.5142   -2.7270   -0.3607 C   0  0  1  0  0  0  0  0  0  0  0  0
    4.9627   -3.6156   -1.5076 C   0  0  0  0  0  0  0  0  0  0  0  0
    4.4966   -3.1414   -2.5338 O   0  0  0  0  0  0  0  0  0  0  0  0
    5.0779   -4.9829   -1.2472 N   0  0  0  0  0  0  0  0  0  0  0  0
    4.5189   -6.0671   -1.9899 C   0  0  0  0  0  0  0  0  0  0  0  0
    3.7087   -5.8946   -3.1133 C   0  0  0  0  0  0  0  0  0  0  0  0
    2.9892   -6.8832   -3.7029 N   0  0  0  0  0  0  0  0  0  0  0  0
    3.1260   -8.1230   -3.1910 C   0  0  0  0  0  0  0  0  0  0  0  0
    4.0130   -8.4579   -2.1735 C   0  0  0  0  0  0  0  0  0  0  0  0
    4.2064   -9.7995   -1.7933 C   0  0  0  0  0  0  0  0  0  0  0  0
    5.1222  -10.1319   -0.7995 C   0  0  0  0  0  0  0  0  0  0  0  0
    5.8278   -9.1268   -0.1562 C   0  0  0  0  0  0  0  0  0  0  0  0
    5.6338   -7.7882   -0.5168 C   0  0  0  0  0  0  0  0  0  0  0  0
    4.7295   -7.4076   -1.5429 C   0  0  0  0  0  0  0  0  0  0  0  0
    7.0322   -2.5405   -0.5951 C   0  0  0  0  0  0  0  0  0  0  0  0
    7.6089   -1.4745    0.3048 N   0  0  0  0  0  0  0  0  0  0  0  0
    9.3328   -1.3949    0.2994 S   0  0  0  0  0  0  0  0  0  0  0  0
    9.8152   -2.7538    0.2219 O   0  0  0  0  0  0  0  0  0  0  0  0
    9.7147   -0.4090   -0.6790 O   0  0  0  0  0  0  0  0  0  0  0  0
    9.7080   -0.7995    1.9605 C   0  0  0  0  0  0  0  0  0  0  0  0
   11.2080   -0.4636    2.2087 C   0  0  0  0  0  0  0  0  0  0  0  0
   11.5834    0.7218    1.3977 C   0  0  0  0  0  0  0  0  0  0  0  0
   11.8734    1.6797    0.8124 N   0  0  0  0  0  0  0  0  0  0  0  0
   12.1888   -1.6206    1.9176 C   0  0  0  0  0  0  0  0  0  0  0  0
   12.0356   -2.7561    2.9224 C   0  0  0  0  0  0  0  0  0  0  0  0
   12.2627   -2.2746    4.2449 O   0  0  0  0  0  0  0  0  0  0  0  0
   11.3436   -1.2636    4.6416 C   0  0  0  0  0  0  0  0  0  0  0  0
   11.4176   -0.0673    3.7021 C   0  0  0  0  0  0  0  0  0  0  0  0
    6.9828   -0.1590   -0.0247 C   0  0  0  0  0  0  0  0  0  0  0  0
    2.8603    1.9928    0.1298 H   0  0  0  0  0  0  0  0  0  0  0  0
    5.3197    1.9606    0.1200 H   0  0  0  0  0  0  0  0  0  0  0  0
    2.7776   -2.2881   -0.2124 H   0  0  0  0  0  0  0  0  0  0  0  0
    5.3738   -3.2590    0.5907 H   0  0  0  0  0  0  0  0  0  0  0  0
    5.4969   -5.2384   -0.3655 H   0  0  0  0  0  0  0  0  0  0  0  0
    3.5801   -4.9337   -3.6022 H   0  0  0  0  0  0  0  0  0  0  0  0
    2.4853   -8.8736   -3.6518 H   0  0  0  0  0  0  0  0  0  0  0  0
    3.6689  -10.6008   -2.2980 H   0  0  0  0  0  0  0  0  0  0  0  0
    5.2959  -11.1737   -0.5403 H   0  0  0  0  0  0  0  0  0  0  0  0
    6.5479   -9.3787    0.6196 H   0  0  0  0  0  0  0  0  0  0  0  0
    6.2435   -7.0554   -0.0025 H   0  0  0  0  0  0  0  0  0  0  0  0
    7.2431   -2.2845   -1.6406 H   0  0  0  0  0  0  0  0  0  0  0  0
    7.5205   -3.4984   -0.3804 H   0  0  0  0  0  0  0  0  0  0  0  0
    9.3637   -1.5906    2.6342 H   0  0  0  0  0  0  0  0  0  0  0  0
    9.0931    0.0894    2.1371 H   0  0  0  0  0  0  0  0  0  0  0  0
   13.2180   -1.2400    2.0019 H   0  0  0  0  0  0  0  0  0  0  0  0
   12.0991   -1.9944    0.8940 H   0  0  0  0  0  0  0  0  0  0  0  0
   12.7820   -3.5313    2.7239 H   0  0  0  0  0  0  0  0  0  0  0  0
   11.0495   -3.2285    2.8689 H   0  0  0  0  0  0  0  0  0  0  0  0
   11.6131   -0.9525    5.6569 H   0  0  0  0  0  0  0  0  0  0  0  0
   10.3342   -1.6846    4.6917 H   0  0  0  0  0  0  0  0  0  0  0  0
   12.4203    0.3758    3.8127 H   0  0  0  0  0  0  0  0  0  0  0  0
   10.7048    0.7047    4.0140 H   0  0  0  0  0  0  0  0  0  0  0  0
    7.3062    0.1783   -1.0160 H   0  0  0  0  0  0  0  0  0  0  0  0
    7.3012    0.5725    0.7272 H   0  0  0  0  0  0  0  0  0  0  0  0
  1  2  1  0  0  0  0
  2  3  1  0  0  0  0
  2  7  2  0  0  0  0
  3  4  2  0  0  0  0
  3 37  1  0  0  0  0
  4  5  1  0  0  0  0
  4 38  1  0  0  0  0
  5  6  2  0  0  0  0
  5 36  1  0  0  0  0
  6  7  1  0  0  0  0
  6  8  1  0  0  0  0
  7 39  1  0  0  0  0
  8 22  1  0  0  0  0
  8  9  1  0  0  0  0
  8 40  1  1  0  0  0
  9 10  2  0  0  0  0
  9 11  1  0  0  0  0
 11 12  1  0  0  0  0
 11 41  1  0  0  0  0
 12 13  1  0  0  0  0
 12 21  2  0  0  0  0
 13 14  2  0  0  0  0
 13 42  1  0  0  0  0
 14 15  1  0  0  0  0
 15 16  2  0  0  0  0
 15 43  1  0  0  0  0
 16 17  1  0  0  0  0
 16 21  1  0  0  0  0
 17 18  2  0  0  0  0
 17 44  1  0  0  0  0
 18 19  1  0  0  0  0
 18 45  1  0  0  0  0
 19 20  2  0  0  0  0
 19 46  1  0  0  0  0
 20 21  1  0  0  0  0
 20 47  1  0  0  0  0
 22 23  1  0  0  0  0
 22 48  1  0  0  0  0
 22 49  1  0  0  0  0
 23 24  1  0  0  0  0
 23 36  1  0  0  0  0
 24 25  2  0  0  0  0
 24 26  2  0  0  0  0
 24 27  1  0  0  0  0
 27 28  1  0  0  0  0
 27 50  1  0  0  0  0
 27 51  1  0  0  0  0
 28 29  1  0  0  0  0
 28 31  1  0  0  0  0
 28 35  1  0  0  0  0
 29 30  3  0  0  0  0
 31 32  1  0  0  0  0
 31 52  1  0  0  0  0
 31 53  1  0  0  0  0
 32 33  1  0  0  0  0
 32 54  1  0  0  0  0
 32 55  1  0  0  0  0
 33 34  1  0  0  0  0
 34 35  1  0  0  0  0
 34 56  1  0  0  0  0
 34 57  1  0  0  0  0
 35 58  1  0  0  0  0
 35 59  1  0  0  0  0
 36 60  1  0  0  0  0
 36 61  1  0  0  0  0
M  END
$$$$
