
 OpenBabel07202414193D

 62 66  0  0  1  0  0  0  0  0999 V2000
    9.7005    5.7069   -8.3952 N   0  0  0  0  0  0  0  0  0  0  0  0
    8.7214    4.7802   -7.3922 S   0  0  0  0  0  0  0  0  0  0  0  0
    7.3880    4.9265   -7.9308 O   0  0  0  0  0  0  0  0  0  0  0  0
    9.3576    3.4918   -7.2575 O   0  0  0  0  0  0  0  0  0  0  0  0
    8.8177    5.6356   -5.8660 C   0  0  0  0  0  0  0  0  0  0  0  0
    7.6712    6.1175   -5.2330 C   0  0  0  0  0  0  0  0  0  0  0  0
    7.7999    6.8062   -4.0230 C   0  0  0  0  0  0  0  0  0  0  0  0
    9.0645    7.0134   -3.4414 C   0  0  0  0  0  0  0  0  0  0  0  0
    9.1929    7.7620   -2.1352 C   0  0  0  0  0  0  0  0  0  0  0  0
    8.4533    7.0630   -1.0871 N   0  0  0  0  0  0  0  0  0  0  0  0
    8.5345    7.7376    0.2113 C   0  0  0  0  0  0  0  0  0  0  0  0
    7.7953    6.9788    1.3708 C   0  0  1  0  0  0  0  0  0  0  0  0
    6.2741    6.8169    1.0131 C   0  0  0  0  0  0  0  0  0  0  0  0
    5.7588    5.7101    0.9079 O   0  0  0  0  0  0  0  0  0  0  0  0
    5.5846    8.0031    0.8116 N   0  0  0  0  0  0  0  0  0  0  0  0
    4.2904    8.1643    0.2455 C   0  0  0  0  0  0  0  0  0  0  0  0
    3.5030    7.0996   -0.1967 C   0  0  0  0  0  0  0  0  0  0  0  0
    2.3544    7.2354   -0.9022 N   0  0  0  0  0  0  0  0  0  0  0  0
    1.9329    8.4940   -1.1343 C   0  0  0  0  0  0  0  0  0  0  0  0
    2.5586    9.6373   -0.6413 C   0  0  0  0  0  0  0  0  0  0  0  0
    1.9869   10.9109   -0.8198 C   0  0  0  0  0  0  0  0  0  0  0  0
    2.6113   12.0485   -0.3156 C   0  0  0  0  0  0  0  0  0  0  0  0
    3.8239   11.9292    0.3479 C   0  0  0  0  0  0  0  0  0  0  0  0
    4.3983   10.6691    0.5320 C   0  0  0  0  0  0  0  0  0  0  0  0
    3.7796    9.4823    0.0579 C   0  0  0  0  0  0  0  0  0  0  0  0
    8.4221    5.5628    1.4858 C   0  0  0  0  0  0  0  0  0  0  0  0
    7.9450    4.8787    2.7539 C   0  0  0  0  0  0  0  0  0  0  0  0
    8.4122    5.5579    3.9123 O   0  0  0  0  0  0  0  0  0  0  0  0
    8.3067    6.9205    3.8778 C   0  0  0  0  0  0  0  0  0  0  0  0
    8.6067    7.5356    5.0994 C   0  0  0  0  0  0  0  0  0  0  0  0
    8.6225    8.9212    5.2092 C   0  0  0  0  0  0  0  0  0  0  0  0
    8.3262    9.6886    4.0915 C   0  0  0  0  0  0  0  0  0  0  0  0
    8.3749   11.4060    4.2011 Cl  0  0  0  0  0  0  0  0  0  0  0  0
    8.0192    9.0813    2.8662 C   0  0  0  0  0  0  0  0  0  0  0  0
    8.0140    7.6773    2.7280 C   0  0  0  0  0  0  0  0  0  0  0  0
   10.1985    6.5073   -4.0883 C   0  0  0  0  0  0  0  0  0  0  0  0
   10.0686    5.8216   -5.2935 C   0  0  0  0  0  0  0  0  0  0  0  0
   11.1792    5.3606   -5.8869 F   0  0  0  0  0  0  0  0  0  0  0  0
    9.1969    5.9493   -9.2483 H   0  0  0  0  0  0  0  0  0  0  0  0
   10.5934    5.2375   -8.5476 H   0  0  0  0  0  0  0  0  0  0  0  0
    6.6839    5.9614   -5.6625 H   0  0  0  0  0  0  0  0  0  0  0  0
    6.9057    7.1727   -3.5191 H   0  0  0  0  0  0  0  0  0  0  0  0
    8.8090    8.7799   -2.2789 H   0  0  0  0  0  0  0  0  0  0  0  0
   10.2507    7.8464   -1.8560 H   0  0  0  0  0  0  0  0  0  0  0  0
    8.8173    6.1123   -1.0272 H   0  0  0  0  0  0  0  0  0  0  0  0
    8.1184    8.7440    0.0866 H   0  0  0  0  0  0  0  0  0  0  0  0
    9.5897    7.8678    0.4886 H   0  0  0  0  0  0  0  0  0  0  0  0
    6.0948    8.8478    0.9783 H   0  0  0  0  0  0  0  0  0  0  0  0
    3.7646    6.0641   -0.0168 H   0  0  0  0  0  0  0  0  0  0  0  0
    1.0382    8.5592   -1.7485 H   0  0  0  0  0  0  0  0  0  0  0  0
    1.0325   11.0197   -1.3316 H   0  0  0  0  0  0  0  0  0  0  0  0
    2.1475   13.0243   -0.4319 H   0  0  0  0  0  0  0  0  0  0  0  0
    4.3206   12.8130    0.7404 H   0  0  0  0  0  0  0  0  0  0  0  0
    5.3278   10.6407    1.0902 H   0  0  0  0  0  0  0  0  0  0  0  0
    9.5171    5.6501    1.5233 H   0  0  0  0  0  0  0  0  0  0  0  0
    8.1724    4.9340    0.6244 H   0  0  0  0  0  0  0  0  0  0  0  0
    8.3531    3.8633    2.7883 H   0  0  0  0  0  0  0  0  0  0  0  0
    6.8574    4.7809    2.8190 H   0  0  0  0  0  0  0  0  0  0  0  0
    8.8521    6.9210    5.9635 H   0  0  0  0  0  0  0  0  0  0  0  0
    8.8798    9.3855    6.1570 H   0  0  0  0  0  0  0  0  0  0  0  0
    7.8250    9.7363    2.0224 H   0  0  0  0  0  0  0  0  0  0  0  0
   11.1927    6.6347   -3.6690 H   0  0  0  0  0  0  0  0  0  0  0  0
  1  2  1  0  0  0  0
  1 39  1  0  0  0  0
  1 40  1  0  0  0  0
  2  3  2  0  0  0  0
  2  4  2  0  0  0  0
  2  5  1  0  0  0  0
  5  6  1  0  0  0  0
  5 37  2  0  0  0  0
  6  7  2  0  0  0  0
  6 41  1  0  0  0  0
  7  8  1  0  0  0  0
  7 42  1  0  0  0  0
  8  9  1  0  0  0  0
  8 36  2  0  0  0  0
  9 10  1  0  0  0  0
  9 43  1  0  0  0  0
  9 44  1  0  0  0  0
 10 11  1  0  0  0  0
 10 45  1  0  0  0  0
 11 46  1  0  0  0  0
 11 47  1  0  0  0  0
 12 26  1  0  0  0  0
 12 35  1  0  0  0  0
 12 13  1  6  0  0  0
 12 11  1  0  0  0  0
 13 14  2  0  0  0  0
 13 15  1  0  0  0  0
 15 16  1  0  0  0  0
 15 48  1  0  0  0  0
 16 17  1  0  0  0  0
 16 25  2  0  0  0  0
 17 18  2  0  0  0  0
 17 49  1  0  0  0  0
 18 19  1  0  0  0  0
 19 20  2  0  0  0  0
 19 50  1  0  0  0  0
 20 21  1  0  0  0  0
 20 25  1  0  0  0  0
 21 22  2  0  0  0  0
 21 51  1  0  0  0  0
 22 23  1  0  0  0  0
 22 52  1  0  0  0  0
 23 24  2  0  0  0  0
 23 53  1  0  0  0  0
 24 25  1  0  0  0  0
 24 54  1  0  0  0  0
 26 27  1  0  0  0  0
 26 55  1  0  0  0  0
 26 56  1  0  0  0  0
 27 28  1  0  0  0  0
 27 57  1  0  0  0  0
 27 58  1  0  0  0  0
 28 29  1  0  0  0  0
 29 30  1  0  0  0  0
 29 35  2  0  0  0  0
 30 31  2  0  0  0  0
 30 59  1  0  0  0  0
 31 32  1  0  0  0  0
 31 60  1  0  0  0  0
 32 33  1  0  0  0  0
 32 34  2  0  0  0  0
 34 35  1  0  0  0  0
 34 61  1  0  0  0  0
 36 37  1  0  0  0  0
 36 62  1  0  0  0  0
 37 38  1  0  0  0  0
M  END
$$$$
