
 OpenBabel07202414133D

 56 60  0  0  1  0  0  0  0  0999 V2000
    2.7935    1.1170    0.0957 C   0  0  0  0  0  0  0  0  0  0  0  0
    2.3099   -0.2682    0.2923 N   0  0  0  0  0  0  0  0  0  0  0  0
    0.8662   -0.3141    0.7044 C   0  0  0  0  0  0  0  0  0  0  0  0
    0.6174    0.3700    2.0132 C   0  0  0  0  0  0  0  0  0  0  0  0
    0.4317    0.9015    3.0208 N   0  0  0  0  0  0  0  0  0  0  0  0
    2.7524   -1.3282   -0.9511 S   0  0  0  0  0  0  0  0  0  0  0  0
    2.0136   -2.5615   -0.8676 O   0  0  0  0  0  0  0  0  0  0  0  0
    2.7673   -0.5819   -2.1892 O   0  0  0  0  0  0  0  0  0  0  0  0
    4.3574   -1.6540   -0.5506 N   0  0  0  0  0  0  0  0  0  0  0  0
    5.0444   -2.5689   -1.4937 C   0  0  0  0  0  0  0  0  0  0  0  0
    5.0254   -4.0256   -1.0712 C   0  0  0  0  0  0  0  0  0  0  0  0
    5.3145   -5.0105   -2.0364 C   0  0  0  0  0  0  0  0  0  0  0  0
    5.3375   -6.3660   -1.7003 C   0  0  0  0  0  0  0  0  0  0  0  0
    5.0831   -6.7507   -0.3931 C   0  0  0  0  0  0  0  0  0  0  0  0
    5.1241   -8.4135    0.0473 Cl  0  0  0  0  0  0  0  0  0  0  0  0
    4.8083   -5.7917    0.5758 C   0  0  0  0  0  0  0  0  0  0  0  0
    4.7783   -4.4143    0.2636 C   0  0  0  0  0  0  0  0  0  0  0  0
    4.4694   -3.3654    1.3516 C   0  0  3  0  0  0  0  0  0  0  0  0
    5.3649   -3.5832    2.6117 C   0  0  0  0  0  0  0  0  0  0  0  0
    4.4107   -4.0124    3.7096 C   0  0  0  0  0  0  0  0  0  0  0  0
    3.2942   -4.5651    3.0021 N   0  0  0  0  0  0  0  0  0  0  0  0
    2.3121   -5.3957    3.6214 C   0  0  0  0  0  0  0  0  0  0  0  0
    0.9735   -5.3301    3.2337 C   0  0  0  0  0  0  0  0  0  0  0  0
   -0.0530   -5.8273    3.9600 N   0  0  0  0  0  0  0  0  0  0  0  0
    0.2760   -6.5166    5.0693 C   0  0  0  0  0  0  0  0  0  0  0  0
    1.5726   -6.8980    5.3994 C   0  0  0  0  0  0  0  0  0  0  0  0
    1.8204   -7.8260    6.4305 C   0  0  0  0  0  0  0  0  0  0  0  0
    3.1208   -8.1925    6.7656 C   0  0  0  0  0  0  0  0  0  0  0  0
    4.1793   -7.6775    6.0398 C   0  0  0  0  0  0  0  0  0  0  0  0
    3.9289   -6.8178    4.9660 C   0  0  0  0  0  0  0  0  0  0  0  0
    2.6316   -6.3378    4.6512 C   0  0  0  0  0  0  0  0  0  0  0  0
    3.0746   -3.6275    1.9683 C   0  0  0  0  0  0  0  0  0  0  0  0
    2.0183   -3.0824    1.7038 O   0  0  0  0  0  0  0  0  0  0  0  0
    4.7477   -1.9443    0.8479 C   0  0  0  0  0  0  0  0  0  0  0  0
    2.7053    1.6852    1.0257 H   0  0  0  0  0  0  0  0  0  0  0  0
    2.2150    1.6272   -0.6814 H   0  0  0  0  0  0  0  0  0  0  0  0
    3.8519    1.1197   -0.1765 H   0  0  0  0  0  0  0  0  0  0  0  0
    0.5240   -1.3513    0.7915 H   0  0  0  0  0  0  0  0  0  0  0  0
    0.2478    0.1602   -0.0668 H   0  0  0  0  0  0  0  0  0  0  0  0
    6.0946   -2.2527   -1.5673 H   0  0  0  0  0  0  0  0  0  0  0  0
    4.6275   -2.4631   -2.5021 H   0  0  0  0  0  0  0  0  0  0  0  0
    5.5199   -4.7258   -3.0669 H   0  0  0  0  0  0  0  0  0  0  0  0
    5.5526   -7.1127   -2.4597 H   0  0  0  0  0  0  0  0  0  0  0  0
    4.6174   -6.1422    1.5857 H   0  0  0  0  0  0  0  0  0  0  0  0
    5.8865   -2.6753    2.9345 H   0  0  0  0  0  0  0  0  0  0  0  0
    6.1330   -4.3457    2.4471 H   0  0  0  0  0  0  0  0  0  0  0  0
    4.0401   -3.1258    4.2448 H   0  0  0  0  0  0  0  0  0  0  0  0
    4.9058   -4.6375    4.4417 H   0  0  0  0  0  0  0  0  0  0  0  0
    0.6549   -4.8345    2.3220 H   0  0  0  0  0  0  0  0  0  0  0  0
   -0.5667   -6.7645    5.7091 H   0  0  0  0  0  0  0  0  0  0  0  0
    0.9917   -8.2998    6.9546 H   0  0  0  0  0  0  0  0  0  0  0  0
    3.3016   -8.8989    7.5719 H   0  0  0  0  0  0  0  0  0  0  0  0
    5.2008   -7.9591    6.2829 H   0  0  0  0  0  0  0  0  0  0  0  0
    4.7775   -6.5769    4.3315 H   0  0  0  0  0  0  0  0  0  0  0  0
    5.8459   -1.8151    0.8456 H   0  0  0  0  0  0  0  0  0  0  0  0
    4.3947   -1.1707    1.5355 H   0  0  0  0  0  0  0  0  0  0  0  0
  1  2  1  0  0  0  0
  1 35  1  0  0  0  0
  1 36  1  0  0  0  0
  1 37  1  0  0  0  0
  2  3  1  0  0  0  0
  2  6  1  0  0  0  0
  3  4  1  0  0  0  0
  3 38  1  0  0  0  0
  3 39  1  0  0  0  0
  4  5  3  0  0  0  0
  6  7  2  0  0  0  0
  6  8  2  0  0  0  0
  6  9  1  0  0  0  0
  9 10  1  0  0  0  0
  9 34  1  0  0  0  0
 10 11  1  0  0  0  0
 10 40  1  0  0  0  0
 10 41  1  0  0  0  0
 11 12  1  0  0  0  0
 11 17  2  0  0  0  0
 12 13  2  0  0  0  0
 12 42  1  0  0  0  0
 13 14  1  0  0  0  0
 13 43  1  0  0  0  0
 14 15  1  0  0  0  0
 14 16  2  0  0  0  0
 16 17  1  0  0  0  0
 16 44  1  0  0  0  0
 17 18  1  0  0  0  0
 18 19  1  0  0  0  0
 18 32  1  0  0  0  0
 18 34  1  0  0  0  0
 19 20  1  0  0  0  0
 19 45  1  0  0  0  0
 19 46  1  0  0  0  0
 20 21  1  0  0  0  0
 20 47  1  0  0  0  0
 20 48  1  0  0  0  0
 21 22  1  0  0  0  0
 21 32  1  0  0  0  0
 22 23  1  0  0  0  0
 22 31  2  0  0  0  0
 23 24  2  0  0  0  0
 23 49  1  0  0  0  0
 24 25  1  0  0  0  0
 25 26  2  0  0  0  0
 25 50  1  0  0  0  0
 26 27  1  0  0  0  0
 26 31  1  0  0  0  0
 27 28  2  0  0  0  0
 27 51  1  0  0  0  0
 28 29  1  0  0  0  0
 28 52  1  0  0  0  0
 29 30  2  0  0  0  0
 29 53  1  0  0  0  0
 30 31  1  0  0  0  0
 30 54  1  0  0  0  0
 32 33  2  0  0  0  0
 34 55  1  0  0  0  0
 34 56  1  0  0  0  0
M  END
$$$$
