
 OpenBabel07202414173D

 59 64  0  0  1  0  0  0  0  0999 V2000
    0.9461   -0.0164   -0.0084 Cl  0  0  0  0  0  0  0  0  0  0  0  0
    2.6596   -0.1160   -0.1299 C   0  0  0  0  0  0  0  0  0  0  0  0
    3.4230    1.0456   -0.0511 C   0  0  0  0  0  0  0  0  0  0  0  0
    4.8123    0.9594   -0.0775 C   0  0  0  0  0  0  0  0  0  0  0  0
    5.4485   -0.2893   -0.1965 C   0  0  0  0  0  0  0  0  0  0  0  0
    4.6732   -1.4573   -0.3752 C   0  0  0  0  0  0  0  0  0  0  0  0
    3.2757   -1.3639   -0.2996 C   0  0  0  0  0  0  0  0  0  0  0  0
    5.3707   -2.8030   -0.5594 C   0  0  1  0  0  0  0  0  0  0  0  0
    4.8069   -3.6668   -1.7037 C   0  0  0  0  0  0  0  0  0  0  0  0
    4.3241   -3.1876   -2.7324 O   0  0  0  0  0  0  0  0  0  0  0  0
    4.9225   -5.0286   -1.4354 N   0  0  0  0  0  0  0  0  0  0  0  0
    4.4034   -6.1280   -2.1778 C   0  0  0  0  0  0  0  0  0  0  0  0
    3.6369   -5.9734   -3.3310 C   0  0  0  0  0  0  0  0  0  0  0  0
    2.9625   -6.9786   -3.9430 N   0  0  0  0  0  0  0  0  0  0  0  0
    3.1042   -8.2134   -3.4190 C   0  0  0  0  0  0  0  0  0  0  0  0
    3.9512   -8.5241   -2.3596 C   0  0  0  0  0  0  0  0  0  0  0  0
    4.1485   -9.8608   -1.9594 C   0  0  0  0  0  0  0  0  0  0  0  0
    5.0230  -10.1695   -0.9215 C   0  0  0  0  0  0  0  0  0  0  0  0
    5.6842   -9.1465   -0.2559 C   0  0  0  0  0  0  0  0  0  0  0  0
    5.4857   -7.8156   -0.6400 C   0  0  0  0  0  0  0  0  0  0  0  0
    4.6212   -7.4596   -1.7079 C   0  0  0  0  0  0  0  0  0  0  0  0
    6.9014   -2.6684   -0.7649 C   0  0  0  0  0  0  0  0  0  0  0  0
    7.4782   -1.6971    0.1917 N   0  0  0  0  0  0  0  0  0  0  0  0
    8.9571   -1.6241    0.0883 C   0  0  0  0  0  0  0  0  0  0  0  0
    9.6641   -2.9117    0.4961 C   0  0  0  0  0  0  0  0  0  0  0  0
   10.5339   -3.4068   -0.2192 O   0  0  0  0  0  0  0  0  0  0  0  0
    9.2563   -3.4270    1.7207 N   0  0  0  0  0  0  0  0  0  0  0  0
    9.8537   -4.6022    2.2201 C   0  0  0  0  0  0  0  0  0  0  0  0
   11.2352   -4.6395    2.4325 C   0  0  0  0  0  0  0  0  0  0  0  0
   11.8596   -5.7798    2.9392 C   0  0  0  0  0  0  0  0  0  0  0  0
   11.0925   -6.9452    2.9983 C   0  0  0  0  0  0  0  0  0  0  0  0
   11.5998   -8.5474    3.3700 S   0  0  0  0  0  0  0  0  0  0  0  0
   10.1611   -9.1168    2.6367 C   0  0  0  0  0  0  0  0  0  0  0  0
    9.1979   -8.2311    2.4964 N   0  0  0  0  0  0  0  0  0  0  0  0
    9.7331   -6.9614    2.6731 C   0  0  0  0  0  0  0  0  0  0  0  0
    9.0686   -5.7386    2.4322 C   0  0  0  0  0  0  0  0  0  0  0  0
    6.9537   -0.3560   -0.1709 C   0  0  0  0  0  0  0  0  0  0  0  0
    2.9427    2.0163    0.0451 H   0  0  0  0  0  0  0  0  0  0  0  0
    5.4025    1.8713   -0.0036 H   0  0  0  0  0  0  0  0  0  0  0  0
    2.6537   -2.2533   -0.3568 H   0  0  0  0  0  0  0  0  0  0  0  0
    5.2009   -3.3418    0.3969 H   0  0  0  0  0  0  0  0  0  0  0  0
    5.3326   -5.2736   -0.5442 H   0  0  0  0  0  0  0  0  0  0  0  0
    3.5086   -5.0155   -3.8251 H   0  0  0  0  0  0  0  0  0  0  0  0
    2.5018   -8.9792   -3.9031 H   0  0  0  0  0  0  0  0  0  0  0  0
    3.6480  -10.6749   -2.4814 H   0  0  0  0  0  0  0  0  0  0  0  0
    5.1977  -11.2046   -0.6401 H   0  0  0  0  0  0  0  0  0  0  0  0
    6.3772   -9.3783    0.5496 H   0  0  0  0  0  0  0  0  0  0  0  0
    6.0627   -7.0690   -0.1039 H   0  0  0  0  0  0  0  0  0  0  0  0
    7.1174   -2.3822   -1.7988 H   0  0  0  0  0  0  0  0  0  0  0  0
    7.3414   -3.6590   -0.6103 H   0  0  0  0  0  0  0  0  0  0  0  0
    9.3383   -0.8479    0.7653 H   0  0  0  0  0  0  0  0  0  0  0  0
    9.2732   -1.3660   -0.9299 H   0  0  0  0  0  0  0  0  0  0  0  0
    8.2827   -3.2368    1.9367 H   0  0  0  0  0  0  0  0  0  0  0  0
   11.8498   -3.7718    2.2029 H   0  0  0  0  0  0  0  0  0  0  0  0
   12.9250   -5.7985    3.1443 H   0  0  0  0  0  0  0  0  0  0  0  0
   10.0708  -10.1468    2.3199 H   0  0  0  0  0  0  0  0  0  0  0  0
    8.0050   -5.7419    2.2259 H   0  0  0  0  0  0  0  0  0  0  0  0
    7.3231   -0.0377   -1.1572 H   0  0  0  0  0  0  0  0  0  0  0  0
    7.3174    0.3717    0.5723 H   0  0  0  0  0  0  0  0  0  0  0  0
  1  2  1  0  0  0  0
  2  3  1  0  0  0  0
  2  7  2  0  0  0  0
  3  4  2  0  0  0  0
  3 38  1  0  0  0  0
  4  5  1  0  0  0  0
  4 39  1  0  0  0  0
  5  6  2  0  0  0  0
  5 37  1  0  0  0  0
  6  7  1  0  0  0  0
  6  8  1  0  0  0  0
  7 40  1  0  0  0  0
  8 22  1  0  0  0  0
  8  9  1  0  0  0  0
  8 41  1  1  0  0  0
  9 10  2  0  0  0  0
  9 11  1  0  0  0  0
 11 12  1  0  0  0  0
 11 42  1  0  0  0  0
 12 13  1  0  0  0  0
 12 21  2  0  0  0  0
 13 14  2  0  0  0  0
 13 43  1  0  0  0  0
 14 15  1  0  0  0  0
 15 16  2  0  0  0  0
 15 44  1  0  0  0  0
 16 17  1  0  0  0  0
 16 21  1  0  0  0  0
 17 18  2  0  0  0  0
 17 45  1  0  0  0  0
 18 19  1  0  0  0  0
 18 46  1  0  0  0  0
 19 20  2  0  0  0  0
 19 47  1  0  0  0  0
 20 21  1  0  0  0  0
 20 48  1  0  0  0  0
 22 23  1  0  0  0  0
 22 49  1  0  0  0  0
 22 50  1  0  0  0  0
 23 24  1  0  0  0  0
 23 37  1  0  0  0  0
 24 25  1  0  0  0  0
 24 51  1  0  0  0  0
 24 52  1  0  0  0  0
 25 26  2  0  0  0  0
 25 27  1  0  0  0  0
 27 28  1  0  0  0  0
 27 53  1  0  0  0  0
 28 29  1  0  0  0  0
 28 36  2  0  0  0  0
 29 30  2  0  0  0  0
 29 54  1  0  0  0  0
 30 31  1  0  0  0  0
 30 55  1  0  0  0  0
 31 32  1  0  0  0  0
 31 35  2  0  0  0  0
 32 33  1  0  0  0  0
 33 34  2  0  0  0  0
 33 56  1  0  0  0  0
 34 35  1  0  0  0  0
 35 36  1  0  0  0  0
 36 57  1  0  0  0  0
 37 58  1  0  0  0  0
 37 59  1  0  0  0  0
M  END
$$$$
