
 OpenBabel07202414113D

 53 55  0  0  1  0  0  0  0  0999 V2000
   10.1340   -0.2505    2.4221 C   0  0  0  0  0  0  0  0  0  0  0  0
    9.7956   -0.3976    1.1364 C   0  0  0  0  0  0  0  0  0  0  0  0
   10.3553    0.5222    0.1147 C   0  0  0  0  0  0  0  0  0  0  0  0
   10.9812    1.5313    0.4123 O   0  0  0  0  0  0  0  0  0  0  0  0
   10.1115    0.1432   -1.1809 N   0  0  0  0  0  0  0  0  0  0  0  0
   10.6685    0.9246   -2.2723 C   0  0  0  0  0  0  0  0  0  0  0  0
   10.1253    0.5063   -3.6482 C   0  0  0  0  0  0  0  0  0  0  0  0
   10.1264   -0.6960   -3.9398 O   0  0  0  0  0  0  0  0  0  0  0  0
    9.6979    1.4791   -4.5522 N   0  0  0  0  0  0  0  0  0  0  0  0
    9.3805    1.0553   -5.9242 C   0  0  0  0  0  0  0  0  0  0  0  0
   10.4928    1.3968   -6.8961 C   0  0  0  0  0  0  0  0  0  0  0  0
   11.7293    0.7411   -6.8095 C   0  0  0  0  0  0  0  0  0  0  0  0
   12.7934    1.1163   -7.6320 C   0  0  0  0  0  0  0  0  0  0  0  0
   12.6293    2.1390   -8.5639 C   0  0  0  0  0  0  0  0  0  0  0  0
   11.3903    2.7604   -8.7009 C   0  0  0  0  0  0  0  0  0  0  0  0
   10.3250    2.3874   -7.8767 C   0  0  0  0  0  0  0  0  0  0  0  0
    9.5627    2.9173   -4.2459 C   0  0  0  0  0  0  0  0  0  0  0  0
    8.2116    3.3462   -3.5911 C   0  0  1  0  0  0  0  0  0  0  0  0
    8.2664    4.8778   -3.2681 C   0  0  0  0  0  0  0  0  0  0  0  0
    7.1037    5.6255   -3.8110 N   0  0  3  0  0  0  0  0  0  0  0  0
    5.8654    5.0382   -3.2555 C   0  0  0  0  0  0  0  0  0  0  0  0
    5.7033    3.5648   -3.6595 C   0  0  0  0  0  0  0  0  0  0  0  0
    6.9457    3.1124   -4.4649 C   0  0  3  0  0  0  0  0  0  0  0  0
    6.9856    4.0115   -5.7125 C   0  0  0  0  0  0  0  0  0  0  0  0
    7.0858    5.4824   -5.2816 C   0  0  0  0  0  0  0  0  0  0  0  0
    8.0210    2.5901   -2.3809 O   0  0  0  0  0  0  0  0  0  0  0  0
    9.7195   -0.9015    3.1900 H   0  0  0  0  0  0  0  0  0  0  0  0
   10.8296    0.5172    2.7469 H   0  0  0  0  0  0  0  0  0  0  0  0
    9.0963   -1.1614    0.8234 H   0  0  0  0  0  0  0  0  0  0  0  0
    9.6902   -0.7511   -1.4045 H   0  0  0  0  0  0  0  0  0  0  0  0
   11.7498    0.7392   -2.2795 H   0  0  0  0  0  0  0  0  0  0  0  0
   10.5289    1.9758   -2.0391 H   0  0  0  0  0  0  0  0  0  0  0  0
    8.4497    1.5378   -6.2331 H   0  0  0  0  0  0  0  0  0  0  0  0
    9.1891   -0.0216   -5.9723 H   0  0  0  0  0  0  0  0  0  0  0  0
   11.8704   -0.0626   -6.0889 H   0  0  0  0  0  0  0  0  0  0  0  0
   13.7527    0.6146   -7.5379 H   0  0  0  0  0  0  0  0  0  0  0  0
   13.4658    2.4463   -9.1862 H   0  0  0  0  0  0  0  0  0  0  0  0
   11.2565    3.5413   -9.4457 H   0  0  0  0  0  0  0  0  0  0  0  0
    9.3676    2.8862   -8.0036 H   0  0  0  0  0  0  0  0  0  0  0  0
    9.7407    3.4871   -5.1646 H   0  0  0  0  0  0  0  0  0  0  0  0
   10.3853    3.1960   -3.5794 H   0  0  0  0  0  0  0  0  0  0  0  0
    9.1781    5.3331   -3.6765 H   0  0  0  0  0  0  0  0  0  0  0  0
    8.3171    5.0454   -2.1849 H   0  0  0  0  0  0  0  0  0  0  0  0
    4.9980    5.6170   -3.5967 H   0  0  0  0  0  0  0  0  0  0  0  0
    5.8692    5.1320   -2.1623 H   0  0  0  0  0  0  0  0  0  0  0  0
    4.8000    3.4458   -4.2706 H   0  0  0  0  0  0  0  0  0  0  0  0
    5.5635    2.9433   -2.7680 H   0  0  0  0  0  0  0  0  0  0  0  0
    6.8259    2.0565   -4.7281 H   0  0  0  0  0  0  0  0  0  0  0  0
    6.0757    3.8649   -6.3078 H   0  0  0  0  0  0  0  0  0  0  0  0
    7.8262    3.7559   -6.3618 H   0  0  0  0  0  0  0  0  0  0  0  0
    6.2481    6.0532   -5.7009 H   0  0  0  0  0  0  0  0  0  0  0  0
    7.9907    5.9327   -5.7088 H   0  0  0  0  0  0  0  0  0  0  0  0
    8.5642    2.9738   -1.6710 H   0  0  0  0  0  0  0  0  0  0  0  0
  1  2  2  0  0  0  0
  1 27  1  0  0  0  0
  1 28  1  0  0  0  0
  2  3  1  0  0  0  0
  2 29  1  0  0  0  0
  3  4  2  0  0  0  0
  3  5  1  0  0  0  0
  5  6  1  0  0  0  0
  5 30  1  0  0  0  0
  6  7  1  0  0  0  0
  6 31  1  0  0  0  0
  6 32  1  0  0  0  0
  7  8  2  0  0  0  0
  7  9  1  0  0  0  0
  9 10  1  0  0  0  0
  9 17  1  0  0  0  0
 10 11  1  0  0  0  0
 10 33  1  0  0  0  0
 10 34  1  0  0  0  0
 11 12  1  0  0  0  0
 11 16  2  0  0  0  0
 12 13  2  0  0  0  0
 12 35  1  0  0  0  0
 13 14  1  0  0  0  0
 13 36  1  0  0  0  0
 14 15  2  0  0  0  0
 14 37  1  0  0  0  0
 15 16  1  0  0  0  0
 15 38  1  0  0  0  0
 16 39  1  0  0  0  0
 17 40  1  0  0  0  0
 17 41  1  0  0  0  0
 18 19  1  0  0  0  0
 18 23  1  0  0  0  0
 18 26  1  1  0  0  0
 18 17  1  0  0  0  0
 19 20  1  0  0  0  0
 19 42  1  0  0  0  0
 19 43  1  0  0  0  0
 20 21  1  0  0  0  0
 20 25  1  0  0  0  0
 21 22  1  0  0  0  0
 21 44  1  0  0  0  0
 21 45  1  0  0  0  0
 22 23  1  0  0  0  0
 22 46  1  0  0  0  0
 22 47  1  0  0  0  0
 23 24  1  0  0  0  0
 23 48  1  0  0  0  0
 24 25  1  0  0  0  0
 24 49  1  0  0  0  0
 24 50  1  0  0  0  0
 25 51  1  0  0  0  0
 25 52  1  0  0  0  0
 26 53  1  0  0  0  0
M  END
$$$$
