
 OpenBabel07202414123D

 76 79  0  0  1  0  0  0  0  0999 V2000
    8.9452    1.2323    4.2199 C   0  0  0  0  0  0  0  0  0  0  0  0
    7.5690    0.6165    4.4849 C   0  0  0  0  0  0  0  0  0  0  0  0
    6.8101    0.3925    3.1672 C   0  0  0  0  0  0  0  0  0  0  0  0
    7.6558   -0.7143    5.2742 C   0  0  0  0  0  0  0  0  0  0  0  0
    8.3546   -0.6145    6.6408 C   0  0  2  0  0  0  0  0  0  0  0  0
    8.5801   -1.9464    7.2310 N   0  0  0  0  0  0  0  0  0  0  0  0
    9.7732   -2.6544    7.1654 C   0  0  0  0  0  0  0  0  0  0  0  0
   10.1207   -3.3040    8.1531 O   0  0  0  0  0  0  0  0  0  0  0  0
   10.4382   -2.6083    5.9901 O   0  0  0  0  0  0  0  0  0  0  0  0
   11.7336   -3.2725    5.8104 C   0  0  0  0  0  0  0  0  0  0  0  0
   11.7342   -4.4997    4.8251 C   0  0  0  0  0  0  0  0  0  0  0  0
   11.9347   -5.3981    6.0303 C   0  0  0  0  0  0  0  0  0  0  0  0
   12.4601   -4.2299    6.8294 C   0  0  0  0  0  0  0  0  0  0  0  0
   10.7744   -6.1931    6.5831 C   0  0  0  0  0  0  0  0  0  0  0  0
   11.3867   -7.3175    5.8826 N   0  0  0  0  0  0  0  0  0  0  0  0
   10.9217   -8.4501    5.2702 C   0  0  0  0  0  0  0  0  0  0  0  0
   11.6416   -9.1159    4.5226 O   0  0  0  0  0  0  0  0  0  0  0  0
    9.5076   -8.9057    5.6161 C   0  0  0  0  0  0  0  0  0  0  0  0
    8.4068   -8.7182    4.5810 C   0  0  0  0  0  0  0  0  0  0  0  0
    8.6418   -8.5213    3.2099 C   0  0  0  0  0  0  0  0  0  0  0  0
    7.5755   -8.4419    2.3062 C   0  0  0  0  0  0  0  0  0  0  0  0
    6.2622   -8.5641    2.7477 C   0  0  0  0  0  0  0  0  0  0  0  0
    6.0095   -8.7805    4.0969 C   0  0  0  0  0  0  0  0  0  0  0  0
    7.0740   -8.8630    5.0025 C   0  0  0  0  0  0  0  0  0  0  0  0
   12.7072   -6.6786    5.8222 C   0  0  0  0  0  0  0  0  0  0  0  0
    7.5307    0.3648    7.5648 C   0  0  0  0  0  0  0  0  0  0  0  0
    7.9942    1.4584    7.8954 O   0  0  0  0  0  0  0  0  0  0  0  0
    6.2169    0.0285    7.8640 N   0  0  0  0  0  0  0  0  0  0  0  0
    5.2808    1.0072    8.4770 C   0  0  2  0  0  0  0  0  0  0  0  0
    5.3840    0.9755    9.9968 C   0  0  0  0  0  0  0  0  0  0  0  0
    5.1657   -0.0311   10.6705 O   0  0  0  0  0  0  0  0  0  0  0  0
    3.8163    0.7142    8.0575 C   0  0  0  0  0  0  0  0  0  0  0  0
    2.7585    1.7028    8.5925 C   0  0  2  0  0  0  0  0  0  0  0  0
    1.3243    1.3678    8.1204 C   0  0  0  0  0  0  0  0  0  0  0  0
    1.1340    2.1947    6.8589 C   0  0  0  0  0  0  0  0  0  0  0  0
    1.9808    3.3254    7.0717 N   0  0  0  0  0  0  0  0  0  0  0  0
    2.9434    3.0955    8.0190 C   0  0  0  0  0  0  0  0  0  0  0  0
    3.8408    3.8644    8.3246 O   0  0  0  0  0  0  0  0  0  0  0  0
    8.8930    2.0181    3.4582 H   0  0  0  0  0  0  0  0  0  0  0  0
    9.6610    0.4763    3.8805 H   0  0  0  0  0  0  0  0  0  0  0  0
    9.3454    1.6970    5.1275 H   0  0  0  0  0  0  0  0  0  0  0  0
    6.9911    1.3455    5.0683 H   0  0  0  0  0  0  0  0  0  0  0  0
    6.5376   -0.6579    3.0211 H   0  0  0  0  0  0  0  0  0  0  0  0
    7.3862    0.7114    2.2926 H   0  0  0  0  0  0  0  0  0  0  0  0
    5.8778    0.9687    3.1714 H   0  0  0  0  0  0  0  0  0  0  0  0
    8.1722   -1.4586    4.6553 H   0  0  0  0  0  0  0  0  0  0  0  0
    6.6359   -1.0955    5.4171 H   0  0  0  0  0  0  0  0  0  0  0  0
    9.3487   -0.1678    6.5214 H   0  0  0  0  0  0  0  0  0  0  0  0
    8.1486   -2.0997    8.1340 H   0  0  0  0  0  0  0  0  0  0  0  0
   12.4348   -2.5006    5.4622 H   0  0  0  0  0  0  0  0  0  0  0  0
   12.5947   -4.4904    4.1395 H   0  0  0  0  0  0  0  0  0  0  0  0
   10.8305   -4.6698    4.2382 H   0  0  0  0  0  0  0  0  0  0  0  0
   13.5609   -4.1306    6.7785 H   0  0  0  0  0  0  0  0  0  0  0  0
   12.1998   -4.1926    7.8842 H   0  0  0  0  0  0  0  0  0  0  0  0
    9.7795   -5.9064    6.2419 H   0  0  0  0  0  0  0  0  0  0  0  0
   10.7866   -6.3477    7.6658 H   0  0  0  0  0  0  0  0  0  0  0  0
    9.2009   -8.4414    6.5565 H   0  0  0  0  0  0  0  0  0  0  0  0
    9.5787   -9.9820    5.8098 H   0  0  0  0  0  0  0  0  0  0  0  0
    9.6580   -8.4601    2.8267 H   0  0  0  0  0  0  0  0  0  0  0  0
    7.7776   -8.2996    1.2464 H   0  0  0  0  0  0  0  0  0  0  0  0
    5.4393   -8.5138    2.0368 H   0  0  0  0  0  0  0  0  0  0  0  0
    4.9909   -8.9042    4.4472 H   0  0  0  0  0  0  0  0  0  0  0  0
    6.8464   -9.0707    6.0459 H   0  0  0  0  0  0  0  0  0  0  0  0
   13.2295   -6.8099    4.8723 H   0  0  0  0  0  0  0  0  0  0  0  0
   13.3456   -7.0083    6.6498 H   0  0  0  0  0  0  0  0  0  0  0  0
    5.9430   -0.9461    7.8485 H   0  0  0  0  0  0  0  0  0  0  0  0
    5.5785    2.0090    8.1483 H   0  0  0  0  0  0  0  0  0  0  0  0
    5.6364    1.9387   10.4765 H   0  0  0  0  0  0  0  0  0  0  0  0
    3.5416   -0.2898    8.4094 H   0  0  0  0  0  0  0  0  0  0  0  0
    3.7690    0.6811    6.9627 H   0  0  0  0  0  0  0  0  0  0  0  0
    2.7691    1.7523    9.6872 H   0  0  0  0  0  0  0  0  0  0  0  0
    0.6104    1.7159    8.8786 H   0  0  0  0  0  0  0  0  0  0  0  0
    1.1456    0.3062    7.9592 H   0  0  0  0  0  0  0  0  0  0  0  0
    0.1003    2.5218    6.7164 H   0  0  0  0  0  0  0  0  0  0  0  0
    1.4810    1.6674    5.9653 H   0  0  0  0  0  0  0  0  0  0  0  0
    1.9898    4.1758    6.5219 H   0  0  0  0  0  0  0  0  0  0  0  0
  1  2  1  0  0  0  0
  1 39  1  0  0  0  0
  1 40  1  0  0  0  0
  1 41  1  0  0  0  0
  2  3  1  0  0  0  0
  2  4  1  0  0  0  0
  2 42  1  0  0  0  0
  3 43  1  0  0  0  0
  3 44  1  0  0  0  0
  3 45  1  0  0  0  0
  4 46  1  0  0  0  0
  4 47  1  0  0  0  0
  5 26  1  0  0  0  0
  5  6  1  0  0  0  0
  5  4  1  0  0  0  0
  5 48  1  6  0  0  0
  6  7  1  0  0  0  0
  6 49  1  0  0  0  0
  7  8  2  0  0  0  0
  7  9  1  0  0  0  0
  9 10  1  0  0  0  0
 10 11  1  0  0  0  0
 10 13  1  0  0  0  0
 10 50  1  0  0  0  0
 11 12  1  0  0  0  0
 11 51  1  0  0  0  0
 11 52  1  0  0  0  0
 12 13  1  0  0  0  0
 12 14  1  0  0  0  0
 12 25  1  0  0  0  0
 13 53  1  0  0  0  0
 13 54  1  0  0  0  0
 14 15  1  0  0  0  0
 14 55  1  0  0  0  0
 14 56  1  0  0  0  0
 15 16  1  0  0  0  0
 15 25  1  0  0  0  0
 16 17  2  0  0  0  0
 16 18  1  0  0  0  0
 18 19  1  0  0  0  0
 18 57  1  0  0  0  0
 18 58  1  0  0  0  0
 19 20  1  0  0  0  0
 19 24  2  0  0  0  0
 20 21  2  0  0  0  0
 20 59  1  0  0  0  0
 21 22  1  0  0  0  0
 21 60  1  0  0  0  0
 22 23  2  0  0  0  0
 22 61  1  0  0  0  0
 23 24  1  0  0  0  0
 23 62  1  0  0  0  0
 24 63  1  0  0  0  0
 25 64  1  0  0  0  0
 25 65  1  0  0  0  0
 26 27  2  0  0  0  0
 26 28  1  0  0  0  0
 28 66  1  0  0  0  0
 29 32  1  0  0  0  0
 29 30  1  0  0  0  0
 29 28  1  0  0  0  0
 29 67  1  6  0  0  0
 30 31  2  0  0  0  0
 30 68  1  0  0  0  0
 32 69  1  0  0  0  0
 32 70  1  0  0  0  0
 33 34  1  0  0  0  0
 33 37  1  0  0  0  0
 33 32  1  0  0  0  0
 33 71  1  1  0  0  0
 34 35  1  0  0  0  0
 34 72  1  0  0  0  0
 34 73  1  0  0  0  0
 35 36  1  0  0  0  0
 35 74  1  0  0  0  0
 35 75  1  0  0  0  0
 36 37  1  0  0  0  0
 36 76  1  0  0  0  0
 37 38  2  0  0  0  0
M  END
$$$$
