
 OpenBabel07202414153D

 64 68  0  0  1  0  0  0  0  0999 V2000
   -3.4006    1.8505    6.1275 C   0  0  0  0  0  0  0  0  0  0  0  0
   -3.2365    1.5936    4.7396 O   0  0  0  0  0  0  0  0  0  0  0  0
   -3.4629    0.3074    4.3206 C   0  0  0  0  0  0  0  0  0  0  0  0
   -4.2025   -0.6385    5.0389 C   0  0  0  0  0  0  0  0  0  0  0  0
   -4.4159   -1.9159    4.5165 C   0  0  0  0  0  0  0  0  0  0  0  0
   -3.9066   -2.2523    3.2670 C   0  0  0  0  0  0  0  0  0  0  0  0
   -3.1637   -1.3175    2.5451 C   0  0  0  0  0  0  0  0  0  0  0  0
   -2.9206   -0.0342    3.0672 C   0  0  0  0  0  0  0  0  0  0  0  0
   -2.0812    0.9461    2.2814 C   0  0  0  0  0  0  0  0  0  0  0  0
   -0.9043    1.3611    3.0175 N   0  0  0  0  0  0  0  0  0  0  0  0
    0.1824    1.9128    2.3880 C   0  0  0  0  0  0  0  0  0  0  0  0
    0.2924    1.9525    1.1635 O   0  0  0  0  0  0  0  0  0  0  0  0
    1.3268    2.3521    3.3055 C   0  0  0  0  0  0  0  0  0  0  0  0
    0.9134    2.7727    4.6780 N   0  0  0  0  0  0  0  0  0  0  0  0
    0.2100    4.0801    4.6799 C   0  0  0  0  0  0  0  0  0  0  0  0
    0.9372    5.3133    5.2844 C   0  0  2  0  0  0  0  0  0  0  0  0
    1.8886    5.9472    4.2526 C   0  0  0  0  0  0  0  0  0  0  0  0
    1.6622    5.8524    3.0493 O   0  0  0  0  0  0  0  0  0  0  0  0
    2.9164    6.6974    4.7941 N   0  0  0  0  0  0  0  0  0  0  0  0
    3.8444    7.5367    4.1169 C   0  0  0  0  0  0  0  0  0  0  0  0
    3.7748    7.7990    2.7473 C   0  0  0  0  0  0  0  0  0  0  0  0
    4.5631    8.6860    2.0948 N   0  0  0  0  0  0  0  0  0  0  0  0
    5.5069    9.3085    2.8274 C   0  0  0  0  0  0  0  0  0  0  0  0
    5.7473    9.0598    4.1771 C   0  0  0  0  0  0  0  0  0  0  0  0
    6.8358    9.6638    4.8392 C   0  0  0  0  0  0  0  0  0  0  0  0
    7.0928    9.3901    6.1783 C   0  0  0  0  0  0  0  0  0  0  0  0
    6.2403    8.5555    6.8845 C   0  0  0  0  0  0  0  0  0  0  0  0
    5.1498    7.9610    6.2394 C   0  0  0  0  0  0  0  0  0  0  0  0
    4.8865    8.1717    4.8600 C   0  0  0  0  0  0  0  0  0  0  0  0
    1.5530    4.9258    6.6175 C   0  0  0  0  0  0  0  0  0  0  0  0
    1.5937    5.8029    7.7176 C   0  0  0  0  0  0  0  0  0  0  0  0
    2.1996    5.3974    8.9062 C   0  0  0  0  0  0  0  0  0  0  0  0
    2.2855    6.4863   10.2376 Cl  0  0  0  0  0  0  0  0  0  0  0  0
    2.7587    4.1271    9.0221 C   0  0  0  0  0  0  0  0  0  0  0  0
    2.7056    3.2493    7.9368 C   0  0  0  0  0  0  0  0  0  0  0  0
    2.0958    3.6385    6.7384 C   0  0  0  0  0  0  0  0  0  0  0  0
    2.1269    2.7421    5.5247 C   0  0  0  0  0  0  0  0  0  0  0  0
   -3.1128    2.8905    6.3073 H   0  0  0  0  0  0  0  0  0  0  0  0
   -2.7399    1.2101    6.7207 H   0  0  0  0  0  0  0  0  0  0  0  0
   -4.4449    1.7414    6.4349 H   0  0  0  0  0  0  0  0  0  0  0  0
   -4.6376   -0.4100    6.0054 H   0  0  0  0  0  0  0  0  0  0  0  0
   -4.9882   -2.6451    5.0850 H   0  0  0  0  0  0  0  0  0  0  0  0
   -4.0851   -3.2425    2.8552 H   0  0  0  0  0  0  0  0  0  0  0  0
   -2.7709   -1.5980    1.5698 H   0  0  0  0  0  0  0  0  0  0  0  0
   -2.6703    1.8365    2.0372 H   0  0  0  0  0  0  0  0  0  0  0  0
   -1.7621    0.5051    1.3287 H   0  0  0  0  0  0  0  0  0  0  0  0
   -1.0095    1.5770    4.0036 H   0  0  0  0  0  0  0  0  0  0  0  0
    1.8936    3.1471    2.8082 H   0  0  0  0  0  0  0  0  0  0  0  0
    1.9750    1.4682    3.3819 H   0  0  0  0  0  0  0  0  0  0  0  0
   -0.6768    3.9130    5.3093 H   0  0  0  0  0  0  0  0  0  0  0  0
   -0.2008    4.3181    3.6910 H   0  0  0  0  0  0  0  0  0  0  0  0
    0.1714    6.0769    5.4780 H   0  0  0  0  0  0  0  0  0  0  0  0
    3.0221    6.6562    5.7937 H   0  0  0  0  0  0  0  0  0  0  0  0
    3.0639    7.3088    2.0915 H   0  0  0  0  0  0  0  0  0  0  0  0
    6.0924   10.0377    2.2737 H   0  0  0  0  0  0  0  0  0  0  0  0
    7.5083   10.3250    4.2984 H   0  0  0  0  0  0  0  0  0  0  0  0
    7.9607    9.8245    6.6674 H   0  0  0  0  0  0  0  0  0  0  0  0
    6.4276    8.3478    7.9348 H   0  0  0  0  0  0  0  0  0  0  0  0
    4.5331    7.3057    6.8456 H   0  0  0  0  0  0  0  0  0  0  0  0
    1.1638    6.8009    7.6474 H   0  0  0  0  0  0  0  0  0  0  0  0
    3.2398    3.8158    9.9455 H   0  0  0  0  0  0  0  0  0  0  0  0
    3.1519    2.2588    8.0325 H   0  0  0  0  0  0  0  0  0  0  0  0
    3.0170    3.0401    4.9519 H   0  0  0  0  0  0  0  0  0  0  0  0
    2.2781    1.7049    5.8450 H   0  0  0  0  0  0  0  0  0  0  0  0
  1  2  1  0  0  0  0
  1 38  1  0  0  0  0
  1 39  1  0  0  0  0
  1 40  1  0  0  0  0
  2  3  1  0  0  0  0
  3  4  1  0  0  0  0
  3  8  2  0  0  0  0
  4  5  2  0  0  0  0
  4 41  1  0  0  0  0
  5  6  1  0  0  0  0
  5 42  1  0  0  0  0
  6  7  2  0  0  0  0
  6 43  1  0  0  0  0
  7  8  1  0  0  0  0
  7 44  1  0  0  0  0
  8  9  1  0  0  0  0
  9 10  1  0  0  0  0
  9 45  1  0  0  0  0
  9 46  1  0  0  0  0
 10 11  1  0  0  0  0
 10 47  1  0  0  0  0
 11 12  2  0  0  0  0
 11 13  1  0  0  0  0
 13 14  1  0  0  0  0
 13 48  1  0  0  0  0
 13 49  1  0  0  0  0
 14 15  1  0  0  0  0
 14 37  1  0  0  0  0
 15 16  1  0  0  0  0
 15 50  1  0  0  0  0
 15 51  1  0  0  0  0
 16 30  1  0  0  0  0
 16 17  1  0  0  0  0
 16 52  1  1  0  0  0
 17 18  2  0  0  0  0
 17 19  1  0  0  0  0
 19 20  1  0  0  0  0
 19 53  1  0  0  0  0
 20 21  1  0  0  0  0
 20 29  2  0  0  0  0
 21 22  2  0  0  0  0
 21 54  1  0  0  0  0
 22 23  1  0  0  0  0
 23 24  2  0  0  0  0
 23 55  1  0  0  0  0
 24 25  1  0  0  0  0
 24 29  1  0  0  0  0
 25 26  2  0  0  0  0
 25 56  1  0  0  0  0
 26 27  1  0  0  0  0
 26 57  1  0  0  0  0
 27 28  2  0  0  0  0
 27 58  1  0  0  0  0
 28 29  1  0  0  0  0
 28 59  1  0  0  0  0
 30 31  1  0  0  0  0
 30 36  2  0  0  0  0
 31 32  2  0  0  0  0
 31 60  1  0  0  0  0
 32 33  1  0  0  0  0
 32 34  1  0  0  0  0
 34 35  2  0  0  0  0
 34 61  1  0  0  0  0
 35 36  1  0  0  0  0
 35 62  1  0  0  0  0
 36 37  1  0  0  0  0
 37 63  1  0  0  0  0
 37 64  1  0  0  0  0
M  END
$$$$
