
 OpenBabel07202414153D

 61 66  0  0  1  0  0  0  0  0999 V2000
    0.7510    0.4774   -0.1857 C   0  0  0  0  0  0  0  0  0  0  0  0
    2.2697    0.2938   -0.2228 C   0  0  2  0  0  0  0  0  0  0  0  0
    2.9583    1.6302   -0.0527 C   0  0  0  0  0  0  0  0  0  0  0  0
    3.7520    1.8679   -1.2314 N   0  0  0  0  0  0  0  0  0  0  0  0
    4.2990    3.1856   -1.3751 C   0  0  0  0  0  0  0  0  0  0  0  0
    4.8221    3.7702   -0.2136 C   0  0  0  0  0  0  0  0  0  0  0  0
    5.0483    5.0818   -0.0102 N   0  0  0  0  0  0  0  0  0  0  0  0
    4.7935    5.8807   -1.0569 C   0  0  0  0  0  0  0  0  0  0  0  0
    4.4059    5.4332   -2.3167 C   0  0  0  0  0  0  0  0  0  0  0  0
    4.2670    6.3689   -3.3548 C   0  0  0  0  0  0  0  0  0  0  0  0
    3.8661    5.9620   -4.6187 C   0  0  0  0  0  0  0  0  0  0  0  0
    3.5608    4.6236   -4.8372 C   0  0  0  0  0  0  0  0  0  0  0  0
    3.6821    3.6795   -3.8000 C   0  0  0  0  0  0  0  0  0  0  0  0
    4.1349    4.0405   -2.5126 C   0  0  0  0  0  0  0  0  0  0  0  0
    3.8274    0.7513   -2.0624 C   0  0  0  0  0  0  0  0  0  0  0  0
    4.5101    0.6349   -3.0716 O   0  0  0  0  0  0  0  0  0  0  0  0
    2.9249   -0.3854   -1.4666 C   0  0  1  0  0  0  0  0  0  0  0  0
    3.8279   -1.5716   -0.9993 C   0  0  0  0  0  0  0  0  0  0  0  0
    3.0653   -2.8519   -0.6794 N   0  0  0  0  0  0  0  0  0  0  0  0
    2.1979   -2.9523    0.7850 S   0  0  0  0  0  0  0  0  0  0  0  0
    3.0000   -2.2920    1.7950 O   0  0  0  0  0  0  0  0  0  0  0  0
    0.8492   -2.5236    0.5061 O   0  0  0  0  0  0  0  0  0  0  0  0
    2.1672   -4.7055    1.2151 C   0  0  0  0  0  0  0  0  0  0  0  0
    1.3194   -4.8279    2.4804 C   0  0  0  0  0  0  0  0  0  0  0  0
   -0.0892   -4.5071    2.3465 C   0  0  0  0  0  0  0  0  0  0  0  0
   -1.2295   -4.3073    2.2802 N   0  0  0  0  0  0  0  0  0  0  0  0
    1.5861   -6.0237    3.3974 C   0  0  0  0  0  0  0  0  0  0  0  0
    1.9719   -4.6486    3.8451 C   0  0  0  0  0  0  0  0  0  0  0  0
    2.3483   -3.3171   -1.8911 C   0  0  0  0  0  0  0  0  0  0  0  0
    1.5629   -2.2372   -2.6048 C   0  0  0  0  0  0  0  0  0  0  0  0
    0.4729   -2.6186   -3.4079 C   0  0  0  0  0  0  0  0  0  0  0  0
   -0.2939   -1.6623   -4.0745 C   0  0  0  0  0  0  0  0  0  0  0  0
    0.0560   -0.3212   -3.9944 C   0  0  0  0  0  0  0  0  0  0  0  0
   -0.9093    0.8690   -4.7766 Cl  0  0  0  0  0  0  0  0  0  0  0  0
    1.1551    0.0748   -3.2389 C   0  0  0  0  0  0  0  0  0  0  0  0
    1.8966   -0.8682   -2.4954 C   0  0  0  0  0  0  0  0  0  0  0  0
    0.4421    0.7293    0.8348 H   0  0  0  0  0  0  0  0  0  0  0  0
    0.2110   -0.4295   -0.4628 H   0  0  0  0  0  0  0  0  0  0  0  0
    0.4154    1.2871   -0.8381 H   0  0  0  0  0  0  0  0  0  0  0  0
    2.5180   -0.2628    0.6813 H   0  0  0  0  0  0  0  0  0  0  0  0
    3.6080    1.5994    0.8288 H   0  0  0  0  0  0  0  0  0  0  0  0
    2.2428    2.4540    0.0635 H   0  0  0  0  0  0  0  0  0  0  0  0
    5.0743    3.1600    0.6505 H   0  0  0  0  0  0  0  0  0  0  0  0
    4.9061    6.9394   -0.8436 H   0  0  0  0  0  0  0  0  0  0  0  0
    4.4925    7.4218   -3.1883 H   0  0  0  0  0  0  0  0  0  0  0  0
    3.7895    6.6880   -5.4239 H   0  0  0  0  0  0  0  0  0  0  0  0
    3.2311    4.3061   -5.8249 H   0  0  0  0  0  0  0  0  0  0  0  0
    3.4396    2.6479   -4.0327 H   0  0  0  0  0  0  0  0  0  0  0  0
    4.4563   -1.2958   -0.1431 H   0  0  0  0  0  0  0  0  0  0  0  0
    4.5437   -1.8305   -1.7942 H   0  0  0  0  0  0  0  0  0  0  0  0
    3.2010   -5.0211    1.3883 H   0  0  0  0  0  0  0  0  0  0  0  0
    1.7260   -5.2748    0.3954 H   0  0  0  0  0  0  0  0  0  0  0  0
    2.3766   -6.7214    3.1495 H   0  0  0  0  0  0  0  0  0  0  0  0
    0.7473   -6.4942    3.9095 H   0  0  0  0  0  0  0  0  0  0  0  0
    3.0306   -4.4190    3.9051 H   0  0  0  0  0  0  0  0  0  0  0  0
    1.3934   -4.1941    4.6461 H   0  0  0  0  0  0  0  0  0  0  0  0
    1.6938   -4.1580   -1.6368 H   0  0  0  0  0  0  0  0  0  0  0  0
    3.0950   -3.7184   -2.5903 H   0  0  0  0  0  0  0  0  0  0  0  0
    0.1856   -3.6654   -3.4863 H   0  0  0  0  0  0  0  0  0  0  0  0
   -1.1692   -1.9692   -4.6409 H   0  0  0  0  0  0  0  0  0  0  0  0
    1.3857    1.1358   -3.1704 H   0  0  0  0  0  0  0  0  0  0  0  0
  1  2  1  0  0  0  0
  1 37  1  0  0  0  0
  1 38  1  0  0  0  0
  1 39  1  0  0  0  0
  2  3  1  0  0  0  0
  2 17  1  0  0  0  0
  2 40  1  1  0  0  0
  3  4  1  0  0  0  0
  3 41  1  0  0  0  0
  3 42  1  0  0  0  0
  4  5  1  0  0  0  0
  4 15  1  0  0  0  0
  5  6  1  0  0  0  0
  5 14  2  0  0  0  0
  6  7  2  0  0  0  0
  6 43  1  0  0  0  0
  7  8  1  0  0  0  0
  8  9  2  0  0  0  0
  8 44  1  0  0  0  0
  9 10  1  0  0  0  0
  9 14  1  0  0  0  0
 10 11  2  0  0  0  0
 10 45  1  0  0  0  0
 11 12  1  0  0  0  0
 11 46  1  0  0  0  0
 12 13  2  0  0  0  0
 12 47  1  0  0  0  0
 13 14  1  0  0  0  0
 13 48  1  0  0  0  0
 15 16  2  0  0  0  0
 17 15  1  6  0  0  0
 17 18  1  0  0  0  0
 17 36  1  0  0  0  0
 18 19  1  0  0  0  0
 18 49  1  0  0  0  0
 18 50  1  0  0  0  0
 19 20  1  0  0  0  0
 19 29  1  0  0  0  0
 20 21  2  0  0  0  0
 20 22  2  0  0  0  0
 20 23  1  0  0  0  0
 23 24  1  0  0  0  0
 23 51  1  0  0  0  0
 23 52  1  0  0  0  0
 24 25  1  0  0  0  0
 24 27  1  0  0  0  0
 24 28  1  0  0  0  0
 25 26  3  0  0  0  0
 27 28  1  0  0  0  0
 27 53  1  0  0  0  0
 27 54  1  0  0  0  0
 28 55  1  0  0  0  0
 28 56  1  0  0  0  0
 29 30  1  0  0  0  0
 29 57  1  0  0  0  0
 29 58  1  0  0  0  0
 30 31  1  0  0  0  0
 30 36  2  0  0  0  0
 31 32  2  0  0  0  0
 31 59  1  0  0  0  0
 32 33  1  0  0  0  0
 32 60  1  0  0  0  0
 33 34  1  0  0  0  0
 33 35  2  0  0  0  0
 35 36  1  0  0  0  0
 35 61  1  0  0  0  0
M  END
$$$$
