
 OpenBabel07202414203D

 40 43  0  0  1  0  0  0  0  0999 V2000
   -6.2938    9.3215   -0.3304 C   0  0  0  0  0  0  0  0  0  0  0  0
   -4.9725    9.4323    0.0831 C   0  0  0  0  0  0  0  0  0  0  0  0
   -4.1363    8.3078    0.0727 C   0  0  0  0  0  0  0  0  0  0  0  0
   -4.5960    7.0318   -0.3552 C   0  0  0  0  0  0  0  0  0  0  0  0
   -5.9616    6.9461   -0.7327 C   0  0  0  0  0  0  0  0  0  0  0  0
   -6.7878    8.0820   -0.7255 C   0  0  0  0  0  0  0  0  0  0  0  0
   -6.4678    5.7107   -1.1205 C   0  0  0  0  0  0  0  0  0  0  0  0
   -5.7532    4.5695   -1.1730 N   0  0  0  0  0  0  0  0  0  0  0  0
   -4.4433    4.6703   -0.8553 C   0  0  0  0  0  0  0  0  0  0  0  0
   -3.8049    5.8488   -0.4634 C   0  0  0  0  0  0  0  0  0  0  0  0
   -2.4154    5.8927   -0.1985 N   0  0  0  0  0  0  0  0  0  0  0  0
   -1.4667    4.9490   -0.5764 C   0  0  0  0  0  0  0  0  0  0  0  0
   -1.7041    3.9038   -1.1783 O   0  0  0  0  0  0  0  0  0  0  0  0
   -0.0177    5.2898   -0.1963 C   0  0  2  0  0  0  0  0  0  0  0  0
    0.2501    5.0926    1.2935 C   0  0  0  0  0  0  0  0  0  0  0  0
   -0.3623    6.1901    2.1484 C   0  0  0  0  0  0  0  0  0  0  0  0
   -0.2033    7.5280    1.5875 N   0  0  0  0  0  0  0  0  0  0  0  0
    0.2241    7.7431    0.2830 C   0  0  0  0  0  0  0  0  0  0  0  0
    0.3406    6.6901   -0.6350 C   0  0  0  0  0  0  0  0  0  0  0  0
    0.6449    6.9419   -1.9835 C   0  0  0  0  0  0  0  0  0  0  0  0
    0.7612    8.2519   -2.4326 C   0  0  0  0  0  0  0  0  0  0  0  0
    0.5918    9.3101   -1.5461 C   0  0  0  0  0  0  0  0  0  0  0  0
    0.3359    9.0533   -0.1950 C   0  0  0  0  0  0  0  0  0  0  0  0
    1.0487    8.5636   -4.0987 Cl  0  0  0  0  0  0  0  0  0  0  0  0
   -6.9402   10.1953   -0.3461 H   0  0  0  0  0  0  0  0  0  0  0  0
   -4.5879   10.3945    0.4081 H   0  0  0  0  0  0  0  0  0  0  0  0
   -3.1130    8.4556    0.4076 H   0  0  0  0  0  0  0  0  0  0  0  0
   -7.8244    8.0091   -1.0464 H   0  0  0  0  0  0  0  0  0  0  0  0
   -7.5075    5.5922   -1.4110 H   0  0  0  0  0  0  0  0  0  0  0  0
   -3.9191    3.7230   -0.9162 H   0  0  0  0  0  0  0  0  0  0  0  0
   -2.0468    6.7704    0.1547 H   0  0  0  0  0  0  0  0  0  0  0  0
    0.6278    4.5839   -0.7391 H   0  0  0  0  0  0  0  0  0  0  0  0
    1.3353    5.0826    1.4617 H   0  0  0  0  0  0  0  0  0  0  0  0
   -0.1269    4.1175    1.6265 H   0  0  0  0  0  0  0  0  0  0  0  0
    0.0832    6.1612    3.1497 H   0  0  0  0  0  0  0  0  0  0  0  0
   -1.4321    6.0037    2.2929 H   0  0  0  0  0  0  0  0  0  0  0  0
    0.1315    8.2237    2.2522 H   0  0  0  0  0  0  0  0  0  0  0  0
    0.7359    6.1168   -2.6876 H   0  0  0  0  0  0  0  0  0  0  0  0
    0.6294   10.3358   -1.9024 H   0  0  0  0  0  0  0  0  0  0  0  0
    0.1738    9.8938    0.4756 H   0  0  0  0  0  0  0  0  0  0  0  0
  1  2  1  0  0  0  0
  1  6  2  0  0  0  0
  1 25  1  0  0  0  0
  2  3  2  0  0  0  0
  2 26  1  0  0  0  0
  3  4  1  0  0  0  0
  3 27  1  0  0  0  0
  4  5  1  0  0  0  0
  4 10  2  0  0  0  0
  5  6  1  0  0  0  0
  5  7  2  0  0  0  0
  6 28  1  0  0  0  0
  7  8  1  0  0  0  0
  7 29  1  0  0  0  0
  8  9  2  0  0  0  0
  9 10  1  0  0  0  0
  9 30  1  0  0  0  0
 10 11  1  0  0  0  0
 11 12  1  0  0  0  0
 11 31  1  0  0  0  0
 12 13  2  0  0  0  0
 14 15  1  0  0  0  0
 14 19  1  0  0  0  0
 14 12  1  0  0  0  0
 14 32  1  6  0  0  0
 15 16  1  0  0  0  0
 15 33  1  0  0  0  0
 15 34  1  0  0  0  0
 16 17  1  0  0  0  0
 16 35  1  0  0  0  0
 16 36  1  0  0  0  0
 17 18  1  0  0  0  0
 17 37  1  0  0  0  0
 18 19  1  0  0  0  0
 18 23  2  0  0  0  0
 19 20  2  0  0  0  0
 20 21  1  0  0  0  0
 20 38  1  0  0  0  0
 21 22  2  0  0  0  0
 21 24  1  0  0  0  0
 22 23  1  0  0  0  0
 22 39  1  0  0  0  0
 23 40  1  0  0  0  0
M  END
$$$$
