
 OpenBabel07202414193D

 37 38  0  0  0  0  0  0  0  0999 V2000
    2.9447   -1.1597    0.6340 N   0  0  0  0  0  0  0  0  0  0  0  0
    2.4773   -0.8710   -0.5235 C   0  0  0  0  0  0  0  0  0  0  0  0
    1.2125   -1.1485   -0.8983 N   0  0  0  0  0  0  0  0  0  0  0  0
    3.1731   -0.2618   -1.5091 N   0  0  0  0  0  0  0  0  0  0  0  0
    4.4583    0.3580   -1.2284 C   0  0  0  0  0  0  0  0  0  0  0  0
    4.8861    1.1800   -2.4252 C   0  0  0  0  0  0  0  0  0  0  0  0
    4.5302    2.5336   -2.5034 C   0  0  0  0  0  0  0  0  0  0  0  0
    4.8415    3.2865   -3.6368 C   0  0  0  0  0  0  0  0  0  0  0  0
    5.5451    2.7049   -4.6932 C   0  0  0  0  0  0  0  0  0  0  0  0
    5.8456    3.4105   -5.8827 O   0  0  0  0  0  0  0  0  0  0  0  0
    6.3152    4.7194   -5.7547 C   0  0  0  0  0  0  0  0  0  0  0  0
    6.4698    5.2840   -4.6753 O   0  0  0  0  0  0  0  0  0  0  0  0
    6.5540    5.2911   -6.9863 N   0  0  0  0  0  0  0  0  0  0  0  0
    7.1791    6.5471   -7.1712 C   0  0  0  0  0  0  0  0  0  0  0  0
    7.9637    7.1311   -6.1662 C   0  0  0  0  0  0  0  0  0  0  0  0
    8.5420    8.3863   -6.3359 C   0  0  0  0  0  0  0  0  0  0  0  0
    8.3625    9.0764   -7.5286 C   0  0  0  0  0  0  0  0  0  0  0  0
    7.6189    8.4954   -8.5543 C   0  0  0  0  0  0  0  0  0  0  0  0
    7.0370    7.2283   -8.3879 C   0  0  0  0  0  0  0  0  0  0  0  0
    5.9125    1.3602   -4.6304 C   0  0  0  0  0  0  0  0  0  0  0  0
    5.5783    0.6000   -3.5006 C   0  0  0  0  0  0  0  0  0  0  0  0
    2.2142   -1.5892    1.2028 H   0  0  0  0  0  0  0  0  0  0  0  0
    0.7379   -1.8285   -0.3198 H   0  0  0  0  0  0  0  0  0  0  0  0
    1.1279   -1.3843   -1.8799 H   0  0  0  0  0  0  0  0  0  0  0  0
    2.5987    0.2966   -2.1275 H   0  0  0  0  0  0  0  0  0  0  0  0
    5.2135   -0.4042   -1.0046 H   0  0  0  0  0  0  0  0  0  0  0  0
    4.3867    1.0110   -0.3488 H   0  0  0  0  0  0  0  0  0  0  0  0
    3.9994    3.0121   -1.6827 H   0  0  0  0  0  0  0  0  0  0  0  0
    4.5373    4.3288   -3.6680 H   0  0  0  0  0  0  0  0  0  0  0  0
    6.1628    4.8126   -7.7902 H   0  0  0  0  0  0  0  0  0  0  0  0
    8.1569    6.6196   -5.2316 H   0  0  0  0  0  0  0  0  0  0  0  0
    9.1319    8.8143   -5.5291 H   0  0  0  0  0  0  0  0  0  0  0  0
    8.8053   10.0618   -7.6513 H   0  0  0  0  0  0  0  0  0  0  0  0
    7.4853    9.0400   -9.4869 H   0  0  0  0  0  0  0  0  0  0  0  0
    6.4521    6.8131   -9.2035 H   0  0  0  0  0  0  0  0  0  0  0  0
    6.4523    0.8971   -5.4513 H   0  0  0  0  0  0  0  0  0  0  0  0
    5.8514   -0.4531   -3.4626 H   0  0  0  0  0  0  0  0  0  0  0  0
  1  2  2  0  0  0  0
  1 22  1  0  0  0  0
  2  3  1  0  0  0  0
  2  4  1  0  0  0  0
  3 23  1  0  0  0  0
  3 24  1  0  0  0  0
  4  5  1  0  0  0  0
  4 25  1  0  0  0  0
  5  6  1  0  0  0  0
  5 26  1  0  0  0  0
  5 27  1  0  0  0  0
  6  7  1  0  0  0  0
  6 21  2  0  0  0  0
  7  8  2  0  0  0  0
  7 28  1  0  0  0  0
  8  9  1  0  0  0  0
  8 29  1  0  0  0  0
  9 10  1  0  0  0  0
  9 20  2  0  0  0  0
 10 11  1  0  0  0  0
 11 12  2  0  0  0  0
 11 13  1  0  0  0  0
 13 14  1  0  0  0  0
 13 30  1  0  0  0  0
 14 15  1  0  0  0  0
 14 19  2  0  0  0  0
 15 16  2  0  0  0  0
 15 31  1  0  0  0  0
 16 17  1  0  0  0  0
 16 32  1  0  0  0  0
 17 18  2  0  0  0  0
 17 33  1  0  0  0  0
 18 19  1  0  0  0  0
 18 34  1  0  0  0  0
 19 35  1  0  0  0  0
 20 21  1  0  0  0  0
 20 36  1  0  0  0  0
 21 37  1  0  0  0  0
M  END
$$$$
