
 OpenBabel07202414183D

 66 70  0  0  1  0  0  0  0  0999 V2000
    1.9261  -15.3792   -3.8351 F   0  0  0  0  0  0  0  0  0  0  0  0
    3.1820  -15.7205   -3.4303 C   0  0  0  0  0  0  0  0  0  0  0  0
    3.0180  -16.6963   -2.4942 F   0  0  0  0  0  0  0  0  0  0  0  0
    3.7650  -16.3267   -4.5020 F   0  0  0  0  0  0  0  0  0  0  0  0
    3.9910  -14.5536   -2.9167 C   0  0  0  0  0  0  0  0  0  0  0  0
    3.4530  -13.2609   -2.8705 C   0  0  0  0  0  0  0  0  0  0  0  0
    4.2139  -12.1903   -2.3931 C   0  0  0  0  0  0  0  0  0  0  0  0
    5.5301  -12.3902   -1.9560 C   0  0  0  0  0  0  0  0  0  0  0  0
    6.3427  -11.2365   -1.4194 C   0  0  0  0  0  0  0  0  0  0  0  0
    6.1477  -11.0558    0.0863 C   0  0  0  0  0  0  0  0  0  0  0  0
    6.9189   -9.9479    0.6224 N   0  0  0  0  0  0  0  0  0  0  0  0
    6.8940   -9.6835    1.9830 C   0  0  0  0  0  0  0  0  0  0  0  0
    6.2954  -10.4000    2.7810 O   0  0  0  0  0  0  0  0  0  0  0  0
    7.7225   -8.4586    2.4024 C   0  0  0  0  0  0  0  0  0  0  0  0
    8.7053   -8.7848    3.4546 N   0  0  0  0  0  0  0  0  0  0  0  0
    9.4513   -7.6049    3.9187 C   0  0  0  0  0  0  0  0  0  0  0  0
   10.8166   -7.3754    3.2461 C   0  0  2  0  0  0  0  0  0  0  0  0
   10.6344   -6.9352    1.7815 C   0  0  0  0  0  0  0  0  0  0  0  0
   10.0170   -5.9092    1.5057 O   0  0  0  0  0  0  0  0  0  0  0  0
   11.1676   -7.7956    0.8423 N   0  0  0  0  0  0  0  0  0  0  0  0
   11.2226   -7.6859   -0.5581 C   0  0  0  0  0  0  0  0  0  0  0  0
   10.7887   -6.5668   -1.2692 C   0  0  0  0  0  0  0  0  0  0  0  0
   10.9694   -6.3973   -2.6011 N   0  0  0  0  0  0  0  0  0  0  0  0
   11.5466   -7.4155   -3.2723 C   0  0  0  0  0  0  0  0  0  0  0  0
   11.8939   -8.6403   -2.7022 C   0  0  0  0  0  0  0  0  0  0  0  0
   12.3335   -9.7216   -3.4902 C   0  0  0  0  0  0  0  0  0  0  0  0
   12.6518  -10.9461   -2.9061 C   0  0  0  0  0  0  0  0  0  0  0  0
   12.5941  -11.0884   -1.5308 C   0  0  0  0  0  0  0  0  0  0  0  0
   12.1686  -10.0190   -0.7396 C   0  0  0  0  0  0  0  0  0  0  0  0
   11.7662   -8.7783   -1.3036 C   0  0  0  0  0  0  0  0  0  0  0  0
   11.6416   -8.6296    3.5070 C   0  0  0  0  0  0  0  0  0  0  0  0
   13.0059   -8.5642    3.8219 C   0  0  0  0  0  0  0  0  0  0  0  0
   13.7036   -9.7326    4.1330 C   0  0  0  0  0  0  0  0  0  0  0  0
   15.3534   -9.6418    4.6119 Cl  0  0  0  0  0  0  0  0  0  0  0  0
   13.0696  -10.9729    4.0880 C   0  0  0  0  0  0  0  0  0  0  0  0
   11.7181  -11.0466    3.7535 C   0  0  0  0  0  0  0  0  0  0  0  0
   10.9874   -9.8781    3.4938 C   0  0  0  0  0  0  0  0  0  0  0  0
    9.5119   -9.9766    3.1601 C   0  0  0  0  0  0  0  0  0  0  0  0
    6.0683  -13.6825   -1.9936 C   0  0  0  0  0  0  0  0  0  0  0  0
    5.3067  -14.7545   -2.4715 C   0  0  0  0  0  0  0  0  0  0  0  0
    2.4321  -13.0781   -3.2056 H   0  0  0  0  0  0  0  0  0  0  0  0
    3.7696  -11.1970   -2.3637 H   0  0  0  0  0  0  0  0  0  0  0  0
    6.0640  -10.3156   -1.9483 H   0  0  0  0  0  0  0  0  0  0  0  0
    7.4043  -11.3948   -1.6485 H   0  0  0  0  0  0  0  0  0  0  0  0
    6.4457  -11.9630    0.6249 H   0  0  0  0  0  0  0  0  0  0  0  0
    5.0929  -10.8708    0.3218 H   0  0  0  0  0  0  0  0  0  0  0  0
    7.2554   -9.2305   -0.0084 H   0  0  0  0  0  0  0  0  0  0  0  0
    7.0089   -7.7150    2.7778 H   0  0  0  0  0  0  0  0  0  0  0  0
    8.2152   -8.0338    1.5230 H   0  0  0  0  0  0  0  0  0  0  0  0
    9.6319   -7.7568    4.9943 H   0  0  0  0  0  0  0  0  0  0  0  0
    8.8328   -6.7008    3.8668 H   0  0  0  0  0  0  0  0  0  0  0  0
   11.3124   -6.5353    3.7510 H   0  0  0  0  0  0  0  0  0  0  0  0
   11.6338   -8.6047    1.2289 H   0  0  0  0  0  0  0  0  0  0  0  0
   10.2791   -5.7376   -0.7933 H   0  0  0  0  0  0  0  0  0  0  0  0
   11.7254   -7.2156   -4.3268 H   0  0  0  0  0  0  0  0  0  0  0  0
   12.3950   -9.6257   -4.5730 H   0  0  0  0  0  0  0  0  0  0  0  0
   12.9420  -11.7902   -3.5271 H   0  0  0  0  0  0  0  0  0  0  0  0
   12.8633  -12.0322   -1.0604 H   0  0  0  0  0  0  0  0  0  0  0  0
   12.1357  -10.2027    0.3299 H   0  0  0  0  0  0  0  0  0  0  0  0
   13.5174   -7.6053    3.8680 H   0  0  0  0  0  0  0  0  0  0  0  0
   13.6138  -11.8815    4.3342 H   0  0  0  0  0  0  0  0  0  0  0  0
   11.2271  -12.0183    3.7307 H   0  0  0  0  0  0  0  0  0  0  0  0
    9.0821  -10.8061    3.7354 H   0  0  0  0  0  0  0  0  0  0  0  0
    9.4606  -10.2510    2.0987 H   0  0  0  0  0  0  0  0  0  0  0  0
    7.0846  -13.8660   -1.6500 H   0  0  0  0  0  0  0  0  0  0  0  0
    5.7439  -15.7507   -2.4933 H   0  0  0  0  0  0  0  0  0  0  0  0
  1  2  1  0  0  0  0
  2  3  1  0  0  0  0
  2  4  1  0  0  0  0
  2  5  1  0  0  0  0
  5  6  1  0  0  0  0
  5 40  2  0  0  0  0
  6  7  2  0  0  0  0
  6 41  1  0  0  0  0
  7  8  1  0  0  0  0
  7 42  1  0  0  0  0
  8  9  1  0  0  0  0
  8 39  2  0  0  0  0
  9 10  1  0  0  0  0
  9 43  1  0  0  0  0
  9 44  1  0  0  0  0
 10 11  1  0  0  0  0
 10 45  1  0  0  0  0
 10 46  1  0  0  0  0
 11 12  1  0  0  0  0
 11 47  1  0  0  0  0
 12 13  2  0  0  0  0
 12 14  1  0  0  0  0
 14 15  1  0  0  0  0
 14 48  1  0  0  0  0
 14 49  1  0  0  0  0
 15 16  1  0  0  0  0
 15 38  1  0  0  0  0
 16 17  1  0  0  0  0
 16 50  1  0  0  0  0
 16 51  1  0  0  0  0
 17 31  1  0  0  0  0
 17 18  1  0  0  0  0
 17 52  1  1  0  0  0
 18 19  2  0  0  0  0
 18 20  1  0  0  0  0
 20 21  1  0  0  0  0
 20 53  1  0  0  0  0
 21 22  1  0  0  0  0
 21 30  2  0  0  0  0
 22 23  2  0  0  0  0
 22 54  1  0  0  0  0
 23 24  1  0  0  0  0
 24 25  2  0  0  0  0
 24 55  1  0  0  0  0
 25 26  1  0  0  0  0
 25 30  1  0  0  0  0
 26 27  2  0  0  0  0
 26 56  1  0  0  0  0
 27 28  1  0  0  0  0
 27 57  1  0  0  0  0
 28 29  2  0  0  0  0
 28 58  1  0  0  0  0
 29 30  1  0  0  0  0
 29 59  1  0  0  0  0
 31 32  1  0  0  0  0
 31 37  2  0  0  0  0
 32 33  2  0  0  0  0
 32 60  1  0  0  0  0
 33 34  1  0  0  0  0
 33 35  1  0  0  0  0
 35 36  2  0  0  0  0
 35 61  1  0  0  0  0
 36 37  1  0  0  0  0
 36 62  1  0  0  0  0
 37 38  1  0  0  0  0
 38 63  1  0  0  0  0
 38 64  1  0  0  0  0
 39 40  1  0  0  0  0
 39 65  1  0  0  0  0
 40 66  1  0  0  0  0
M  END
$$$$
