
 OpenBabel07202414143D

 56 60  0  0  1  0  0  0  0  0999 V2000
    6.2853    1.1862   -3.1123 C   0  0  0  0  0  0  0  0  0  0  0  0
    5.9546   -0.0392   -2.4347 N   0  0  0  0  0  0  0  0  0  0  0  0
    4.7272   -0.1938   -1.8318 C   0  0  0  0  0  0  0  0  0  0  0  0
    3.8595    0.6786   -1.8448 O   0  0  0  0  0  0  0  0  0  0  0  0
    4.5616   -1.4640   -0.9942 C   0  0  0  0  0  0  0  0  0  0  0  0
    5.3225   -2.6501   -1.4095 N   0  0  0  0  0  0  0  0  0  0  0  0
    4.6957   -3.7083   -2.2033 C   0  0  0  0  0  0  0  0  0  0  0  0
    4.7140   -5.0453   -1.4290 C   0  0  1  0  0  0  0  0  0  0  0  0
    3.6965   -4.9827   -0.2585 C   0  0  2  0  0  0  0  0  0  0  0  0
    4.2587   -5.0210    1.1654 C   0  0  0  0  0  0  0  0  0  0  0  0
    2.7510   -6.1539   -0.4700 C   0  0  0  0  0  0  0  0  0  0  0  0
    3.2027   -6.8958   -1.6193 N   0  0  0  0  0  0  0  0  0  0  0  0
    2.3616   -7.9407   -2.1496 C   0  0  0  0  0  0  0  0  0  0  0  0
    2.1396   -8.0426   -3.5262 C   0  0  0  0  0  0  0  0  0  0  0  0
    1.1542   -8.7782   -4.0958 N   0  0  0  0  0  0  0  0  0  0  0  0
    0.3694   -9.4899   -3.2630 C   0  0  0  0  0  0  0  0  0  0  0  0
    0.5644   -9.5904   -1.8893 C   0  0  0  0  0  0  0  0  0  0  0  0
   -0.2445  -10.4460   -1.1121 C   0  0  0  0  0  0  0  0  0  0  0  0
   -0.0267  -10.5946    0.2540 C   0  0  0  0  0  0  0  0  0  0  0  0
    1.0214   -9.9136    0.8489 C   0  0  0  0  0  0  0  0  0  0  0  0
    1.8376   -9.0798    0.0753 C   0  0  0  0  0  0  0  0  0  0  0  0
    1.6077   -8.8317   -1.3068 C   0  0  0  0  0  0  0  0  0  0  0  0
    4.1645   -6.1606   -2.3371 C   0  0  0  0  0  0  0  0  0  0  0  0
    4.5818   -6.3878   -3.4580 O   0  0  0  0  0  0  0  0  0  0  0  0
    6.1552   -5.3226   -0.9769 C   0  0  0  0  0  0  0  0  0  0  0  0
    6.5833   -6.6200   -0.6366 C   0  0  0  0  0  0  0  0  0  0  0  0
    7.8358   -6.8246   -0.0519 C   0  0  0  0  0  0  0  0  0  0  0  0
    8.2718   -8.3978    0.4911 Cl  0  0  0  0  0  0  0  0  0  0  0  0
    8.7062   -5.7589    0.1568 C   0  0  0  0  0  0  0  0  0  0  0  0
    8.3193   -4.4714   -0.2084 C   0  0  0  0  0  0  0  0  0  0  0  0
    7.0478   -4.2469   -0.7572 C   0  0  0  0  0  0  0  0  0  0  0  0
    6.5991   -2.8318   -0.9155 C   0  0  0  0  0  0  0  0  0  0  0  0
    7.2902   -1.8967   -0.5272 O   0  0  0  0  0  0  0  0  0  0  0  0
    7.2795    1.0873   -3.5529 H   0  0  0  0  0  0  0  0  0  0  0  0
    6.2725    2.0118   -2.3955 H   0  0  0  0  0  0  0  0  0  0  0  0
    5.5456    1.3772   -3.8948 H   0  0  0  0  0  0  0  0  0  0  0  0
    6.7114   -0.6029   -2.0507 H   0  0  0  0  0  0  0  0  0  0  0  0
    3.4982   -1.7243   -0.9624 H   0  0  0  0  0  0  0  0  0  0  0  0
    4.8673   -1.2048    0.0280 H   0  0  0  0  0  0  0  0  0  0  0  0
    5.2769   -3.7861   -3.1321 H   0  0  0  0  0  0  0  0  0  0  0  0
    3.6808   -3.4093   -2.4899 H   0  0  0  0  0  0  0  0  0  0  0  0
    3.0936   -4.0682   -0.3278 H   0  0  0  0  0  0  0  0  0  0  0  0
    4.7830   -5.9601    1.3744 H   0  0  0  0  0  0  0  0  0  0  0  0
    3.4409   -4.9490    1.8902 H   0  0  0  0  0  0  0  0  0  0  0  0
    4.9382   -4.1861    1.3524 H   0  0  0  0  0  0  0  0  0  0  0  0
    1.7390   -5.7853   -0.6785 H   0  0  0  0  0  0  0  0  0  0  0  0
    2.7169   -6.7632    0.4264 H   0  0  0  0  0  0  0  0  0  0  0  0
    2.7120   -7.4776   -4.2547 H   0  0  0  0  0  0  0  0  0  0  0  0
   -0.4455  -10.0165   -3.7548 H   0  0  0  0  0  0  0  0  0  0  0  0
   -1.0403  -11.0252   -1.5770 H   0  0  0  0  0  0  0  0  0  0  0  0
   -0.6474  -11.2667    0.8409 H   0  0  0  0  0  0  0  0  0  0  0  0
    1.2265  -10.0452    1.9088 H   0  0  0  0  0  0  0  0  0  0  0  0
    2.7103   -8.6713    0.5748 H   0  0  0  0  0  0  0  0  0  0  0  0
    5.9245   -7.4760   -0.7662 H   0  0  0  0  0  0  0  0  0  0  0  0
    9.6696   -5.9158    0.6346 H   0  0  0  0  0  0  0  0  0  0  0  0
    8.9874   -3.6353   -0.0097 H   0  0  0  0  0  0  0  0  0  0  0  0
  1  2  1  0  0  0  0
  1 34  1  0  0  0  0
  1 35  1  0  0  0  0
  1 36  1  0  0  0  0
  2  3  1  0  0  0  0
  2 37  1  0  0  0  0
  3  4  2  0  0  0  0
  3  5  1  0  0  0  0
  5  6  1  0  0  0  0
  5 38  1  0  0  0  0
  5 39  1  0  0  0  0
  6  7  1  0  0  0  0
  6 32  1  0  0  0  0
  7  8  1  0  0  0  0
  7 40  1  0  0  0  0
  7 41  1  0  0  0  0
  8  9  1  0  0  0  0
  8 23  1  6  0  0  0
  8 25  1  0  0  0  0
  9 10  1  0  0  0  0
  9 11  1  0  0  0  0
  9 42  1  6  0  0  0
 10 43  1  0  0  0  0
 10 44  1  0  0  0  0
 10 45  1  0  0  0  0
 11 12  1  0  0  0  0
 11 46  1  0  0  0  0
 11 47  1  0  0  0  0
 12 13  1  0  0  0  0
 12 23  1  0  0  0  0
 13 14  1  0  0  0  0
 13 22  2  0  0  0  0
 14 15  2  0  0  0  0
 14 48  1  0  0  0  0
 15 16  1  0  0  0  0
 16 17  2  0  0  0  0
 16 49  1  0  0  0  0
 17 18  1  0  0  0  0
 17 22  1  0  0  0  0
 18 19  2  0  0  0  0
 18 50  1  0  0  0  0
 19 20  1  0  0  0  0
 19 51  1  0  0  0  0
 20 21  2  0  0  0  0
 20 52  1  0  0  0  0
 21 22  1  0  0  0  0
 21 53  1  0  0  0  0
 23 24  2  0  0  0  0
 25 26  1  0  0  0  0
 25 31  2  0  0  0  0
 26 27  2  0  0  0  0
 26 54  1  0  0  0  0
 27 28  1  0  0  0  0
 27 29  1  0  0  0  0
 29 30  2  0  0  0  0
 29 55  1  0  0  0  0
 30 31  1  0  0  0  0
 30 56  1  0  0  0  0
 31 32  1  0  0  0  0
 32 33  2  0  0  0  0
M  END
$$$$
