
 OpenBabel07202414153D

 43 46  0  0  1  0  0  0  0  0999 V2000
    1.0982    0.7513   -0.0577 C   0  0  0  0  0  0  0  0  0  0  0  0
    2.4033    0.2475    0.2056 O   0  0  0  0  0  0  0  0  0  0  0  0
    2.9444   -0.6508   -0.7770 C   0  0  2  0  0  0  0  0  0  0  0  0
    1.9753   -1.7907   -1.1771 C   0  0  0  0  0  0  0  0  0  0  0  0
    1.7812   -2.7414   -0.0149 C   0  0  0  0  0  0  0  0  0  0  0  0
    2.9942   -3.4156    0.3084 O   0  0  0  0  0  0  0  0  0  0  0  0
    4.1020   -2.6144    0.3757 C   0  0  0  0  0  0  0  0  0  0  0  0
    4.1605   -1.3001   -0.1108 C   0  0  0  0  0  0  0  0  0  0  0  0
    5.3760   -0.6024    0.0426 C   0  0  0  0  0  0  0  0  0  0  0  0
    6.5008   -1.2133    0.6153 C   0  0  0  0  0  0  0  0  0  0  0  0
    6.4249   -2.5294    1.0644 C   0  0  0  0  0  0  0  0  0  0  0  0
    5.2236   -3.2275    0.9456 C   0  0  0  0  0  0  0  0  0  0  0  0
    7.7700   -3.3491    1.7731 Cl  0  0  0  0  0  0  0  0  0  0  0  0
    7.9498   -0.2777    0.7139 Cl  0  0  0  0  0  0  0  0  0  0  0  0
    3.3698    0.0999   -2.0934 C   0  0  0  0  0  0  0  0  0  0  0  0
    3.3463   -0.4832   -3.1763 O   0  0  0  0  0  0  0  0  0  0  0  0
    3.7672    1.4292   -1.9247 N   0  0  0  0  0  0  0  0  0  0  0  0
    4.1753    2.2923   -2.9952 C   0  0  0  0  0  0  0  0  0  0  0  0
    4.5264    1.7779   -4.2472 C   0  0  0  0  0  0  0  0  0  0  0  0
    4.7243    2.5076   -5.3663 N   0  0  0  0  0  0  0  0  0  0  0  0
    4.5740    3.8359   -5.2407 C   0  0  0  0  0  0  0  0  0  0  0  0
    4.3432    4.4889   -4.0342 C   0  0  0  0  0  0  0  0  0  0  0  0
    4.1927    3.7128   -2.8550 C   0  0  0  0  0  0  0  0  0  0  0  0
    4.0804    4.4372   -1.6381 C   0  0  0  0  0  0  0  0  0  0  0  0
    4.0756    5.8408   -1.6127 C   0  0  0  0  0  0  0  0  0  0  0  0
    4.1427    6.5654   -2.7959 C   0  0  0  0  0  0  0  0  0  0  0  0
    4.2749    5.8909   -4.0036 C   0  0  0  0  0  0  0  0  0  0  0  0
    0.8806    1.5243    0.6846 H   0  0  0  0  0  0  0  0  0  0  0  0
    0.3427   -0.0311    0.0555 H   0  0  0  0  0  0  0  0  0  0  0  0
    1.0367    1.2000   -1.0526 H   0  0  0  0  0  0  0  0  0  0  0  0
    2.3913   -2.3691   -2.0139 H   0  0  0  0  0  0  0  0  0  0  0  0
    1.0083   -1.4068   -1.5169 H   0  0  0  0  0  0  0  0  0  0  0  0
    1.0559   -3.5139   -0.2961 H   0  0  0  0  0  0  0  0  0  0  0  0
    1.3906   -2.2439    0.8795 H   0  0  0  0  0  0  0  0  0  0  0  0
    5.4671    0.4265   -0.2843 H   0  0  0  0  0  0  0  0  0  0  0  0
    5.1493   -4.2548    1.2955 H   0  0  0  0  0  0  0  0  0  0  0  0
    3.5466    1.8504   -1.0311 H   0  0  0  0  0  0  0  0  0  0  0  0
    4.6892    0.7165   -4.4119 H   0  0  0  0  0  0  0  0  0  0  0  0
    4.6791    4.3837   -6.1739 H   0  0  0  0  0  0  0  0  0  0  0  0
    4.0459    3.9207   -0.6834 H   0  0  0  0  0  0  0  0  0  0  0  0
    4.0285    6.3723   -0.6643 H   0  0  0  0  0  0  0  0  0  0  0  0
    4.1167    7.6524   -2.7824 H   0  0  0  0  0  0  0  0  0  0  0  0
    4.3421    6.4681   -4.9234 H   0  0  0  0  0  0  0  0  0  0  0  0
  1  2  1  0  0  0  0
  1 28  1  0  0  0  0
  1 29  1  0  0  0  0
  1 30  1  0  0  0  0
  3  2  1  1  0  0  0
  3  4  1  0  0  0  0
  3  8  1  0  0  0  0
  3 15  1  0  0  0  0
  4  5  1  0  0  0  0
  4 31  1  0  0  0  0
  4 32  1  0  0  0  0
  5  6  1  0  0  0  0
  5 33  1  0  0  0  0
  5 34  1  0  0  0  0
  6  7  1  0  0  0  0
  7  8  1  0  0  0  0
  7 12  2  0  0  0  0
  8  9  2  0  0  0  0
  9 10  1  0  0  0  0
  9 35  1  0  0  0  0
 10 11  2  0  0  0  0
 10 14  1  0  0  0  0
 11 12  1  0  0  0  0
 11 13  1  0  0  0  0
 12 36  1  0  0  0  0
 15 16  2  0  0  0  0
 15 17  1  0  0  0  0
 17 18  1  0  0  0  0
 17 37  1  0  0  0  0
 18 19  1  0  0  0  0
 18 23  2  0  0  0  0
 19 20  2  0  0  0  0
 19 38  1  0  0  0  0
 20 21  1  0  0  0  0
 21 22  2  0  0  0  0
 21 39  1  0  0  0  0
 22 23  1  0  0  0  0
 22 27  1  0  0  0  0
 23 24  1  0  0  0  0
 24 25  2  0  0  0  0
 24 40  1  0  0  0  0
 25 26  1  0  0  0  0
 25 41  1  0  0  0  0
 26 27  2  0  0  0  0
 26 42  1  0  0  0  0
 27 43  1  0  0  0  0
M  END
$$$$
