
 OpenBabel07202414203D

 47 50  0  0  0  0  0  0  0  0999 V2000
   -5.0248    2.1367    3.9652 C   0  0  0  0  0  0  0  0  0  0  0  0
   -5.0897    2.8770    2.7826 C   0  0  0  0  0  0  0  0  0  0  0  0
   -4.5060    2.3846    1.6137 C   0  0  0  0  0  0  0  0  0  0  0  0
   -3.8573    1.1478    1.6354 C   0  0  0  0  0  0  0  0  0  0  0  0
   -3.7693    0.4146    2.8258 C   0  0  0  0  0  0  0  0  0  0  0  0
   -4.3644    0.9089    3.9880 C   0  0  0  0  0  0  0  0  0  0  0  0
   -3.1178    0.5162    0.1547 S   0  0  0  0  0  0  0  0  0  0  0  0
   -3.4162    1.3929   -0.9565 O   0  0  0  0  0  0  0  0  0  0  0  0
   -1.7527    0.1148    0.4455 O   0  0  0  0  0  0  0  0  0  0  0  0
   -3.9339   -0.9638   -0.2027 C   0  0  0  0  0  0  0  0  0  0  0  0
   -4.6101   -1.3219   -1.3630 C   0  0  0  0  0  0  0  0  0  0  0  0
   -5.0774   -2.6095   -1.1067 O   0  0  0  0  0  0  0  0  0  0  0  0
   -4.6853   -2.9218    0.1593 C   0  0  0  0  0  0  0  0  0  0  0  0
   -3.9732   -1.9882    0.7391 N   0  0  0  0  0  0  0  0  0  0  0  0
   -5.1359   -4.2063    0.6916 C   0  0  0  0  0  0  0  0  0  0  0  0
   -5.9443   -5.0679   -0.0669 C   0  0  0  0  0  0  0  0  0  0  0  0
   -6.3866   -6.2834    0.4645 C   0  0  0  0  0  0  0  0  0  0  0  0
   -6.0211   -6.6411    1.7555 C   0  0  0  0  0  0  0  0  0  0  0  0
   -5.2235   -5.8063    2.5278 C   0  0  0  0  0  0  0  0  0  0  0  0
   -4.7808   -4.5917    1.9985 C   0  0  0  0  0  0  0  0  0  0  0  0
   -6.4476   -7.8039    2.2627 F   0  0  0  0  0  0  0  0  0  0  0  0
   -5.0291   -0.5133   -2.9013 S   0  0  0  0  0  0  0  0  0  0  0  0
   -5.7340   -1.5502   -3.6357 O   0  0  0  0  0  0  0  0  0  0  0  0
   -5.7120    0.6971   -2.4933 O   0  0  0  0  0  0  0  0  0  0  0  0
   -3.4849   -0.1572   -3.7122 C   0  0  0  0  0  0  0  0  0  0  0  0
   -3.7212    0.3529   -5.1134 C   0  0  0  0  0  0  0  0  0  0  0  0
   -3.8568    1.7236   -5.3825 C   0  0  0  0  0  0  0  0  0  0  0  0
   -3.9626    2.1819   -6.7020 C   0  0  0  0  0  0  0  0  0  0  0  0
   -3.9497    1.2793   -7.7657 C   0  0  0  0  0  0  0  0  0  0  0  0
   -3.8508   -0.0859   -7.5089 C   0  0  0  0  0  0  0  0  0  0  0  0
   -3.7423   -0.5351   -6.1939 C   0  0  0  0  0  0  0  0  0  0  0  0
   -3.6103   -1.8504   -5.9720 F   0  0  0  0  0  0  0  0  0  0  0  0
   -5.4868    2.5225    4.8719 H   0  0  0  0  0  0  0  0  0  0  0  0
   -5.5969    3.8388    2.7741 H   0  0  0  0  0  0  0  0  0  0  0  0
   -4.5625    2.9736    0.7003 H   0  0  0  0  0  0  0  0  0  0  0  0
   -3.2450   -0.5383    2.8604 H   0  0  0  0  0  0  0  0  0  0  0  0
   -4.3114    0.3396    4.9138 H   0  0  0  0  0  0  0  0  0  0  0  0
   -6.2465   -4.7990   -1.0774 H   0  0  0  0  0  0  0  0  0  0  0  0
   -7.0146   -6.9457   -0.1221 H   0  0  0  0  0  0  0  0  0  0  0  0
   -4.9542   -6.1053    3.5366 H   0  0  0  0  0  0  0  0  0  0  0  0
   -4.1601   -3.9410    2.6129 H   0  0  0  0  0  0  0  0  0  0  0  0
   -2.8960   -1.0791   -3.7350 H   0  0  0  0  0  0  0  0  0  0  0  0
   -2.9336    0.5860   -3.1396 H   0  0  0  0  0  0  0  0  0  0  0  0
   -3.8594    2.4515   -4.5722 H   0  0  0  0  0  0  0  0  0  0  0  0
   -4.0424    3.2487   -6.9027 H   0  0  0  0  0  0  0  0  0  0  0  0
   -4.0128    1.6395   -8.7901 H   0  0  0  0  0  0  0  0  0  0  0  0
   -3.8401   -0.8018   -8.3252 H   0  0  0  0  0  0  0  0  0  0  0  0
  1  2  1  0  0  0  0
  1  6  2  0  0  0  0
  1 33  1  0  0  0  0
  2  3  2  0  0  0  0
  2 34  1  0  0  0  0
  3  4  1  0  0  0  0
  3 35  1  0  0  0  0
  4  5  2  0  0  0  0
  4  7  1  0  0  0  0
  5  6  1  0  0  0  0
  5 36  1  0  0  0  0
  6 37  1  0  0  0  0
  7  8  2  0  0  0  0
  7  9  2  0  0  0  0
  7 10  1  0  0  0  0
 10 11  2  0  0  0  0
 10 14  1  0  0  0  0
 11 12  1  0  0  0  0
 11 22  1  0  0  0  0
 12 13  1  0  0  0  0
 13 14  2  0  0  0  0
 13 15  1  0  0  0  0
 15 16  1  0  0  0  0
 15 20  2  0  0  0  0
 16 17  2  0  0  0  0
 16 38  1  0  0  0  0
 17 18  1  0  0  0  0
 17 39  1  0  0  0  0
 18 19  2  0  0  0  0
 18 21  1  0  0  0  0
 19 20  1  0  0  0  0
 19 40  1  0  0  0  0
 20 41  1  0  0  0  0
 22 23  2  0  0  0  0
 22 24  2  0  0  0  0
 22 25  1  0  0  0  0
 25 26  1  0  0  0  0
 25 42  1  0  0  0  0
 25 43  1  0  0  0  0
 26 27  1  0  0  0  0
 26 31  2  0  0  0  0
 27 28  2  0  0  0  0
 27 44  1  0  0  0  0
 28 29  1  0  0  0  0
 28 45  1  0  0  0  0
 29 30  2  0  0  0  0
 29 46  1  0  0  0  0
 30 31  1  0  0  0  0
 30 47  1  0  0  0  0
 31 32  1  0  0  0  0
M  END
$$$$
