
 OpenBabel07202414123D

 55 58  0  0  1  0  0  0  0  0999 V2000
    0.9761   -0.0882   -0.0784 C   0  0  0  0  0  0  0  0  0  0  0  0
    2.5186   -0.1555   -0.1014 C   0  0  3  0  0  0  0  0  0  0  0  0
    3.1329    0.6965    0.9463 N   0  0  0  0  0  0  0  0  0  0  0  0
    2.8574    0.6112    2.2941 C   0  0  0  0  0  0  0  0  0  0  0  0
    2.1926   -0.2993    2.7750 O   0  0  0  0  0  0  0  0  0  0  0  0
    3.4243    1.7290    3.1834 C   0  0  3  0  0  0  0  0  0  0  0  0
    2.3876    2.8053    3.5025 C   0  0  0  0  0  0  0  0  0  0  0  0
    1.9520    3.5583    2.2524 C   0  0  0  0  0  0  0  0  0  0  0  0
    3.0785    3.8950    1.2941 C   0  0  0  0  0  0  0  0  0  0  0  0
    2.9049    4.6065    0.3088 O   0  0  0  0  0  0  0  0  0  0  0  0
    4.2782    3.2528    1.4547 N   0  0  0  0  0  0  0  0  0  0  0  0
    4.6405    2.4279    2.5939 C   0  0  0  0  0  0  0  0  0  0  0  0
    2.9209   -1.6573    0.1149 C   0  0  0  0  0  0  0  0  0  0  0  0
    2.2223   -2.5788   -0.3000 O   0  0  0  0  0  0  0  0  0  0  0  0
    4.1854   -1.8308    0.6734 N   0  0  0  0  0  0  0  0  0  0  0  0
    4.6960   -3.0999    1.0465 C   0  0  0  0  0  0  0  0  0  0  0  0
    4.4412   -4.2390    0.2829 C   0  0  0  0  0  0  0  0  0  0  0  0
    4.8731   -5.4814    0.5783 N   0  0  0  0  0  0  0  0  0  0  0  0
    5.5890   -5.6028    1.7143 C   0  0  0  0  0  0  0  0  0  0  0  0
    5.9161   -4.5456    2.5663 C   0  0  0  0  0  0  0  0  0  0  0  0
    6.6450   -4.7661    3.7490 C   0  0  0  0  0  0  0  0  0  0  0  0
    6.9391   -3.7127    4.6097 C   0  0  0  0  0  0  0  0  0  0  0  0
    6.5159   -2.4264    4.2961 C   0  0  0  0  0  0  0  0  0  0  0  0
    5.7918   -2.1950    3.1171 C   0  0  0  0  0  0  0  0  0  0  0  0
    5.4727   -3.2455    2.2256 C   0  0  0  0  0  0  0  0  0  0  0  0
    3.0185    0.3772   -1.4760 C   0  0  0  0  0  0  0  0  0  0  0  0
    2.6495    1.6697   -1.9074 C   0  0  0  0  0  0  0  0  0  0  0  0
    3.0795    2.1822   -3.1364 C   0  0  0  0  0  0  0  0  0  0  0  0
    3.9019    1.4225   -3.9661 C   0  0  0  0  0  0  0  0  0  0  0  0
    4.4005    2.1188   -5.4655 Cl  0  0  0  0  0  0  0  0  0  0  0  0
    4.2941    0.1458   -3.5597 C   0  0  0  0  0  0  0  0  0  0  0  0
    5.3276   -0.8504   -4.5235 Cl  0  0  0  0  0  0  0  0  0  0  0  0
    3.8557   -0.3690   -2.3282 C   0  0  0  0  0  0  0  0  0  0  0  0
    0.5674   -0.4534    0.8691 H   0  0  0  0  0  0  0  0  0  0  0  0
    0.5453   -0.7136   -0.8709 H   0  0  0  0  0  0  0  0  0  0  0  0
    0.5934    0.9274   -0.2199 H   0  0  0  0  0  0  0  0  0  0  0  0
    3.5229    1.5712    0.6119 H   0  0  0  0  0  0  0  0  0  0  0  0
    3.7363    1.2408    4.1164 H   0  0  0  0  0  0  0  0  0  0  0  0
    2.8290    3.5224    4.2092 H   0  0  0  0  0  0  0  0  0  0  0  0
    1.5130    2.3751    4.0029 H   0  0  0  0  0  0  0  0  0  0  0  0
    1.4608    4.4934    2.5424 H   0  0  0  0  0  0  0  0  0  0  0  0
    1.2216    2.9535    1.7020 H   0  0  0  0  0  0  0  0  0  0  0  0
    5.0038    3.5677    0.8170 H   0  0  0  0  0  0  0  0  0  0  0  0
    5.1137    3.0842    3.3333 H   0  0  0  0  0  0  0  0  0  0  0  0
    5.3924    1.7060    2.2558 H   0  0  0  0  0  0  0  0  0  0  0  0
    4.5753   -1.0094    1.1115 H   0  0  0  0  0  0  0  0  0  0  0  0
    3.8730   -4.1894   -0.6447 H   0  0  0  0  0  0  0  0  0  0  0  0
    5.8839   -6.6256    1.9439 H   0  0  0  0  0  0  0  0  0  0  0  0
    6.9639   -5.7707    4.0199 H   0  0  0  0  0  0  0  0  0  0  0  0
    7.4838   -3.8981    5.5319 H   0  0  0  0  0  0  0  0  0  0  0  0
    6.7263   -1.6062    4.9761 H   0  0  0  0  0  0  0  0  0  0  0  0
    5.4614   -1.1797    2.9381 H   0  0  0  0  0  0  0  0  0  0  0  0
    2.0128    2.3068   -1.2934 H   0  0  0  0  0  0  0  0  0  0  0  0
    2.7653    3.1799   -3.4376 H   0  0  0  0  0  0  0  0  0  0  0  0
    4.1786   -1.3737   -2.0617 H   0  0  0  0  0  0  0  0  0  0  0  0
  1  2  1  0  0  0  0
  1 34  1  0  0  0  0
  1 35  1  0  0  0  0
  1 36  1  0  0  0  0
  2  3  1  0  0  0  0
  2 13  1  0  0  0  0
  2 26  1  0  0  0  0
  3  4  1  0  0  0  0
  3 37  1  0  0  0  0
  4  5  2  0  0  0  0
  4  6  1  0  0  0  0
  6  7  1  0  0  0  0
  6 12  1  0  0  0  0
  6 38  1  0  0  0  0
  7  8  1  0  0  0  0
  7 39  1  0  0  0  0
  7 40  1  0  0  0  0
  8  9  1  0  0  0  0
  8 41  1  0  0  0  0
  8 42  1  0  0  0  0
  9 10  2  0  0  0  0
  9 11  1  0  0  0  0
 11 12  1  0  0  0  0
 11 43  1  0  0  0  0
 12 44  1  0  0  0  0
 12 45  1  0  0  0  0
 13 14  2  0  0  0  0
 13 15  1  0  0  0  0
 15 16  1  0  0  0  0
 15 46  1  0  0  0  0
 16 17  1  0  0  0  0
 16 25  2  0  0  0  0
 17 18  2  0  0  0  0
 17 47  1  0  0  0  0
 18 19  1  0  0  0  0
 19 20  2  0  0  0  0
 19 48  1  0  0  0  0
 20 21  1  0  0  0  0
 20 25  1  0  0  0  0
 21 22  2  0  0  0  0
 21 49  1  0  0  0  0
 22 23  1  0  0  0  0
 22 50  1  0  0  0  0
 23 24  2  0  0  0  0
 23 51  1  0  0  0  0
 24 25  1  0  0  0  0
 24 52  1  0  0  0  0
 26 27  1  0  0  0  0
 26 33  2  0  0  0  0
 27 28  2  0  0  0  0
 27 53  1  0  0  0  0
 28 29  1  0  0  0  0
 28 54  1  0  0  0  0
 29 30  1  0  0  0  0
 29 31  2  0  0  0  0
 31 32  1  0  0  0  0
 31 33  1  0  0  0  0
 33 55  1  0  0  0  0
M  END
$$$$
