
 OpenBabel07202414123D

 61 64  0  0  0  0  0  0  0  0999 V2000
    1.0894    0.9763    1.7275 C   0  0  0  0  0  0  0  0  0  0  0  0
    2.3430    0.8065    0.8412 C   0  0  0  0  0  0  0  0  0  0  0  0
    1.9178    0.8235   -0.6456 C   0  0  0  0  0  0  0  0  0  0  0  0
    3.1211    2.1147    1.0863 C   0  0  0  0  0  0  0  0  0  0  0  0
    3.0450   -0.5089    1.1673 N   0  0  0  0  0  0  0  0  0  0  0  0
    2.2183   -1.7504    0.9440 C   0  0  0  0  0  0  0  0  0  0  0  0
    1.6965   -2.4399    2.1999 C   0  0  0  0  0  0  0  0  0  0  0  0
    1.7028   -1.8296    3.4603 C   0  0  0  0  0  0  0  0  0  0  0  0
    1.1911   -2.4830    4.5832 C   0  0  0  0  0  0  0  0  0  0  0  0
    0.6737   -3.7692    4.4679 C   0  0  0  0  0  0  0  0  0  0  0  0
    0.6503   -4.3953    3.2245 C   0  0  0  0  0  0  0  0  0  0  0  0
    1.1476   -3.7327    2.0970 C   0  0  0  0  0  0  0  0  0  0  0  0
    4.4105   -0.7270    1.4257 C   0  0  0  0  0  0  0  0  0  0  0  0
    5.3832    0.2640    1.3324 C   0  0  0  0  0  0  0  0  0  0  0  0
    6.7363    0.1392    1.7355 C   0  0  0  0  0  0  0  0  0  0  0  0
    7.6201    1.3690    1.6771 C   0  0  0  0  0  0  0  0  0  0  0  0
    7.2291    2.5665    2.5601 C   0  0  0  0  0  0  0  0  0  0  0  0
    7.6941    3.6792    2.3132 O   0  0  0  0  0  0  0  0  0  0  0  0
    6.4330    2.2940    3.6570 N   0  0  0  0  0  0  0  0  0  0  0  0
    6.1137    3.2542    4.6607 C   0  0  0  0  0  0  0  0  0  0  0  0
    6.3955    2.8949    5.9810 C   0  0  0  0  0  0  0  0  0  0  0  0
    6.1423    3.6563    7.0660 N   0  0  0  0  0  0  0  0  0  0  0  0
    5.4574    4.7935    6.8381 C   0  0  0  0  0  0  0  0  0  0  0  0
    4.9828    5.1929    5.5897 C   0  0  0  0  0  0  0  0  0  0  0  0
    4.0716    6.2596    5.4874 C   0  0  0  0  0  0  0  0  0  0  0  0
    3.5943    6.6665    4.2466 C   0  0  0  0  0  0  0  0  0  0  0  0
    4.0860    6.0618    3.0967 C   0  0  0  0  0  0  0  0  0  0  0  0
    4.9673    4.9753    3.1918 C   0  0  0  0  0  0  0  0  0  0  0  0
    5.3930    4.4645    4.4438 C   0  0  0  0  0  0  0  0  0  0  0  0
    7.1988   -1.1153    2.1080 C   0  0  0  0  0  0  0  0  0  0  0  0
    6.3051   -2.1762    2.1142 C   0  0  0  0  0  0  0  0  0  0  0  0
    6.8774   -3.7572    2.4990 Cl  0  0  0  0  0  0  0  0  0  0  0  0
    4.9425   -1.9785    1.8092 C   0  0  0  0  0  0  0  0  0  0  0  0
    0.5271    1.8731    1.4369 H   0  0  0  0  0  0  0  0  0  0  0  0
    1.3760    1.1130    2.7771 H   0  0  0  0  0  0  0  0  0  0  0  0
    0.3947    0.1370    1.6642 H   0  0  0  0  0  0  0  0  0  0  0  0
    1.5537    1.8168   -0.9364 H   0  0  0  0  0  0  0  0  0  0  0  0
    1.1009    0.1279   -0.8580 H   0  0  0  0  0  0  0  0  0  0  0  0
    2.7571    0.5685   -1.3012 H   0  0  0  0  0  0  0  0  0  0  0  0
    2.4552    2.9862    1.0884 H   0  0  0  0  0  0  0  0  0  0  0  0
    3.8223    2.3335    0.2733 H   0  0  0  0  0  0  0  0  0  0  0  0
    3.6261    2.1189    2.0578 H   0  0  0  0  0  0  0  0  0  0  0  0
    2.7851   -2.4732    0.3392 H   0  0  0  0  0  0  0  0  0  0  0  0
    1.3372   -1.5298    0.3324 H   0  0  0  0  0  0  0  0  0  0  0  0
    2.1166   -0.8338    3.5839 H   0  0  0  0  0  0  0  0  0  0  0  0
    1.2033   -1.9834    5.5482 H   0  0  0  0  0  0  0  0  0  0  0  0
    0.2917   -4.2819    5.3467 H   0  0  0  0  0  0  0  0  0  0  0  0
    0.2436   -5.3996    3.1341 H   0  0  0  0  0  0  0  0  0  0  0  0
    1.1057   -4.2400    1.1348 H   0  0  0  0  0  0  0  0  0  0  0  0
    5.1796    1.2166    0.8918 H   0  0  0  0  0  0  0  0  0  0  0  0
    7.6016    1.7293    0.6397 H   0  0  0  0  0  0  0  0  0  0  0  0
    8.6569    1.1052    1.9112 H   0  0  0  0  0  0  0  0  0  0  0  0
    6.4724    1.3317    3.9753 H   0  0  0  0  0  0  0  0  0  0  0  0
    6.8725    1.9476    6.2138 H   0  0  0  0  0  0  0  0  0  0  0  0
    5.2800    5.3959    7.7263 H   0  0  0  0  0  0  0  0  0  0  0  0
    3.6860    6.7442    6.3835 H   0  0  0  0  0  0  0  0  0  0  0  0
    2.8484    7.4547    4.1800 H   0  0  0  0  0  0  0  0  0  0  0  0
    3.7690    6.4207    2.1207 H   0  0  0  0  0  0  0  0  0  0  0  0
    5.3152    4.5231    2.2675 H   0  0  0  0  0  0  0  0  0  0  0  0
    8.2477   -1.2753    2.3643 H   0  0  0  0  0  0  0  0  0  0  0  0
    4.3113   -2.8602    1.8940 H   0  0  0  0  0  0  0  0  0  0  0  0
  1  2  1  0  0  0  0
  1 34  1  0  0  0  0
  1 35  1  0  0  0  0
  1 36  1  0  0  0  0
  2  3  1  0  0  0  0
  2  4  1  0  0  0  0
  2  5  1  0  0  0  0
  3 37  1  0  0  0  0
  3 38  1  0  0  0  0
  3 39  1  0  0  0  0
  4 40  1  0  0  0  0
  4 41  1  0  0  0  0
  4 42  1  0  0  0  0
  5  6  1  0  0  0  0
  5 13  1  0  0  0  0
  6  7  1  0  0  0  0
  6 43  1  0  0  0  0
  6 44  1  0  0  0  0
  7  8  2  0  0  0  0
  7 12  1  0  0  0  0
  8  9  1  0  0  0  0
  8 45  1  0  0  0  0
  9 10  2  0  0  0  0
  9 46  1  0  0  0  0
 10 11  1  0  0  0  0
 10 47  1  0  0  0  0
 11 12  2  0  0  0  0
 11 48  1  0  0  0  0
 12 49  1  0  0  0  0
 13 14  2  0  0  0  0
 13 33  1  0  0  0  0
 14 15  1  0  0  0  0
 14 50  1  0  0  0  0
 15 16  1  0  0  0  0
 15 30  2  0  0  0  0
 16 17  1  0  0  0  0
 16 51  1  0  0  0  0
 16 52  1  0  0  0  0
 17 18  2  0  0  0  0
 17 19  1  0  0  0  0
 19 20  1  0  0  0  0
 19 53  1  0  0  0  0
 20 21  2  0  0  0  0
 20 29  1  0  0  0  0
 21 22  1  0  0  0  0
 21 54  1  0  0  0  0
 22 23  2  0  0  0  0
 23 24  1  0  0  0  0
 23 55  1  0  0  0  0
 24 25  2  0  0  0  0
 24 29  1  0  0  0  0
 25 26  1  0  0  0  0
 25 56  1  0  0  0  0
 26 27  2  0  0  0  0
 26 57  1  0  0  0  0
 27 28  1  0  0  0  0
 27 58  1  0  0  0  0
 28 29  2  0  0  0  0
 28 59  1  0  0  0  0
 30 31  1  0  0  0  0
 30 60  1  0  0  0  0
 31 32  1  0  0  0  0
 31 33  2  0  0  0  0
 33 61  1  0  0  0  0
M  END
$$$$
