
 OpenBabel07202414173D

 53 57  0  0  1  0  0  0  0  0999 V2000
    0.8912    0.0581   -0.1350 Cl  0  0  0  0  0  0  0  0  0  0  0  0
    2.6105    0.0158   -0.0048 C   0  0  0  0  0  0  0  0  0  0  0  0
    3.3335    1.1903   -0.1380 C   0  0  0  0  0  0  0  0  0  0  0  0
    4.7230    1.1513   -0.0705 C   0  0  0  0  0  0  0  0  0  0  0  0
    5.3942   -0.0641    0.1435 C   0  0  0  0  0  0  0  0  0  0  0  0
    4.6589   -1.2520    0.3118 C   0  0  0  0  0  0  0  0  0  0  0  0
    3.2586   -1.2016    0.2269 C   0  0  0  0  0  0  0  0  0  0  0  0
    5.3788   -2.5726    0.5574 C   0  0  3  0  0  0  0  0  0  0  0  0
    5.2589   -3.0426    2.0287 C   0  0  0  0  0  0  0  0  0  0  0  0
    4.1493   -3.2505    2.5183 O   0  0  0  0  0  0  0  0  0  0  0  0
    6.4505   -3.2243    2.7026 N   0  0  0  0  0  0  0  0  0  0  0  0
    6.6475   -3.5944    4.0607 C   0  0  0  0  0  0  0  0  0  0  0  0
    5.6070   -3.7926    4.9648 C   0  0  0  0  0  0  0  0  0  0  0  0
    5.7728   -3.8447    6.3083 N   0  0  0  0  0  0  0  0  0  0  0  0
    7.0414   -3.7954    6.7654 C   0  0  0  0  0  0  0  0  0  0  0  0
    8.1714   -3.8209    5.9521 C   0  0  0  0  0  0  0  0  0  0  0  0
    9.4650   -3.9789    6.4879 C   0  0  0  0  0  0  0  0  0  0  0  0
   10.5834   -4.0032    5.6574 C   0  0  0  0  0  0  0  0  0  0  0  0
   10.4230   -3.8453    4.2896 C   0  0  0  0  0  0  0  0  0  0  0  0
    9.1410   -3.7069    3.7516 C   0  0  0  0  0  0  0  0  0  0  0  0
    7.9782   -3.6962    4.5599 C   0  0  0  0  0  0  0  0  0  0  0  0
    6.8036   -2.5178   -0.0263 C   0  0  0  0  0  0  0  0  0  0  0  0
    7.5543   -1.3309    0.5113 N   0  0  0  0  0  0  0  0  0  0  0  0
    9.2132   -1.3518    0.1050 S   0  0  0  0  0  0  0  0  0  0  0  0
    9.7610   -2.5659    0.6617 O   0  0  0  0  0  0  0  0  0  0  0  0
    9.3280   -1.0450   -1.2994 O   0  0  0  0  0  0  0  0  0  0  0  0
    9.7855   -0.0754    0.9796 N   0  0  0  0  0  0  0  0  0  0  0  0
    9.6665    0.2588    2.4123 C   0  0  0  0  0  0  0  0  0  0  0  0
   10.0577    1.7243    2.1177 C   0  0  3  0  0  0  0  0  0  0  0  0
   11.3606    2.1167    2.5815 C   0  0  0  0  0  0  0  0  0  0  0  0
   12.4115    2.4634    2.9513 N   0  0  0  0  0  0  0  0  0  0  0  0
    9.9812    1.3430    0.6193 C   0  0  0  0  0  0  0  0  0  0  0  0
    6.8983   -0.0637    0.0901 C   0  0  0  0  0  0  0  0  0  0  0  0
    2.8303    2.1360   -0.3086 H   0  0  0  0  0  0  0  0  0  0  0  0
    5.2862    2.0742   -0.2073 H   0  0  0  0  0  0  0  0  0  0  0  0
    2.6719   -2.1126    0.3364 H   0  0  0  0  0  0  0  0  0  0  0  0
    4.8559   -3.3496   -0.0207 H   0  0  0  0  0  0  0  0  0  0  0  0
    7.2824   -2.8744    2.2447 H   0  0  0  0  0  0  0  0  0  0  0  0
    4.5717   -3.8912    4.6557 H   0  0  0  0  0  0  0  0  0  0  0  0
    7.1281   -3.7335    7.8474 H   0  0  0  0  0  0  0  0  0  0  0  0
    9.6034   -4.1259    7.5572 H   0  0  0  0  0  0  0  0  0  0  0  0
   11.5748   -4.1614    6.0740 H   0  0  0  0  0  0  0  0  0  0  0  0
   11.2857   -3.8550    3.6267 H   0  0  0  0  0  0  0  0  0  0  0  0
    9.0718   -3.6631    2.6709 H   0  0  0  0  0  0  0  0  0  0  0  0
    6.7559   -2.4445   -1.1213 H   0  0  0  0  0  0  0  0  0  0  0  0
    7.3366   -3.4450    0.2138 H   0  0  0  0  0  0  0  0  0  0  0  0
   10.3537   -0.3151    3.0411 H   0  0  0  0  0  0  0  0  0  0  0  0
    8.6484    0.1423    2.7925 H   0  0  0  0  0  0  0  0  0  0  0  0
    9.2793    2.4395    2.4057 H   0  0  0  0  0  0  0  0  0  0  0  0
   10.8794    1.5109    0.0181 H   0  0  0  0  0  0  0  0  0  0  0  0
    9.1258    1.7799    0.0924 H   0  0  0  0  0  0  0  0  0  0  0  0
    7.1839    0.1886   -0.9379 H   0  0  0  0  0  0  0  0  0  0  0  0
    7.2326    0.7311    0.7632 H   0  0  0  0  0  0  0  0  0  0  0  0
  1  2  1  0  0  0  0
  2  3  1  0  0  0  0
  2  7  2  0  0  0  0
  3  4  2  0  0  0  0
  3 34  1  0  0  0  0
  4  5  1  0  0  0  0
  4 35  1  0  0  0  0
  5  6  2  0  0  0  0
  5 33  1  0  0  0  0
  6  7  1  0  0  0  0
  6  8  1  0  0  0  0
  7 36  1  0  0  0  0
  8  9  1  0  0  0  0
  8 22  1  0  0  0  0
  8 37  1  0  0  0  0
  9 10  2  0  0  0  0
  9 11  1  0  0  0  0
 11 12  1  0  0  0  0
 11 38  1  0  0  0  0
 12 13  1  0  0  0  0
 12 21  2  0  0  0  0
 13 14  2  0  0  0  0
 13 39  1  0  0  0  0
 14 15  1  0  0  0  0
 15 16  2  0  0  0  0
 15 40  1  0  0  0  0
 16 17  1  0  0  0  0
 16 21  1  0  0  0  0
 17 18  2  0  0  0  0
 17 41  1  0  0  0  0
 18 19  1  0  0  0  0
 18 42  1  0  0  0  0
 19 20  2  0  0  0  0
 19 43  1  0  0  0  0
 20 21  1  0  0  0  0
 20 44  1  0  0  0  0
 22 23  1  0  0  0  0
 22 45  1  0  0  0  0
 22 46  1  0  0  0  0
 23 24  1  0  0  0  0
 23 33  1  0  0  0  0
 24 25  2  0  0  0  0
 24 26  2  0  0  0  0
 24 27  1  0  0  0  0
 27 28  1  0  0  0  0
 27 32  1  0  0  0  0
 28 29  1  0  0  0  0
 28 47  1  0  0  0  0
 28 48  1  0  0  0  0
 29 30  1  0  0  0  0
 29 32  1  0  0  0  0
 29 49  1  0  0  0  0
 30 31  3  0  0  0  0
 32 50  1  0  0  0  0
 32 51  1  0  0  0  0
 33 52  1  0  0  0  0
 33 53  1  0  0  0  0
M  END
$$$$
