
 OpenBabel07202414183D

 48 51  0  0  0  0  0  0  0  0999 V2000
   -0.2933   -9.7729   -1.2018 F   0  0  0  0  0  0  0  0  0  0  0  0
   -0.5804   -8.4726   -0.9147 C   0  0  0  0  0  0  0  0  0  0  0  0
   -1.6262   -8.1369   -1.7188 F   0  0  0  0  0  0  0  0  0  0  0  0
   -1.0680   -8.4706    0.3551 F   0  0  0  0  0  0  0  0  0  0  0  0
    0.5886   -7.5530   -1.0820 C   0  0  0  0  0  0  0  0  0  0  0  0
    1.8149   -8.0471   -1.4872 C   0  0  0  0  0  0  0  0  0  0  0  0
    2.9081   -7.2764   -1.6959 N   0  0  0  0  0  0  0  0  0  0  0  0
    2.8126   -5.9478   -1.4791 C   0  0  0  0  0  0  0  0  0  0  0  0
    3.9032   -5.1030   -1.7579 N   0  0  0  0  0  0  0  0  0  0  0  0
    4.9619   -5.3537   -2.6478 C   0  0  0  0  0  0  0  0  0  0  0  0
    6.2527   -4.8779   -2.3742 C   0  0  0  0  0  0  0  0  0  0  0  0
    7.3073   -5.0861   -3.2803 C   0  0  0  0  0  0  0  0  0  0  0  0
    8.6907   -4.5703   -2.9901 C   0  0  0  0  0  0  0  0  0  0  0  0
    8.9910   -3.1356   -3.3916 C   0  0  0  0  0  0  0  0  0  0  0  0
    9.9479   -2.5677   -2.8532 O   0  0  0  0  0  0  0  0  0  0  0  0
    8.1758   -2.5179   -4.3352 N   0  0  0  0  0  0  0  0  0  0  0  0
    8.4347   -1.1919   -4.7630 C   0  0  0  0  0  0  0  0  0  0  0  0
    9.7437   -0.8853   -5.1528 C   0  0  0  0  0  0  0  0  0  0  0  0
   10.1960    0.2763   -5.5762 N   0  0  0  0  0  0  0  0  0  0  0  0
    9.2657    1.2473   -5.6464 C   0  0  0  0  0  0  0  0  0  0  0  0
    7.9081    1.0978   -5.3388 C   0  0  0  0  0  0  0  0  0  0  0  0
    7.0279    2.1293   -5.5886 C   0  0  0  0  0  0  0  0  0  0  0  0
    5.6631    1.9870   -5.3835 C   0  0  0  0  0  0  0  0  0  0  0  0
    5.2954    1.0903   -4.4069 C   0  0  0  0  0  0  0  0  0  0  0  0
    6.0671   -0.0743   -4.3073 C   0  0  0  0  0  0  0  0  0  0  0  0
    7.4495   -0.1311   -4.8270 C   0  0  0  0  0  0  0  0  0  0  0  0
    7.0613   -5.7767   -4.4721 C   0  0  0  0  0  0  0  0  0  0  0  0
    5.7849   -6.2510   -4.7500 C   0  0  0  0  0  0  0  0  0  0  0  0
    5.4769   -7.0370   -6.2473 Cl  0  0  0  0  0  0  0  0  0  0  0  0
    4.7474   -6.0555   -3.8421 C   0  0  0  0  0  0  0  0  0  0  0  0
    1.6191   -5.3713   -1.0517 C   0  0  0  0  0  0  0  0  0  0  0  0
    0.4970   -6.1773   -0.8585 C   0  0  0  0  0  0  0  0  0  0  0  0
    1.9691   -9.1074   -1.6769 H   0  0  0  0  0  0  0  0  0  0  0  0
    4.0998   -4.4540   -1.0078 H   0  0  0  0  0  0  0  0  0  0  0  0
    6.4475   -4.3571   -1.4383 H   0  0  0  0  0  0  0  0  0  0  0  0
    9.4407   -5.2238   -3.4532 H   0  0  0  0  0  0  0  0  0  0  0  0
    8.8634   -4.6420   -1.9069 H   0  0  0  0  0  0  0  0  0  0  0  0
    7.3742   -2.9865   -4.7249 H   0  0  0  0  0  0  0  0  0  0  0  0
   10.5506   -1.6761   -5.1835 H   0  0  0  0  0  0  0  0  0  0  0  0
    9.6283    2.2288   -5.9758 H   0  0  0  0  0  0  0  0  0  0  0  0
    7.3796    3.1055   -5.9231 H   0  0  0  0  0  0  0  0  0  0  0  0
    5.1075    1.7389   -6.3047 H   0  0  0  0  0  0  0  0  0  0  0  0
    4.3301    1.3024   -3.9393 H   0  0  0  0  0  0  0  0  0  0  0  0
    5.6017   -0.9182   -3.8079 H   0  0  0  0  0  0  0  0  0  0  0  0
    7.8660   -5.9493   -5.1834 H   0  0  0  0  0  0  0  0  0  0  0  0
    3.7528   -6.4249   -4.0790 H   0  0  0  0  0  0  0  0  0  0  0  0
    1.5480   -4.2974   -0.9157 H   0  0  0  0  0  0  0  0  0  0  0  0
   -0.4451   -5.7258   -0.5552 H   0  0  0  0  0  0  0  0  0  0  0  0
  1  2  1  0  0  0  0
  2  3  1  0  0  0  0
  2  4  1  0  0  0  0
  2  5  1  0  0  0  0
  5  6  2  0  0  0  0
  5 32  1  0  0  0  0
  6  7  1  0  0  0  0
  6 33  1  0  0  0  0
  7  8  2  0  0  0  0
  8  9  1  0  0  0  0
  8 31  1  0  0  0  0
  9 10  1  0  0  0  0
  9 34  1  0  0  0  0
 10 11  2  0  0  0  0
 10 30  1  0  0  0  0
 11 12  1  0  0  0  0
 11 35  1  0  0  0  0
 12 13  1  0  0  0  0
 12 27  2  0  0  0  0
 13 14  1  0  0  0  0
 13 36  1  0  0  0  0
 13 37  1  0  0  0  0
 14 15  2  0  0  0  0
 14 16  1  0  0  0  0
 16 17  1  0  0  0  0
 16 38  1  0  0  0  0
 17 18  2  0  0  0  0
 17 26  1  0  0  0  0
 18 19  1  0  0  0  0
 18 39  1  0  0  0  0
 19 20  2  0  0  0  0
 20 21  1  0  0  0  0
 20 40  1  0  0  0  0
 21 22  2  0  0  0  0
 21 26  1  0  0  0  0
 22 23  1  0  0  0  0
 22 41  1  0  0  0  0
 23 24  2  0  0  0  0
 23 42  1  0  0  0  0
 24 25  1  0  0  0  0
 24 43  1  0  0  0  0
 25 26  2  0  0  0  0
 25 44  1  0  0  0  0
 27 28  1  0  0  0  0
 27 45  1  0  0  0  0
 28 29  1  0  0  0  0
 28 30  2  0  0  0  0
 30 46  1  0  0  0  0
 31 32  2  0  0  0  0
 31 47  1  0  0  0  0
 32 48  1  0  0  0  0
M  END
$$$$
