
 OpenBabel07202414193D

 52 55  0  0  1  0  0  0  0  0999 V2000
    0.9330    0.6518   -0.3613 O   0  0  0  0  0  0  0  0  0  0  0  0
    2.0941    0.2670   -0.2202 C   0  0  0  0  0  0  0  0  0  0  0  0
    2.8222    0.5554    1.0886 C   0  0  0  0  0  0  0  0  0  0  0  0
    3.4630    1.9309    1.1049 C   0  0  0  0  0  0  0  0  0  0  0  0
    2.8045    3.0028    0.4887 C   0  0  0  0  0  0  0  0  0  0  0  0
    3.2655    4.2696    0.4374 N   0  0  0  0  0  0  0  0  0  0  0  0
    4.4396    4.5020    1.0519 C   0  0  0  0  0  0  0  0  0  0  0  0
    5.1836    3.5374    1.7272 C   0  0  0  0  0  0  0  0  0  0  0  0
    6.3958    3.8743    2.3546 C   0  0  0  0  0  0  0  0  0  0  0  0
    7.1329    2.9110    3.0355 C   0  0  0  0  0  0  0  0  0  0  0  0
    6.6628    1.6064    3.1007 C   0  0  0  0  0  0  0  0  0  0  0  0
    5.4549    1.2628    2.4835 C   0  0  0  0  0  0  0  0  0  0  0  0
    4.6858    2.2141    1.7701 C   0  0  0  0  0  0  0  0  0  0  0  0
    2.7969   -0.3322   -1.2519 N   0  0  0  0  0  0  0  0  0  0  0  0
    2.1519   -0.4294   -2.5554 C   0  0  0  0  0  0  0  0  0  0  0  0
    2.2741   -1.8969   -2.8940 C   0  0  0  0  0  0  0  0  0  0  0  0
    3.6792   -2.2080   -2.4009 C   0  0  0  0  0  0  0  0  0  0  0  0
    3.8348   -1.3839   -1.1032 C   0  0  1  0  0  0  0  0  0  0  0  0
    5.2710   -0.8112   -0.9075 C   0  0  0  0  0  0  0  0  0  0  0  0
    6.3746   -1.7246   -0.5132 N   0  0  0  0  0  0  0  0  0  0  0  0
    7.6077   -0.9678   -0.1962 C   0  0  0  0  0  0  0  0  0  0  0  0
    8.2178   -0.2778   -1.4130 C   0  0  0  0  0  0  0  0  0  0  0  0
    8.3986   -1.2451   -2.5682 C   0  0  0  0  0  0  0  0  0  0  0  0
    8.6111   -0.5356   -3.7097 F   0  0  0  0  0  0  0  0  0  0  0  0
    9.5312   -1.9698   -2.3616 F   0  0  0  0  0  0  0  0  0  0  0  0
    7.2472   -2.2029   -2.8000 C   0  0  0  0  0  0  0  0  0  0  0  0
    6.7286   -2.7667   -1.4850 C   0  0  0  0  0  0  0  0  0  0  0  0
    3.5307   -0.2481    1.2830 H   0  0  0  0  0  0  0  0  0  0  0  0
    2.0833    0.5045    1.8978 H   0  0  0  0  0  0  0  0  0  0  0  0
    1.8430    2.8808   -0.0080 H   0  0  0  0  0  0  0  0  0  0  0  0
    4.7750    5.5338    0.9899 H   0  0  0  0  0  0  0  0  0  0  0  0
    6.7687    4.8957    2.3194 H   0  0  0  0  0  0  0  0  0  0  0  0
    8.0680    3.1812    3.5196 H   0  0  0  0  0  0  0  0  0  0  0  0
    7.2320    0.8497    3.6339 H   0  0  0  0  0  0  0  0  0  0  0  0
    5.1323    0.2292    2.5704 H   0  0  0  0  0  0  0  0  0  0  0  0
    2.7366    0.1829   -3.2528 H   0  0  0  0  0  0  0  0  0  0  0  0
    1.1178   -0.0772   -2.5695 H   0  0  0  0  0  0  0  0  0  0  0  0
    2.1420   -2.0950   -3.9611 H   0  0  0  0  0  0  0  0  0  0  0  0
    1.5371   -2.4813   -2.3320 H   0  0  0  0  0  0  0  0  0  0  0  0
    4.3813   -1.8748   -3.1694 H   0  0  0  0  0  0  0  0  0  0  0  0
    3.8168   -3.2800   -2.2425 H   0  0  0  0  0  0  0  0  0  0  0  0
    3.5524   -1.9964   -0.2388 H   0  0  0  0  0  0  0  0  0  0  0  0
    5.2052   -0.0709   -0.1033 H   0  0  0  0  0  0  0  0  0  0  0  0
    5.5309   -0.2293   -1.7970 H   0  0  0  0  0  0  0  0  0  0  0  0
    8.3462   -1.6555    0.2401 H   0  0  0  0  0  0  0  0  0  0  0  0
    7.4091   -0.2308    0.5896 H   0  0  0  0  0  0  0  0  0  0  0  0
    9.1942    0.1380   -1.1378 H   0  0  0  0  0  0  0  0  0  0  0  0
    7.6003    0.5724   -1.7223 H   0  0  0  0  0  0  0  0  0  0  0  0
    7.5809   -3.0302   -3.4365 H   0  0  0  0  0  0  0  0  0  0  0  0
    6.4566   -1.6914   -3.3525 H   0  0  0  0  0  0  0  0  0  0  0  0
    7.5044   -3.4096   -1.0432 H   0  0  0  0  0  0  0  0  0  0  0  0
    5.8896   -3.4467   -1.6499 H   0  0  0  0  0  0  0  0  0  0  0  0
  1  2  2  0  0  0  0
  2  3  1  0  0  0  0
  2 14  1  0  0  0  0
  3  4  1  0  0  0  0
  3 28  1  0  0  0  0
  3 29  1  0  0  0  0
  4  5  1  0  0  0  0
  4 13  2  0  0  0  0
  5  6  2  0  0  0  0
  5 30  1  0  0  0  0
  6  7  1  0  0  0  0
  7  8  2  0  0  0  0
  7 31  1  0  0  0  0
  8  9  1  0  0  0  0
  8 13  1  0  0  0  0
  9 10  2  0  0  0  0
  9 32  1  0  0  0  0
 10 11  1  0  0  0  0
 10 33  1  0  0  0  0
 11 12  2  0  0  0  0
 11 34  1  0  0  0  0
 12 13  1  0  0  0  0
 12 35  1  0  0  0  0
 14 15  1  0  0  0  0
 14 18  1  0  0  0  0
 15 16  1  0  0  0  0
 15 36  1  0  0  0  0
 15 37  1  0  0  0  0
 16 17  1  0  0  0  0
 16 38  1  0  0  0  0
 16 39  1  0  0  0  0
 17 18  1  0  0  0  0
 17 40  1  0  0  0  0
 17 41  1  0  0  0  0
 18 19  1  0  0  0  0
 18 42  1  1  0  0  0
 19 20  1  0  0  0  0
 19 43  1  0  0  0  0
 19 44  1  0  0  0  0
 20 21  1  0  0  0  0
 20 27  1  0  0  0  0
 21 22  1  0  0  0  0
 21 45  1  0  0  0  0
 21 46  1  0  0  0  0
 22 23  1  0  0  0  0
 22 47  1  0  0  0  0
 22 48  1  0  0  0  0
 23 24  1  0  0  0  0
 23 25  1  0  0  0  0
 23 26  1  0  0  0  0
 26 27  1  0  0  0  0
 26 49  1  0  0  0  0
 26 50  1  0  0  0  0
 27 51  1  0  0  0  0
 27 52  1  0  0  0  0
M  END
$$$$
