
 OpenBabel07202414143D

 53 56  0  0  1  0  0  0  0  0999 V2000
    4.0386   -6.2713   -2.9296 C   0  0  0  0  0  0  0  0  0  0  0  0
    4.7751   -5.0964   -3.3663 O   0  0  0  0  0  0  0  0  0  0  0  0
    4.7735   -4.0449   -2.4921 C   0  0  0  0  0  0  0  0  0  0  0  0
    4.1841   -4.0943   -1.3984 O   0  0  0  0  0  0  0  0  0  0  0  0
    5.4023   -2.7967   -2.9039 C   0  0  0  0  0  0  0  0  0  0  0  0
    6.0934   -2.5169   -4.0360 C   0  0  0  0  0  0  0  0  0  0  0  0
    5.2177   -1.6427   -1.9742 C   0  0  0  0  0  0  0  0  0  0  0  0
    6.5361   -1.2070   -1.5316 N   0  0  0  0  0  0  0  0  0  0  0  0
    7.2509   -2.3401   -0.8136 C   0  0  0  0  0  0  0  0  0  0  0  0
    8.7546   -2.2875   -0.7991 C   0  0  0  0  0  0  0  0  0  0  0  0
    9.1723   -0.8720   -0.5000 C   0  0  0  0  0  0  0  0  0  0  0  0
    8.2864    0.2993   -0.5608 C   0  0  0  0  0  0  0  0  0  0  0  0
    8.9506    1.5202   -0.4730 C   0  0  0  0  0  0  0  0  0  0  0  0
   10.3286    1.5957   -0.1516 C   0  0  0  0  0  0  0  0  0  0  0  0
   11.0362    3.1508    0.0730 Cl  0  0  0  0  0  0  0  0  0  0  0  0
   11.1294    0.4681    0.0337 C   0  0  0  0  0  0  0  0  0  0  0  0
   10.5611   -0.7731   -0.1724 C   0  0  0  0  0  0  0  0  0  0  0  0
    6.5996    0.3219   -0.9048 C   0  0  3  0  0  0  0  0  0  0  0  0
    5.4248    1.0959    0.5311 C   0  0  0  0  0  0  0  0  0  0  0  0
    6.0214    1.9567    1.1809 O   0  0  0  0  0  0  0  0  0  0  0  0
    3.7837    0.7863    1.0840 N   0  0  0  0  0  0  0  0  0  0  0  0
    2.6994    1.4416    2.4139 C   0  0  0  0  0  0  0  0  0  0  0  0
    1.7163    1.1801    3.8795 C   0  0  0  0  0  0  0  0  0  0  0  0
    0.7191    0.8973    5.3585 C   0  0  0  0  0  0  0  0  0  0  0  0
   -0.5657    1.6120    5.7569 C   0  0  0  0  0  0  0  0  0  0  0  0
   -0.9560    2.5115    4.8287 C   0  0  0  0  0  0  0  0  0  0  0  0
    0.1045    2.9326    4.0512 C   0  0  0  0  0  0  0  0  0  0  0  0
    1.4197    2.3862    4.2784 C   0  0  0  0  0  0  0  0  0  0  0  0
    2.5188    3.0690    4.6458 C   0  0  0  0  0  0  0  0  0  0  0  0
    3.0736    3.6276    3.6011 N   0  0  0  0  0  0  0  0  0  0  0  0
    3.2983    2.7317    2.6557 C   0  0  0  0  0  0  0  0  0  0  0  0
    3.5749   -6.7296   -3.8093 H   0  0  0  0  0  0  0  0  0  0  0  0
    3.2190   -6.0186   -2.2404 H   0  0  0  0  0  0  0  0  0  0  0  0
    4.6787   -7.0481   -2.5012 H   0  0  0  0  0  0  0  0  0  0  0  0
    6.4869   -3.1069   -4.8288 H   0  0  0  0  0  0  0  0  0  0  0  0
    6.6410   -1.6040   -4.1621 H   0  0  0  0  0  0  0  0  0  0  0  0
    4.5731   -1.8285   -1.1097 H   0  0  0  0  0  0  0  0  0  0  0  0
    4.6992   -0.8542   -2.5468 H   0  0  0  0  0  0  0  0  0  0  0  0
    6.9872   -3.3369   -1.2086 H   0  0  0  0  0  0  0  0  0  0  0  0
    6.9903   -2.4232    0.2413 H   0  0  0  0  0  0  0  0  0  0  0  0
    9.1958   -2.6817   -1.7296 H   0  0  0  0  0  0  0  0  0  0  0  0
    9.1330   -2.9676   -0.0083 H   0  0  0  0  0  0  0  0  0  0  0  0
    8.4002    2.4315   -0.6513 H   0  0  0  0  0  0  0  0  0  0  0  0
   12.1761    0.5498    0.3257 H   0  0  0  0  0  0  0  0  0  0  0  0
   11.1948   -1.6618   -0.0569 H   0  0  0  0  0  0  0  0  0  0  0  0
    6.5500    0.9601   -1.8049 H   0  0  0  0  0  0  0  0  0  0  0  0
    3.6856   -0.2269    1.1700 H   0  0  0  0  0  0  0  0  0  0  0  0
    1.2637    1.2080    6.3550 H   0  0  0  0  0  0  0  0  0  0  0  0
   -1.0666    1.7305    6.7577 H   0  0  0  0  0  0  0  0  0  0  0  0
   -1.9922    2.8029    4.6654 H   0  0  0  0  0  0  0  0  0  0  0  0
   -0.0828    3.2574    3.0384 H   0  0  0  0  0  0  0  0  0  0  0  0
    3.2543    2.4932    5.2486 H   0  0  0  0  0  0  0  0  0  0  0  0
    4.3532    2.6241    2.6252 H   0  0  0  0  0  0  0  0  0  0  0  0
  1  2  1  0  0  0  0
  1 32  1  0  0  0  0
  1 33  1  0  0  0  0
  1 34  1  0  0  0  0
  2  3  1  0  0  0  0
  3  4  2  0  0  0  0
  3  5  1  0  0  0  0
  5  6  2  0  0  0  0
  5  7  1  0  0  0  0
  6 35  1  0  0  0  0
  6 36  1  0  0  0  0
  7  8  1  0  0  0  0
  7 37  1  0  0  0  0
  7 38  1  0  0  0  0
  8  9  1  0  0  0  0
  8 18  1  0  0  0  0
  9 10  1  0  0  0  0
  9 39  1  0  0  0  0
  9 40  1  0  0  0  0
 10 11  1  0  0  0  0
 10 41  1  0  0  0  0
 10 42  1  0  0  0  0
 11 12  2  0  0  0  0
 11 17  1  0  0  0  0
 12 13  1  0  0  0  0
 12 18  1  0  0  0  0
 13 14  2  0  0  0  0
 13 43  1  0  0  0  0
 14 15  1  0  0  0  0
 14 16  1  0  0  0  0
 16 17  2  0  0  0  0
 16 44  1  0  0  0  0
 17 45  1  0  0  0  0
 18 19  1  0  0  0  0
 18 46  1  0  0  0  0
 19 20  2  0  0  0  0
 19 21  1  0  0  0  0
 21 22  1  0  0  0  0
 21 47  1  0  0  0  0
 22 23  2  0  0  0  0
 22 31  1  0  0  0  0
 23 24  1  0  0  0  0
 23 28  1  0  0  0  0
 24 25  2  0  0  0  0
 24 48  1  0  0  0  0
 25 26  1  0  0  0  0
 25 49  1  0  0  0  0
 26 27  2  0  0  0  0
 26 50  1  0  0  0  0
 27 28  1  0  0  0  0
 27 51  1  0  0  0  0
 28 29  2  0  0  0  0
 29 30  1  0  0  0  0
 29 52  1  0  0  0  0
 30 31  2  0  0  0  0
 31 53  1  0  0  0  0
M  END
$$$$
