
 OpenBabel07202414173D

 39 42  0  0  1  0  0  0  0  0999 V2000
    1.1825    0.0101   -0.2787 Cl  0  0  0  0  0  0  0  0  0  0  0  0
    2.8946   -0.1066   -0.0902 C   0  0  0  0  0  0  0  0  0  0  0  0
    3.6352    1.0813   -0.0950 C   0  0  0  0  0  0  0  0  0  0  0  0
    5.0238    1.0753    0.0879 C   0  0  0  0  0  0  0  0  0  0  0  0
    5.6760   -0.1571    0.2385 C   0  0  0  0  0  0  0  0  0  0  0  0
    4.9365   -1.3529    0.2331 C   0  0  0  0  0  0  0  0  0  0  0  0
    3.5494   -1.3305    0.0674 C   0  0  0  0  0  0  0  0  0  0  0  0
    2.7124   -2.8391    0.0584 Cl  0  0  0  0  0  0  0  0  0  0  0  0
    7.1769   -0.2040    0.4471 C   0  0  3  0  0  0  0  0  0  0  0  0
    7.5553   -0.5005    1.9064 C   0  0  0  0  0  0  0  0  0  0  0  0
    8.3408   -1.4097    2.1697 O   0  0  0  0  0  0  0  0  0  0  0  0
    6.9857    0.3571    2.8301 N   0  0  0  0  0  0  0  0  0  0  0  0
    7.0566    0.2852    4.2438 C   0  0  0  0  0  0  0  0  0  0  0  0
    7.6607   -0.7745    4.9213 C   0  0  0  0  0  0  0  0  0  0  0  0
    7.5868   -0.9677    6.2605 N   0  0  0  0  0  0  0  0  0  0  0  0
    6.9108   -0.0433    6.9701 C   0  0  0  0  0  0  0  0  0  0  0  0
    6.3585    1.1105    6.4200 C   0  0  0  0  0  0  0  0  0  0  0  0
    5.7500    2.0911    7.2062 C   0  0  0  0  0  0  0  0  0  0  0  0
    5.2343    3.2425    6.7243 N   0  0  0  0  0  0  0  0  0  0  0  0
    5.3199    3.4259    5.3951 C   0  0  0  0  0  0  0  0  0  0  0  0
    5.8842    2.5045    4.5228 C   0  0  0  0  0  0  0  0  0  0  0  0
    6.4289    1.2985    5.0255 C   0  0  0  0  0  0  0  0  0  0  0  0
    7.8681    1.0592   -0.0817 C   0  0  0  0  0  0  0  0  0  0  0  0
    7.1449    2.3339    0.3253 C   0  0  0  0  0  0  0  0  0  0  0  0
    5.7305    2.2640    0.0077 N   0  0  0  0  0  0  0  0  0  0  0  0
    3.1160    2.0255   -0.2451 H   0  0  0  0  0  0  0  0  0  0  0  0
    5.4470   -2.3085    0.3501 H   0  0  0  0  0  0  0  0  0  0  0  0
    7.5650   -1.0468   -0.1460 H   0  0  0  0  0  0  0  0  0  0  0  0
    6.3238    1.0261    2.4614 H   0  0  0  0  0  0  0  0  0  0  0  0
    8.2201   -1.5521    4.4121 H   0  0  0  0  0  0  0  0  0  0  0  0
    6.8344   -0.2595    8.0327 H   0  0  0  0  0  0  0  0  0  0  0  0
    5.6748    1.9843    8.2858 H   0  0  0  0  0  0  0  0  0  0  0  0
    4.9184    4.3682    5.0317 H   0  0  0  0  0  0  0  0  0  0  0  0
    5.9197    2.7630    3.4717 H   0  0  0  0  0  0  0  0  0  0  0  0
    7.8896    1.0131   -1.1792 H   0  0  0  0  0  0  0  0  0  0  0  0
    8.9105    1.1021    0.2545 H   0  0  0  0  0  0  0  0  0  0  0  0
    7.5837    3.1879   -0.2017 H   0  0  0  0  0  0  0  0  0  0  0  0
    7.2725    2.5431    1.3910 H   0  0  0  0  0  0  0  0  0  0  0  0
    5.2010    3.1267    0.0959 H   0  0  0  0  0  0  0  0  0  0  0  0
  1  2  1  0  0  0  0
  2  3  1  0  0  0  0
  2  7  2  0  0  0  0
  3  4  2  0  0  0  0
  3 26  1  0  0  0  0
  4  5  1  0  0  0  0
  4 25  1  0  0  0  0
  5  6  2  0  0  0  0
  5  9  1  0  0  0  0
  6  7  1  0  0  0  0
  6 27  1  0  0  0  0
  7  8  1  0  0  0  0
  9 10  1  0  0  0  0
  9 23  1  0  0  0  0
  9 28  1  0  0  0  0
 10 11  2  0  0  0  0
 10 12  1  0  0  0  0
 12 13  1  0  0  0  0
 12 29  1  0  0  0  0
 13 14  1  0  0  0  0
 13 22  2  0  0  0  0
 14 15  2  0  0  0  0
 14 30  1  0  0  0  0
 15 16  1  0  0  0  0
 16 17  2  0  0  0  0
 16 31  1  0  0  0  0
 17 18  1  0  0  0  0
 17 22  1  0  0  0  0
 18 19  2  0  0  0  0
 18 32  1  0  0  0  0
 19 20  1  0  0  0  0
 20 21  2  0  0  0  0
 20 33  1  0  0  0  0
 21 22  1  0  0  0  0
 21 34  1  0  0  0  0
 23 24  1  0  0  0  0
 23 35  1  0  0  0  0
 23 36  1  0  0  0  0
 24 25  1  0  0  0  0
 24 37  1  0  0  0  0
 24 38  1  0  0  0  0
 25 39  1  0  0  0  0
M  END
$$$$
