
 OpenBabel07202414143D

 54 58  0  0  1  0  0  0  0  0999 V2000
    2.0557   -1.7713    1.1413 C   0  0  0  0  0  0  0  0  0  0  0  0
    2.6734   -0.6315    0.5157 N   0  0  0  0  0  0  0  0  0  0  0  0
    3.4705    0.2442    1.2444 C   0  0  0  0  0  0  0  0  0  0  0  0
    3.6070    0.1612    2.4560 O   0  0  0  0  0  0  0  0  0  0  0  0
    4.0927    1.3229    0.3641 C   0  0  0  0  0  0  0  0  0  0  0  0
    5.1882    2.1343    0.9334 N   0  0  0  0  0  0  0  0  0  0  0  0
    6.2664    1.4083    1.6404 C   0  0  0  0  0  0  0  0  0  0  0  0
    7.2340    0.6233    0.7275 C   0  0  3  0  0  0  0  0  0  0  0  0
    8.4757    0.3184    1.5850 C   0  0  0  0  0  0  0  0  0  0  0  0
    8.7150   -1.1699    1.4949 C   0  0  0  0  0  0  0  0  0  0  0  0
    7.7543   -1.7262    0.5992 N   0  0  0  0  0  0  0  0  0  0  0  0
    7.8060   -3.0814    0.0948 C   0  0  0  0  0  0  0  0  0  0  0  0
    6.8906   -3.4779   -0.8955 C   0  0  0  0  0  0  0  0  0  0  0  0
    6.7458   -4.7280   -1.3933 N   0  0  0  0  0  0  0  0  0  0  0  0
    7.6229   -5.6437   -0.9567 C   0  0  0  0  0  0  0  0  0  0  0  0
    8.6887   -5.3679   -0.1090 C   0  0  0  0  0  0  0  0  0  0  0  0
    9.6521   -6.3697    0.1227 C   0  0  0  0  0  0  0  0  0  0  0  0
   10.7487   -6.1373    0.9421 C   0  0  0  0  0  0  0  0  0  0  0  0
   10.8466   -4.9287    1.5991 C   0  0  0  0  0  0  0  0  0  0  0  0
    9.8736   -3.9438    1.3951 C   0  0  0  0  0  0  0  0  0  0  0  0
    8.7847   -4.0779    0.4818 C   0  0  0  0  0  0  0  0  0  0  0  0
    6.7309   -0.7949    0.3525 C   0  0  0  0  0  0  0  0  0  0  0  0
    5.6634   -1.0144   -0.2017 O   0  0  0  0  0  0  0  0  0  0  0  0
    7.6073    1.3371   -0.5863 C   0  0  0  0  0  0  0  0  0  0  0  0
    8.5840    0.7615   -1.4317 C   0  0  0  0  0  0  0  0  0  0  0  0
    8.8808    1.3039   -2.6820 C   0  0  0  0  0  0  0  0  0  0  0  0
   10.0696    0.5499   -3.6706 Cl  0  0  0  0  0  0  0  0  0  0  0  0
    8.2165    2.4370   -3.1309 C   0  0  0  0  0  0  0  0  0  0  0  0
    7.2599    3.0393   -2.3173 C   0  0  0  0  0  0  0  0  0  0  0  0
    6.9659    2.4999   -1.0553 C   0  0  0  0  0  0  0  0  0  0  0  0
    5.7702    3.3647   -0.0637 S   0  0  0  0  0  0  0  0  0  0  0  0
    6.5316    4.2906    0.7429 O   0  0  0  0  0  0  0  0  0  0  0  0
    4.6970    3.8061   -0.9374 O   0  0  0  0  0  0  0  0  0  0  0  0
    1.4866   -2.3084    0.3792 H   0  0  0  0  0  0  0  0  0  0  0  0
    1.3891   -1.4335    1.9385 H   0  0  0  0  0  0  0  0  0  0  0  0
    2.8294   -2.4216    1.5577 H   0  0  0  0  0  0  0  0  0  0  0  0
    2.8656   -0.7017   -0.4765 H   0  0  0  0  0  0  0  0  0  0  0  0
    3.2623    1.9949    0.1164 H   0  0  0  0  0  0  0  0  0  0  0  0
    4.4314    0.8776   -0.5737 H   0  0  0  0  0  0  0  0  0  0  0  0
    5.8717    0.7785    2.4410 H   0  0  0  0  0  0  0  0  0  0  0  0
    6.8419    2.1810    2.1770 H   0  0  0  0  0  0  0  0  0  0  0  0
    8.3393    0.5785    2.6427 H   0  0  0  0  0  0  0  0  0  0  0  0
    9.3628    0.8756    1.2621 H   0  0  0  0  0  0  0  0  0  0  0  0
    8.5531   -1.6249    2.4793 H   0  0  0  0  0  0  0  0  0  0  0  0
    9.7283   -1.3247    1.1235 H   0  0  0  0  0  0  0  0  0  0  0  0
    6.2232   -2.7777   -1.3875 H   0  0  0  0  0  0  0  0  0  0  0  0
    7.4466   -6.6475   -1.3371 H   0  0  0  0  0  0  0  0  0  0  0  0
    9.5726   -7.3366   -0.3710 H   0  0  0  0  0  0  0  0  0  0  0  0
   11.5130   -6.8971    1.0756 H   0  0  0  0  0  0  0  0  0  0  0  0
   11.6776   -4.7331    2.2727 H   0  0  0  0  0  0  0  0  0  0  0  0
   10.0276   -3.0606    1.9937 H   0  0  0  0  0  0  0  0  0  0  0  0
    9.1167   -0.1404   -1.1374 H   0  0  0  0  0  0  0  0  0  0  0  0
    8.4391    2.8559   -4.1089 H   0  0  0  0  0  0  0  0  0  0  0  0
    6.7447    3.9339   -2.6674 H   0  0  0  0  0  0  0  0  0  0  0  0
  1  2  1  0  0  0  0
  1 34  1  0  0  0  0
  1 35  1  0  0  0  0
  1 36  1  0  0  0  0
  2  3  1  0  0  0  0
  2 37  1  0  0  0  0
  3  4  2  0  0  0  0
  3  5  1  0  0  0  0
  5  6  1  0  0  0  0
  5 38  1  0  0  0  0
  5 39  1  0  0  0  0
  6  7  1  0  0  0  0
  6 31  1  0  0  0  0
  7  8  1  0  0  0  0
  7 40  1  0  0  0  0
  7 41  1  0  0  0  0
  8  9  1  0  0  0  0
  8 22  1  0  0  0  0
  8 24  1  0  0  0  0
  9 10  1  0  0  0  0
  9 42  1  0  0  0  0
  9 43  1  0  0  0  0
 10 11  1  0  0  0  0
 10 44  1  0  0  0  0
 10 45  1  0  0  0  0
 11 12  1  0  0  0  0
 11 22  1  0  0  0  0
 12 13  1  0  0  0  0
 12 21  2  0  0  0  0
 13 14  2  0  0  0  0
 13 46  1  0  0  0  0
 14 15  1  0  0  0  0
 15 16  2  0  0  0  0
 15 47  1  0  0  0  0
 16 17  1  0  0  0  0
 16 21  1  0  0  0  0
 17 18  2  0  0  0  0
 17 48  1  0  0  0  0
 18 19  1  0  0  0  0
 18 49  1  0  0  0  0
 19 20  2  0  0  0  0
 19 50  1  0  0  0  0
 20 21  1  0  0  0  0
 20 51  1  0  0  0  0
 22 23  2  0  0  0  0
 24 25  1  0  0  0  0
 24 30  2  0  0  0  0
 25 26  2  0  0  0  0
 25 52  1  0  0  0  0
 26 27  1  0  0  0  0
 26 28  1  0  0  0  0
 28 29  2  0  0  0  0
 28 53  1  0  0  0  0
 29 30  1  0  0  0  0
 29 54  1  0  0  0  0
 30 31  1  0  0  0  0
 31 32  2  0  0  0  0
 31 33  2  0  0  0  0
M  END
$$$$
