
 OpenBabel07202414183D

 42 46  0  0  1  0  0  0  0  0999 V2000
    0.9572   -0.1950    0.1326 Cl  0  0  0  0  0  0  0  0  0  0  0  0
    2.6740   -0.1148    0.2306 C   0  0  0  0  0  0  0  0  0  0  0  0
    3.4217   -1.2834    0.1764 C   0  0  0  0  0  0  0  0  0  0  0  0
    4.8108   -1.2030    0.2106 C   0  0  0  0  0  0  0  0  0  0  0  0
    5.4496    0.0417    0.2720 C   0  0  0  0  0  0  0  0  0  0  0  0
    4.7116    1.2354    0.3001 C   0  0  0  0  0  0  0  0  0  0  0  0
    3.3047    1.1311    0.3135 C   0  0  0  0  0  0  0  0  0  0  0  0
    5.4239    2.5791    0.1856 C   0  0  1  0  0  0  0  0  0  0  0  0
    6.8952    2.3753   -0.2106 C   0  0  0  0  0  0  0  0  0  0  0  0
    7.4843    1.1972    0.5459 C   0  0  0  0  0  0  0  0  0  0  0  0
    6.8152   -0.0158    0.2136 O   0  0  0  0  0  0  0  0  0  0  0  0
    4.7279    3.5049   -0.8332 C   0  0  0  0  0  0  0  0  0  0  0  0
    3.8705    4.3777    0.0313 C   0  0  0  0  0  0  0  0  0  0  0  0
    2.8332    4.9105   -0.3379 O   0  0  0  0  0  0  0  0  0  0  0  0
    4.4999    4.4651    1.2394 N   0  0  0  0  0  0  0  0  0  0  0  0
    4.2693    5.5202    2.1599 C   0  0  0  0  0  0  0  0  0  0  0  0
    2.9938    5.7452    2.6710 C   0  0  0  0  0  0  0  0  0  0  0  0
    2.7032    6.6829    3.6000 N   0  0  0  0  0  0  0  0  0  0  0  0
    3.6924    7.5459    3.9130 C   0  0  0  0  0  0  0  0  0  0  0  0
    4.9391    7.5675    3.2881 C   0  0  0  0  0  0  0  0  0  0  0  0
    5.8012    8.6722    3.4138 C   0  0  0  0  0  0  0  0  0  0  0  0
    7.0067    8.7114    2.7176 C   0  0  0  0  0  0  0  0  0  0  0  0
    7.4178    7.5995    1.9955 C   0  0  0  0  0  0  0  0  0  0  0  0
    6.5791    6.4871    1.8868 C   0  0  0  0  0  0  0  0  0  0  0  0
    5.2809    6.4790    2.4562 C   0  0  0  0  0  0  0  0  0  0  0  0
    5.3701    3.4377    1.4485 C   0  0  0  0  0  0  0  0  0  0  0  0
    6.0199    3.2128    2.4638 O   0  0  0  0  0  0  0  0  0  0  0  0
    2.9358   -2.2515    0.0924 H   0  0  0  0  0  0  0  0  0  0  0  0
    5.4052   -2.1130    0.1615 H   0  0  0  0  0  0  0  0  0  0  0  0
    2.6692    2.0131    0.3306 H   0  0  0  0  0  0  0  0  0  0  0  0
    7.4882    3.2780   -0.0186 H   0  0  0  0  0  0  0  0  0  0  0  0
    6.9586    2.1595   -1.2828 H   0  0  0  0  0  0  0  0  0  0  0  0
    7.4768    1.3281    1.6337 H   0  0  0  0  0  0  0  0  0  0  0  0
    8.5320    1.0690    0.2491 H   0  0  0  0  0  0  0  0  0  0  0  0
    4.1394    2.9717   -1.5874 H   0  0  0  0  0  0  0  0  0  0  0  0
    5.4418    4.1638   -1.3438 H   0  0  0  0  0  0  0  0  0  0  0  0
    2.1399    5.1547    2.3490 H   0  0  0  0  0  0  0  0  0  0  0  0
    3.4350    8.2717    4.6805 H   0  0  0  0  0  0  0  0  0  0  0  0
    5.4975    9.5451    3.9887 H   0  0  0  0  0  0  0  0  0  0  0  0
    7.6191    9.6095    2.7350 H   0  0  0  0  0  0  0  0  0  0  0  0
    8.3791    7.6063    1.4874 H   0  0  0  0  0  0  0  0  0  0  0  0
    6.9429    5.6428    1.3100 H   0  0  0  0  0  0  0  0  0  0  0  0
  1  2  1  0  0  0  0
  2  3  1  0  0  0  0
  2  7  2  0  0  0  0
  3  4  2  0  0  0  0
  3 28  1  0  0  0  0
  4  5  1  0  0  0  0
  4 29  1  0  0  0  0
  5  6  2  0  0  0  0
  5 11  1  0  0  0  0
  6  7  1  0  0  0  0
  7 30  1  0  0  0  0
  8  6  1  1  0  0  0
  8  9  1  0  0  0  0
  8 12  1  0  0  0  0
  8 26  1  0  0  0  0
  9 10  1  0  0  0  0
  9 31  1  0  0  0  0
  9 32  1  0  0  0  0
 10 11  1  0  0  0  0
 10 33  1  0  0  0  0
 10 34  1  0  0  0  0
 12 13  1  0  0  0  0
 12 35  1  0  0  0  0
 12 36  1  0  0  0  0
 13 14  2  0  0  0  0
 13 15  1  0  0  0  0
 15 16  1  0  0  0  0
 15 26  1  0  0  0  0
 16 17  1  0  0  0  0
 16 25  2  0  0  0  0
 17 18  2  0  0  0  0
 17 37  1  0  0  0  0
 18 19  1  0  0  0  0
 19 20  2  0  0  0  0
 19 38  1  0  0  0  0
 20 21  1  0  0  0  0
 20 25  1  0  0  0  0
 21 22  2  0  0  0  0
 21 39  1  0  0  0  0
 22 23  1  0  0  0  0
 22 40  1  0  0  0  0
 23 24  2  0  0  0  0
 23 41  1  0  0  0  0
 24 25  1  0  0  0  0
 24 42  1  0  0  0  0
 26 27  2  0  0  0  0
M  END
$$$$
