
 OpenBabel07202414183D

 53 56  0  0  0  0  0  0  0  0999 V2000
    2.4892    5.3049    0.1257 F   0  0  0  0  0  0  0  0  0  0  0  0
    1.8838    4.1041    0.0097 C   0  0  0  0  0  0  0  0  0  0  0  0
    1.2437    3.8196    1.1632 F   0  0  0  0  0  0  0  0  0  0  0  0
    0.9575    4.2092   -0.9704 F   0  0  0  0  0  0  0  0  0  0  0  0
    2.7662    3.0418   -0.3212 O   0  0  0  0  0  0  0  0  0  0  0  0
    4.1018    3.1749   -0.1001 C   0  0  0  0  0  0  0  0  0  0  0  0
    4.7157    4.0288    0.8144 C   0  0  0  0  0  0  0  0  0  0  0  0
    6.1123    4.1181    0.8722 C   0  0  0  0  0  0  0  0  0  0  0  0
    6.9180    3.3249    0.0411 C   0  0  0  0  0  0  0  0  0  0  0  0
    8.4168    3.5139   -0.0092 C   0  0  0  0  0  0  0  0  0  0  0  0
    9.1211    2.3204    0.4537 N   0  0  0  0  0  0  0  0  0  0  0  0
   10.5270    2.3112    0.3684 C   0  0  0  0  0  0  0  0  0  0  0  0
   11.2816    1.4902    1.2367 C   0  0  0  0  0  0  0  0  0  0  0  0
   12.6818    1.4001    1.1404 C   0  0  0  0  0  0  0  0  0  0  0  0
   13.5377    0.4644    1.9665 C   0  0  0  0  0  0  0  0  0  0  0  0
   13.1453    0.2188    3.4079 C   0  0  0  0  0  0  0  0  0  0  0  0
   12.7325   -0.8741    3.7732 O   0  0  0  0  0  0  0  0  0  0  0  0
   13.3531    1.3068    4.2496 N   0  0  0  0  0  0  0  0  0  0  0  0
   13.0973    1.1737    5.6382 C   0  0  0  0  0  0  0  0  0  0  0  0
   13.7197    0.1596    6.3733 C   0  0  0  0  0  0  0  0  0  0  0  0
   13.5008   -0.0792    7.6850 N   0  0  0  0  0  0  0  0  0  0  0  0
   12.5135    0.6400    8.2567 C   0  0  0  0  0  0  0  0  0  0  0  0
   11.7608    1.6161    7.5980 C   0  0  0  0  0  0  0  0  0  0  0  0
   10.6191    2.1845    8.1862 C   0  0  0  0  0  0  0  0  0  0  0  0
    9.8840    3.1569    7.5115 C   0  0  0  0  0  0  0  0  0  0  0  0
   10.3301    3.6328    6.2847 C   0  0  0  0  0  0  0  0  0  0  0  0
   11.4466    3.0557    5.6775 C   0  0  0  0  0  0  0  0  0  0  0  0
   12.1352    1.9799    6.2857 C   0  0  0  0  0  0  0  0  0  0  0  0
   13.3261    2.1075    0.1086 C   0  0  0  0  0  0  0  0  0  0  0  0
   12.5932    2.8745   -0.7822 C   0  0  0  0  0  0  0  0  0  0  0  0
   13.3989    3.6849   -2.0702 Cl  0  0  0  0  0  0  0  0  0  0  0  0
   11.2109    2.9716   -0.6618 C   0  0  0  0  0  0  0  0  0  0  0  0
    6.2942    2.4157   -0.8121 C   0  0  0  0  0  0  0  0  0  0  0  0
    4.9027    2.3386   -0.8855 C   0  0  0  0  0  0  0  0  0  0  0  0
    4.1391    4.6600    1.4844 H   0  0  0  0  0  0  0  0  0  0  0  0
    6.5660    4.8364    1.5520 H   0  0  0  0  0  0  0  0  0  0  0  0
    8.7077    4.3758    0.6082 H   0  0  0  0  0  0  0  0  0  0  0  0
    8.6547    3.7599   -1.0479 H   0  0  0  0  0  0  0  0  0  0  0  0
    8.7782    2.0022    1.3571 H   0  0  0  0  0  0  0  0  0  0  0  0
   10.7529    0.8929    1.9832 H   0  0  0  0  0  0  0  0  0  0  0  0
   14.5703    0.8367    1.9927 H   0  0  0  0  0  0  0  0  0  0  0  0
   13.5675   -0.5055    1.4593 H   0  0  0  0  0  0  0  0  0  0  0  0
   13.1701    2.2062    3.8230 H   0  0  0  0  0  0  0  0  0  0  0  0
   14.4421   -0.5078    5.9111 H   0  0  0  0  0  0  0  0  0  0  0  0
   12.3235    0.3895    9.2977 H   0  0  0  0  0  0  0  0  0  0  0  0
   10.2626    1.8262    9.1500 H   0  0  0  0  0  0  0  0  0  0  0  0
    8.9643    3.5413    7.9444 H   0  0  0  0  0  0  0  0  0  0  0  0
    9.7899    4.4292    5.7800 H   0  0  0  0  0  0  0  0  0  0  0  0
   11.7497    3.4415    4.7091 H   0  0  0  0  0  0  0  0  0  0  0  0
   14.4018    2.0161   -0.0255 H   0  0  0  0  0  0  0  0  0  0  0  0
   10.6797    3.5454   -1.4137 H   0  0  0  0  0  0  0  0  0  0  0  0
    6.8962    1.7766   -1.4674 H   0  0  0  0  0  0  0  0  0  0  0  0
    4.4375    1.6436   -1.5830 H   0  0  0  0  0  0  0  0  0  0  0  0
  1  2  1  0  0  0  0
  2  3  1  0  0  0  0
  2  4  1  0  0  0  0
  2  5  1  0  0  0  0
  5  6  1  0  0  0  0
  6  7  2  0  0  0  0
  6 34  1  0  0  0  0
  7  8  1  0  0  0  0
  7 35  1  0  0  0  0
  8  9  2  0  0  0  0
  8 36  1  0  0  0  0
  9 10  1  0  0  0  0
  9 33  1  0  0  0  0
 10 11  1  0  0  0  0
 10 37  1  0  0  0  0
 10 38  1  0  0  0  0
 11 12  1  0  0  0  0
 11 39  1  0  0  0  0
 12 13  2  0  0  0  0
 12 32  1  0  0  0  0
 13 14  1  0  0  0  0
 13 40  1  0  0  0  0
 14 15  1  0  0  0  0
 14 29  2  0  0  0  0
 15 16  1  0  0  0  0
 15 41  1  0  0  0  0
 15 42  1  0  0  0  0
 16 17  2  0  0  0  0
 16 18  1  0  0  0  0
 18 19  1  0  0  0  0
 18 43  1  0  0  0  0
 19 20  2  0  0  0  0
 19 28  1  0  0  0  0
 20 21  1  0  0  0  0
 20 44  1  0  0  0  0
 21 22  2  0  0  0  0
 22 23  1  0  0  0  0
 22 45  1  0  0  0  0
 23 24  2  0  0  0  0
 23 28  1  0  0  0  0
 24 25  1  0  0  0  0
 24 46  1  0  0  0  0
 25 26  2  0  0  0  0
 25 47  1  0  0  0  0
 26 27  1  0  0  0  0
 26 48  1  0  0  0  0
 27 28  2  0  0  0  0
 27 49  1  0  0  0  0
 29 30  1  0  0  0  0
 29 50  1  0  0  0  0
 30 31  1  0  0  0  0
 30 32  2  0  0  0  0
 32 51  1  0  0  0  0
 33 34  2  0  0  0  0
 33 52  1  0  0  0  0
 34 53  1  0  0  0  0
M  END
$$$$
