
 OpenBabel07202414193D

 45 48  0  0  1  0  0  0  0  0999 V2000
    1.5009   -0.6012    1.0568 O   0  0  0  0  0  0  0  0  0  0  0  0
    2.3020   -0.0104    0.3243 C   0  0  0  0  0  0  0  0  0  0  0  0
    2.6520   -0.6390   -1.0224 C   0  0  0  0  0  0  0  0  0  0  0  0
    1.8241   -0.1390   -2.1885 C   0  0  0  0  0  0  0  0  0  0  0  0
    0.4761    0.1769   -1.9895 C   0  0  0  0  0  0  0  0  0  0  0  0
   -0.3655    0.6077   -2.9525 N   0  0  0  0  0  0  0  0  0  0  0  0
    0.1479    0.7148   -4.1934 C   0  0  0  0  0  0  0  0  0  0  0  0
    1.4592    0.4034   -4.5387 C   0  0  0  0  0  0  0  0  0  0  0  0
    1.9102    0.5277   -5.8642 C   0  0  0  0  0  0  0  0  0  0  0  0
    3.2156    0.1870   -6.2059 C   0  0  0  0  0  0  0  0  0  0  0  0
    4.0755   -0.2953   -5.2290 C   0  0  0  0  0  0  0  0  0  0  0  0
    3.6368   -0.4195   -3.9052 C   0  0  0  0  0  0  0  0  0  0  0  0
    2.3260   -0.0609   -3.5162 C   0  0  0  0  0  0  0  0  0  0  0  0
    2.8541    1.2203    0.6898 N   0  0  0  0  0  0  0  0  0  0  0  0
    2.5217    1.7163    2.0367 C   0  0  0  0  0  0  0  0  0  0  0  0
    3.6220    1.4288    3.0601 C   0  0  0  0  0  0  0  0  0  0  0  0
    5.2183    2.1883    2.6024 S   0  0  0  0  0  0  0  0  0  0  0  0
    5.3181    1.5882    0.8747 C   0  0  0  0  0  0  0  0  0  0  0  0
    4.0386    1.8300    0.0444 C   0  0  2  0  0  0  0  0  0  0  0  0
    3.8065    3.3291   -0.1800 C   0  0  0  0  0  0  0  0  0  0  0  0
    2.6409    3.8143   -1.0902 C   0  0  0  0  0  0  0  0  0  0  0  0
    3.6015    4.9123   -1.6015 C   0  0  0  0  0  0  0  0  0  0  0  0
    4.7564    3.9604   -1.2422 C   0  0  0  0  0  0  0  0  0  0  0  0
    2.4777   -1.7193   -0.9325 H   0  0  0  0  0  0  0  0  0  0  0  0
    3.7257   -0.5437   -1.1867 H   0  0  0  0  0  0  0  0  0  0  0  0
    0.0036    0.0814   -1.0134 H   0  0  0  0  0  0  0  0  0  0  0  0
   -0.5648    1.0629   -4.9398 H   0  0  0  0  0  0  0  0  0  0  0  0
    1.2409    0.8889   -6.6433 H   0  0  0  0  0  0  0  0  0  0  0  0
    3.5563    0.2875   -7.2336 H   0  0  0  0  0  0  0  0  0  0  0  0
    5.0911   -0.5821   -5.4908 H   0  0  0  0  0  0  0  0  0  0  0  0
    4.3444   -0.8232   -3.1861 H   0  0  0  0  0  0  0  0  0  0  0  0
    1.5937    1.2533    2.3924 H   0  0  0  0  0  0  0  0  0  0  0  0
    2.3073    2.7884    1.9733 H   0  0  0  0  0  0  0  0  0  0  0  0
    3.7819    0.3516    3.1697 H   0  0  0  0  0  0  0  0  0  0  0  0
    3.3286    1.8230    4.0384 H   0  0  0  0  0  0  0  0  0  0  0  0
    5.5380    0.5167    0.9207 H   0  0  0  0  0  0  0  0  0  0  0  0
    6.1770    2.0808    0.4071 H   0  0  0  0  0  0  0  0  0  0  0  0
    4.1912    1.3705   -0.9332 H   0  0  0  0  0  0  0  0  0  0  0  0
    3.8254    3.9112    0.7526 H   0  0  0  0  0  0  0  0  0  0  0  0
    1.7557    4.1833   -0.5653 H   0  0  0  0  0  0  0  0  0  0  0  0
    2.3313    3.1037   -1.8634 H   0  0  0  0  0  0  0  0  0  0  0  0
    3.5929    5.8301   -1.0022 H   0  0  0  0  0  0  0  0  0  0  0  0
    3.5131    5.1752   -2.6578 H   0  0  0  0  0  0  0  0  0  0  0  0
    5.6612    4.4314   -0.8507 H   0  0  0  0  0  0  0  0  0  0  0  0
    5.0349    3.2896   -2.0646 H   0  0  0  0  0  0  0  0  0  0  0  0
  1  2  2  0  0  0  0
  2  3  1  0  0  0  0
  2 14  1  0  0  0  0
  3  4  1  0  0  0  0
  3 24  1  0  0  0  0
  3 25  1  0  0  0  0
  4  5  1  0  0  0  0
  4 13  2  0  0  0  0
  5  6  2  0  0  0  0
  5 26  1  0  0  0  0
  6  7  1  0  0  0  0
  7  8  2  0  0  0  0
  7 27  1  0  0  0  0
  8  9  1  0  0  0  0
  8 13  1  0  0  0  0
  9 10  2  0  0  0  0
  9 28  1  0  0  0  0
 10 11  1  0  0  0  0
 10 29  1  0  0  0  0
 11 12  2  0  0  0  0
 11 30  1  0  0  0  0
 12 13  1  0  0  0  0
 12 31  1  0  0  0  0
 14 15  1  0  0  0  0
 14 19  1  0  0  0  0
 15 16  1  0  0  0  0
 15 32  1  0  0  0  0
 15 33  1  0  0  0  0
 16 17  1  0  0  0  0
 16 34  1  0  0  0  0
 16 35  1  0  0  0  0
 17 18  1  0  0  0  0
 18 19  1  0  0  0  0
 18 36  1  0  0  0  0
 18 37  1  0  0  0  0
 19 20  1  0  0  0  0
 19 38  1  6  0  0  0
 20 21  1  0  0  0  0
 20 23  1  0  0  0  0
 20 39  1  0  0  0  0
 21 22  1  0  0  0  0
 21 40  1  0  0  0  0
 21 41  1  0  0  0  0
 22 23  1  0  0  0  0
 22 42  1  0  0  0  0
 22 43  1  0  0  0  0
 23 44  1  0  0  0  0
 23 45  1  0  0  0  0
M  END
$$$$
