
 OpenBabel07202414213D

 31 33  0  0  0  0  0  0  0  0999 V2000
    0.6664   -1.8787    2.5919 C   0  0  0  0  0  0  0  0  0  0  0  0
    1.3791   -0.8088    3.1383 C   0  0  0  0  0  0  0  0  0  0  0  0
    1.6690    0.3364    2.3840 C   0  0  0  0  0  0  0  0  0  0  0  0
    1.2118    0.3580    1.0620 C   0  0  0  0  0  0  0  0  0  0  0  0
    0.5087   -0.7041    0.4962 C   0  0  0  0  0  0  0  0  0  0  0  0
    0.2199   -1.8401    1.2648 C   0  0  0  0  0  0  0  0  0  0  0  0
    0.2027   -0.4143   -0.8052 N   0  0  0  0  0  0  0  0  0  0  0  0
    0.6977    0.7813   -1.0866 N   0  0  0  0  0  0  0  0  0  0  0  0
    1.2752    1.2615    0.0394 N   0  0  0  0  0  0  0  0  0  0  0  0
    1.9042    2.5667   -0.0013 C   0  0  0  0  0  0  0  0  0  0  0  0
    0.9493    3.7073   -0.2990 C   0  0  0  0  0  0  0  0  0  0  0  0
    1.0532    4.7718    0.3136 O   0  0  0  0  0  0  0  0  0  0  0  0
    0.0289    3.4794   -1.3096 N   0  0  0  0  0  0  0  0  0  0  0  0
   -0.8952    4.4348   -1.7711 C   0  0  0  0  0  0  0  0  0  0  0  0
   -2.1978    4.0048   -2.0415 C   0  0  0  0  0  0  0  0  0  0  0  0
   -3.1621    4.9151   -2.4769 C   0  0  0  0  0  0  0  0  0  0  0  0
   -2.8092    6.2434   -2.7098 C   0  0  0  0  0  0  0  0  0  0  0  0
   -1.4962    6.6583   -2.4888 C   0  0  0  0  0  0  0  0  0  0  0  0
   -0.5412    5.7666   -1.9984 C   0  0  0  0  0  0  0  0  0  0  0  0
   -1.0500    8.2819   -2.8498 Cl  0  0  0  0  0  0  0  0  0  0  0  0
    0.4506   -2.7537    3.2030 H   0  0  0  0  0  0  0  0  0  0  0  0
    1.7156   -0.8684    4.1723 H   0  0  0  0  0  0  0  0  0  0  0  0
    2.2255    1.1598    2.8200 H   0  0  0  0  0  0  0  0  0  0  0  0
   -0.3258   -2.6724    0.8348 H   0  0  0  0  0  0  0  0  0  0  0  0
    2.6827    2.5429   -0.7679 H   0  0  0  0  0  0  0  0  0  0  0  0
    2.3720    2.7455    0.9718 H   0  0  0  0  0  0  0  0  0  0  0  0
   -0.1909    2.5022   -1.5096 H   0  0  0  0  0  0  0  0  0  0  0  0
   -2.4880    2.9726   -1.8611 H   0  0  0  0  0  0  0  0  0  0  0  0
   -4.1873    4.5881   -2.6309 H   0  0  0  0  0  0  0  0  0  0  0  0
   -3.5573    6.9465   -3.0663 H   0  0  0  0  0  0  0  0  0  0  0  0
    0.4788    6.1051   -1.8386 H   0  0  0  0  0  0  0  0  0  0  0  0
  1  2  1  0  0  0  0
  1  6  2  0  0  0  0
  1 21  1  0  0  0  0
  2  3  2  0  0  0  0
  2 22  1  0  0  0  0
  3  4  1  0  0  0  0
  3 23  1  0  0  0  0
  4  5  2  0  0  0  0
  4  9  1  0  0  0  0
  5  6  1  0  0  0  0
  5  7  1  0  0  0  0
  6 24  1  0  0  0  0
  7  8  2  0  0  0  0
  8  9  1  0  0  0  0
  9 10  1  0  0  0  0
 10 11  1  0  0  0  0
 10 25  1  0  0  0  0
 10 26  1  0  0  0  0
 11 12  2  0  0  0  0
 11 13  1  0  0  0  0
 13 14  1  0  0  0  0
 13 27  1  0  0  0  0
 14 15  1  0  0  0  0
 14 19  2  0  0  0  0
 15 16  2  0  0  0  0
 15 28  1  0  0  0  0
 16 17  1  0  0  0  0
 16 29  1  0  0  0  0
 17 18  2  0  0  0  0
 17 30  1  0  0  0  0
 18 19  1  0  0  0  0
 18 20  1  0  0  0  0
 19 31  1  0  0  0  0
M  END
$$$$
