
 OpenBabel07202414183D

 41 44  0  0  1  0  0  0  0  0999 V2000
    5.7640   -1.5166    6.0066 F   0  0  0  0  0  0  0  0  0  0  0  0
    6.3038   -0.4917    5.3355 C   0  0  0  0  0  0  0  0  0  0  0  0
    7.1337   -0.7464    4.2569 C   0  0  0  0  0  0  0  0  0  0  0  0
    7.6820    0.3221    3.5460 C   0  0  0  0  0  0  0  0  0  0  0  0
    7.4096    1.6688    3.9014 C   0  0  0  0  0  0  0  0  0  0  0  0
    7.8828    2.7954    3.1793 C   0  0  0  0  0  0  0  0  0  0  0  0
    8.7360    2.6074    2.0626 N   0  0  0  0  0  0  0  0  0  0  0  0
    8.6857    3.3620    0.9059 C   0  0  0  0  0  0  0  0  0  0  0  0
    7.8850    4.2716    0.7042 O   0  0  0  0  0  0  0  0  0  0  0  0
    9.5966    2.8516   -0.2215 C   0  0  1  0  0  0  0  0  0  0  0  0
    9.7492    3.8546   -1.3802 C   0  0  0  0  0  0  0  0  0  0  0  0
   10.3024    5.2131   -0.9576 C   0  0  0  0  0  0  0  0  0  0  0  0
   11.6075    5.1152    0.2569 S   0  0  0  0  0  0  0  0  0  0  0  0
   11.0635    5.4361    1.5600 O   0  0  0  0  0  0  0  0  0  0  0  0
   12.7670    5.8019   -0.2803 O   0  0  0  0  0  0  0  0  0  0  0  0
   12.0183    3.3863    0.3325 C   0  0  0  0  0  0  0  0  0  0  0  0
   13.3572    3.0046    0.4609 C   0  0  0  0  0  0  0  0  0  0  0  0
   13.6874    1.6486    0.4546 C   0  0  0  0  0  0  0  0  0  0  0  0
   12.6804    0.6895    0.3559 C   0  0  0  0  0  0  0  0  0  0  0  0
   13.0874   -0.9816    0.3280 Cl  0  0  0  0  0  0  0  0  0  0  0  0
   11.3428    1.0717    0.2279 C   0  0  0  0  0  0  0  0  0  0  0  0
   10.9995    2.4326    0.1779 C   0  0  0  0  0  0  0  0  0  0  0  0
    7.4942    4.0652    3.6093 C   0  0  0  0  0  0  0  0  0  0  0  0
    6.7056    4.2966    4.6859 N   0  0  0  0  0  0  0  0  0  0  0  0
    6.2562    3.2118    5.3519 C   0  0  0  0  0  0  0  0  0  0  0  0
    6.5560    1.8929    5.0097 C   0  0  0  0  0  0  0  0  0  0  0  0
    6.0128    0.8097    5.7208 C   0  0  0  0  0  0  0  0  0  0  0  0
    7.3364   -1.7715    3.9627 H   0  0  0  0  0  0  0  0  0  0  0  0
    8.2996    0.0780    2.6883 H   0  0  0  0  0  0  0  0  0  0  0  0
    9.2598    1.7454    2.0349 H   0  0  0  0  0  0  0  0  0  0  0  0
    9.0824    1.9717   -0.6336 H   0  0  0  0  0  0  0  0  0  0  0  0
    8.7917    4.0005   -1.8924 H   0  0  0  0  0  0  0  0  0  0  0  0
   10.4285    3.4255   -2.1320 H   0  0  0  0  0  0  0  0  0  0  0  0
    9.5165    5.8433   -0.5324 H   0  0  0  0  0  0  0  0  0  0  0  0
   10.7042    5.7324   -1.8336 H   0  0  0  0  0  0  0  0  0  0  0  0
   14.1458    3.7525    0.5316 H   0  0  0  0  0  0  0  0  0  0  0  0
   14.7311    1.3470    0.5105 H   0  0  0  0  0  0  0  0  0  0  0  0
   10.5823    0.3033    0.1028 H   0  0  0  0  0  0  0  0  0  0  0  0
    7.8505    4.9678    3.1188 H   0  0  0  0  0  0  0  0  0  0  0  0
    5.6132    3.4429    6.1985 H   0  0  0  0  0  0  0  0  0  0  0  0
    5.3468    0.9658    6.5641 H   0  0  0  0  0  0  0  0  0  0  0  0
  1  2  1  0  0  0  0
  2  3  1  0  0  0  0
  2 27  2  0  0  0  0
  3  4  2  0  0  0  0
  3 28  1  0  0  0  0
  4  5  1  0  0  0  0
  4 29  1  0  0  0  0
  5  6  1  0  0  0  0
  5 26  2  0  0  0  0
  6  7  1  0  0  0  0
  6 23  2  0  0  0  0
  7  8  1  0  0  0  0
  7 30  1  0  0  0  0
  8  9  2  0  0  0  0
 10 11  1  0  0  0  0
 10 22  1  0  0  0  0
 10  8  1  0  0  0  0
 10 31  1  6  0  0  0
 11 12  1  0  0  0  0
 11 32  1  0  0  0  0
 11 33  1  0  0  0  0
 12 13  1  0  0  0  0
 12 34  1  0  0  0  0
 12 35  1  0  0  0  0
 13 14  2  0  0  0  0
 13 15  2  0  0  0  0
 13 16  1  0  0  0  0
 16 17  1  0  0  0  0
 16 22  2  0  0  0  0
 17 18  2  0  0  0  0
 17 36  1  0  0  0  0
 18 19  1  0  0  0  0
 18 37  1  0  0  0  0
 19 20  1  0  0  0  0
 19 21  2  0  0  0  0
 21 22  1  0  0  0  0
 21 38  1  0  0  0  0
 23 24  1  0  0  0  0
 23 39  1  0  0  0  0
 24 25  2  0  0  0  0
 25 26  1  0  0  0  0
 25 40  1  0  0  0  0
 26 27  1  0  0  0  0
 27 41  1  0  0  0  0
M  END
$$$$
