
 OpenBabel07202414173D

 54 58  0  0  1  0  0  0  0  0999 V2000
    1.0274   -0.0971   -0.1369 Cl  0  0  0  0  0  0  0  0  0  0  0  0
    2.7425   -0.1124   -0.0081 C   0  0  0  0  0  0  0  0  0  0  0  0
    3.4560    1.0756   -0.1245 C   0  0  0  0  0  0  0  0  0  0  0  0
    4.8491    1.0597   -0.0397 C   0  0  0  0  0  0  0  0  0  0  0  0
    5.5431   -0.1437    0.1730 C   0  0  0  0  0  0  0  0  0  0  0  0
    4.8137   -1.3378    0.3049 C   0  0  0  0  0  0  0  0  0  0  0  0
    3.4107   -1.3149    0.2071 C   0  0  0  0  0  0  0  0  0  0  0  0
    5.5276   -2.6442    0.5901 C   0  0  3  0  0  0  0  0  0  0  0  0
    5.4125   -3.0633    2.0741 C   0  0  0  0  0  0  0  0  0  0  0  0
    4.8545   -2.3605    2.9129 O   0  0  0  0  0  0  0  0  0  0  0  0
    5.9161   -4.3294    2.3296 N   0  0  0  0  0  0  0  0  0  0  0  0
    5.9975   -4.9940    3.5849 C   0  0  0  0  0  0  0  0  0  0  0  0
    5.4740   -4.4667    4.7650 C   0  0  0  0  0  0  0  0  0  0  0  0
    5.7306   -4.9606    5.9980 N   0  0  0  0  0  0  0  0  0  0  0  0
    6.4937   -6.0703    6.0598 C   0  0  0  0  0  0  0  0  0  0  0  0
    6.9333   -6.7842    4.9454 C   0  0  0  0  0  0  0  0  0  0  0  0
    7.5971   -8.0190    5.0894 C   0  0  0  0  0  0  0  0  0  0  0  0
    8.0102   -8.7381    3.9694 C   0  0  0  0  0  0  0  0  0  0  0  0
    7.8000   -8.2210    2.7040 C   0  0  0  0  0  0  0  0  0  0  0  0
    7.1500   -6.9881    2.5522 C   0  0  0  0  0  0  0  0  0  0  0  0
    6.6915   -6.2366    3.6662 C   0  0  0  0  0  0  0  0  0  0  0  0
    6.9682   -2.5960    0.0546 C   0  0  0  0  0  0  0  0  0  0  0  0
    7.7291   -1.4000    0.5366 N   0  0  0  0  0  0  0  0  0  0  0  0
    9.4014   -1.4469    0.1203 S   0  0  0  0  0  0  0  0  0  0  0  0
    9.7765   -2.8497    0.1094 O   0  0  0  0  0  0  0  0  0  0  0  0
    9.5934   -0.6158   -1.0492 O   0  0  0  0  0  0  0  0  0  0  0  0
   10.1928   -0.6701    1.5373 C   0  0  0  0  0  0  0  0  0  0  0  0
   11.6760   -0.5654    1.2135 C   0  0  0  0  0  0  0  0  0  0  0  0
   12.3815   -1.8045    0.9632 C   0  0  0  0  0  0  0  0  0  0  0  0
   12.9983   -2.7728    0.7876 N   0  0  0  0  0  0  0  0  0  0  0  0
   12.2028    0.7027    0.5571 C   0  0  0  0  0  0  0  0  0  0  0  0
   12.4922    0.4558    2.0054 C   0  0  0  0  0  0  0  0  0  0  0  0
    7.0586   -0.1231    0.1522 C   0  0  0  0  0  0  0  0  0  0  0  0
    2.9355    2.0155   -0.2879 H   0  0  0  0  0  0  0  0  0  0  0  0
    5.3941    1.9948   -0.1523 H   0  0  0  0  0  0  0  0  0  0  0  0
    2.8381   -2.2341    0.3110 H   0  0  0  0  0  0  0  0  0  0  0  0
    5.0101   -3.4319    0.0224 H   0  0  0  0  0  0  0  0  0  0  0  0
    6.4162   -4.7775    1.5780 H   0  0  0  0  0  0  0  0  0  0  0  0
    4.8105   -3.6076    4.7795 H   0  0  0  0  0  0  0  0  0  0  0  0
    6.7463   -6.3837    7.0689 H   0  0  0  0  0  0  0  0  0  0  0  0
    7.7665   -8.4429    6.0773 H   0  0  0  0  0  0  0  0  0  0  0  0
    8.4915   -9.7061    4.0891 H   0  0  0  0  0  0  0  0  0  0  0  0
    8.1177   -8.7734    1.8245 H   0  0  0  0  0  0  0  0  0  0  0  0
    6.9813   -6.6546    1.5316 H   0  0  0  0  0  0  0  0  0  0  0  0
    6.9493   -2.5729   -1.0429 H   0  0  0  0  0  0  0  0  0  0  0  0
    7.4933   -3.5086    0.3526 H   0  0  0  0  0  0  0  0  0  0  0  0
   10.0192   -1.2982    2.4149 H   0  0  0  0  0  0  0  0  0  0  0  0
    9.7411    0.3141    1.6771 H   0  0  0  0  0  0  0  0  0  0  0  0
   11.5144    1.5049    0.3135 H   0  0  0  0  0  0  0  0  0  0  0  0
   13.0245    0.6197   -0.1494 H   0  0  0  0  0  0  0  0  0  0  0  0
   11.9965    1.0753    2.7428 H   0  0  0  0  0  0  0  0  0  0  0  0
   13.5183    0.2107    2.2741 H   0  0  0  0  0  0  0  0  0  0  0  0
    7.3299    0.1372   -0.8776 H   0  0  0  0  0  0  0  0  0  0  0  0
    7.4128    0.6649    0.8259 H   0  0  0  0  0  0  0  0  0  0  0  0
  1  2  1  0  0  0  0
  2  3  1  0  0  0  0
  2  7  2  0  0  0  0
  3  4  2  0  0  0  0
  3 34  1  0  0  0  0
  4  5  1  0  0  0  0
  4 35  1  0  0  0  0
  5  6  2  0  0  0  0
  5 33  1  0  0  0  0
  6  7  1  0  0  0  0
  6  8  1  0  0  0  0
  7 36  1  0  0  0  0
  8  9  1  0  0  0  0
  8 22  1  0  0  0  0
  8 37  1  0  0  0  0
  9 10  2  0  0  0  0
  9 11  1  0  0  0  0
 11 12  1  0  0  0  0
 11 38  1  0  0  0  0
 12 13  1  0  0  0  0
 12 21  2  0  0  0  0
 13 14  2  0  0  0  0
 13 39  1  0  0  0  0
 14 15  1  0  0  0  0
 15 16  2  0  0  0  0
 15 40  1  0  0  0  0
 16 17  1  0  0  0  0
 16 21  1  0  0  0  0
 17 18  2  0  0  0  0
 17 41  1  0  0  0  0
 18 19  1  0  0  0  0
 18 42  1  0  0  0  0
 19 20  2  0  0  0  0
 19 43  1  0  0  0  0
 20 21  1  0  0  0  0
 20 44  1  0  0  0  0
 22 23  1  0  0  0  0
 22 45  1  0  0  0  0
 22 46  1  0  0  0  0
 23 24  1  0  0  0  0
 23 33  1  0  0  0  0
 24 25  2  0  0  0  0
 24 26  2  0  0  0  0
 24 27  1  0  0  0  0
 27 28  1  0  0  0  0
 27 47  1  0  0  0  0
 27 48  1  0  0  0  0
 28 29  1  0  0  0  0
 28 31  1  0  0  0  0
 28 32  1  0  0  0  0
 29 30  3  0  0  0  0
 31 32  1  0  0  0  0
 31 49  1  0  0  0  0
 31 50  1  0  0  0  0
 32 51  1  0  0  0  0
 32 52  1  0  0  0  0
 33 53  1  0  0  0  0
 33 54  1  0  0  0  0
M  END
$$$$
