
 OpenBabel07202414173D

 49 53  0  0  1  0  0  0  0  0999 V2000
    0.9660    0.0229   -0.0896 Cl  0  0  0  0  0  0  0  0  0  0  0  0
    2.6828   -0.0678   -0.0108 C   0  0  0  0  0  0  0  0  0  0  0  0
    3.4457    1.0841   -0.1927 C   0  0  0  0  0  0  0  0  0  0  0  0
    4.8410    1.0120   -0.1216 C   0  0  0  0  0  0  0  0  0  0  0  0
    5.4760   -0.2153    0.1175 C   0  0  0  0  0  0  0  0  0  0  0  0
    4.7012   -1.3795    0.2995 C   0  0  0  0  0  0  0  0  0  0  0  0
    3.2991   -1.2939    0.2387 C   0  0  0  0  0  0  0  0  0  0  0  0
    5.3763   -2.7106    0.5704 C   0  0  3  0  0  0  0  0  0  0  0  0
    5.3453   -3.1457    2.0394 C   0  0  0  0  0  0  0  0  0  0  0  0
    4.9501   -4.2743    2.3251 O   0  0  0  0  0  0  0  0  0  0  0  0
    5.8113   -2.2104    2.9460 N   0  0  0  0  0  0  0  0  0  0  0  0
    5.8828   -2.3319    4.3592 C   0  0  0  0  0  0  0  0  0  0  0  0
    5.5924   -3.5216    5.0275 C   0  0  0  0  0  0  0  0  0  0  0  0
    5.4918   -3.6434    6.3707 N   0  0  0  0  0  0  0  0  0  0  0  0
    5.7106   -2.5274    7.0926 C   0  0  0  0  0  0  0  0  0  0  0  0
    6.1078   -1.3039    6.5568 C   0  0  0  0  0  0  0  0  0  0  0  0
    6.3910   -0.2113    7.3961 C   0  0  0  0  0  0  0  0  0  0  0  0
    6.8261    0.9993    6.8661 C   0  0  0  0  0  0  0  0  0  0  0  0
    6.9729    1.1325    5.4927 C   0  0  0  0  0  0  0  0  0  0  0  0
    6.6704    0.0593    4.6471 C   0  0  0  0  0  0  0  0  0  0  0  0
    6.2225   -1.1927    5.1504 C   0  0  0  0  0  0  0  0  0  0  0  0
    6.8014   -2.6814    0.0179 C   0  0  0  0  0  0  0  0  0  0  0  0
    7.5434   -1.5059    0.4730 N   0  0  0  0  0  0  0  0  0  0  0  0
    8.5850   -1.6784    1.4890 C   0  0  0  0  0  0  0  0  0  0  0  0
    9.9805   -1.9551    1.0466 C   0  0  0  0  0  0  0  0  0  0  0  0
   10.6654   -1.0907    0.0307 C   0  0  0  0  0  0  0  0  0  0  0  0
   10.4188   -2.5414   -0.2686 C   0  0  0  0  0  0  0  0  0  0  0  0
    6.9567   -0.2462    0.3483 C   0  0  0  0  0  0  0  0  0  0  0  0
    7.5376    0.8014    0.5894 O   0  0  0  0  0  0  0  0  0  0  0  0
    2.9623    2.0433   -0.3795 H   0  0  0  0  0  0  0  0  0  0  0  0
    5.4284    1.9212   -0.2337 H   0  0  0  0  0  0  0  0  0  0  0  0
    2.6866   -2.1827    0.3861 H   0  0  0  0  0  0  0  0  0  0  0  0
    4.8264   -3.4795    0.0096 H   0  0  0  0  0  0  0  0  0  0  0  0
    6.0244   -1.2960    2.5760 H   0  0  0  0  0  0  0  0  0  0  0  0
    5.4256   -4.4577    4.5058 H   0  0  0  0  0  0  0  0  0  0  0  0
    5.5606   -2.6532    8.1623 H   0  0  0  0  0  0  0  0  0  0  0  0
    6.2881   -0.3038    8.4759 H   0  0  0  0  0  0  0  0  0  0  0  0
    7.0595    1.8322    7.5248 H   0  0  0  0  0  0  0  0  0  0  0  0
    7.3268    2.0712    5.0718 H   0  0  0  0  0  0  0  0  0  0  0  0
    6.8215    0.2274    3.5846 H   0  0  0  0  0  0  0  0  0  0  0  0
    6.7533   -2.6063   -1.0753 H   0  0  0  0  0  0  0  0  0  0  0  0
    7.3620   -3.5949    0.2566 H   0  0  0  0  0  0  0  0  0  0  0  0
    8.2717   -2.5020    2.1382 H   0  0  0  0  0  0  0  0  0  0  0  0
    8.6077   -0.7852    2.1215 H   0  0  0  0  0  0  0  0  0  0  0  0
   10.5728   -2.2285    1.9205 H   0  0  0  0  0  0  0  0  0  0  0  0
   11.6763   -0.7623    0.2662 H   0  0  0  0  0  0  0  0  0  0  0  0
   10.0821   -0.3519   -0.5138 H   0  0  0  0  0  0  0  0  0  0  0  0
   11.2762   -3.2073   -0.2520 H   0  0  0  0  0  0  0  0  0  0  0  0
    9.6830   -2.7806   -1.0262 H   0  0  0  0  0  0  0  0  0  0  0  0
  1  2  1  0  0  0  0
  2  3  1  0  0  0  0
  2  7  2  0  0  0  0
  3  4  2  0  0  0  0
  3 30  1  0  0  0  0
  4  5  1  0  0  0  0
  4 31  1  0  0  0  0
  5  6  2  0  0  0  0
  5 28  1  0  0  0  0
  6  7  1  0  0  0  0
  6  8  1  0  0  0  0
  7 32  1  0  0  0  0
  8  9  1  0  0  0  0
  8 22  1  0  0  0  0
  8 33  1  0  0  0  0
  9 10  2  0  0  0  0
  9 11  1  0  0  0  0
 11 12  1  0  0  0  0
 11 34  1  0  0  0  0
 12 13  1  0  0  0  0
 12 21  2  0  0  0  0
 13 14  2  0  0  0  0
 13 35  1  0  0  0  0
 14 15  1  0  0  0  0
 15 16  2  0  0  0  0
 15 36  1  0  0  0  0
 16 17  1  0  0  0  0
 16 21  1  0  0  0  0
 17 18  2  0  0  0  0
 17 37  1  0  0  0  0
 18 19  1  0  0  0  0
 18 38  1  0  0  0  0
 19 20  2  0  0  0  0
 19 39  1  0  0  0  0
 20 21  1  0  0  0  0
 20 40  1  0  0  0  0
 22 23  1  0  0  0  0
 22 41  1  0  0  0  0
 22 42  1  0  0  0  0
 23 24  1  0  0  0  0
 23 28  1  0  0  0  0
 24 25  1  0  0  0  0
 24 43  1  0  0  0  0
 24 44  1  0  0  0  0
 25 26  1  0  0  0  0
 25 27  1  0  0  0  0
 25 45  1  0  0  0  0
 26 27  1  0  0  0  0
 26 46  1  0  0  0  0
 26 47  1  0  0  0  0
 27 48  1  0  0  0  0
 27 49  1  0  0  0  0
 28 29  2  0  0  0  0
M  END
$$$$
