
 OpenBabel07202414193D

 50 54  0  0  1  0  0  0  0  0999 V2000
    2.2038   -0.1886    0.3634 O   0  0  0  0  0  0  0  0  0  0  0  0
    1.5178    0.4243    1.1811 C   0  0  0  0  0  0  0  0  0  0  0  0
    0.3262   -0.2256    1.9195 C   0  0  0  0  0  0  0  0  0  0  0  0
   -0.1126   -1.6554    1.5473 C   0  0  0  0  0  0  0  0  0  0  0  0
    0.4237   -2.3576    0.4674 C   0  0  0  0  0  0  0  0  0  0  0  0
    0.1841   -3.6589    0.1771 N   0  0  0  0  0  0  0  0  0  0  0  0
   -0.6095   -4.3338    1.0270 C   0  0  0  0  0  0  0  0  0  0  0  0
   -1.2444   -3.7596    2.1186 C   0  0  0  0  0  0  0  0  0  0  0  0
   -2.0409   -4.5491    2.9671 C   0  0  0  0  0  0  0  0  0  0  0  0
   -2.7546   -3.9625    4.0046 C   0  0  0  0  0  0  0  0  0  0  0  0
   -2.7113   -2.5826    4.1660 C   0  0  0  0  0  0  0  0  0  0  0  0
   -1.8781   -1.7997    3.3525 C   0  0  0  0  0  0  0  0  0  0  0  0
   -1.0687   -2.3699    2.3414 C   0  0  0  0  0  0  0  0  0  0  0  0
    1.8038    1.7747    1.4066 N   0  0  0  0  0  0  0  0  0  0  0  0
    1.4156    2.5927    2.5521 C   0  0  0  0  0  0  0  0  0  0  0  0
    1.0556    4.0440    2.1922 C   0  0  0  0  0  0  0  0  0  0  0  0
   -0.1283    4.1225    1.2432 C   0  0  0  0  0  0  0  0  0  0  0  0
    0.0647    3.4866   -0.0602 N   0  0  0  0  0  0  0  0  0  0  0  0
   -0.8292    2.4738   -0.4484 C   0  0  0  0  0  0  0  0  0  0  0  0
   -2.1415    2.2808   -0.0423 C   0  0  0  0  0  0  0  0  0  0  0  0
   -2.8195    1.1255   -0.4456 C   0  0  0  0  0  0  0  0  0  0  0  0
   -2.1850    0.1740   -1.2536 C   0  0  0  0  0  0  0  0  0  0  0  0
   -0.8954    0.4038   -1.7269 C   0  0  0  0  0  0  0  0  0  0  0  0
   -0.2556    1.5711   -1.3436 C   0  0  0  0  0  0  0  0  0  0  0  0
    1.0767    2.0749   -1.7795 C   0  0  0  0  0  0  0  0  0  0  0  0
    1.3911    3.1101   -0.6653 C   0  0  2  0  0  0  0  0  0  0  0  0
    2.4424    2.5042    0.3102 C   0  0  0  0  0  0  0  0  0  0  0  0
   -0.5400    0.4290    1.7875 H   0  0  0  0  0  0  0  0  0  0  0  0
    0.6006   -0.2393    2.9801 H   0  0  0  0  0  0  0  0  0  0  0  0
    1.0972   -1.9116   -0.2558 H   0  0  0  0  0  0  0  0  0  0  0  0
   -0.7414   -5.3827    0.7808 H   0  0  0  0  0  0  0  0  0  0  0  0
   -2.1148   -5.6242    2.8179 H   0  0  0  0  0  0  0  0  0  0  0  0
   -3.3557   -4.5769    4.6686 H   0  0  0  0  0  0  0  0  0  0  0  0
   -3.3231   -2.1121    4.9320 H   0  0  0  0  0  0  0  0  0  0  0  0
   -1.8949   -0.7209    3.4962 H   0  0  0  0  0  0  0  0  0  0  0  0
    2.3010    2.6248    3.2005 H   0  0  0  0  0  0  0  0  0  0  0  0
    0.6173    2.1132    3.1209 H   0  0  0  0  0  0  0  0  0  0  0  0
    1.9040    4.5938    1.7671 H   0  0  0  0  0  0  0  0  0  0  0  0
    0.8108    4.5816    3.1168 H   0  0  0  0  0  0  0  0  0  0  0  0
   -0.3850    5.1745    1.0738 H   0  0  0  0  0  0  0  0  0  0  0  0
   -0.9793    3.6940    1.7857 H   0  0  0  0  0  0  0  0  0  0  0  0
   -2.6528    3.0037    0.5834 H   0  0  0  0  0  0  0  0  0  0  0  0
   -3.8439    0.9605   -0.1226 H   0  0  0  0  0  0  0  0  0  0  0  0
   -2.7050   -0.7411   -1.5245 H   0  0  0  0  0  0  0  0  0  0  0  0
   -0.3978   -0.3243   -2.3594 H   0  0  0  0  0  0  0  0  0  0  0  0
    0.9727    2.5753   -2.7486 H   0  0  0  0  0  0  0  0  0  0  0  0
    1.8221    1.2807   -1.8691 H   0  0  0  0  0  0  0  0  0  0  0  0
    1.8387    3.9974   -1.1305 H   0  0  0  0  0  0  0  0  0  0  0  0
    3.0850    3.2870    0.7289 H   0  0  0  0  0  0  0  0  0  0  0  0
    3.1419    1.8583   -0.2342 H   0  0  0  0  0  0  0  0  0  0  0  0
  1  2  2  0  0  0  0
  2  3  1  0  0  0  0
  2 14  1  0  0  0  0
  3  4  1  0  0  0  0
  3 28  1  0  0  0  0
  3 29  1  0  0  0  0
  4  5  1  0  0  0  0
  4 13  2  0  0  0  0
  5  6  2  0  0  0  0
  5 30  1  0  0  0  0
  6  7  1  0  0  0  0
  7  8  2  0  0  0  0
  7 31  1  0  0  0  0
  8  9  1  0  0  0  0
  8 13  1  0  0  0  0
  9 10  2  0  0  0  0
  9 32  1  0  0  0  0
 10 11  1  0  0  0  0
 10 33  1  0  0  0  0
 11 12  2  0  0  0  0
 11 34  1  0  0  0  0
 12 13  1  0  0  0  0
 12 35  1  0  0  0  0
 14 15  1  0  0  0  0
 14 27  1  0  0  0  0
 15 16  1  0  0  0  0
 15 36  1  0  0  0  0
 15 37  1  0  0  0  0
 16 17  1  0  0  0  0
 16 38  1  0  0  0  0
 16 39  1  0  0  0  0
 17 18  1  0  0  0  0
 17 40  1  0  0  0  0
 17 41  1  0  0  0  0
 18 19  1  0  0  0  0
 18 26  1  0  0  0  0
 19 20  1  0  0  0  0
 19 24  2  0  0  0  0
 20 21  2  0  0  0  0
 20 42  1  0  0  0  0
 21 22  1  0  0  0  0
 21 43  1  0  0  0  0
 22 23  2  0  0  0  0
 22 44  1  0  0  0  0
 23 24  1  0  0  0  0
 23 45  1  0  0  0  0
 24 25  1  0  0  0  0
 25 26  1  0  0  0  0
 25 46  1  0  0  0  0
 25 47  1  0  0  0  0
 26 27  1  0  0  0  0
 26 48  1  6  0  0  0
 27 49  1  0  0  0  0
 27 50  1  0  0  0  0
M  END
$$$$
