
 OpenBabel07202414153D

 42 45  0  0  1  0  0  0  0  0999 V2000
    0.8564    0.1581    0.0723 C   0  0  0  0  0  0  0  0  0  0  0  0
    2.4083    0.1637   -0.0392 C   0  0  2  0  0  0  0  0  0  0  0  0
    2.9217   -1.2847   -0.0286 C   0  0  0  0  0  0  0  0  0  0  0  0
    2.7584   -1.8896    1.3595 C   0  0  0  0  0  0  0  0  0  0  0  0
    3.5153   -1.1798    2.3401 O   0  0  0  0  0  0  0  0  0  0  0  0
    3.4260    0.1839    2.2860 C   0  0  0  0  0  0  0  0  0  0  0  0
    2.9479    0.9014    1.1785 C   0  0  0  0  0  0  0  0  0  0  0  0
    2.9118    2.3061    1.2564 C   0  0  0  0  0  0  0  0  0  0  0  0
    3.3769    2.9654    2.3963 C   0  0  0  0  0  0  0  0  0  0  0  0
    3.8623    2.2434    3.4817 C   0  0  0  0  0  0  0  0  0  0  0  0
    3.8831    0.8510    3.4255 C   0  0  0  0  0  0  0  0  0  0  0  0
    3.3525    4.6841    2.4581 Cl  0  0  0  0  0  0  0  0  0  0  0  0
    2.7748    0.8292   -1.3973 C   0  0  0  0  0  0  0  0  0  0  0  0
    1.8684    1.1488   -2.1661 O   0  0  0  0  0  0  0  0  0  0  0  0
    4.1265    1.0355   -1.6777 N   0  0  0  0  0  0  0  0  0  0  0  0
    4.6162    1.6507   -2.8829 C   0  0  0  0  0  0  0  0  0  0  0  0
    3.7986    1.8029   -4.0143 C   0  0  0  0  0  0  0  0  0  0  0  0
    4.1242    2.4763   -5.1427 N   0  0  0  0  0  0  0  0  0  0  0  0
    5.3431    3.0370   -5.1668 C   0  0  0  0  0  0  0  0  0  0  0  0
    6.2876    2.9036   -4.1560 C   0  0  0  0  0  0  0  0  0  0  0  0
    5.9463    2.1633   -2.9885 C   0  0  0  0  0  0  0  0  0  0  0  0
    6.9786    2.0077   -2.0276 C   0  0  0  0  0  0  0  0  0  0  0  0
    8.2512    2.5721   -2.2100 C   0  0  0  0  0  0  0  0  0  0  0  0
    8.5322    3.3270   -3.3415 C   0  0  0  0  0  0  0  0  0  0  0  0
    7.5529    3.4937   -4.3107 C   0  0  0  0  0  0  0  0  0  0  0  0
    0.4975   -0.2605    1.0181 H   0  0  0  0  0  0  0  0  0  0  0  0
    0.4045   -0.4250   -0.7400 H   0  0  0  0  0  0  0  0  0  0  0  0
    0.4457    1.1738    0.0057 H   0  0  0  0  0  0  0  0  0  0  0  0
    3.9853   -1.3149   -0.2957 H   0  0  0  0  0  0  0  0  0  0  0  0
    2.3888   -1.8947   -0.7682 H   0  0  0  0  0  0  0  0  0  0  0  0
    3.1316   -2.9193    1.3524 H   0  0  0  0  0  0  0  0  0  0  0  0
    1.7152   -1.9446    1.6824 H   0  0  0  0  0  0  0  0  0  0  0  0
    2.5102    2.8948    0.4330 H   0  0  0  0  0  0  0  0  0  0  0  0
    4.2189    2.7535    4.3725 H   0  0  0  0  0  0  0  0  0  0  0  0
    4.2471    0.2805    4.2771 H   0  0  0  0  0  0  0  0  0  0  0  0
    4.7777    0.9421   -0.9097 H   0  0  0  0  0  0  0  0  0  0  0  0
    2.8108    1.3608   -4.0844 H   0  0  0  0  0  0  0  0  0  0  0  0
    5.5521    3.6058   -6.0696 H   0  0  0  0  0  0  0  0  0  0  0  0
    6.8217    1.4202   -1.1283 H   0  0  0  0  0  0  0  0  0  0  0  0
    9.0299    2.4185   -1.4656 H   0  0  0  0  0  0  0  0  0  0  0  0
    9.5134    3.7769   -3.4787 H   0  0  0  0  0  0  0  0  0  0  0  0
    7.7848    4.0804   -5.1989 H   0  0  0  0  0  0  0  0  0  0  0  0
  1  2  1  0  0  0  0
  1 26  1  0  0  0  0
  1 27  1  0  0  0  0
  1 28  1  0  0  0  0
  2  3  1  0  0  0  0
  2  7  1  0  0  0  0
  2 13  1  6  0  0  0
  3  4  1  0  0  0  0
  3 29  1  0  0  0  0
  3 30  1  0  0  0  0
  4  5  1  0  0  0  0
  4 31  1  0  0  0  0
  4 32  1  0  0  0  0
  5  6  1  0  0  0  0
  6  7  1  0  0  0  0
  6 11  2  0  0  0  0
  7  8  2  0  0  0  0
  8  9  1  0  0  0  0
  8 33  1  0  0  0  0
  9 10  2  0  0  0  0
  9 12  1  0  0  0  0
 10 11  1  0  0  0  0
 10 34  1  0  0  0  0
 11 35  1  0  0  0  0
 13 14  2  0  0  0  0
 13 15  1  0  0  0  0
 15 16  1  0  0  0  0
 15 36  1  0  0  0  0
 16 17  1  0  0  0  0
 16 21  2  0  0  0  0
 17 18  2  0  0  0  0
 17 37  1  0  0  0  0
 18 19  1  0  0  0  0
 19 20  2  0  0  0  0
 19 38  1  0  0  0  0
 20 21  1  0  0  0  0
 20 25  1  0  0  0  0
 21 22  1  0  0  0  0
 22 23  2  0  0  0  0
 22 39  1  0  0  0  0
 23 24  1  0  0  0  0
 23 40  1  0  0  0  0
 24 25  2  0  0  0  0
 24 41  1  0  0  0  0
 25 42  1  0  0  0  0
M  END
$$$$
