
 OpenBabel07202414183D

 32 34  0  0  0  0  0  0  0  0999 V2000
   -1.4689   -5.4303   -1.1387 Cl  0  0  0  0  0  0  0  0  0  0  0  0
   -0.0611   -4.5770   -1.6392 C   0  0  0  0  0  0  0  0  0  0  0  0
    0.2984   -4.5604   -2.9824 C   0  0  0  0  0  0  0  0  0  0  0  0
    1.4265   -3.8446   -3.3820 C   0  0  0  0  0  0  0  0  0  0  0  0
    2.1984   -3.1573   -2.4382 C   0  0  0  0  0  0  0  0  0  0  0  0
    1.8667   -3.1998   -1.0764 C   0  0  0  0  0  0  0  0  0  0  0  0
    2.6382   -2.4439   -0.0170 C   0  0  0  0  0  0  0  0  0  0  0  0
    4.1053   -2.1974   -0.3117 C   0  0  0  0  0  0  0  0  0  0  0  0
    4.4778   -1.1429   -0.8221 O   0  0  0  0  0  0  0  0  0  0  0  0
    4.9467   -3.2351    0.0310 N   0  0  0  0  0  0  0  0  0  0  0  0
    6.2917   -3.1097   -0.1068 N   0  0  0  0  0  0  0  0  0  0  0  0
    6.9468   -2.6042   -1.1929 C   0  0  0  0  0  0  0  0  0  0  0  0
    8.2519   -2.6680   -1.0408 N   0  0  0  0  0  0  0  0  0  0  0  0
    8.4360   -3.2643    0.1838 C   0  0  0  0  0  0  0  0  0  0  0  0
    9.6379   -3.5713    0.8388 C   0  0  0  0  0  0  0  0  0  0  0  0
    9.5856   -4.2229    2.0751 C   0  0  0  0  0  0  0  0  0  0  0  0
    8.3588   -4.5639    2.6485 C   0  0  0  0  0  0  0  0  0  0  0  0
    7.1439   -4.2515    2.0201 C   0  0  0  0  0  0  0  0  0  0  0  0
    7.2167   -3.5888    0.7865 C   0  0  0  0  0  0  0  0  0  0  0  0
    0.7096   -3.8999   -0.6924 C   0  0  0  0  0  0  0  0  0  0  0  0
   -0.2998   -5.0879   -3.7214 H   0  0  0  0  0  0  0  0  0  0  0  0
    1.6970   -3.8084   -4.4352 H   0  0  0  0  0  0  0  0  0  0  0  0
    3.0517   -2.5801   -2.7920 H   0  0  0  0  0  0  0  0  0  0  0  0
    2.5734   -2.9748    0.9408 H   0  0  0  0  0  0  0  0  0  0  0  0
    2.1604   -1.4669    0.1306 H   0  0  0  0  0  0  0  0  0  0  0  0
    4.6179   -4.1161    0.3986 H   0  0  0  0  0  0  0  0  0  0  0  0
    6.4351   -2.1890   -2.0502 H   0  0  0  0  0  0  0  0  0  0  0  0
   10.5861   -3.3072    0.3821 H   0  0  0  0  0  0  0  0  0  0  0  0
   10.5132   -4.4670    2.5893 H   0  0  0  0  0  0  0  0  0  0  0  0
    8.3496   -5.0803    3.6069 H   0  0  0  0  0  0  0  0  0  0  0  0
    6.1983   -4.5131    2.4802 H   0  0  0  0  0  0  0  0  0  0  0  0
    0.3967   -3.9076    0.3498 H   0  0  0  0  0  0  0  0  0  0  0  0
  1  2  1  0  0  0  0
  2  3  1  0  0  0  0
  2 20  2  0  0  0  0
  3  4  2  0  0  0  0
  3 21  1  0  0  0  0
  4  5  1  0  0  0  0
  4 22  1  0  0  0  0
  5  6  2  0  0  0  0
  5 23  1  0  0  0  0
  6  7  1  0  0  0  0
  6 20  1  0  0  0  0
  7  8  1  0  0  0  0
  7 24  1  0  0  0  0
  7 25  1  0  0  0  0
  8  9  2  0  0  0  0
  8 10  1  0  0  0  0
 10 11  1  0  0  0  0
 10 26  1  0  0  0  0
 11 12  1  0  0  0  0
 11 19  1  0  0  0  0
 12 13  2  0  0  0  0
 12 27  1  0  0  0  0
 13 14  1  0  0  0  0
 14 15  1  0  0  0  0
 14 19  2  0  0  0  0
 15 16  2  0  0  0  0
 15 28  1  0  0  0  0
 16 17  1  0  0  0  0
 16 29  1  0  0  0  0
 17 18  2  0  0  0  0
 17 30  1  0  0  0  0
 18 19  1  0  0  0  0
 18 31  1  0  0  0  0
 20 32  1  0  0  0  0
M  END
$$$$
