
 OpenBabel07202414153D

 58 62  0  0  1  0  0  0  0  0999 V2000
   10.6063    2.5151    1.3051 C   0  0  0  0  0  0  0  0  0  0  0  0
    9.3702    2.3199    0.6263 O   0  0  0  0  0  0  0  0  0  0  0  0
    8.2682    2.8437    1.2439 C   0  0  0  0  0  0  0  0  0  0  0  0
    8.1531    3.0828    2.6093 C   0  0  0  0  0  0  0  0  0  0  0  0
    6.9576    3.5797    3.1381 C   0  0  0  0  0  0  0  0  0  0  0  0
    5.8390    3.8430    2.3160 C   0  0  0  0  0  0  0  0  0  0  0  0
    4.5769    4.2524    2.8016 C   0  0  0  0  0  0  0  0  0  0  0  0
    4.3691    4.5138    4.1760 N   0  0  0  0  0  0  0  0  0  0  0  0
    3.3302    3.9248    4.8760 C   0  0  0  0  0  0  0  0  0  0  0  0
    2.5602    3.0976    4.3870 O   0  0  0  0  0  0  0  0  0  0  0  0
    3.1182    4.4098    6.3057 C   0  0  3  0  0  0  0  0  0  0  0  0
    2.1319    5.5817    6.2436 C   0  0  0  0  0  0  0  0  0  0  0  0
    2.8405    6.8300    5.7942 N   0  0  0  0  0  0  0  0  0  0  0  0
    1.7373    8.0604    5.3239 S   0  0  0  0  0  0  0  0  0  0  0  0
    0.9071    7.5079    4.2756 O   0  0  0  0  0  0  0  0  0  0  0  0
    1.1660    8.5603    6.5521 O   0  0  0  0  0  0  0  0  0  0  0  0
    2.8191    9.2894    4.5928 C   0  0  0  0  0  0  0  0  0  0  0  0
    1.9921   10.4864    4.1804 C   0  0  0  0  0  0  0  0  0  0  0  0
    1.2725   11.1729    5.2333 C   0  0  0  0  0  0  0  0  0  0  0  0
    0.7224   11.7696    6.0598 N   0  0  0  0  0  0  0  0  0  0  0  0
    2.6903   11.4044    3.1799 C   0  0  0  0  0  0  0  0  0  0  0  0
    1.4707   10.6446    2.7596 C   0  0  0  0  0  0  0  0  0  0  0  0
    3.8333    7.2438    6.8254 C   0  0  0  0  0  0  0  0  0  0  0  0
    4.7191    6.1100    7.3082 C   0  0  0  0  0  0  0  0  0  0  0  0
    5.8617    6.4164    8.0606 C   0  0  0  0  0  0  0  0  0  0  0  0
    6.6678    5.3942    8.5783 C   0  0  0  0  0  0  0  0  0  0  0  0
    6.3249    4.0652    8.3551 C   0  0  0  0  0  0  0  0  0  0  0  0
    7.3005    2.8135    9.0173 Cl  0  0  0  0  0  0  0  0  0  0  0  0
    5.1913    3.7435    7.6086 C   0  0  0  0  0  0  0  0  0  0  0  0
    4.3762    4.7618    7.0820 C   0  0  0  0  0  0  0  0  0  0  0  0
    3.5343    4.4222    1.8889 C   0  0  0  0  0  0  0  0  0  0  0  0
    3.6592    4.2596    0.5526 N   0  0  0  0  0  0  0  0  0  0  0  0
    4.8663    3.8442    0.1109 C   0  0  0  0  0  0  0  0  0  0  0  0
    5.9717    3.6008    0.9302 C   0  0  0  0  0  0  0  0  0  0  0  0
    7.1793    3.1000    0.4106 C   0  0  0  0  0  0  0  0  0  0  0  0
   11.4086    2.1580    0.6530 H   0  0  0  0  0  0  0  0  0  0  0  0
   10.6527    1.9333    2.2314 H   0  0  0  0  0  0  0  0  0  0  0  0
   10.7773    3.5794    1.4994 H   0  0  0  0  0  0  0  0  0  0  0  0
    8.9597    2.8553    3.2980 H   0  0  0  0  0  0  0  0  0  0  0  0
    6.9043    3.7101    4.2154 H   0  0  0  0  0  0  0  0  0  0  0  0
    5.1626    4.8278    4.7177 H   0  0  0  0  0  0  0  0  0  0  0  0
    2.6252    3.5875    6.8425 H   0  0  0  0  0  0  0  0  0  0  0  0
    1.6950    5.7552    7.2359 H   0  0  0  0  0  0  0  0  0  0  0  0
    1.3133    5.3368    5.5576 H   0  0  0  0  0  0  0  0  0  0  0  0
    3.3150    8.8155    3.7393 H   0  0  0  0  0  0  0  0  0  0  0  0
    3.5590    9.5975    5.3340 H   0  0  0  0  0  0  0  0  0  0  0  0
    3.6406   11.0993    2.7538 H   0  0  0  0  0  0  0  0  0  0  0  0
    2.6117   12.4785    3.3217 H   0  0  0  0  0  0  0  0  0  0  0  0
    1.5907    9.8287    2.0559 H   0  0  0  0  0  0  0  0  0  0  0  0
    0.5651   11.2230    2.5921 H   0  0  0  0  0  0  0  0  0  0  0  0
    3.3232    7.6680    7.7002 H   0  0  0  0  0  0  0  0  0  0  0  0
    4.4955    7.9944    6.3855 H   0  0  0  0  0  0  0  0  0  0  0  0
    6.1324    7.4491    8.2618 H   0  0  0  0  0  0  0  0  0  0  0  0
    7.5463    5.6462    9.1700 H   0  0  0  0  0  0  0  0  0  0  0  0
    4.9266    2.6970    7.4606 H   0  0  0  0  0  0  0  0  0  0  0  0
    2.5486    4.7477    2.2133 H   0  0  0  0  0  0  0  0  0  0  0  0
    4.9192    3.6957   -0.9654 H   0  0  0  0  0  0  0  0  0  0  0  0
    7.2723    2.8871   -0.6529 H   0  0  0  0  0  0  0  0  0  0  0  0
  1  2  1  0  0  0  0
  1 36  1  0  0  0  0
  1 37  1  0  0  0  0
  1 38  1  0  0  0  0
  2  3  1  0  0  0  0
  3  4  1  0  0  0  0
  3 35  2  0  0  0  0
  4  5  2  0  0  0  0
  4 39  1  0  0  0  0
  5  6  1  0  0  0  0
  5 40  1  0  0  0  0
  6  7  1  0  0  0  0
  6 34  2  0  0  0  0
  7  8  1  0  0  0  0
  7 31  2  0  0  0  0
  8  9  1  0  0  0  0
  8 41  1  0  0  0  0
  9 10  2  0  0  0  0
  9 11  1  0  0  0  0
 11 12  1  0  0  0  0
 11 30  1  0  0  0  0
 11 42  1  0  0  0  0
 12 13  1  0  0  0  0
 12 43  1  0  0  0  0
 12 44  1  0  0  0  0
 13 14  1  0  0  0  0
 13 23  1  0  0  0  0
 14 15  2  0  0  0  0
 14 16  2  0  0  0  0
 14 17  1  0  0  0  0
 17 18  1  0  0  0  0
 17 45  1  0  0  0  0
 17 46  1  0  0  0  0
 18 19  1  0  0  0  0
 18 21  1  0  0  0  0
 18 22  1  0  0  0  0
 19 20  3  0  0  0  0
 21 22  1  0  0  0  0
 21 47  1  0  0  0  0
 21 48  1  0  0  0  0
 22 49  1  0  0  0  0
 22 50  1  0  0  0  0
 23 24  1  0  0  0  0
 23 51  1  0  0  0  0
 23 52  1  0  0  0  0
 24 25  1  0  0  0  0
 24 30  2  0  0  0  0
 25 26  2  0  0  0  0
 25 53  1  0  0  0  0
 26 27  1  0  0  0  0
 26 54  1  0  0  0  0
 27 28  1  0  0  0  0
 27 29  2  0  0  0  0
 29 30  1  0  0  0  0
 29 55  1  0  0  0  0
 31 32  1  0  0  0  0
 31 56  1  0  0  0  0
 32 33  2  0  0  0  0
 33 34  1  0  0  0  0
 33 57  1  0  0  0  0
 34 35  1  0  0  0  0
 35 58  1  0  0  0  0
M  END
$$$$
