
 OpenBabel07202414173D

 57 62  0  0  1  0  0  0  0  0999 V2000
    8.9738   -3.4516   -1.8273 Cl  0  0  0  0  0  0  0  0  0  0  0  0
    7.3121   -3.7531   -1.4977 C   0  0  0  0  0  0  0  0  0  0  0  0
    6.5708   -4.5610   -2.3544 C   0  0  0  0  0  0  0  0  0  0  0  0
    5.2119   -4.7710   -2.1064 C   0  0  0  0  0  0  0  0  0  0  0  0
    4.5915   -4.1641   -1.0181 C   0  0  0  0  0  0  0  0  0  0  0  0
    5.3373   -3.3576   -0.1518 C   0  0  0  0  0  0  0  0  0  0  0  0
    6.7073   -3.1598   -0.3916 C   0  0  0  0  0  0  0  0  0  0  0  0
    4.6462   -2.5976    0.9472 C   0  0  3  0  0  0  0  0  0  0  0  0
    4.7022   -3.1799    2.3668 C   0  0  0  0  0  0  0  0  0  0  0  0
    4.3625   -2.4276    3.2839 O   0  0  0  0  0  0  0  0  0  0  0  0
    5.1244   -4.4911    2.5449 N   0  0  0  0  0  0  0  0  0  0  0  0
    5.4439   -5.0802    3.8219 C   0  0  0  0  0  0  0  0  0  0  0  0
    5.0111   -4.4936    5.0200 C   0  0  0  0  0  0  0  0  0  0  0  0
    5.4120   -4.8612    6.2584 N   0  0  0  0  0  0  0  0  0  0  0  0
    6.2844   -5.8782    6.3242 C   0  0  0  0  0  0  0  0  0  0  0  0
    6.7319   -6.6067    5.2272 C   0  0  0  0  0  0  0  0  0  0  0  0
    7.6387   -7.6622    5.4272 C   0  0  0  0  0  0  0  0  0  0  0  0
    8.1854   -8.3461    4.3385 C   0  0  0  0  0  0  0  0  0  0  0  0
    7.8130   -7.9939    3.0433 C   0  0  0  0  0  0  0  0  0  0  0  0
    8.6621   -8.4767    1.8835 C   0  0  0  0  0  0  0  0  0  0  0  0
    8.4357   -9.8577    1.4231 N   0  0  0  0  0  0  0  0  0  0  0  0
    9.4746  -10.2041    0.3793 C   0  0  0  0  0  0  0  0  0  0  0  0
    8.5176   -9.7234   -0.6711 C   0  0  0  0  0  0  0  0  0  0  0  0
    8.8200   -8.4120   -1.3459 C   0  0  0  0  0  0  0  0  0  0  0  0
    9.1327   -9.1798   -2.5840 N   0  0  0  0  0  0  0  0  0  0  0  0
    8.4047  -10.3516   -2.0218 C   0  0  0  0  0  0  0  0  0  0  0  0
    7.4118   -9.8821    0.3295 C   0  0  0  0  0  0  0  0  0  0  0  0
    6.8181   -7.0015    2.8514 C   0  0  0  0  0  0  0  0  0  0  0  0
    6.2939   -6.2311    3.9288 C   0  0  0  0  0  0  0  0  0  0  0  0
    3.2100   -2.3304    0.5030 C   0  0  0  0  0  0  0  0  0  0  0  0
    2.5530   -3.6448    0.1200 C   0  0  0  0  0  0  0  0  0  0  0  0
    3.2439   -4.3552   -0.9149 O   0  0  0  0  0  0  0  0  0  0  0  0
    7.0300   -5.0084   -3.2325 H   0  0  0  0  0  0  0  0  0  0  0  0
    4.6243   -5.3727   -2.7959 H   0  0  0  0  0  0  0  0  0  0  0  0
    7.2877   -2.4963    0.2473 H   0  0  0  0  0  0  0  0  0  0  0  0
    5.1410   -1.6182    1.0258 H   0  0  0  0  0  0  0  0  0  0  0  0
    5.4422   -4.9941    1.7267 H   0  0  0  0  0  0  0  0  0  0  0  0
    4.3008   -3.6765    5.0487 H   0  0  0  0  0  0  0  0  0  0  0  0
    6.6507   -6.0811    7.3277 H   0  0  0  0  0  0  0  0  0  0  0  0
    7.9797   -7.9183    6.4249 H   0  0  0  0  0  0  0  0  0  0  0  0
    8.9405   -9.1123    4.5125 H   0  0  0  0  0  0  0  0  0  0  0  0
    9.7046   -8.3933    2.2214 H   0  0  0  0  0  0  0  0  0  0  0  0
    8.5675   -7.7357    1.0840 H   0  0  0  0  0  0  0  0  0  0  0  0
    9.6946  -11.2830    0.3338 H   0  0  0  0  0  0  0  0  0  0  0  0
   10.4374   -9.6829    0.4621 H   0  0  0  0  0  0  0  0  0  0  0  0
    9.6685   -7.8351   -0.9625 H   0  0  0  0  0  0  0  0  0  0  0  0
    7.9630   -7.7377   -1.4572 H   0  0  0  0  0  0  0  0  0  0  0  0
   10.1311   -9.3503   -2.7050 H   0  0  0  0  0  0  0  0  0  0  0  0
    8.8969  -11.3136   -2.1786 H   0  0  0  0  0  0  0  0  0  0  0  0
    7.3787  -10.4159   -2.4038 H   0  0  0  0  0  0  0  0  0  0  0  0
    6.9078  -10.8554    0.2660 H   0  0  0  0  0  0  0  0  0  0  0  0
    6.6371   -9.1083    0.3618 H   0  0  0  0  0  0  0  0  0  0  0  0
    6.4978   -6.7985    1.8316 H   0  0  0  0  0  0  0  0  0  0  0  0
    3.2254   -1.6686   -0.3760 H   0  0  0  0  0  0  0  0  0  0  0  0
    2.6301   -1.8187    1.2797 H   0  0  0  0  0  0  0  0  0  0  0  0
    1.5436   -3.4427   -0.2560 H   0  0  0  0  0  0  0  0  0  0  0  0
    2.4483   -4.3055    0.9853 H   0  0  0  0  0  0  0  0  0  0  0  0
  1  2  1  0  0  0  0
  2  3  1  0  0  0  0
  2  7  2  0  0  0  0
  3  4  2  0  0  0  0
  3 33  1  0  0  0  0
  4  5  1  0  0  0  0
  4 34  1  0  0  0  0
  5  6  2  0  0  0  0
  5 32  1  0  0  0  0
  6  7  1  0  0  0  0
  6  8  1  0  0  0  0
  7 35  1  0  0  0  0
  8  9  1  0  0  0  0
  8 30  1  0  0  0  0
  8 36  1  0  0  0  0
  9 10  2  0  0  0  0
  9 11  1  0  0  0  0
 11 12  1  0  0  0  0
 11 37  1  0  0  0  0
 12 13  1  0  0  0  0
 12 29  2  0  0  0  0
 13 14  2  0  0  0  0
 13 38  1  0  0  0  0
 14 15  1  0  0  0  0
 15 16  2  0  0  0  0
 15 39  1  0  0  0  0
 16 17  1  0  0  0  0
 16 29  1  0  0  0  0
 17 18  2  0  0  0  0
 17 40  1  0  0  0  0
 18 19  1  0  0  0  0
 18 41  1  0  0  0  0
 19 20  1  0  0  0  0
 19 28  2  0  0  0  0
 20 21  1  0  0  0  0
 20 42  1  0  0  0  0
 20 43  1  0  0  0  0
 21 22  1  0  0  0  0
 21 27  1  0  0  0  0
 22 23  1  0  0  0  0
 22 44  1  0  0  0  0
 22 45  1  0  0  0  0
 23 24  1  0  0  0  0
 23 26  1  0  0  0  0
 23 27  1  0  0  0  0
 24 25  1  0  0  0  0
 24 46  1  0  0  0  0
 24 47  1  0  0  0  0
 25 26  1  0  0  0  0
 25 48  1  0  0  0  0
 26 49  1  0  0  0  0
 26 50  1  0  0  0  0
 27 51  1  0  0  0  0
 27 52  1  0  0  0  0
 28 29  1  0  0  0  0
 28 53  1  0  0  0  0
 30 31  1  0  0  0  0
 30 54  1  0  0  0  0
 30 55  1  0  0  0  0
 31 32  1  0  0  0  0
 31 56  1  0  0  0  0
 31 57  1  0  0  0  0
M  END
$$$$
