
 OpenBabel07202414153D

 39 42  0  0  1  0  0  0  0  0999 V2000
    0.8932   -0.2259   -0.0641 C   0  0  0  0  0  0  0  0  0  0  0  0
    2.4166   -0.0943    0.0204 C   0  0  2  0  0  0  0  0  0  0  0  0
    3.0106   -1.0163    1.1080 C   0  0  0  0  0  0  0  0  0  0  0  0
    2.8455   -0.5059    2.5462 C   0  0  0  0  0  0  0  0  0  0  0  0
    3.0141    0.9294    2.6335 N   0  0  0  0  0  0  0  0  0  0  0  0
    2.4274    1.8018    1.6537 C   0  0  2  0  0  0  0  0  0  0  0  0
    2.8412    1.3677    0.2609 C   0  0  0  0  0  0  0  0  0  0  0  0
    2.9636    3.1487    2.1128 C   0  0  0  0  0  0  0  0  0  0  0  0
    2.8937    4.1692    1.4417 O   0  0  0  0  0  0  0  0  0  0  0  0
    3.5070    2.9764    3.3700 N   0  0  0  0  0  0  0  0  0  0  0  0
    4.1686    4.0029    4.0883 C   0  0  0  0  0  0  0  0  0  0  0  0
    3.6056    5.2895    4.3197 C   0  0  0  0  0  0  0  0  0  0  0  0
    2.2638    5.6641    4.0365 C   0  0  0  0  0  0  0  0  0  0  0  0
    1.7765    6.9428    4.3251 C   0  0  0  0  0  0  0  0  0  0  0  0
    2.6079    7.8909    4.9055 C   0  0  0  0  0  0  0  0  0  0  0  0
    3.9226    7.5546    5.2137 C   0  0  0  0  0  0  0  0  0  0  0  0
    4.4174    6.2649    4.9454 C   0  0  0  0  0  0  0  0  0  0  0  0
    5.7175    5.9106    5.3094 C   0  0  0  0  0  0  0  0  0  0  0  0
    6.2539    4.6847    5.1481 N   0  0  0  0  0  0  0  0  0  0  0  0
    5.4634    3.7624    4.5596 C   0  0  0  0  0  0  0  0  0  0  0  0
    3.5873    1.6354    3.6750 C   0  0  0  0  0  0  0  0  0  0  0  0
    4.0724    1.1226    4.6719 O   0  0  0  0  0  0  0  0  0  0  0  0
    0.6110   -1.2345   -0.3813 H   0  0  0  0  0  0  0  0  0  0  0  0
    0.4865    0.4801   -0.7969 H   0  0  0  0  0  0  0  0  0  0  0  0
    0.4043   -0.0340    0.8957 H   0  0  0  0  0  0  0  0  0  0  0  0
    2.8214   -0.4095   -0.9500 H   0  0  0  0  0  0  0  0  0  0  0  0
    4.0851   -1.1179    0.9052 H   0  0  0  0  0  0  0  0  0  0  0  0
    2.5884   -2.0257    1.0289 H   0  0  0  0  0  0  0  0  0  0  0  0
    3.5723   -0.9951    3.2045 H   0  0  0  0  0  0  0  0  0  0  0  0
    1.8466   -0.7411    2.9275 H   0  0  0  0  0  0  0  0  0  0  0  0
    1.3414    1.8108    1.7909 H   0  0  0  0  0  0  0  0  0  0  0  0
    3.9324    1.4418    0.1533 H   0  0  0  0  0  0  0  0  0  0  0  0
    2.4108    2.0310   -0.4977 H   0  0  0  0  0  0  0  0  0  0  0  0
    1.5699    4.9521    3.5974 H   0  0  0  0  0  0  0  0  0  0  0  0
    0.7422    7.1941    4.0972 H   0  0  0  0  0  0  0  0  0  0  0  0
    2.2328    8.8864    5.1294 H   0  0  0  0  0  0  0  0  0  0  0  0
    4.5589    8.3016    5.6851 H   0  0  0  0  0  0  0  0  0  0  0  0
    6.3858    6.6293    5.7771 H   0  0  0  0  0  0  0  0  0  0  0  0
    5.9471    2.7976    4.4244 H   0  0  0  0  0  0  0  0  0  0  0  0
  1  2  1  0  0  0  0
  1 23  1  0  0  0  0
  1 24  1  0  0  0  0
  1 25  1  0  0  0  0
  2  3  1  0  0  0  0
  2  7  1  0  0  0  0
  2 26  1  6  0  0  0
  3  4  1  0  0  0  0
  3 27  1  0  0  0  0
  3 28  1  0  0  0  0
  4  5  1  0  0  0  0
  4 29  1  0  0  0  0
  4 30  1  0  0  0  0
  5  6  1  0  0  0  0
  5 21  1  0  0  0  0
  6  7  1  0  0  0  0
  6  8  1  0  0  0  0
  6 31  1  1  0  0  0
  7 32  1  0  0  0  0
  7 33  1  0  0  0  0
  8  9  2  0  0  0  0
  8 10  1  0  0  0  0
 10 11  1  0  0  0  0
 10 21  1  0  0  0  0
 11 12  2  0  0  0  0
 11 20  1  0  0  0  0
 12 13  1  0  0  0  0
 12 17  1  0  0  0  0
 13 14  2  0  0  0  0
 13 34  1  0  0  0  0
 14 15  1  0  0  0  0
 14 35  1  0  0  0  0
 15 16  2  0  0  0  0
 15 36  1  0  0  0  0
 16 17  1  0  0  0  0
 16 37  1  0  0  0  0
 17 18  2  0  0  0  0
 18 19  1  0  0  0  0
 18 38  1  0  0  0  0
 19 20  2  0  0  0  0
 20 39  1  0  0  0  0
 21 22  2  0  0  0  0
M  END
$$$$
