
 OpenBabel07202414183D

 50 53  0  0  1  0  0  0  0  0999 V2000
    9.4088   -1.8893    5.9118 F   0  0  0  0  0  0  0  0  0  0  0  0
    8.0757   -1.6188    5.9908 C   0  0  0  0  0  0  0  0  0  0  0  0
    7.4396   -2.6680    5.3964 F   0  0  0  0  0  0  0  0  0  0  0  0
    7.7543   -1.6724    7.3143 F   0  0  0  0  0  0  0  0  0  0  0  0
    7.7045   -0.2910    5.3626 C   0  0  0  0  0  0  0  0  0  0  0  0
    8.6304    0.5406    4.7497 N   0  0  0  0  0  0  0  0  0  0  0  0
    7.9158    1.5623    4.3411 C   0  0  0  0  0  0  0  0  0  0  0  0
    6.6167    1.3785    4.6933 N   0  0  0  0  0  0  0  0  0  0  0  0
    5.4719    2.1888    4.3416 C   0  0  0  0  0  0  0  0  0  0  0  0
    5.5886    3.6088    4.8457 C   0  0  0  0  0  0  0  0  0  0  0  0
    6.4775    4.3669    4.4608 O   0  0  0  0  0  0  0  0  0  0  0  0
    4.6031    4.0163    5.7123 N   0  0  0  0  0  0  0  0  0  0  0  0
    4.4508    5.4102    6.1175 C   0  0  3  0  0  0  0  0  0  0  0  0
    2.9321    5.7094    6.2090 C   0  0  0  0  0  0  0  0  0  0  0  0
    2.1321    4.8037    6.4470 O   0  0  0  0  0  0  0  0  0  0  0  0
    2.5994    7.0412    6.0030 N   0  0  0  0  0  0  0  0  0  0  0  0
    1.3064    7.6127    6.1634 C   0  0  0  0  0  0  0  0  0  0  0  0
    0.3061    6.9759    6.9031 C   0  0  0  0  0  0  0  0  0  0  0  0
   -0.9290    7.4787    7.1280 N   0  0  0  0  0  0  0  0  0  0  0  0
   -1.1944    8.6805    6.5817 C   0  0  0  0  0  0  0  0  0  0  0  0
   -0.2916    9.4220    5.8225 C   0  0  0  0  0  0  0  0  0  0  0  0
   -0.6639   10.6670    5.2850 C   0  0  0  0  0  0  0  0  0  0  0  0
    0.2262   11.4014    4.5084 C   0  0  0  0  0  0  0  0  0  0  0  0
    1.4967   10.8986    4.2627 C   0  0  0  0  0  0  0  0  0  0  0  0
    1.8812    9.6640    4.8003 C   0  0  0  0  0  0  0  0  0  0  0  0
    1.0023    8.8873    5.6005 C   0  0  0  0  0  0  0  0  0  0  0  0
    5.1827    5.6955    7.4173 C   0  0  0  0  0  0  0  0  0  0  0  0
    4.5949    5.4866    8.6772 C   0  0  0  0  0  0  0  0  0  0  0  0
    5.2844    5.8090    9.8503 C   0  0  0  0  0  0  0  0  0  0  0  0
    6.5775    6.3248    9.7833 C   0  0  0  0  0  0  0  0  0  0  0  0
    7.1849    6.4984    8.5432 C   0  0  0  0  0  0  0  0  0  0  0  0
    8.7834    7.1284    8.4549 Cl  0  0  0  0  0  0  0  0  0  0  0  0
    6.5015    6.1800    7.3689 C   0  0  0  0  0  0  0  0  0  0  0  0
    6.4453    0.2008    5.3276 N   0  0  0  0  0  0  0  0  0  0  0  0
    8.2786    2.4277    3.8017 H   0  0  0  0  0  0  0  0  0  0  0  0
    4.5687    1.7040    4.7258 H   0  0  0  0  0  0  0  0  0  0  0  0
    5.4048    2.2097    3.2482 H   0  0  0  0  0  0  0  0  0  0  0  0
    3.8565    3.3878    5.9996 H   0  0  0  0  0  0  0  0  0  0  0  0
    4.8574    6.0473    5.3214 H   0  0  0  0  0  0  0  0  0  0  0  0
    3.3229    7.6482    5.6420 H   0  0  0  0  0  0  0  0  0  0  0  0
    0.4663    6.0224    7.3954 H   0  0  0  0  0  0  0  0  0  0  0  0
   -2.1992    9.0463    6.7803 H   0  0  0  0  0  0  0  0  0  0  0  0
   -1.6596   11.0699    5.4632 H   0  0  0  0  0  0  0  0  0  0  0  0
   -0.0761   12.3586    4.0903 H   0  0  0  0  0  0  0  0  0  0  0  0
    2.1909   11.4643    3.6456 H   0  0  0  0  0  0  0  0  0  0  0  0
    2.8810    9.3165    4.5588 H   0  0  0  0  0  0  0  0  0  0  0  0
    3.5886    5.0787    8.7682 H   0  0  0  0  0  0  0  0  0  0  0  0
    4.8105    5.6604   10.8185 H   0  0  0  0  0  0  0  0  0  0  0  0
    7.1058    6.5821   10.6976 H   0  0  0  0  0  0  0  0  0  0  0  0
    7.0002    6.3103    6.4096 H   0  0  0  0  0  0  0  0  0  0  0  0
  1  2  1  0  0  0  0
  2  3  1  0  0  0  0
  2  4  1  0  0  0  0
  2  5  1  0  0  0  0
  5  6  1  0  0  0  0
  5 34  2  0  0  0  0
  6  7  2  0  0  0  0
  7  8  1  0  0  0  0
  7 35  1  0  0  0  0
  8  9  1  0  0  0  0
  8 34  1  0  0  0  0
  9 10  1  0  0  0  0
  9 36  1  0  0  0  0
  9 37  1  0  0  0  0
 10 11  2  0  0  0  0
 10 12  1  0  0  0  0
 12 13  1  0  0  0  0
 12 38  1  0  0  0  0
 13 14  1  0  0  0  0
 13 27  1  0  0  0  0
 13 39  1  0  0  0  0
 14 15  2  0  0  0  0
 14 16  1  0  0  0  0
 16 17  1  0  0  0  0
 16 40  1  0  0  0  0
 17 18  1  0  0  0  0
 17 26  2  0  0  0  0
 18 19  2  0  0  0  0
 18 41  1  0  0  0  0
 19 20  1  0  0  0  0
 20 21  2  0  0  0  0
 20 42  1  0  0  0  0
 21 22  1  0  0  0  0
 21 26  1  0  0  0  0
 22 23  2  0  0  0  0
 22 43  1  0  0  0  0
 23 24  1  0  0  0  0
 23 44  1  0  0  0  0
 24 25  2  0  0  0  0
 24 45  1  0  0  0  0
 25 26  1  0  0  0  0
 25 46  1  0  0  0  0
 27 28  1  0  0  0  0
 27 33  2  0  0  0  0
 28 29  2  0  0  0  0
 28 47  1  0  0  0  0
 29 30  1  0  0  0  0
 29 48  1  0  0  0  0
 30 31  2  0  0  0  0
 30 49  1  0  0  0  0
 31 32  1  0  0  0  0
 31 33  1  0  0  0  0
 33 50  1  0  0  0  0
M  END
$$$$
