
 OpenBabel07202414153D

 43 45  0  0  0  0  0  0  0  0999 V2000
    3.0822   -2.1017    1.5392 C   0  0  0  0  0  0  0  0  0  0  0  0
    2.8382   -0.7581    1.1455 O   0  0  0  0  0  0  0  0  0  0  0  0
    2.7310   -0.4690   -0.1891 C   0  0  0  0  0  0  0  0  0  0  0  0
    2.3978   -1.4539   -1.1360 C   0  0  0  0  0  0  0  0  0  0  0  0
    2.2310   -1.1300   -2.4843 C   0  0  0  0  0  0  0  0  0  0  0  0
    2.3801    0.1916   -2.8937 C   0  0  0  0  0  0  0  0  0  0  0  0
    2.7095    1.1801   -1.9591 C   0  0  0  0  0  0  0  0  0  0  0  0
    2.9034    0.8648   -0.6120 C   0  0  0  0  0  0  0  0  0  0  0  0
    3.2281    1.9718    0.1528 O   0  0  0  0  0  0  0  0  0  0  0  0
    3.5265    1.7662    1.5374 C   0  0  0  0  0  0  0  0  0  0  0  0
    3.9873    3.0737    2.2134 C   0  0  0  0  0  0  0  0  0  0  0  0
    2.9673    4.1072    2.3101 N   0  0  0  0  0  0  0  0  0  0  0  0
    1.8167    3.9073    3.0299 C   0  0  0  0  0  0  0  0  0  0  0  0
    1.6871    2.9481    3.7876 O   0  0  0  0  0  0  0  0  0  0  0  0
    0.6629    4.8069    2.6813 C   0  0  0  0  0  0  0  0  0  0  0  0
   -0.5032    4.1943    2.9581 C   0  0  0  0  0  0  0  0  0  0  0  0
   -1.5042    4.0955    1.8706 C   0  0  0  0  0  0  0  0  0  0  0  0
   -2.4506    3.3201    1.9637 O   0  0  0  0  0  0  0  0  0  0  0  0
   -1.2809    4.8241    0.7369 N   0  0  0  0  0  0  0  0  0  0  0  0
   -0.2888    5.7960    0.6472 C   0  0  0  0  0  0  0  0  0  0  0  0
    0.6747    5.8683    1.6612 C   0  0  0  0  0  0  0  0  0  0  0  0
    1.5328    6.9725    1.6695 C   0  0  0  0  0  0  0  0  0  0  0  0
    1.4781    7.9417    0.6675 C   0  0  0  0  0  0  0  0  0  0  0  0
    0.5746    7.7973   -0.3811 C   0  0  0  0  0  0  0  0  0  0  0  0
   -0.3112    6.7229   -0.3909 C   0  0  0  0  0  0  0  0  0  0  0  0
    2.4193    7.1322    2.6677 F   0  0  0  0  0  0  0  0  0  0  0  0
    3.2331   -2.1035    2.6240 H   0  0  0  0  0  0  0  0  0  0  0  0
    3.9952   -2.4858    1.0739 H   0  0  0  0  0  0  0  0  0  0  0  0
    2.2237   -2.7464    1.3300 H   0  0  0  0  0  0  0  0  0  0  0  0
    2.2442   -2.4895   -0.8415 H   0  0  0  0  0  0  0  0  0  0  0  0
    1.9747   -1.9000   -3.2048 H   0  0  0  0  0  0  0  0  0  0  0  0
    2.2367    0.4567   -3.9388 H   0  0  0  0  0  0  0  0  0  0  0  0
    2.8160    2.2069   -2.2947 H   0  0  0  0  0  0  0  0  0  0  0  0
    4.3592    1.0568    1.6207 H   0  0  0  0  0  0  0  0  0  0  0  0
    2.6395    1.3830    2.0496 H   0  0  0  0  0  0  0  0  0  0  0  0
    4.8216    3.5103    1.6561 H   0  0  0  0  0  0  0  0  0  0  0  0
    4.3190    2.8474    3.2320 H   0  0  0  0  0  0  0  0  0  0  0  0
    3.1207    4.9739    1.8173 H   0  0  0  0  0  0  0  0  0  0  0  0
   -0.6089    3.4132    3.7042 H   0  0  0  0  0  0  0  0  0  0  0  0
   -1.9479    4.6914   -0.0083 H   0  0  0  0  0  0  0  0  0  0  0  0
    2.1325    8.8080    0.7149 H   0  0  0  0  0  0  0  0  0  0  0  0
    0.5341    8.5446   -1.1784 H   0  0  0  0  0  0  0  0  0  0  0  0
   -1.0386    6.6287   -1.2015 H   0  0  0  0  0  0  0  0  0  0  0  0
  1  2  1  0  0  0  0
  1 27  1  0  0  0  0
  1 28  1  0  0  0  0
  1 29  1  0  0  0  0
  2  3  1  0  0  0  0
  3  4  1  0  0  0  0
  3  8  2  0  0  0  0
  4  5  2  0  0  0  0
  4 30  1  0  0  0  0
  5  6  1  0  0  0  0
  5 31  1  0  0  0  0
  6  7  2  0  0  0  0
  6 32  1  0  0  0  0
  7  8  1  0  0  0  0
  7 33  1  0  0  0  0
  8  9  1  0  0  0  0
  9 10  1  0  0  0  0
 10 11  1  0  0  0  0
 10 34  1  0  0  0  0
 10 35  1  0  0  0  0
 11 12  1  0  0  0  0
 11 36  1  0  0  0  0
 11 37  1  0  0  0  0
 12 13  1  0  0  0  0
 12 38  1  0  0  0  0
 13 14  2  0  0  0  0
 13 15  1  0  0  0  0
 15 16  2  0  0  0  0
 15 21  1  0  0  0  0
 16 17  1  0  0  0  0
 16 39  1  0  0  0  0
 17 18  2  0  0  0  0
 17 19  1  0  0  0  0
 19 20  1  0  0  0  0
 19 40  1  0  0  0  0
 20 21  1  0  0  0  0
 20 25  2  0  0  0  0
 21 22  2  0  0  0  0
 22 23  1  0  0  0  0
 22 26  1  0  0  0  0
 23 24  2  0  0  0  0
 23 41  1  0  0  0  0
 24 25  1  0  0  0  0
 24 42  1  0  0  0  0
 25 43  1  0  0  0  0
M  END
$$$$
