
 OpenBabel07202414183D

 45 48  0  0  1  0  0  0  0  0999 V2000
    3.5164    1.3608   -0.9164 Cl  0  0  0  0  0  0  0  0  0  0  0  0
    4.5852    0.9559    0.3702 C   0  0  0  0  0  0  0  0  0  0  0  0
    5.0836    1.9591    1.1954 C   0  0  0  0  0  0  0  0  0  0  0  0
    5.9878    1.6320    2.2055 C   0  0  0  0  0  0  0  0  0  0  0  0
    6.4087    0.3115    2.3768 C   0  0  0  0  0  0  0  0  0  0  0  0
    5.9195   -0.7032    1.5464 C   0  0  0  0  0  0  0  0  0  0  0  0
    4.9848   -0.3698    0.5480 C   0  0  0  0  0  0  0  0  0  0  0  0
    6.5090   -2.1003    1.5960 C   0  0  2  0  0  0  0  0  0  0  0  0
    5.5690   -3.2104    2.1438 C   0  0  0  0  0  0  0  0  0  0  0  0
    4.4313   -2.9530    2.5334 O   0  0  0  0  0  0  0  0  0  0  0  0
    6.0732   -4.5392    2.1718 N   0  0  0  0  0  0  0  0  0  0  0  0
    7.0057   -5.0476    1.2463 C   0  0  0  0  0  0  0  0  0  0  0  0
    7.9355   -5.8007    1.5269 O   0  0  0  0  0  0  0  0  0  0  0  0
    6.9517   -4.5049   -0.1391 C   0  0  0  0  0  0  0  0  0  0  0  0
    8.1190   -4.1696   -0.7171 C   0  0  0  0  0  0  0  0  0  0  0  0
    6.0014   -5.2358    3.4595 C   0  0  0  0  0  0  0  0  0  0  0  0
    6.0108   -4.4876    4.6397 C   0  0  0  0  0  0  0  0  0  0  0  0
    6.3863   -4.9550    5.8507 N   0  0  0  0  0  0  0  0  0  0  0  0
    6.7074   -6.2617    5.9113 C   0  0  0  0  0  0  0  0  0  0  0  0
    6.5514   -7.1589    4.8585 C   0  0  0  0  0  0  0  0  0  0  0  0
    6.7956   -8.5311    5.0431 C   0  0  0  0  0  0  0  0  0  0  0  0
    6.5514   -9.4386    4.0177 C   0  0  0  0  0  0  0  0  0  0  0  0
    6.0587   -8.9812    2.8016 C   0  0  0  0  0  0  0  0  0  0  0  0
    5.8595   -7.6119    2.5945 C   0  0  0  0  0  0  0  0  0  0  0  0
    6.1393   -6.6498    3.6029 C   0  0  0  0  0  0  0  0  0  0  0  0
    7.8469   -2.0599    2.3389 C   0  0  0  0  0  0  0  0  0  0  0  0
    7.7096   -1.2308    3.6038 C   0  0  0  0  0  0  0  0  0  0  0  0
    7.3768    0.1261    3.3239 O   0  0  0  0  0  0  0  0  0  0  0  0
    4.7913    2.9950    1.0482 H   0  0  0  0  0  0  0  0  0  0  0  0
    6.3948    2.4136    2.8423 H   0  0  0  0  0  0  0  0  0  0  0  0
    4.6039   -1.1340   -0.1256 H   0  0  0  0  0  0  0  0  0  0  0  0
    6.7128   -2.3070    0.5483 H   0  0  0  0  0  0  0  0  0  0  0  0
    5.9927   -4.2997   -0.6013 H   0  0  0  0  0  0  0  0  0  0  0  0
    9.0677   -4.3418   -0.2094 H   0  0  0  0  0  0  0  0  0  0  0  0
    8.1585   -3.6753   -1.6797 H   0  0  0  0  0  0  0  0  0  0  0  0
    5.7774   -3.4291    4.6594 H   0  0  0  0  0  0  0  0  0  0  0  0
    7.0809   -6.5862    6.8802 H   0  0  0  0  0  0  0  0  0  0  0  0
    7.1616   -8.9039    5.9981 H   0  0  0  0  0  0  0  0  0  0  0  0
    6.7277  -10.4998    4.1742 H   0  0  0  0  0  0  0  0  0  0  0  0
    5.8344   -9.6901    2.0086 H   0  0  0  0  0  0  0  0  0  0  0  0
    5.4612   -7.2984    1.6324 H   0  0  0  0  0  0  0  0  0  0  0  0
    8.5922   -1.5883    1.6850 H   0  0  0  0  0  0  0  0  0  0  0  0
    8.2239   -3.0555    2.5865 H   0  0  0  0  0  0  0  0  0  0  0  0
    8.6682   -1.2263    4.1330 H   0  0  0  0  0  0  0  0  0  0  0  0
    6.9658   -1.6403    4.2925 H   0  0  0  0  0  0  0  0  0  0  0  0
  1  2  1  0  0  0  0
  2  3  1  0  0  0  0
  2  7  2  0  0  0  0
  3  4  2  0  0  0  0
  3 29  1  0  0  0  0
  4  5  1  0  0  0  0
  4 30  1  0  0  0  0
  5  6  2  0  0  0  0
  5 28  1  0  0  0  0
  6  7  1  0  0  0  0
  6  8  1  0  0  0  0
  7 31  1  0  0  0  0
  8  9  1  0  0  0  0
  8 26  1  0  0  0  0
  8 32  1  6  0  0  0
  9 10  2  0  0  0  0
  9 11  1  0  0  0  0
 11 12  1  0  0  0  0
 11 16  1  0  0  0  0
 12 13  2  0  0  0  0
 12 14  1  0  0  0  0
 14 15  2  0  0  0  0
 14 33  1  0  0  0  0
 15 34  1  0  0  0  0
 15 35  1  0  0  0  0
 16 17  1  0  0  0  0
 16 25  2  0  0  0  0
 17 18  2  0  0  0  0
 17 36  1  0  0  0  0
 18 19  1  0  0  0  0
 19 20  2  0  0  0  0
 19 37  1  0  0  0  0
 20 21  1  0  0  0  0
 20 25  1  0  0  0  0
 21 22  2  0  0  0  0
 21 38  1  0  0  0  0
 22 23  1  0  0  0  0
 22 39  1  0  0  0  0
 23 24  2  0  0  0  0
 23 40  1  0  0  0  0
 24 25  1  0  0  0  0
 24 41  1  0  0  0  0
 26 27  1  0  0  0  0
 26 42  1  0  0  0  0
 26 43  1  0  0  0  0
 27 28  1  0  0  0  0
 27 44  1  0  0  0  0
 27 45  1  0  0  0  0
M  END
$$$$
