
 OpenBabel07202414133D

 54 55  0  0  1  0  0  0  0  0999 V2000
    9.1786   -1.1336    0.3153 C   0  0  0  0  0  0  0  0  0  0  0  0
    7.9417   -1.7105   -0.3546 C   0  0  0  0  0  0  0  0  0  0  0  0
    6.9485   -2.1565    0.6028 N   0  0  0  0  0  0  0  0  0  0  0  0
    5.9575   -1.3223    1.0677 C   0  0  0  0  0  0  0  0  0  0  0  0
    5.8676   -0.1541    0.6781 O   0  0  0  0  0  0  0  0  0  0  0  0
    5.0539   -1.8391    2.2288 C   0  0  3  0  0  0  0  0  0  0  0  0
    4.5767   -3.2556    2.1977 N   0  0  0  0  0  0  0  0  0  0  0  0
    5.4601   -4.3210    2.3421 C   0  0  0  0  0  0  0  0  0  0  0  0
    6.6836   -4.1800    2.4010 O   0  0  0  0  0  0  0  0  0  0  0  0
    4.9019   -5.7074    2.3003 C   0  0  0  0  0  0  0  0  0  0  0  0
    5.4791   -6.7039    2.9854 C   0  0  0  0  0  0  0  0  0  0  0  0
    3.1595   -3.4426    2.2385 C   0  0  0  0  0  0  0  0  0  0  0  0
    2.5641   -4.1234    3.3029 C   0  0  0  0  0  0  0  0  0  0  0  0
    1.2031   -4.4337    3.2811 C   0  0  0  0  0  0  0  0  0  0  0  0
    0.3770   -4.0679    2.2042 C   0  0  0  0  0  0  0  0  0  0  0  0
   -1.1242   -4.4230    2.1661 C   0  0  0  0  0  0  0  0  0  0  0  0
   -1.5977   -5.1988    3.4191 C   0  0  0  0  0  0  0  0  0  0  0  0
   -1.9646   -3.1318    2.0796 C   0  0  0  0  0  0  0  0  0  0  0  0
   -1.4537   -5.3081    0.9436 C   0  0  0  0  0  0  0  0  0  0  0  0
    0.9827   -3.3416    1.1597 C   0  0  0  0  0  0  0  0  0  0  0  0
    2.3520   -3.0212    1.1783 C   0  0  0  0  0  0  0  0  0  0  0  0
    5.5968   -1.3579    3.5741 C   0  0  0  0  0  0  0  0  0  0  0  0
    4.8564   -0.4725    4.3707 C   0  0  0  0  0  0  0  0  0  0  0  0
    5.4297    0.0962    5.5076 C   0  0  0  0  0  0  0  0  0  0  0  0
    6.7263   -0.2544    5.8359 C   0  0  0  0  0  0  0  0  0  0  0  0
    7.4625   -1.1276    5.1230 N   0  0  0  0  0  0  0  0  0  0  0  0
    6.8888   -1.6480    4.0104 C   0  0  0  0  0  0  0  0  0  0  0  0
    9.9330   -0.8831   -0.4385 H   0  0  0  0  0  0  0  0  0  0  0  0
    9.6210   -1.8507    1.0143 H   0  0  0  0  0  0  0  0  0  0  0  0
    8.9432   -0.2218    0.8738 H   0  0  0  0  0  0  0  0  0  0  0  0
    8.2155   -2.5782   -0.9608 H   0  0  0  0  0  0  0  0  0  0  0  0
    7.5000   -0.9576   -1.0165 H   0  0  0  0  0  0  0  0  0  0  0  0
    7.1297   -3.0207    1.1149 H   0  0  0  0  0  0  0  0  0  0  0  0
    4.1445   -1.2408    2.0599 H   0  0  0  0  0  0  0  0  0  0  0  0
    4.0191   -5.8910    1.7002 H   0  0  0  0  0  0  0  0  0  0  0  0
    6.3655   -6.5433    3.5919 H   0  0  0  0  0  0  0  0  0  0  0  0
    5.0644   -7.7064    2.9568 H   0  0  0  0  0  0  0  0  0  0  0  0
    3.1597   -4.4321    4.1624 H   0  0  0  0  0  0  0  0  0  0  0  0
    0.8119   -4.9831    4.1339 H   0  0  0  0  0  0  0  0  0  0  0  0
   -1.4362   -4.6197    4.3357 H   0  0  0  0  0  0  0  0  0  0  0  0
   -1.0688   -6.1546    3.5216 H   0  0  0  0  0  0  0  0  0  0  0  0
   -2.6680   -5.4293    3.3678 H   0  0  0  0  0  0  0  0  0  0  0  0
   -1.7633   -2.4715    2.9307 H   0  0  0  0  0  0  0  0  0  0  0  0
   -3.0375   -3.3589    2.0797 H   0  0  0  0  0  0  0  0  0  0  0  0
   -1.7574   -2.5664    1.1647 H   0  0  0  0  0  0  0  0  0  0  0  0
   -0.9106   -6.2594    0.9808 H   0  0  0  0  0  0  0  0  0  0  0  0
   -1.2058   -4.8194   -0.0042 H   0  0  0  0  0  0  0  0  0  0  0  0
   -2.5258   -5.5443    0.9114 H   0  0  0  0  0  0  0  0  0  0  0  0
    0.3954   -3.0246    0.2987 H   0  0  0  0  0  0  0  0  0  0  0  0
    2.7810   -2.4932    0.3294 H   0  0  0  0  0  0  0  0  0  0  0  0
    3.8489   -0.1774    4.0864 H   0  0  0  0  0  0  0  0  0  0  0  0
    4.8875    0.8182    6.1079 H   0  0  0  0  0  0  0  0  0  0  0  0
    7.2278    0.1793    6.6961 H   0  0  0  0  0  0  0  0  0  0  0  0
    7.5556   -2.2990    3.4541 H   0  0  0  0  0  0  0  0  0  0  0  0
  1  2  1  0  0  0  0
  1 28  1  0  0  0  0
  1 29  1  0  0  0  0
  1 30  1  0  0  0  0
  2  3  1  0  0  0  0
  2 31  1  0  0  0  0
  2 32  1  0  0  0  0
  3  4  1  0  0  0  0
  3 33  1  0  0  0  0
  4  5  2  0  0  0  0
  4  6  1  0  0  0  0
  6  7  1  0  0  0  0
  6 22  1  0  0  0  0
  6 34  1  0  0  0  0
  7  8  1  0  0  0  0
  7 12  1  0  0  0  0
  8  9  2  0  0  0  0
  8 10  1  0  0  0  0
 10 11  2  0  0  0  0
 10 35  1  0  0  0  0
 11 36  1  0  0  0  0
 11 37  1  0  0  0  0
 12 13  1  0  0  0  0
 12 21  2  0  0  0  0
 13 14  2  0  0  0  0
 13 38  1  0  0  0  0
 14 15  1  0  0  0  0
 14 39  1  0  0  0  0
 15 16  1  0  0  0  0
 15 20  2  0  0  0  0
 16 17  1  0  0  0  0
 16 18  1  0  0  0  0
 16 19  1  0  0  0  0
 17 40  1  0  0  0  0
 17 41  1  0  0  0  0
 17 42  1  0  0  0  0
 18 43  1  0  0  0  0
 18 44  1  0  0  0  0
 18 45  1  0  0  0  0
 19 46  1  0  0  0  0
 19 47  1  0  0  0  0
 19 48  1  0  0  0  0
 20 21  1  0  0  0  0
 20 49  1  0  0  0  0
 21 50  1  0  0  0  0
 22 23  1  0  0  0  0
 22 27  2  0  0  0  0
 23 24  2  0  0  0  0
 23 51  1  0  0  0  0
 24 25  1  0  0  0  0
 24 52  1  0  0  0  0
 25 26  2  0  0  0  0
 25 53  1  0  0  0  0
 26 27  1  0  0  0  0
 27 54  1  0  0  0  0
M  END
$$$$
