
 OpenBabel07202414143D

 41 43  0  0  0  0  0  0  0  0999 V2000
    0.9378   -0.1454   -0.0487 C   0  0  0  0  0  0  0  0  0  0  0  0
    2.3768   -0.1461    0.0384 N   0  0  0  0  0  0  0  0  0  0  0  0
    3.0475   -1.0597    0.8237 C   0  0  0  0  0  0  0  0  0  0  0  0
    2.4964   -1.9456    1.4640 O   0  0  0  0  0  0  0  0  0  0  0  0
    4.5311   -0.9364    0.8295 C   0  0  0  0  0  0  0  0  0  0  0  0
    5.1475    0.3013    0.6393 C   0  0  0  0  0  0  0  0  0  0  0  0
    6.5364    0.3961    0.6133 C   0  0  0  0  0  0  0  0  0  0  0  0
    7.3565   -0.7406    0.7855 C   0  0  0  0  0  0  0  0  0  0  0  0
    8.7672   -0.7012    0.6971 C   0  0  0  0  0  0  0  0  0  0  0  0
    9.4447    0.5342    0.5266 N   0  0  0  0  0  0  0  0  0  0  0  0
   10.4877    0.7056   -0.3675 C   0  0  0  0  0  0  0  0  0  0  0  0
   10.9060   -0.1625   -1.1282 O   0  0  0  0  0  0  0  0  0  0  0  0
   11.0760    2.1069   -0.3514 C   0  0  0  0  0  0  0  0  0  0  0  0
   10.3261    3.1306   -1.1755 C   0  0  0  0  0  0  0  0  0  0  0  0
   10.1324    2.9500   -2.5535 C   0  0  0  0  0  0  0  0  0  0  0  0
    9.5279    3.9482   -3.3278 C   0  0  0  0  0  0  0  0  0  0  0  0
    9.1075    5.1372   -2.7331 C   0  0  0  0  0  0  0  0  0  0  0  0
    9.2937    5.3242   -1.3667 C   0  0  0  0  0  0  0  0  0  0  0  0
    8.7978    6.8000   -0.6321 Cl  0  0  0  0  0  0  0  0  0  0  0  0
    9.8976    4.3327   -0.5883 C   0  0  0  0  0  0  0  0  0  0  0  0
    9.4705   -1.9004    0.8198 C   0  0  0  0  0  0  0  0  0  0  0  0
    8.8911   -3.1008    1.0565 N   0  0  0  0  0  0  0  0  0  0  0  0
    7.5419   -3.1145    1.1359 C   0  0  0  0  0  0  0  0  0  0  0  0
    6.7252   -1.9861    0.9968 C   0  0  0  0  0  0  0  0  0  0  0  0
    5.3195   -2.0752    1.0299 C   0  0  0  0  0  0  0  0  0  0  0  0
    0.6362    0.6035   -0.7854 H   0  0  0  0  0  0  0  0  0  0  0  0
    0.5231    0.1093    0.9301 H   0  0  0  0  0  0  0  0  0  0  0  0
    0.5862   -1.1340   -0.3520 H   0  0  0  0  0  0  0  0  0  0  0  0
    2.8873    0.4276   -0.6173 H   0  0  0  0  0  0  0  0  0  0  0  0
    4.5608    1.2081    0.5183 H   0  0  0  0  0  0  0  0  0  0  0  0
    6.9591    1.3753    0.4154 H   0  0  0  0  0  0  0  0  0  0  0  0
    8.9577    1.3750    0.8056 H   0  0  0  0  0  0  0  0  0  0  0  0
   12.1081    2.0456   -0.7174 H   0  0  0  0  0  0  0  0  0  0  0  0
   11.1463    2.4332    0.6939 H   0  0  0  0  0  0  0  0  0  0  0  0
   10.4790    2.0407   -3.0449 H   0  0  0  0  0  0  0  0  0  0  0  0
    9.4023    3.8026   -4.3972 H   0  0  0  0  0  0  0  0  0  0  0  0
    8.6530    5.9150   -3.3418 H   0  0  0  0  0  0  0  0  0  0  0  0
   10.0585    4.5168    0.4709 H   0  0  0  0  0  0  0  0  0  0  0  0
   10.5558   -1.9298    0.7773 H   0  0  0  0  0  0  0  0  0  0  0  0
    7.1166   -4.1024    1.3073 H   0  0  0  0  0  0  0  0  0  0  0  0
    4.8331   -3.0352    1.1909 H   0  0  0  0  0  0  0  0  0  0  0  0
  1  2  1  0  0  0  0
  1 26  1  0  0  0  0
  1 27  1  0  0  0  0
  1 28  1  0  0  0  0
  2  3  1  0  0  0  0
  2 29  1  0  0  0  0
  3  4  2  0  0  0  0
  3  5  1  0  0  0  0
  5  6  1  0  0  0  0
  5 25  2  0  0  0  0
  6  7  2  0  0  0  0
  6 30  1  0  0  0  0
  7  8  1  0  0  0  0
  7 31  1  0  0  0  0
  8  9  1  0  0  0  0
  8 24  2  0  0  0  0
  9 10  1  0  0  0  0
  9 21  2  0  0  0  0
 10 11  1  0  0  0  0
 10 32  1  0  0  0  0
 11 12  2  0  0  0  0
 11 13  1  0  0  0  0
 13 14  1  0  0  0  0
 13 33  1  0  0  0  0
 13 34  1  0  0  0  0
 14 15  1  0  0  0  0
 14 20  2  0  0  0  0
 15 16  2  0  0  0  0
 15 35  1  0  0  0  0
 16 17  1  0  0  0  0
 16 36  1  0  0  0  0
 17 18  2  0  0  0  0
 17 37  1  0  0  0  0
 18 19  1  0  0  0  0
 18 20  1  0  0  0  0
 20 38  1  0  0  0  0
 21 22  1  0  0  0  0
 21 39  1  0  0  0  0
 22 23  2  0  0  0  0
 23 24  1  0  0  0  0
 23 40  1  0  0  0  0
 24 25  1  0  0  0  0
 25 41  1  0  0  0  0
M  END
$$$$
