
 OpenBabel07202414173D

 39 42  0  0  1  0  0  0  0  0999 V2000
   10.5125   -3.3993    0.1632 Cl  0  0  0  0  0  0  0  0  0  0  0  0
    8.8878   -3.7940   -0.2320 C   0  0  0  0  0  0  0  0  0  0  0  0
    8.6222   -4.8353   -1.1115 C   0  0  0  0  0  0  0  0  0  0  0  0
    7.2994   -5.1490   -1.4286 C   0  0  0  0  0  0  0  0  0  0  0  0
    6.2291   -4.4361   -0.8678 C   0  0  0  0  0  0  0  0  0  0  0  0
    6.4962   -3.3893    0.0325 C   0  0  0  0  0  0  0  0  0  0  0  0
    7.8373   -3.0764    0.3403 C   0  0  0  0  0  0  0  0  0  0  0  0
    5.4019   -2.6345    0.7677 C   0  0  3  0  0  0  0  0  0  0  0  0
    5.1923   -3.0988    2.2264 C   0  0  0  0  0  0  0  0  0  0  0  0
    4.7159   -2.3205    3.0495 O   0  0  0  0  0  0  0  0  0  0  0  0
    5.5109   -4.4206    2.4705 N   0  0  0  0  0  0  0  0  0  0  0  0
    5.6215   -5.0778    3.7239 C   0  0  0  0  0  0  0  0  0  0  0  0
    5.3792   -4.4403    4.9413 C   0  0  0  0  0  0  0  0  0  0  0  0
    5.6283   -4.9911    6.1544 N   0  0  0  0  0  0  0  0  0  0  0  0
    6.1111   -6.2498    6.1568 C   0  0  0  0  0  0  0  0  0  0  0  0
    6.3086   -7.0271    5.0177 C   0  0  0  0  0  0  0  0  0  0  0  0
    6.7317   -8.3661    5.1148 C   0  0  0  0  0  0  0  0  0  0  0  0
    6.8957   -9.1482    3.9712 C   0  0  0  0  0  0  0  0  0  0  0  0
    6.6611   -8.5946    2.7230 C   0  0  0  0  0  0  0  0  0  0  0  0
    6.2572   -7.2605    2.6150 C   0  0  0  0  0  0  0  0  0  0  0  0
    6.0590   -6.4367    3.7573 C   0  0  0  0  0  0  0  0  0  0  0  0
    4.0704   -2.6043    0.0141 C   0  0  0  0  0  0  0  0  0  0  0  0
    3.5205   -3.9901   -0.2602 C   0  0  0  0  0  0  0  0  0  0  0  0
    4.5967   -4.9586   -1.3538 S   0  0  0  0  0  0  0  0  0  0  0  0
    9.4340   -5.4057   -1.5554 H   0  0  0  0  0  0  0  0  0  0  0  0
    7.1111   -5.9661   -2.1244 H   0  0  0  0  0  0  0  0  0  0  0  0
    8.0656   -2.2753    1.0430 H   0  0  0  0  0  0  0  0  0  0  0  0
    5.7404   -1.5901    0.8441 H   0  0  0  0  0  0  0  0  0  0  0  0
    5.8371   -4.9558    1.6815 H   0  0  0  0  0  0  0  0  0  0  0  0
    4.9760   -3.4362    5.0057 H   0  0  0  0  0  0  0  0  0  0  0  0
    6.3379   -6.6367    7.1491 H   0  0  0  0  0  0  0  0  0  0  0  0
    6.9154   -8.8172    6.0881 H   0  0  0  0  0  0  0  0  0  0  0  0
    7.1935  -10.1890    4.0612 H   0  0  0  0  0  0  0  0  0  0  0  0
    6.7833   -9.1977    1.8270 H   0  0  0  0  0  0  0  0  0  0  0  0
    6.0681   -6.8938    1.6104 H   0  0  0  0  0  0  0  0  0  0  0  0
    4.1914   -2.0566   -0.9301 H   0  0  0  0  0  0  0  0  0  0  0  0
    3.3303   -2.0451    0.6007 H   0  0  0  0  0  0  0  0  0  0  0  0
    2.5432   -3.9067   -0.7485 H   0  0  0  0  0  0  0  0  0  0  0  0
    3.3642   -4.5499    0.6667 H   0  0  0  0  0  0  0  0  0  0  0  0
  1  2  1  0  0  0  0
  2  3  1  0  0  0  0
  2  7  2  0  0  0  0
  3  4  2  0  0  0  0
  3 25  1  0  0  0  0
  4  5  1  0  0  0  0
  4 26  1  0  0  0  0
  5  6  2  0  0  0  0
  5 24  1  0  0  0  0
  6  7  1  0  0  0  0
  6  8  1  0  0  0  0
  7 27  1  0  0  0  0
  8  9  1  0  0  0  0
  8 22  1  0  0  0  0
  8 28  1  0  0  0  0
  9 10  2  0  0  0  0
  9 11  1  0  0  0  0
 11 12  1  0  0  0  0
 11 29  1  0  0  0  0
 12 13  1  0  0  0  0
 12 21  2  0  0  0  0
 13 14  2  0  0  0  0
 13 30  1  0  0  0  0
 14 15  1  0  0  0  0
 15 16  2  0  0  0  0
 15 31  1  0  0  0  0
 16 17  1  0  0  0  0
 16 21  1  0  0  0  0
 17 18  2  0  0  0  0
 17 32  1  0  0  0  0
 18 19  1  0  0  0  0
 18 33  1  0  0  0  0
 19 20  2  0  0  0  0
 19 34  1  0  0  0  0
 20 21  1  0  0  0  0
 20 35  1  0  0  0  0
 22 23  1  0  0  0  0
 22 36  1  0  0  0  0
 22 37  1  0  0  0  0
 23 24  1  0  0  0  0
 23 38  1  0  0  0  0
 23 39  1  0  0  0  0
M  END
$$$$
