
 OpenBabel07202414183D

 34 36  0  0  0  0  0  0  0  0999 V2000
    1.1180    0.0189    0.0003 C   0  0  0  0  0  0  0  0  0  0  0  0
    2.5700    0.0901   -0.0225 N   0  0  0  0  0  0  0  0  0  0  0  0
    3.2293   -1.1065   -0.0319 N   0  0  0  0  0  0  0  0  0  0  0  0
    4.5319   -1.0863    0.0163 C   0  0  0  0  0  0  0  0  0  0  0  0
    5.2945   -2.3691    0.0170 C   0  0  0  0  0  0  0  0  0  0  0  0
    4.6173   -3.5913   -0.0607 C   0  0  0  0  0  0  0  0  0  0  0  0
    5.3328   -4.7928   -0.0414 C   0  0  0  0  0  0  0  0  0  0  0  0
    6.7328   -4.7897    0.0652 C   0  0  0  0  0  0  0  0  0  0  0  0
    7.5170   -6.0814    0.1008 C   0  0  0  0  0  0  0  0  0  0  0  0
    6.7302   -7.1915    0.0301 F   0  0  0  0  0  0  0  0  0  0  0  0
    8.4002   -6.1839   -0.9308 F   0  0  0  0  0  0  0  0  0  0  0  0
    8.2541   -6.2203    1.2376 F   0  0  0  0  0  0  0  0  0  0  0  0
    7.4054   -3.5603    0.1361 C   0  0  0  0  0  0  0  0  0  0  0  0
    6.6924   -2.3582    0.1057 C   0  0  0  0  0  0  0  0  0  0  0  0
    5.3009    0.0567    0.0646 N   0  0  0  0  0  0  0  0  0  0  0  0
    4.7032    1.2063    0.0462 C   0  0  0  0  0  0  0  0  0  0  0  0
    5.5020    2.4746    0.0515 C   0  0  0  0  0  0  0  0  0  0  0  0
    6.7249    2.4265    0.0640 O   0  0  0  0  0  0  0  0  0  0  0  0
    4.7352    3.6213    0.0291 N   0  0  0  0  0  0  0  0  0  0  0  0
    5.4086    4.9062    0.0233 C   0  0  0  0  0  0  0  0  0  0  0  0
    3.3427    3.6332    0.0198 C   0  0  0  0  0  0  0  0  0  0  0  0
    2.7359    4.7005    0.0281 O   0  0  0  0  0  0  0  0  0  0  0  0
    2.6424    2.4601   -0.0016 N   0  0  0  0  0  0  0  0  0  0  0  0
    3.2188    1.3048    0.0037 C   0  0  0  0  0  0  0  0  0  0  0  0
    0.7634   -1.0175    0.0078 H   0  0  0  0  0  0  0  0  0  0  0  0
    0.6993    0.5132   -0.8819 H   0  0  0  0  0  0  0  0  0  0  0  0
    0.7281    0.5117    0.8971 H   0  0  0  0  0  0  0  0  0  0  0  0
    3.5318   -3.6159   -0.1339 H   0  0  0  0  0  0  0  0  0  0  0  0
    4.7885   -5.7341   -0.1083 H   0  0  0  0  0  0  0  0  0  0  0  0
    8.4905   -3.5305    0.2189 H   0  0  0  0  0  0  0  0  0  0  0  0
    7.2344   -1.4160    0.1601 H   0  0  0  0  0  0  0  0  0  0  0  0
    6.4970    4.8061    0.0194 H   0  0  0  0  0  0  0  0  0  0  0  0
    5.1059    5.4715    0.9108 H   0  0  0  0  0  0  0  0  0  0  0  0
    5.1004    5.4669   -0.8654 H   0  0  0  0  0  0  0  0  0  0  0  0
  1  2  1  0  0  0  0
  1 25  1  0  0  0  0
  1 26  1  0  0  0  0
  1 27  1  0  0  0  0
  2  3  1  0  0  0  0
  2 24  1  0  0  0  0
  3  4  2  0  0  0  0
  4  5  1  0  0  0  0
  4 15  1  0  0  0  0
  5  6  1  0  0  0  0
  5 14  2  0  0  0  0
  6  7  2  0  0  0  0
  6 28  1  0  0  0  0
  7  8  1  0  0  0  0
  7 29  1  0  0  0  0
  8  9  1  0  0  0  0
  8 13  2  0  0  0  0
  9 10  1  0  0  0  0
  9 11  1  0  0  0  0
  9 12  1  0  0  0  0
 13 14  1  0  0  0  0
 13 30  1  0  0  0  0
 14 31  1  0  0  0  0
 15 16  2  0  0  0  0
 16 17  1  0  0  0  0
 16 24  1  0  0  0  0
 17 18  2  0  0  0  0
 17 19  1  0  0  0  0
 19 20  1  0  0  0  0
 19 21  1  0  0  0  0
 20 32  1  0  0  0  0
 20 33  1  0  0  0  0
 20 34  1  0  0  0  0
 21 22  2  0  0  0  0
 21 23  1  0  0  0  0
 23 24  2  0  0  0  0
M  END
$$$$
