
 OpenBabel07202414123D

 59 63  0  0  1  0  0  0  0  0999 V2000
    4.6095   -1.8849    0.7406 C   0  0  0  0  0  0  0  0  0  0  0  0
    3.3249   -1.5724   -0.0333 C   0  0  0  0  0  0  0  0  0  0  0  0
    3.5530   -1.4699   -1.5582 C   0  0  0  0  0  0  0  0  0  0  0  0
    4.6794   -0.1349   -1.9999 S   0  0  0  0  0  0  0  0  0  0  0  0
    4.0645    1.1132   -1.6088 O   0  0  0  0  0  0  0  0  0  0  0  0
    6.0215   -0.4743   -1.5843 O   0  0  0  0  0  0  0  0  0  0  0  0
    4.6820   -0.1699   -3.7218 N   0  0  0  0  0  0  0  0  0  0  0  0
    5.4152   -1.3551   -4.2945 C   0  0  0  0  0  0  0  0  0  0  0  0
    5.3186   -1.3868   -5.8211 C   0  0  1  0  0  0  0  0  0  0  0  0
    3.9673   -1.8901   -6.3371 C   0  0  0  0  0  0  0  0  0  0  0  0
    3.9294   -2.5570   -7.3705 O   0  0  0  0  0  0  0  0  0  0  0  0
    2.8605   -1.4918   -5.6052 N   0  0  0  0  0  0  0  0  0  0  0  0
    1.5024   -1.7399   -5.9556 C   0  0  0  0  0  0  0  0  0  0  0  0
    1.1447   -2.6847   -6.9212 C   0  0  0  0  0  0  0  0  0  0  0  0
   -0.0923   -2.8178   -7.4494 N   0  0  0  0  0  0  0  0  0  0  0  0
   -1.0449   -2.0114   -6.9467 C   0  0  0  0  0  0  0  0  0  0  0  0
   -0.8590   -1.1535   -5.8652 C   0  0  0  0  0  0  0  0  0  0  0  0
   -1.9503   -0.4735   -5.2981 C   0  0  0  0  0  0  0  0  0  0  0  0
   -1.7695    0.3739   -4.2099 C   0  0  0  0  0  0  0  0  0  0  0  0
   -0.4923    0.5806   -3.7072 C   0  0  0  0  0  0  0  0  0  0  0  0
    0.6027   -0.0823   -4.2729 C   0  0  0  0  0  0  0  0  0  0  0  0
    0.4513   -0.9917   -5.3512 C   0  0  0  0  0  0  0  0  0  0  0  0
    5.7272   -0.0679   -6.4430 C   0  0  0  0  0  0  0  0  0  0  0  0
    6.2067   -0.0271   -7.7639 C   0  0  0  0  0  0  0  0  0  0  0  0
    6.6074    1.1814   -8.3325 C   0  0  0  0  0  0  0  0  0  0  0  0
    7.2375    1.2095   -9.9333 Cl  0  0  0  0  0  0  0  0  0  0  0  0
    6.5195    2.3639   -7.6065 C   0  0  0  0  0  0  0  0  0  0  0  0
    6.0498    2.3327   -6.2922 C   0  0  0  0  0  0  0  0  0  0  0  0
    5.6590    1.1204   -5.6970 C   0  0  0  0  0  0  0  0  0  0  0  0
    5.2814    1.1188   -4.2332 C   0  0  0  0  0  0  0  0  0  0  0  0
    2.4986   -0.4261    0.6365 C   0  0  0  0  0  0  0  0  0  0  0  0
    1.0323   -1.4117    0.6757 S   0  0  0  0  0  0  0  0  0  0  0  0
    0.5162   -1.5478    2.0081 O   0  0  0  0  0  0  0  0  0  0  0  0
    0.2042   -1.1494   -0.4849 O   0  0  0  0  0  0  0  0  0  0  0  0
    2.2438   -2.6433    0.3169 C   0  0  0  0  0  0  0  0  0  0  0  0
    5.3376   -1.0742    0.6665 H   0  0  0  0  0  0  0  0  0  0  0  0
    5.0728   -2.8062    0.3718 H   0  0  0  0  0  0  0  0  0  0  0  0
    4.4089   -2.0168    1.8098 H   0  0  0  0  0  0  0  0  0  0  0  0
    2.6137   -1.2773   -2.0853 H   0  0  0  0  0  0  0  0  0  0  0  0
    3.9858   -2.4021   -1.9318 H   0  0  0  0  0  0  0  0  0  0  0  0
    4.9922   -2.2790   -3.8885 H   0  0  0  0  0  0  0  0  0  0  0  0
    6.4712   -1.3034   -4.0006 H   0  0  0  0  0  0  0  0  0  0  0  0
    6.0464   -2.1476   -6.1414 H   0  0  0  0  0  0  0  0  0  0  0  0
    3.0326   -0.7721   -4.9104 H   0  0  0  0  0  0  0  0  0  0  0  0
    1.8539   -3.4019   -7.3219 H   0  0  0  0  0  0  0  0  0  0  0  0
   -2.0031   -2.0807   -7.4556 H   0  0  0  0  0  0  0  0  0  0  0  0
   -2.9572   -0.6275   -5.6824 H   0  0  0  0  0  0  0  0  0  0  0  0
   -2.6244    0.8655   -3.7519 H   0  0  0  0  0  0  0  0  0  0  0  0
   -0.3466    1.2479   -2.8605 H   0  0  0  0  0  0  0  0  0  0  0  0
    1.5722    0.1155   -3.8292 H   0  0  0  0  0  0  0  0  0  0  0  0
    6.2846   -0.9446   -8.3461 H   0  0  0  0  0  0  0  0  0  0  0  0
    6.8304    3.3078   -8.0486 H   0  0  0  0  0  0  0  0  0  0  0  0
    6.0121    3.2629   -5.7262 H   0  0  0  0  0  0  0  0  0  0  0  0
    4.5507    1.9192   -4.0679 H   0  0  0  0  0  0  0  0  0  0  0  0
    6.1956    1.3454   -3.6688 H   0  0  0  0  0  0  0  0  0  0  0  0
    2.3549    0.4866    0.0570 H   0  0  0  0  0  0  0  0  0  0  0  0
    2.8219   -0.1448    1.6445 H   0  0  0  0  0  0  0  0  0  0  0  0
    1.9486   -3.3087   -0.5000 H   0  0  0  0  0  0  0  0  0  0  0  0
    2.4568   -3.2604    1.1960 H   0  0  0  0  0  0  0  0  0  0  0  0
  1  2  1  0  0  0  0
  1 36  1  0  0  0  0
  1 37  1  0  0  0  0
  1 38  1  0  0  0  0
  2  3  1  0  0  0  0
  2 31  1  0  0  0  0
  2 35  1  0  0  0  0
  3  4  1  0  0  0  0
  3 39  1  0  0  0  0
  3 40  1  0  0  0  0
  4  5  2  0  0  0  0
  4  6  2  0  0  0  0
  4  7  1  0  0  0  0
  7  8  1  0  0  0  0
  7 30  1  0  0  0  0
  8  9  1  0  0  0  0
  8 41  1  0  0  0  0
  8 42  1  0  0  0  0
  9 10  1  0  0  0  0
  9 23  1  0  0  0  0
  9 43  1  6  0  0  0
 10 11  2  0  0  0  0
 10 12  1  0  0  0  0
 12 13  1  0  0  0  0
 12 44  1  0  0  0  0
 13 14  1  0  0  0  0
 13 22  2  0  0  0  0
 14 15  2  0  0  0  0
 14 45  1  0  0  0  0
 15 16  1  0  0  0  0
 16 17  2  0  0  0  0
 16 46  1  0  0  0  0
 17 18  1  0  0  0  0
 17 22  1  0  0  0  0
 18 19  2  0  0  0  0
 18 47  1  0  0  0  0
 19 20  1  0  0  0  0
 19 48  1  0  0  0  0
 20 21  2  0  0  0  0
 20 49  1  0  0  0  0
 21 22  1  0  0  0  0
 21 50  1  0  0  0  0
 23 24  1  0  0  0  0
 23 29  2  0  0  0  0
 24 25  2  0  0  0  0
 24 51  1  0  0  0  0
 25 26  1  0  0  0  0
 25 27  1  0  0  0  0
 27 28  2  0  0  0  0
 27 52  1  0  0  0  0
 28 29  1  0  0  0  0
 28 53  1  0  0  0  0
 29 30  1  0  0  0  0
 30 54  1  0  0  0  0
 30 55  1  0  0  0  0
 31 32  1  0  0  0  0
 31 56  1  0  0  0  0
 31 57  1  0  0  0  0
 32 33  2  0  0  0  0
 32 34  2  0  0  0  0
 32 35  1  0  0  0  0
 35 58  1  0  0  0  0
 35 59  1  0  0  0  0
M  END
$$$$
