
 OpenBabel07202414153D

 46 49  0  0  1  0  0  0  0  0999 V2000
    2.9826   -0.7390   -1.2570 C   0  0  0  0  0  0  0  0  0  0  0  0
    2.5811    0.1408   -0.0696 C   0  0  1  0  0  0  0  0  0  0  0  0
    3.0124   -0.5845    1.2182 C   0  0  0  0  0  0  0  0  0  0  0  0
    2.5242    0.1419    2.4626 C   0  0  0  0  0  0  0  0  0  0  0  0
    2.9549    1.6134    2.4532 C   0  0  2  0  0  0  0  0  0  0  0  0
    2.5332    2.3033    1.1522 C   0  0  0  0  0  0  0  0  0  0  0  0
    3.0368    1.5609   -0.0339 N   0  0  0  0  0  0  0  0  0  0  0  0
    3.7388    2.1354   -1.0887 C   0  0  0  0  0  0  0  0  0  0  0  0
    4.0589    3.6114   -1.0945 C   0  0  0  0  0  0  0  0  0  0  0  0
    4.1420    1.4881   -2.0625 O   0  0  0  0  0  0  0  0  0  0  0  0
    4.3677    1.7640    2.7276 N   0  0  0  0  0  0  0  0  0  0  0  0
    4.6024    2.0642    4.0557 C   0  0  0  0  0  0  0  0  0  0  0  0
    5.7173    2.0095    4.5509 O   0  0  0  0  0  0  0  0  0  0  0  0
    3.3964    2.3588    4.6417 N   0  0  0  0  0  0  0  0  0  0  0  0
    3.2062    2.5146    6.0337 C   0  0  0  0  0  0  0  0  0  0  0  0
    2.3137    1.6680    6.6945 C   0  0  0  0  0  0  0  0  0  0  0  0
    2.1127    1.6551    8.0312 N   0  0  0  0  0  0  0  0  0  0  0  0
    2.8141    2.5593    8.7468 C   0  0  0  0  0  0  0  0  0  0  0  0
    3.7000    3.4899    8.2010 C   0  0  0  0  0  0  0  0  0  0  0  0
    4.3522    4.4404    9.0055 C   0  0  0  0  0  0  0  0  0  0  0  0
    5.1970    5.3920    8.4386 C   0  0  0  0  0  0  0  0  0  0  0  0
    5.4027    5.4020    7.0650 C   0  0  0  0  0  0  0  0  0  0  0  0
    4.7707    4.4543    6.2572 C   0  0  0  0  0  0  0  0  0  0  0  0
    3.9125    3.4716    6.8023 C   0  0  0  0  0  0  0  0  0  0  0  0
    2.3780    2.2381    3.7248 C   0  0  0  0  0  0  0  0  0  0  0  0
    1.1905    2.4914    3.8937 O   0  0  0  0  0  0  0  0  0  0  0  0
    2.5794   -1.7513   -1.1365 H   0  0  0  0  0  0  0  0  0  0  0  0
    4.0708   -0.8350   -1.3395 H   0  0  0  0  0  0  0  0  0  0  0  0
    2.5801   -0.3516   -2.1975 H   0  0  0  0  0  0  0  0  0  0  0  0
    1.4840    0.1968   -0.0842 H   0  0  0  0  0  0  0  0  0  0  0  0
    4.1059   -0.6664    1.2516 H   0  0  0  0  0  0  0  0  0  0  0  0
    2.6137   -1.6057    1.2325 H   0  0  0  0  0  0  0  0  0  0  0  0
    2.8872   -0.3763    3.3590 H   0  0  0  0  0  0  0  0  0  0  0  0
    1.4271    0.0827    2.4986 H   0  0  0  0  0  0  0  0  0  0  0  0
    2.8672    3.3383    1.1757 H   0  0  0  0  0  0  0  0  0  0  0  0
    1.4400    2.3359    1.0629 H   0  0  0  0  0  0  0  0  0  0  0  0
    3.7165    4.1867   -0.2426 H   0  0  0  0  0  0  0  0  0  0  0  0
    3.6083    4.0548   -1.9893 H   0  0  0  0  0  0  0  0  0  0  0  0
    5.1457    3.7246   -1.1552 H   0  0  0  0  0  0  0  0  0  0  0  0
    5.1166    1.4062    2.1448 H   0  0  0  0  0  0  0  0  0  0  0  0
    1.7486    0.9083    6.1609 H   0  0  0  0  0  0  0  0  0  0  0  0
    2.6247    2.5252    9.8179 H   0  0  0  0  0  0  0  0  0  0  0  0
    4.1936    4.4546   10.0822 H   0  0  0  0  0  0  0  0  0  0  0  0
    5.6871    6.1310    9.0663 H   0  0  0  0  0  0  0  0  0  0  0  0
    6.0533    6.1456    6.6144 H   0  0  0  0  0  0  0  0  0  0  0  0
    4.9511    4.5056    5.1891 H   0  0  0  0  0  0  0  0  0  0  0  0
  1 27  1  0  0  0  0
  1 28  1  0  0  0  0
  1 29  1  0  0  0  0
  2  3  1  0  0  0  0
  2  7  1  0  0  0  0
  2  1  1  0  0  0  0
  2 30  1  1  0  0  0
  3  4  1  0  0  0  0
  3 31  1  0  0  0  0
  3 32  1  0  0  0  0
  4  5  1  0  0  0  0
  4 33  1  0  0  0  0
  4 34  1  0  0  0  0
  5  6  1  0  0  0  0
  5 11  1  0  0  0  0
  5 25  1  1  0  0  0
  6  7  1  0  0  0  0
  6 35  1  0  0  0  0
  6 36  1  0  0  0  0
  7  8  1  0  0  0  0
  8  9  1  0  0  0  0
  8 10  2  0  0  0  0
  9 37  1  0  0  0  0
  9 38  1  0  0  0  0
  9 39  1  0  0  0  0
 11 12  1  0  0  0  0
 11 40  1  0  0  0  0
 12 13  2  0  0  0  0
 12 14  1  0  0  0  0
 14 15  1  0  0  0  0
 14 25  1  0  0  0  0
 15 16  1  0  0  0  0
 15 24  2  0  0  0  0
 16 17  2  0  0  0  0
 16 41  1  0  0  0  0
 17 18  1  0  0  0  0
 18 19  2  0  0  0  0
 18 42  1  0  0  0  0
 19 20  1  0  0  0  0
 19 24  1  0  0  0  0
 20 21  2  0  0  0  0
 20 43  1  0  0  0  0
 21 22  1  0  0  0  0
 21 44  1  0  0  0  0
 22 23  2  0  0  0  0
 22 45  1  0  0  0  0
 23 24  1  0  0  0  0
 23 46  1  0  0  0  0
 25 26  2  0  0  0  0
M  END
$$$$
