
 OpenBabel07202414133D

 58 62  0  0  0  0  0  0  0  0999 V2000
    1.3605    1.0488   -0.3367 C   0  0  0  0  0  0  0  0  0  0  0  0
    2.5176    0.1855   -0.0984 N   0  0  0  0  0  0  0  0  0  0  0  0
    2.7371   -0.2544    1.2933 C   0  0  0  0  0  0  0  0  0  0  0  0
    2.1210   -1.6063    1.6456 C   0  0  0  0  0  0  0  0  0  0  0  0
    1.2767   -2.2691    0.7319 C   0  0  0  0  0  0  0  0  0  0  0  0
    0.7146   -3.5032    1.0346 C   0  0  0  0  0  0  0  0  0  0  0  0
    0.9726   -4.1022    2.2581 C   0  0  0  0  0  0  0  0  0  0  0  0
    1.8037   -3.4812    3.1970 C   0  0  0  0  0  0  0  0  0  0  0  0
    2.0559   -4.1179    4.4217 C   0  0  0  0  0  0  0  0  0  0  0  0
    2.8838   -3.5352    5.3768 C   0  0  0  0  0  0  0  0  0  0  0  0
    3.4541   -2.2969    5.1221 C   0  0  0  0  0  0  0  0  0  0  0  0
    3.2066   -1.6447    3.9117 C   0  0  0  0  0  0  0  0  0  0  0  0
    2.3830   -2.2139    2.9099 C   0  0  0  0  0  0  0  0  0  0  0  0
    3.2503   -0.3273   -1.1668 C   0  0  0  0  0  0  0  0  0  0  0  0
    2.9335   -0.0056   -2.5032 C   0  0  0  0  0  0  0  0  0  0  0  0
    3.6582   -0.5054   -3.6044 C   0  0  0  0  0  0  0  0  0  0  0  0
    3.3255   -0.0566   -5.0100 C   0  0  0  0  0  0  0  0  0  0  0  0
    1.9136   -0.3346   -5.4842 C   0  0  0  0  0  0  0  0  0  0  0  0
    1.2130    0.5612   -5.9488 O   0  0  0  0  0  0  0  0  0  0  0  0
    1.5219   -1.6587   -5.3816 N   0  0  0  0  0  0  0  0  0  0  0  0
    0.2400   -2.0867   -5.8107 C   0  0  0  0  0  0  0  0  0  0  0  0
   -0.2329   -1.7637   -7.0837 C   0  0  0  0  0  0  0  0  0  0  0  0
   -1.4205   -2.1738   -7.5854 N   0  0  0  0  0  0  0  0  0  0  0  0
   -2.1912   -2.9174   -6.7632 C   0  0  0  0  0  0  0  0  0  0  0  0
   -1.8393   -3.2823   -5.4618 C   0  0  0  0  0  0  0  0  0  0  0  0
   -2.7118   -4.0267   -4.6456 C   0  0  0  0  0  0  0  0  0  0  0  0
   -2.3571   -4.3462   -3.3373 C   0  0  0  0  0  0  0  0  0  0  0  0
   -1.1266   -3.9373   -2.8338 C   0  0  0  0  0  0  0  0  0  0  0  0
   -0.2525   -3.2042   -3.6343 C   0  0  0  0  0  0  0  0  0  0  0  0
   -0.5808   -2.8716   -4.9686 C   0  0  0  0  0  0  0  0  0  0  0  0
    4.7397   -1.3532   -3.3689 C   0  0  0  0  0  0  0  0  0  0  0  0
    5.0784   -1.6870   -2.0615 C   0  0  0  0  0  0  0  0  0  0  0  0
    6.4301   -2.7141   -1.7700 Cl  0  0  0  0  0  0  0  0  0  0  0  0
    4.3449   -1.1862   -0.9828 C   0  0  0  0  0  0  0  0  0  0  0  0
    0.8919    1.3734    0.5990 H   0  0  0  0  0  0  0  0  0  0  0  0
    0.5937    0.5222   -0.9133 H   0  0  0  0  0  0  0  0  0  0  0  0
    1.6577    1.9565   -0.8717 H   0  0  0  0  0  0  0  0  0  0  0  0
    2.3191    0.4927    1.9786 H   0  0  0  0  0  0  0  0  0  0  0  0
    3.8118   -0.2682    1.5048 H   0  0  0  0  0  0  0  0  0  0  0  0
    1.0588   -1.8367   -0.2384 H   0  0  0  0  0  0  0  0  0  0  0  0
    0.0780   -4.0038    0.3130 H   0  0  0  0  0  0  0  0  0  0  0  0
    0.5236   -5.0698    2.4725 H   0  0  0  0  0  0  0  0  0  0  0  0
    1.6130   -5.0886    4.6383 H   0  0  0  0  0  0  0  0  0  0  0  0
    3.0800   -4.0492    6.3134 H   0  0  0  0  0  0  0  0  0  0  0  0
    4.1022   -1.8353    5.8661 H   0  0  0  0  0  0  0  0  0  0  0  0
    3.6736   -0.6752    3.7646 H   0  0  0  0  0  0  0  0  0  0  0  0
    2.1085    0.6713   -2.7190 H   0  0  0  0  0  0  0  0  0  0  0  0
    4.0091   -0.5147   -5.7360 H   0  0  0  0  0  0  0  0  0  0  0  0
    3.4939    1.0293   -5.0617 H   0  0  0  0  0  0  0  0  0  0  0  0
    1.9695   -2.1963   -4.6508 H   0  0  0  0  0  0  0  0  0  0  0  0
    0.3653   -1.1762   -7.7761 H   0  0  0  0  0  0  0  0  0  0  0  0
   -3.1473   -3.2088   -7.1907 H   0  0  0  0  0  0  0  0  0  0  0  0
   -3.6830   -4.3423   -5.0199 H   0  0  0  0  0  0  0  0  0  0  0  0
   -3.0447   -4.9101   -2.7094 H   0  0  0  0  0  0  0  0  0  0  0  0
   -0.8618   -4.1684   -1.8082 H   0  0  0  0  0  0  0  0  0  0  0  0
    0.6777   -2.8750   -3.1806 H   0  0  0  0  0  0  0  0  0  0  0  0
    5.3371   -1.7361   -4.1917 H   0  0  0  0  0  0  0  0  0  0  0  0
    4.6607   -1.4853    0.0118 H   0  0  0  0  0  0  0  0  0  0  0  0
  1  2  1  0  0  0  0
  1 35  1  0  0  0  0
  1 36  1  0  0  0  0
  1 37  1  0  0  0  0
  2  3  1  0  0  0  0
  2 14  1  0  0  0  0
  3  4  1  0  0  0  0
  3 38  1  0  0  0  0
  3 39  1  0  0  0  0
  4  5  2  0  0  0  0
  4 13  1  0  0  0  0
  5  6  1  0  0  0  0
  5 40  1  0  0  0  0
  6  7  2  0  0  0  0
  6 41  1  0  0  0  0
  7  8  1  0  0  0  0
  7 42  1  0  0  0  0
  8  9  2  0  0  0  0
  8 13  1  0  0  0  0
  9 10  1  0  0  0  0
  9 43  1  0  0  0  0
 10 11  2  0  0  0  0
 10 44  1  0  0  0  0
 11 12  1  0  0  0  0
 11 45  1  0  0  0  0
 12 13  2  0  0  0  0
 12 46  1  0  0  0  0
 14 15  2  0  0  0  0
 14 34  1  0  0  0  0
 15 16  1  0  0  0  0
 15 47  1  0  0  0  0
 16 17  1  0  0  0  0
 16 31  2  0  0  0  0
 17 18  1  0  0  0  0
 17 48  1  0  0  0  0
 17 49  1  0  0  0  0
 18 19  2  0  0  0  0
 18 20  1  0  0  0  0
 20 21  1  0  0  0  0
 20 50  1  0  0  0  0
 21 22  2  0  0  0  0
 21 30  1  0  0  0  0
 22 23  1  0  0  0  0
 22 51  1  0  0  0  0
 23 24  2  0  0  0  0
 24 25  1  0  0  0  0
 24 52  1  0  0  0  0
 25 26  2  0  0  0  0
 25 30  1  0  0  0  0
 26 27  1  0  0  0  0
 26 53  1  0  0  0  0
 27 28  2  0  0  0  0
 27 54  1  0  0  0  0
 28 29  1  0  0  0  0
 28 55  1  0  0  0  0
 29 30  2  0  0  0  0
 29 56  1  0  0  0  0
 31 32  1  0  0  0  0
 31 57  1  0  0  0  0
 32 33  1  0  0  0  0
 32 34  2  0  0  0  0
 34 58  1  0  0  0  0
M  END
$$$$
