
 OpenBabel07202414153D

 45 48  0  0  0  0  0  0  0  0999 V2000
    7.6286   -4.4629   -0.8537 C   0  0  0  0  0  0  0  0  0  0  0  0
    7.9130   -3.5324    0.1868 O   0  0  0  0  0  0  0  0  0  0  0  0
    6.8938   -3.3057    1.0760 C   0  0  0  0  0  0  0  0  0  0  0  0
    5.8702   -4.2089    1.3581 C   0  0  0  0  0  0  0  0  0  0  0  0
    4.8735   -3.9030    2.2888 C   0  0  0  0  0  0  0  0  0  0  0  0
    4.9395   -2.6642    2.9348 C   0  0  0  0  0  0  0  0  0  0  0  0
    4.1055   -2.1174    3.8769 N   0  0  0  0  0  0  0  0  0  0  0  0
    4.5525   -0.8798    4.2386 C   0  0  0  0  0  0  0  0  0  0  0  0
    5.7005   -0.5976    3.5230 C   0  0  0  0  0  0  0  0  0  0  0  0
    6.4891    0.6721    3.6248 C   0  0  0  0  0  0  0  0  0  0  0  0
    5.9880    1.7407    2.6485 C   0  0  0  0  0  0  0  0  0  0  0  0
    6.6925    3.0070    2.7910 N   0  0  0  0  0  0  0  0  0  0  0  0
    6.2845    3.9598    3.7110 C   0  0  0  0  0  0  0  0  0  0  0  0
    5.3373    3.7757    4.4658 O   0  0  0  0  0  0  0  0  0  0  0  0
    7.0561    5.2370    3.7389 C   0  0  0  0  0  0  0  0  0  0  0  0
    8.4250    5.1872    3.4809 C   0  0  0  0  0  0  0  0  0  0  0  0
    9.2422    6.2626    3.4494 N   0  0  0  0  0  0  0  0  0  0  0  0
    8.6668    7.4543    3.7157 C   0  0  0  0  0  0  0  0  0  0  0  0
    7.3169    7.6370    4.0191 C   0  0  0  0  0  0  0  0  0  0  0  0
    6.8083    8.9205    4.2925 C   0  0  0  0  0  0  0  0  0  0  0  0
    5.4638    9.1033    4.6066 C   0  0  0  0  0  0  0  0  0  0  0  0
    4.6167    8.0057    4.6491 C   0  0  0  0  0  0  0  0  0  0  0  0
    5.1091    6.7265    4.3674 C   0  0  0  0  0  0  0  0  0  0  0  0
    6.4725    6.4994    4.0451 C   0  0  0  0  0  0  0  0  0  0  0  0
    5.9573   -1.7372    2.6894 C   0  0  0  0  0  0  0  0  0  0  0  0
    6.9524   -2.0748    1.7484 C   0  0  0  0  0  0  0  0  0  0  0  0
    8.4769   -4.4639   -1.5447 H   0  0  0  0  0  0  0  0  0  0  0  0
    6.7377   -4.1614   -1.4157 H   0  0  0  0  0  0  0  0  0  0  0  0
    7.5237   -5.4814   -0.4666 H   0  0  0  0  0  0  0  0  0  0  0  0
    5.8262   -5.1829    0.8798 H   0  0  0  0  0  0  0  0  0  0  0  0
    4.0802   -4.6112    2.5051 H   0  0  0  0  0  0  0  0  0  0  0  0
    3.2804   -2.5702    4.2462 H   0  0  0  0  0  0  0  0  0  0  0  0
    4.0200   -0.2925    4.9770 H   0  0  0  0  0  0  0  0  0  0  0  0
    7.5515    0.4692    3.4415 H   0  0  0  0  0  0  0  0  0  0  0  0
    6.4293    1.0518    4.6521 H   0  0  0  0  0  0  0  0  0  0  0  0
    4.9156    1.9195    2.7913 H   0  0  0  0  0  0  0  0  0  0  0  0
    6.1314    1.4097    1.6136 H   0  0  0  0  0  0  0  0  0  0  0  0
    7.4244    3.2063    2.1229 H   0  0  0  0  0  0  0  0  0  0  0  0
    8.9396    4.2477    3.3006 H   0  0  0  0  0  0  0  0  0  0  0  0
    9.3542    8.2969    3.6831 H   0  0  0  0  0  0  0  0  0  0  0  0
    7.4615    9.7907    4.2659 H   0  0  0  0  0  0  0  0  0  0  0  0
    5.0824   10.0976    4.8203 H   0  0  0  0  0  0  0  0  0  0  0  0
    3.5674    8.1358    4.9040 H   0  0  0  0  0  0  0  0  0  0  0  0
    4.4032    5.8992    4.4164 H   0  0  0  0  0  0  0  0  0  0  0  0
    7.7627   -1.3847    1.5348 H   0  0  0  0  0  0  0  0  0  0  0  0
  1  2  1  0  0  0  0
  1 27  1  0  0  0  0
  1 28  1  0  0  0  0
  1 29  1  0  0  0  0
  2  3  1  0  0  0  0
  3  4  1  0  0  0  0
  3 26  2  0  0  0  0
  4  5  2  0  0  0  0
  4 30  1  0  0  0  0
  5  6  1  0  0  0  0
  5 31  1  0  0  0  0
  6  7  1  0  0  0  0
  6 25  2  0  0  0  0
  7  8  1  0  0  0  0
  7 32  1  0  0  0  0
  8  9  2  0  0  0  0
  8 33  1  0  0  0  0
  9 10  1  0  0  0  0
  9 25  1  0  0  0  0
 10 11  1  0  0  0  0
 10 34  1  0  0  0  0
 10 35  1  0  0  0  0
 11 12  1  0  0  0  0
 11 36  1  0  0  0  0
 11 37  1  0  0  0  0
 12 13  1  0  0  0  0
 12 38  1  0  0  0  0
 13 14  2  0  0  0  0
 13 15  1  0  0  0  0
 15 16  1  0  0  0  0
 15 24  2  0  0  0  0
 16 17  2  0  0  0  0
 16 39  1  0  0  0  0
 17 18  1  0  0  0  0
 18 19  2  0  0  0  0
 18 40  1  0  0  0  0
 19 20  1  0  0  0  0
 19 24  1  0  0  0  0
 20 21  2  0  0  0  0
 20 41  1  0  0  0  0
 21 22  1  0  0  0  0
 21 42  1  0  0  0  0
 22 23  2  0  0  0  0
 22 43  1  0  0  0  0
 23 24  1  0  0  0  0
 23 44  1  0  0  0  0
 25 26  1  0  0  0  0
 26 45  1  0  0  0  0
M  END
$$$$
