
 OpenBabel07202414133D

 56 59  0  0  1  0  0  0  0  0999 V2000
    3.3355   -2.3811    0.9472 C   0  0  0  0  0  0  0  0  0  0  0  0
    3.0480   -1.0050    0.5656 N   0  0  0  0  0  0  0  0  0  0  0  0
    3.0188   -0.0965    1.7144 C   0  0  0  0  0  0  0  0  0  0  0  0
    2.3493    1.1482    1.1432 C   0  0  0  0  0  0  0  0  0  0  0  0
    1.5084    0.6318   -0.0292 C   0  0  3  0  0  0  0  0  0  0  0  0
    1.9156    1.2266   -1.3630 C   0  0  0  0  0  0  0  0  0  0  0  0
    1.1023    1.8344   -2.0580 O   0  0  0  0  0  0  0  0  0  0  0  0
    3.2329    1.0691   -1.7215 N   0  0  0  0  0  0  0  0  0  0  0  0
    3.8527    1.6491   -2.9306 C   0  0  3  0  0  0  0  0  0  0  0  0
    3.1359    1.2048   -4.2192 C   0  0  0  0  0  0  0  0  0  0  0  0
    3.7932    3.2072   -2.6889 C   0  0  0  0  0  0  0  0  0  0  0  0
    4.7088    3.8166   -2.1306 O   0  0  0  0  0  0  0  0  0  0  0  0
    2.5686    3.8023   -2.9915 N   0  0  0  0  0  0  0  0  0  0  0  0
    2.3477    5.1752   -2.7224 C   0  0  0  0  0  0  0  0  0  0  0  0
    1.3013    5.5326   -1.8753 C   0  0  0  0  0  0  0  0  0  0  0  0
    1.0421    6.7978   -1.4797 N   0  0  0  0  0  0  0  0  0  0  0  0
    1.8638    7.7546   -1.9713 C   0  0  0  0  0  0  0  0  0  0  0  0
    2.9096    7.5266   -2.8725 C   0  0  0  0  0  0  0  0  0  0  0  0
    3.7019    8.5742   -3.3805 C   0  0  0  0  0  0  0  0  0  0  0  0
    4.7097    8.3181   -4.3109 C   0  0  0  0  0  0  0  0  0  0  0  0
    4.9323    7.0212   -4.7541 C   0  0  0  0  0  0  0  0  0  0  0  0
    4.1576    5.9761   -4.2489 C   0  0  0  0  0  0  0  0  0  0  0  0
    3.1522    6.1983   -3.2785 C   0  0  0  0  0  0  0  0  0  0  0  0
    5.3225    1.1568   -3.0787 C   0  0  0  0  0  0  0  0  0  0  0  0
    6.3057    1.9590   -3.6937 C   0  0  0  0  0  0  0  0  0  0  0  0
    7.6266    1.5201   -3.8344 C   0  0  0  0  0  0  0  0  0  0  0  0
    7.9940    0.2513   -3.3933 C   0  0  0  0  0  0  0  0  0  0  0  0
    9.6440   -0.2239   -3.5869 Cl  0  0  0  0  0  0  0  0  0  0  0  0
    7.0304   -0.5850   -2.8239 C   0  0  0  0  0  0  0  0  0  0  0  0
    7.3988   -2.1857   -2.2857 Cl  0  0  0  0  0  0  0  0  0  0  0  0
    5.7071   -0.1382   -2.6773 C   0  0  0  0  0  0  0  0  0  0  0  0
    1.7196   -0.8743   -0.0450 C   0  0  0  0  0  0  0  0  0  0  0  0
    4.3303   -2.4505    1.3987 H   0  0  0  0  0  0  0  0  0  0  0  0
    3.3403   -3.0236    0.0597 H   0  0  0  0  0  0  0  0  0  0  0  0
    2.6026   -2.7814    1.6567 H   0  0  0  0  0  0  0  0  0  0  0  0
    4.0209    0.1220    2.0953 H   0  0  0  0  0  0  0  0  0  0  0  0
    2.4107   -0.4987    2.5351 H   0  0  0  0  0  0  0  0  0  0  0  0
    3.0958    1.8869    0.8284 H   0  0  0  0  0  0  0  0  0  0  0  0
    1.7188    1.6274    1.9003 H   0  0  0  0  0  0  0  0  0  0  0  0
    0.4498    0.8712    0.1288 H   0  0  0  0  0  0  0  0  0  0  0  0
    3.8498    0.6782   -1.0136 H   0  0  0  0  0  0  0  0  0  0  0  0
    2.0899    1.5181   -4.2671 H   0  0  0  0  0  0  0  0  0  0  0  0
    3.1399    0.1113   -4.3119 H   0  0  0  0  0  0  0  0  0  0  0  0
    3.6266    1.6161   -5.1095 H   0  0  0  0  0  0  0  0  0  0  0  0
    1.7750    3.1838   -2.8008 H   0  0  0  0  0  0  0  0  0  0  0  0
    0.6477    4.7822   -1.4384 H   0  0  0  0  0  0  0  0  0  0  0  0
    1.6415    8.7576   -1.6158 H   0  0  0  0  0  0  0  0  0  0  0  0
    3.5319    9.5967   -3.0585 H   0  0  0  0  0  0  0  0  0  0  0  0
    5.3160    9.1319   -4.6982 H   0  0  0  0  0  0  0  0  0  0  0  0
    5.7040    6.8116   -5.4882 H   0  0  0  0  0  0  0  0  0  0  0  0
    4.3440    4.9749   -4.6263 H   0  0  0  0  0  0  0  0  0  0  0  0
    6.0688    2.9585   -4.0581 H   0  0  0  0  0  0  0  0  0  0  0  0
    8.3632    2.1813   -4.2858 H   0  0  0  0  0  0  0  0  0  0  0  0
    4.9734   -0.8193   -2.2492 H   0  0  0  0  0  0  0  0  0  0  0  0
    1.6909   -1.3045   -1.0519 H   0  0  0  0  0  0  0  0  0  0  0  0
    0.9470   -1.3611    0.5647 H   0  0  0  0  0  0  0  0  0  0  0  0
  1  2  1  0  0  0  0
  1 33  1  0  0  0  0
  1 34  1  0  0  0  0
  1 35  1  0  0  0  0
  2  3  1  0  0  0  0
  2 32  1  0  0  0  0
  3  4  1  0  0  0  0
  3 36  1  0  0  0  0
  3 37  1  0  0  0  0
  4  5  1  0  0  0  0
  4 38  1  0  0  0  0
  4 39  1  0  0  0  0
  5  6  1  0  0  0  0
  5 32  1  0  0  0  0
  5 40  1  0  0  0  0
  6  7  2  0  0  0  0
  6  8  1  0  0  0  0
  8  9  1  0  0  0  0
  8 41  1  0  0  0  0
  9 10  1  0  0  0  0
  9 11  1  0  0  0  0
  9 24  1  0  0  0  0
 10 42  1  0  0  0  0
 10 43  1  0  0  0  0
 10 44  1  0  0  0  0
 11 12  2  0  0  0  0
 11 13  1  0  0  0  0
 13 14  1  0  0  0  0
 13 45  1  0  0  0  0
 14 15  1  0  0  0  0
 14 23  2  0  0  0  0
 15 16  2  0  0  0  0
 15 46  1  0  0  0  0
 16 17  1  0  0  0  0
 17 18  2  0  0  0  0
 17 47  1  0  0  0  0
 18 19  1  0  0  0  0
 18 23  1  0  0  0  0
 19 20  2  0  0  0  0
 19 48  1  0  0  0  0
 20 21  1  0  0  0  0
 20 49  1  0  0  0  0
 21 22  2  0  0  0  0
 21 50  1  0  0  0  0
 22 23  1  0  0  0  0
 22 51  1  0  0  0  0
 24 25  1  0  0  0  0
 24 31  2  0  0  0  0
 25 26  2  0  0  0  0
 25 52  1  0  0  0  0
 26 27  1  0  0  0  0
 26 53  1  0  0  0  0
 27 28  1  0  0  0  0
 27 29  2  0  0  0  0
 29 30  1  0  0  0  0
 29 31  1  0  0  0  0
 31 54  1  0  0  0  0
 32 55  1  0  0  0  0
 32 56  1  0  0  0  0
M  END
$$$$
