
 OpenBabel07202414173D

 40 43  0  0  1  0  0  0  0  0999 V2000
    1.0741   -0.0744   -0.0317 Cl  0  0  0  0  0  0  0  0  0  0  0  0
    2.7912   -0.0634    0.0712 C   0  0  0  0  0  0  0  0  0  0  0  0
    3.4831    1.1309   -0.0950 C   0  0  0  0  0  0  0  0  0  0  0  0
    4.8773    1.1335   -0.0535 C   0  0  0  0  0  0  0  0  0  0  0  0
    5.5708   -0.0688    0.1481 C   0  0  0  0  0  0  0  0  0  0  0  0
    4.8886   -1.2822    0.3461 C   0  0  0  0  0  0  0  0  0  0  0  0
    3.4807   -1.2574    0.3026 C   0  0  0  0  0  0  0  0  0  0  0  0
    5.5919   -2.6091    0.5854 C   0  0  3  0  0  0  0  0  0  0  0  0
    5.4838   -3.0676    2.0518 C   0  0  0  0  0  0  0  0  0  0  0  0
    4.5261   -3.7472    2.4126 O   0  0  0  0  0  0  0  0  0  0  0  0
    6.5003   -2.6143    2.8708 N   0  0  0  0  0  0  0  0  0  0  0  0
    6.6247   -2.7589    4.2749 C   0  0  0  0  0  0  0  0  0  0  0  0
    5.6630   -3.3887    5.0644 C   0  0  0  0  0  0  0  0  0  0  0  0
    5.6542   -3.3794    6.4183 N   0  0  0  0  0  0  0  0  0  0  0  0
    6.6892   -2.7581    7.0215 C   0  0  0  0  0  0  0  0  0  0  0  0
    7.7853   -2.2197    6.3536 C   0  0  0  0  0  0  0  0  0  0  0  0
    8.8920   -1.7158    7.0602 C   0  0  0  0  0  0  0  0  0  0  0  0
    9.9998   -1.2158    6.3875 C   0  0  0  0  0  0  0  0  0  0  0  0
   10.0013   -1.1812    4.9997 C   0  0  0  0  0  0  0  0  0  0  0  0
    8.8984   -1.6604    4.2855 C   0  0  0  0  0  0  0  0  0  0  0  0
    7.7631   -2.2078    4.9383 C   0  0  0  0  0  0  0  0  0  0  0  0
    7.0304   -2.6478    0.0616 C   0  0  0  0  0  0  0  0  0  0  0  0
    7.8296   -1.5290    0.6398 N   0  0  0  0  0  0  0  0  0  0  0  0
    7.3366    0.0050    0.0779 S   0  0  0  0  0  0  0  0  0  0  0  0
    7.8099    0.9602    1.0508 O   0  0  0  0  0  0  0  0  0  0  0  0
    7.7191    0.0545   -1.3128 O   0  0  0  0  0  0  0  0  0  0  0  0
    2.9462    2.0625   -0.2689 H   0  0  0  0  0  0  0  0  0  0  0  0
    5.4181    2.0680   -0.1972 H   0  0  0  0  0  0  0  0  0  0  0  0
    2.9136   -2.1785    0.4383 H   0  0  0  0  0  0  0  0  0  0  0  0
    5.0560   -3.3738    0.0044 H   0  0  0  0  0  0  0  0  0  0  0  0
    7.1969   -2.0290    2.4212 H   0  0  0  0  0  0  0  0  0  0  0  0
    4.8246   -3.9324    4.6412 H   0  0  0  0  0  0  0  0  0  0  0  0
    6.6091   -2.7119    8.1061 H   0  0  0  0  0  0  0  0  0  0  0  0
    8.9040   -1.7380    8.1498 H   0  0  0  0  0  0  0  0  0  0  0  0
   10.8659   -0.8619    6.9425 H   0  0  0  0  0  0  0  0  0  0  0  0
   10.8622   -0.7860    4.4671 H   0  0  0  0  0  0  0  0  0  0  0  0
    8.9732   -1.6223    3.2042 H   0  0  0  0  0  0  0  0  0  0  0  0
    7.0617   -2.5909   -1.0328 H   0  0  0  0  0  0  0  0  0  0  0  0
    7.5204   -3.5869    0.3452 H   0  0  0  0  0  0  0  0  0  0  0  0
    8.8073   -1.6202    0.3378 H   0  0  0  0  0  0  0  0  0  0  0  0
  1  2  1  0  0  0  0
  2  3  1  0  0  0  0
  2  7  2  0  0  0  0
  3  4  2  0  0  0  0
  3 27  1  0  0  0  0
  4  5  1  0  0  0  0
  4 28  1  0  0  0  0
  5  6  2  0  0  0  0
  5 24  1  0  0  0  0
  6  7  1  0  0  0  0
  6  8  1  0  0  0  0
  7 29  1  0  0  0  0
  8  9  1  0  0  0  0
  8 22  1  0  0  0  0
  8 30  1  0  0  0  0
  9 10  2  0  0  0  0
  9 11  1  0  0  0  0
 11 12  1  0  0  0  0
 11 31  1  0  0  0  0
 12 13  1  0  0  0  0
 12 21  2  0  0  0  0
 13 14  2  0  0  0  0
 13 32  1  0  0  0  0
 14 15  1  0  0  0  0
 15 16  2  0  0  0  0
 15 33  1  0  0  0  0
 16 17  1  0  0  0  0
 16 21  1  0  0  0  0
 17 18  2  0  0  0  0
 17 34  1  0  0  0  0
 18 19  1  0  0  0  0
 18 35  1  0  0  0  0
 19 20  2  0  0  0  0
 19 36  1  0  0  0  0
 20 21  1  0  0  0  0
 20 37  1  0  0  0  0
 22 23  1  0  0  0  0
 22 38  1  0  0  0  0
 22 39  1  0  0  0  0
 23 24  1  0  0  0  0
 23 40  1  0  0  0  0
 24 25  2  0  0  0  0
 24 26  2  0  0  0  0
M  END
$$$$
