
 OpenBabel07202414203D

 36 38  0  0  0  0  0  0  0  0999 V2000
    2.2280    1.4554   -3.8199 C   0  0  0  0  0  0  0  0  0  0  0  0
    1.8382    1.9050   -2.5571 C   0  0  0  0  0  0  0  0  0  0  0  0
    2.8013    2.2757   -1.6004 C   0  0  0  0  0  0  0  0  0  0  0  0
    4.1589    2.1842   -1.9452 C   0  0  0  0  0  0  0  0  0  0  0  0
    4.5386    1.7316   -3.2092 C   0  0  0  0  0  0  0  0  0  0  0  0
    3.5808    1.3677   -4.1500 C   0  0  0  0  0  0  0  0  0  0  0  0
    6.2120    1.6046   -3.5988 Cl  0  0  0  0  0  0  0  0  0  0  0  0
    2.4122    2.6475   -0.1885 C   0  0  0  0  0  0  0  0  0  0  0  0
    1.3784    3.7476   -0.0621 C   0  0  0  0  0  0  0  0  0  0  0  0
    0.1983    3.4862    0.1631 O   0  0  0  0  0  0  0  0  0  0  0  0
    1.8831    5.0266   -0.2272 N   0  0  0  0  0  0  0  0  0  0  0  0
    1.0459    6.1628   -0.1125 C   0  0  0  0  0  0  0  0  0  0  0  0
    0.0998    6.3081    0.8972 C   0  0  0  0  0  0  0  0  0  0  0  0
   -0.7469    7.3605    0.9920 N   0  0  0  0  0  0  0  0  0  0  0  0
   -0.6688    8.2881    0.0156 C   0  0  0  0  0  0  0  0  0  0  0  0
    0.2421    8.2480   -1.0326 C   0  0  0  0  0  0  0  0  0  0  0  0
    1.1293    7.1693   -1.0744 C   0  0  0  0  0  0  0  0  0  0  0  0
    2.0739    7.0153   -2.0568 O   0  0  0  0  0  0  0  0  0  0  0  0
    1.7903    7.7420   -3.2561 C   0  0  0  0  0  0  0  0  0  0  0  0
    1.4680    9.1993   -2.9668 C   0  0  0  0  0  0  0  0  0  0  0  0
    0.2028    9.2695   -2.1208 C   0  0  0  0  0  0  0  0  0  0  0  0
    1.4746    1.1541   -4.5443 H   0  0  0  0  0  0  0  0  0  0  0  0
    0.7777    1.9331   -2.3069 H   0  0  0  0  0  0  0  0  0  0  0  0
    4.9256    2.4344   -1.2165 H   0  0  0  0  0  0  0  0  0  0  0  0
    3.8784    1.0012   -5.1294 H   0  0  0  0  0  0  0  0  0  0  0  0
    3.2921    2.9455    0.3920 H   0  0  0  0  0  0  0  0  0  0  0  0
    2.0084    1.7544    0.3064 H   0  0  0  0  0  0  0  0  0  0  0  0
    2.6583    5.1284   -0.8765 H   0  0  0  0  0  0  0  0  0  0  0  0
   -0.0004    5.5735    1.6908 H   0  0  0  0  0  0  0  0  0  0  0  0
   -1.4020    9.0897    0.0939 H   0  0  0  0  0  0  0  0  0  0  0  0
    0.9723    7.2425   -3.7909 H   0  0  0  0  0  0  0  0  0  0  0  0
    2.6799    7.6823   -3.8914 H   0  0  0  0  0  0  0  0  0  0  0  0
    1.3355    9.7629   -3.8958 H   0  0  0  0  0  0  0  0  0  0  0  0
    2.2985    9.6523   -2.4113 H   0  0  0  0  0  0  0  0  0  0  0  0
   -0.6692    9.0630   -2.7555 H   0  0  0  0  0  0  0  0  0  0  0  0
    0.0888   10.2766   -1.7095 H   0  0  0  0  0  0  0  0  0  0  0  0
  1  2  1  0  0  0  0
  1  6  2  0  0  0  0
  1 22  1  0  0  0  0
  2  3  2  0  0  0  0
  2 23  1  0  0  0  0
  3  4  1  0  0  0  0
  3  8  1  0  0  0  0
  4  5  2  0  0  0  0
  4 24  1  0  0  0  0
  5  6  1  0  0  0  0
  5  7  1  0  0  0  0
  6 25  1  0  0  0  0
  8  9  1  0  0  0  0
  8 26  1  0  0  0  0
  8 27  1  0  0  0  0
  9 10  2  0  0  0  0
  9 11  1  0  0  0  0
 11 12  1  0  0  0  0
 11 28  1  0  0  0  0
 12 13  1  0  0  0  0
 12 17  2  0  0  0  0
 13 14  2  0  0  0  0
 13 29  1  0  0  0  0
 14 15  1  0  0  0  0
 15 16  2  0  0  0  0
 15 30  1  0  0  0  0
 16 17  1  0  0  0  0
 16 21  1  0  0  0  0
 17 18  1  0  0  0  0
 18 19  1  0  0  0  0
 19 20  1  0  0  0  0
 19 31  1  0  0  0  0
 19 32  1  0  0  0  0
 20 21  1  0  0  0  0
 20 33  1  0  0  0  0
 20 34  1  0  0  0  0
 21 35  1  0  0  0  0
 21 36  1  0  0  0  0
M  END
$$$$
