
 OpenBabel07202414123D

 67 70  0  0  1  0  0  0  0  0999 V2000
    4.3783    1.6476   -0.4978 C   0  0  0  0  0  0  0  0  0  0  0  0
    3.0869    1.1772    0.2129 C   0  0  0  0  0  0  0  0  0  0  0  0
    2.2764    2.4473    0.5585 C   0  0  0  0  0  0  0  0  0  0  0  0
    2.2876    0.3371   -0.8046 C   0  0  0  0  0  0  0  0  0  0  0  0
    3.3500    0.3768    1.5011 C   0  0  0  0  0  0  0  0  0  0  0  0
    4.6340    0.2108    2.0320 C   0  0  0  0  0  0  0  0  0  0  0  0
    4.8298   -0.3895    3.2818 C   0  0  0  0  0  0  0  0  0  0  0  0
    3.7611   -0.9061    4.0296 C   0  0  0  0  0  0  0  0  0  0  0  0
    4.0150   -1.4456    5.3430 N   0  0  0  0  0  0  0  0  0  0  0  0
    3.6075   -2.8467    5.6957 C   0  0  3  0  0  0  0  0  0  0  0  0
    2.1369   -2.9734    6.2489 C   0  0  0  0  0  0  0  0  0  0  0  0
    1.1445   -2.5615    5.6508 O   0  0  0  0  0  0  0  0  0  0  0  0
    2.0037   -3.6998    7.4256 N   0  0  0  0  0  0  0  0  0  0  0  0
    0.7128   -4.2186    7.8664 C   0  0  0  0  0  0  0  0  0  0  0  0
    0.6486   -4.3720    9.3853 C   0  0  0  0  0  0  0  0  0  0  0  0
   -0.6805   -4.8812    9.8827 C   0  0  0  0  0  0  0  0  0  0  0  0
   -1.7088   -3.9797   10.1959 C   0  0  0  0  0  0  0  0  0  0  0  0
   -2.9344   -4.4358   10.6894 C   0  0  0  0  0  0  0  0  0  0  0  0
   -3.1474   -5.8005   10.8658 C   0  0  0  0  0  0  0  0  0  0  0  0
   -2.1343   -6.6964   10.5431 C   0  0  0  0  0  0  0  0  0  0  0  0
   -2.3382   -8.0095   10.7152 F   0  0  0  0  0  0  0  0  0  0  0  0
   -0.9099   -6.2509   10.0520 C   0  0  0  0  0  0  0  0  0  0  0  0
    3.8760   -3.9838    4.6894 C   0  0  0  0  0  0  0  0  0  0  0  0
    4.4901   -3.8574    3.4424 C   0  0  0  0  0  0  0  0  0  0  0  0
    4.5898   -4.9486    2.5786 C   0  0  0  0  0  0  0  0  0  0  0  0
    4.1297   -6.1759    3.0094 C   0  0  0  0  0  0  0  0  0  0  0  0
    3.6301   -6.3818    4.2396 N   0  0  0  0  0  0  0  0  0  0  0  0
    3.5202   -5.2943    5.0382 C   0  0  0  0  0  0  0  0  0  0  0  0
    4.6703   -0.5653    6.2540 C   0  0  0  0  0  0  0  0  0  0  0  0
    5.1230    0.5259    5.8964 O   0  0  0  0  0  0  0  0  0  0  0  0
    4.8430   -0.9350    7.6531 C   0  0  0  0  0  0  0  0  0  0  0  0
    5.7566   -0.4451    8.5719 C   0  0  0  0  0  0  0  0  0  0  0  0
    5.4995   -1.0964    9.7966 C   0  0  0  0  0  0  0  0  0  0  0  0
    4.4193   -1.9188    9.5763 C   0  0  0  0  0  0  0  0  0  0  0  0
    3.6865   -2.9714   10.7179 Cl  0  0  0  0  0  0  0  0  0  0  0  0
    4.0038   -1.8071    8.2864 O   0  0  0  0  0  0  0  0  0  0  0  0
    2.4895   -0.8216    3.4769 C   0  0  0  0  0  0  0  0  0  0  0  0
    2.2852   -0.1707    2.2424 C   0  0  0  0  0  0  0  0  0  0  0  0
    4.1480    2.2163   -1.4064 H   0  0  0  0  0  0  0  0  0  0  0  0
    5.0055    0.7987   -0.7944 H   0  0  0  0  0  0  0  0  0  0  0  0
    4.9771    2.3045    0.1447 H   0  0  0  0  0  0  0  0  0  0  0  0
    2.0458    3.0260   -0.3441 H   0  0  0  0  0  0  0  0  0  0  0  0
    2.8377    3.1023    1.2358 H   0  0  0  0  0  0  0  0  0  0  0  0
    1.3231    2.2119    1.0436 H   0  0  0  0  0  0  0  0  0  0  0  0
    2.0630    0.9224   -1.7048 H   0  0  0  0  0  0  0  0  0  0  0  0
    1.3292   -0.0062   -0.4018 H   0  0  0  0  0  0  0  0  0  0  0  0
    2.8532   -0.5481   -1.1168 H   0  0  0  0  0  0  0  0  0  0  0  0
    5.5175    0.5705    1.5124 H   0  0  0  0  0  0  0  0  0  0  0  0
    5.8471   -0.4638    3.6599 H   0  0  0  0  0  0  0  0  0  0  0  0
    4.2822   -3.1383    6.5082 H   0  0  0  0  0  0  0  0  0  0  0  0
    2.8342   -4.0096    7.9164 H   0  0  0  0  0  0  0  0  0  0  0  0
    0.5847   -5.1940    7.3808 H   0  0  0  0  0  0  0  0  0  0  0  0
   -0.0913   -3.5693    7.5042 H   0  0  0  0  0  0  0  0  0  0  0  0
    0.8541   -3.4042    9.8589 H   0  0  0  0  0  0  0  0  0  0  0  0
    1.4449   -5.0454    9.7281 H   0  0  0  0  0  0  0  0  0  0  0  0
   -1.5573   -2.9088   10.0690 H   0  0  0  0  0  0  0  0  0  0  0  0
   -3.7186   -3.7252   10.9387 H   0  0  0  0  0  0  0  0  0  0  0  0
   -4.0908   -6.1707   11.2541 H   0  0  0  0  0  0  0  0  0  0  0  0
   -0.1439   -6.9866    9.8193 H   0  0  0  0  0  0  0  0  0  0  0  0
    4.8965   -2.9219    3.0869 H   0  0  0  0  0  0  0  0  0  0  0  0
    5.0072   -4.8298    1.5848 H   0  0  0  0  0  0  0  0  0  0  0  0
    4.1546   -7.0458    2.3611 H   0  0  0  0  0  0  0  0  0  0  0  0
    3.1175   -5.5411    6.0163 H   0  0  0  0  0  0  0  0  0  0  0  0
    6.5209    0.2921    8.3615 H   0  0  0  0  0  0  0  0  0  0  0  0
    6.0302   -0.9842   10.7315 H   0  0  0  0  0  0  0  0  0  0  0  0
    1.6065   -1.1602    4.0046 H   0  0  0  0  0  0  0  0  0  0  0  0
    1.2592   -0.0626    1.8938 H   0  0  0  0  0  0  0  0  0  0  0  0
  1  2  1  0  0  0  0
  1 39  1  0  0  0  0
  1 40  1  0  0  0  0
  1 41  1  0  0  0  0
  2  3  1  0  0  0  0
  2  4  1  0  0  0  0
  2  5  1  0  0  0  0
  3 42  1  0  0  0  0
  3 43  1  0  0  0  0
  3 44  1  0  0  0  0
  4 45  1  0  0  0  0
  4 46  1  0  0  0  0
  4 47  1  0  0  0  0
  5  6  1  0  0  0  0
  5 38  2  0  0  0  0
  6  7  2  0  0  0  0
  6 48  1  0  0  0  0
  7  8  1  0  0  0  0
  7 49  1  0  0  0  0
  8  9  1  0  0  0  0
  8 37  2  0  0  0  0
  9 10  1  0  0  0  0
  9 29  1  0  0  0  0
 10 11  1  0  0  0  0
 10 23  1  0  0  0  0
 10 50  1  0  0  0  0
 11 12  2  0  0  0  0
 11 13  1  0  0  0  0
 13 14  1  0  0  0  0
 13 51  1  0  0  0  0
 14 15  1  0  0  0  0
 14 52  1  0  0  0  0
 14 53  1  0  0  0  0
 15 16  1  0  0  0  0
 15 54  1  0  0  0  0
 15 55  1  0  0  0  0
 16 17  1  0  0  0  0
 16 22  2  0  0  0  0
 17 18  2  0  0  0  0
 17 56  1  0  0  0  0
 18 19  1  0  0  0  0
 18 57  1  0  0  0  0
 19 20  2  0  0  0  0
 19 58  1  0  0  0  0
 20 21  1  0  0  0  0
 20 22  1  0  0  0  0
 22 59  1  0  0  0  0
 23 24  1  0  0  0  0
 23 28  2  0  0  0  0
 24 25  2  0  0  0  0
 24 60  1  0  0  0  0
 25 26  1  0  0  0  0
 25 61  1  0  0  0  0
 26 27  2  0  0  0  0
 26 62  1  0  0  0  0
 27 28  1  0  0  0  0
 28 63  1  0  0  0  0
 29 30  2  0  0  0  0
 29 31  1  0  0  0  0
 31 32  2  0  0  0  0
 31 36  1  0  0  0  0
 32 33  1  0  0  0  0
 32 64  1  0  0  0  0
 33 34  2  0  0  0  0
 33 65  1  0  0  0  0
 34 35  1  0  0  0  0
 34 36  1  0  0  0  0
 37 38  1  0  0  0  0
 37 66  1  0  0  0  0
 38 67  1  0  0  0  0
M  END
$$$$
