
 OpenBabel07202414113D

 42 43  0  0  0  0  0  0  0  0999 V2000
    7.8072   -1.5805    5.4660 C   0  0  0  0  0  0  0  0  0  0  0  0
    7.4628   -0.3192    4.6834 C   0  0  0  0  0  0  0  0  0  0  0  0
    7.4271    0.7689    5.2488 O   0  0  0  0  0  0  0  0  0  0  0  0
    7.2125   -0.5361    3.3331 N   0  0  0  0  0  0  0  0  0  0  0  0
    6.7173    0.4041    2.3755 C   0  0  0  0  0  0  0  0  0  0  0  0
    7.2112    0.2775    1.0623 C   0  0  0  0  0  0  0  0  0  0  0  0
    6.7716    1.1031    0.0024 C   0  0  0  0  0  0  0  0  0  0  0  0
    5.8147    2.0902    0.2209 C   0  0  0  0  0  0  0  0  0  0  0  0
    5.2826    2.2032    1.5073 C   0  0  0  0  0  0  0  0  0  0  0  0
    5.6950    1.3515    2.5879 C   0  0  0  0  0  0  0  0  0  0  0  0
    4.8177    1.3758    3.8340 C   0  0  0  0  0  0  0  0  0  0  0  0
    3.4303    0.9608    3.5592 N   0  0  0  0  0  0  0  0  0  0  0  0
    2.5483    1.1103    4.7307 C   0  0  0  0  0  0  0  0  0  0  0  0
    2.2967   -0.1371    5.6159 C   0  0  0  0  0  0  0  0  0  0  0  0
    2.0766   -1.3609    4.8390 N   0  0  0  0  0  0  0  0  0  0  0  0
    3.0537   -1.5803    3.7803 C   0  0  0  0  0  0  0  0  0  0  0  0
    3.2747   -0.3452    2.8986 C   0  0  0  0  0  0  0  0  0  0  0  0
    1.3986   -2.4935    5.2946 C   0  0  0  0  0  0  0  0  0  0  0  0
    1.6190   -3.6071    4.8175 O   0  0  0  0  0  0  0  0  0  0  0  0
    0.3193   -2.3414    6.3500 C   0  0  0  0  0  0  0  0  0  0  0  0
    0.9614   -2.8207    7.9290 Cl  0  0  0  0  0  0  0  0  0  0  0  0
    5.3458    2.9238   -0.8569 C   0  0  0  0  0  0  0  0  0  0  0  0
    4.9711    3.5857   -1.7410 N   0  0  0  0  0  0  0  0  0  0  0  0
    8.6900   -1.4043    6.0909 H   0  0  0  0  0  0  0  0  0  0  0  0
    8.0184   -2.4367    4.8196 H   0  0  0  0  0  0  0  0  0  0  0  0
    6.9684   -1.8407    6.1209 H   0  0  0  0  0  0  0  0  0  0  0  0
    7.7006   -1.3347    2.9459 H   0  0  0  0  0  0  0  0  0  0  0  0
    7.9617   -0.4765    0.8344 H   0  0  0  0  0  0  0  0  0  0  0  0
    7.1848    0.9481   -0.9932 H   0  0  0  0  0  0  0  0  0  0  0  0
    4.4706    2.9140    1.6799 H   0  0  0  0  0  0  0  0  0  0  0  0
    4.8126    2.4206    4.1763 H   0  0  0  0  0  0  0  0  0  0  0  0
    5.2114    0.7793    4.6512 H   0  0  0  0  0  0  0  0  0  0  0  0
    1.5767    1.4422    4.3451 H   0  0  0  0  0  0  0  0  0  0  0  0
    2.8959    1.9310    5.3726 H   0  0  0  0  0  0  0  0  0  0  0  0
    1.4435    0.0614    6.2694 H   0  0  0  0  0  0  0  0  0  0  0  0
    3.1623   -0.3160    6.2658 H   0  0  0  0  0  0  0  0  0  0  0  0
    2.7045   -2.3913    3.1297 H   0  0  0  0  0  0  0  0  0  0  0  0
    3.9894   -1.9127    4.2450 H   0  0  0  0  0  0  0  0  0  0  0  0
    2.4023   -0.2509    2.2404 H   0  0  0  0  0  0  0  0  0  0  0  0
    4.1005   -0.5741    2.2176 H   0  0  0  0  0  0  0  0  0  0  0  0
   -0.5038   -3.0175    6.0912 H   0  0  0  0  0  0  0  0  0  0  0  0
   -0.0933   -1.3345    6.4067 H   0  0  0  0  0  0  0  0  0  0  0  0
  1  2  1  0  0  0  0
  1 24  1  0  0  0  0
  1 25  1  0  0  0  0
  1 26  1  0  0  0  0
  2  3  2  0  0  0  0
  2  4  1  0  0  0  0
  4  5  1  0  0  0  0
  4 27  1  0  0  0  0
  5  6  1  0  0  0  0
  5 10  2  0  0  0  0
  6  7  2  0  0  0  0
  6 28  1  0  0  0  0
  7  8  1  0  0  0  0
  7 29  1  0  0  0  0
  8  9  2  0  0  0  0
  8 22  1  0  0  0  0
  9 10  1  0  0  0  0
  9 30  1  0  0  0  0
 10 11  1  0  0  0  0
 11 12  1  0  0  0  0
 11 31  1  0  0  0  0
 11 32  1  0  0  0  0
 12 13  1  0  0  0  0
 12 17  1  0  0  0  0
 13 14  1  0  0  0  0
 13 33  1  0  0  0  0
 13 34  1  0  0  0  0
 14 15  1  0  0  0  0
 14 35  1  0  0  0  0
 14 36  1  0  0  0  0
 15 16  1  0  0  0  0
 15 18  1  0  0  0  0
 16 17  1  0  0  0  0
 16 37  1  0  0  0  0
 16 38  1  0  0  0  0
 17 39  1  0  0  0  0
 17 40  1  0  0  0  0
 18 19  2  0  0  0  0
 18 20  1  0  0  0  0
 20 21  1  0  0  0  0
 20 41  1  0  0  0  0
 20 42  1  0  0  0  0
 22 23  3  0  0  0  0
M  END
$$$$
