
 OpenBabel07202414133D

 63 68  0  0  1  0  0  0  0  0999 V2000
    1.0398    0.0558    0.5222 C   0  0  0  0  0  0  0  0  0  0  0  0
    2.2690   -0.4918   -0.1973 C   0  0  3  0  0  0  0  0  0  0  0  0
    2.0629   -1.9480   -0.6231 C   0  0  0  0  0  0  0  0  0  0  0  0
    3.3010   -2.4426   -1.2151 N   0  0  0  0  0  0  0  0  0  0  0  0
    3.5480   -3.7568   -1.2955 N   0  0  0  0  0  0  0  0  0  0  0  0
    4.7440   -3.8071   -1.8891 C   0  0  0  0  0  0  0  0  0  0  0  0
    5.2667   -2.5260   -2.1558 C   0  0  0  0  0  0  0  0  0  0  0  0
    4.3094   -1.6483   -1.6882 C   0  0  0  0  0  0  0  0  0  0  0  0
    4.2553   -0.1621   -1.6195 C   0  0  0  0  0  0  0  0  0  0  0  0
    2.8818    0.2731   -1.3250 N   0  0  0  0  0  0  0  0  0  0  0  0
    2.2970    1.1161   -2.2722 C   0  0  0  0  0  0  0  0  0  0  0  0
    2.9545    1.5955   -3.1968 O   0  0  0  0  0  0  0  0  0  0  0  0
    0.8478    1.5113   -2.0785 C   0  0  0  0  0  0  0  0  0  0  0  0
    0.1544    2.3905   -3.1638 C   0  0  3  0  0  0  0  0  0  0  0  0
   -0.0840    1.5145   -4.4281 C   0  0  0  0  0  0  0  0  0  0  0  0
    0.5265    0.4605   -4.5891 O   0  0  0  0  0  0  0  0  0  0  0  0
   -1.0362    2.0047   -5.3097 N   0  0  0  0  0  0  0  0  0  0  0  0
   -1.5938    1.3193   -6.4283 C   0  0  0  0  0  0  0  0  0  0  0  0
   -1.0922    0.1055   -6.9080 C   0  0  0  0  0  0  0  0  0  0  0  0
   -1.6835   -0.6540   -7.8621 N   0  0  0  0  0  0  0  0  0  0  0  0
   -2.8054   -0.1583   -8.4154 C   0  0  0  0  0  0  0  0  0  0  0  0
   -3.3400    1.0940   -8.1192 C   0  0  0  0  0  0  0  0  0  0  0  0
   -4.4407    1.5965   -8.8407 C   0  0  0  0  0  0  0  0  0  0  0  0
   -4.9491    2.8603   -8.5690 C   0  0  0  0  0  0  0  0  0  0  0  0
   -4.3957    3.6171   -7.5458 C   0  0  0  0  0  0  0  0  0  0  0  0
   -3.3158    3.1212   -6.8115 C   0  0  0  0  0  0  0  0  0  0  0  0
   -2.7346    1.8581   -7.0916 C   0  0  0  0  0  0  0  0  0  0  0  0
    0.9137    3.6714   -3.5669 C   0  0  0  0  0  0  0  0  0  0  0  0
    1.0099    4.6142   -2.3820 C   0  0  0  0  0  0  0  0  0  0  0  0
   -0.2784    5.0821   -1.9856 O   0  0  0  0  0  0  0  0  0  0  0  0
   -1.2625    4.1346   -1.9310 C   0  0  0  0  0  0  0  0  0  0  0  0
   -2.4241    4.5387   -1.2687 C   0  0  0  0  0  0  0  0  0  0  0  0
   -3.4977    3.6608   -1.1309 C   0  0  0  0  0  0  0  0  0  0  0  0
   -3.4091    2.3808   -1.6708 C   0  0  0  0  0  0  0  0  0  0  0  0
   -4.7229    1.2877   -1.4900 Cl  0  0  0  0  0  0  0  0  0  0  0  0
   -2.2540    1.9720   -2.3432 C   0  0  0  0  0  0  0  0  0  0  0  0
   -1.1638    2.8510   -2.4910 C   0  0  0  0  0  0  0  0  0  0  0  0
    0.8874   -0.4921    1.4603 H   0  0  0  0  0  0  0  0  0  0  0  0
    0.1193   -0.0750   -0.0497 H   0  0  0  0  0  0  0  0  0  0  0  0
    1.1635    1.1096    0.7854 H   0  0  0  0  0  0  0  0  0  0  0  0
    3.0503   -0.4794    0.5779 H   0  0  0  0  0  0  0  0  0  0  0  0
    1.2866   -2.0440   -1.3905 H   0  0  0  0  0  0  0  0  0  0  0  0
    1.8191   -2.5841    0.2371 H   0  0  0  0  0  0  0  0  0  0  0  0
    5.1900   -4.7738   -2.0941 H   0  0  0  0  0  0  0  0  0  0  0  0
    6.2124   -2.2794   -2.6151 H   0  0  0  0  0  0  0  0  0  0  0  0
    4.6507    0.2669   -2.5443 H   0  0  0  0  0  0  0  0  0  0  0  0
    4.8882    0.1891   -0.7950 H   0  0  0  0  0  0  0  0  0  0  0  0
    0.8071    2.0432   -1.1231 H   0  0  0  0  0  0  0  0  0  0  0  0
    0.2774    0.5800   -1.9932 H   0  0  0  0  0  0  0  0  0  0  0  0
   -1.5228    2.8381   -5.0131 H   0  0  0  0  0  0  0  0  0  0  0  0
   -0.1631   -0.3249   -6.5477 H   0  0  0  0  0  0  0  0  0  0  0  0
   -3.2744   -0.8171   -9.1425 H   0  0  0  0  0  0  0  0  0  0  0  0
   -4.8869    1.0093   -9.6426 H   0  0  0  0  0  0  0  0  0  0  0  0
   -5.7681    3.2598   -9.1628 H   0  0  0  0  0  0  0  0  0  0  0  0
   -4.7913    4.6076   -7.3256 H   0  0  0  0  0  0  0  0  0  0  0  0
   -2.9184    3.7694   -6.0363 H   0  0  0  0  0  0  0  0  0  0  0  0
    0.3718    4.1879   -4.3719 H   0  0  0  0  0  0  0  0  0  0  0  0
    1.9069    3.4655   -3.9713 H   0  0  0  0  0  0  0  0  0  0  0  0
    1.6001    5.4952   -2.6556 H   0  0  0  0  0  0  0  0  0  0  0  0
    1.5093    4.1613   -1.5172 H   0  0  0  0  0  0  0  0  0  0  0  0
   -2.4847    5.5376   -0.8389 H   0  0  0  0  0  0  0  0  0  0  0  0
   -4.3891    3.9764   -0.5952 H   0  0  0  0  0  0  0  0  0  0  0  0
   -2.2111    0.9590   -2.7404 H   0  0  0  0  0  0  0  0  0  0  0  0
  1  2  1  0  0  0  0
  1 38  1  0  0  0  0
  1 39  1  0  0  0  0
  1 40  1  0  0  0  0
  2  3  1  0  0  0  0
  2 10  1  0  0  0  0
  2 41  1  0  0  0  0
  3  4  1  0  0  0  0
  3 42  1  0  0  0  0
  3 43  1  0  0  0  0
  4  5  1  0  0  0  0
  4  8  1  0  0  0  0
  5  6  2  0  0  0  0
  6  7  1  0  0  0  0
  6 44  1  0  0  0  0
  7  8  2  0  0  0  0
  7 45  1  0  0  0  0
  8  9  1  0  0  0  0
  9 10  1  0  0  0  0
  9 46  1  0  0  0  0
  9 47  1  0  0  0  0
 10 11  1  0  0  0  0
 11 12  2  0  0  0  0
 11 13  1  0  0  0  0
 13 14  1  0  0  0  0
 13 48  1  0  0  0  0
 13 49  1  0  0  0  0
 14 15  1  0  0  0  0
 14 28  1  0  0  0  0
 14 37  1  0  0  0  0
 15 16  2  0  0  0  0
 15 17  1  0  0  0  0
 17 18  1  0  0  0  0
 17 50  1  0  0  0  0
 18 19  1  0  0  0  0
 18 27  2  0  0  0  0
 19 20  2  0  0  0  0
 19 51  1  0  0  0  0
 20 21  1  0  0  0  0
 21 22  2  0  0  0  0
 21 52  1  0  0  0  0
 22 23  1  0  0  0  0
 22 27  1  0  0  0  0
 23 24  2  0  0  0  0
 23 53  1  0  0  0  0
 24 25  1  0  0  0  0
 24 54  1  0  0  0  0
 25 26  2  0  0  0  0
 25 55  1  0  0  0  0
 26 27  1  0  0  0  0
 26 56  1  0  0  0  0
 28 29  1  0  0  0  0
 28 57  1  0  0  0  0
 28 58  1  0  0  0  0
 29 30  1  0  0  0  0
 29 59  1  0  0  0  0
 29 60  1  0  0  0  0
 30 31  1  0  0  0  0
 31 32  1  0  0  0  0
 31 37  2  0  0  0  0
 32 33  2  0  0  0  0
 32 61  1  0  0  0  0
 33 34  1  0  0  0  0
 33 62  1  0  0  0  0
 34 35  1  0  0  0  0
 34 36  2  0  0  0  0
 36 37  1  0  0  0  0
 36 63  1  0  0  0  0
M  END
$$$$
