
 OpenBabel07202414183D

 44 47  0  0  0  0  0  0  0  0999 V2000
    0.3020   -0.8336   -2.5119 C   0  0  0  0  0  0  0  0  0  0  0  0
    0.3229   -0.4685   -1.1107 N   0  0  0  0  0  0  0  0  0  0  0  0
    0.7261    0.7936   -0.8541 N   0  0  0  0  0  0  0  0  0  0  0  0
    0.6887    0.8898    0.4714 C   0  0  0  0  0  0  0  0  0  0  0  0
    0.2870   -0.3065    1.0690 C   0  0  0  0  0  0  0  0  0  0  0  0
    0.1787   -0.5096    2.5684 C   0  0  0  0  0  0  0  0  0  0  0  0
   -0.8166    0.4707    3.2641 C   0  0  0  0  0  0  0  0  0  0  0  0
    0.1922    0.6100    4.4175 C   0  0  0  0  0  0  0  0  0  0  0  0
    1.2867    0.1777    3.4308 C   0  0  0  0  0  0  0  0  0  0  0  0
    0.0107   -1.1979    0.0319 C   0  0  0  0  0  0  0  0  0  0  0  0
   -0.4184   -2.6360    0.0718 C   0  0  0  0  0  0  0  0  0  0  0  0
   -1.8644   -2.7961    0.0538 N   0  0  0  0  0  0  0  0  0  0  0  0
   -2.5315   -3.0064   -1.1242 C   0  0  0  0  0  0  0  0  0  0  0  0
   -1.9824   -2.9897   -2.2193 O   0  0  0  0  0  0  0  0  0  0  0  0
   -3.9946   -3.2620   -0.9991 C   0  0  0  0  0  0  0  0  0  0  0  0
   -4.6561   -2.6892    0.0845 C   0  0  0  0  0  0  0  0  0  0  0  0
   -5.9763   -2.8043    0.3194 N   0  0  0  0  0  0  0  0  0  0  0  0
   -6.6801   -3.5051   -0.5968 C   0  0  0  0  0  0  0  0  0  0  0  0
   -6.1350   -4.1200   -1.7293 C   0  0  0  0  0  0  0  0  0  0  0  0
   -6.9373   -4.8358   -2.6382 C   0  0  0  0  0  0  0  0  0  0  0  0
   -6.3769   -5.4446   -3.7603 C   0  0  0  0  0  0  0  0  0  0  0  0
   -5.0079   -5.3713   -3.9714 C   0  0  0  0  0  0  0  0  0  0  0  0
   -4.2010   -4.6854   -3.0627 C   0  0  0  0  0  0  0  0  0  0  0  0
   -4.7429   -4.0143   -1.9385 C   0  0  0  0  0  0  0  0  0  0  0  0
    0.5968    0.0374   -3.1136 H   0  0  0  0  0  0  0  0  0  0  0  0
   -0.7124   -1.1023   -2.7929 H   0  0  0  0  0  0  0  0  0  0  0  0
    1.0221   -1.6365   -2.6845 H   0  0  0  0  0  0  0  0  0  0  0  0
    0.9705    1.8225    0.9389 H   0  0  0  0  0  0  0  0  0  0  0  0
   -0.0163   -1.5448    2.8599 H   0  0  0  0  0  0  0  0  0  0  0  0
   -1.7721    0.0215    3.5489 H   0  0  0  0  0  0  0  0  0  0  0  0
   -1.0211    1.4138    2.7419 H   0  0  0  0  0  0  0  0  0  0  0  0
    0.0348   -0.0986    5.2372 H   0  0  0  0  0  0  0  0  0  0  0  0
    0.2999    1.6171    4.8288 H   0  0  0  0  0  0  0  0  0  0  0  0
    2.0345   -0.5091    3.8384 H   0  0  0  0  0  0  0  0  0  0  0  0
    1.8164    1.0328    2.9947 H   0  0  0  0  0  0  0  0  0  0  0  0
   -0.0906   -3.0892    1.0169 H   0  0  0  0  0  0  0  0  0  0  0  0
    0.0110   -3.2235   -0.7427 H   0  0  0  0  0  0  0  0  0  0  0  0
   -2.2881   -3.1916    0.8798 H   0  0  0  0  0  0  0  0  0  0  0  0
   -4.1260   -2.0975    0.8300 H   0  0  0  0  0  0  0  0  0  0  0  0
   -7.7437   -3.5667   -0.3833 H   0  0  0  0  0  0  0  0  0  0  0  0
   -8.0096   -4.9237   -2.4772 H   0  0  0  0  0  0  0  0  0  0  0  0
   -7.0053   -5.9856   -4.4628 H   0  0  0  0  0  0  0  0  0  0  0  0
   -4.5573   -5.8498   -4.8373 H   0  0  0  0  0  0  0  0  0  0  0  0
   -3.1289   -4.6913   -3.2480 H   0  0  0  0  0  0  0  0  0  0  0  0
  1  2  1  0  0  0  0
  1 25  1  0  0  0  0
  1 26  1  0  0  0  0
  1 27  1  0  0  0  0
  2  3  1  0  0  0  0
  2 10  1  0  0  0  0
  3  4  2  0  0  0  0
  4  5  1  0  0  0  0
  4 28  1  0  0  0  0
  5  6  1  0  0  0  0
  5 10  2  0  0  0  0
  6  7  1  0  0  0  0
  6  9  1  0  0  0  0
  6 29  1  0  0  0  0
  7  8  1  0  0  0  0
  7 30  1  0  0  0  0
  7 31  1  0  0  0  0
  8  9  1  0  0  0  0
  8 32  1  0  0  0  0
  8 33  1  0  0  0  0
  9 34  1  0  0  0  0
  9 35  1  0  0  0  0
 10 11  1  0  0  0  0
 11 12  1  0  0  0  0
 11 36  1  0  0  0  0
 11 37  1  0  0  0  0
 12 13  1  0  0  0  0
 12 38  1  0  0  0  0
 13 14  2  0  0  0  0
 13 15  1  0  0  0  0
 15 16  1  0  0  0  0
 15 24  2  0  0  0  0
 16 17  2  0  0  0  0
 16 39  1  0  0  0  0
 17 18  1  0  0  0  0
 18 19  2  0  0  0  0
 18 40  1  0  0  0  0
 19 20  1  0  0  0  0
 19 24  1  0  0  0  0
 20 21  2  0  0  0  0
 20 41  1  0  0  0  0
 21 22  1  0  0  0  0
 21 42  1  0  0  0  0
 22 23  2  0  0  0  0
 22 43  1  0  0  0  0
 23 24  1  0  0  0  0
 23 44  1  0  0  0  0
M  END
$$$$
