
 OpenBabel07202414173D

 54 58  0  0  1  0  0  0  0  0999 V2000
    1.0066    0.1809   -0.0131 Cl  0  0  0  0  0  0  0  0  0  0  0  0
    2.7212    0.0995    0.1050 C   0  0  0  0  0  0  0  0  0  0  0  0
    3.4784    1.2566   -0.0507 C   0  0  0  0  0  0  0  0  0  0  0  0
    4.8715    1.1834   -0.0003 C   0  0  0  0  0  0  0  0  0  0  0  0
    5.5178   -0.0455    0.2031 C   0  0  0  0  0  0  0  0  0  0  0  0
    4.7447   -1.2134    0.3704 C   0  0  0  0  0  0  0  0  0  0  0  0
    3.3433   -1.1280    0.3271 C   0  0  0  0  0  0  0  0  0  0  0  0
    5.4232   -2.5565    0.5516 C   0  0  3  0  0  0  0  0  0  0  0  0
    5.3335   -3.0787    1.9988 C   0  0  0  0  0  0  0  0  0  0  0  0
    4.3770   -3.7650    2.3499 O   0  0  0  0  0  0  0  0  0  0  0  0
    6.3845   -2.6963    2.8122 N   0  0  0  0  0  0  0  0  0  0  0  0
    6.5633   -2.9434    4.1981 C   0  0  0  0  0  0  0  0  0  0  0  0
    5.5983   -3.5630    4.9905 C   0  0  0  0  0  0  0  0  0  0  0  0
    5.6459   -3.6295    6.3428 N   0  0  0  0  0  0  0  0  0  0  0  0
    6.7356   -3.1005    6.9358 C   0  0  0  0  0  0  0  0  0  0  0  0
    7.8358   -2.5911    6.2505 C   0  0  0  0  0  0  0  0  0  0  0  0
    9.0019   -2.1957    6.9344 C   0  0  0  0  0  0  0  0  0  0  0  0
   10.1187   -1.7451    6.2361 C   0  0  0  0  0  0  0  0  0  0  0  0
   10.0702   -1.6507    4.8530 C   0  0  0  0  0  0  0  0  0  0  0  0
    8.9057   -2.0142    4.1694 C   0  0  0  0  0  0  0  0  0  0  0  0
    7.7578   -2.5045    4.8418 C   0  0  0  0  0  0  0  0  0  0  0  0
    6.8654   -2.5236    0.0061 C   0  0  0  0  0  0  0  0  0  0  0  0
    7.6162   -1.3806    0.5615 N   0  0  0  0  0  0  0  0  0  0  0  0
    9.0676   -1.4310    0.2710 C   0  0  0  0  0  0  0  0  0  0  0  0
    9.4164   -1.4203   -1.2208 C   0  0  0  0  0  0  0  0  0  0  0  0
    9.5979   -0.3729   -1.8390 O   0  0  0  0  0  0  0  0  0  0  0  0
    9.4827   -2.6761   -1.7897 N   0  0  0  0  0  0  0  0  0  0  0  0
    9.7296   -2.8688   -3.1831 C   0  0  0  0  0  0  0  0  0  0  0  0
    8.5862   -2.9537   -4.1553 C   0  0  0  0  0  0  0  0  0  0  0  0
    9.3955   -4.1758   -3.8443 C   0  0  0  0  0  0  0  0  0  0  0  0
    7.0294   -0.1021    0.1009 C   0  0  0  0  0  0  0  0  0  0  0  0
    2.9934    2.2125   -0.2314 H   0  0  0  0  0  0  0  0  0  0  0  0
    5.4533    2.0916   -0.1530 H   0  0  0  0  0  0  0  0  0  0  0  0
    2.7391   -2.0259    0.4421 H   0  0  0  0  0  0  0  0  0  0  0  0
    4.8880   -3.2930   -0.0641 H   0  0  0  0  0  0  0  0  0  0  0  0
    7.0466   -2.0589    2.3776 H   0  0  0  0  0  0  0  0  0  0  0  0
    4.7112   -4.0278    4.5734 H   0  0  0  0  0  0  0  0  0  0  0  0
    6.7048   -3.1157    8.0227 H   0  0  0  0  0  0  0  0  0  0  0  0
    9.0569   -2.2724    8.0188 H   0  0  0  0  0  0  0  0  0  0  0  0
   11.0285   -1.4820    6.7699 H   0  0  0  0  0  0  0  0  0  0  0  0
   10.9407   -1.3081    4.2992 H   0  0  0  0  0  0  0  0  0  0  0  0
    8.9315   -1.9481    3.0888 H   0  0  0  0  0  0  0  0  0  0  0  0
    6.8334   -2.4677   -1.0906 H   0  0  0  0  0  0  0  0  0  0  0  0
    7.3666   -3.4627    0.2737 H   0  0  0  0  0  0  0  0  0  0  0  0
    9.4982   -2.3289    0.7280 H   0  0  0  0  0  0  0  0  0  0  0  0
    9.5763   -0.5869    0.7485 H   0  0  0  0  0  0  0  0  0  0  0  0
    9.2897   -3.4862   -1.2233 H   0  0  0  0  0  0  0  0  0  0  0  0
   10.6275   -2.3604   -3.5301 H   0  0  0  0  0  0  0  0  0  0  0  0
    8.7177   -2.4800   -5.1222 H   0  0  0  0  0  0  0  0  0  0  0  0
    7.5782   -2.8927   -3.7700 H   0  0  0  0  0  0  0  0  0  0  0  0
   10.0703   -4.5451   -4.6100 H   0  0  0  0  0  0  0  0  0  0  0  0
    8.9191   -4.9604   -3.2642 H   0  0  0  0  0  0  0  0  0  0  0  0
    7.2735    0.0928   -0.9479 H   0  0  0  0  0  0  0  0  0  0  0  0
    7.4500    0.7096    0.7101 H   0  0  0  0  0  0  0  0  0  0  0  0
  1  2  1  0  0  0  0
  2  3  1  0  0  0  0
  2  7  2  0  0  0  0
  3  4  2  0  0  0  0
  3 32  1  0  0  0  0
  4  5  1  0  0  0  0
  4 33  1  0  0  0  0
  5  6  2  0  0  0  0
  5 31  1  0  0  0  0
  6  7  1  0  0  0  0
  6  8  1  0  0  0  0
  7 34  1  0  0  0  0
  8  9  1  0  0  0  0
  8 22  1  0  0  0  0
  8 35  1  0  0  0  0
  9 10  2  0  0  0  0
  9 11  1  0  0  0  0
 11 12  1  0  0  0  0
 11 36  1  0  0  0  0
 12 13  1  0  0  0  0
 12 21  2  0  0  0  0
 13 14  2  0  0  0  0
 13 37  1  0  0  0  0
 14 15  1  0  0  0  0
 15 16  2  0  0  0  0
 15 38  1  0  0  0  0
 16 17  1  0  0  0  0
 16 21  1  0  0  0  0
 17 18  2  0  0  0  0
 17 39  1  0  0  0  0
 18 19  1  0  0  0  0
 18 40  1  0  0  0  0
 19 20  2  0  0  0  0
 19 41  1  0  0  0  0
 20 21  1  0  0  0  0
 20 42  1  0  0  0  0
 22 23  1  0  0  0  0
 22 43  1  0  0  0  0
 22 44  1  0  0  0  0
 23 24  1  0  0  0  0
 23 31  1  0  0  0  0
 24 25  1  0  0  0  0
 24 45  1  0  0  0  0
 24 46  1  0  0  0  0
 25 26  2  0  0  0  0
 25 27  1  0  0  0  0
 27 28  1  0  0  0  0
 27 47  1  0  0  0  0
 28 29  1  0  0  0  0
 28 30  1  0  0  0  0
 28 48  1  0  0  0  0
 29 30  1  0  0  0  0
 29 49  1  0  0  0  0
 29 50  1  0  0  0  0
 30 51  1  0  0  0  0
 30 52  1  0  0  0  0
 31 53  1  0  0  0  0
 31 54  1  0  0  0  0
M  END
$$$$
