
 OpenBabel07202414133D

 55 57  0  0  1  0  0  0  0  0999 V2000
    2.8934    1.4683   -3.9315 C   0  0  0  0  0  0  0  0  0  0  0  0
    4.1287    0.7277   -3.7634 N   0  0  0  0  0  0  0  0  0  0  0  0
    5.3618    1.3229   -4.2535 C   0  0  0  0  0  0  0  0  0  0  0  0
    4.0567   -0.5191   -3.1482 C   0  0  0  0  0  0  0  0  0  0  0  0
    2.9823   -1.0162   -2.8014 O   0  0  0  0  0  0  0  0  0  0  0  0
    5.3628   -1.3053   -2.9773 C   0  0  0  0  0  0  0  0  0  0  0  0
    6.3408   -0.5994   -2.2188 O   0  0  0  0  0  0  0  0  0  0  0  0
    7.5502   -1.3331   -2.0755 C   0  0  0  0  0  0  0  0  0  0  0  0
    8.2322   -1.5801   -3.4210 C   0  0  0  0  0  0  0  0  0  0  0  0
    8.4339   -2.7131   -3.8528 O   0  0  0  0  0  0  0  0  0  0  0  0
    8.5294   -0.4430   -4.1271 N   0  0  0  0  0  0  0  0  0  0  0  0
    9.0299   -0.4939   -5.4929 C   0  0  3  0  0  0  0  0  0  0  0  0
    8.4883    0.7298   -6.2716 C   0  0  0  0  0  0  0  0  0  0  0  0
    8.3537    1.8288   -5.7321 O   0  0  0  0  0  0  0  0  0  0  0  0
    8.1504    0.4613   -7.5898 N   0  0  0  0  0  0  0  0  0  0  0  0
    7.6644    1.4639   -8.4643 C   0  0  0  0  0  0  0  0  0  0  0  0
    8.3223    2.6898   -8.5807 C   0  0  0  0  0  0  0  0  0  0  0  0
    7.9591    3.6715   -9.4357 N   0  0  0  0  0  0  0  0  0  0  0  0
    6.8655    3.4331  -10.1915 C   0  0  0  0  0  0  0  0  0  0  0  0
    6.1079    2.2601  -10.1466 C   0  0  0  0  0  0  0  0  0  0  0  0
    4.9497    2.1029  -10.9284 C   0  0  0  0  0  0  0  0  0  0  0  0
    4.1807    0.9445  -10.8353 C   0  0  0  0  0  0  0  0  0  0  0  0
    4.5632   -0.0703   -9.9674 C   0  0  0  0  0  0  0  0  0  0  0  0
    5.7189    0.0686   -9.1956 C   0  0  0  0  0  0  0  0  0  0  0  0
    6.5212    1.2332   -9.2665 C   0  0  0  0  0  0  0  0  0  0  0  0
   10.5437   -0.5716   -5.5050 C   0  0  0  0  0  0  0  0  0  0  0  0
   11.1654   -1.8299   -5.4512 C   0  0  0  0  0  0  0  0  0  0  0  0
   12.5584   -1.9411   -5.4548 C   0  0  0  0  0  0  0  0  0  0  0  0
   13.3474   -0.7952   -5.5152 C   0  0  0  0  0  0  0  0  0  0  0  0
   12.7423    0.4582   -5.5474 C   0  0  0  0  0  0  0  0  0  0  0  0
   13.7147    1.8754   -5.6213 Cl  0  0  0  0  0  0  0  0  0  0  0  0
   11.3525    0.5766   -5.5283 C   0  0  0  0  0  0  0  0  0  0  0  0
    3.0728    2.4462   -4.3843 H   0  0  0  0  0  0  0  0  0  0  0  0
    2.4232    1.6036   -2.9529 H   0  0  0  0  0  0  0  0  0  0  0  0
    2.2196    0.8902   -4.5711 H   0  0  0  0  0  0  0  0  0  0  0  0
    5.1764    2.2833   -4.7397 H   0  0  0  0  0  0  0  0  0  0  0  0
    5.8170    0.6416   -4.9763 H   0  0  0  0  0  0  0  0  0  0  0  0
    6.0479    1.4851   -3.4185 H   0  0  0  0  0  0  0  0  0  0  0  0
    5.7330   -1.5359   -3.9828 H   0  0  0  0  0  0  0  0  0  0  0  0
    5.1264   -2.2520   -2.4768 H   0  0  0  0  0  0  0  0  0  0  0  0
    7.3584   -2.2891   -1.5754 H   0  0  0  0  0  0  0  0  0  0  0  0
    8.2311   -0.7553   -1.4439 H   0  0  0  0  0  0  0  0  0  0  0  0
    8.3267    0.4714   -3.7287 H   0  0  0  0  0  0  0  0  0  0  0  0
    8.6189   -1.3946   -5.9688 H   0  0  0  0  0  0  0  0  0  0  0  0
    7.9212   -0.4971   -7.8197 H   0  0  0  0  0  0  0  0  0  0  0  0
    9.2166    2.9105   -8.0037 H   0  0  0  0  0  0  0  0  0  0  0  0
    6.5942    4.2526  -10.8534 H   0  0  0  0  0  0  0  0  0  0  0  0
    4.6271    2.8946  -11.6020 H   0  0  0  0  0  0  0  0  0  0  0  0
    3.2767    0.8405  -11.4299 H   0  0  0  0  0  0  0  0  0  0  0  0
    3.9547   -0.9670   -9.8766 H   0  0  0  0  0  0  0  0  0  0  0  0
    5.9572   -0.7380   -8.5086 H   0  0  0  0  0  0  0  0  0  0  0  0
   10.5676   -2.7375   -5.3860 H   0  0  0  0  0  0  0  0  0  0  0  0
   13.0225   -2.9227   -5.4067 H   0  0  0  0  0  0  0  0  0  0  0  0
   14.4295   -0.8848   -5.5280 H   0  0  0  0  0  0  0  0  0  0  0  0
   10.9123    1.5721   -5.5273 H   0  0  0  0  0  0  0  0  0  0  0  0
  1  2  1  0  0  0  0
  1 33  1  0  0  0  0
  1 34  1  0  0  0  0
  1 35  1  0  0  0  0
  2  3  1  0  0  0  0
  2  4  1  0  0  0  0
  3 36  1  0  0  0  0
  3 37  1  0  0  0  0
  3 38  1  0  0  0  0
  4  5  2  0  0  0  0
  4  6  1  0  0  0  0
  6  7  1  0  0  0  0
  6 39  1  0  0  0  0
  6 40  1  0  0  0  0
  7  8  1  0  0  0  0
  8  9  1  0  0  0  0
  8 41  1  0  0  0  0
  8 42  1  0  0  0  0
  9 10  2  0  0  0  0
  9 11  1  0  0  0  0
 11 12  1  0  0  0  0
 11 43  1  0  0  0  0
 12 13  1  0  0  0  0
 12 26  1  0  0  0  0
 12 44  1  0  0  0  0
 13 14  2  0  0  0  0
 13 15  1  0  0  0  0
 15 16  1  0  0  0  0
 15 45  1  0  0  0  0
 16 17  1  0  0  0  0
 16 25  2  0  0  0  0
 17 18  2  0  0  0  0
 17 46  1  0  0  0  0
 18 19  1  0  0  0  0
 19 20  2  0  0  0  0
 19 47  1  0  0  0  0
 20 21  1  0  0  0  0
 20 25  1  0  0  0  0
 21 22  2  0  0  0  0
 21 48  1  0  0  0  0
 22 23  1  0  0  0  0
 22 49  1  0  0  0  0
 23 24  2  0  0  0  0
 23 50  1  0  0  0  0
 24 25  1  0  0  0  0
 24 51  1  0  0  0  0
 26 27  1  0  0  0  0
 26 32  2  0  0  0  0
 27 28  2  0  0  0  0
 27 52  1  0  0  0  0
 28 29  1  0  0  0  0
 28 53  1  0  0  0  0
 29 30  2  0  0  0  0
 29 54  1  0  0  0  0
 30 31  1  0  0  0  0
 30 32  1  0  0  0  0
 32 55  1  0  0  0  0
M  END
$$$$
