
 OpenBabel07202414163D

 47 50  0  0  0  0  0  0  0  0999 V2000
    2.3669   -0.4723    0.0207 C   0  0  0  0  0  0  0  0  0  0  0  0
    0.8701   -0.3655   -0.0457 C   0  0  0  0  0  0  0  0  0  0  0  0
    0.0860   -0.6440    1.0784 C   0  0  0  0  0  0  0  0  0  0  0  0
   -1.3078   -0.5562    1.0106 C   0  0  0  0  0  0  0  0  0  0  0  0
   -1.9392   -0.1684   -0.1773 C   0  0  0  0  0  0  0  0  0  0  0  0
   -3.3662   -0.0439   -0.2186 N   0  0  0  0  0  0  0  0  0  0  0  0
   -4.1243   -1.2978    0.0025 C   0  0  0  0  0  0  0  0  0  0  0  0
   -4.5287   -1.9977   -1.2844 C   0  0  0  0  0  0  0  0  0  0  0  0
   -5.8829   -2.1240   -1.6251 C   0  0  0  0  0  0  0  0  0  0  0  0
   -6.2861   -2.6734   -2.8436 C   0  0  0  0  0  0  0  0  0  0  0  0
   -5.3361   -3.1875   -3.7170 C   0  0  0  0  0  0  0  0  0  0  0  0
   -3.9928   -3.1701   -3.3493 C   0  0  0  0  0  0  0  0  0  0  0  0
   -2.8296   -3.9132   -4.3787 Cl  0  0  0  0  0  0  0  0  0  0  0  0
   -3.5849   -2.5739   -2.1493 C   0  0  0  0  0  0  0  0  0  0  0  0
   -3.8837    1.2572   -0.1896 C   0  0  0  0  0  0  0  0  0  0  0  0
   -3.1598    2.2529   -0.3406 O   0  0  0  0  0  0  0  0  0  0  0  0
   -5.3183    1.5160    0.2150 C   0  0  0  0  0  0  0  0  0  0  0  0
   -6.3423    1.2080   -0.7584 N   0  0  0  0  0  0  0  0  0  0  0  0
   -7.3566    0.4030   -0.3622 N   0  0  0  0  0  0  0  0  0  0  0  0
   -8.2880    0.4287   -1.3021 N   0  0  0  0  0  0  0  0  0  0  0  0
   -7.9132    1.3449   -2.2429 C   0  0  0  0  0  0  0  0  0  0  0  0
   -8.6032    1.8139   -3.3685 C   0  0  0  0  0  0  0  0  0  0  0  0
   -8.0211    2.8374   -4.1262 C   0  0  0  0  0  0  0  0  0  0  0  0
   -6.7698    3.3573   -3.7785 C   0  0  0  0  0  0  0  0  0  0  0  0
   -6.0594    2.8863   -2.6600 C   0  0  0  0  0  0  0  0  0  0  0  0
   -6.6630    1.8752   -1.9126 C   0  0  0  0  0  0  0  0  0  0  0  0
   -1.1592    0.1457   -1.2932 C   0  0  0  0  0  0  0  0  0  0  0  0
    0.2366    0.0323   -1.2314 C   0  0  0  0  0  0  0  0  0  0  0  0
    2.7010   -0.8248    1.0034 H   0  0  0  0  0  0  0  0  0  0  0  0
    2.8283    0.5044   -0.1572 H   0  0  0  0  0  0  0  0  0  0  0  0
    2.7310   -1.1852   -0.7260 H   0  0  0  0  0  0  0  0  0  0  0  0
    0.5551   -0.9185    2.0212 H   0  0  0  0  0  0  0  0  0  0  0  0
   -1.8876   -0.7463    1.9088 H   0  0  0  0  0  0  0  0  0  0  0  0
   -5.0108   -1.0754    0.6016 H   0  0  0  0  0  0  0  0  0  0  0  0
   -3.5313   -2.0005    0.6000 H   0  0  0  0  0  0  0  0  0  0  0  0
   -6.6583   -1.7985   -0.9385 H   0  0  0  0  0  0  0  0  0  0  0  0
   -7.3434   -2.6999   -3.0981 H   0  0  0  0  0  0  0  0  0  0  0  0
   -5.6513   -3.6154   -4.6643 H   0  0  0  0  0  0  0  0  0  0  0  0
   -2.5284   -2.5737   -1.8902 H   0  0  0  0  0  0  0  0  0  0  0  0
   -5.4255    2.5897    0.4175 H   0  0  0  0  0  0  0  0  0  0  0  0
   -5.5431    1.0090    1.1590 H   0  0  0  0  0  0  0  0  0  0  0  0
   -9.5826    1.4187   -3.6185 H   0  0  0  0  0  0  0  0  0  0  0  0
   -8.5546    3.2339   -4.9897 H   0  0  0  0  0  0  0  0  0  0  0  0
   -6.3499    4.1606   -4.3785 H   0  0  0  0  0  0  0  0  0  0  0  0
   -5.0941    3.2995   -2.4020 H   0  0  0  0  0  0  0  0  0  0  0  0
   -1.6286    0.4709   -2.2178 H   0  0  0  0  0  0  0  0  0  0  0  0
    0.8295    0.2659   -2.1139 H   0  0  0  0  0  0  0  0  0  0  0  0
  1  2  1  0  0  0  0
  1 29  1  0  0  0  0
  1 30  1  0  0  0  0
  1 31  1  0  0  0  0
  2  3  1  0  0  0  0
  2 28  2  0  0  0  0
  3  4  2  0  0  0  0
  3 32  1  0  0  0  0
  4  5  1  0  0  0  0
  4 33  1  0  0  0  0
  5  6  1  0  0  0  0
  5 27  2  0  0  0  0
  6  7  1  0  0  0  0
  6 15  1  0  0  0  0
  7  8  1  0  0  0  0
  7 34  1  0  0  0  0
  7 35  1  0  0  0  0
  8  9  1  0  0  0  0
  8 14  2  0  0  0  0
  9 10  2  0  0  0  0
  9 36  1  0  0  0  0
 10 11  1  0  0  0  0
 10 37  1  0  0  0  0
 11 12  2  0  0  0  0
 11 38  1  0  0  0  0
 12 13  1  0  0  0  0
 12 14  1  0  0  0  0
 14 39  1  0  0  0  0
 15 16  2  0  0  0  0
 15 17  1  0  0  0  0
 17 18  1  0  0  0  0
 17 40  1  0  0  0  0
 17 41  1  0  0  0  0
 18 19  1  0  0  0  0
 18 26  1  0  0  0  0
 19 20  2  0  0  0  0
 20 21  1  0  0  0  0
 21 22  1  0  0  0  0
 21 26  2  0  0  0  0
 22 23  2  0  0  0  0
 22 42  1  0  0  0  0
 23 24  1  0  0  0  0
 23 43  1  0  0  0  0
 24 25  2  0  0  0  0
 24 44  1  0  0  0  0
 25 26  1  0  0  0  0
 25 45  1  0  0  0  0
 27 28  1  0  0  0  0
 27 46  1  0  0  0  0
 28 47  1  0  0  0  0
M  END
$$$$
