
 OpenBabel07202414113D

 45 48  0  0  1  0  0  0  0  0999 V2000
    7.4441   -3.9434    1.3871 C   0  0  0  0  0  0  0  0  0  0  0  0
    7.1167   -2.6905    1.0454 C   0  0  0  0  0  0  0  0  0  0  0  0
    7.7451   -2.0436   -0.1534 C   0  0  0  0  0  0  0  0  0  0  0  0
    8.5682   -2.6641   -0.8184 O   0  0  0  0  0  0  0  0  0  0  0  0
    7.2936   -0.7596   -0.4672 N   0  0  0  0  0  0  0  0  0  0  0  0
    6.9531    0.1602    0.5922 C   0  0  0  0  0  0  0  0  0  0  0  0
    7.8338    0.3583    1.6617 C   0  0  0  0  0  0  0  0  0  0  0  0
    7.5892    1.1758    2.7096 N   0  0  0  0  0  0  0  0  0  0  0  0
    6.4271    1.8657    2.6759 C   0  0  0  0  0  0  0  0  0  0  0  0
    5.4759    1.7730    1.6601 C   0  0  0  0  0  0  0  0  0  0  0  0
    5.7300    0.8842    0.5906 C   0  0  0  0  0  0  0  0  0  0  0  0
    4.7246    0.7477   -0.3933 C   0  0  0  0  0  0  0  0  0  0  0  0
    3.5507    1.5032   -0.3592 C   0  0  0  0  0  0  0  0  0  0  0  0
    3.3398    2.4003    0.6752 C   0  0  0  0  0  0  0  0  0  0  0  0
    4.2885    2.5271    1.6888 C   0  0  0  0  0  0  0  0  0  0  0  0
    7.4752   -0.1875   -1.7465 C   0  0  0  0  0  0  0  0  0  0  0  0
    7.6404    1.0313   -1.8742 O   0  0  0  0  0  0  0  0  0  0  0  0
    7.4756   -1.1344   -2.9847 C   0  0  1  0  0  0  0  0  0  0  0  0
    6.1474   -1.9044   -3.0442 C   0  0  0  0  0  0  0  0  0  0  0  0
    6.0501   -2.6414   -4.3657 C   0  0  0  0  0  0  0  0  0  0  0  0
    5.9369   -1.7158   -5.4449 O   0  0  0  0  0  0  0  0  0  0  0  0
    6.8985   -0.7408   -5.4418 C   0  0  0  0  0  0  0  0  0  0  0  0
    7.6878   -0.4236   -4.3246 C   0  0  0  0  0  0  0  0  0  0  0  0
    8.7066    0.5318   -4.4909 C   0  0  0  0  0  0  0  0  0  0  0  0
    8.8465    1.2243   -5.6957 C   0  0  0  0  0  0  0  0  0  0  0  0
    8.0064    0.9510   -6.7699 C   0  0  0  0  0  0  0  0  0  0  0  0
    7.0399   -0.0444   -6.6456 C   0  0  0  0  0  0  0  0  0  0  0  0
   10.0572    2.4377   -5.8491 Cl  0  0  0  0  0  0  0  0  0  0  0  0
    6.9780   -4.4252    2.2407 H   0  0  0  0  0  0  0  0  0  0  0  0
    8.1731   -4.5217    0.8255 H   0  0  0  0  0  0  0  0  0  0  0  0
    6.3688   -2.1557    1.6161 H   0  0  0  0  0  0  0  0  0  0  0  0
    8.8048   -0.1274    1.6981 H   0  0  0  0  0  0  0  0  0  0  0  0
    6.2725    2.5208    3.5319 H   0  0  0  0  0  0  0  0  0  0  0  0
    4.8421    0.0503   -1.2146 H   0  0  0  0  0  0  0  0  0  0  0  0
    2.8148    1.3891   -1.1494 H   0  0  0  0  0  0  0  0  0  0  0  0
    2.4337    3.0007    0.6954 H   0  0  0  0  0  0  0  0  0  0  0  0
    4.0963    3.2256    2.5017 H   0  0  0  0  0  0  0  0  0  0  0  0
    8.3116   -1.8356   -2.9095 H   0  0  0  0  0  0  0  0  0  0  0  0
    5.3082   -1.2003   -2.9779 H   0  0  0  0  0  0  0  0  0  0  0  0
    6.0499   -2.6086   -2.2132 H   0  0  0  0  0  0  0  0  0  0  0  0
    5.1470   -3.2610   -4.3791 H   0  0  0  0  0  0  0  0  0  0  0  0
    6.9052   -3.3080   -4.5338 H   0  0  0  0  0  0  0  0  0  0  0  0
    9.3773    0.7692   -3.6677 H   0  0  0  0  0  0  0  0  0  0  0  0
    8.1032    1.4986   -7.7029 H   0  0  0  0  0  0  0  0  0  0  0  0
    6.3962   -0.2832   -7.4883 H   0  0  0  0  0  0  0  0  0  0  0  0
  1  2  2  0  0  0  0
  1 29  1  0  0  0  0
  1 30  1  0  0  0  0
  2  3  1  0  0  0  0
  2 31  1  0  0  0  0
  3  4  2  0  0  0  0
  3  5  1  0  0  0  0
  5  6  1  0  0  0  0
  5 16  1  0  0  0  0
  6  7  1  0  0  0  0
  6 11  2  0  0  0  0
  7  8  2  0  0  0  0
  7 32  1  0  0  0  0
  8  9  1  0  0  0  0
  9 10  2  0  0  0  0
  9 33  1  0  0  0  0
 10 11  1  0  0  0  0
 10 15  1  0  0  0  0
 11 12  1  0  0  0  0
 12 13  2  0  0  0  0
 12 34  1  0  0  0  0
 13 14  1  0  0  0  0
 13 35  1  0  0  0  0
 14 15  2  0  0  0  0
 14 36  1  0  0  0  0
 15 37  1  0  0  0  0
 16 17  2  0  0  0  0
 18 19  1  0  0  0  0
 18 23  1  0  0  0  0
 18 16  1  0  0  0  0
 18 38  1  1  0  0  0
 19 20  1  0  0  0  0
 19 39  1  0  0  0  0
 19 40  1  0  0  0  0
 20 21  1  0  0  0  0
 20 41  1  0  0  0  0
 20 42  1  0  0  0  0
 21 22  1  0  0  0  0
 22 23  1  0  0  0  0
 22 27  2  0  0  0  0
 23 24  2  0  0  0  0
 24 25  1  0  0  0  0
 24 43  1  0  0  0  0
 25 26  2  0  0  0  0
 25 28  1  0  0  0  0
 26 27  1  0  0  0  0
 26 44  1  0  0  0  0
 27 45  1  0  0  0  0
M  END
$$$$
