
 OpenBabel07202414133D

 62 66  0  0  0  0  0  0  0  0999 V2000
    2.3797   -0.8407    1.2756 C   0  0  0  0  0  0  0  0  0  0  0  0
    2.4282   -0.1326   -0.0092 N   0  0  0  0  0  0  0  0  0  0  0  0
    1.4128    0.9401   -0.2238 C   0  0  0  0  0  0  0  0  0  0  0  0
   -0.0151    0.3547   -0.2840 C   0  0  0  0  0  0  0  0  0  0  0  0
   -0.8314    0.2311    0.8557 C   0  0  0  0  0  0  0  0  0  0  0  0
   -2.1848   -0.1065    0.7366 C   0  0  0  0  0  0  0  0  0  0  0  0
   -2.7252   -0.3948   -0.5110 C   0  0  0  0  0  0  0  0  0  0  0  0
   -1.9099   -0.3697   -1.6361 C   0  0  0  0  0  0  0  0  0  0  0  0
   -0.5667   -0.0029   -1.5255 C   0  0  0  0  0  0  0  0  0  0  0  0
    1.6090    2.1536    0.7073 C   0  0  0  0  0  0  0  0  0  0  0  0
    2.8814    2.4962    1.1897 C   0  0  0  0  0  0  0  0  0  0  0  0
    3.0729    3.6257    1.9974 C   0  0  0  0  0  0  0  0  0  0  0  0
    1.9929    4.4385    2.3338 C   0  0  0  0  0  0  0  0  0  0  0  0
    0.7324    4.1460    1.8277 C   0  0  0  0  0  0  0  0  0  0  0  0
    0.5523    3.0332    1.0051 C   0  0  0  0  0  0  0  0  0  0  0  0
    3.1540   -0.7139   -1.0568 C   0  0  0  0  0  0  0  0  0  0  0  0
    2.8969   -0.4336   -2.4157 C   0  0  0  0  0  0  0  0  0  0  0  0
    3.5830   -1.0537   -3.4823 C   0  0  0  0  0  0  0  0  0  0  0  0
    3.2869   -0.7372   -4.9351 C   0  0  0  0  0  0  0  0  0  0  0  0
    1.8465   -0.3752   -5.2762 C   0  0  0  0  0  0  0  0  0  0  0  0
    1.4933    0.7912   -5.4392 O   0  0  0  0  0  0  0  0  0  0  0  0
    1.0070   -1.4730   -5.3618 N   0  0  0  0  0  0  0  0  0  0  0  0
   -0.3567   -1.3721   -5.7492 C   0  0  0  0  0  0  0  0  0  0  0  0
   -1.3098   -1.9029   -4.8768 C   0  0  0  0  0  0  0  0  0  0  0  0
   -2.6410   -1.9206   -5.1014 N   0  0  0  0  0  0  0  0  0  0  0  0
   -3.0379   -1.5015   -6.3206 C   0  0  0  0  0  0  0  0  0  0  0  0
   -2.1712   -1.0844   -7.3333 C   0  0  0  0  0  0  0  0  0  0  0  0
   -2.6462   -0.8883   -8.6420 C   0  0  0  0  0  0  0  0  0  0  0  0
   -1.7802   -0.4905   -9.6556 C   0  0  0  0  0  0  0  0  0  0  0  0
   -0.4536   -0.2113   -9.3531 C   0  0  0  0  0  0  0  0  0  0  0  0
    0.0296   -0.4261   -8.0560 C   0  0  0  0  0  0  0  0  0  0  0  0
   -0.7970   -0.9312   -7.0254 C   0  0  0  0  0  0  0  0  0  0  0  0
    4.6413   -1.9138   -3.1781 C   0  0  0  0  0  0  0  0  0  0  0  0
    4.9628   -2.1696   -1.8498 C   0  0  0  0  0  0  0  0  0  0  0  0
    6.3039   -3.1890   -1.4840 Cl  0  0  0  0  0  0  0  0  0  0  0  0
    4.2220   -1.5973   -0.8115 C   0  0  0  0  0  0  0  0  0  0  0  0
    1.7742   -0.3133    2.0193 H   0  0  0  0  0  0  0  0  0  0  0  0
    3.3743   -0.9306    1.7262 H   0  0  0  0  0  0  0  0  0  0  0  0
    1.9494   -1.8412    1.1508 H   0  0  0  0  0  0  0  0  0  0  0  0
    1.5852    1.4239   -1.1919 H   0  0  0  0  0  0  0  0  0  0  0  0
   -0.4416    0.4782    1.8410 H   0  0  0  0  0  0  0  0  0  0  0  0
   -2.8213   -0.1014    1.6157 H   0  0  0  0  0  0  0  0  0  0  0  0
   -3.7812   -0.6269   -0.6131 H   0  0  0  0  0  0  0  0  0  0  0  0
   -2.3368   -0.5971   -2.6090 H   0  0  0  0  0  0  0  0  0  0  0  0
    0.0232    0.0416   -2.4333 H   0  0  0  0  0  0  0  0  0  0  0  0
    3.7517    1.8970    0.9271 H   0  0  0  0  0  0  0  0  0  0  0  0
    4.0691    3.8775    2.3558 H   0  0  0  0  0  0  0  0  0  0  0  0
    2.1367    5.3113    2.9643 H   0  0  0  0  0  0  0  0  0  0  0  0
   -0.1138    4.7881    2.0614 H   0  0  0  0  0  0  0  0  0  0  0  0
   -0.4414    2.8669    0.5923 H   0  0  0  0  0  0  0  0  0  0  0  0
    2.1454    0.2915   -2.6958 H   0  0  0  0  0  0  0  0  0  0  0  0
    3.5559   -1.5972   -5.5595 H   0  0  0  0  0  0  0  0  0  0  0  0
    3.9275    0.0960   -5.2485 H   0  0  0  0  0  0  0  0  0  0  0  0
    1.2212   -2.1921   -4.6785 H   0  0  0  0  0  0  0  0  0  0  0  0
   -1.0202   -2.3211   -3.9175 H   0  0  0  0  0  0  0  0  0  0  0  0
   -4.1145   -1.5339   -6.4773 H   0  0  0  0  0  0  0  0  0  0  0  0
   -3.6840   -1.1021   -8.8901 H   0  0  0  0  0  0  0  0  0  0  0  0
   -2.1398   -0.4041  -10.6773 H   0  0  0  0  0  0  0  0  0  0  0  0
    0.2168    0.1488  -10.1293 H   0  0  0  0  0  0  0  0  0  0  0  0
    1.0768   -0.2050   -7.8635 H   0  0  0  0  0  0  0  0  0  0  0  0
    5.2332   -2.3680   -3.9705 H   0  0  0  0  0  0  0  0  0  0  0  0
    4.5313   -1.8308    0.2023 H   0  0  0  0  0  0  0  0  0  0  0  0
  1  2  1  0  0  0  0
  1 37  1  0  0  0  0
  1 38  1  0  0  0  0
  1 39  1  0  0  0  0
  2  3  1  0  0  0  0
  2 16  1  0  0  0  0
  3  4  1  0  0  0  0
  3 10  1  0  0  0  0
  3 40  1  0  0  0  0
  4  5  2  0  0  0  0
  4  9  1  0  0  0  0
  5  6  1  0  0  0  0
  5 41  1  0  0  0  0
  6  7  2  0  0  0  0
  6 42  1  0  0  0  0
  7  8  1  0  0  0  0
  7 43  1  0  0  0  0
  8  9  2  0  0  0  0
  8 44  1  0  0  0  0
  9 45  1  0  0  0  0
 10 11  2  0  0  0  0
 10 15  1  0  0  0  0
 11 12  1  0  0  0  0
 11 46  1  0  0  0  0
 12 13  2  0  0  0  0
 12 47  1  0  0  0  0
 13 14  1  0  0  0  0
 13 48  1  0  0  0  0
 14 15  2  0  0  0  0
 14 49  1  0  0  0  0
 15 50  1  0  0  0  0
 16 17  2  0  0  0  0
 16 36  1  0  0  0  0
 17 18  1  0  0  0  0
 17 51  1  0  0  0  0
 18 19  1  0  0  0  0
 18 33  2  0  0  0  0
 19 20  1  0  0  0  0
 19 52  1  0  0  0  0
 19 53  1  0  0  0  0
 20 21  2  0  0  0  0
 20 22  1  0  0  0  0
 22 23  1  0  0  0  0
 22 54  1  0  0  0  0
 23 24  2  0  0  0  0
 23 32  1  0  0  0  0
 24 25  1  0  0  0  0
 24 55  1  0  0  0  0
 25 26  2  0  0  0  0
 26 27  1  0  0  0  0
 26 56  1  0  0  0  0
 27 28  2  0  0  0  0
 27 32  1  0  0  0  0
 28 29  1  0  0  0  0
 28 57  1  0  0  0  0
 29 30  2  0  0  0  0
 29 58  1  0  0  0  0
 30 31  1  0  0  0  0
 30 59  1  0  0  0  0
 31 32  2  0  0  0  0
 31 60  1  0  0  0  0
 33 34  1  0  0  0  0
 33 61  1  0  0  0  0
 34 35  1  0  0  0  0
 34 36  2  0  0  0  0
 36 62  1  0  0  0  0
M  END
$$$$
