
 OpenBabel07202414173D

 40 41  0  0  0  0  0  0  0  0999 V2000
    0.8481   -0.0238    0.0255 Cl  0  0  0  0  0  0  0  0  0  0  0  0
    2.5385   -0.5243    0.2357 C   0  0  0  0  0  0  0  0  0  0  0  0
    3.1903   -0.9237   -1.0860 C   0  0  0  0  0  0  0  0  0  0  0  0
    2.5680   -0.9487   -2.1475 O   0  0  0  0  0  0  0  0  0  0  0  0
    4.5557   -1.2477   -1.0455 N   0  0  0  0  0  0  0  0  0  0  0  0
    5.3478   -1.2614    0.1823 C   0  0  0  0  0  0  0  0  0  0  0  0
    6.0054   -2.5924    0.5469 C   0  0  0  0  0  0  0  0  0  0  0  0
    6.6259   -3.4581   -0.5375 C   0  0  0  0  0  0  0  0  0  0  0  0
    7.1708   -2.7443   -1.7020 N   0  0  0  0  0  0  0  0  0  0  0  0
    8.4974   -1.6915   -1.5590 S   0  0  0  0  0  0  0  0  0  0  0  0
    8.7795   -1.1978   -2.8910 O   0  0  0  0  0  0  0  0  0  0  0  0
    8.2152   -0.7760   -0.4748 O   0  0  0  0  0  0  0  0  0  0  0  0
    9.8288   -2.7885   -1.0527 C   0  0  0  0  0  0  0  0  0  0  0  0
   11.0628   -1.9672   -0.7653 C   0  0  0  0  0  0  0  0  0  0  0  0
   11.2520   -1.3757    0.4947 C   0  0  0  0  0  0  0  0  0  0  0  0
   12.4004   -0.6293    0.7648 C   0  0  0  0  0  0  0  0  0  0  0  0
   13.3707   -0.4634   -0.2201 C   0  0  0  0  0  0  0  0  0  0  0  0
   13.1860   -1.0293   -1.4800 C   0  0  0  0  0  0  0  0  0  0  0  0
   12.0365   -1.7733   -1.7543 C   0  0  0  0  0  0  0  0  0  0  0  0
    6.1166   -2.3922   -2.6970 C   0  0  0  0  0  0  0  0  0  0  0  0
    5.3067   -1.1524   -2.3147 C   0  0  0  0  0  0  0  0  0  0  0  0
    2.5503   -1.3671    0.9307 H   0  0  0  0  0  0  0  0  0  0  0  0
    3.0680    0.3350    0.6584 H   0  0  0  0  0  0  0  0  0  0  0  0
    4.7349   -0.9932    1.0448 H   0  0  0  0  0  0  0  0  0  0  0  0
    6.0621   -0.4412    0.1143 H   0  0  0  0  0  0  0  0  0  0  0  0
    5.2560   -3.2149    1.0553 H   0  0  0  0  0  0  0  0  0  0  0  0
    6.7669   -2.3895    1.3109 H   0  0  0  0  0  0  0  0  0  0  0  0
    5.8720   -4.1764   -0.8893 H   0  0  0  0  0  0  0  0  0  0  0  0
    7.4072   -4.0922   -0.1044 H   0  0  0  0  0  0  0  0  0  0  0  0
   10.0020   -3.5116   -1.8545 H   0  0  0  0  0  0  0  0  0  0  0  0
    9.5216   -3.3181   -0.1474 H   0  0  0  0  0  0  0  0  0  0  0  0
   10.4990   -1.4781    1.2743 H   0  0  0  0  0  0  0  0  0  0  0  0
   12.5346   -0.1713    1.7418 H   0  0  0  0  0  0  0  0  0  0  0  0
   14.2666    0.1149   -0.0089 H   0  0  0  0  0  0  0  0  0  0  0  0
   13.9367   -0.8864   -2.2530 H   0  0  0  0  0  0  0  0  0  0  0  0
   11.9055   -2.1930   -2.7498 H   0  0  0  0  0  0  0  0  0  0  0  0
    5.4400   -3.2472   -2.8229 H   0  0  0  0  0  0  0  0  0  0  0  0
    6.5839   -2.2500   -3.6784 H   0  0  0  0  0  0  0  0  0  0  0  0
    4.6200   -0.9461   -3.1429 H   0  0  0  0  0  0  0  0  0  0  0  0
    5.9548   -0.2717   -2.2413 H   0  0  0  0  0  0  0  0  0  0  0  0
  1  2  1  0  0  0  0
  2  3  1  0  0  0  0
  2 22  1  0  0  0  0
  2 23  1  0  0  0  0
  3  4  2  0  0  0  0
  3  5  1  0  0  0  0
  5  6  1  0  0  0  0
  5 21  1  0  0  0  0
  6  7  1  0  0  0  0
  6 24  1  0  0  0  0
  6 25  1  0  0  0  0
  7  8  1  0  0  0  0
  7 26  1  0  0  0  0
  7 27  1  0  0  0  0
  8  9  1  0  0  0  0
  8 28  1  0  0  0  0
  8 29  1  0  0  0  0
  9 10  1  0  0  0  0
  9 20  1  0  0  0  0
 10 11  2  0  0  0  0
 10 12  2  0  0  0  0
 10 13  1  0  0  0  0
 13 14  1  0  0  0  0
 13 30  1  0  0  0  0
 13 31  1  0  0  0  0
 14 15  1  0  0  0  0
 14 19  2  0  0  0  0
 15 16  2  0  0  0  0
 15 32  1  0  0  0  0
 16 17  1  0  0  0  0
 16 33  1  0  0  0  0
 17 18  2  0  0  0  0
 17 34  1  0  0  0  0
 18 19  1  0  0  0  0
 18 35  1  0  0  0  0
 19 36  1  0  0  0  0
 20 21  1  0  0  0  0
 20 37  1  0  0  0  0
 20 38  1  0  0  0  0
 21 39  1  0  0  0  0
 21 40  1  0  0  0  0
M  END
$$$$
