
 OpenBabel07202414173D

 60 65  0  0  1  0  0  0  0  0999 V2000
    0.9463    0.5109   -0.1284 Cl  0  0  0  0  0  0  0  0  0  0  0  0
    2.6612    0.3817   -0.1589 C   0  0  0  0  0  0  0  0  0  0  0  0
    3.4472    1.5265   -0.1834 C   0  0  0  0  0  0  0  0  0  0  0  0
    4.8378    1.4089   -0.1809 C   0  0  0  0  0  0  0  0  0  0  0  0
    5.4480    0.1446   -0.1194 C   0  0  0  0  0  0  0  0  0  0  0  0
    4.6617   -1.0209   -0.0901 C   0  0  0  0  0  0  0  0  0  0  0  0
    3.2565   -0.8787   -0.1269 C   0  0  0  0  0  0  0  0  0  0  0  0
    5.3023   -2.3949    0.0794 C   0  0  3  0  0  0  0  0  0  0  0  0
    6.8381   -2.3467    0.0422 C   0  0  0  0  0  0  0  0  0  0  0  0
    7.4307   -1.1082    0.5144 N   0  0  0  0  0  0  0  0  0  0  0  0
    8.8004   -1.1609    1.0258 C   0  0  0  0  0  0  0  0  0  0  0  0
    9.8325   -1.6465    0.0084 C   0  0  0  0  0  0  0  0  0  0  0  0
   10.5588   -2.6105    0.2376 O   0  0  0  0  0  0  0  0  0  0  0  0
    9.9077   -0.9022   -1.1450 N   0  0  0  0  0  0  0  0  0  0  0  0
   10.9111   -1.1878   -2.1414 C   0  0  0  0  0  0  0  0  0  0  0  0
   10.4560   -0.6911   -3.4739 C   0  0  0  0  0  0  0  0  0  0  0  0
    9.1871   -1.2241   -4.0966 C   0  0  0  0  0  0  0  0  0  0  0  0
   10.5199   -1.5920   -4.6811 C   0  0  0  0  0  0  0  0  0  0  0  0
    6.9298    0.0897    0.0455 C   0  0  0  0  0  0  0  0  0  0  0  0
    7.6281    1.0716   -0.1757 O   0  0  0  0  0  0  0  0  0  0  0  0
    4.8349   -3.3884   -0.9918 C   0  0  0  0  0  0  0  0  0  0  0  0
    3.8379   -4.3013   -0.3177 C   0  0  0  0  0  0  0  0  0  0  0  0
    3.7872   -3.9517    1.0722 N   0  0  0  0  0  0  0  0  0  0  0  0
    2.8316   -4.5106    2.0048 C   0  0  0  0  0  0  0  0  0  0  0  0
    2.7188   -3.9333    3.2806 C   0  0  0  0  0  0  0  0  0  0  0  0
    1.9212   -4.3722    4.2814 N   0  0  0  0  0  0  0  0  0  0  0  0
    1.1386   -5.4264    4.0036 C   0  0  0  0  0  0  0  0  0  0  0  0
    1.0561   -6.0356    2.7578 C   0  0  0  0  0  0  0  0  0  0  0  0
    0.1048   -7.0629    2.5630 C   0  0  0  0  0  0  0  0  0  0  0  0
   -0.0330   -7.6943    1.3345 C   0  0  0  0  0  0  0  0  0  0  0  0
    0.8096   -7.3319    0.3061 C   0  0  0  0  0  0  0  0  0  0  0  0
    0.6897   -8.1052   -1.2278 Cl  0  0  0  0  0  0  0  0  0  0  0  0
    1.7660   -6.3256    0.4957 C   0  0  0  0  0  0  0  0  0  0  0  0
    1.9215   -5.6019    1.7170 C   0  0  0  0  0  0  0  0  0  0  0  0
    4.7991   -3.0268    1.3872 C   0  0  0  0  0  0  0  0  0  0  0  0
    5.1866   -2.6851    2.4922 O   0  0  0  0  0  0  0  0  0  0  0  0
    2.9870    2.5112   -0.1776 H   0  0  0  0  0  0  0  0  0  0  0  0
    5.4488    2.3094   -0.1692 H   0  0  0  0  0  0  0  0  0  0  0  0
    2.6047   -1.7479   -0.0830 H   0  0  0  0  0  0  0  0  0  0  0  0
    7.1812   -2.4361   -0.9977 H   0  0  0  0  0  0  0  0  0  0  0  0
    7.2699   -3.1885    0.5989 H   0  0  0  0  0  0  0  0  0  0  0  0
    8.8038   -1.8440    1.8822 H   0  0  0  0  0  0  0  0  0  0  0  0
    9.1085   -0.1728    1.3849 H   0  0  0  0  0  0  0  0  0  0  0  0
    9.4097   -0.0147   -1.1711 H   0  0  0  0  0  0  0  0  0  0  0  0
   11.1109   -2.2655   -2.1620 H   0  0  0  0  0  0  0  0  0  0  0  0
   11.8380   -0.6855   -1.8423 H   0  0  0  0  0  0  0  0  0  0  0  0
   10.6810    0.3596   -3.6137 H   0  0  0  0  0  0  0  0  0  0  0  0
    8.5638   -0.5253   -4.6399 H   0  0  0  0  0  0  0  0  0  0  0  0
    8.6376   -1.9917   -3.5630 H   0  0  0  0  0  0  0  0  0  0  0  0
   10.7967   -1.1496   -5.6353 H   0  0  0  0  0  0  0  0  0  0  0  0
   10.8604   -2.6137   -4.5592 H   0  0  0  0  0  0  0  0  0  0  0  0
    5.6569   -4.0053   -1.3785 H   0  0  0  0  0  0  0  0  0  0  0  0
    4.3907   -2.9043   -1.8694 H   0  0  0  0  0  0  0  0  0  0  0  0
    4.2105   -5.3271   -0.3949 H   0  0  0  0  0  0  0  0  0  0  0  0
    2.8579   -4.1758   -0.7797 H   0  0  0  0  0  0  0  0  0  0  0  0
    3.2559   -3.0324    3.5626 H   0  0  0  0  0  0  0  0  0  0  0  0
    0.5466   -5.7740    4.8479 H   0  0  0  0  0  0  0  0  0  0  0  0
   -0.5561   -7.3621    3.3750 H   0  0  0  0  0  0  0  0  0  0  0  0
   -0.7871   -8.4603    1.1895 H   0  0  0  0  0  0  0  0  0  0  0  0
    2.3791   -6.1357   -0.3696 H   0  0  0  0  0  0  0  0  0  0  0  0
  1  2  1  0  0  0  0
  2  3  1  0  0  0  0
  2  7  2  0  0  0  0
  3  4  2  0  0  0  0
  3 37  1  0  0  0  0
  4  5  1  0  0  0  0
  4 38  1  0  0  0  0
  5  6  2  0  0  0  0
  5 19  1  0  0  0  0
  6  7  1  0  0  0  0
  6  8  1  0  0  0  0
  7 39  1  0  0  0  0
  8  9  1  0  0  0  0
  8 21  1  0  0  0  0
  8 35  1  0  0  0  0
  9 10  1  0  0  0  0
  9 40  1  0  0  0  0
  9 41  1  0  0  0  0
 10 11  1  0  0  0  0
 10 19  1  0  0  0  0
 11 12  1  0  0  0  0
 11 42  1  0  0  0  0
 11 43  1  0  0  0  0
 12 13  2  0  0  0  0
 12 14  1  0  0  0  0
 14 15  1  0  0  0  0
 14 44  1  0  0  0  0
 15 16  1  0  0  0  0
 15 45  1  0  0  0  0
 15 46  1  0  0  0  0
 16 17  1  0  0  0  0
 16 18  1  0  0  0  0
 16 47  1  0  0  0  0
 17 18  1  0  0  0  0
 17 48  1  0  0  0  0
 17 49  1  0  0  0  0
 18 50  1  0  0  0  0
 18 51  1  0  0  0  0
 19 20  2  0  0  0  0
 21 22  1  0  0  0  0
 21 52  1  0  0  0  0
 21 53  1  0  0  0  0
 22 23  1  0  0  0  0
 22 54  1  0  0  0  0
 22 55  1  0  0  0  0
 23 24  1  0  0  0  0
 23 35  1  0  0  0  0
 24 25  1  0  0  0  0
 24 34  2  0  0  0  0
 25 26  2  0  0  0  0
 25 56  1  0  0  0  0
 26 27  1  0  0  0  0
 27 28  2  0  0  0  0
 27 57  1  0  0  0  0
 28 29  1  0  0  0  0
 28 34  1  0  0  0  0
 29 30  2  0  0  0  0
 29 58  1  0  0  0  0
 30 31  1  0  0  0  0
 30 59  1  0  0  0  0
 31 32  1  0  0  0  0
 31 33  2  0  0  0  0
 33 34  1  0  0  0  0
 33 60  1  0  0  0  0
 35 36  2  0  0  0  0
M  END
$$$$
