
 OpenBabel07202414163D

 57 61  0  0  0  0  0  0  0  0999 V2000
   -2.1056   -0.2570    0.2170 Cl  0  0  0  0  0  0  0  0  0  0  0  0
   -0.3890   -0.1415    0.1191 C   0  0  0  0  0  0  0  0  0  0  0  0
    0.2134    1.1175    0.1032 C   0  0  0  0  0  0  0  0  0  0  0  0
    1.6021    1.2169    0.0041 C   0  0  0  0  0  0  0  0  0  0  0  0
    2.3052    2.5507   -0.0233 C   0  0  0  0  0  0  0  0  0  0  0  0
    3.2568    2.7191   -1.2004 C   0  0  0  0  0  0  0  0  0  0  0  0
    4.3693    3.2184   -1.0479 O   0  0  0  0  0  0  0  0  0  0  0  0
    2.7235    2.3610   -2.4264 N   0  0  0  0  0  0  0  0  0  0  0  0
    3.4432    2.4574   -3.6403 C   0  0  0  0  0  0  0  0  0  0  0  0
    4.7850    2.0778   -3.7153 C   0  0  0  0  0  0  0  0  0  0  0  0
    5.5252    2.1065   -4.8462 N   0  0  0  0  0  0  0  0  0  0  0  0
    4.9081    2.5779   -5.9504 C   0  0  0  0  0  0  0  0  0  0  0  0
    3.5801    3.0095   -5.9978 C   0  0  0  0  0  0  0  0  0  0  0  0
    3.0206    3.5380   -7.1751 C   0  0  0  0  0  0  0  0  0  0  0  0
    1.7088    4.0081   -7.1899 C   0  0  0  0  0  0  0  0  0  0  0  0
    0.9395    3.9462   -6.0350 C   0  0  0  0  0  0  0  0  0  0  0  0
    1.4796    3.4108   -4.8640 C   0  0  0  0  0  0  0  0  0  0  0  0
    2.8116    2.9326   -4.8143 C   0  0  0  0  0  0  0  0  0  0  0  0
    2.3599    0.0384   -0.0516 C   0  0  0  0  0  0  0  0  0  0  0  0
    1.7676   -1.2324   -0.0603 C   0  0  0  0  0  0  0  0  0  0  0  0
    2.6099   -2.3342   -0.1626 N   0  0  0  0  0  0  0  0  0  0  0  0
    2.1738   -3.6419    0.3668 C   0  0  0  0  0  0  0  0  0  0  0  0
    3.3958   -4.5860    0.4761 C   0  0  0  0  0  0  0  0  0  0  0  0
    4.0432   -4.6870   -0.8413 N   0  0  0  0  0  0  0  0  0  0  0  0
    4.6148   -5.8495   -1.2996 C   0  0  0  0  0  0  0  0  0  0  0  0
    5.7312   -5.7784   -2.0563 N   0  0  0  0  0  0  0  0  0  0  0  0
    6.2360   -6.9227   -2.5832 C   0  0  0  0  0  0  0  0  0  0  0  0
    5.6669   -8.1678   -2.4035 C   0  0  0  0  0  0  0  0  0  0  0  0
    6.4025   -9.7050   -3.1931 Br  0  0  0  0  0  0  0  0  0  0  0  0
    4.5157   -8.2469   -1.6376 C   0  0  0  0  0  0  0  0  0  0  0  0
    3.9920   -7.0804   -1.0822 C   0  0  0  0  0  0  0  0  0  0  0  0
    4.5094   -3.3965   -1.3735 C   0  0  0  0  0  0  0  0  0  0  0  0
    3.2934   -2.4482   -1.4829 C   0  0  0  0  0  0  0  0  0  0  0  0
    0.3771   -1.3074    0.0383 C   0  0  0  0  0  0  0  0  0  0  0  0
   -0.4037    2.0106    0.1710 H   0  0  0  0  0  0  0  0  0  0  0  0
    2.8873    2.6490    0.9011 H   0  0  0  0  0  0  0  0  0  0  0  0
    1.5854    3.3765   -0.0494 H   0  0  0  0  0  0  0  0  0  0  0  0
    1.7189    2.2610   -2.4828 H   0  0  0  0  0  0  0  0  0  0  0  0
    5.3136    1.6894   -2.8486 H   0  0  0  0  0  0  0  0  0  0  0  0
    5.5434    2.6161   -6.8319 H   0  0  0  0  0  0  0  0  0  0  0  0
    3.6152    3.6098   -8.0837 H   0  0  0  0  0  0  0  0  0  0  0  0
    1.2938    4.4371   -8.0980 H   0  0  0  0  0  0  0  0  0  0  0  0
   -0.0773    4.3308   -6.0358 H   0  0  0  0  0  0  0  0  0  0  0  0
    0.8510    3.4152   -3.9781 H   0  0  0  0  0  0  0  0  0  0  0  0
    3.4471    0.1030   -0.0800 H   0  0  0  0  0  0  0  0  0  0  0  0
    1.4264   -4.0920   -0.3002 H   0  0  0  0  0  0  0  0  0  0  0  0
    1.7269   -3.5275    1.3618 H   0  0  0  0  0  0  0  0  0  0  0  0
    3.0645   -5.5486    0.8750 H   0  0  0  0  0  0  0  0  0  0  0  0
    4.1133   -4.1739    1.1988 H   0  0  0  0  0  0  0  0  0  0  0  0
    7.1325   -6.7897   -3.1798 H   0  0  0  0  0  0  0  0  0  0  0  0
    4.0056   -9.1918   -1.4803 H   0  0  0  0  0  0  0  0  0  0  0  0
    3.0606   -7.1425   -0.5305 H   0  0  0  0  0  0  0  0  0  0  0  0
    4.9564   -3.4828   -2.3701 H   0  0  0  0  0  0  0  0  0  0  0  0
    5.2610   -2.9622   -0.7013 H   0  0  0  0  0  0  0  0  0  0  0  0
    2.5830   -2.8528   -2.2176 H   0  0  0  0  0  0  0  0  0  0  0  0
    3.6366   -1.4776   -1.8583 H   0  0  0  0  0  0  0  0  0  0  0  0
   -0.1256   -2.2690    0.0305 H   0  0  0  0  0  0  0  0  0  0  0  0
  1  2  1  0  0  0  0
  2  3  2  0  0  0  0
  2 34  1  0  0  0  0
  3  4  1  0  0  0  0
  3 35  1  0  0  0  0
  4  5  1  0  0  0  0
  4 19  2  0  0  0  0
  5  6  1  0  0  0  0
  5 36  1  0  0  0  0
  5 37  1  0  0  0  0
  6  7  2  0  0  0  0
  6  8  1  0  0  0  0
  8  9  1  0  0  0  0
  8 38  1  0  0  0  0
  9 10  2  0  0  0  0
  9 18  1  0  0  0  0
 10 11  1  0  0  0  0
 10 39  1  0  0  0  0
 11 12  2  0  0  0  0
 12 13  1  0  0  0  0
 12 40  1  0  0  0  0
 13 14  2  0  0  0  0
 13 18  1  0  0  0  0
 14 15  1  0  0  0  0
 14 41  1  0  0  0  0
 15 16  2  0  0  0  0
 15 42  1  0  0  0  0
 16 17  1  0  0  0  0
 16 43  1  0  0  0  0
 17 18  2  0  0  0  0
 17 44  1  0  0  0  0
 19 20  1  0  0  0  0
 19 45  1  0  0  0  0
 20 21  1  0  0  0  0
 20 34  2  0  0  0  0
 21 22  1  0  0  0  0
 21 33  1  0  0  0  0
 22 23  1  0  0  0  0
 22 46  1  0  0  0  0
 22 47  1  0  0  0  0
 23 24  1  0  0  0  0
 23 48  1  0  0  0  0
 23 49  1  0  0  0  0
 24 25  1  0  0  0  0
 24 32  1  0  0  0  0
 25 26  2  0  0  0  0
 25 31  1  0  0  0  0
 26 27  1  0  0  0  0
 27 28  2  0  0  0  0
 27 50  1  0  0  0  0
 28 29  1  0  0  0  0
 28 30  1  0  0  0  0
 30 31  2  0  0  0  0
 30 51  1  0  0  0  0
 31 52  1  0  0  0  0
 32 33  1  0  0  0  0
 32 53  1  0  0  0  0
 32 54  1  0  0  0  0
 33 55  1  0  0  0  0
 33 56  1  0  0  0  0
 34 57  1  0  0  0  0
M  END
$$$$
