
 OpenBabel07202414173D

 50 53  0  0  1  0  0  0  0  0999 V2000
    1.1337    0.1454   -0.0135 Cl  0  0  0  0  0  0  0  0  0  0  0  0
    2.8489    0.0381    0.0579 C   0  0  0  0  0  0  0  0  0  0  0  0
    3.6211    1.1867   -0.0631 C   0  0  0  0  0  0  0  0  0  0  0  0
    5.0104    1.0847   -0.0186 C   0  0  0  0  0  0  0  0  0  0  0  0
    5.6268   -0.1588    0.1584 C   0  0  0  0  0  0  0  0  0  0  0  0
    4.8601   -1.3281    0.2760 C   0  0  0  0  0  0  0  0  0  0  0  0
    3.4569   -1.2063    0.2335 C   0  0  0  0  0  0  0  0  0  0  0  0
    5.5262   -2.7033    0.4507 C   0  0  3  0  0  0  0  0  0  0  0  0
    4.9249   -3.7106   -0.5949 C   0  0  0  0  0  0  0  0  0  0  0  0
    5.4852   -5.0522   -0.5699 N   0  0  0  0  0  0  0  0  0  0  0  0
    6.5495   -5.4349   -1.3521 C   0  0  0  0  0  0  0  0  0  0  0  0
    7.1350   -4.6794   -2.1217 O   0  0  0  0  0  0  0  0  0  0  0  0
    6.9540   -6.8452   -1.1726 C   0  0  0  0  0  0  0  0  0  0  0  0
    8.0217   -7.3238   -1.8345 C   0  0  0  0  0  0  0  0  0  0  0  0
    5.2714   -3.2359    1.9286 C   0  0  0  0  0  0  0  0  0  0  0  0
    4.6964   -4.2949    2.1462 O   0  0  0  0  0  0  0  0  0  0  0  0
    5.7409   -2.3805    2.9376 N   0  0  0  0  0  0  0  0  0  0  0  0
    5.5865   -2.4743    4.3548 C   0  0  0  0  0  0  0  0  0  0  0  0
    4.8970   -3.4902    5.0014 C   0  0  0  0  0  0  0  0  0  0  0  0
    4.4356   -3.3914    6.2767 N   0  0  0  0  0  0  0  0  0  0  0  0
    4.7941   -2.2933    6.9745 C   0  0  0  0  0  0  0  0  0  0  0  0
    5.7454   -1.3771    6.5402 C   0  0  0  0  0  0  0  0  0  0  0  0
    6.3323   -0.4409    7.4254 C   0  0  0  0  0  0  0  0  0  0  0  0
    7.2488    0.4986    6.9582 C   0  0  0  0  0  0  0  0  0  0  0  0
    7.5560    0.5437    5.6015 C   0  0  0  0  0  0  0  0  0  0  0  0
    6.9879   -0.3903    4.7334 C   0  0  0  0  0  0  0  0  0  0  0  0
    6.1045   -1.4186    5.1773 C   0  0  0  0  0  0  0  0  0  0  0  0
    7.0255   -2.5597    0.1063 C   0  0  0  0  0  0  0  0  0  0  0  0
    7.6501   -1.2946    0.6426 C   0  0  0  0  0  0  0  0  0  0  0  0
    6.9920   -0.1199    0.1816 O   0  0  0  0  0  0  0  0  0  0  0  0
    3.1520    2.1583   -0.1916 H   0  0  0  0  0  0  0  0  0  0  0  0
    5.6192    1.9810   -0.1205 H   0  0  0  0  0  0  0  0  0  0  0  0
    2.8181   -2.0817    0.3327 H   0  0  0  0  0  0  0  0  0  0  0  0
    5.0474   -3.3040   -1.6110 H   0  0  0  0  0  0  0  0  0  0  0  0
    3.8466   -3.8455   -0.4511 H   0  0  0  0  0  0  0  0  0  0  0  0
    5.0726   -5.7093    0.0770 H   0  0  0  0  0  0  0  0  0  0  0  0
    6.3815   -7.4715   -0.5073 H   0  0  0  0  0  0  0  0  0  0  0  0
    8.6053   -6.6973   -2.4993 H   0  0  0  0  0  0  0  0  0  0  0  0
    8.3268   -8.3599   -1.7205 H   0  0  0  0  0  0  0  0  0  0  0  0
    5.9676   -1.4528    2.6272 H   0  0  0  0  0  0  0  0  0  0  0  0
    4.6418   -4.4291    4.5180 H   0  0  0  0  0  0  0  0  0  0  0  0
    4.2541   -2.1451    7.9069 H   0  0  0  0  0  0  0  0  0  0  0  0
    6.1240   -0.4817    8.4909 H   0  0  0  0  0  0  0  0  0  0  0  0
    7.7312    1.1890    7.6465 H   0  0  0  0  0  0  0  0  0  0  0  0
    8.2224    1.3054    5.2148 H   0  0  0  0  0  0  0  0  0  0  0  0
    7.2895   -0.3351    3.6981 H   0  0  0  0  0  0  0  0  0  0  0  0
    7.1319   -2.4922   -0.9882 H   0  0  0  0  0  0  0  0  0  0  0  0
    7.5956   -3.4312    0.4419 H   0  0  0  0  0  0  0  0  0  0  0  0
    8.6922   -1.2349    0.3111 H   0  0  0  0  0  0  0  0  0  0  0  0
    7.6926   -1.2793    1.7301 H   0  0  0  0  0  0  0  0  0  0  0  0
  1  2  1  0  0  0  0
  2  3  1  0  0  0  0
  2  7  2  0  0  0  0
  3  4  2  0  0  0  0
  3 31  1  0  0  0  0
  4  5  1  0  0  0  0
  4 32  1  0  0  0  0
  5  6  2  0  0  0  0
  5 30  1  0  0  0  0
  6  7  1  0  0  0  0
  6  8  1  0  0  0  0
  7 33  1  0  0  0  0
  8  9  1  0  0  0  0
  8 15  1  0  0  0  0
  8 28  1  0  0  0  0
  9 10  1  0  0  0  0
  9 34  1  0  0  0  0
  9 35  1  0  0  0  0
 10 11  1  0  0  0  0
 10 36  1  0  0  0  0
 11 12  2  0  0  0  0
 11 13  1  0  0  0  0
 13 14  2  0  0  0  0
 13 37  1  0  0  0  0
 14 38  1  0  0  0  0
 14 39  1  0  0  0  0
 15 16  2  0  0  0  0
 15 17  1  0  0  0  0
 17 18  1  0  0  0  0
 17 40  1  0  0  0  0
 18 19  1  0  0  0  0
 18 27  2  0  0  0  0
 19 20  2  0  0  0  0
 19 41  1  0  0  0  0
 20 21  1  0  0  0  0
 21 22  2  0  0  0  0
 21 42  1  0  0  0  0
 22 23  1  0  0  0  0
 22 27  1  0  0  0  0
 23 24  2  0  0  0  0
 23 43  1  0  0  0  0
 24 25  1  0  0  0  0
 24 44  1  0  0  0  0
 25 26  2  0  0  0  0
 25 45  1  0  0  0  0
 26 27  1  0  0  0  0
 26 46  1  0  0  0  0
 28 29  1  0  0  0  0
 28 47  1  0  0  0  0
 28 48  1  0  0  0  0
 29 30  1  0  0  0  0
 29 49  1  0  0  0  0
 29 50  1  0  0  0  0
M  END
$$$$
