
 OpenBabel07202414133D

 67 71  0  0  1  0  0  0  0  0999 V2000
   -6.3887   -0.7428   -2.0828 C   0  0  0  0  0  0  0  0  0  0  0  0
   -4.9062   -0.7621   -2.4099 C   0  0  0  0  0  0  0  0  0  0  0  0
   -4.1077   -0.2653   -1.3280 O   0  0  0  0  0  0  0  0  0  0  0  0
   -3.5705   -1.2328   -0.5071 C   0  0  0  0  0  0  0  0  0  0  0  0
   -4.2172   -2.4513   -0.2575 C   0  0  0  0  0  0  0  0  0  0  0  0
   -3.6528   -3.4059    0.5844 C   0  0  0  0  0  0  0  0  0  0  0  0
   -2.4303   -3.1549    1.1909 C   0  0  0  0  0  0  0  0  0  0  0  0
   -1.7820   -1.9416    0.9670 C   0  0  0  0  0  0  0  0  0  0  0  0
   -2.3412   -0.9601    0.1266 C   0  0  0  0  0  0  0  0  0  0  0  0
   -1.6039    0.3500   -0.0174 C   0  0  0  0  0  0  0  0  0  0  0  0
   -1.3431    0.6771   -1.3897 N   0  0  0  0  0  0  0  0  0  0  0  0
   -0.1239    1.0503   -1.9036 C   0  0  0  0  0  0  0  0  0  0  0  0
    0.9280    1.0260   -1.2686 O   0  0  0  0  0  0  0  0  0  0  0  0
   -0.1846    1.5025   -3.3796 C   0  0  0  0  0  0  0  0  0  0  0  0
   -1.5583    1.8695   -3.7208 N   0  0  0  0  0  0  0  0  0  0  0  0
   -2.4078    0.9302   -4.4301 C   0  0  0  0  0  0  0  0  0  0  0  0
   -2.4615    1.1452   -5.9420 C   0  0  2  0  0  0  0  0  0  0  0  0
   -1.2130    0.4683   -6.5342 C   0  0  0  0  0  0  0  0  0  0  0  0
   -0.9489   -0.7145   -6.3321 O   0  0  0  0  0  0  0  0  0  0  0  0
   -0.4711    1.3163   -7.3066 N   0  0  0  0  0  0  0  0  0  0  0  0
    0.6994    1.1128   -8.0477 C   0  0  0  0  0  0  0  0  0  0  0  0
    1.4282   -0.0712   -8.0622 C   0  0  0  0  0  0  0  0  0  0  0  0
    2.4323   -0.3111   -8.9375 N   0  0  0  0  0  0  0  0  0  0  0  0
    2.7140    0.6753   -9.8229 C   0  0  0  0  0  0  0  0  0  0  0  0
    2.1043    1.9361   -9.8429 C   0  0  0  0  0  0  0  0  0  0  0  0
    2.4553    2.9490  -10.7516 C   0  0  0  0  0  0  0  0  0  0  0  0
    1.8218    4.1911  -10.7414 C   0  0  0  0  0  0  0  0  0  0  0  0
    0.8474    4.4568   -9.7977 C   0  0  0  0  0  0  0  0  0  0  0  0
    0.5079    3.4778   -8.8747 C   0  0  0  0  0  0  0  0  0  0  0  0
    1.0937    2.1819   -8.8994 C   0  0  0  0  0  0  0  0  0  0  0  0
   -2.6907    2.6398   -6.2464 C   0  0  0  0  0  0  0  0  0  0  0  0
   -3.2309    3.0614   -7.4789 C   0  0  0  0  0  0  0  0  0  0  0  0
   -3.4124    4.4226   -7.7405 C   0  0  0  0  0  0  0  0  0  0  0  0
   -4.0619    4.9304   -9.2553 Cl  0  0  0  0  0  0  0  0  0  0  0  0
   -3.0612    5.3846   -6.8034 C   0  0  0  0  0  0  0  0  0  0  0  0
   -2.5318    4.9847   -5.5809 C   0  0  0  0  0  0  0  0  0  0  0  0
   -2.3412    3.6219   -5.2919 C   0  0  0  0  0  0  0  0  0  0  0  0
   -1.8662    3.2678   -3.9005 C   0  0  0  0  0  0  0  0  0  0  0  0
   -6.9215   -1.4523   -2.7230 H   0  0  0  0  0  0  0  0  0  0  0  0
   -6.8021    0.2533   -2.2712 H   0  0  0  0  0  0  0  0  0  0  0  0
   -6.5916   -0.9767   -1.0351 H   0  0  0  0  0  0  0  0  0  0  0  0
   -4.7637   -0.0939   -3.2589 H   0  0  0  0  0  0  0  0  0  0  0  0
   -4.5610   -1.7450   -2.7541 H   0  0  0  0  0  0  0  0  0  0  0  0
   -5.1797   -2.6873   -0.6983 H   0  0  0  0  0  0  0  0  0  0  0  0
   -4.1736   -4.3423    0.7646 H   0  0  0  0  0  0  0  0  0  0  0  0
   -1.9842   -3.8992    1.8440 H   0  0  0  0  0  0  0  0  0  0  0  0
   -0.8254   -1.7623    1.4551 H   0  0  0  0  0  0  0  0  0  0  0  0
   -0.6629    0.3460    0.5418 H   0  0  0  0  0  0  0  0  0  0  0  0
   -2.2200    1.1551    0.3942 H   0  0  0  0  0  0  0  0  0  0  0  0
   -2.1481    0.8687   -1.9710 H   0  0  0  0  0  0  0  0  0  0  0  0
    0.2138    0.7015   -4.0110 H   0  0  0  0  0  0  0  0  0  0  0  0
    0.4947    2.3599   -3.4790 H   0  0  0  0  0  0  0  0  0  0  0  0
   -3.4175    1.1144   -4.0568 H   0  0  0  0  0  0  0  0  0  0  0  0
   -2.1714   -0.1074   -4.1663 H   0  0  0  0  0  0  0  0  0  0  0  0
   -3.3257    0.5979   -6.3443 H   0  0  0  0  0  0  0  0  0  0  0  0
   -0.9285    2.1834   -7.5131 H   0  0  0  0  0  0  0  0  0  0  0  0
    1.2233   -0.8912   -7.3793 H   0  0  0  0  0  0  0  0  0  0  0  0
    3.4702    0.4127  -10.5566 H   0  0  0  0  0  0  0  0  0  0  0  0
    3.2326    2.7658  -11.4952 H   0  0  0  0  0  0  0  0  0  0  0  0
    2.0868    4.9540  -11.4671 H   0  0  0  0  0  0  0  0  0  0  0  0
    0.3442    5.4223   -9.7658 H   0  0  0  0  0  0  0  0  0  0  0  0
   -0.2144    3.7729   -8.1197 H   0  0  0  0  0  0  0  0  0  0  0  0
   -3.5093    2.3345   -8.2400 H   0  0  0  0  0  0  0  0  0  0  0  0
   -3.2135    6.4441   -6.9999 H   0  0  0  0  0  0  0  0  0  0  0  0
   -2.2857    5.7391   -4.8349 H   0  0  0  0  0  0  0  0  0  0  0  0
   -2.6826    3.5122   -3.2099 H   0  0  0  0  0  0  0  0  0  0  0  0
   -1.0219    3.9125   -3.6286 H   0  0  0  0  0  0  0  0  0  0  0  0
  1  2  1  0  0  0  0
  1 39  1  0  0  0  0
  1 40  1  0  0  0  0
  1 41  1  0  0  0  0
  2  3  1  0  0  0  0
  2 42  1  0  0  0  0
  2 43  1  0  0  0  0
  3  4  1  0  0  0  0
  4  5  1  0  0  0  0
  4  9  2  0  0  0  0
  5  6  2  0  0  0  0
  5 44  1  0  0  0  0
  6  7  1  0  0  0  0
  6 45  1  0  0  0  0
  7  8  2  0  0  0  0
  7 46  1  0  0  0  0
  8  9  1  0  0  0  0
  8 47  1  0  0  0  0
  9 10  1  0  0  0  0
 10 11  1  0  0  0  0
 10 48  1  0  0  0  0
 10 49  1  0  0  0  0
 11 12  1  0  0  0  0
 11 50  1  0  0  0  0
 12 13  2  0  0  0  0
 12 14  1  0  0  0  0
 14 15  1  0  0  0  0
 14 51  1  0  0  0  0
 14 52  1  0  0  0  0
 15 16  1  0  0  0  0
 15 38  1  0  0  0  0
 16 17  1  0  0  0  0
 16 53  1  0  0  0  0
 16 54  1  0  0  0  0
 17 31  1  0  0  0  0
 17 18  1  0  0  0  0
 17 55  1  6  0  0  0
 18 19  2  0  0  0  0
 18 20  1  0  0  0  0
 20 21  1  0  0  0  0
 20 56  1  0  0  0  0
 21 22  1  0  0  0  0
 21 30  2  0  0  0  0
 22 23  2  0  0  0  0
 22 57  1  0  0  0  0
 23 24  1  0  0  0  0
 24 25  2  0  0  0  0
 24 58  1  0  0  0  0
 25 26  1  0  0  0  0
 25 30  1  0  0  0  0
 26 27  2  0  0  0  0
 26 59  1  0  0  0  0
 27 28  1  0  0  0  0
 27 60  1  0  0  0  0
 28 29  2  0  0  0  0
 28 61  1  0  0  0  0
 29 30  1  0  0  0  0
 29 62  1  0  0  0  0
 31 32  1  0  0  0  0
 31 37  2  0  0  0  0
 32 33  2  0  0  0  0
 32 63  1  0  0  0  0
 33 34  1  0  0  0  0
 33 35  1  0  0  0  0
 35 36  2  0  0  0  0
 35 64  1  0  0  0  0
 36 37  1  0  0  0  0
 36 65  1  0  0  0  0
 37 38  1  0  0  0  0
 38 66  1  0  0  0  0
 38 67  1  0  0  0  0
M  END
$$$$
