
 OpenBabel07202414193D

 53 56  0  0  1  0  0  0  0  0999 V2000
    1.0948    0.1897    0.2293 O   0  0  0  0  0  0  0  0  0  0  0  0
    2.1840    0.0165   -0.3223 C   0  0  0  0  0  0  0  0  0  0  0  0
    2.8123   -1.3709   -0.2747 C   0  0  0  0  0  0  0  0  0  0  0  0
    2.4688   -2.2923   -1.4204 C   0  0  0  0  0  0  0  0  0  0  0  0
    1.1862   -2.2644   -1.9697 C   0  0  0  0  0  0  0  0  0  0  0  0
    0.7601   -3.0752   -2.9581 N   0  0  0  0  0  0  0  0  0  0  0  0
    1.6396   -3.9990   -3.4003 C   0  0  0  0  0  0  0  0  0  0  0  0
    2.9385   -4.1506   -2.9218 C   0  0  0  0  0  0  0  0  0  0  0  0
    3.7873   -5.1557   -3.4218 C   0  0  0  0  0  0  0  0  0  0  0  0
    5.0856   -5.2970   -2.9433 C   0  0  0  0  0  0  0  0  0  0  0  0
    5.5546   -4.4318   -1.9667 C   0  0  0  0  0  0  0  0  0  0  0  0
    4.7140   -3.4344   -1.4554 C   0  0  0  0  0  0  0  0  0  0  0  0
    3.3824   -3.2704   -1.9108 C   0  0  0  0  0  0  0  0  0  0  0  0
    2.8894    1.0575   -0.9380 N   0  0  0  0  0  0  0  0  0  0  0  0
    2.3704    2.4144   -0.7406 C   0  0  0  0  0  0  0  0  0  0  0  0
    3.3755    3.3855   -0.1205 C   0  0  0  0  0  0  0  0  0  0  0  0
    4.0523    2.8423    1.1414 C   0  0  0  0  0  0  0  0  0  0  0  0
    5.4937    2.3665    0.9433 C   0  0  0  0  0  0  0  0  0  0  0  0
    5.7008    1.1026    0.1006 C   0  0  0  0  0  0  0  0  0  0  0  0
    5.3997    1.2843   -1.3840 C   0  0  0  0  0  0  0  0  0  0  0  0
    4.0007    0.8458   -1.8921 C   0  0  2  0  0  0  0  0  0  0  0  0
    3.6753    1.3638   -3.2976 C   0  0  0  0  0  0  0  0  0  0  0  0
    2.8710    0.5966   -4.1585 C   0  0  0  0  0  0  0  0  0  0  0  0
    2.6204    1.0124   -5.4711 C   0  0  0  0  0  0  0  0  0  0  0  0
    3.1599    2.2073   -5.9418 C   0  0  0  0  0  0  0  0  0  0  0  0
    3.9215    3.0002   -5.0937 C   0  0  0  0  0  0  0  0  0  0  0  0
    4.1663    2.5906   -3.7839 C   0  0  0  0  0  0  0  0  0  0  0  0
    2.4781   -1.8481    0.6563 H   0  0  0  0  0  0  0  0  0  0  0  0
    3.8866   -1.2475   -0.1566 H   0  0  0  0  0  0  0  0  0  0  0  0
    0.4290   -1.5631   -1.6222 H   0  0  0  0  0  0  0  0  0  0  0  0
    1.2486   -4.6446   -4.1821 H   0  0  0  0  0  0  0  0  0  0  0  0
    3.4322   -5.8434   -4.1888 H   0  0  0  0  0  0  0  0  0  0  0  0
    5.7297   -6.0808   -3.3319 H   0  0  0  0  0  0  0  0  0  0  0  0
    6.5701   -4.5265   -1.5941 H   0  0  0  0  0  0  0  0  0  0  0  0
    5.1343   -2.7895   -0.6871 H   0  0  0  0  0  0  0  0  0  0  0  0
    1.4978    2.3922   -0.0804 H   0  0  0  0  0  0  0  0  0  0  0  0
    2.0033    2.7970   -1.6992 H   0  0  0  0  0  0  0  0  0  0  0  0
    2.8182    4.2925    0.1487 H   0  0  0  0  0  0  0  0  0  0  0  0
    4.1151    3.7127   -0.8560 H   0  0  0  0  0  0  0  0  0  0  0  0
    3.4534    2.0545    1.6115 H   0  0  0  0  0  0  0  0  0  0  0  0
    4.0924    3.6629    1.8701 H   0  0  0  0  0  0  0  0  0  0  0  0
    5.9135    2.1681    1.9373 H   0  0  0  0  0  0  0  0  0  0  0  0
    6.0919    3.1864    0.5257 H   0  0  0  0  0  0  0  0  0  0  0  0
    5.1743    0.2554    0.5398 H   0  0  0  0  0  0  0  0  0  0  0  0
    6.7706    0.8585    0.1781 H   0  0  0  0  0  0  0  0  0  0  0  0
    6.1312    0.6932   -1.9554 H   0  0  0  0  0  0  0  0  0  0  0  0
    5.6397    2.3176   -1.6384 H   0  0  0  0  0  0  0  0  0  0  0  0
    4.1062   -0.2317   -2.0326 H   0  0  0  0  0  0  0  0  0  0  0  0
    2.4391   -0.3427   -3.8234 H   0  0  0  0  0  0  0  0  0  0  0  0
    2.0110    0.3971   -6.1257 H   0  0  0  0  0  0  0  0  0  0  0  0
    2.9788    2.5221   -6.9654 H   0  0  0  0  0  0  0  0  0  0  0  0
    4.3341    3.9404   -5.4482 H   0  0  0  0  0  0  0  0  0  0  0  0
    4.7521    3.2562   -3.1620 H   0  0  0  0  0  0  0  0  0  0  0  0
  1  2  2  0  0  0  0
  2  3  1  0  0  0  0
  2 14  1  0  0  0  0
  3  4  1  0  0  0  0
  3 28  1  0  0  0  0
  3 29  1  0  0  0  0
  4  5  1  0  0  0  0
  4 13  2  0  0  0  0
  5  6  2  0  0  0  0
  5 30  1  0  0  0  0
  6  7  1  0  0  0  0
  7  8  2  0  0  0  0
  7 31  1  0  0  0  0
  8  9  1  0  0  0  0
  8 13  1  0  0  0  0
  9 10  2  0  0  0  0
  9 32  1  0  0  0  0
 10 11  1  0  0  0  0
 10 33  1  0  0  0  0
 11 12  2  0  0  0  0
 11 34  1  0  0  0  0
 12 13  1  0  0  0  0
 12 35  1  0  0  0  0
 14 15  1  0  0  0  0
 14 21  1  0  0  0  0
 15 16  1  0  0  0  0
 15 36  1  0  0  0  0
 15 37  1  0  0  0  0
 16 17  1  0  0  0  0
 16 38  1  0  0  0  0
 16 39  1  0  0  0  0
 17 18  1  0  0  0  0
 17 40  1  0  0  0  0
 17 41  1  0  0  0  0
 18 19  1  0  0  0  0
 18 42  1  0  0  0  0
 18 43  1  0  0  0  0
 19 20  1  0  0  0  0
 19 44  1  0  0  0  0
 19 45  1  0  0  0  0
 20 21  1  0  0  0  0
 20 46  1  0  0  0  0
 20 47  1  0  0  0  0
 21 22  1  0  0  0  0
 21 48  1  6  0  0  0
 22 23  1  0  0  0  0
 22 27  2  0  0  0  0
 23 24  2  0  0  0  0
 23 49  1  0  0  0  0
 24 25  1  0  0  0  0
 24 50  1  0  0  0  0
 25 26  2  0  0  0  0
 25 51  1  0  0  0  0
 26 27  1  0  0  0  0
 26 52  1  0  0  0  0
 27 53  1  0  0  0  0
M  END
$$$$
