
 OpenBabel07202414193D

 47 50  0  0  0  0  0  0  0  0999 V2000
    1.2513    0.2422    0.7911 O   0  0  0  0  0  0  0  0  0  0  0  0
    2.4235    0.1316    0.4247 C   0  0  0  0  0  0  0  0  0  0  0  0
    3.3263    1.3684    0.3677 C   0  0  0  0  0  0  0  0  0  0  0  0
    2.7466    2.5073   -0.4398 C   0  0  0  0  0  0  0  0  0  0  0  0
    2.1287    3.5641    0.2279 C   0  0  0  0  0  0  0  0  0  0  0  0
    1.6526    4.6745   -0.3717 N   0  0  0  0  0  0  0  0  0  0  0  0
    1.7858    4.7354   -1.7149 C   0  0  0  0  0  0  0  0  0  0  0  0
    2.3600    3.7356   -2.5033 C   0  0  0  0  0  0  0  0  0  0  0  0
    2.4655    3.8637   -3.8991 C   0  0  0  0  0  0  0  0  0  0  0  0
    3.0375    2.8508   -4.6657 C   0  0  0  0  0  0  0  0  0  0  0  0
    3.5050    1.7009   -4.0443 C   0  0  0  0  0  0  0  0  0  0  0  0
    3.4097    1.5689   -2.6573 C   0  0  0  0  0  0  0  0  0  0  0  0
    2.8461    2.5834   -1.8508 C   0  0  0  0  0  0  0  0  0  0  0  0
    2.9870   -1.1033    0.0558 N   0  0  0  0  0  0  0  0  0  0  0  0
    2.1728   -2.3101    0.2629 C   0  0  0  0  0  0  0  0  0  0  0  0
    1.7170   -3.0237   -0.9923 C   0  0  0  0  0  0  0  0  0  0  0  0
    2.1248   -4.3447   -1.2399 C   0  0  0  0  0  0  0  0  0  0  0  0
    1.5429   -5.0939   -2.2658 C   0  0  0  0  0  0  0  0  0  0  0  0
    0.5516   -4.5280   -3.0630 C   0  0  0  0  0  0  0  0  0  0  0  0
    0.1729   -3.2017   -2.8619 C   0  0  0  0  0  0  0  0  0  0  0  0
    0.7562   -2.4487   -1.8374 C   0  0  0  0  0  0  0  0  0  0  0  0
    4.3873   -1.3082    0.1713 C   0  0  0  0  0  0  0  0  0  0  0  0
    5.0080   -1.2206    1.4242 C   0  0  0  0  0  0  0  0  0  0  0  0
    6.3924   -1.3385    1.5250 C   0  0  0  0  0  0  0  0  0  0  0  0
    7.1578   -1.5332    0.3760 C   0  0  0  0  0  0  0  0  0  0  0  0
    6.5383   -1.6355   -0.8711 C   0  0  0  0  0  0  0  0  0  0  0  0
    5.1490   -1.5423   -0.9739 C   0  0  0  0  0  0  0  0  0  0  0  0
    4.3254    1.1603   -0.0222 H   0  0  0  0  0  0  0  0  0  0  0  0
    3.4910    1.6889    1.4056 H   0  0  0  0  0  0  0  0  0  0  0  0
    2.0049    3.5537    1.3084 H   0  0  0  0  0  0  0  0  0  0  0  0
    1.4019    5.6503   -2.1596 H   0  0  0  0  0  0  0  0  0  0  0  0
    2.1007    4.7588   -4.3987 H   0  0  0  0  0  0  0  0  0  0  0  0
    3.1152    2.9572   -5.7435 H   0  0  0  0  0  0  0  0  0  0  0  0
    3.9450    0.9011   -4.6352 H   0  0  0  0  0  0  0  0  0  0  0  0
    3.7836    0.6524   -2.2163 H   0  0  0  0  0  0  0  0  0  0  0  0
    1.2741   -2.0739    0.8448 H   0  0  0  0  0  0  0  0  0  0  0  0
    2.7360   -3.0084    0.8963 H   0  0  0  0  0  0  0  0  0  0  0  0
    2.8697   -4.8197   -0.6046 H   0  0  0  0  0  0  0  0  0  0  0  0
    1.8357   -6.1293   -2.4191 H   0  0  0  0  0  0  0  0  0  0  0  0
    0.0652   -5.1232   -3.8329 H   0  0  0  0  0  0  0  0  0  0  0  0
   -0.6077   -2.7628   -3.4807 H   0  0  0  0  0  0  0  0  0  0  0  0
    0.4153   -1.4294   -1.6670 H   0  0  0  0  0  0  0  0  0  0  0  0
    4.4187   -1.0604    2.3238 H   0  0  0  0  0  0  0  0  0  0  0  0
    6.8755   -1.2718    2.4969 H   0  0  0  0  0  0  0  0  0  0  0  0
    8.2407   -1.6043    0.4522 H   0  0  0  0  0  0  0  0  0  0  0  0
    7.1410   -1.7779   -1.7646 H   0  0  0  0  0  0  0  0  0  0  0  0
    4.6746   -1.6147   -1.9491 H   0  0  0  0  0  0  0  0  0  0  0  0
  1  2  2  0  0  0  0
  2  3  1  0  0  0  0
  2 14  1  0  0  0  0
  3  4  1  0  0  0  0
  3 28  1  0  0  0  0
  3 29  1  0  0  0  0
  4  5  1  0  0  0  0
  4 13  2  0  0  0  0
  5  6  2  0  0  0  0
  5 30  1  0  0  0  0
  6  7  1  0  0  0  0
  7  8  2  0  0  0  0
  7 31  1  0  0  0  0
  8  9  1  0  0  0  0
  8 13  1  0  0  0  0
  9 10  2  0  0  0  0
  9 32  1  0  0  0  0
 10 11  1  0  0  0  0
 10 33  1  0  0  0  0
 11 12  2  0  0  0  0
 11 34  1  0  0  0  0
 12 13  1  0  0  0  0
 12 35  1  0  0  0  0
 14 15  1  0  0  0  0
 14 22  1  0  0  0  0
 15 16  1  0  0  0  0
 15 36  1  0  0  0  0
 15 37  1  0  0  0  0
 16 17  1  0  0  0  0
 16 21  2  0  0  0  0
 17 18  2  0  0  0  0
 17 38  1  0  0  0  0
 18 19  1  0  0  0  0
 18 39  1  0  0  0  0
 19 20  2  0  0  0  0
 19 40  1  0  0  0  0
 20 21  1  0  0  0  0
 20 41  1  0  0  0  0
 21 42  1  0  0  0  0
 22 23  1  0  0  0  0
 22 27  2  0  0  0  0
 23 24  2  0  0  0  0
 23 43  1  0  0  0  0
 24 25  1  0  0  0  0
 24 44  1  0  0  0  0
 25 26  2  0  0  0  0
 25 45  1  0  0  0  0
 26 27  1  0  0  0  0
 26 46  1  0  0  0  0
 27 47  1  0  0  0  0
M  END
$$$$
