
 OpenBabel07202414183D

 37 39  0  0  0  0  0  0  0  0999 V2000
    4.8542    3.5445   -0.9157 Cl  0  0  0  0  0  0  0  0  0  0  0  0
    3.9426    2.1470   -1.3373 C   0  0  0  0  0  0  0  0  0  0  0  0
    2.6663    2.2893   -1.8762 C   0  0  0  0  0  0  0  0  0  0  0  0
    1.9306    1.1536   -2.2137 C   0  0  0  0  0  0  0  0  0  0  0  0
    2.4752   -0.1177   -2.0201 C   0  0  0  0  0  0  0  0  0  0  0  0
    3.7655   -0.2664   -1.4923 C   0  0  0  0  0  0  0  0  0  0  0  0
    4.3614   -1.6379   -1.2977 C   0  0  0  0  0  0  0  0  0  0  0  0
    4.1018   -2.1855    0.1012 C   0  0  0  0  0  0  0  0  0  0  0  0
    4.6725   -3.5810    0.2431 C   0  0  0  0  0  0  0  0  0  0  0  0
    3.9242   -4.5484    0.3275 O   0  0  0  0  0  0  0  0  0  0  0  0
    6.0587   -3.6191    0.2654 N   0  0  0  0  0  0  0  0  0  0  0  0
    6.8696   -4.7894    0.2497 C   0  0  0  0  0  0  0  0  0  0  0  0
    6.3423   -6.0533   -0.0303 C   0  0  0  0  0  0  0  0  0  0  0  0
    7.0617   -7.1973   -0.0941 N   0  0  0  0  0  0  0  0  0  0  0  0
    8.3829   -7.0875    0.1352 C   0  0  0  0  0  0  0  0  0  0  0  0
    9.0390   -5.8933    0.4221 C   0  0  0  0  0  0  0  0  0  0  0  0
   10.4270   -5.8825    0.6473 C   0  0  0  0  0  0  0  0  0  0  0  0
   11.0904   -4.6962    0.9435 C   0  0  0  0  0  0  0  0  0  0  0  0
   10.3717   -3.5113    1.0178 C   0  0  0  0  0  0  0  0  0  0  0  0
    8.9892   -3.5107    0.7915 C   0  0  0  0  0  0  0  0  0  0  0  0
    8.2766   -4.6997    0.4836 C   0  0  0  0  0  0  0  0  0  0  0  0
    4.4922    0.8796   -1.1408 C   0  0  0  0  0  0  0  0  0  0  0  0
    2.2414    3.2766   -2.0355 H   0  0  0  0  0  0  0  0  0  0  0  0
    0.9323    1.2595   -2.6336 H   0  0  0  0  0  0  0  0  0  0  0  0
    1.8861   -0.9924   -2.2911 H   0  0  0  0  0  0  0  0  0  0  0  0
    5.4397   -1.5879   -1.4985 H   0  0  0  0  0  0  0  0  0  0  0  0
    3.9595   -2.3248   -2.0535 H   0  0  0  0  0  0  0  0  0  0  0  0
    3.0224   -2.2414    0.2942 H   0  0  0  0  0  0  0  0  0  0  0  0
    4.5281   -1.5403    0.8778 H   0  0  0  0  0  0  0  0  0  0  0  0
    6.5344   -2.7337    0.3541 H   0  0  0  0  0  0  0  0  0  0  0  0
    5.2921   -6.2101   -0.2493 H   0  0  0  0  0  0  0  0  0  0  0  0
    8.9223   -8.0300    0.0802 H   0  0  0  0  0  0  0  0  0  0  0  0
   11.0014   -6.8056    0.5968 H   0  0  0  0  0  0  0  0  0  0  0  0
   12.1632   -4.7009    1.1194 H   0  0  0  0  0  0  0  0  0  0  0  0
   10.8856   -2.5826    1.2559 H   0  0  0  0  0  0  0  0  0  0  0  0
    8.4823   -2.5549    0.8747 H   0  0  0  0  0  0  0  0  0  0  0  0
    5.4908    0.7879   -0.7214 H   0  0  0  0  0  0  0  0  0  0  0  0
  1  2  1  0  0  0  0
  2  3  1  0  0  0  0
  2 22  2  0  0  0  0
  3  4  2  0  0  0  0
  3 23  1  0  0  0  0
  4  5  1  0  0  0  0
  4 24  1  0  0  0  0
  5  6  2  0  0  0  0
  5 25  1  0  0  0  0
  6  7  1  0  0  0  0
  6 22  1  0  0  0  0
  7  8  1  0  0  0  0
  7 26  1  0  0  0  0
  7 27  1  0  0  0  0
  8  9  1  0  0  0  0
  8 28  1  0  0  0  0
  8 29  1  0  0  0  0
  9 10  2  0  0  0  0
  9 11  1  0  0  0  0
 11 12  1  0  0  0  0
 11 30  1  0  0  0  0
 12 13  1  0  0  0  0
 12 21  2  0  0  0  0
 13 14  2  0  0  0  0
 13 31  1  0  0  0  0
 14 15  1  0  0  0  0
 15 16  2  0  0  0  0
 15 32  1  0  0  0  0
 16 17  1  0  0  0  0
 16 21  1  0  0  0  0
 17 18  2  0  0  0  0
 17 33  1  0  0  0  0
 18 19  1  0  0  0  0
 18 34  1  0  0  0  0
 19 20  2  0  0  0  0
 19 35  1  0  0  0  0
 20 21  1  0  0  0  0
 20 36  1  0  0  0  0
 22 37  1  0  0  0  0
M  END
$$$$
