
 OpenBabel07202414183D

 53 57  0  0  1  0  0  0  0  0999 V2000
    3.8763   -5.0873    1.1899 F   0  0  0  0  0  0  0  0  0  0  0  0
    3.3633   -3.8502    1.5025 C   0  0  0  0  0  0  0  0  0  0  0  0
    4.3814   -3.0967    2.0320 F   0  0  0  0  0  0  0  0  0  0  0  0
    2.0002   -3.7551    2.0813 C   0  0  0  0  0  0  0  0  0  0  0  0
    2.2899   -3.2283    0.6873 C   0  0  3  0  0  0  0  0  0  0  0  0
    1.7338   -3.9673   -0.4879 C   0  0  0  0  0  0  0  0  0  0  0  0
    2.4160   -3.1982   -1.9724 S   0  0  0  0  0  0  0  0  0  0  0  0
    1.9706   -1.8240   -2.0528 O   0  0  0  0  0  0  0  0  0  0  0  0
    3.8216   -3.5304   -2.0499 O   0  0  0  0  0  0  0  0  0  0  0  0
    1.6550   -4.0415   -3.2565 N   0  0  0  0  0  0  0  0  0  0  0  0
    0.2921   -3.5855   -3.6686 C   0  0  0  0  0  0  0  0  0  0  0  0
   -0.1264   -4.2177   -5.0118 C   0  0  3  0  0  0  0  0  0  0  0  0
    0.4937   -3.5604   -6.2571 C   0  0  0  0  0  0  0  0  0  0  0  0
   -0.1460   -3.5277   -7.3104 O   0  0  0  0  0  0  0  0  0  0  0  0
    1.7809   -3.0881   -6.0980 N   0  0  0  0  0  0  0  0  0  0  0  0
    2.6451   -2.5519   -7.0956 C   0  0  0  0  0  0  0  0  0  0  0  0
    2.3315   -2.5417   -8.4560 C   0  0  0  0  0  0  0  0  0  0  0  0
    3.1957   -2.1967   -9.4404 N   0  0  0  0  0  0  0  0  0  0  0  0
    4.4244   -1.8008   -9.0571 C   0  0  0  0  0  0  0  0  0  0  0  0
    4.8256   -1.6531   -7.7323 C   0  0  0  0  0  0  0  0  0  0  0  0
    6.0883   -1.1211   -7.4153 C   0  0  0  0  0  0  0  0  0  0  0  0
    6.4700   -0.9306   -6.0900 C   0  0  0  0  0  0  0  0  0  0  0  0
    5.6038   -1.2947   -5.0695 C   0  0  0  0  0  0  0  0  0  0  0  0
    4.3548   -1.8413   -5.3762 C   0  0  0  0  0  0  0  0  0  0  0  0
    3.9182   -2.0355   -6.7130 C   0  0  0  0  0  0  0  0  0  0  0  0
    0.0603   -5.7234   -5.0120 C   0  0  0  0  0  0  0  0  0  0  0  0
   -0.7178   -6.5414   -5.8489 C   0  0  0  0  0  0  0  0  0  0  0  0
   -0.5811   -7.9303   -5.8050 C   0  0  0  0  0  0  0  0  0  0  0  0
   -1.5788   -8.9246   -6.7919 Cl  0  0  0  0  0  0  0  0  0  0  0  0
    0.3408   -8.5226   -4.9484 C   0  0  0  0  0  0  0  0  0  0  0  0
    1.1303   -7.7198   -4.1297 C   0  0  0  0  0  0  0  0  0  0  0  0
    0.9960   -6.3205   -4.1540 C   0  0  0  0  0  0  0  0  0  0  0  0
    1.7885   -5.5184   -3.1567 C   0  0  0  0  0  0  0  0  0  0  0  0
    1.8499   -3.0379    2.8784 H   0  0  0  0  0  0  0  0  0  0  0  0
    1.4503   -4.6793    2.1959 H   0  0  0  0  0  0  0  0  0  0  0  0
    2.2958   -2.1512    0.5725 H   0  0  0  0  0  0  0  0  0  0  0  0
    0.6456   -3.8979   -0.5286 H   0  0  0  0  0  0  0  0  0  0  0  0
    2.0586   -5.0103   -0.4637 H   0  0  0  0  0  0  0  0  0  0  0  0
    0.2810   -2.4949   -3.7776 H   0  0  0  0  0  0  0  0  0  0  0  0
   -0.4246   -3.8576   -2.8849 H   0  0  0  0  0  0  0  0  0  0  0  0
   -1.2044   -4.0152   -5.0980 H   0  0  0  0  0  0  0  0  0  0  0  0
    2.1906   -3.2094   -5.1767 H   0  0  0  0  0  0  0  0  0  0  0  0
    1.3572   -2.8301   -8.8292 H   0  0  0  0  0  0  0  0  0  0  0  0
    5.1005   -1.5832   -9.8801 H   0  0  0  0  0  0  0  0  0  0  0  0
    6.7755   -0.8244   -8.2044 H   0  0  0  0  0  0  0  0  0  0  0  0
    7.4337   -0.4884   -5.8546 H   0  0  0  0  0  0  0  0  0  0  0  0
    5.8850   -1.1447   -4.0297 H   0  0  0  0  0  0  0  0  0  0  0  0
    3.7085   -2.0720   -4.5351 H   0  0  0  0  0  0  0  0  0  0  0  0
   -1.4442   -6.0963   -6.5272 H   0  0  0  0  0  0  0  0  0  0  0  0
    0.4425   -9.6038   -4.9041 H   0  0  0  0  0  0  0  0  0  0  0  0
    1.8371   -8.1930   -3.4492 H   0  0  0  0  0  0  0  0  0  0  0  0
    2.8470   -5.7869   -3.2333 H   0  0  0  0  0  0  0  0  0  0  0  0
    1.4009   -5.8455   -2.1881 H   0  0  0  0  0  0  0  0  0  0  0  0
  1  2  1  0  0  0  0
  2  3  1  0  0  0  0
  2  4  1  0  0  0  0
  2  5  1  0  0  0  0
  4  5  1  0  0  0  0
  4 34  1  0  0  0  0
  4 35  1  0  0  0  0
  5  6  1  0  0  0  0
  5 36  1  0  0  0  0
  6  7  1  0  0  0  0
  6 37  1  0  0  0  0
  6 38  1  0  0  0  0
  7  8  2  0  0  0  0
  7  9  2  0  0  0  0
  7 10  1  0  0  0  0
 10 11  1  0  0  0  0
 10 33  1  0  0  0  0
 11 12  1  0  0  0  0
 11 39  1  0  0  0  0
 11 40  1  0  0  0  0
 12 13  1  0  0  0  0
 12 26  1  0  0  0  0
 12 41  1  0  0  0  0
 13 14  2  0  0  0  0
 13 15  1  0  0  0  0
 15 16  1  0  0  0  0
 15 42  1  0  0  0  0
 16 17  1  0  0  0  0
 16 25  2  0  0  0  0
 17 18  2  0  0  0  0
 17 43  1  0  0  0  0
 18 19  1  0  0  0  0
 19 20  2  0  0  0  0
 19 44  1  0  0  0  0
 20 21  1  0  0  0  0
 20 25  1  0  0  0  0
 21 22  2  0  0  0  0
 21 45  1  0  0  0  0
 22 23  1  0  0  0  0
 22 46  1  0  0  0  0
 23 24  2  0  0  0  0
 23 47  1  0  0  0  0
 24 25  1  0  0  0  0
 24 48  1  0  0  0  0
 26 27  1  0  0  0  0
 26 32  2  0  0  0  0
 27 28  2  0  0  0  0
 27 49  1  0  0  0  0
 28 29  1  0  0  0  0
 28 30  1  0  0  0  0
 30 31  2  0  0  0  0
 30 50  1  0  0  0  0
 31 32  1  0  0  0  0
 31 51  1  0  0  0  0
 32 33  1  0  0  0  0
 33 52  1  0  0  0  0
 33 53  1  0  0  0  0
M  END
$$$$
