
 OpenBabel07202414133D

 38 40  0  0  0  0  0  0  0  0999 V2000
    3.2798    0.0775    4.0265 C   0  0  0  0  0  0  0  0  0  0  0  0
    4.3310   -0.5197    3.1099 C   0  0  0  0  0  0  0  0  0  0  0  0
    3.7945   -0.6569    1.6863 C   0  0  0  0  0  0  0  0  0  0  0  0
    4.8345   -1.2473    0.7457 C   0  0  0  0  0  0  0  0  0  0  0  0
    5.1019   -2.6807    1.0374 C   0  0  0  0  0  0  0  0  0  0  0  0
    4.2009   -3.6353    0.9561 N   0  0  0  0  0  0  0  0  0  0  0  0
    4.9378   -4.7424    0.6514 C   0  0  0  0  0  0  0  0  0  0  0  0
    4.4895   -5.6645   -0.4544 C   0  0  0  0  0  0  0  0  0  0  0  0
    5.4089   -6.2466   -1.2151 N   0  0  0  0  0  0  0  0  0  0  0  0
    5.3279   -5.5135   -2.3769 C   0  0  0  0  0  0  0  0  0  0  0  0
    4.1551   -4.7857   -2.4099 C   0  0  0  0  0  0  0  0  0  0  0  0
    3.4571   -5.2592   -1.2994 N   0  0  0  0  0  0  0  0  0  0  0  0
    2.2049   -5.9888   -1.4747 C   0  0  0  0  0  0  0  0  0  0  0  0
    0.9991   -5.3711   -0.8526 C   0  0  0  0  0  0  0  0  0  0  0  0
    0.8304   -4.8064    0.4383 C   0  0  0  0  0  0  0  0  0  0  0  0
   -0.5138   -4.5052    0.5689 C   0  0  0  0  0  0  0  0  0  0  0  0
   -1.1756   -4.8297   -0.5705 O   0  0  0  0  0  0  0  0  0  0  0  0
   -0.2658   -5.3460   -1.4229 C   0  0  0  0  0  0  0  0  0  0  0  0
    6.2704   -4.5577    0.9668 C   0  0  0  0  0  0  0  0  0  0  0  0
    6.3637   -3.2039    1.2002 N   0  0  0  0  0  0  0  0  0  0  0  0
    3.6770    0.1808    5.0400 H   0  0  0  0  0  0  0  0  0  0  0  0
    2.3929   -0.5634    4.0696 H   0  0  0  0  0  0  0  0  0  0  0  0
    2.9727    1.0672    3.6744 H   0  0  0  0  0  0  0  0  0  0  0  0
    4.6304   -1.4982    3.5024 H   0  0  0  0  0  0  0  0  0  0  0  0
    5.2226    0.1169    3.1083 H   0  0  0  0  0  0  0  0  0  0  0  0
    3.5041    0.3309    1.3084 H   0  0  0  0  0  0  0  0  0  0  0  0
    2.8878   -1.2748    1.6868 H   0  0  0  0  0  0  0  0  0  0  0  0
    5.7557   -0.6582    0.7512 H   0  0  0  0  0  0  0  0  0  0  0  0
    4.4376   -1.1991   -0.2791 H   0  0  0  0  0  0  0  0  0  0  0  0
    6.1193   -5.5430   -3.1149 H   0  0  0  0  0  0  0  0  0  0  0  0
    3.7080   -4.1123   -3.1232 H   0  0  0  0  0  0  0  0  0  0  0  0
    2.3515   -7.0070   -1.0948 H   0  0  0  0  0  0  0  0  0  0  0  0
    2.0429   -6.0660   -2.5561 H   0  0  0  0  0  0  0  0  0  0  0  0
    1.5805   -4.6565    1.2075 H   0  0  0  0  0  0  0  0  0  0  0  0
   -1.1205   -4.0975    1.3624 H   0  0  0  0  0  0  0  0  0  0  0  0
   -0.6598   -5.6858   -2.3726 H   0  0  0  0  0  0  0  0  0  0  0  0
    7.1481   -5.1542    0.7612 H   0  0  0  0  0  0  0  0  0  0  0  0
    7.2209   -2.6750    1.2073 H   0  0  0  0  0  0  0  0  0  0  0  0
  1  2  1  0  0  0  0
  1 21  1  0  0  0  0
  1 22  1  0  0  0  0
  1 23  1  0  0  0  0
  2  3  1  0  0  0  0
  2 24  1  0  0  0  0
  2 25  1  0  0  0  0
  3  4  1  0  0  0  0
  3 26  1  0  0  0  0
  3 27  1  0  0  0  0
  4  5  1  0  0  0  0
  4 28  1  0  0  0  0
  4 29  1  0  0  0  0
  5  6  2  0  0  0  0
  5 20  1  0  0  0  0
  6  7  1  0  0  0  0
  7  8  1  0  0  0  0
  7 19  2  0  0  0  0
  8  9  2  0  0  0  0
  8 12  1  0  0  0  0
  9 10  1  0  0  0  0
 10 11  2  0  0  0  0
 10 30  1  0  0  0  0
 11 12  1  0  0  0  0
 11 31  1  0  0  0  0
 12 13  1  0  0  0  0
 13 14  1  0  0  0  0
 13 32  1  0  0  0  0
 13 33  1  0  0  0  0
 14 15  1  0  0  0  0
 14 18  2  0  0  0  0
 15 16  2  0  0  0  0
 15 34  1  0  0  0  0
 16 17  1  0  0  0  0
 16 35  1  0  0  0  0
 17 18  1  0  0  0  0
 18 36  1  0  0  0  0
 19 20  1  0  0  0  0
 19 37  1  0  0  0  0
 20 38  1  0  0  0  0
M  END
$$$$
