
 OpenBabel07202414143D

 49 52  0  0  1  0  0  0  0  0999 V2000
    1.1603   -0.4549    0.3200 C   0  0  0  0  0  0  0  0  0  0  0  0
    2.5818   -0.2972    0.3086 O   0  0  0  0  0  0  0  0  0  0  0  0
    3.0259    0.6813    1.1523 C   0  0  0  0  0  0  0  0  0  0  0  0
    2.2888    1.3681    1.8483 O   0  0  0  0  0  0  0  0  0  0  0  0
    4.5572    0.7767    1.0682 C   0  0  0  0  0  0  0  0  0  0  0  0
    5.1992    1.7866    1.9621 N   0  0  0  0  0  0  0  0  0  0  0  0
    4.9292    1.5209    3.3916 C   0  0  0  0  0  0  0  0  0  0  0  0
    5.6487    2.5165    4.3285 C   0  0  3  0  0  0  0  0  0  0  0  0
    7.1581    2.2551    4.4868 C   0  0  0  0  0  0  0  0  0  0  0  0
    7.7307    2.5344    5.5412 O   0  0  0  0  0  0  0  0  0  0  0  0
    7.7665    1.7276    3.3673 N   0  0  0  0  0  0  0  0  0  0  0  0
    9.1382    1.4499    3.1499 C   0  0  0  0  0  0  0  0  0  0  0  0
   10.1414    1.8002    4.0561 C   0  0  0  0  0  0  0  0  0  0  0  0
   11.4682    1.7264    3.7917 N   0  0  0  0  0  0  0  0  0  0  0  0
   11.8182    1.2317    2.5858 C   0  0  0  0  0  0  0  0  0  0  0  0
   10.9196    0.7204    1.6518 C   0  0  0  0  0  0  0  0  0  0  0  0
   11.3681    0.0908    0.4754 C   0  0  0  0  0  0  0  0  0  0  0  0
   10.4612   -0.4707   -0.4214 C   0  0  0  0  0  0  0  0  0  0  0  0
    9.0985   -0.3785   -0.1695 C   0  0  0  0  0  0  0  0  0  0  0  0
    8.6461    0.2659    0.9839 C   0  0  0  0  0  0  0  0  0  0  0  0
    9.5391    0.8266    1.9325 C   0  0  0  0  0  0  0  0  0  0  0  0
    5.3511    3.9415    3.9160 C   0  0  0  0  0  0  0  0  0  0  0  0
    5.3715    4.9750    4.8722 C   0  0  0  0  0  0  0  0  0  0  0  0
    5.0498    6.2850    4.4974 C   0  0  0  0  0  0  0  0  0  0  0  0
    5.0053    7.5270    5.6868 Cl  0  0  0  0  0  0  0  0  0  0  0  0
    4.7426    6.5782    3.1761 C   0  0  0  0  0  0  0  0  0  0  0  0
    4.7193    5.5648    2.2222 C   0  0  0  0  0  0  0  0  0  0  0  0
    5.0061    4.2371    2.5888 C   0  0  0  0  0  0  0  0  0  0  0  0
    4.8133    3.1535    1.5493 C   0  0  0  0  0  0  0  0  0  0  0  0
    0.8990   -1.2676   -0.3617 H   0  0  0  0  0  0  0  0  0  0  0  0
    0.6712    0.4616   -0.0285 H   0  0  0  0  0  0  0  0  0  0  0  0
    0.8112   -0.7187    1.3240 H   0  0  0  0  0  0  0  0  0  0  0  0
    4.8232    1.0094    0.0301 H   0  0  0  0  0  0  0  0  0  0  0  0
    4.9738   -0.2094    1.3023 H   0  0  0  0  0  0  0  0  0  0  0  0
    5.2643    0.5028    3.6319 H   0  0  0  0  0  0  0  0  0  0  0  0
    3.8564    1.5645    3.6112 H   0  0  0  0  0  0  0  0  0  0  0  0
    5.2151    2.3464    5.3244 H   0  0  0  0  0  0  0  0  0  0  0  0
    7.1584    1.6331    2.5586 H   0  0  0  0  0  0  0  0  0  0  0  0
    9.9240    2.1845    5.0467 H   0  0  0  0  0  0  0  0  0  0  0  0
   12.8880    1.2424    2.3924 H   0  0  0  0  0  0  0  0  0  0  0  0
   12.4324    0.0033    0.2688 H   0  0  0  0  0  0  0  0  0  0  0  0
   10.8197   -0.9898   -1.3074 H   0  0  0  0  0  0  0  0  0  0  0  0
    8.3872   -0.8257   -0.8580 H   0  0  0  0  0  0  0  0  0  0  0  0
    7.5751    0.2768    1.1486 H   0  0  0  0  0  0  0  0  0  0  0  0
    5.6124    4.7574    5.9083 H   0  0  0  0  0  0  0  0  0  0  0  0
    4.4859    7.6011    2.8869 H   0  0  0  0  0  0  0  0  0  0  0  0
    4.4427    5.8054    1.1989 H   0  0  0  0  0  0  0  0  0  0  0  0
    5.4161    3.4130    0.6695 H   0  0  0  0  0  0  0  0  0  0  0  0
    3.7625    3.2037    1.2480 H   0  0  0  0  0  0  0  0  0  0  0  0
  1  2  1  0  0  0  0
  1 30  1  0  0  0  0
  1 31  1  0  0  0  0
  1 32  1  0  0  0  0
  2  3  1  0  0  0  0
  3  4  2  0  0  0  0
  3  5  1  0  0  0  0
  5  6  1  0  0  0  0
  5 33  1  0  0  0  0
  5 34  1  0  0  0  0
  6  7  1  0  0  0  0
  6 29  1  0  0  0  0
  7  8  1  0  0  0  0
  7 35  1  0  0  0  0
  7 36  1  0  0  0  0
  8  9  1  0  0  0  0
  8 22  1  0  0  0  0
  8 37  1  0  0  0  0
  9 10  2  0  0  0  0
  9 11  1  0  0  0  0
 11 12  1  0  0  0  0
 11 38  1  0  0  0  0
 12 13  1  0  0  0  0
 12 21  2  0  0  0  0
 13 14  2  0  0  0  0
 13 39  1  0  0  0  0
 14 15  1  0  0  0  0
 15 16  2  0  0  0  0
 15 40  1  0  0  0  0
 16 17  1  0  0  0  0
 16 21  1  0  0  0  0
 17 18  2  0  0  0  0
 17 41  1  0  0  0  0
 18 19  1  0  0  0  0
 18 42  1  0  0  0  0
 19 20  2  0  0  0  0
 19 43  1  0  0  0  0
 20 21  1  0  0  0  0
 20 44  1  0  0  0  0
 22 23  1  0  0  0  0
 22 28  2  0  0  0  0
 23 24  2  0  0  0  0
 23 45  1  0  0  0  0
 24 25  1  0  0  0  0
 24 26  1  0  0  0  0
 26 27  2  0  0  0  0
 26 46  1  0  0  0  0
 27 28  1  0  0  0  0
 27 47  1  0  0  0  0
 28 29  1  0  0  0  0
 29 48  1  0  0  0  0
 29 49  1  0  0  0  0
M  END
$$$$
