
 OpenBabel07202414193D

 47 50  0  0  1  0  0  0  0  0999 V2000
    1.5733   -1.0210    0.7539 O   0  0  0  0  0  0  0  0  0  0  0  0
    2.4167   -0.2845    0.2321 C   0  0  0  0  0  0  0  0  0  0  0  0
    2.7937   -0.5104   -1.2191 C   0  0  0  0  0  0  0  0  0  0  0  0
    1.9542    0.2429   -2.2363 C   0  0  0  0  0  0  0  0  0  0  0  0
    0.8886    1.0568   -1.8410 C   0  0  0  0  0  0  0  0  0  0  0  0
    0.1358    1.8019   -2.6777 N   0  0  0  0  0  0  0  0  0  0  0  0
    0.4330    1.7189   -3.9897 C   0  0  0  0  0  0  0  0  0  0  0  0
    1.4503    0.9302   -4.5220 C   0  0  0  0  0  0  0  0  0  0  0  0
    1.6944    0.8921   -5.9065 C   0  0  0  0  0  0  0  0  0  0  0  0
    2.7145    0.0994   -6.4253 C   0  0  0  0  0  0  0  0  0  0  0  0
    3.4976   -0.6613   -5.5663 C   0  0  0  0  0  0  0  0  0  0  0  0
    3.2628   -0.6289   -4.1879 C   0  0  0  0  0  0  0  0  0  0  0  0
    2.2360    0.1665   -3.6281 C   0  0  0  0  0  0  0  0  0  0  0  0
    2.9637    0.7775    0.9264 N   0  0  0  0  0  0  0  0  0  0  0  0
    2.5788    0.9493    2.3180 C   0  0  0  0  0  0  0  0  0  0  0  0
    2.9143    2.3924    2.6056 C   0  0  0  0  0  0  0  0  0  0  0  0
    4.2173    2.5875    1.8431 C   0  0  0  0  0  0  0  0  0  0  0  0
    4.0931    1.6789    0.5918 C   0  0  2  0  0  0  0  0  0  0  0  0
    3.9367    2.5058   -0.6998 C   0  0  0  0  0  0  0  0  0  0  0  0
    5.0539    3.4979   -0.9555 C   0  0  0  0  0  0  0  0  0  0  0  0
    6.3832    3.0756   -1.1080 C   0  0  0  0  0  0  0  0  0  0  0  0
    7.4005    4.0112   -1.3293 C   0  0  0  0  0  0  0  0  0  0  0  0
    7.0796    5.3612   -1.4089 C   0  0  0  0  0  0  0  0  0  0  0  0
    8.0568    6.2578   -1.6096 F   0  0  0  0  0  0  0  0  0  0  0  0
    5.7689    5.7954   -1.2852 C   0  0  0  0  0  0  0  0  0  0  0  0
    4.7536    4.8645   -1.0657 C   0  0  0  0  0  0  0  0  0  0  0  0
    2.6729   -1.5859   -1.4053 H   0  0  0  0  0  0  0  0  0  0  0  0
    3.8587   -0.2940   -1.3464 H   0  0  0  0  0  0  0  0  0  0  0  0
    0.5954    1.1619   -0.7991 H   0  0  0  0  0  0  0  0  0  0  0  0
   -0.1993    2.3295   -4.6296 H   0  0  0  0  0  0  0  0  0  0  0  0
    1.0861    1.4814   -6.5898 H   0  0  0  0  0  0  0  0  0  0  0  0
    2.8939    0.0737   -7.4969 H   0  0  0  0  0  0  0  0  0  0  0  0
    4.2920   -1.2860   -5.9676 H   0  0  0  0  0  0  0  0  0  0  0  0
    3.8959   -1.2472   -3.5556 H   0  0  0  0  0  0  0  0  0  0  0  0
    3.1966    0.2713    2.9207 H   0  0  0  0  0  0  0  0  0  0  0  0
    1.5250    0.7145    2.4918 H   0  0  0  0  0  0  0  0  0  0  0  0
    3.0080    2.6035    3.6741 H   0  0  0  0  0  0  0  0  0  0  0  0
    2.1369    3.0459    2.1910 H   0  0  0  0  0  0  0  0  0  0  0  0
    5.0599    2.2524    2.4591 H   0  0  0  0  0  0  0  0  0  0  0  0
    4.3772    3.6467    1.6231 H   0  0  0  0  0  0  0  0  0  0  0  0
    4.9887    1.0496    0.5173 H   0  0  0  0  0  0  0  0  0  0  0  0
    3.9270    1.8563   -1.5767 H   0  0  0  0  0  0  0  0  0  0  0  0
    2.9677    3.0191   -0.6883 H   0  0  0  0  0  0  0  0  0  0  0  0
    6.6439    2.0209   -1.0576 H   0  0  0  0  0  0  0  0  0  0  0  0
    8.4306    3.6956   -1.4398 H   0  0  0  0  0  0  0  0  0  0  0  0
    5.5412    6.8537   -1.3621 H   0  0  0  0  0  0  0  0  0  0  0  0
    3.7256    5.2122   -0.9760 H   0  0  0  0  0  0  0  0  0  0  0  0
  1  2  2  0  0  0  0
  2  3  1  0  0  0  0
  2 14  1  0  0  0  0
  3  4  1  0  0  0  0
  3 27  1  0  0  0  0
  3 28  1  0  0  0  0
  4  5  1  0  0  0  0
  4 13  2  0  0  0  0
  5  6  2  0  0  0  0
  5 29  1  0  0  0  0
  6  7  1  0  0  0  0
  7  8  2  0  0  0  0
  7 30  1  0  0  0  0
  8  9  1  0  0  0  0
  8 13  1  0  0  0  0
  9 10  2  0  0  0  0
  9 31  1  0  0  0  0
 10 11  1  0  0  0  0
 10 32  1  0  0  0  0
 11 12  2  0  0  0  0
 11 33  1  0  0  0  0
 12 13  1  0  0  0  0
 12 34  1  0  0  0  0
 14 15  1  0  0  0  0
 14 18  1  0  0  0  0
 15 16  1  0  0  0  0
 15 35  1  0  0  0  0
 15 36  1  0  0  0  0
 16 17  1  0  0  0  0
 16 37  1  0  0  0  0
 16 38  1  0  0  0  0
 17 18  1  0  0  0  0
 17 39  1  0  0  0  0
 17 40  1  0  0  0  0
 18 19  1  0  0  0  0
 18 41  1  6  0  0  0
 19 20  1  0  0  0  0
 19 42  1  0  0  0  0
 19 43  1  0  0  0  0
 20 21  1  0  0  0  0
 20 26  2  0  0  0  0
 21 22  2  0  0  0  0
 21 44  1  0  0  0  0
 22 23  1  0  0  0  0
 22 45  1  0  0  0  0
 23 24  1  0  0  0  0
 23 25  2  0  0  0  0
 25 26  1  0  0  0  0
 25 46  1  0  0  0  0
 26 47  1  0  0  0  0
M  END
$$$$
