
 OpenBabel07202414183D

 61 66  0  0  1  0  0  0  0  0999 V2000
    0.9539   -0.0640    0.0328 Cl  0  0  0  0  0  0  0  0  0  0  0  0
    2.6731   -0.0432    0.1064 C   0  0  0  0  0  0  0  0  0  0  0  0
    3.3829   -1.2357    0.0473 C   0  0  0  0  0  0  0  0  0  0  0  0
    4.7768   -1.2081    0.0583 C   0  0  0  0  0  0  0  0  0  0  0  0
    5.4771    0.0121    0.1043 C   0  0  0  0  0  0  0  0  0  0  0  0
    4.7545    1.2228    0.1396 C   0  0  0  0  0  0  0  0  0  0  0  0
    3.3462    1.1748    0.1780 C   0  0  0  0  0  0  0  0  0  0  0  0
    5.4878    2.5633    0.0649 C   0  0  1  0  0  0  0  0  0  0  0  0
    6.9912    2.3657   -0.2710 C   0  0  0  0  0  0  0  0  0  0  0  0
    7.6943    1.2188    0.3036 N   0  0  0  0  0  0  0  0  0  0  0  0
    7.9763    1.3344    1.7376 C   0  0  0  0  0  0  0  0  0  0  0  0
    8.8133    2.5771    2.1173 C   0  0  0  0  0  0  0  0  0  0  0  0
    9.3774    3.3254    1.3192 O   0  0  0  0  0  0  0  0  0  0  0  0
    8.9519    2.8214    3.4593 N   0  0  0  0  0  0  0  0  0  0  0  0
    8.3963    1.9917    4.4949 C   0  0  0  0  0  0  0  0  0  0  0  0
    8.7842    2.4820    5.8430 C   0  0  0  0  0  0  0  0  0  0  0  0
   10.2263    2.6112    6.2639 C   0  0  0  0  0  0  0  0  0  0  0  0
    9.3791    1.5035    6.8239 C   0  0  0  0  0  0  0  0  0  0  0  0
    6.9901   -0.0275   -0.0151 C   0  0  0  0  0  0  0  0  0  0  0  0
    4.9430    3.4346   -1.0712 C   0  0  0  0  0  0  0  0  0  0  0  0
    4.2763    4.6082   -0.4229 C   0  0  0  0  0  0  0  0  0  0  0  0
    4.5522    4.5989    0.9787 N   0  0  0  0  0  0  0  0  0  0  0  0
    4.2498    5.7363    1.8230 C   0  0  0  0  0  0  0  0  0  0  0  0
    4.7718    5.7959    3.1220 C   0  0  0  0  0  0  0  0  0  0  0  0
    4.7707    6.8909    3.9212 N   0  0  0  0  0  0  0  0  0  0  0  0
    4.1514    7.9827    3.4407 C   0  0  0  0  0  0  0  0  0  0  0  0
    3.4387    8.0248    2.2491 C   0  0  0  0  0  0  0  0  0  0  0  0
    2.6855    9.1770    1.9362 C   0  0  0  0  0  0  0  0  0  0  0  0
    1.9163    9.2475    0.7799 C   0  0  0  0  0  0  0  0  0  0  0  0
    1.9339    8.1854   -0.0972 C   0  0  0  0  0  0  0  0  0  0  0  0
    2.6928    7.0498    0.2055 C   0  0  0  0  0  0  0  0  0  0  0  0
    3.4746    6.8921    1.3936 C   0  0  0  0  0  0  0  0  0  0  0  0
    5.2514    3.4295    1.3356 C   0  0  0  0  0  0  0  0  0  0  0  0
    5.5807    3.0946    2.4686 O   0  0  0  0  0  0  0  0  0  0  0  0
    2.8594   -2.1848   -0.0259 H   0  0  0  0  0  0  0  0  0  0  0  0
    5.3201   -2.1494   -0.0028 H   0  0  0  0  0  0  0  0  0  0  0  0
    2.7614    2.0903    0.2221 H   0  0  0  0  0  0  0  0  0  0  0  0
    7.5292    3.3049   -0.1065 H   0  0  0  0  0  0  0  0  0  0  0  0
    7.0758    2.2063   -1.3573 H   0  0  0  0  0  0  0  0  0  0  0  0
    8.5824    0.4725    2.0423 H   0  0  0  0  0  0  0  0  0  0  0  0
    7.0520    1.3037    2.3151 H   0  0  0  0  0  0  0  0  0  0  0  0
    9.5115    3.6312    3.6949 H   0  0  0  0  0  0  0  0  0  0  0  0
    8.7468    0.9680    4.3252 H   0  0  0  0  0  0  0  0  0  0  0  0
    7.3064    1.9931    4.3993 H   0  0  0  0  0  0  0  0  0  0  0  0
    8.0855    3.2233    6.2156 H   0  0  0  0  0  0  0  0  0  0  0  0
   10.4840    3.4334    6.9218 H   0  0  0  0  0  0  0  0  0  0  0  0
   10.9990    2.3555    5.5479 H   0  0  0  0  0  0  0  0  0  0  0  0
    9.0529    1.5663    7.8547 H   0  0  0  0  0  0  0  0  0  0  0  0
    9.5939    0.4934    6.4902 H   0  0  0  0  0  0  0  0  0  0  0  0
    7.3836   -0.8496    0.5983 H   0  0  0  0  0  0  0  0  0  0  0  0
    7.2261   -0.2888   -1.0562 H   0  0  0  0  0  0  0  0  0  0  0  0
    4.2402    2.9122   -1.7290 H   0  0  0  0  0  0  0  0  0  0  0  0
    5.7292    3.8135   -1.7352 H   0  0  0  0  0  0  0  0  0  0  0  0
    3.2015    4.4956   -0.5711 H   0  0  0  0  0  0  0  0  0  0  0  0
    4.6699    5.5371   -0.8632 H   0  0  0  0  0  0  0  0  0  0  0  0
    5.2540    4.9519    3.6022 H   0  0  0  0  0  0  0  0  0  0  0  0
    4.2330    8.8594    4.0805 H   0  0  0  0  0  0  0  0  0  0  0  0
    2.6624   10.0221    2.6215 H   0  0  0  0  0  0  0  0  0  0  0  0
    1.3025   10.1189    0.5721 H   0  0  0  0  0  0  0  0  0  0  0  0
    1.3481    8.2138   -1.0125 H   0  0  0  0  0  0  0  0  0  0  0  0
    2.5989    6.2765   -0.5380 H   0  0  0  0  0  0  0  0  0  0  0  0
  1  2  1  0  0  0  0
  2  3  1  0  0  0  0
  2  7  2  0  0  0  0
  3  4  2  0  0  0  0
  3 35  1  0  0  0  0
  4  5  1  0  0  0  0
  4 36  1  0  0  0  0
  5  6  2  0  0  0  0
  5 19  1  0  0  0  0
  6  7  1  0  0  0  0
  7 37  1  0  0  0  0
  8  6  1  1  0  0  0
  8  9  1  0  0  0  0
  8 20  1  0  0  0  0
  8 33  1  0  0  0  0
  9 10  1  0  0  0  0
  9 38  1  0  0  0  0
  9 39  1  0  0  0  0
 10 11  1  0  0  0  0
 10 19  1  0  0  0  0
 11 12  1  0  0  0  0
 11 40  1  0  0  0  0
 11 41  1  0  0  0  0
 12 13  2  0  0  0  0
 12 14  1  0  0  0  0
 14 15  1  0  0  0  0
 14 42  1  0  0  0  0
 15 16  1  0  0  0  0
 15 43  1  0  0  0  0
 15 44  1  0  0  0  0
 16 17  1  0  0  0  0
 16 18  1  0  0  0  0
 16 45  1  0  0  0  0
 17 18  1  0  0  0  0
 17 46  1  0  0  0  0
 17 47  1  0  0  0  0
 18 48  1  0  0  0  0
 18 49  1  0  0  0  0
 19 50  1  0  0  0  0
 19 51  1  0  0  0  0
 20 21  1  0  0  0  0
 20 52  1  0  0  0  0
 20 53  1  0  0  0  0
 21 22  1  0  0  0  0
 21 54  1  0  0  0  0
 21 55  1  0  0  0  0
 22 23  1  0  0  0  0
 22 33  1  0  0  0  0
 23 24  1  0  0  0  0
 23 32  2  0  0  0  0
 24 25  2  0  0  0  0
 24 56  1  0  0  0  0
 25 26  1  0  0  0  0
 26 27  2  0  0  0  0
 26 57  1  0  0  0  0
 27 28  1  0  0  0  0
 27 32  1  0  0  0  0
 28 29  2  0  0  0  0
 28 58  1  0  0  0  0
 29 30  1  0  0  0  0
 29 59  1  0  0  0  0
 30 31  2  0  0  0  0
 30 60  1  0  0  0  0
 31 32  1  0  0  0  0
 31 61  1  0  0  0  0
 33 34  2  0  0  0  0
M  END
$$$$
