
 OpenBabel07202414173D

 34 35  0  0  0  0  0  0  0  0999 V2000
    0.9013   -0.3679   -0.2739 Cl  0  0  0  0  0  0  0  0  0  0  0  0
    2.6513   -0.4608   -0.5487 C   0  0  0  0  0  0  0  0  0  0  0  0
    3.2148    0.8294   -1.1300 C   0  0  0  0  0  0  0  0  0  0  0  0
    2.5081    1.7841   -1.4456 O   0  0  0  0  0  0  0  0  0  0  0  0
    4.6033    0.8819   -1.2682 N   0  0  0  0  0  0  0  0  0  0  0  0
    5.5286   -0.2343   -1.0053 C   0  0  0  0  0  0  0  0  0  0  0  0
    6.7852    0.2437   -0.2445 C   0  0  0  0  0  0  0  0  0  0  0  0
    7.4544    1.3931   -0.9431 N   0  0  0  0  0  0  0  0  0  0  0  0
    8.3314    1.0337   -2.3762 S   0  0  0  0  0  0  0  0  0  0  0  0
    7.7777   -0.1576   -2.9708 O   0  0  0  0  0  0  0  0  0  0  0  0
    8.4261    2.2604   -3.1533 O   0  0  0  0  0  0  0  0  0  0  0  0
    9.9877    0.6373   -1.8527 C   0  0  0  0  0  0  0  0  0  0  0  0
   10.3328   -0.6921   -1.5804 C   0  0  0  0  0  0  0  0  0  0  0  0
   11.6730   -1.0319   -1.3621 C   0  0  0  0  0  0  0  0  0  0  0  0
   12.6683   -0.0574   -1.4530 C   0  0  0  0  0  0  0  0  0  0  0  0
   12.3299    1.2598   -1.7614 C   0  0  0  0  0  0  0  0  0  0  0  0
   10.9901    1.6107   -1.9554 C   0  0  0  0  0  0  0  0  0  0  0  0
    6.4606    2.5197   -1.0958 C   0  0  0  0  0  0  0  0  0  0  0  0
    5.2201    2.0681   -1.8850 C   0  0  0  0  0  0  0  0  0  0  0  0
    2.8402   -1.2894   -1.2360 H   0  0  0  0  0  0  0  0  0  0  0  0
    3.1114   -0.6553    0.4230 H   0  0  0  0  0  0  0  0  0  0  0  0
    5.7691   -0.6731   -1.9764 H   0  0  0  0  0  0  0  0  0  0  0  0
    5.0458   -1.0274   -0.4315 H   0  0  0  0  0  0  0  0  0  0  0  0
    7.4854   -0.5727   -0.0594 H   0  0  0  0  0  0  0  0  0  0  0  0
    6.4621    0.6054    0.7419 H   0  0  0  0  0  0  0  0  0  0  0  0
    9.5789   -1.4756   -1.5862 H   0  0  0  0  0  0  0  0  0  0  0  0
   11.9466   -2.0632   -1.1562 H   0  0  0  0  0  0  0  0  0  0  0  0
   13.7106   -0.3311   -1.3089 H   0  0  0  0  0  0  0  0  0  0  0  0
   13.1101    2.0087   -1.8796 H   0  0  0  0  0  0  0  0  0  0  0  0
   10.7457    2.6341   -2.2379 H   0  0  0  0  0  0  0  0  0  0  0  0
    6.9323    3.3909   -1.5574 H   0  0  0  0  0  0  0  0  0  0  0  0
    6.1587    2.8375   -0.0909 H   0  0  0  0  0  0  0  0  0  0  0  0
    5.4840    1.7996   -2.9126 H   0  0  0  0  0  0  0  0  0  0  0  0
    4.5071    2.8967   -1.9366 H   0  0  0  0  0  0  0  0  0  0  0  0
  1  2  1  0  0  0  0
  2  3  1  0  0  0  0
  2 20  1  0  0  0  0
  2 21  1  0  0  0  0
  3  4  2  0  0  0  0
  3  5  1  0  0  0  0
  5  6  1  0  0  0  0
  5 19  1  0  0  0  0
  6  7  1  0  0  0  0
  6 22  1  0  0  0  0
  6 23  1  0  0  0  0
  7  8  1  0  0  0  0
  7 24  1  0  0  0  0
  7 25  1  0  0  0  0
  8  9  1  0  0  0  0
  8 18  1  0  0  0  0
  9 10  2  0  0  0  0
  9 11  2  0  0  0  0
  9 12  1  0  0  0  0
 12 13  1  0  0  0  0
 12 17  2  0  0  0  0
 13 14  2  0  0  0  0
 13 26  1  0  0  0  0
 14 15  1  0  0  0  0
 14 27  1  0  0  0  0
 15 16  2  0  0  0  0
 15 28  1  0  0  0  0
 16 17  1  0  0  0  0
 16 29  1  0  0  0  0
 17 30  1  0  0  0  0
 18 19  1  0  0  0  0
 18 31  1  0  0  0  0
 18 32  1  0  0  0  0
 19 33  1  0  0  0  0
 19 34  1  0  0  0  0
M  END
$$$$
