
 OpenBabel07202414153D

 47 49  0  0  0  0  0  0  0  0999 V2000
    2.3552   -3.5058   -0.3214 C   0  0  0  0  0  0  0  0  0  0  0  0
    2.3750   -2.2861    0.4097 O   0  0  0  0  0  0  0  0  0  0  0  0
    2.1792   -1.1279   -0.2920 C   0  0  0  0  0  0  0  0  0  0  0  0
    1.4523   -1.1034   -1.4931 C   0  0  0  0  0  0  0  0  0  0  0  0
    1.2034    0.0990   -2.1576 C   0  0  0  0  0  0  0  0  0  0  0  0
    1.6726    1.2898   -1.6206 C   0  0  0  0  0  0  0  0  0  0  0  0
    1.3337    2.7762   -2.4166 Cl  0  0  0  0  0  0  0  0  0  0  0  0
    2.4011    1.2843   -0.4342 C   0  0  0  0  0  0  0  0  0  0  0  0
    2.6635    0.0816    0.2421 C   0  0  0  0  0  0  0  0  0  0  0  0
    3.3845    0.2791    1.3957 O   0  0  0  0  0  0  0  0  0  0  0  0
    3.7193   -0.8581    2.1974 C   0  0  0  0  0  0  0  0  0  0  0  0
    4.5625   -0.4142    3.3931 C   0  0  0  0  0  0  0  0  0  0  0  0
    3.8328    0.4780    4.2770 N   0  0  0  0  0  0  0  0  0  0  0  0
    3.8458    0.3495    5.6346 C   0  0  0  0  0  0  0  0  0  0  0  0
    4.4594   -0.5602    6.1915 O   0  0  0  0  0  0  0  0  0  0  0  0
    3.1774    1.4384    6.4247 C   0  0  0  0  0  0  0  0  0  0  0  0
    3.7904    1.5957    7.6183 C   0  0  0  0  0  0  0  0  0  0  0  0
    3.4883    2.6978    8.5352 C   0  0  0  0  0  0  0  0  0  0  0  0
    4.0296    2.7952    9.6257 O   0  0  0  0  0  0  0  0  0  0  0  0
    2.6131    3.6305    8.0755 N   0  0  0  0  0  0  0  0  0  0  0  0
    1.9059    3.5155    6.8695 C   0  0  0  0  0  0  0  0  0  0  0  0
    0.9903    4.5308    6.5948 C   0  0  0  0  0  0  0  0  0  0  0  0
    0.1853    4.4475    5.4801 C   0  0  0  0  0  0  0  0  0  0  0  0
    0.2866    3.3329    4.6562 C   0  0  0  0  0  0  0  0  0  0  0  0
    1.2225    2.3078    4.9081 C   0  0  0  0  0  0  0  0  0  0  0  0
    1.2645    1.1859    4.1155 O   0  0  0  0  0  0  0  0  0  0  0  0
    0.6079    1.2640    2.8464 C   0  0  0  0  0  0  0  0  0  0  0  0
    2.0938    2.3943    6.0207 C   0  0  0  0  0  0  0  0  0  0  0  0
    2.6960   -4.3000    0.3497 H   0  0  0  0  0  0  0  0  0  0  0  0
    3.0421   -3.4663   -1.1732 H   0  0  0  0  0  0  0  0  0  0  0  0
    1.3395   -3.7592   -0.6395 H   0  0  0  0  0  0  0  0  0  0  0  0
    1.0425   -2.0094   -1.9282 H   0  0  0  0  0  0  0  0  0  0  0  0
    0.6334    0.0946   -3.0831 H   0  0  0  0  0  0  0  0  0  0  0  0
    2.7628    2.2218   -0.0181 H   0  0  0  0  0  0  0  0  0  0  0  0
    4.3233   -1.5577    1.6088 H   0  0  0  0  0  0  0  0  0  0  0  0
    2.8067   -1.3356    2.5704 H   0  0  0  0  0  0  0  0  0  0  0  0
    5.4433    0.1420    3.0538 H   0  0  0  0  0  0  0  0  0  0  0  0
    4.9046   -1.2962    3.9436 H   0  0  0  0  0  0  0  0  0  0  0  0
    3.3124    1.2372    3.8554 H   0  0  0  0  0  0  0  0  0  0  0  0
    4.5964    0.9538    7.9689 H   0  0  0  0  0  0  0  0  0  0  0  0
    2.4355    4.4016    8.7045 H   0  0  0  0  0  0  0  0  0  0  0  0
    0.8891    5.3896    7.2614 H   0  0  0  0  0  0  0  0  0  0  0  0
   -0.5421    5.2252    5.2629 H   0  0  0  0  0  0  0  0  0  0  0  0
   -0.4065    3.2959    3.8246 H   0  0  0  0  0  0  0  0  0  0  0  0
    0.7029    0.2974    2.3467 H   0  0  0  0  0  0  0  0  0  0  0  0
    1.0830    2.0293    2.2227 H   0  0  0  0  0  0  0  0  0  0  0  0
   -0.4669    1.4503    2.9407 H   0  0  0  0  0  0  0  0  0  0  0  0
  1  2  1  0  0  0  0
  1 29  1  0  0  0  0
  1 30  1  0  0  0  0
  1 31  1  0  0  0  0
  2  3  1  0  0  0  0
  3  4  1  0  0  0  0
  3  9  2  0  0  0  0
  4  5  2  0  0  0  0
  4 32  1  0  0  0  0
  5  6  1  0  0  0  0
  5 33  1  0  0  0  0
  6  7  1  0  0  0  0
  6  8  2  0  0  0  0
  8  9  1  0  0  0  0
  8 34  1  0  0  0  0
  9 10  1  0  0  0  0
 10 11  1  0  0  0  0
 11 12  1  0  0  0  0
 11 35  1  0  0  0  0
 11 36  1  0  0  0  0
 12 13  1  0  0  0  0
 12 37  1  0  0  0  0
 12 38  1  0  0  0  0
 13 14  1  0  0  0  0
 13 39  1  0  0  0  0
 14 15  2  0  0  0  0
 14 16  1  0  0  0  0
 16 17  2  0  0  0  0
 16 28  1  0  0  0  0
 17 18  1  0  0  0  0
 17 40  1  0  0  0  0
 18 19  2  0  0  0  0
 18 20  1  0  0  0  0
 20 21  1  0  0  0  0
 20 41  1  0  0  0  0
 21 22  1  0  0  0  0
 21 28  2  0  0  0  0
 22 23  2  0  0  0  0
 22 42  1  0  0  0  0
 23 24  1  0  0  0  0
 23 43  1  0  0  0  0
 24 25  2  0  0  0  0
 24 44  1  0  0  0  0
 25 26  1  0  0  0  0
 25 28  1  0  0  0  0
 26 27  1  0  0  0  0
 27 45  1  0  0  0  0
 27 46  1  0  0  0  0
 27 47  1  0  0  0  0
M  END
$$$$
