
 OpenBabel07202414193D

 44 47  0  0  1  0  0  0  0  0999 V2000
    1.1818    0.3705    0.1621 O   0  0  0  0  0  0  0  0  0  0  0  0
    2.2989    0.0787   -0.2760 C   0  0  0  0  0  0  0  0  0  0  0  0
    2.8506   -1.3337   -0.1016 C   0  0  0  0  0  0  0  0  0  0  0  0
    3.6921   -1.5201    1.1485 C   0  0  0  0  0  0  0  0  0  0  0  0
    3.3731   -0.8084    2.3097 C   0  0  0  0  0  0  0  0  0  0  0  0
    4.0530   -0.8797    3.4732 N   0  0  0  0  0  0  0  0  0  0  0  0
    5.1131   -1.7123    3.4955 C   0  0  0  0  0  0  0  0  0  0  0  0
    5.5163   -2.5105    2.4275 C   0  0  0  0  0  0  0  0  0  0  0  0
    6.6210   -3.3740    2.5464 C   0  0  0  0  0  0  0  0  0  0  0  0
    6.9957   -4.1967    1.4890 C   0  0  0  0  0  0  0  0  0  0  0  0
    6.2647   -4.1701    0.3080 C   0  0  0  0  0  0  0  0  0  0  0  0
    5.1727   -3.3049    0.1766 C   0  0  0  0  0  0  0  0  0  0  0  0
    4.7758   -2.4383    1.2233 C   0  0  0  0  0  0  0  0  0  0  0  0
    3.1014    1.0222   -0.8712 N   0  0  0  0  0  0  0  0  0  0  0  0
    2.7450    2.4297   -0.8668 C   0  0  0  0  0  0  0  0  0  0  0  0
    4.0306    3.1939   -1.1877 C   0  0  0  0  0  0  0  0  0  0  0  0
    5.1636    2.1557   -1.1266 C   0  0  1  0  0  0  0  0  0  0  0  0
    6.0252    2.4289   -2.1544 F   0  0  0  0  0  0  0  0  0  0  0  0
    5.8941    2.0093    0.1994 C   0  0  0  0  0  0  0  0  0  0  0  0
    5.2872    2.2581    1.4390 C   0  0  0  0  0  0  0  0  0  0  0  0
    5.9535    1.9688    2.6308 C   0  0  0  0  0  0  0  0  0  0  0  0
    7.2369    1.4313    2.6038 C   0  0  0  0  0  0  0  0  0  0  0  0
    7.8647    1.1980    1.3842 C   0  0  0  0  0  0  0  0  0  0  0  0
    7.2002    1.4881    0.1918 C   0  0  0  0  0  0  0  0  0  0  0  0
    4.4302    0.8424   -1.4402 C   0  0  0  0  0  0  0  0  0  0  0  0
    3.4037   -1.5875   -1.0106 H   0  0  0  0  0  0  0  0  0  0  0  0
    2.0014   -2.0268   -0.0591 H   0  0  0  0  0  0  0  0  0  0  0  0
    2.5264   -0.1252    2.3481 H   0  0  0  0  0  0  0  0  0  0  0  0
    5.6445   -1.7300    4.4433 H   0  0  0  0  0  0  0  0  0  0  0  0
    7.1908   -3.4151    3.4723 H   0  0  0  0  0  0  0  0  0  0  0  0
    7.8480   -4.8646    1.5916 H   0  0  0  0  0  0  0  0  0  0  0  0
    6.5400   -4.8263   -0.5142 H   0  0  0  0  0  0  0  0  0  0  0  0
    4.6246   -3.3361   -0.7617 H   0  0  0  0  0  0  0  0  0  0  0  0
    2.3246    2.7122    0.1041 H   0  0  0  0  0  0  0  0  0  0  0  0
    1.9813    2.5997   -1.6338 H   0  0  0  0  0  0  0  0  0  0  0  0
    4.1802    4.0410   -0.5110 H   0  0  0  0  0  0  0  0  0  0  0  0
    3.9616    3.6134   -2.1997 H   0  0  0  0  0  0  0  0  0  0  0  0
    4.2729    2.6404    1.5087 H   0  0  0  0  0  0  0  0  0  0  0  0
    5.4513    2.1292    3.5819 H   0  0  0  0  0  0  0  0  0  0  0  0
    7.7385    1.1822    3.5344 H   0  0  0  0  0  0  0  0  0  0  0  0
    8.8640    0.7717    1.3602 H   0  0  0  0  0  0  0  0  0  0  0  0
    7.6991    1.2778   -0.7537 H   0  0  0  0  0  0  0  0  0  0  0  0
    4.9384   -0.0452   -1.0615 H   0  0  0  0  0  0  0  0  0  0  0  0
    4.3013    0.7238   -2.5229 H   0  0  0  0  0  0  0  0  0  0  0  0
  1  2  2  0  0  0  0
  2  3  1  0  0  0  0
  2 14  1  0  0  0  0
  3  4  1  0  0  0  0
  3 26  1  0  0  0  0
  3 27  1  0  0  0  0
  4  5  1  0  0  0  0
  4 13  2  0  0  0  0
  5  6  2  0  0  0  0
  5 28  1  0  0  0  0
  6  7  1  0  0  0  0
  7  8  2  0  0  0  0
  7 29  1  0  0  0  0
  8  9  1  0  0  0  0
  8 13  1  0  0  0  0
  9 10  2  0  0  0  0
  9 30  1  0  0  0  0
 10 11  1  0  0  0  0
 10 31  1  0  0  0  0
 11 12  2  0  0  0  0
 11 32  1  0  0  0  0
 12 13  1  0  0  0  0
 12 33  1  0  0  0  0
 14 15  1  0  0  0  0
 14 25  1  0  0  0  0
 15 16  1  0  0  0  0
 15 34  1  0  0  0  0
 15 35  1  0  0  0  0
 16 17  1  0  0  0  0
 16 36  1  0  0  0  0
 16 37  1  0  0  0  0
 17 18  1  6  0  0  0
 17 19  1  0  0  0  0
 17 25  1  0  0  0  0
 19 20  1  0  0  0  0
 19 24  2  0  0  0  0
 20 21  2  0  0  0  0
 20 38  1  0  0  0  0
 21 22  1  0  0  0  0
 21 39  1  0  0  0  0
 22 23  2  0  0  0  0
 22 40  1  0  0  0  0
 23 24  1  0  0  0  0
 23 41  1  0  0  0  0
 24 42  1  0  0  0  0
 25 43  1  0  0  0  0
 25 44  1  0  0  0  0
M  END
$$$$
