
 OpenBabel07202414123D

 62 65  0  0  0  0  0  0  0  0999 V2000
    2.8196   -3.5293   -1.6525 C   0  0  0  0  0  0  0  0  0  0  0  0
    2.3915   -2.0614   -1.6831 C   0  0  0  0  0  0  0  0  0  0  0  0
    0.8654   -1.9602   -1.6766 C   0  0  0  0  0  0  0  0  0  0  0  0
    2.9866   -1.2750   -0.4994 C   0  0  0  0  0  0  0  0  0  0  0  0
    4.4515   -1.2686   -0.4824 N   0  0  0  0  0  0  0  0  0  0  0  0
    5.0950   -1.8685    0.5829 C   0  0  0  0  0  0  0  0  0  0  0  0
    6.4242   -1.9195    0.7522 C   0  0  0  0  0  0  0  0  0  0  0  0
    7.2664   -1.3669   -0.3481 C   0  0  0  0  0  0  0  0  0  0  0  0
    8.6706   -1.4711   -0.3949 C   0  0  0  0  0  0  0  0  0  0  0  0
    9.4013   -0.9717   -1.4847 C   0  0  0  0  0  0  0  0  0  0  0  0
    8.7530   -0.3397   -2.5418 C   0  0  0  0  0  0  0  0  0  0  0  0
    7.3700   -0.2098   -2.5129 C   0  0  0  0  0  0  0  0  0  0  0  0
    6.6351   -0.7251   -1.4326 C   0  0  0  0  0  0  0  0  0  0  0  0
    5.1562   -0.6088   -1.4855 C   0  0  0  0  0  0  0  0  0  0  0  0
    4.6188    0.0184   -2.3906 O   0  0  0  0  0  0  0  0  0  0  0  0
    7.0161   -2.4783    1.8835 N   0  0  0  0  0  0  0  0  0  0  0  0
    6.3645   -3.0453    2.9621 C   0  0  0  0  0  0  0  0  0  0  0  0
    5.1439   -3.1516    3.0593 O   0  0  0  0  0  0  0  0  0  0  0  0
    7.1799   -3.5596    3.9614 N   0  0  0  0  0  0  0  0  0  0  0  0
    6.5081   -4.3573    4.9919 C   0  0  0  0  0  0  0  0  0  0  0  0
    6.4149   -3.5594    6.2876 C   0  0  0  0  0  0  0  0  0  0  0  0
    7.8210   -3.1748    6.7849 C   0  0  0  0  0  0  0  0  0  0  0  0
    8.4967   -2.3458    5.6720 C   0  0  0  0  0  0  0  0  0  0  0  0
    8.5153   -3.0697    4.3194 C   0  0  0  0  0  0  0  0  0  0  0  0
    8.6451   -4.4233    7.2023 C   0  0  0  0  0  0  0  0  0  0  0  0
   10.0229   -4.1073    7.7369 C   0  0  0  0  0  0  0  0  0  0  0  0
   10.1899   -3.2800    8.8539 C   0  0  0  0  0  0  0  0  0  0  0  0
   11.4681   -2.9053    9.2710 C   0  0  0  0  0  0  0  0  0  0  0  0
   12.5924   -3.3889    8.6051 C   0  0  0  0  0  0  0  0  0  0  0  0
   12.4407   -4.2709    7.5382 C   0  0  0  0  0  0  0  0  0  0  0  0
   11.1627   -4.6269    7.1042 C   0  0  0  0  0  0  0  0  0  0  0  0
    2.4034   -4.0694   -2.5091 H   0  0  0  0  0  0  0  0  0  0  0  0
    2.4769   -4.0241   -0.7378 H   0  0  0  0  0  0  0  0  0  0  0  0
    3.9087   -3.6262   -1.7047 H   0  0  0  0  0  0  0  0  0  0  0  0
    2.7458   -1.6281   -2.6246 H   0  0  0  0  0  0  0  0  0  0  0  0
    0.4405   -2.3535   -0.7470 H   0  0  0  0  0  0  0  0  0  0  0  0
    0.4379   -2.5277   -2.5102 H   0  0  0  0  0  0  0  0  0  0  0  0
    0.5440   -0.9188   -1.7837 H   0  0  0  0  0  0  0  0  0  0  0  0
    2.6016   -1.6932    0.4417 H   0  0  0  0  0  0  0  0  0  0  0  0
    2.6575   -0.2292   -0.5343 H   0  0  0  0  0  0  0  0  0  0  0  0
    4.4106   -2.2940    1.3023 H   0  0  0  0  0  0  0  0  0  0  0  0
    9.2360   -1.9541    0.3948 H   0  0  0  0  0  0  0  0  0  0  0  0
   10.4838   -1.0836   -1.5117 H   0  0  0  0  0  0  0  0  0  0  0  0
    9.3160    0.0388   -3.3904 H   0  0  0  0  0  0  0  0  0  0  0  0
    6.8578    0.2787   -3.3394 H   0  0  0  0  0  0  0  0  0  0  0  0
    8.0167   -2.5516    1.8892 H   0  0  0  0  0  0  0  0  0  0  0  0
    7.0727   -5.2853    5.1204 H   0  0  0  0  0  0  0  0  0  0  0  0
    5.5054   -4.6661    4.6778 H   0  0  0  0  0  0  0  0  0  0  0  0
    5.8626   -4.1179    7.0499 H   0  0  0  0  0  0  0  0  0  0  0  0
    5.8441   -2.6386    6.0953 H   0  0  0  0  0  0  0  0  0  0  0  0
    7.6941   -2.5289    7.6631 H   0  0  0  0  0  0  0  0  0  0  0  0
    9.5135   -2.0573    5.9566 H   0  0  0  0  0  0  0  0  0  0  0  0
    7.9341   -1.4088    5.5566 H   0  0  0  0  0  0  0  0  0  0  0  0
    9.1881   -3.9327    4.3480 H   0  0  0  0  0  0  0  0  0  0  0  0
    8.9028   -2.3725    3.5737 H   0  0  0  0  0  0  0  0  0  0  0  0
    8.7608   -5.1045    6.3526 H   0  0  0  0  0  0  0  0  0  0  0  0
    8.0975   -4.9924    7.9643 H   0  0  0  0  0  0  0  0  0  0  0  0
    9.3253   -2.9082    9.3984 H   0  0  0  0  0  0  0  0  0  0  0  0
   11.5859   -2.2294   10.1138 H   0  0  0  0  0  0  0  0  0  0  0  0
   13.5861   -3.0847    8.9230 H   0  0  0  0  0  0  0  0  0  0  0  0
   13.3175   -4.6746    7.0385 H   0  0  0  0  0  0  0  0  0  0  0  0
   11.0663   -5.3069    6.2605 H   0  0  0  0  0  0  0  0  0  0  0  0
  1  2  1  0  0  0  0
  1 32  1  0  0  0  0
  1 33  1  0  0  0  0
  1 34  1  0  0  0  0
  2  3  1  0  0  0  0
  2  4  1  0  0  0  0
  2 35  1  0  0  0  0
  3 36  1  0  0  0  0
  3 37  1  0  0  0  0
  3 38  1  0  0  0  0
  4  5  1  0  0  0  0
  4 39  1  0  0  0  0
  4 40  1  0  0  0  0
  5  6  1  0  0  0  0
  5 14  1  0  0  0  0
  6  7  2  0  0  0  0
  6 41  1  0  0  0  0
  7  8  1  0  0  0  0
  7 16  1  0  0  0  0
  8  9  1  0  0  0  0
  8 13  2  0  0  0  0
  9 10  2  0  0  0  0
  9 42  1  0  0  0  0
 10 11  1  0  0  0  0
 10 43  1  0  0  0  0
 11 12  2  0  0  0  0
 11 44  1  0  0  0  0
 12 13  1  0  0  0  0
 12 45  1  0  0  0  0
 13 14  1  0  0  0  0
 14 15  2  0  0  0  0
 16 17  1  0  0  0  0
 16 46  1  0  0  0  0
 17 18  2  0  0  0  0
 17 19  1  0  0  0  0
 19 20  1  0  0  0  0
 19 24  1  0  0  0  0
 20 21  1  0  0  0  0
 20 47  1  0  0  0  0
 20 48  1  0  0  0  0
 21 22  1  0  0  0  0
 21 49  1  0  0  0  0
 21 50  1  0  0  0  0
 22 23  1  0  0  0  0
 22 25  1  0  0  0  0
 22 51  1  0  0  0  0
 23 24  1  0  0  0  0
 23 52  1  0  0  0  0
 23 53  1  0  0  0  0
 24 54  1  0  0  0  0
 24 55  1  0  0  0  0
 25 26  1  0  0  0  0
 25 56  1  0  0  0  0
 25 57  1  0  0  0  0
 26 27  1  0  0  0  0
 26 31  2  0  0  0  0
 27 28  2  0  0  0  0
 27 58  1  0  0  0  0
 28 29  1  0  0  0  0
 28 59  1  0  0  0  0
 29 30  2  0  0  0  0
 29 60  1  0  0  0  0
 30 31  1  0  0  0  0
 30 61  1  0  0  0  0
 31 62  1  0  0  0  0
M  END
$$$$
