
 OpenBabel07202414143D

 73 78  0  0  1  0  0  0  0  0999 V2000
    0.6572   -1.2319   -1.7895 C   0  0  0  0  0  0  0  0  0  0  0  0
    2.1031   -1.2742   -1.7582 N   0  0  0  0  0  0  0  0  0  0  0  0
    2.7508   -0.8061   -0.6479 C   0  0  0  0  0  0  0  0  0  0  0  0
    2.2089   -0.3474    0.3450 O   0  0  0  0  0  0  0  0  0  0  0  0
    4.2576   -0.8909   -0.7373 C   0  0  0  0  0  0  0  0  0  0  0  0
    4.7705   -2.2941   -0.8437 N   0  0  3  0  0  0  0  0  0  0  0  0
    4.4412   -3.1648    0.2945 C   0  0  0  0  0  0  0  0  0  0  0  0
    5.5142   -3.2899    1.3592 C   0  0  0  0  0  0  0  0  0  0  0  0
    5.1471   -3.7928    2.6240 C   0  0  0  0  0  0  0  0  0  0  0  0
    6.0944   -4.0013    3.6260 C   0  0  0  0  0  0  0  0  0  0  0  0
    7.4326   -3.7472    3.3618 C   0  0  0  0  0  0  0  0  0  0  0  0
    8.6276   -4.0048    4.5724 Cl  0  0  0  0  0  0  0  0  0  0  0  0
    7.8169   -3.2731    2.1126 C   0  0  0  0  0  0  0  0  0  0  0  0
    6.8703   -3.0130    1.0958 C   0  0  0  0  0  0  0  0  0  0  0  0
    7.3039   -2.4054   -0.2551 C   0  0  3  0  0  0  0  0  0  0  0  0
    8.4792   -3.2047   -0.8669 C   0  0  0  0  0  0  0  0  0  0  0  0
    9.7095   -2.3402   -0.7002 C   0  0  0  0  0  0  0  0  0  0  0  0
    9.3679   -1.3631    0.2926 N   0  0  0  0  0  0  0  0  0  0  0  0
   10.2850   -0.4664    0.9267 C   0  0  0  0  0  0  0  0  0  0  0  0
    9.8843    0.7954    1.3701 C   0  0  0  0  0  0  0  0  0  0  0  0
   10.7376    1.8271    1.5468 N   0  0  0  0  0  0  0  0  0  0  0  0
   12.0412    1.5477    1.4154 C   0  0  0  0  0  0  0  0  0  0  0  0
   12.5611    0.2565    1.4015 C   0  0  0  0  0  0  0  0  0  0  0  0
   13.9194   -0.0462    1.6582 C   0  0  0  0  0  0  0  0  0  0  0  0
   14.3960   -1.3553    1.5222 C   0  0  0  0  0  0  0  0  0  0  0  0
   13.5214   -2.3641    1.1499 C   0  0  0  0  0  0  0  0  0  0  0  0
   14.0150   -3.6062    0.8364 O   0  0  0  0  0  0  0  0  0  0  0  0
   13.2343   -4.2945   -0.1735 C   0  0  0  0  0  0  0  0  0  0  0  0
   14.1314   -5.2578   -0.9652 C   0  0  0  0  0  0  0  0  0  0  0  0
   13.4532   -6.0267   -2.0330 N   0  0  0  0  0  0  0  0  0  0  0  0
   12.8543   -5.1763   -3.0642 C   0  0  0  0  0  0  0  0  0  0  0  0
   14.4235   -6.9334   -2.6624 C   0  0  0  0  0  0  0  0  0  0  0  0
   12.1622   -2.0842    1.1141 C   0  0  0  0  0  0  0  0  0  0  0  0
   11.6502   -0.7790    1.1321 C   0  0  0  0  0  0  0  0  0  0  0  0
    8.0249   -1.0364    0.0042 C   0  0  0  0  0  0  0  0  0  0  0  0
    7.6141    0.1060   -0.0224 O   0  0  0  0  0  0  0  0  0  0  0  0
    6.1499   -2.5080   -1.2884 C   0  0  0  0  0  0  0  0  0  0  0  0
    5.0200    0.1326    0.0519 C   0  0  0  0  0  0  0  0  0  0  0  0
    4.9789    0.2268   -1.4547 C   0  0  0  0  0  0  0  0  0  0  0  0
    0.3118   -1.7717   -2.6762 H   0  0  0  0  0  0  0  0  0  0  0  0
    0.3415   -0.1888   -1.8330 H   0  0  0  0  0  0  0  0  0  0  0  0
    0.2551   -1.6956   -0.8844 H   0  0  0  0  0  0  0  0  0  0  0  0
    2.6323   -1.5548   -2.5482 H   0  0  0  0  0  0  0  0  0  0  0  0
    4.2635   -4.1754   -0.1000 H   0  0  0  0  0  0  0  0  0  0  0  0
    3.4977   -2.8618    0.7626 H   0  0  0  0  0  0  0  0  0  0  0  0
    4.1044   -4.0212    2.8396 H   0  0  0  0  0  0  0  0  0  0  0  0
    5.7912   -4.3634    4.6031 H   0  0  0  0  0  0  0  0  0  0  0  0
    8.8762   -3.1034    1.9509 H   0  0  0  0  0  0  0  0  0  0  0  0
    8.3440   -3.4241   -1.9344 H   0  0  0  0  0  0  0  0  0  0  0  0
    8.6099   -4.1748   -0.3724 H   0  0  0  0  0  0  0  0  0  0  0  0
    9.9170   -1.8016   -1.6348 H   0  0  0  0  0  0  0  0  0  0  0  0
   10.5453   -2.9890   -0.4868 H   0  0  0  0  0  0  0  0  0  0  0  0
    8.8469    1.0608    1.5511 H   0  0  0  0  0  0  0  0  0  0  0  0
   12.6721    2.4183    1.2730 H   0  0  0  0  0  0  0  0  0  0  0  0
   14.5954    0.7339    2.0039 H   0  0  0  0  0  0  0  0  0  0  0  0
   15.4396   -1.5815    1.7150 H   0  0  0  0  0  0  0  0  0  0  0  0
   12.7957   -3.5750   -0.8758 H   0  0  0  0  0  0  0  0  0  0  0  0
   12.4313   -4.8603    0.3155 H   0  0  0  0  0  0  0  0  0  0  0  0
   14.5531   -5.9647   -0.2388 H   0  0  0  0  0  0  0  0  0  0  0  0
   14.9824   -4.6947   -1.3718 H   0  0  0  0  0  0  0  0  0  0  0  0
   12.0302   -4.5809   -2.6588 H   0  0  0  0  0  0  0  0  0  0  0  0
   12.4094   -5.7880   -3.8590 H   0  0  0  0  0  0  0  0  0  0  0  0
   13.5853   -4.5011   -3.5228 H   0  0  0  0  0  0  0  0  0  0  0  0
   14.8418   -7.6250   -1.9229 H   0  0  0  0  0  0  0  0  0  0  0  0
   15.2500   -6.3857   -3.1309 H   0  0  0  0  0  0  0  0  0  0  0  0
   13.9420   -7.5492   -3.4308 H   0  0  0  0  0  0  0  0  0  0  0  0
   11.4820   -2.9233    1.1233 H   0  0  0  0  0  0  0  0  0  0  0  0
    6.1403   -3.5503   -1.6514 H   0  0  0  0  0  0  0  0  0  0  0  0
    6.3801   -1.9406   -2.1959 H   0  0  0  0  0  0  0  0  0  0  0  0
    5.7494   -0.3329    0.6862 H   0  0  0  0  0  0  0  0  0  0  0  0
    4.5751    0.9606    0.5762 H   0  0  0  0  0  0  0  0  0  0  0  0
    5.8633    0.0299   -2.0429 H   0  0  0  0  0  0  0  0  0  0  0  0
    4.3861    1.0340   -1.8741 H   0  0  0  0  0  0  0  0  0  0  0  0
  1  2  1  0  0  0  0
  1 40  1  0  0  0  0
  1 41  1  0  0  0  0
  1 42  1  0  0  0  0
  2  3  1  0  0  0  0
  2 43  1  0  0  0  0
  3  4  2  0  0  0  0
  3  5  1  0  0  0  0
  5  6  1  0  0  0  0
  5 38  1  0  0  0  0
  5 39  1  0  0  0  0
  6  7  1  0  0  0  0
  6 37  1  0  0  0  0
  7  8  1  0  0  0  0
  7 44  1  0  0  0  0
  7 45  1  0  0  0  0
  8  9  1  0  0  0  0
  8 14  2  0  0  0  0
  9 10  2  0  0  0  0
  9 46  1  0  0  0  0
 10 11  1  0  0  0  0
 10 47  1  0  0  0  0
 11 12  1  0  0  0  0
 11 13  2  0  0  0  0
 13 14  1  0  0  0  0
 13 48  1  0  0  0  0
 14 15  1  0  0  0  0
 15 16  1  0  0  0  0
 15 35  1  0  0  0  0
 15 37  1  0  0  0  0
 16 17  1  0  0  0  0
 16 49  1  0  0  0  0
 16 50  1  0  0  0  0
 17 18  1  0  0  0  0
 17 51  1  0  0  0  0
 17 52  1  0  0  0  0
 18 19  1  0  0  0  0
 18 35  1  0  0  0  0
 19 20  1  0  0  0  0
 19 34  2  0  0  0  0
 20 21  2  0  0  0  0
 20 53  1  0  0  0  0
 21 22  1  0  0  0  0
 22 23  2  0  0  0  0
 22 54  1  0  0  0  0
 23 24  1  0  0  0  0
 23 34  1  0  0  0  0
 24 25  2  0  0  0  0
 24 55  1  0  0  0  0
 25 26  1  0  0  0  0
 25 56  1  0  0  0  0
 26 27  1  0  0  0  0
 26 33  2  0  0  0  0
 27 28  1  0  0  0  0
 28 29  1  0  0  0  0
 28 57  1  0  0  0  0
 28 58  1  0  0  0  0
 29 30  1  0  0  0  0
 29 59  1  0  0  0  0
 29 60  1  0  0  0  0
 30 31  1  0  0  0  0
 30 32  1  0  0  0  0
 31 61  1  0  0  0  0
 31 62  1  0  0  0  0
 31 63  1  0  0  0  0
 32 64  1  0  0  0  0
 32 65  1  0  0  0  0
 32 66  1  0  0  0  0
 33 34  1  0  0  0  0
 33 67  1  0  0  0  0
 35 36  2  0  0  0  0
 37 68  1  0  0  0  0
 37 69  1  0  0  0  0
 38 39  1  0  0  0  0
 38 70  1  0  0  0  0
 38 71  1  0  0  0  0
 39 72  1  0  0  0  0
 39 73  1  0  0  0  0
M  END
$$$$
