
 OpenBabel07202414143D

 72 77  0  0  1  0  0  0  0  0999 V2000
    7.2633   -0.5124   -2.9297 C   0  0  0  0  0  0  0  0  0  0  0  0
    6.1461    0.2783   -2.4955 N   0  0  0  0  0  0  0  0  0  0  0  0
    5.5263    0.0119   -1.2944 C   0  0  0  0  0  0  0  0  0  0  0  0
    5.7951   -0.9397   -0.5794 O   0  0  0  0  0  0  0  0  0  0  0  0
    4.4774    1.0279   -0.8813 C   0  0  0  0  0  0  0  0  0  0  0  0
    4.9819    2.3986   -0.7133 N   0  0  0  0  0  0  0  0  0  0  0  0
    5.4660    2.7479    0.6101 C   0  0  0  0  0  0  0  0  0  0  0  0
    6.4986    3.8644    0.6793 C   0  0  3  0  0  0  0  0  0  0  0  0
    6.5048    4.3887    2.1369 C   0  0  0  0  0  0  0  0  0  0  0  0
    7.9051    4.1238    2.6350 C   0  0  0  0  0  0  0  0  0  0  0  0
    8.7149    4.0949    1.4471 N   0  0  0  0  0  0  0  0  0  0  0  0
   10.1301    4.3109    1.4599 C   0  0  0  0  0  0  0  0  0  0  0  0
   10.9645    3.6039    0.5952 C   0  0  0  0  0  0  0  0  0  0  0  0
   12.3118    3.5440    0.7129 N   0  0  0  0  0  0  0  0  0  0  0  0
   12.8701    4.2840    1.6856 C   0  0  0  0  0  0  0  0  0  0  0  0
   12.1736    5.1866    2.4845 C   0  0  0  0  0  0  0  0  0  0  0  0
   12.8492    6.0521    3.3666 C   0  0  0  0  0  0  0  0  0  0  0  0
   12.1486    6.9461    4.1766 C   0  0  0  0  0  0  0  0  0  0  0  0
   10.7679    6.9941    4.0931 C   0  0  0  0  0  0  0  0  0  0  0  0
   10.1023    7.7829    4.9981 O   0  0  0  0  0  0  0  0  0  0  0  0
    8.8940    7.1669    5.4939 C   0  0  0  0  0  0  0  0  0  0  0  0
    8.6163    7.6221    6.9382 C   0  0  0  0  0  0  0  0  0  0  0  0
    7.3568    7.1012    7.5186 N   0  0  0  0  0  0  0  0  0  0  0  0
    7.3410    5.6397    7.6220 C   0  0  0  0  0  0  0  0  0  0  0  0
    7.1545    7.6771    8.8544 C   0  0  0  0  0  0  0  0  0  0  0  0
   10.1156    6.2381    3.1153 C   0  0  0  0  0  0  0  0  0  0  0  0
   10.7668    5.2309    2.3564 C   0  0  0  0  0  0  0  0  0  0  0  0
    7.9622    3.4221    0.4550 C   0  0  0  0  0  0  0  0  0  0  0  0
    8.3562    2.7886   -0.5097 O   0  0  0  0  0  0  0  0  0  0  0  0
    6.2212    4.9623   -0.3538 C   0  0  0  0  0  0  0  0  0  0  0  0
    6.9161    6.1882   -0.2886 C   0  0  0  0  0  0  0  0  0  0  0  0
    6.7698    7.1454   -1.2885 C   0  0  0  0  0  0  0  0  0  0  0  0
    7.6918    8.5967   -1.2089 Cl  0  0  0  0  0  0  0  0  0  0  0  0
    5.9023    6.9230   -2.3446 C   0  0  0  0  0  0  0  0  0  0  0  0
    5.2187    5.7047   -2.4312 C   0  0  0  0  0  0  0  0  0  0  0  0
    5.3955    4.7089   -1.4547 C   0  0  0  0  0  0  0  0  0  0  0  0
    4.7976    3.3603   -1.7004 C   0  0  0  0  0  0  0  0  0  0  0  0
    4.2221    3.1384   -2.7634 O   0  0  0  0  0  0  0  0  0  0  0  0
    3.4177    0.5326    0.1127 C   0  0  0  0  0  0  0  0  0  0  0  0
    3.0377    0.7768   -1.3091 C   0  0  0  0  0  0  0  0  0  0  0  0
    7.5815   -0.1815   -3.9143 H   0  0  0  0  0  0  0  0  0  0  0  0
    6.9674   -1.5688   -2.9597 H   0  0  0  0  0  0  0  0  0  0  0  0
    8.0873   -0.3967   -2.2123 H   0  0  0  0  0  0  0  0  0  0  0  0
    5.9387    1.1658   -2.9436 H   0  0  0  0  0  0  0  0  0  0  0  0
    5.8272    1.8441    1.1127 H   0  0  0  0  0  0  0  0  0  0  0  0
    4.5556    3.0761    1.1349 H   0  0  0  0  0  0  0  0  0  0  0  0
    5.7899    3.8769    2.7922 H   0  0  0  0  0  0  0  0  0  0  0  0
    6.2610    5.4553    2.2019 H   0  0  0  0  0  0  0  0  0  0  0  0
    7.9599    3.1253    3.0898 H   0  0  0  0  0  0  0  0  0  0  0  0
    8.1737    4.8296    3.4113 H   0  0  0  0  0  0  0  0  0  0  0  0
   10.5875    3.0089   -0.2268 H   0  0  0  0  0  0  0  0  0  0  0  0
   13.9422    4.1362    1.8048 H   0  0  0  0  0  0  0  0  0  0  0  0
   13.9378    6.0376    3.4254 H   0  0  0  0  0  0  0  0  0  0  0  0
   12.6800    7.5949    4.8670 H   0  0  0  0  0  0  0  0  0  0  0  0
    8.9925    6.0746    5.4864 H   0  0  0  0  0  0  0  0  0  0  0  0
    8.0615    7.4615    4.8442 H   0  0  0  0  0  0  0  0  0  0  0  0
    8.5764    8.7193    6.9299 H   0  0  0  0  0  0  0  0  0  0  0  0
    9.4749    7.3572    7.5692 H   0  0  0  0  0  0  0  0  0  0  0  0
    7.3500    5.1716    6.6328 H   0  0  0  0  0  0  0  0  0  0  0  0
    6.4152    5.2979    8.1010 H   0  0  0  0  0  0  0  0  0  0  0  0
    8.1870    5.2549    8.2023 H   0  0  0  0  0  0  0  0  0  0  0  0
    7.1046    8.7699    8.8032 H   0  0  0  0  0  0  0  0  0  0  0  0
    7.9562    7.3976    9.5483 H   0  0  0  0  0  0  0  0  0  0  0  0
    6.2017    7.3406    9.2801 H   0  0  0  0  0  0  0  0  0  0  0  0
    9.0722    6.4721    2.9252 H   0  0  0  0  0  0  0  0  0  0  0  0
    7.6354    6.3828    0.5021 H   0  0  0  0  0  0  0  0  0  0  0  0
    5.7857    7.6681   -3.1268 H   0  0  0  0  0  0  0  0  0  0  0  0
    4.5752    5.5229   -3.2902 H   0  0  0  0  0  0  0  0  0  0  0  0
    3.0281    1.2110    0.8602 H   0  0  0  0  0  0  0  0  0  0  0  0
    3.4783   -0.4978    0.4524 H   0  0  0  0  0  0  0  0  0  0  0  0
    2.3972    1.6244   -1.5167 H   0  0  0  0  0  0  0  0  0  0  0  0
    2.8351   -0.0848   -1.9339 H   0  0  0  0  0  0  0  0  0  0  0  0
  1  2  1  0  0  0  0
  1 41  1  0  0  0  0
  1 42  1  0  0  0  0
  1 43  1  0  0  0  0
  2  3  1  0  0  0  0
  2 44  1  0  0  0  0
  3  4  2  0  0  0  0
  3  5  1  0  0  0  0
  5  6  1  0  0  0  0
  5 39  1  0  0  0  0
  5 40  1  0  0  0  0
  6  7  1  0  0  0  0
  6 37  1  0  0  0  0
  7  8  1  0  0  0  0
  7 45  1  0  0  0  0
  7 46  1  0  0  0  0
  8  9  1  0  0  0  0
  8 28  1  0  0  0  0
  8 30  1  0  0  0  0
  9 10  1  0  0  0  0
  9 47  1  0  0  0  0
  9 48  1  0  0  0  0
 10 11  1  0  0  0  0
 10 49  1  0  0  0  0
 10 50  1  0  0  0  0
 11 12  1  0  0  0  0
 11 28  1  0  0  0  0
 12 13  1  0  0  0  0
 12 27  2  0  0  0  0
 13 14  2  0  0  0  0
 13 51  1  0  0  0  0
 14 15  1  0  0  0  0
 15 16  2  0  0  0  0
 15 52  1  0  0  0  0
 16 17  1  0  0  0  0
 16 27  1  0  0  0  0
 17 18  2  0  0  0  0
 17 53  1  0  0  0  0
 18 19  1  0  0  0  0
 18 54  1  0  0  0  0
 19 20  1  0  0  0  0
 19 26  2  0  0  0  0
 20 21  1  0  0  0  0
 21 22  1  0  0  0  0
 21 55  1  0  0  0  0
 21 56  1  0  0  0  0
 22 23  1  0  0  0  0
 22 57  1  0  0  0  0
 22 58  1  0  0  0  0
 23 24  1  0  0  0  0
 23 25  1  0  0  0  0
 24 59  1  0  0  0  0
 24 60  1  0  0  0  0
 24 61  1  0  0  0  0
 25 62  1  0  0  0  0
 25 63  1  0  0  0  0
 25 64  1  0  0  0  0
 26 27  1  0  0  0  0
 26 65  1  0  0  0  0
 28 29  2  0  0  0  0
 30 31  1  0  0  0  0
 30 36  2  0  0  0  0
 31 32  2  0  0  0  0
 31 66  1  0  0  0  0
 32 33  1  0  0  0  0
 32 34  1  0  0  0  0
 34 35  2  0  0  0  0
 34 67  1  0  0  0  0
 35 36  1  0  0  0  0
 35 68  1  0  0  0  0
 36 37  1  0  0  0  0
 37 38  2  0  0  0  0
 39 40  1  0  0  0  0
 39 69  1  0  0  0  0
 39 70  1  0  0  0  0
 40 71  1  0  0  0  0
 40 72  1  0  0  0  0
M  END
$$$$
