
 OpenBabel07202414163D

 52 54  0  0  0  0  0  0  0  0999 V2000
   -4.5925    0.2011    3.1574 C   0  0  0  0  0  0  0  0  0  0  0  0
   -3.0898    0.1907    3.1840 C   0  0  0  0  0  0  0  0  0  0  0  0
   -2.4586   -0.6974    4.0715 C   0  0  0  0  0  0  0  0  0  0  0  0
   -1.0795   -0.7156    4.1603 C   0  0  0  0  0  0  0  0  0  0  0  0
   -0.2903    0.0861    3.4190 N   0  0  0  0  0  0  0  0  0  0  0  0
   -0.9112    0.9411    2.5643 C   0  0  0  0  0  0  0  0  0  0  0  0
   -2.2950    1.0517    2.4059 C   0  0  0  0  0  0  0  0  0  0  0  0
   -2.9134    1.9913    1.5219 N   0  0  0  0  0  0  0  0  0  0  0  0
   -2.2765    2.8919    0.6836 C   0  0  0  0  0  0  0  0  0  0  0  0
   -1.0532    2.9972    0.5819 O   0  0  0  0  0  0  0  0  0  0  0  0
   -3.1445    3.8361   -0.1587 C   0  0  0  0  0  0  0  0  0  0  0  0
   -4.6405    3.6295   -0.1844 C   0  0  0  0  0  0  0  0  0  0  0  0
   -5.5180    4.6494    0.1886 C   0  0  0  0  0  0  0  0  0  0  0  0
   -6.8898    4.4091    0.1916 C   0  0  0  0  0  0  0  0  0  0  0  0
   -7.9718    5.6792    0.6154 Cl  0  0  0  0  0  0  0  0  0  0  0  0
   -7.3918    3.1455   -0.1325 C   0  0  0  0  0  0  0  0  0  0  0  0
   -6.5401    2.1177   -0.5579 C   0  0  0  0  0  0  0  0  0  0  0  0
   -7.0919    0.8550   -0.7863 N   0  0  0  0  0  0  0  0  0  0  0  0
   -6.5079   -0.1946   -1.6520 C   0  0  0  0  0  0  0  0  0  0  0  0
   -5.2936   -0.8659   -0.9801 C   0  0  0  0  0  0  0  0  0  0  0  0
   -6.2185    0.3671   -3.0636 C   0  0  0  0  0  0  0  0  0  0  0  0
   -7.4949    0.8611   -3.7632 C   0  0  0  0  0  0  0  0  0  0  0  0
   -8.5633   -0.2156   -3.8227 C   0  0  0  0  0  0  0  0  0  0  0  0
   -9.7140    0.3053   -4.3168 F   0  0  0  0  0  0  0  0  0  0  0  0
   -8.1649   -1.1692   -4.7090 F   0  0  0  0  0  0  0  0  0  0  0  0
   -8.8468   -0.8845   -2.4923 C   0  0  0  0  0  0  0  0  0  0  0  0
   -7.5613   -1.3298   -1.8050 C   0  0  0  0  0  0  0  0  0  0  0  0
   -5.1757    2.4099   -0.6285 C   0  0  0  0  0  0  0  0  0  0  0  0
   -5.0046   -0.6777    3.6672 H   0  0  0  0  0  0  0  0  0  0  0  0
   -4.9725    0.1758    2.1325 H   0  0  0  0  0  0  0  0  0  0  0  0
   -4.9633    1.0921    3.6715 H   0  0  0  0  0  0  0  0  0  0  0  0
   -3.0326   -1.3695    4.7032 H   0  0  0  0  0  0  0  0  0  0  0  0
   -0.5595   -1.3795    4.8407 H   0  0  0  0  0  0  0  0  0  0  0  0
   -0.2056    1.5525    2.0133 H   0  0  0  0  0  0  0  0  0  0  0  0
   -3.9244    1.9939    1.5190 H   0  0  0  0  0  0  0  0  0  0  0  0
   -2.7822    3.7736   -1.1931 H   0  0  0  0  0  0  0  0  0  0  0  0
   -2.9226    4.8504    0.1971 H   0  0  0  0  0  0  0  0  0  0  0  0
   -5.1407    5.6321    0.4636 H   0  0  0  0  0  0  0  0  0  0  0  0
   -8.4645    2.9709   -0.0892 H   0  0  0  0  0  0  0  0  0  0  0  0
   -7.4136    0.4697    0.1037 H   0  0  0  0  0  0  0  0  0  0  0  0
   -4.4456   -0.2092   -0.8031 H   0  0  0  0  0  0  0  0  0  0  0  0
   -4.9176   -1.6938   -1.5908 H   0  0  0  0  0  0  0  0  0  0  0  0
   -5.5751   -1.2743   -0.0021 H   0  0  0  0  0  0  0  0  0  0  0  0
   -5.7561   -0.4135   -3.6813 H   0  0  0  0  0  0  0  0  0  0  0  0
   -5.4990    1.1917   -3.0379 H   0  0  0  0  0  0  0  0  0  0  0  0
   -7.2452    1.1735   -4.7837 H   0  0  0  0  0  0  0  0  0  0  0  0
   -7.8955    1.7493   -3.2609 H   0  0  0  0  0  0  0  0  0  0  0  0
   -9.4771   -1.7666   -2.6606 H   0  0  0  0  0  0  0  0  0  0  0  0
   -9.4167   -0.2138   -1.8407 H   0  0  0  0  0  0  0  0  0  0  0  0
   -7.1201   -2.1447   -2.3976 H   0  0  0  0  0  0  0  0  0  0  0  0
   -7.8110   -1.7599   -0.8272 H   0  0  0  0  0  0  0  0  0  0  0  0
   -4.4699    1.6875   -1.0149 H   0  0  0  0  0  0  0  0  0  0  0  0
  1  2  1  0  0  0  0
  1 29  1  0  0  0  0
  1 30  1  0  0  0  0
  1 31  1  0  0  0  0
  2  3  1  0  0  0  0
  2  7  2  0  0  0  0
  3  4  2  0  0  0  0
  3 32  1  0  0  0  0
  4  5  1  0  0  0  0
  4 33  1  0  0  0  0
  5  6  2  0  0  0  0
  6  7  1  0  0  0  0
  6 34  1  0  0  0  0
  7  8  1  0  0  0  0
  8  9  1  0  0  0  0
  8 35  1  0  0  0  0
  9 10  2  0  0  0  0
  9 11  1  0  0  0  0
 11 12  1  0  0  0  0
 11 36  1  0  0  0  0
 11 37  1  0  0  0  0
 12 13  1  0  0  0  0
 12 28  2  0  0  0  0
 13 14  2  0  0  0  0
 13 38  1  0  0  0  0
 14 15  1  0  0  0  0
 14 16  1  0  0  0  0
 16 17  2  0  0  0  0
 16 39  1  0  0  0  0
 17 18  1  0  0  0  0
 17 28  1  0  0  0  0
 18 19  1  0  0  0  0
 18 40  1  0  0  0  0
 19 20  1  0  0  0  0
 19 21  1  0  0  0  0
 19 27  1  0  0  0  0
 20 41  1  0  0  0  0
 20 42  1  0  0  0  0
 20 43  1  0  0  0  0
 21 22  1  0  0  0  0
 21 44  1  0  0  0  0
 21 45  1  0  0  0  0
 22 23  1  0  0  0  0
 22 46  1  0  0  0  0
 22 47  1  0  0  0  0
 23 24  1  0  0  0  0
 23 25  1  0  0  0  0
 23 26  1  0  0  0  0
 26 27  1  0  0  0  0
 26 48  1  0  0  0  0
 26 49  1  0  0  0  0
 27 50  1  0  0  0  0
 27 51  1  0  0  0  0
 28 52  1  0  0  0  0
M  END
$$$$
