
 OpenBabel07202414173D

 33 35  0  0  0  0  0  0  0  0999 V2000
   -2.6354   -3.5905    5.7815 Cl  0  0  0  0  0  0  0  0  0  0  0  0
   -2.9837   -2.9828    4.2030 C   0  0  0  0  0  0  0  0  0  0  0  0
   -3.5718   -1.7188    4.1010 C   0  0  0  0  0  0  0  0  0  0  0  0
   -3.8837   -1.1767    2.8479 C   0  0  0  0  0  0  0  0  0  0  0  0
   -3.6341   -1.9046    1.6769 C   0  0  0  0  0  0  0  0  0  0  0  0
   -3.9037   -1.3595    0.2909 C   0  0  0  0  0  0  0  0  0  0  0  0
   -5.0257   -0.3526    0.1721 C   0  0  0  0  0  0  0  0  0  0  0  0
   -4.7966    0.8499    0.0617 O   0  0  0  0  0  0  0  0  0  0  0  0
   -6.3023   -0.9014    0.2437 N   0  0  0  0  0  0  0  0  0  0  0  0
   -7.4588   -0.0832    0.1662 C   0  0  0  0  0  0  0  0  0  0  0  0
   -7.5636    0.9155   -0.8051 C   0  0  0  0  0  0  0  0  0  0  0  0
   -8.6175    1.7570   -0.9296 N   0  0  0  0  0  0  0  0  0  0  0  0
   -9.5991    1.6265   -0.0150 C   0  0  0  0  0  0  0  0  0  0  0  0
   -9.6100    0.6721    1.0048 C   0  0  0  0  0  0  0  0  0  0  0  0
  -10.6401    0.6141    1.9525 C   0  0  0  0  0  0  0  0  0  0  0  0
  -10.5730   -0.3430    2.9456 C   0  0  0  0  0  0  0  0  0  0  0  0
   -9.5684   -1.2355    3.0561 N   0  0  0  0  0  0  0  0  0  0  0  0
   -8.5799   -1.1546    2.1355 C   0  0  0  0  0  0  0  0  0  0  0  0
   -8.5291   -0.2243    1.0849 C   0  0  0  0  0  0  0  0  0  0  0  0
   -3.0160   -3.1625    1.7908 C   0  0  0  0  0  0  0  0  0  0  0  0
   -2.6949   -3.7027    3.0421 C   0  0  0  0  0  0  0  0  0  0  0  0
   -1.9384   -5.2556    3.0738 Cl  0  0  0  0  0  0  0  0  0  0  0  0
   -3.7797   -1.1408    5.0004 H   0  0  0  0  0  0  0  0  0  0  0  0
   -4.3088   -0.1738    2.8090 H   0  0  0  0  0  0  0  0  0  0  0  0
   -4.1335   -2.1838   -0.3955 H   0  0  0  0  0  0  0  0  0  0  0  0
   -2.9887   -0.8800   -0.0785 H   0  0  0  0  0  0  0  0  0  0  0  0
   -6.3754   -1.7934    0.7168 H   0  0  0  0  0  0  0  0  0  0  0  0
   -6.7889    1.0610   -1.5537 H   0  0  0  0  0  0  0  0  0  0  0  0
  -10.4046    2.3491   -0.1216 H   0  0  0  0  0  0  0  0  0  0  0  0
  -11.4726    1.3113    1.9308 H   0  0  0  0  0  0  0  0  0  0  0  0
  -11.3392   -0.4130    3.7132 H   0  0  0  0  0  0  0  0  0  0  0  0
   -7.7888   -1.8792    2.2980 H   0  0  0  0  0  0  0  0  0  0  0  0
   -2.7672   -3.7252    0.8920 H   0  0  0  0  0  0  0  0  0  0  0  0
  1  2  1  0  0  0  0
  2  3  1  0  0  0  0
  2 21  2  0  0  0  0
  3  4  2  0  0  0  0
  3 23  1  0  0  0  0
  4  5  1  0  0  0  0
  4 24  1  0  0  0  0
  5  6  1  0  0  0  0
  5 20  2  0  0  0  0
  6  7  1  0  0  0  0
  6 25  1  0  0  0  0
  6 26  1  0  0  0  0
  7  8  2  0  0  0  0
  7  9  1  0  0  0  0
  9 10  1  0  0  0  0
  9 27  1  0  0  0  0
 10 11  1  0  0  0  0
 10 19  2  0  0  0  0
 11 12  2  0  0  0  0
 11 28  1  0  0  0  0
 12 13  1  0  0  0  0
 13 14  2  0  0  0  0
 13 29  1  0  0  0  0
 14 15  1  0  0  0  0
 14 19  1  0  0  0  0
 15 16  2  0  0  0  0
 15 30  1  0  0  0  0
 16 17  1  0  0  0  0
 16 31  1  0  0  0  0
 17 18  2  0  0  0  0
 18 19  1  0  0  0  0
 18 32  1  0  0  0  0
 20 21  1  0  0  0  0
 20 33  1  0  0  0  0
 21 22  1  0  0  0  0
M  END
$$$$
