
 OpenBabel07202414203D

 44 47  0  0  1  0  0  0  0  0999 V2000
   -3.1142    4.2924   -2.9854 C   0  0  0  0  0  0  0  0  0  0  0  0
   -3.2586    4.3397   -1.6033 C   0  0  0  0  0  0  0  0  0  0  0  0
   -3.0492    3.1903   -0.8511 C   0  0  0  0  0  0  0  0  0  0  0  0
   -2.7374    1.9688   -1.4788 C   0  0  0  0  0  0  0  0  0  0  0  0
   -2.5112    1.9536   -2.8576 C   0  0  0  0  0  0  0  0  0  0  0  0
   -2.7086    3.1123   -3.6082 C   0  0  0  0  0  0  0  0  0  0  0  0
   -2.8419    0.7060   -0.6553 C   0  0  2  0  0  0  0  0  0  0  0  0
   -1.5753    0.2637    0.1384 C   0  0  0  0  0  0  0  0  0  0  0  0
   -1.6186    0.2980    1.3745 O   0  0  0  0  0  0  0  0  0  0  0  0
   -0.4633   -0.1470   -0.5854 N   0  0  0  0  0  0  0  0  0  0  0  0
    0.8165   -0.4434   -0.0302 C   0  0  0  0  0  0  0  0  0  0  0  0
    1.0366   -0.6505    1.3385 C   0  0  0  0  0  0  0  0  0  0  0  0
    2.3292   -0.8181    1.8607 C   0  0  0  0  0  0  0  0  0  0  0  0
    3.4308   -0.7952    1.0151 C   0  0  0  0  0  0  0  0  0  0  0  0
    3.2125   -0.6402   -0.3500 C   0  0  0  0  0  0  0  0  0  0  0  0
    1.9282   -0.4876   -0.8764 C   0  0  0  0  0  0  0  0  0  0  0  0
    4.2688   -0.6179   -1.1777 F   0  0  0  0  0  0  0  0  0  0  0  0
   -3.7130   -0.3147   -1.2501 N   0  0  0  0  0  0  0  0  0  0  0  0
   -4.7970   -0.8410   -0.4300 C   0  0  0  0  0  0  0  0  0  0  0  0
   -4.3092   -2.2097   -0.1507 C   0  0  0  0  0  0  0  0  0  0  0  0
   -4.4878   -3.0024    0.9621 C   0  0  0  0  0  0  0  0  0  0  0  0
   -3.7350   -4.1762    1.0468 C   0  0  0  0  0  0  0  0  0  0  0  0
   -2.8767   -4.5673   -0.0033 C   0  0  0  0  0  0  0  0  0  0  0  0
   -2.7102   -3.7646   -1.1282 C   0  0  0  0  0  0  0  0  0  0  0  0
   -3.4159   -2.5802   -1.1562 C   0  0  0  0  0  0  0  0  0  0  0  0
   -3.0674   -1.3659   -1.9096 C   0  0  0  0  0  0  0  0  0  0  0  0
   -2.1785   -1.2963   -2.7358 O   0  0  0  0  0  0  0  0  0  0  0  0
   -3.3300    5.1737   -3.5816 H   0  0  0  0  0  0  0  0  0  0  0  0
   -3.5707    5.2570   -1.1118 H   0  0  0  0  0  0  0  0  0  0  0  0
   -3.1999    3.2349    0.2274 H   0  0  0  0  0  0  0  0  0  0  0  0
   -2.2516    1.0343   -3.3754 H   0  0  0  0  0  0  0  0  0  0  0  0
   -2.5874    3.0801   -4.6873 H   0  0  0  0  0  0  0  0  0  0  0  0
   -3.4648    1.0514    0.1842 H   0  0  0  0  0  0  0  0  0  0  0  0
   -0.5478   -0.1565   -1.5995 H   0  0  0  0  0  0  0  0  0  0  0  0
    0.2125   -0.6972    2.0448 H   0  0  0  0  0  0  0  0  0  0  0  0
    2.4617   -0.9546    2.9311 H   0  0  0  0  0  0  0  0  0  0  0  0
    4.4404   -0.8898    1.4023 H   0  0  0  0  0  0  0  0  0  0  0  0
    1.8285   -0.3493   -1.9522 H   0  0  0  0  0  0  0  0  0  0  0  0
   -5.7000   -0.8866   -1.0536 H   0  0  0  0  0  0  0  0  0  0  0  0
   -5.0055   -0.2373    0.4563 H   0  0  0  0  0  0  0  0  0  0  0  0
   -5.1113   -2.6812    1.7929 H   0  0  0  0  0  0  0  0  0  0  0  0
   -3.7747   -4.7724    1.9540 H   0  0  0  0  0  0  0  0  0  0  0  0
   -2.2726   -5.4631    0.1065 H   0  0  0  0  0  0  0  0  0  0  0  0
   -1.9843   -3.9956   -1.9009 H   0  0  0  0  0  0  0  0  0  0  0  0
  1  2  1  0  0  0  0
  1  6  2  0  0  0  0
  1 28  1  0  0  0  0
  2  3  2  0  0  0  0
  2 29  1  0  0  0  0
  3  4  1  0  0  0  0
  3 30  1  0  0  0  0
  4  5  2  0  0  0  0
  5  6  1  0  0  0  0
  5 31  1  0  0  0  0
  6 32  1  0  0  0  0
  7 18  1  0  0  0  0
  7  8  1  0  0  0  0
  7  4  1  0  0  0  0
  7 33  1  1  0  0  0
  8  9  2  0  0  0  0
  8 10  1  0  0  0  0
 10 11  1  0  0  0  0
 10 34  1  0  0  0  0
 11 12  1  0  0  0  0
 11 16  2  0  0  0  0
 12 13  2  0  0  0  0
 12 35  1  0  0  0  0
 13 14  1  0  0  0  0
 13 36  1  0  0  0  0
 14 15  2  0  0  0  0
 14 37  1  0  0  0  0
 15 16  1  0  0  0  0
 15 17  1  0  0  0  0
 16 38  1  0  0  0  0
 18 19  1  0  0  0  0
 18 26  1  0  0  0  0
 19 20  1  0  0  0  0
 19 39  1  0  0  0  0
 19 40  1  0  0  0  0
 20 21  1  0  0  0  0
 20 25  2  0  0  0  0
 21 22  2  0  0  0  0
 21 41  1  0  0  0  0
 22 23  1  0  0  0  0
 22 42  1  0  0  0  0
 23 24  2  0  0  0  0
 23 43  1  0  0  0  0
 24 25  1  0  0  0  0
 24 44  1  0  0  0  0
 25 26  1  0  0  0  0
 26 27  2  0  0  0  0
M  END
$$$$
