
 OpenBabel07202414113D

 56 58  0  0  1  0  0  0  0  0999 V2000
    4.0800   -0.4105    3.8751 C   0  0  0  0  0  0  0  0  0  0  0  0
    3.6228   -1.0611    2.7983 C   0  0  0  0  0  0  0  0  0  0  0  0
    3.7888   -0.4668    1.4450 C   0  0  0  0  0  0  0  0  0  0  0  0
    3.0768    0.5030    1.1949 O   0  0  0  0  0  0  0  0  0  0  0  0
    4.6927   -1.0986    0.5606 N   0  0  0  0  0  0  0  0  0  0  0  0
    4.9556   -0.5244   -0.7576 C   0  0  0  0  0  0  0  0  0  0  0  0
    4.6913    0.8218   -1.0465 C   0  0  0  0  0  0  0  0  0  0  0  0
    4.9907    1.3864   -2.2979 C   0  0  0  0  0  0  0  0  0  0  0  0
    5.5723    0.6199   -3.3079 C   0  0  0  0  0  0  0  0  0  0  0  0
    5.8424   -0.7208   -3.0467 C   0  0  0  0  0  0  0  0  0  0  0  0
    5.5499   -1.2696   -1.7960 C   0  0  0  0  0  0  0  0  0  0  0  0
    5.9517    1.2096   -4.6405 C   0  0  0  0  0  0  0  0  0  0  0  0
    5.6715    2.5355   -4.7535 F   0  0  0  0  0  0  0  0  0  0  0  0
    7.2892    1.0894   -4.8797 F   0  0  0  0  0  0  0  0  0  0  0  0
    5.3289    0.5950   -5.6816 F   0  0  0  0  0  0  0  0  0  0  0  0
    5.4294   -2.3294    0.9955 C   0  0  3  0  0  0  0  0  0  0  0  0
    5.0672   -3.6289    0.2697 C   0  0  0  0  0  0  0  0  0  0  0  0
    4.0028   -3.7282   -0.6465 C   0  0  0  0  0  0  0  0  0  0  0  0
    3.7655   -4.9190   -1.3348 C   0  0  0  0  0  0  0  0  0  0  0  0
    4.5498   -6.0132   -1.0252 C   0  0  0  0  0  0  0  0  0  0  0  0
    5.5284   -5.9874   -0.0918 N   0  0  0  0  0  0  0  0  0  0  0  0
    5.7618   -4.8092    0.5348 C   0  0  0  0  0  0  0  0  0  0  0  0
    2.7676   -4.9922   -2.3572 C   0  0  0  0  0  0  0  0  0  0  0  0
    1.9729   -5.0299   -3.1959 N   0  0  0  0  0  0  0  0  0  0  0  0
    6.9575   -2.1178    1.2760 C   0  0  0  0  0  0  0  0  0  0  0  0
    7.5168   -2.7549    2.1711 O   0  0  0  0  0  0  0  0  0  0  0  0
    7.6953   -1.3084    0.4406 N   0  0  0  0  0  0  0  0  0  0  0  0
    9.1162   -1.0941    0.6420 C   0  0  0  0  0  0  0  0  0  0  0  0
    9.7301   -0.0989   -0.3544 C   0  0  0  0  0  0  0  0  0  0  0  0
    9.1912    1.3112   -0.2535 C   0  0  0  0  0  0  0  0  0  0  0  0
    8.6516    1.9543   -1.3790 C   0  0  0  0  0  0  0  0  0  0  0  0
    8.1582    3.2607   -1.2888 C   0  0  0  0  0  0  0  0  0  0  0  0
    8.2086    3.9424   -0.0753 C   0  0  0  0  0  0  0  0  0  0  0  0
    8.7646    3.3178    1.0331 C   0  0  0  0  0  0  0  0  0  0  0  0
    9.2596    2.0194    0.9540 C   0  0  0  0  0  0  0  0  0  0  0  0
    8.8295    3.9758    2.1984 F   0  0  0  0  0  0  0  0  0  0  0  0
    3.9542   -0.8281    4.8705 H   0  0  0  0  0  0  0  0  0  0  0  0
    4.5712    0.5545    3.7945 H   0  0  0  0  0  0  0  0  0  0  0  0
    3.1006   -2.0073    2.8719 H   0  0  0  0  0  0  0  0  0  0  0  0
    4.2918    1.5049   -0.3016 H   0  0  0  0  0  0  0  0  0  0  0  0
    4.7791    2.4425   -2.4568 H   0  0  0  0  0  0  0  0  0  0  0  0
    6.3000   -1.3500   -3.8102 H   0  0  0  0  0  0  0  0  0  0  0  0
    5.8428   -2.3059   -1.6818 H   0  0  0  0  0  0  0  0  0  0  0  0
    5.0824   -2.5689    2.0050 H   0  0  0  0  0  0  0  0  0  0  0  0
    3.3846   -2.8618   -0.8789 H   0  0  0  0  0  0  0  0  0  0  0  0
    4.4196   -6.9707   -1.5231 H   0  0  0  0  0  0  0  0  0  0  0  0
    6.5497   -4.8616    1.2844 H   0  0  0  0  0  0  0  0  0  0  0  0
    7.2818   -0.8736   -0.3659 H   0  0  0  0  0  0  0  0  0  0  0  0
    9.6052   -2.0675    0.5290 H   0  0  0  0  0  0  0  0  0  0  0  0
    9.2668   -0.7708    1.6775 H   0  0  0  0  0  0  0  0  0  0  0  0
    9.5806   -0.4781   -1.3735 H   0  0  0  0  0  0  0  0  0  0  0  0
   10.8147   -0.0570   -0.1952 H   0  0  0  0  0  0  0  0  0  0  0  0
    8.6137    1.4465   -2.3413 H   0  0  0  0  0  0  0  0  0  0  0  0
    7.7382    3.7479   -2.1660 H   0  0  0  0  0  0  0  0  0  0  0  0
    7.8280    4.9549    0.0127 H   0  0  0  0  0  0  0  0  0  0  0  0
    9.6994    1.5786    1.8435 H   0  0  0  0  0  0  0  0  0  0  0  0
  1  2  2  0  0  0  0
  1 37  1  0  0  0  0
  1 38  1  0  0  0  0
  2  3  1  0  0  0  0
  2 39  1  0  0  0  0
  3  4  2  0  0  0  0
  3  5  1  0  0  0  0
  5  6  1  0  0  0  0
  5 16  1  0  0  0  0
  6  7  1  0  0  0  0
  6 11  2  0  0  0  0
  7  8  2  0  0  0  0
  7 40  1  0  0  0  0
  8  9  1  0  0  0  0
  8 41  1  0  0  0  0
  9 10  2  0  0  0  0
  9 12  1  0  0  0  0
 10 11  1  0  0  0  0
 10 42  1  0  0  0  0
 11 43  1  0  0  0  0
 12 13  1  0  0  0  0
 12 14  1  0  0  0  0
 12 15  1  0  0  0  0
 16 17  1  0  0  0  0
 16 25  1  0  0  0  0
 16 44  1  0  0  0  0
 17 18  1  0  0  0  0
 17 22  2  0  0  0  0
 18 19  2  0  0  0  0
 18 45  1  0  0  0  0
 19 20  1  0  0  0  0
 19 23  1  0  0  0  0
 20 21  2  0  0  0  0
 20 46  1  0  0  0  0
 21 22  1  0  0  0  0
 22 47  1  0  0  0  0
 23 24  3  0  0  0  0
 25 26  2  0  0  0  0
 25 27  1  0  0  0  0
 27 28  1  0  0  0  0
 27 48  1  0  0  0  0
 28 29  1  0  0  0  0
 28 49  1  0  0  0  0
 28 50  1  0  0  0  0
 29 30  1  0  0  0  0
 29 51  1  0  0  0  0
 29 52  1  0  0  0  0
 30 31  1  0  0  0  0
 30 35  2  0  0  0  0
 31 32  2  0  0  0  0
 31 53  1  0  0  0  0
 32 33  1  0  0  0  0
 32 54  1  0  0  0  0
 33 34  2  0  0  0  0
 33 55  1  0  0  0  0
 34 35  1  0  0  0  0
 34 36  1  0  0  0  0
 35 56  1  0  0  0  0
M  END
$$$$
