
 OpenBabel07202414163D

 34 35  0  0  0  0  0  0  0  0999 V2000
    5.2353    2.5198   -0.8134 C   0  0  0  0  0  0  0  0  0  0  0  0
    4.6484    1.3898   -0.0045 C   0  0  0  0  0  0  0  0  0  0  0  0
    5.4673    0.3041    0.3933 C   0  0  0  0  0  0  0  0  0  0  0  0
    4.8514   -0.7568    1.0673 C   0  0  0  0  0  0  0  0  0  0  0  0
    3.5543   -0.8057    1.4169 N   0  0  0  0  0  0  0  0  0  0  0  0
    2.8046    0.2574    1.0543 C   0  0  0  0  0  0  0  0  0  0  0  0
    3.2763    1.3793    0.3620 C   0  0  0  0  0  0  0  0  0  0  0  0
    2.4073    2.4581    0.0214 N   0  0  0  0  0  0  0  0  0  0  0  0
    1.1677    2.6975    0.6049 C   0  0  0  0  0  0  0  0  0  0  0  0
    0.6816    2.0610    1.5368 O   0  0  0  0  0  0  0  0  0  0  0  0
    0.4092    3.8799    0.0251 C   0  0  0  0  0  0  0  0  0  0  0  0
    0.7165    5.1915    0.7085 C   0  0  0  0  0  0  0  0  0  0  0  0
    0.5454    5.3495    2.0934 C   0  0  0  0  0  0  0  0  0  0  0  0
    0.8163    6.5726    2.7108 C   0  0  0  0  0  0  0  0  0  0  0  0
    1.2478    7.6593    1.9516 C   0  0  0  0  0  0  0  0  0  0  0  0
    1.3999    7.5248    0.5704 C   0  0  0  0  0  0  0  0  0  0  0  0
    1.1328    6.2951   -0.0481 C   0  0  0  0  0  0  0  0  0  0  0  0
    1.8246    8.6382   -0.2193 C   0  0  0  0  0  0  0  0  0  0  0  0
    2.1725    9.5343   -0.8754 N   0  0  0  0  0  0  0  0  0  0  0  0
    6.7924    0.1374   -0.0503 N   0  0  0  0  0  0  0  0  0  0  0  0
    6.3133    2.6267   -0.6620 H   0  0  0  0  0  0  0  0  0  0  0  0
    4.8178    3.4857   -0.5151 H   0  0  0  0  0  0  0  0  0  0  0  0
    5.0529    2.3567   -1.8802 H   0  0  0  0  0  0  0  0  0  0  0  0
    5.4188   -1.6385    1.3536 H   0  0  0  0  0  0  0  0  0  0  0  0
    1.7610    0.1389    1.3237 H   0  0  0  0  0  0  0  0  0  0  0  0
    2.7708    3.1718   -0.5958 H   0  0  0  0  0  0  0  0  0  0  0  0
   -0.6649    3.6743    0.1235 H   0  0  0  0  0  0  0  0  0  0  0  0
    0.6063    3.9400   -1.0516 H   0  0  0  0  0  0  0  0  0  0  0  0
    0.1946    4.5184    2.7064 H   0  0  0  0  0  0  0  0  0  0  0  0
    0.6864    6.6790    3.7861 H   0  0  0  0  0  0  0  0  0  0  0  0
    1.4552    8.6086    2.4424 H   0  0  0  0  0  0  0  0  0  0  0  0
    1.2400    6.2069   -1.1278 H   0  0  0  0  0  0  0  0  0  0  0  0
    7.3074    0.9883   -0.2370 H   0  0  0  0  0  0  0  0  0  0  0  0
    7.3351   -0.4996    0.5292 H   0  0  0  0  0  0  0  0  0  0  0  0
  1  2  1  0  0  0  0
  1 21  1  0  0  0  0
  1 22  1  0  0  0  0
  1 23  1  0  0  0  0
  2  3  1  0  0  0  0
  2  7  2  0  0  0  0
  3  4  2  0  0  0  0
  3 20  1  0  0  0  0
  4  5  1  0  0  0  0
  4 24  1  0  0  0  0
  5  6  2  0  0  0  0
  6  7  1  0  0  0  0
  6 25  1  0  0  0  0
  7  8  1  0  0  0  0
  8  9  1  0  0  0  0
  8 26  1  0  0  0  0
  9 10  2  0  0  0  0
  9 11  1  0  0  0  0
 11 12  1  0  0  0  0
 11 27  1  0  0  0  0
 11 28  1  0  0  0  0
 12 13  1  0  0  0  0
 12 17  2  0  0  0  0
 13 14  2  0  0  0  0
 13 29  1  0  0  0  0
 14 15  1  0  0  0  0
 14 30  1  0  0  0  0
 15 16  2  0  0  0  0
 15 31  1  0  0  0  0
 16 17  1  0  0  0  0
 16 18  1  0  0  0  0
 17 32  1  0  0  0  0
 18 19  3  0  0  0  0
 20 33  1  0  0  0  0
 20 34  1  0  0  0  0
M  END
$$$$
