
 OpenBabel07202414153D

 45 48  0  0  1  0  0  0  0  0999 V2000
    3.9966    0.0175  -10.5248 C   0  0  0  0  0  0  0  0  0  0  0  0
    5.5068   -0.1665   -9.6126 S   0  0  0  0  0  0  0  0  0  0  0  0
    6.3768   -1.0629  -10.3359 O   0  0  0  0  0  0  0  0  0  0  0  0
    5.9527    1.1506   -9.2193 O   0  0  0  0  0  0  0  0  0  0  0  0
    4.9792   -0.9954   -8.1224 C   0  0  0  0  0  0  0  0  0  0  0  0
    4.9918   -2.3812   -8.0069 C   0  0  0  0  0  0  0  0  0  0  0  0
    4.6713   -2.9477   -6.7715 C   0  0  0  0  0  0  0  0  0  0  0  0
    4.4487   -2.1228   -5.6314 C   0  0  0  0  0  0  0  0  0  0  0  0
    4.1701   -2.6720   -4.3711 C   0  0  0  0  0  0  0  0  0  0  0  0
    3.9805   -1.9404   -3.2597 N   0  0  0  0  0  0  0  0  0  0  0  0
    4.0789   -0.5865   -3.3918 C   0  0  0  0  0  0  0  0  0  0  0  0
    4.3285    0.0882   -4.5724 C   0  0  0  0  0  0  0  0  0  0  0  0
    4.4781    1.5153   -4.6208 N   0  0  0  0  0  0  0  0  0  0  0  0
    4.1093    2.4499   -3.6343 C   0  0  0  0  0  0  0  0  0  0  0  0
    3.4836    2.1692   -2.6236 O   0  0  0  0  0  0  0  0  0  0  0  0
    4.5034    3.9173   -4.0190 C   0  0  3  0  0  0  0  0  0  0  0  0
    6.0181    4.1448   -4.0979 C   0  0  0  0  0  0  0  0  0  0  0  0
    6.6049    4.5884   -2.7655 C   0  0  0  0  0  0  0  0  0  0  0  0
    5.9922    5.7717   -2.2541 O   0  0  0  0  0  0  0  0  0  0  0  0
    4.6267    5.7822   -2.2872 C   0  0  0  0  0  0  0  0  0  0  0  0
    4.0072    6.7143   -1.4485 C   0  0  0  0  0  0  0  0  0  0  0  0
    2.6187    6.7633   -1.3787 C   0  0  0  0  0  0  0  0  0  0  0  0
    2.0412    7.6058   -0.5086 F   0  0  0  0  0  0  0  0  0  0  0  0
    1.8465    5.9623   -2.2096 C   0  0  0  0  0  0  0  0  0  0  0  0
    0.1302    5.9249   -2.0777 Cl  0  0  0  0  0  0  0  0  0  0  0  0
    2.4690    5.1352   -3.1456 C   0  0  0  0  0  0  0  0  0  0  0  0
    3.8648    4.9695   -3.1337 C   0  0  0  0  0  0  0  0  0  0  0  0
    4.4885   -0.7132   -5.7415 C   0  0  0  0  0  0  0  0  0  0  0  0
    4.6641   -0.1868   -7.0237 C   0  0  0  0  0  0  0  0  0  0  0  0
    4.2343    0.5314  -11.4589 H   0  0  0  0  0  0  0  0  0  0  0  0
    3.2967    0.6164   -9.9393 H   0  0  0  0  0  0  0  0  0  0  0  0
    3.5815   -0.9687  -10.7376 H   0  0  0  0  0  0  0  0  0  0  0  0
    5.2238   -3.0148   -8.8579 H   0  0  0  0  0  0  0  0  0  0  0  0
    4.6224   -4.0377   -6.6839 H   0  0  0  0  0  0  0  0  0  0  0  0
    4.0879   -3.7448   -4.2105 H   0  0  0  0  0  0  0  0  0  0  0  0
    3.9459   -0.0486   -2.4475 H   0  0  0  0  0  0  0  0  0  0  0  0
    4.7707    1.9018   -5.4996 H   0  0  0  0  0  0  0  0  0  0  0  0
    4.1119    4.0786   -5.0366 H   0  0  0  0  0  0  0  0  0  0  0  0
    6.1996    4.9531   -4.8193 H   0  0  0  0  0  0  0  0  0  0  0  0
    6.5485    3.2609   -4.4666 H   0  0  0  0  0  0  0  0  0  0  0  0
    7.6644    4.8312   -2.9129 H   0  0  0  0  0  0  0  0  0  0  0  0
    6.5625    3.7990   -2.0068 H   0  0  0  0  0  0  0  0  0  0  0  0
    4.5976    7.3843   -0.8305 H   0  0  0  0  0  0  0  0  0  0  0  0
    1.8557    4.5993   -3.8643 H   0  0  0  0  0  0  0  0  0  0  0  0
    4.5358    0.8784   -7.2027 H   0  0  0  0  0  0  0  0  0  0  0  0
  1  2  1  0  0  0  0
  1 30  1  0  0  0  0
  1 31  1  0  0  0  0
  1 32  1  0  0  0  0
  2  3  2  0  0  0  0
  2  4  2  0  0  0  0
  2  5  1  0  0  0  0
  5  6  1  0  0  0  0
  5 29  2  0  0  0  0
  6  7  2  0  0  0  0
  6 33  1  0  0  0  0
  7  8  1  0  0  0  0
  7 34  1  0  0  0  0
  8  9  1  0  0  0  0
  8 28  2  0  0  0  0
  9 10  2  0  0  0  0
  9 35  1  0  0  0  0
 10 11  1  0  0  0  0
 11 12  2  0  0  0  0
 11 36  1  0  0  0  0
 12 13  1  0  0  0  0
 12 28  1  0  0  0  0
 13 14  1  0  0  0  0
 13 37  1  0  0  0  0
 14 15  2  0  0  0  0
 14 16  1  0  0  0  0
 16 17  1  0  0  0  0
 16 27  1  0  0  0  0
 16 38  1  0  0  0  0
 17 18  1  0  0  0  0
 17 39  1  0  0  0  0
 17 40  1  0  0  0  0
 18 19  1  0  0  0  0
 18 41  1  0  0  0  0
 18 42  1  0  0  0  0
 19 20  1  0  0  0  0
 20 21  1  0  0  0  0
 20 27  2  0  0  0  0
 21 22  2  0  0  0  0
 21 43  1  0  0  0  0
 22 23  1  0  0  0  0
 22 24  1  0  0  0  0
 24 25  1  0  0  0  0
 24 26  2  0  0  0  0
 26 27  1  0  0  0  0
 26 44  1  0  0  0  0
 28 29  1  0  0  0  0
 29 45  1  0  0  0  0
M  END
$$$$
