
 OpenBabel07202414113D

 64 68  0  0  1  0  0  0  0  0999 V2000
    8.5322   -1.6674   -0.5787 C   0  0  0  0  0  0  0  0  0  0  0  0
    7.2275   -1.7177    0.1665 C   0  0  0  0  0  0  0  0  0  0  0  0
    6.1467   -1.5313   -0.3794 O   0  0  0  0  0  0  0  0  0  0  0  0
    7.3783   -1.9491    1.5180 N   0  0  0  0  0  0  0  0  0  0  0  0
    6.2254   -2.0965    2.3961 C   0  0  0  0  0  0  0  0  0  0  0  0
    5.3993   -0.8090    2.5485 C   0  0  2  0  0  0  0  0  0  0  0  0
    6.3071    0.3257    3.0328 C   0  0  0  0  0  0  0  0  0  0  0  0
    5.5926    1.0299    4.0614 N   0  0  0  0  0  0  0  0  0  0  0  0
    6.3684    1.7129    5.0428 C   0  0  0  0  0  0  0  0  0  0  0  0
    6.7817    3.0477    4.8503 C   0  0  0  0  0  0  0  0  0  0  0  0
    7.6688    3.6226    5.7946 C   0  0  0  0  0  0  0  0  0  0  0  0
    8.0856    2.8251    6.8676 C   0  0  0  0  0  0  0  0  0  0  0  0
    7.6909    1.5505    7.0792 N   0  0  0  0  0  0  0  0  0  0  0  0
    6.8272    1.0332    6.1762 C   0  0  0  0  0  0  0  0  0  0  0  0
    8.0932    4.9495    5.6470 C   0  0  0  0  0  0  0  0  0  0  0  0
    7.6378    5.7285    4.5809 C   0  0  0  0  0  0  0  0  0  0  0  0
    6.7606    5.1844    3.6471 C   0  0  0  0  0  0  0  0  0  0  0  0
    6.3391    3.8579    3.7778 C   0  0  0  0  0  0  0  0  0  0  0  0
    4.4049    0.4013    4.4028 C   0  0  0  0  0  0  0  0  0  0  0  0
    3.6637    0.7424    5.3149 O   0  0  0  0  0  0  0  0  0  0  0  0
    4.1754   -0.8299    3.5186 C   0  0  2  0  0  0  0  0  0  0  0  0
    4.0496   -2.0088    4.5022 C   0  0  0  0  0  0  0  0  0  0  0  0
    3.5472   -3.2877    3.8591 C   0  0  0  0  0  0  0  0  0  0  0  0
    2.2550   -3.0729    3.0933 C   0  0  0  0  0  0  0  0  0  0  0  0
    2.3349   -1.9314    2.1220 N   0  0  0  0  0  0  0  0  0  0  0  0
    0.7637   -1.7334    1.3572 S   0  0  0  0  0  0  0  0  0  0  0  0
    0.1994   -3.0565    1.1821 O   0  0  0  0  0  0  0  0  0  0  0  0
    0.0638   -0.7186    2.1057 O   0  0  0  0  0  0  0  0  0  0  0  0
    1.1793   -1.1237   -0.2854 C   0  0  0  0  0  0  0  0  0  0  0  0
   -0.1451   -0.8669   -0.9923 C   0  0  0  0  0  0  0  0  0  0  0  0
   -0.9588    0.2072   -0.4599 C   0  0  0  0  0  0  0  0  0  0  0  0
   -1.6178    1.0869   -0.0915 N   0  0  0  0  0  0  0  0  0  0  0  0
   -0.1467   -0.9588   -2.5182 C   0  0  0  0  0  0  0  0  0  0  0  0
   -0.8610   -2.0024   -1.7159 C   0  0  0  0  0  0  0  0  0  0  0  0
    2.8294   -0.6502    2.7732 C   0  0  0  0  0  0  0  0  0  0  0  0
    8.3362   -1.5375   -1.6465 H   0  0  0  0  0  0  0  0  0  0  0  0
    9.0865   -2.5983   -0.4331 H   0  0  0  0  0  0  0  0  0  0  0  0
    9.1250   -0.8207   -0.2221 H   0  0  0  0  0  0  0  0  0  0  0  0
    8.2565   -2.3534    1.8217 H   0  0  0  0  0  0  0  0  0  0  0  0
    6.6181   -2.4280    3.3642 H   0  0  0  0  0  0  0  0  0  0  0  0
    5.6229   -2.8956    1.9622 H   0  0  0  0  0  0  0  0  0  0  0  0
    5.0377   -0.5232    1.5542 H   0  0  0  0  0  0  0  0  0  0  0  0
    6.5254    1.0269    2.2188 H   0  0  0  0  0  0  0  0  0  0  0  0
    7.2612   -0.0409    3.4315 H   0  0  0  0  0  0  0  0  0  0  0  0
    8.7718    3.2131    7.6179 H   0  0  0  0  0  0  0  0  0  0  0  0
    6.5423    0.0057    6.3716 H   0  0  0  0  0  0  0  0  0  0  0  0
    8.7728    5.3981    6.3711 H   0  0  0  0  0  0  0  0  0  0  0  0
    7.9587    6.7610    4.4857 H   0  0  0  0  0  0  0  0  0  0  0  0
    6.3807    5.7927    2.8330 H   0  0  0  0  0  0  0  0  0  0  0  0
    5.6300    3.4622    3.0559 H   0  0  0  0  0  0  0  0  0  0  0  0
    3.3187   -1.7456    5.2826 H   0  0  0  0  0  0  0  0  0  0  0  0
    4.9883   -2.1828    5.0395 H   0  0  0  0  0  0  0  0  0  0  0  0
    3.3754   -4.0369    4.6414 H   0  0  0  0  0  0  0  0  0  0  0  0
    4.3003   -3.7243    3.2042 H   0  0  0  0  0  0  0  0  0  0  0  0
    1.4307   -2.9057    3.7957 H   0  0  0  0  0  0  0  0  0  0  0  0
    2.0566   -3.9963    2.5350 H   0  0  0  0  0  0  0  0  0  0  0  0
    1.7568   -1.9090   -0.7829 H   0  0  0  0  0  0  0  0  0  0  0  0
    1.7708   -0.2110   -0.1954 H   0  0  0  0  0  0  0  0  0  0  0  0
    0.7599   -1.2507   -3.0346 H   0  0  0  0  0  0  0  0  0  0  0  0
   -0.7557   -0.2577   -3.0838 H   0  0  0  0  0  0  0  0  0  0  0  0
   -0.4377   -3.0012   -1.6955 H   0  0  0  0  0  0  0  0  0  0  0  0
   -1.9480   -2.0041   -1.7388 H   0  0  0  0  0  0  0  0  0  0  0  0
    2.0695   -0.2999    3.4820 H   0  0  0  0  0  0  0  0  0  0  0  0
    2.9285    0.1201    1.9981 H   0  0  0  0  0  0  0  0  0  0  0  0
  1  2  1  0  0  0  0
  1 36  1  0  0  0  0
  1 37  1  0  0  0  0
  1 38  1  0  0  0  0
  2  3  2  0  0  0  0
  2  4  1  0  0  0  0
  4  5  1  0  0  0  0
  4 39  1  0  0  0  0
  5 40  1  0  0  0  0
  5 41  1  0  0  0  0
  6  7  1  0  0  0  0
  6 21  1  0  0  0  0
  6  5  1  0  0  0  0
  6 42  1  6  0  0  0
  7  8  1  0  0  0  0
  7 43  1  0  0  0  0
  7 44  1  0  0  0  0
  8  9  1  0  0  0  0
  8 19  1  0  0  0  0
  9 10  2  0  0  0  0
  9 14  1  0  0  0  0
 10 11  1  0  0  0  0
 10 18  1  0  0  0  0
 11 12  2  0  0  0  0
 11 15  1  0  0  0  0
 12 13  1  0  0  0  0
 12 45  1  0  0  0  0
 13 14  2  0  0  0  0
 14 46  1  0  0  0  0
 15 16  2  0  0  0  0
 15 47  1  0  0  0  0
 16 17  1  0  0  0  0
 16 48  1  0  0  0  0
 17 18  2  0  0  0  0
 17 49  1  0  0  0  0
 18 50  1  0  0  0  0
 19 20  2  0  0  0  0
 21 19  1  1  0  0  0
 21 22  1  0  0  0  0
 21 35  1  0  0  0  0
 22 23  1  0  0  0  0
 22 51  1  0  0  0  0
 22 52  1  0  0  0  0
 23 24  1  0  0  0  0
 23 53  1  0  0  0  0
 23 54  1  0  0  0  0
 24 25  1  0  0  0  0
 24 55  1  0  0  0  0
 24 56  1  0  0  0  0
 25 26  1  0  0  0  0
 25 35  1  0  0  0  0
 26 27  2  0  0  0  0
 26 28  2  0  0  0  0
 26 29  1  0  0  0  0
 29 30  1  0  0  0  0
 29 57  1  0  0  0  0
 29 58  1  0  0  0  0
 30 31  1  0  0  0  0
 30 33  1  0  0  0  0
 30 34  1  0  0  0  0
 31 32  3  0  0  0  0
 33 34  1  0  0  0  0
 33 59  1  0  0  0  0
 33 60  1  0  0  0  0
 34 61  1  0  0  0  0
 34 62  1  0  0  0  0
 35 63  1  0  0  0  0
 35 64  1  0  0  0  0
M  END
$$$$
