
 OpenBabel07202414203D

 61 65  0  0  1  0  0  0  0  0999 V2000
    6.1484   -5.3502    3.3974 O   0  0  0  0  0  0  0  0  0  0  0  0
    7.0843   -6.2616    3.9639 C   0  0  0  0  0  0  0  0  0  0  0  0
    6.4889   -7.0941    5.1036 C   0  0  1  0  0  0  0  0  0  0  0  0
    6.0044   -6.2193    6.1413 O   0  0  0  0  0  0  0  0  0  0  0  0
    4.6225   -6.5203    6.4056 C   0  0  1  0  0  0  0  0  0  0  0  0
    3.8549   -5.3017    6.6117 N   0  0  0  0  0  0  0  0  0  0  0  0
    4.2091   -4.1188    6.0070 C   0  0  0  0  0  0  0  0  0  0  0  0
    3.5032   -3.0067    6.1998 C   0  0  0  0  0  0  0  0  0  0  0  0
    2.3163   -3.1222    7.0832 C   0  0  0  0  0  0  0  0  0  0  0  0
    1.6026   -1.9697    7.3631 N   0  0  0  0  0  0  0  0  0  0  0  0
    0.2079   -1.8851    7.5503 C   0  0  0  0  0  0  0  0  0  0  0  0
   -0.6627   -2.8901    7.1106 C   0  0  0  0  0  0  0  0  0  0  0  0
   -2.0292   -2.8089    7.3579 C   0  0  0  0  0  0  0  0  0  0  0  0
   -3.0775   -4.0505    6.7922 Cl  0  0  0  0  0  0  0  0  0  0  0  0
   -2.5568   -1.7289    8.0583 C   0  0  0  0  0  0  0  0  0  0  0  0
   -1.7148   -0.7075    8.5160 C   0  0  0  0  0  0  0  0  0  0  0  0
   -2.2979    0.4214    9.3348 C   0  0  0  0  0  0  0  0  0  0  0  0
   -2.0368    1.8345    8.8370 C   0  0  0  0  0  0  0  0  0  0  0  0
   -1.8646    2.7351    9.6560 O   0  0  0  0  0  0  0  0  0  0  0  0
   -2.1055    2.0071    7.4674 N   0  0  0  0  0  0  0  0  0  0  0  0
   -1.8081    3.2030    6.7458 C   0  0  0  0  0  0  0  0  0  0  0  0
   -1.2923    4.3454    7.3646 C   0  0  0  0  0  0  0  0  0  0  0  0
   -0.8949    5.4668    6.7183 N   0  0  0  0  0  0  0  0  0  0  0  0
   -1.0074    5.4619    5.3795 C   0  0  0  0  0  0  0  0  0  0  0  0
   -1.5288    4.3988    4.6348 C   0  0  0  0  0  0  0  0  0  0  0  0
   -1.9735    3.2447    5.3285 C   0  0  0  0  0  0  0  0  0  0  0  0
   -2.5618    2.2226    4.5399 C   0  0  0  0  0  0  0  0  0  0  0  0
   -2.6545    2.3250    3.1467 C   0  0  0  0  0  0  0  0  0  0  0  0
   -2.1639    3.4480    2.4945 C   0  0  0  0  0  0  0  0  0  0  0  0
   -1.6126    4.4853    3.2375 C   0  0  0  0  0  0  0  0  0  0  0  0
   -0.3326   -0.8023    8.2673 C   0  0  0  0  0  0  0  0  0  0  0  0
    1.9576   -4.2647    7.5912 N   0  0  0  0  0  0  0  0  0  0  0  0
    2.6838   -5.4046    7.3610 C   0  0  0  0  0  0  0  0  0  0  0  0
    2.3102   -6.4876    7.8075 O   0  0  0  0  0  0  0  0  0  0  0  0
    4.0964   -7.3753    5.2629 C   0  0  0  0  0  0  0  0  0  0  0  0
    5.3421   -8.0209    4.7091 C   0  0  2  0  0  0  0  0  0  0  0  0
    5.5208   -9.3029    5.3275 O   0  0  0  0  0  0  0  0  0  0  0  0
    6.6703   -4.7191    2.8681 H   0  0  0  0  0  0  0  0  0  0  0  0
    7.9227   -5.6727    4.3525 H   0  0  0  0  0  0  0  0  0  0  0  0
    7.4545   -6.9106    3.1641 H   0  0  0  0  0  0  0  0  0  0  0  0
    7.3083   -7.6759    5.5421 H   0  0  0  0  0  0  0  0  0  0  0  0
    4.6149   -7.1044    7.3349 H   0  0  0  0  0  0  0  0  0  0  0  0
    5.0819   -4.1249    5.3634 H   0  0  0  0  0  0  0  0  0  0  0  0
    3.7437   -2.0683    5.7225 H   0  0  0  0  0  0  0  0  0  0  0  0
    2.0702   -1.0784    7.2631 H   0  0  0  0  0  0  0  0  0  0  0  0
   -0.2813   -3.7491    6.5636 H   0  0  0  0  0  0  0  0  0  0  0  0
   -3.6238   -1.7025    8.2686 H   0  0  0  0  0  0  0  0  0  0  0  0
   -1.8866    0.3401   10.3487 H   0  0  0  0  0  0  0  0  0  0  0  0
   -3.3854    0.3111    9.4248 H   0  0  0  0  0  0  0  0  0  0  0  0
   -2.3345    1.1936    6.9158 H   0  0  0  0  0  0  0  0  0  0  0  0
   -1.1443    4.4154    8.4354 H   0  0  0  0  0  0  0  0  0  0  0  0
   -0.6680    6.3704    4.8974 H   0  0  0  0  0  0  0  0  0  0  0  0
   -2.9891    1.3347    4.9965 H   0  0  0  0  0  0  0  0  0  0  0  0
   -3.1165    1.5254    2.5723 H   0  0  0  0  0  0  0  0  0  0  0  0
   -2.2216    3.5234    1.4114 H   0  0  0  0  0  0  0  0  0  0  0  0
   -1.2481    5.3693    2.7159 H   0  0  0  0  0  0  0  0  0  0  0  0
    0.3357   -0.0413    8.6702 H   0  0  0  0  0  0  0  0  0  0  0  0
    3.6176   -6.7544    4.4977 H   0  0  0  0  0  0  0  0  0  0  0  0
    3.3526   -8.0972    5.6206 H   0  0  0  0  0  0  0  0  0  0  0  0
    5.2741   -8.2024    3.6324 H   0  0  0  0  0  0  0  0  0  0  0  0
    5.6973   -9.1727    6.2766 H   0  0  0  0  0  0  0  0  0  0  0  0
  1  2  1  0  0  0  0
  1 38  1  0  0  0  0
  2  3  1  0  0  0  0
  2 39  1  0  0  0  0
  2 40  1  0  0  0  0
  3  4  1  0  0  0  0
  3 36  1  0  0  0  0
  3 41  1  1  0  0  0
  4  5  1  0  0  0  0
  5  6  1  0  0  0  0
  5 35  1  0  0  0  0
  5 42  1  1  0  0  0
  6  7  1  0  0  0  0
  6 33  1  0  0  0  0
  7  8  2  0  0  0  0
  7 43  1  0  0  0  0
  8  9  1  0  0  0  0
  8 44  1  0  0  0  0
  9 10  1  0  0  0  0
  9 32  2  0  0  0  0
 10 11  1  0  0  0  0
 10 45  1  0  0  0  0
 11 12  2  0  0  0  0
 11 31  1  0  0  0  0
 12 13  1  0  0  0  0
 12 46  1  0  0  0  0
 13 14  1  0  0  0  0
 13 15  2  0  0  0  0
 15 16  1  0  0  0  0
 15 47  1  0  0  0  0
 16 17  1  0  0  0  0
 16 31  2  0  0  0  0
 17 18  1  0  0  0  0
 17 48  1  0  0  0  0
 17 49  1  0  0  0  0
 18 19  2  0  0  0  0
 18 20  1  0  0  0  0
 20 21  1  0  0  0  0
 20 50  1  0  0  0  0
 21 22  2  0  0  0  0
 21 26  1  0  0  0  0
 22 23  1  0  0  0  0
 22 51  1  0  0  0  0
 23 24  2  0  0  0  0
 24 25  1  0  0  0  0
 24 52  1  0  0  0  0
 25 26  2  0  0  0  0
 25 30  1  0  0  0  0
 26 27  1  0  0  0  0
 27 28  2  0  0  0  0
 27 53  1  0  0  0  0
 28 29  1  0  0  0  0
 28 54  1  0  0  0  0
 29 30  2  0  0  0  0
 29 55  1  0  0  0  0
 30 56  1  0  0  0  0
 31 57  1  0  0  0  0
 32 33  1  0  0  0  0
 33 34  2  0  0  0  0
 35 36  1  0  0  0  0
 35 58  1  0  0  0  0
 35 59  1  0  0  0  0
 36 37  1  0  0  0  0
 36 60  1  6  0  0  0
 37 61  1  0  0  0  0
M  END
$$$$
