
 OpenBabel07202414173D

 44 46  0  0  1  0  0  0  0  0999 V2000
    1.0427    0.6710   -0.0785 Cl  0  0  0  0  0  0  0  0  0  0  0  0
    2.8003    0.8541    0.0453 C   0  0  0  0  0  0  0  0  0  0  0  0
    3.3564    0.2686    1.3360 C   0  0  0  0  0  0  0  0  0  0  0  0
    2.6386   -0.2045    2.2129 O   0  0  0  0  0  0  0  0  0  0  0  0
    4.7497    0.2786    1.4594 N   0  0  0  0  0  0  0  0  0  0  0  0
    5.6814    0.9086    0.5168 C   0  0  0  0  0  0  0  0  0  0  0  0
    6.9299    0.0386    0.3075 C   0  0  0  0  0  0  0  0  0  0  0  0
    7.6198   -0.3194    1.5921 N   0  0  0  0  0  0  0  0  0  0  0  0
    8.5012    0.9351    2.3616 S   0  0  0  0  0  0  0  0  0  0  0  0
    7.5885    1.9849    2.7404 O   0  0  0  0  0  0  0  0  0  0  0  0
    9.4117    0.3147    3.2987 O   0  0  0  0  0  0  0  0  0  0  0  0
    9.5685    1.7062    1.2269 C   0  0  0  0  0  0  0  0  0  0  0  0
    9.4924    3.0895    0.8662 C   0  0  0  0  0  0  0  0  0  0  0  0
   10.4831    3.4470   -0.0224 C   0  0  0  0  0  0  0  0  0  0  0  0
   11.5043    2.1278   -0.4069 S   0  0  0  0  0  0  0  0  0  0  0  0
   10.6296    1.0713    0.6201 C   0  0  0  0  0  0  0  0  0  0  0  0
    6.6144   -1.0213    2.5058 C   0  0  1  0  0  0  0  0  0  0  0  0
    7.1528   -1.5007    3.8474 C   0  0  0  0  0  0  0  0  0  0  0  0
    6.6757   -1.0738    4.8954 O   0  0  0  0  0  0  0  0  0  0  0  0
    8.1571   -2.4502    3.7304 N   0  0  0  0  0  0  0  0  0  0  0  0
    8.6285   -3.1974    4.8204 C   0  0  0  0  0  0  0  0  0  0  0  0
    9.8062   -3.9245    4.6827 C   0  0  0  0  0  0  0  0  0  0  0  0
   10.2627   -4.6782    5.7663 C   0  0  0  0  0  0  0  0  0  0  0  0
    9.5295   -4.6954    6.9466 C   0  0  0  0  0  0  0  0  0  0  0  0
    8.3658   -3.9547    6.9923 C   0  0  0  0  0  0  0  0  0  0  0  0
    7.9062   -3.2301    5.9544 N   0  0  0  0  0  0  0  0  0  0  0  0
    5.3505   -0.1537    2.7328 C   0  0  0  0  0  0  0  0  0  0  0  0
    3.0334    1.9210   -0.0001 H   0  0  0  0  0  0  0  0  0  0  0  0
    3.2334    0.3291   -0.8090 H   0  0  0  0  0  0  0  0  0  0  0  0
    5.9363    1.8950    0.9142 H   0  0  0  0  0  0  0  0  0  0  0  0
    5.2092    1.0763   -0.4526 H   0  0  0  0  0  0  0  0  0  0  0  0
    7.6277    0.5085   -0.3902 H   0  0  0  0  0  0  0  0  0  0  0  0
    6.6227   -0.9049   -0.1666 H   0  0  0  0  0  0  0  0  0  0  0  0
    8.7644    3.7925    1.2562 H   0  0  0  0  0  0  0  0  0  0  0  0
   10.6680    4.4235   -0.4523 H   0  0  0  0  0  0  0  0  0  0  0  0
   10.9518    0.0463    0.7448 H   0  0  0  0  0  0  0  0  0  0  0  0
    6.2939   -1.9288    1.9712 H   0  0  0  0  0  0  0  0  0  0  0  0
    8.6651   -2.5033    2.8594 H   0  0  0  0  0  0  0  0  0  0  0  0
   10.3829   -3.9031    3.7657 H   0  0  0  0  0  0  0  0  0  0  0  0
   11.1887   -5.2422    5.6957 H   0  0  0  0  0  0  0  0  0  0  0  0
    9.8522   -5.2661    7.8095 H   0  0  0  0  0  0  0  0  0  0  0  0
    7.7488   -3.9149    7.8846 H   0  0  0  0  0  0  0  0  0  0  0  0
    5.5750    0.7530    3.3051 H   0  0  0  0  0  0  0  0  0  0  0  0
    4.6208   -0.7114    3.3304 H   0  0  0  0  0  0  0  0  0  0  0  0
  1  2  1  0  0  0  0
  2  3  1  0  0  0  0
  2 28  1  0  0  0  0
  2 29  1  0  0  0  0
  3  4  2  0  0  0  0
  3  5  1  0  0  0  0
  5  6  1  0  0  0  0
  5 27  1  0  0  0  0
  6  7  1  0  0  0  0
  6 30  1  0  0  0  0
  6 31  1  0  0  0  0
  7  8  1  0  0  0  0
  7 32  1  0  0  0  0
  7 33  1  0  0  0  0
  8  9  1  0  0  0  0
  8 17  1  0  0  0  0
  9 10  2  0  0  0  0
  9 11  2  0  0  0  0
  9 12  1  0  0  0  0
 12 13  1  0  0  0  0
 12 16  2  0  0  0  0
 13 14  2  0  0  0  0
 13 34  1  0  0  0  0
 14 15  1  0  0  0  0
 14 35  1  0  0  0  0
 15 16  1  0  0  0  0
 16 36  1  0  0  0  0
 17 18  1  0  0  0  0
 17 27  1  0  0  0  0
 17 37  1  6  0  0  0
 18 19  2  0  0  0  0
 18 20  1  0  0  0  0
 20 21  1  0  0  0  0
 20 38  1  0  0  0  0
 21 22  1  0  0  0  0
 21 26  2  0  0  0  0
 22 23  2  0  0  0  0
 22 39  1  0  0  0  0
 23 24  1  0  0  0  0
 23 40  1  0  0  0  0
 24 25  2  0  0  0  0
 24 41  1  0  0  0  0
 25 26  1  0  0  0  0
 25 42  1  0  0  0  0
 27 43  1  0  0  0  0
 27 44  1  0  0  0  0
M  END
$$$$
