
 OpenBabel07202414143D

 43 46  0  0  1  0  0  0  0  0999 V2000
    1.0954    0.6526   -0.3109 C   0  0  0  0  0  0  0  0  0  0  0  0
    2.4165    0.1378   -0.2401 O   0  0  0  0  0  0  0  0  0  0  0  0
    2.8375   -0.6966   -1.3246 C   0  0  3  0  0  0  0  0  0  0  0  0
    3.0450    0.0644   -2.6849 C   0  0  0  0  0  0  0  0  0  0  0  0
    3.0614   -0.5778   -3.7384 O   0  0  0  0  0  0  0  0  0  0  0  0
    3.2539    1.4537   -2.6316 N   0  0  0  0  0  0  0  0  0  0  0  0
    3.4328    2.2339   -3.8243 C   0  0  0  0  0  0  0  0  0  0  0  0
    2.9282    1.7694   -5.0453 C   0  0  0  0  0  0  0  0  0  0  0  0
    3.2288    2.2647   -6.2628 N   0  0  0  0  0  0  0  0  0  0  0  0
    4.1208    3.2659   -6.2754 C   0  0  0  0  0  0  0  0  0  0  0  0
    4.5960    3.9046   -5.1364 C   0  0  0  0  0  0  0  0  0  0  0  0
    5.4486    5.0022   -5.2887 C   0  0  0  0  0  0  0  0  0  0  0  0
    5.6289    5.8809   -4.2341 C   0  0  0  0  0  0  0  0  0  0  0  0
    5.0905    5.5706   -2.9889 C   0  0  0  0  0  0  0  0  0  0  0  0
    4.4467    4.3345   -2.7775 C   0  0  0  0  0  0  0  0  0  0  0  0
    4.1529    3.4667   -3.8619 C   0  0  0  0  0  0  0  0  0  0  0  0
    1.8525   -1.8584   -1.6278 C   0  0  0  0  0  0  0  0  0  0  0  0
    1.8681   -2.8730   -0.5045 C   0  0  0  0  0  0  0  0  0  0  0  0
    3.1279   -3.5181   -0.4131 O   0  0  0  0  0  0  0  0  0  0  0  0
    4.2126   -2.6706   -0.4331 C   0  0  0  0  0  0  0  0  0  0  0  0
    5.4168   -3.2292    0.0140 C   0  0  0  0  0  0  0  0  0  0  0  0
    5.4673   -4.5130    0.3992 F   0  0  0  0  0  0  0  0  0  0  0  0
    6.5757   -2.4731    0.0857 C   0  0  0  0  0  0  0  0  0  0  0  0
    6.5128   -1.1382   -0.2885 C   0  0  0  0  0  0  0  0  0  0  0  0
    7.6155   -0.3859   -0.2268 F   0  0  0  0  0  0  0  0  0  0  0  0
    5.3299   -0.5630   -0.7503 C   0  0  0  0  0  0  0  0  0  0  0  0
    4.1507   -1.3288   -0.8369 C   0  0  0  0  0  0  0  0  0  0  0  0
    0.9574    1.3258    0.5394 H   0  0  0  0  0  0  0  0  0  0  0  0
    0.3498   -0.1412   -0.2208 H   0  0  0  0  0  0  0  0  0  0  0  0
    0.9384    1.2210   -1.2298 H   0  0  0  0  0  0  0  0  0  0  0  0
    3.5485    1.8440   -1.7435 H   0  0  0  0  0  0  0  0  0  0  0  0
    2.2138    0.9532   -5.0947 H   0  0  0  0  0  0  0  0  0  0  0  0
    4.3858    3.6118   -7.2705 H   0  0  0  0  0  0  0  0  0  0  0  0
    5.9256    5.2066   -6.2455 H   0  0  0  0  0  0  0  0  0  0  0  0
    6.1549    6.8182   -4.4018 H   0  0  0  0  0  0  0  0  0  0  0  0
    5.1729    6.2976   -2.1847 H   0  0  0  0  0  0  0  0  0  0  0  0
    4.0926    4.1162   -1.7745 H   0  0  0  0  0  0  0  0  0  0  0  0
    2.1513   -2.3929   -2.5446 H   0  0  0  0  0  0  0  0  0  0  0  0
    0.8336   -1.5022   -1.8049 H   0  0  0  0  0  0  0  0  0  0  0  0
    1.1287   -3.6551   -0.7088 H   0  0  0  0  0  0  0  0  0  0  0  0
    1.6125   -2.4316    0.4653 H   0  0  0  0  0  0  0  0  0  0  0  0
    7.5002   -2.9035    0.4444 H   0  0  0  0  0  0  0  0  0  0  0  0
    5.3539    0.4851   -1.0299 H   0  0  0  0  0  0  0  0  0  0  0  0
  1  2  1  0  0  0  0
  1 28  1  0  0  0  0
  1 29  1  0  0  0  0
  1 30  1  0  0  0  0
  2  3  1  0  0  0  0
  3  4  1  0  0  0  0
  3 17  1  0  0  0  0
  3 27  1  0  0  0  0
  4  5  2  0  0  0  0
  4  6  1  0  0  0  0
  6  7  1  0  0  0  0
  6 31  1  0  0  0  0
  7  8  1  0  0  0  0
  7 16  2  0  0  0  0
  8  9  2  0  0  0  0
  8 32  1  0  0  0  0
  9 10  1  0  0  0  0
 10 11  2  0  0  0  0
 10 33  1  0  0  0  0
 11 12  1  0  0  0  0
 11 16  1  0  0  0  0
 12 13  2  0  0  0  0
 12 34  1  0  0  0  0
 13 14  1  0  0  0  0
 13 35  1  0  0  0  0
 14 15  2  0  0  0  0
 14 36  1  0  0  0  0
 15 16  1  0  0  0  0
 15 37  1  0  0  0  0
 17 18  1  0  0  0  0
 17 38  1  0  0  0  0
 17 39  1  0  0  0  0
 18 19  1  0  0  0  0
 18 40  1  0  0  0  0
 18 41  1  0  0  0  0
 19 20  1  0  0  0  0
 20 21  1  0  0  0  0
 20 27  2  0  0  0  0
 21 22  1  0  0  0  0
 21 23  2  0  0  0  0
 23 24  1  0  0  0  0
 23 42  1  0  0  0  0
 24 25  1  0  0  0  0
 24 26  2  0  0  0  0
 26 27  1  0  0  0  0
 26 43  1  0  0  0  0
M  END
$$$$
