
 OpenBabel07202414173D

 57 61  0  0  1  0  0  0  0  0999 V2000
    1.0272   -0.0175   -0.1311 Cl  0  0  0  0  0  0  0  0  0  0  0  0
    2.7433   -0.0276   -0.0119 C   0  0  0  0  0  0  0  0  0  0  0  0
    3.4477    1.1637   -0.1579 C   0  0  0  0  0  0  0  0  0  0  0  0
    4.8361    1.1546   -0.0888 C   0  0  0  0  0  0  0  0  0  0  0  0
    5.5325   -0.0449    0.1343 C   0  0  0  0  0  0  0  0  0  0  0  0
    4.8208   -1.2447    0.3044 C   0  0  0  0  0  0  0  0  0  0  0  0
    3.4186   -1.2257    0.2224 C   0  0  0  0  0  0  0  0  0  0  0  0
    5.5641   -2.5444    0.5977 C   0  0  3  0  0  0  0  0  0  0  0  0
    5.4625   -2.9331    2.1006 C   0  0  0  0  0  0  0  0  0  0  0  0
    4.4520   -2.6533    2.7522 O   0  0  0  0  0  0  0  0  0  0  0  0
    6.4942   -3.6961    2.5906 N   0  0  0  0  0  0  0  0  0  0  0  0
    6.6712   -4.1950    3.9141 C   0  0  0  0  0  0  0  0  0  0  0  0
    5.7728   -3.9557    4.9527 C   0  0  0  0  0  0  0  0  0  0  0  0
    6.0268   -4.2211    6.2564 N   0  0  0  0  0  0  0  0  0  0  0  0
    7.2042   -4.8169    6.5316 C   0  0  0  0  0  0  0  0  0  0  0  0
    8.1140   -5.2517    5.5697 C   0  0  0  0  0  0  0  0  0  0  0  0
    9.2491   -6.0040    5.9253 C   0  0  0  0  0  0  0  0  0  0  0  0
   10.1417   -6.4513    4.9537 C   0  0  0  0  0  0  0  0  0  0  0  0
    9.9285   -6.1237    3.6233 C   0  0  0  0  0  0  0  0  0  0  0  0
    8.8078   -5.3727    3.2609 C   0  0  0  0  0  0  0  0  0  0  0  0
    7.8580   -4.9260    4.2184 C   0  0  0  0  0  0  0  0  0  0  0  0
    6.9769   -2.4568   -0.0085 C   0  0  0  0  0  0  0  0  0  0  0  0
    7.7275   -1.2615    0.5037 N   0  0  0  0  0  0  0  0  0  0  0  0
    9.3877   -1.2829    0.0766 S   0  0  0  0  0  0  0  0  0  0  0  0
    9.9000   -2.5076    0.6473 O   0  0  0  0  0  0  0  0  0  0  0  0
    9.4645   -1.0192   -1.3440 O   0  0  0  0  0  0  0  0  0  0  0  0
   10.0672    0.1213    0.9674 C   0  0  0  0  0  0  0  0  0  0  0  0
   11.5292    0.3775    0.6027 C   0  0  0  0  0  0  0  0  0  0  0  0
   12.3902   -0.7334    0.9606 C   0  0  0  0  0  0  0  0  0  0  0  0
   13.1105   -1.5902    1.2676 N   0  0  0  0  0  0  0  0  0  0  0  0
   12.0627    1.7460    1.1580 C   0  0  0  0  0  0  0  0  0  0  0  0
   12.8250    1.9356   -0.1687 C   0  0  0  0  0  0  0  0  0  0  0  0
   11.8000    0.9819   -0.8154 C   0  0  0  0  0  0  0  0  0  0  0  0
    7.0400   -0.0021    0.1091 C   0  0  0  0  0  0  0  0  0  0  0  0
    2.9224    2.0987   -0.3329 H   0  0  0  0  0  0  0  0  0  0  0  0
    5.3799    2.0883   -0.2178 H   0  0  0  0  0  0  0  0  0  0  0  0
    2.8497   -2.1435    0.3577 H   0  0  0  0  0  0  0  0  0  0  0  0
    5.0490   -3.3560    0.0644 H   0  0  0  0  0  0  0  0  0  0  0  0
    7.3208   -3.7842    2.0237 H   0  0  0  0  0  0  0  0  0  0  0  0
    4.7944   -3.5147    4.7924 H   0  0  0  0  0  0  0  0  0  0  0  0
    7.4017   -4.9485    7.5926 H   0  0  0  0  0  0  0  0  0  0  0  0
    9.4280   -6.2729    6.9642 H   0  0  0  0  0  0  0  0  0  0  0  0
   10.9990   -7.0574    5.2342 H   0  0  0  0  0  0  0  0  0  0  0  0
   10.6264   -6.4558    2.8584 H   0  0  0  0  0  0  0  0  0  0  0  0
    8.6864   -5.1750    2.1994 H   0  0  0  0  0  0  0  0  0  0  0  0
    6.9019   -2.3824   -1.1022 H   0  0  0  0  0  0  0  0  0  0  0  0
    7.5406   -3.3734    0.1886 H   0  0  0  0  0  0  0  0  0  0  0  0
    9.9381   -0.0670    2.0351 H   0  0  0  0  0  0  0  0  0  0  0  0
    9.4738    0.9999    0.6861 H   0  0  0  0  0  0  0  0  0  0  0  0
   12.6939    1.7087    2.0529 H   0  0  0  0  0  0  0  0  0  0  0  0
   11.2906    2.5097    1.3206 H   0  0  0  0  0  0  0  0  0  0  0  0
   13.8478    1.5416   -0.1536 H   0  0  0  0  0  0  0  0  0  0  0  0
   12.8481    2.9536   -0.5647 H   0  0  0  0  0  0  0  0  0  0  0  0
   12.2066    0.3054   -1.5724 H   0  0  0  0  0  0  0  0  0  0  0  0
   10.9444    1.5137   -1.2522 H   0  0  0  0  0  0  0  0  0  0  0  0
    7.3357    0.2806   -0.9075 H   0  0  0  0  0  0  0  0  0  0  0  0
    7.3508    0.7827    0.8073 H   0  0  0  0  0  0  0  0  0  0  0  0
  1  2  1  0  0  0  0
  2  3  1  0  0  0  0
  2  7  2  0  0  0  0
  3  4  2  0  0  0  0
  3 35  1  0  0  0  0
  4  5  1  0  0  0  0
  4 36  1  0  0  0  0
  5  6  2  0  0  0  0
  5 34  1  0  0  0  0
  6  7  1  0  0  0  0
  6  8  1  0  0  0  0
  7 37  1  0  0  0  0
  8  9  1  0  0  0  0
  8 22  1  0  0  0  0
  8 38  1  0  0  0  0
  9 10  2  0  0  0  0
  9 11  1  0  0  0  0
 11 12  1  0  0  0  0
 11 39  1  0  0  0  0
 12 13  1  0  0  0  0
 12 21  2  0  0  0  0
 13 14  2  0  0  0  0
 13 40  1  0  0  0  0
 14 15  1  0  0  0  0
 15 16  2  0  0  0  0
 15 41  1  0  0  0  0
 16 17  1  0  0  0  0
 16 21  1  0  0  0  0
 17 18  2  0  0  0  0
 17 42  1  0  0  0  0
 18 19  1  0  0  0  0
 18 43  1  0  0  0  0
 19 20  2  0  0  0  0
 19 44  1  0  0  0  0
 20 21  1  0  0  0  0
 20 45  1  0  0  0  0
 22 23  1  0  0  0  0
 22 46  1  0  0  0  0
 22 47  1  0  0  0  0
 23 24  1  0  0  0  0
 23 34  1  0  0  0  0
 24 25  2  0  0  0  0
 24 26  2  0  0  0  0
 24 27  1  0  0  0  0
 27 28  1  0  0  0  0
 27 48  1  0  0  0  0
 27 49  1  0  0  0  0
 28 29  1  0  0  0  0
 28 31  1  0  0  0  0
 28 33  1  0  0  0  0
 29 30  3  0  0  0  0
 31 32  1  0  0  0  0
 31 50  1  0  0  0  0
 31 51  1  0  0  0  0
 32 33  1  0  0  0  0
 32 52  1  0  0  0  0
 32 53  1  0  0  0  0
 33 54  1  0  0  0  0
 33 55  1  0  0  0  0
 34 56  1  0  0  0  0
 34 57  1  0  0  0  0
M  END
$$$$
