
 OpenBabel07202414113D

 56 58  0  0  1  0  0  0  0  0999 V2000
    6.2170   -2.8351    1.3915 C   0  0  0  0  0  0  0  0  0  0  0  0
    5.9756   -1.5446    1.4981 C   0  0  0  0  0  0  0  0  0  0  0  0
    4.8989   -0.8458    0.7167 C   0  0  0  0  0  0  0  0  0  0  0  0
    4.2696   -1.5116   -0.1006 O   0  0  0  0  0  0  0  0  0  0  0  0
    4.6802    0.5217    1.0054 N   0  0  0  0  0  0  0  0  0  0  0  0
    3.5555    1.2538    0.4282 C   0  0  0  0  0  0  0  0  0  0  0  0
    2.4481    0.5972   -0.1380 C   0  0  0  0  0  0  0  0  0  0  0  0
    1.3616    1.3150   -0.6793 C   0  0  0  0  0  0  0  0  0  0  0  0
    1.3415    2.7103   -0.6571 C   0  0  0  0  0  0  0  0  0  0  0  0
    2.4193    3.3758   -0.0675 C   0  0  0  0  0  0  0  0  0  0  0  0
    3.5040    2.6621    0.4523 C   0  0  0  0  0  0  0  0  0  0  0  0
    0.1934    3.4999   -1.2344 C   0  0  0  0  0  0  0  0  0  0  0  0
   -0.7889    2.7244   -1.7707 F   0  0  0  0  0  0  0  0  0  0  0  0
   -0.4156    4.2846   -0.3017 F   0  0  0  0  0  0  0  0  0  0  0  0
    0.5880    4.3436   -2.2292 F   0  0  0  0  0  0  0  0  0  0  0  0
    5.3967    1.1866    2.1332 C   0  0  3  0  0  0  0  0  0  0  0  0
    5.1132    0.5093    3.4899 C   0  0  0  0  0  0  0  0  0  0  0  0
    4.2033   -0.5644    3.6403 C   0  0  0  0  0  0  0  0  0  0  0  0
    4.0974   -1.2399    4.8445 C   0  0  0  0  0  0  0  0  0  0  0  0
    4.8442   -0.7808    5.9091 C   0  0  0  0  0  0  0  0  0  0  0  0
    5.6623    0.2951    5.8351 N   0  0  0  0  0  0  0  0  0  0  0  0
    5.7686    0.9206    4.6409 C   0  0  0  0  0  0  0  0  0  0  0  0
    3.2888   -2.3255    4.9840 O   0  0  0  0  0  0  0  0  0  0  0  0
    6.9180    1.5111    1.8510 C   0  0  0  0  0  0  0  0  0  0  0  0
    7.4810    2.4210    2.4657 O   0  0  0  0  0  0  0  0  0  0  0  0
    7.6575    0.6809    1.0231 N   0  0  0  0  0  0  0  0  0  0  0  0
    9.0947    0.8601    0.8789 C   0  0  0  0  0  0  0  0  0  0  0  0
    9.7620   -0.1999   -0.0061 C   0  0  0  0  0  0  0  0  0  0  0  0
   11.2428    0.0601   -0.1617 C   0  0  0  0  0  0  0  0  0  0  0  0
   11.7131    0.8884   -1.1952 C   0  0  0  0  0  0  0  0  0  0  0  0
   13.0764    1.1751   -1.3156 C   0  0  0  0  0  0  0  0  0  0  0  0
   13.9838    0.6456   -0.4020 C   0  0  0  0  0  0  0  0  0  0  0  0
   13.5231   -0.1784    0.6166 C   0  0  0  0  0  0  0  0  0  0  0  0
   12.1673   -0.4764    0.7456 C   0  0  0  0  0  0  0  0  0  0  0  0
   14.3959   -0.6898    1.4951 F   0  0  0  0  0  0  0  0  0  0  0  0
    6.9927   -3.2972    1.9959 H   0  0  0  0  0  0  0  0  0  0  0  0
    5.6396   -3.4783    0.7243 H   0  0  0  0  0  0  0  0  0  0  0  0
    6.5862   -1.0244    2.2244 H   0  0  0  0  0  0  0  0  0  0  0  0
    2.3484   -0.4771   -0.1409 H   0  0  0  0  0  0  0  0  0  0  0  0
    0.5274    0.7617   -1.1090 H   0  0  0  0  0  0  0  0  0  0  0  0
    2.4211    4.4640   -0.0146 H   0  0  0  0  0  0  0  0  0  0  0  0
    4.3095    3.2733    0.8502 H   0  0  0  0  0  0  0  0  0  0  0  0
    4.9737    2.1817    2.2968 H   0  0  0  0  0  0  0  0  0  0  0  0
    3.6206   -0.9417    2.8060 H   0  0  0  0  0  0  0  0  0  0  0  0
    4.7922   -1.2738    6.8726 H   0  0  0  0  0  0  0  0  0  0  0  0
    6.4391    1.7777    4.6460 H   0  0  0  0  0  0  0  0  0  0  0  0
    2.8367   -2.5033    4.1388 H   0  0  0  0  0  0  0  0  0  0  0  0
    7.1999    0.0767    0.3540 H   0  0  0  0  0  0  0  0  0  0  0  0
    9.5402    0.8499    1.8820 H   0  0  0  0  0  0  0  0  0  0  0  0
    9.2360    1.8595    0.4604 H   0  0  0  0  0  0  0  0  0  0  0  0
    9.2892   -0.2113   -0.9964 H   0  0  0  0  0  0  0  0  0  0  0  0
    9.6041   -1.2051    0.4066 H   0  0  0  0  0  0  0  0  0  0  0  0
   11.0193    1.3145   -1.9157 H   0  0  0  0  0  0  0  0  0  0  0  0
   13.4271    1.8188   -2.1187 H   0  0  0  0  0  0  0  0  0  0  0  0
   15.0435    0.8708   -0.4752 H   0  0  0  0  0  0  0  0  0  0  0  0
   11.8518   -1.1219    1.5596 H   0  0  0  0  0  0  0  0  0  0  0  0
  1  2  2  0  0  0  0
  1 36  1  0  0  0  0
  1 37  1  0  0  0  0
  2  3  1  0  0  0  0
  2 38  1  0  0  0  0
  3  4  2  0  0  0  0
  3  5  1  0  0  0  0
  5  6  1  0  0  0  0
  5 16  1  0  0  0  0
  6  7  1  0  0  0  0
  6 11  2  0  0  0  0
  7  8  2  0  0  0  0
  7 39  1  0  0  0  0
  8  9  1  0  0  0  0
  8 40  1  0  0  0  0
  9 10  2  0  0  0  0
  9 12  1  0  0  0  0
 10 11  1  0  0  0  0
 10 41  1  0  0  0  0
 11 42  1  0  0  0  0
 12 13  1  0  0  0  0
 12 14  1  0  0  0  0
 12 15  1  0  0  0  0
 16 17  1  0  0  0  0
 16 24  1  0  0  0  0
 16 43  1  0  0  0  0
 17 18  1  0  0  0  0
 17 22  2  0  0  0  0
 18 19  2  0  0  0  0
 18 44  1  0  0  0  0
 19 20  1  0  0  0  0
 19 23  1  0  0  0  0
 20 21  2  0  0  0  0
 20 45  1  0  0  0  0
 21 22  1  0  0  0  0
 22 46  1  0  0  0  0
 23 47  1  0  0  0  0
 24 25  2  0  0  0  0
 24 26  1  0  0  0  0
 26 27  1  0  0  0  0
 26 48  1  0  0  0  0
 27 28  1  0  0  0  0
 27 49  1  0  0  0  0
 27 50  1  0  0  0  0
 28 29  1  0  0  0  0
 28 51  1  0  0  0  0
 28 52  1  0  0  0  0
 29 30  1  0  0  0  0
 29 34  2  0  0  0  0
 30 31  2  0  0  0  0
 30 53  1  0  0  0  0
 31 32  1  0  0  0  0
 31 54  1  0  0  0  0
 32 33  2  0  0  0  0
 32 55  1  0  0  0  0
 33 34  1  0  0  0  0
 33 35  1  0  0  0  0
 34 56  1  0  0  0  0
M  END
$$$$
