
 OpenBabel07202414153D

 38 40  0  0  0  0  0  0  0  0999 V2000
    1.1396   -0.1405    0.1033 C   0  0  0  0  0  0  0  0  0  0  0  0
    2.5315   -0.1973   -0.2025 O   0  0  0  0  0  0  0  0  0  0  0  0
    2.9964    0.8381   -0.9662 C   0  0  0  0  0  0  0  0  0  0  0  0
    2.4762    2.1257   -0.9443 C   0  0  0  0  0  0  0  0  0  0  0  0
    3.0030    3.1081   -1.7803 C   0  0  0  0  0  0  0  0  0  0  0  0
    4.0720    2.8325   -2.6663 C   0  0  0  0  0  0  0  0  0  0  0  0
    4.5742    3.7667   -3.6009 C   0  0  0  0  0  0  0  0  0  0  0  0
    4.0794    5.0957   -3.6259 N   0  0  0  0  0  0  0  0  0  0  0  0
    3.7434    5.7505   -4.7988 C   0  0  0  0  0  0  0  0  0  0  0  0
    3.8121    5.2569   -5.9208 O   0  0  0  0  0  0  0  0  0  0  0  0
    3.2426    7.1672   -4.5769 C   0  0  0  0  0  0  0  0  0  0  0  0
    1.7804    7.2842   -4.2065 C   0  0  0  0  0  0  0  0  0  0  0  0
    0.7768    6.7958   -5.0554 C   0  0  0  0  0  0  0  0  0  0  0  0
   -0.5757    7.0014   -4.7571 C   0  0  0  0  0  0  0  0  0  0  0  0
   -0.9412    7.6964   -3.6057 C   0  0  0  0  0  0  0  0  0  0  0  0
    0.0473    8.1795   -2.7531 C   0  0  0  0  0  0  0  0  0  0  0  0
   -0.3954    9.0542   -1.3382 Cl  0  0  0  0  0  0  0  0  0  0  0  0
    1.3988    7.9768   -3.0453 C   0  0  0  0  0  0  0  0  0  0  0  0
    5.5842    3.3521   -4.4695 C   0  0  0  0  0  0  0  0  0  0  0  0
    6.1453    2.1203   -4.4542 N   0  0  0  0  0  0  0  0  0  0  0  0
    5.6448    1.2446   -3.5554 C   0  0  0  0  0  0  0  0  0  0  0  0
    4.6112    1.5268   -2.6597 C   0  0  0  0  0  0  0  0  0  0  0  0
    4.0809    0.5479   -1.7966 C   0  0  0  0  0  0  0  0  0  0  0  0
    0.8700   -1.0663    0.6193 H   0  0  0  0  0  0  0  0  0  0  0  0
    0.5389   -0.0758   -0.8114 H   0  0  0  0  0  0  0  0  0  0  0  0
    0.9091    0.6874    0.7811 H   0  0  0  0  0  0  0  0  0  0  0  0
    1.6555    2.4014   -0.2918 H   0  0  0  0  0  0  0  0  0  0  0  0
    2.5293    4.0847   -1.7529 H   0  0  0  0  0  0  0  0  0  0  0  0
    3.6362    5.4408   -2.7858 H   0  0  0  0  0  0  0  0  0  0  0  0
    3.4196    7.7384   -5.4972 H   0  0  0  0  0  0  0  0  0  0  0  0
    3.8723    7.6343   -3.8090 H   0  0  0  0  0  0  0  0  0  0  0  0
    1.0369    6.2721   -5.9758 H   0  0  0  0  0  0  0  0  0  0  0  0
   -1.3448    6.6331   -5.4330 H   0  0  0  0  0  0  0  0  0  0  0  0
   -1.9923    7.8706   -3.3863 H   0  0  0  0  0  0  0  0  0  0  0  0
    2.1521    8.3894   -2.3785 H   0  0  0  0  0  0  0  0  0  0  0  0
    6.0185    4.0301   -5.2006 H   0  0  0  0  0  0  0  0  0  0  0  0
    6.1033    0.2572   -3.5936 H   0  0  0  0  0  0  0  0  0  0  0  0
    4.4849   -0.4623   -1.7976 H   0  0  0  0  0  0  0  0  0  0  0  0
  1  2  1  0  0  0  0
  1 24  1  0  0  0  0
  1 25  1  0  0  0  0
  1 26  1  0  0  0  0
  2  3  1  0  0  0  0
  3  4  1  0  0  0  0
  3 23  2  0  0  0  0
  4  5  2  0  0  0  0
  4 27  1  0  0  0  0
  5  6  1  0  0  0  0
  5 28  1  0  0  0  0
  6  7  1  0  0  0  0
  6 22  2  0  0  0  0
  7  8  1  0  0  0  0
  7 19  2  0  0  0  0
  8  9  1  0  0  0  0
  8 29  1  0  0  0  0
  9 10  2  0  0  0  0
  9 11  1  0  0  0  0
 11 12  1  0  0  0  0
 11 30  1  0  0  0  0
 11 31  1  0  0  0  0
 12 13  1  0  0  0  0
 12 18  2  0  0  0  0
 13 14  2  0  0  0  0
 13 32  1  0  0  0  0
 14 15  1  0  0  0  0
 14 33  1  0  0  0  0
 15 16  2  0  0  0  0
 15 34  1  0  0  0  0
 16 17  1  0  0  0  0
 16 18  1  0  0  0  0
 18 35  1  0  0  0  0
 19 20  1  0  0  0  0
 19 36  1  0  0  0  0
 20 21  2  0  0  0  0
 21 22  1  0  0  0  0
 21 37  1  0  0  0  0
 22 23  1  0  0  0  0
 23 38  1  0  0  0  0
M  END
$$$$
