
 OpenBabel07202414173D

 39 42  0  0  1  0  0  0  0  0999 V2000
    2.1831   -6.0150   -1.4995 Cl  0  0  0  0  0  0  0  0  0  0  0  0
    2.6165   -4.3995   -1.0933 C   0  0  0  0  0  0  0  0  0  0  0  0
    1.7924   -3.3423   -1.4602 C   0  0  0  0  0  0  0  0  0  0  0  0
    2.1692   -2.0373   -1.1476 C   0  0  0  0  0  0  0  0  0  0  0  0
    3.3592   -1.7881   -0.4586 C   0  0  0  0  0  0  0  0  0  0  0  0
    4.1846   -2.8483   -0.0673 C   0  0  0  0  0  0  0  0  0  0  0  0
    3.8065   -4.1627   -0.4023 C   0  0  0  0  0  0  0  0  0  0  0  0
    5.4686   -2.5880    0.6834 C   0  0  3  0  0  0  0  0  0  0  0  0
    5.3381   -2.9502    2.1768 C   0  0  0  0  0  0  0  0  0  0  0  0
    4.9919   -2.1383    3.0317 O   0  0  0  0  0  0  0  0  0  0  0  0
    5.6587   -4.2827    2.4161 N   0  0  0  0  0  0  0  0  0  0  0  0
    5.7614   -4.9582    3.6529 C   0  0  0  0  0  0  0  0  0  0  0  0
    5.4656   -4.3621    4.8739 C   0  0  0  0  0  0  0  0  0  0  0  0
    5.7693   -4.9035    6.0770 N   0  0  0  0  0  0  0  0  0  0  0  0
    6.3441   -6.1247    6.0619 C   0  0  0  0  0  0  0  0  0  0  0  0
    6.5504   -6.8867    4.9147 C   0  0  0  0  0  0  0  0  0  0  0  0
    7.0280   -8.2095    4.9918 C   0  0  0  0  0  0  0  0  0  0  0  0
    7.2091   -8.9724    3.8414 C   0  0  0  0  0  0  0  0  0  0  0  0
    6.9389   -8.4154    2.5999 C   0  0  0  0  0  0  0  0  0  0  0  0
    6.4712   -7.1007    2.5117 C   0  0  0  0  0  0  0  0  0  0  0  0
    6.2573   -6.2958    3.6618 C   0  0  0  0  0  0  0  0  0  0  0  0
    5.9110   -1.1443    0.4613 C   0  0  0  0  0  0  0  0  0  0  0  0
    4.7399   -0.1893    0.6249 C   0  0  0  0  0  0  0  0  0  0  0  0
    3.6633   -0.4683   -0.2675 O   0  0  0  0  0  0  0  0  0  0  0  0
    0.8652   -3.5209   -2.0005 H   0  0  0  0  0  0  0  0  0  0  0  0
    1.5384   -1.2047   -1.4501 H   0  0  0  0  0  0  0  0  0  0  0  0
    4.4389   -5.0041   -0.1404 H   0  0  0  0  0  0  0  0  0  0  0  0
    6.2611   -3.2168    0.2524 H   0  0  0  0  0  0  0  0  0  0  0  0
    6.0149   -4.7835    1.6164 H   0  0  0  0  0  0  0  0  0  0  0  0
    4.9678   -3.3995    4.9490 H   0  0  0  0  0  0  0  0  0  0  0  0
    6.6420   -6.4904    7.0429 H   0  0  0  0  0  0  0  0  0  0  0  0
    7.2336   -8.6648    5.9594 H   0  0  0  0  0  0  0  0  0  0  0  0
    7.5488  -10.0029    3.9149 H   0  0  0  0  0  0  0  0  0  0  0  0
    7.0761   -9.0054    1.6968 H   0  0  0  0  0  0  0  0  0  0  0  0
    6.2428   -6.7383    1.5152 H   0  0  0  0  0  0  0  0  0  0  0  0
    6.2889   -1.0534   -0.5662 H   0  0  0  0  0  0  0  0  0  0  0  0
    6.7318   -0.8711    1.1351 H   0  0  0  0  0  0  0  0  0  0  0  0
    5.0819    0.8269    0.3978 H   0  0  0  0  0  0  0  0  0  0  0  0
    4.3569   -0.1680    1.6493 H   0  0  0  0  0  0  0  0  0  0  0  0
  1  2  1  0  0  0  0
  2  3  1  0  0  0  0
  2  7  2  0  0  0  0
  3  4  2  0  0  0  0
  3 25  1  0  0  0  0
  4  5  1  0  0  0  0
  4 26  1  0  0  0  0
  5  6  2  0  0  0  0
  5 24  1  0  0  0  0
  6  7  1  0  0  0  0
  6  8  1  0  0  0  0
  7 27  1  0  0  0  0
  8  9  1  0  0  0  0
  8 22  1  0  0  0  0
  8 28  1  0  0  0  0
  9 10  2  0  0  0  0
  9 11  1  0  0  0  0
 11 12  1  0  0  0  0
 11 29  1  0  0  0  0
 12 13  1  0  0  0  0
 12 21  2  0  0  0  0
 13 14  2  0  0  0  0
 13 30  1  0  0  0  0
 14 15  1  0  0  0  0
 15 16  2  0  0  0  0
 15 31  1  0  0  0  0
 16 17  1  0  0  0  0
 16 21  1  0  0  0  0
 17 18  2  0  0  0  0
 17 32  1  0  0  0  0
 18 19  1  0  0  0  0
 18 33  1  0  0  0  0
 19 20  2  0  0  0  0
 19 34  1  0  0  0  0
 20 21  1  0  0  0  0
 20 35  1  0  0  0  0
 22 23  1  0  0  0  0
 22 36  1  0  0  0  0
 22 37  1  0  0  0  0
 23 24  1  0  0  0  0
 23 38  1  0  0  0  0
 23 39  1  0  0  0  0
M  END
$$$$
