
 OpenBabel07202414153D

 45 48  0  0  0  0  0  0  0  0999 V2000
    6.1396   -2.9296   -1.5938 C   0  0  0  0  0  0  0  0  0  0  0  0
    5.8018   -2.1852   -0.4265 O   0  0  0  0  0  0  0  0  0  0  0  0
    5.3292   -2.9125    0.6466 C   0  0  0  0  0  0  0  0  0  0  0  0
    5.5820   -4.2714    0.8420 C   0  0  0  0  0  0  0  0  0  0  0  0
    5.0969   -4.9329    1.9726 C   0  0  0  0  0  0  0  0  0  0  0  0
    4.3682   -4.2296    2.9166 C   0  0  0  0  0  0  0  0  0  0  0  0
    4.1208   -2.8715    2.7442 C   0  0  0  0  0  0  0  0  0  0  0  0
    4.6014   -2.1872    1.6142 C   0  0  0  0  0  0  0  0  0  0  0  0
    4.2656   -0.8281    1.3785 N   0  0  0  0  0  0  0  0  0  0  0  0
    3.7347    0.0998    2.3433 C   0  0  0  0  0  0  0  0  0  0  0  0
    2.2292   -0.0768    2.6621 C   0  0  0  0  0  0  0  0  0  0  0  0
    2.0835    1.3362    2.4060 N   0  0  0  0  0  0  0  0  0  0  0  0
    3.3666    1.4578    1.7213 C   0  0  0  0  0  0  0  0  0  0  0  0
    1.1057    2.2773    2.4552 C   0  0  0  0  0  0  0  0  0  0  0  0
    1.2976    3.3609    1.8905 O   0  0  0  0  0  0  0  0  0  0  0  0
   -0.1101    2.0888    3.3234 C   0  0  0  0  0  0  0  0  0  0  0  0
   -0.6133    3.2914    3.6666 C   0  0  0  0  0  0  0  0  0  0  0  0
   -0.6603    3.6047    5.1190 C   0  0  0  0  0  0  0  0  0  0  0  0
   -0.7468    4.7657    5.5040 O   0  0  0  0  0  0  0  0  0  0  0  0
   -0.5204    2.5608    5.9890 N   0  0  0  0  0  0  0  0  0  0  0  0
   -0.5741    1.2338    5.5751 C   0  0  0  0  0  0  0  0  0  0  0  0
   -0.4533    0.9570    4.2046 C   0  0  0  0  0  0  0  0  0  0  0  0
   -0.8191   -0.3106    3.7516 C   0  0  0  0  0  0  0  0  0  0  0  0
   -1.2166   -1.2992    4.6691 C   0  0  0  0  0  0  0  0  0  0  0  0
   -1.2185   -1.0328    6.0404 C   0  0  0  0  0  0  0  0  0  0  0  0
   -0.8832    0.2385    6.5005 C   0  0  0  0  0  0  0  0  0  0  0  0
    6.4857   -2.2255   -2.3568 H   0  0  0  0  0  0  0  0  0  0  0  0
    5.2588   -3.4494   -1.9890 H   0  0  0  0  0  0  0  0  0  0  0  0
    6.9613   -3.6296   -1.4138 H   0  0  0  0  0  0  0  0  0  0  0  0
    6.1586   -4.8544    0.1331 H   0  0  0  0  0  0  0  0  0  0  0  0
    5.2949   -5.9916    2.1072 H   0  0  0  0  0  0  0  0  0  0  0  0
    3.9949   -4.7388    3.8054 H   0  0  0  0  0  0  0  0  0  0  0  0
    3.5482   -2.3498    3.5002 H   0  0  0  0  0  0  0  0  0  0  0  0
    4.9552   -0.4287    0.7383 H   0  0  0  0  0  0  0  0  0  0  0  0
    4.3781    0.1910    3.2274 H   0  0  0  0  0  0  0  0  0  0  0  0
    2.0324   -0.3788    3.6918 H   0  0  0  0  0  0  0  0  0  0  0  0
    1.6570   -0.6881    1.9580 H   0  0  0  0  0  0  0  0  0  0  0  0
    3.9708    2.3000    2.0736 H   0  0  0  0  0  0  0  0  0  0  0  0
    3.2575    1.4994    0.6340 H   0  0  0  0  0  0  0  0  0  0  0  0
   -0.4892    4.1904    3.0681 H   0  0  0  0  0  0  0  0  0  0  0  0
   -0.5497    2.8056    6.9723 H   0  0  0  0  0  0  0  0  0  0  0  0
   -0.8565   -0.5398    2.6882 H   0  0  0  0  0  0  0  0  0  0  0  0
   -1.5444   -2.2751    4.3156 H   0  0  0  0  0  0  0  0  0  0  0  0
   -1.5329   -1.7967    6.7482 H   0  0  0  0  0  0  0  0  0  0  0  0
   -0.9493    0.4635    7.5613 H   0  0  0  0  0  0  0  0  0  0  0  0
  1  2  1  0  0  0  0
  1 27  1  0  0  0  0
  1 28  1  0  0  0  0
  1 29  1  0  0  0  0
  2  3  1  0  0  0  0
  3  4  1  0  0  0  0
  3  8  2  0  0  0  0
  4  5  2  0  0  0  0
  4 30  1  0  0  0  0
  5  6  1  0  0  0  0
  5 31  1  0  0  0  0
  6  7  2  0  0  0  0
  6 32  1  0  0  0  0
  7  8  1  0  0  0  0
  7 33  1  0  0  0  0
  8  9  1  0  0  0  0
  9 10  1  0  0  0  0
  9 34  1  0  0  0  0
 10 11  1  0  0  0  0
 10 13  1  0  0  0  0
 10 35  1  0  0  0  0
 11 12  1  0  0  0  0
 11 36  1  0  0  0  0
 11 37  1  0  0  0  0
 12 13  1  0  0  0  0
 12 14  1  0  0  0  0
 13 38  1  0  0  0  0
 13 39  1  0  0  0  0
 14 15  2  0  0  0  0
 14 16  1  0  0  0  0
 16 17  2  0  0  0  0
 16 22  1  0  0  0  0
 17 18  1  0  0  0  0
 17 40  1  0  0  0  0
 18 19  2  0  0  0  0
 18 20  1  0  0  0  0
 20 21  1  0  0  0  0
 20 41  1  0  0  0  0
 21 22  1  0  0  0  0
 21 26  2  0  0  0  0
 22 23  2  0  0  0  0
 23 24  1  0  0  0  0
 23 42  1  0  0  0  0
 24 25  2  0  0  0  0
 24 43  1  0  0  0  0
 25 26  1  0  0  0  0
 25 44  1  0  0  0  0
 26 45  1  0  0  0  0
M  END
$$$$
