
 OpenBabel07202414123D

 49 51  0  0  0  0  0  0  0  0999 V2000
    2.7270    0.2672    1.4465 C   0  0  0  0  0  0  0  0  0  0  0  0
    2.3152   -0.9627    0.6375 C   0  0  0  0  0  0  0  0  0  0  0  0
    0.7881   -1.0373    0.5569 C   0  0  0  0  0  0  0  0  0  0  0  0
    2.9108   -0.9489   -0.7838 C   0  0  0  0  0  0  0  0  0  0  0  0
    4.3774   -1.0216   -0.8069 N   0  0  0  0  0  0  0  0  0  0  0  0
    4.9671   -2.2659   -0.7463 C   0  0  0  0  0  0  0  0  0  0  0  0
    6.2900   -2.5105   -0.8154 C   0  0  0  0  0  0  0  0  0  0  0  0
    7.1773   -1.3135   -0.9152 C   0  0  0  0  0  0  0  0  0  0  0  0
    8.5810   -1.3791   -0.9774 C   0  0  0  0  0  0  0  0  0  0  0  0
    9.3629   -0.2128   -1.0283 C   0  0  0  0  0  0  0  0  0  0  0  0
    8.7662    1.0440   -1.0055 C   0  0  0  0  0  0  0  0  0  0  0  0
    7.3823    1.1395   -0.9545 C   0  0  0  0  0  0  0  0  0  0  0  0
    6.5971   -0.0247   -0.9246 C   0  0  0  0  0  0  0  0  0  0  0  0
    5.1211    0.1430   -0.9097 C   0  0  0  0  0  0  0  0  0  0  0  0
    4.6299    1.2658   -0.9861 O   0  0  0  0  0  0  0  0  0  0  0  0
    6.8184   -3.8066   -0.7929 N   0  0  0  0  0  0  0  0  0  0  0  0
    6.0796   -4.9795   -0.6968 C   0  0  0  0  0  0  0  0  0  0  0  0
    4.8576   -5.0079   -0.6066 O   0  0  0  0  0  0  0  0  0  0  0  0
    6.8409   -6.1377   -0.6963 N   0  0  0  0  0  0  0  0  0  0  0  0
    6.2394   -7.4134   -0.6568 C   0  0  0  0  0  0  0  0  0  0  0  0
    4.8817   -7.7015   -1.0381 C   0  0  0  0  0  0  0  0  0  0  0  0
    4.5045   -8.9995   -0.7984 C   0  0  0  0  0  0  0  0  0  0  0  0
    5.8038   -9.9242   -0.2200 S   0  0  0  0  0  0  0  0  0  0  0  0
    6.8821   -8.5745   -0.2408 C   0  0  0  0  0  0  0  0  0  0  0  0
    8.2397   -8.8235    0.2057 C   0  0  0  0  0  0  0  0  0  0  0  0
    8.7027   -9.9018    0.5617 O   0  0  0  0  0  0  0  0  0  0  0  0
    8.9707   -7.6639    0.1837 O   0  0  0  0  0  0  0  0  0  0  0  0
   10.3147   -7.8483    0.6336 C   0  0  0  0  0  0  0  0  0  0  0  0
    2.2765    0.2448    2.4442 H   0  0  0  0  0  0  0  0  0  0  0  0
    2.4070    1.1903    0.9514 H   0  0  0  0  0  0  0  0  0  0  0  0
    3.8117    0.3086    1.5826 H   0  0  0  0  0  0  0  0  0  0  0  0
    2.6705   -1.8546    1.1695 H   0  0  0  0  0  0  0  0  0  0  0  0
    0.3758   -0.1645    0.0387 H   0  0  0  0  0  0  0  0  0  0  0  0
    0.3456   -1.0756    1.5581 H   0  0  0  0  0  0  0  0  0  0  0  0
    0.4678   -1.9343    0.0165 H   0  0  0  0  0  0  0  0  0  0  0  0
    2.5855   -0.0515   -1.3223 H   0  0  0  0  0  0  0  0  0  0  0  0
    2.5219   -1.8037   -1.3548 H   0  0  0  0  0  0  0  0  0  0  0  0
    4.2341   -3.0535   -0.6539 H   0  0  0  0  0  0  0  0  0  0  0  0
    9.1099   -2.3258   -0.9866 H   0  0  0  0  0  0  0  0  0  0  0  0
   10.4472   -0.2855   -1.0814 H   0  0  0  0  0  0  0  0  0  0  0  0
    9.3710    1.9474   -1.0318 H   0  0  0  0  0  0  0  0  0  0  0  0
    6.9087    2.1197   -0.9363 H   0  0  0  0  0  0  0  0  0  0  0  0
    7.8114   -3.9117   -0.9195 H   0  0  0  0  0  0  0  0  0  0  0  0
    7.8108   -6.0906   -0.4109 H   0  0  0  0  0  0  0  0  0  0  0  0
    4.1772   -6.9824   -1.4394 H   0  0  0  0  0  0  0  0  0  0  0  0
    3.5253   -9.4351   -0.9474 H   0  0  0  0  0  0  0  0  0  0  0  0
   10.8239   -6.8829    0.5810 H   0  0  0  0  0  0  0  0  0  0  0  0
   10.8435   -8.5553   -0.0140 H   0  0  0  0  0  0  0  0  0  0  0  0
   10.3259   -8.1904    1.6736 H   0  0  0  0  0  0  0  0  0  0  0  0
  1  2  1  0  0  0  0
  1 29  1  0  0  0  0
  1 30  1  0  0  0  0
  1 31  1  0  0  0  0
  2  3  1  0  0  0  0
  2  4  1  0  0  0  0
  2 32  1  0  0  0  0
  3 33  1  0  0  0  0
  3 34  1  0  0  0  0
  3 35  1  0  0  0  0
  4  5  1  0  0  0  0
  4 36  1  0  0  0  0
  4 37  1  0  0  0  0
  5  6  1  0  0  0  0
  5 14  1  0  0  0  0
  6  7  2  0  0  0  0
  6 38  1  0  0  0  0
  7  8  1  0  0  0  0
  7 16  1  0  0  0  0
  8  9  1  0  0  0  0
  8 13  2  0  0  0  0
  9 10  2  0  0  0  0
  9 39  1  0  0  0  0
 10 11  1  0  0  0  0
 10 40  1  0  0  0  0
 11 12  2  0  0  0  0
 11 41  1  0  0  0  0
 12 13  1  0  0  0  0
 12 42  1  0  0  0  0
 13 14  1  0  0  0  0
 14 15  2  0  0  0  0
 16 17  1  0  0  0  0
 16 43  1  0  0  0  0
 17 18  2  0  0  0  0
 17 19  1  0  0  0  0
 19 20  1  0  0  0  0
 19 44  1  0  0  0  0
 20 21  1  0  0  0  0
 20 24  2  0  0  0  0
 21 22  2  0  0  0  0
 21 45  1  0  0  0  0
 22 23  1  0  0  0  0
 22 46  1  0  0  0  0
 23 24  1  0  0  0  0
 24 25  1  0  0  0  0
 25 26  2  0  0  0  0
 25 27  1  0  0  0  0
 27 28  1  0  0  0  0
 28 47  1  0  0  0  0
 28 48  1  0  0  0  0
 28 49  1  0  0  0  0
M  END
$$$$
