
 OpenBabel07202414113D

 64 68  0  0  1  0  0  0  0  0999 V2000
   12.4401   -7.3566   -5.3309 C   0  0  0  0  0  0  0  0  0  0  0  0
   12.3307   -6.3417   -4.2267 C   0  0  0  0  0  0  0  0  0  0  0  0
   12.4194   -6.7019   -3.0569 O   0  0  0  0  0  0  0  0  0  0  0  0
   12.1229   -5.0464   -4.6852 N   0  0  0  0  0  0  0  0  0  0  0  0
   12.0265   -3.8973   -3.8616 C   0  0  0  0  0  0  0  0  0  0  0  0
   12.4761   -3.9057   -2.5480 C   0  0  0  0  0  0  0  0  0  0  0  0
   12.3066   -2.7894   -1.7281 C   0  0  0  0  0  0  0  0  0  0  0  0
   11.6873   -1.6341   -2.1902 C   0  0  0  0  0  0  0  0  0  0  0  0
   11.4437   -0.5152   -1.3574 N   0  0  0  0  0  0  0  0  0  0  0  0
   11.7689   -0.4169   -0.0108 C   0  0  0  0  0  0  0  0  0  0  0  0
   12.3353   -1.2678    0.6705 O   0  0  0  0  0  0  0  0  0  0  0  0
   11.3513    0.8914    0.6498 C   0  0  0  0  0  0  0  0  0  0  0  0
   12.0068    2.0805    0.0496 N   0  0  0  0  0  0  0  0  0  0  0  0
   11.5829    3.2492    0.8554 C   0  0  0  0  0  0  0  0  0  0  0  0
   12.3172    4.5302    0.5317 C   0  0  0  0  0  0  0  0  0  0  0  0
   11.7437    5.7505    0.9292 C   0  0  0  0  0  0  0  0  0  0  0  0
   12.4037    6.9526    0.6880 C   0  0  0  0  0  0  0  0  0  0  0  0
   13.6440    6.9398    0.0579 C   0  0  0  0  0  0  0  0  0  0  0  0
   14.4459    8.4292   -0.2605 Cl  0  0  0  0  0  0  0  0  0  0  0  0
   14.2351    5.7347   -0.3297 C   0  0  0  0  0  0  0  0  0  0  0  0
   13.5882    4.5132   -0.0807 C   0  0  0  0  0  0  0  0  0  0  0  0
   14.1541    3.1890   -0.5751 C   0  0  1  0  0  0  0  0  0  0  0  0
   15.6766    3.0085   -0.4508 C   0  0  0  0  0  0  0  0  0  0  0  0
   16.3272    3.5024    0.4642 O   0  0  0  0  0  0  0  0  0  0  0  0
   16.1912    2.2060   -1.4669 N   0  0  0  0  0  0  0  0  0  0  0  0
   17.5208    1.7251   -1.6251 C   0  0  0  0  0  0  0  0  0  0  0  0
   18.5365    1.9918   -0.7074 C   0  0  0  0  0  0  0  0  0  0  0  0
   19.7722    1.4375   -0.7475 N   0  0  0  0  0  0  0  0  0  0  0  0
   20.0391    0.6287   -1.7914 C   0  0  0  0  0  0  0  0  0  0  0  0
   19.1627    0.3907   -2.8466 C   0  0  0  0  0  0  0  0  0  0  0  0
   19.5817   -0.3332   -3.9788 C   0  0  0  0  0  0  0  0  0  0  0  0
   18.7184   -0.5404   -5.0500 C   0  0  0  0  0  0  0  0  0  0  0  0
   17.4120   -0.0803   -4.9727 C   0  0  0  0  0  0  0  0  0  0  0  0
   16.9808    0.6249   -3.8429 C   0  0  0  0  0  0  0  0  0  0  0  0
   17.8524    0.9206   -2.7603 C   0  0  0  0  0  0  0  0  0  0  0  0
   13.4843    1.9796    0.1172 C   0  0  0  0  0  0  0  0  0  0  0  0
   11.2840   -1.5978   -3.5314 C   0  0  0  0  0  0  0  0  0  0  0  0
   11.4673   -2.7213   -4.3667 C   0  0  0  0  0  0  0  0  0  0  0  0
   12.3819   -8.3600   -4.8950 H   0  0  0  0  0  0  0  0  0  0  0  0
   13.4034   -7.2483   -5.8347 H   0  0  0  0  0  0  0  0  0  0  0  0
   11.6194   -7.2444   -6.0426 H   0  0  0  0  0  0  0  0  0  0  0  0
   11.8907   -4.9300   -5.6631 H   0  0  0  0  0  0  0  0  0  0  0  0
   12.9766   -4.7616   -2.1093 H   0  0  0  0  0  0  0  0  0  0  0  0
   12.6695   -2.8977   -0.7123 H   0  0  0  0  0  0  0  0  0  0  0  0
   10.9890    0.2924   -1.7693 H   0  0  0  0  0  0  0  0  0  0  0  0
   11.5925    0.8066    1.7185 H   0  0  0  0  0  0  0  0  0  0  0  0
   10.2609    0.9742    0.5647 H   0  0  0  0  0  0  0  0  0  0  0  0
   11.7304    3.0598    1.9283 H   0  0  0  0  0  0  0  0  0  0  0  0
   10.5104    3.4080    0.6862 H   0  0  0  0  0  0  0  0  0  0  0  0
   10.7762    5.7676    1.4282 H   0  0  0  0  0  0  0  0  0  0  0  0
   11.9471    7.8910    0.9919 H   0  0  0  0  0  0  0  0  0  0  0  0
   15.2043    5.7564   -0.8223 H   0  0  0  0  0  0  0  0  0  0  0  0
   13.8987    3.1571   -1.6452 H   0  0  0  0  0  0  0  0  0  0  0  0
   15.5253    1.8750   -2.1490 H   0  0  0  0  0  0  0  0  0  0  0  0
   18.4076    2.6759    0.1244 H   0  0  0  0  0  0  0  0  0  0  0  0
   21.0247    0.1694   -1.7618 H   0  0  0  0  0  0  0  0  0  0  0  0
   20.6020   -0.7066   -4.0488 H   0  0  0  0  0  0  0  0  0  0  0  0
   19.0670   -1.0546   -5.9421 H   0  0  0  0  0  0  0  0  0  0  0  0
   16.7266   -0.2532   -5.7989 H   0  0  0  0  0  0  0  0  0  0  0  0
   15.9505    0.9651   -3.8509 H   0  0  0  0  0  0  0  0  0  0  0  0
   13.8255    1.8903    1.1586 H   0  0  0  0  0  0  0  0  0  0  0  0
   13.8219    1.0739   -0.4012 H   0  0  0  0  0  0  0  0  0  0  0  0
   10.8049   -0.7137   -3.9448 H   0  0  0  0  0  0  0  0  0  0  0  0
   11.1264   -2.6679   -5.3978 H   0  0  0  0  0  0  0  0  0  0  0  0
  1  2  1  0  0  0  0
  1 39  1  0  0  0  0
  1 40  1  0  0  0  0
  1 41  1  0  0  0  0
  2  3  2  0  0  0  0
  2  4  1  0  0  0  0
  4  5  1  0  0  0  0
  4 42  1  0  0  0  0
  5  6  1  0  0  0  0
  5 38  2  0  0  0  0
  6  7  2  0  0  0  0
  6 43  1  0  0  0  0
  7  8  1  0  0  0  0
  7 44  1  0  0  0  0
  8  9  1  0  0  0  0
  8 37  2  0  0  0  0
  9 10  1  0  0  0  0
  9 45  1  0  0  0  0
 10 11  2  0  0  0  0
 10 12  1  0  0  0  0
 12 13  1  0  0  0  0
 12 46  1  0  0  0  0
 12 47  1  0  0  0  0
 13 14  1  0  0  0  0
 13 36  1  0  0  0  0
 14 15  1  0  0  0  0
 14 48  1  0  0  0  0
 14 49  1  0  0  0  0
 15 16  1  0  0  0  0
 15 21  2  0  0  0  0
 16 17  2  0  0  0  0
 16 50  1  0  0  0  0
 17 18  1  0  0  0  0
 17 51  1  0  0  0  0
 18 19  1  0  0  0  0
 18 20  2  0  0  0  0
 20 21  1  0  0  0  0
 20 52  1  0  0  0  0
 21 22  1  0  0  0  0
 22 23  1  0  0  0  0
 22 36  1  0  0  0  0
 22 53  1  6  0  0  0
 23 24  2  0  0  0  0
 23 25  1  0  0  0  0
 25 26  1  0  0  0  0
 25 54  1  0  0  0  0
 26 27  1  0  0  0  0
 26 35  2  0  0  0  0
 27 28  2  0  0  0  0
 27 55  1  0  0  0  0
 28 29  1  0  0  0  0
 29 30  2  0  0  0  0
 29 56  1  0  0  0  0
 30 31  1  0  0  0  0
 30 35  1  0  0  0  0
 31 32  2  0  0  0  0
 31 57  1  0  0  0  0
 32 33  1  0  0  0  0
 32 58  1  0  0  0  0
 33 34  2  0  0  0  0
 33 59  1  0  0  0  0
 34 35  1  0  0  0  0
 34 60  1  0  0  0  0
 36 61  1  0  0  0  0
 36 62  1  0  0  0  0
 37 38  1  0  0  0  0
 37 63  1  0  0  0  0
 38 64  1  0  0  0  0
M  END
$$$$
