
 OpenBabel07202414203D

 37 39  0  0  0  0  0  0  0  0999 V2000
    3.0633    1.9123   -4.0170 C   0  0  0  0  0  0  0  0  0  0  0  0
    2.3916    2.1776   -2.8160 C   0  0  0  0  0  0  0  0  0  0  0  0
    3.1004    2.4248   -1.6289 C   0  0  0  0  0  0  0  0  0  0  0  0
    4.5072    2.3747   -1.6839 C   0  0  0  0  0  0  0  0  0  0  0  0
    5.1732    2.0939   -2.8855 C   0  0  0  0  0  0  0  0  0  0  0  0
    4.4520    1.8670   -4.0556 C   0  0  0  0  0  0  0  0  0  0  0  0
    6.8943    2.0293   -2.9152 Cl  0  0  0  0  0  0  0  0  0  0  0  0
    2.3549    2.6603   -0.3282 C   0  0  0  0  0  0  0  0  0  0  0  0
    1.4033    3.8528   -0.3163 C   0  0  0  0  0  0  0  0  0  0  0  0
    0.2121    3.7174   -0.6332 O   0  0  0  0  0  0  0  0  0  0  0  0
    1.9487    5.0703    0.0601 N   0  0  0  0  0  0  0  0  0  0  0  0
    1.1038    6.2152    0.0237 C   0  0  0  0  0  0  0  0  0  0  0  0
   -0.0563    6.2676    0.8029 C   0  0  0  0  0  0  0  0  0  0  0  0
   -0.9544    7.2772    0.7861 N   0  0  0  0  0  0  0  0  0  0  0  0
   -0.6871    8.2863   -0.0701 C   0  0  0  0  0  0  0  0  0  0  0  0
    0.4350    8.3539   -0.9022 C   0  0  0  0  0  0  0  0  0  0  0  0
    1.3547    7.2865   -0.8508 C   0  0  0  0  0  0  0  0  0  0  0  0
    2.5200    7.2674   -1.8096 C   0  0  0  0  0  0  0  0  0  0  0  0
    2.3362    8.2589   -2.9577 C   0  0  0  0  0  0  0  0  0  0  0  0
    1.9127    9.6070   -2.4021 C   0  0  0  0  0  0  0  0  0  0  0  0
    0.6687    9.4910   -1.6696 N   0  0  0  0  0  0  0  0  0  0  0  0
    2.4906    1.7368   -4.9290 H   0  0  0  0  0  0  0  0  0  0  0  0
    1.3027    2.1893   -2.8130 H   0  0  0  0  0  0  0  0  0  0  0  0
    5.1169    2.5461   -0.8012 H   0  0  0  0  0  0  0  0  0  0  0  0
    4.9714    1.6528   -4.9883 H   0  0  0  0  0  0  0  0  0  0  0  0
    3.0562    2.7724    0.5013 H   0  0  0  0  0  0  0  0  0  0  0  0
    1.7550    1.7667   -0.0970 H   0  0  0  0  0  0  0  0  0  0  0  0
    2.9234    5.1988   -0.1786 H   0  0  0  0  0  0  0  0  0  0  0  0
   -0.3019    5.4654    1.4935 H   0  0  0  0  0  0  0  0  0  0  0  0
   -1.4266    9.0817   -0.0713 H   0  0  0  0  0  0  0  0  0  0  0  0
    2.6324    6.2683   -2.2490 H   0  0  0  0  0  0  0  0  0  0  0  0
    3.4354    7.5000   -1.2541 H   0  0  0  0  0  0  0  0  0  0  0  0
    1.5720    7.8868   -3.6531 H   0  0  0  0  0  0  0  0  0  0  0  0
    3.2703    8.3523   -3.5223 H   0  0  0  0  0  0  0  0  0  0  0  0
    1.7940   10.3334   -3.2128 H   0  0  0  0  0  0  0  0  0  0  0  0
    2.6826    9.9974   -1.7261 H   0  0  0  0  0  0  0  0  0  0  0  0
   -0.1393   10.0043   -2.0068 H   0  0  0  0  0  0  0  0  0  0  0  0
  1  2  1  0  0  0  0
  1  6  2  0  0  0  0
  1 22  1  0  0  0  0
  2  3  2  0  0  0  0
  2 23  1  0  0  0  0
  3  4  1  0  0  0  0
  3  8  1  0  0  0  0
  4  5  2  0  0  0  0
  4 24  1  0  0  0  0
  5  6  1  0  0  0  0
  5  7  1  0  0  0  0
  6 25  1  0  0  0  0
  8  9  1  0  0  0  0
  8 26  1  0  0  0  0
  8 27  1  0  0  0  0
  9 10  2  0  0  0  0
  9 11  1  0  0  0  0
 11 12  1  0  0  0  0
 11 28  1  0  0  0  0
 12 13  1  0  0  0  0
 12 17  2  0  0  0  0
 13 14  2  0  0  0  0
 13 29  1  0  0  0  0
 14 15  1  0  0  0  0
 15 16  2  0  0  0  0
 15 30  1  0  0  0  0
 16 17  1  0  0  0  0
 16 21  1  0  0  0  0
 17 18  1  0  0  0  0
 18 19  1  0  0  0  0
 18 31  1  0  0  0  0
 18 32  1  0  0  0  0
 19 20  1  0  0  0  0
 19 33  1  0  0  0  0
 19 34  1  0  0  0  0
 20 21  1  0  0  0  0
 20 35  1  0  0  0  0
 20 36  1  0  0  0  0
 21 37  1  0  0  0  0
M  END
$$$$
