
 OpenBabel07202414113D

 45 48  0  0  1  0  0  0  0  0999 V2000
    1.4904    0.8447   -0.5313 C   0  0  0  0  0  0  0  0  0  0  0  0
    2.6427   -0.0257   -0.0783 C   0  0  0  0  0  0  0  0  0  0  0  0
    2.9224   -0.0279    1.1213 O   0  0  0  0  0  0  0  0  0  0  0  0
    3.2811   -0.7979   -1.0642 N   0  0  0  0  0  0  0  0  0  0  0  0
    2.8731   -0.7388   -2.4743 C   0  0  0  0  0  0  0  0  0  0  0  0
    2.7268   -2.1285   -3.0481 C   0  0  0  0  0  0  0  0  0  0  0  0
    4.0713   -2.8466   -3.0214 C   0  0  1  0  0  0  0  0  0  0  0  0
    4.8648   -2.5729   -1.7577 C   0  0  0  0  0  0  0  0  0  0  0  0
    4.4420   -1.6153   -0.8015 C   0  0  0  0  0  0  0  0  0  0  0  0
    5.2314   -1.4546    0.3503 C   0  0  0  0  0  0  0  0  0  0  0  0
    6.4158   -2.1784    0.5389 C   0  0  0  0  0  0  0  0  0  0  0  0
    6.8484   -3.0636   -0.4345 C   0  0  0  0  0  0  0  0  0  0  0  0
    6.0865   -3.2585   -1.5809 C   0  0  0  0  0  0  0  0  0  0  0  0
    8.3239   -3.9198   -0.2298 Cl  0  0  0  0  0  0  0  0  0  0  0  0
    3.8006   -4.3112   -3.3658 C   0  0  0  0  0  0  0  0  0  0  0  0
    3.7544   -4.6244   -4.5572 O   0  0  0  0  0  0  0  0  0  0  0  0
    3.5320   -5.1821   -2.3107 N   0  0  0  0  0  0  0  0  0  0  0  0
    3.1470   -6.5471   -2.4736 C   0  0  0  0  0  0  0  0  0  0  0  0
    2.6343   -7.0273   -3.6843 C   0  0  0  0  0  0  0  0  0  0  0  0
    2.4153   -8.3260   -3.9804 N   0  0  0  0  0  0  0  0  0  0  0  0
    2.7148   -9.2139   -3.0149 C   0  0  0  0  0  0  0  0  0  0  0  0
    3.1241   -8.8693   -1.7292 C   0  0  0  0  0  0  0  0  0  0  0  0
    3.3021   -7.4947   -1.4195 C   0  0  0  0  0  0  0  0  0  0  0  0
    3.6281   -7.1951   -0.0700 C   0  0  0  0  0  0  0  0  0  0  0  0
    3.7973   -8.2033    0.8951 C   0  0  0  0  0  0  0  0  0  0  0  0
    3.6763   -9.5415    0.5377 C   0  0  0  0  0  0  0  0  0  0  0  0
    3.3357   -9.8739   -0.7715 C   0  0  0  0  0  0  0  0  0  0  0  0
    1.0595    1.3577    0.3345 H   0  0  0  0  0  0  0  0  0  0  0  0
    0.6979    0.2327   -0.9707 H   0  0  0  0  0  0  0  0  0  0  0  0
    1.8403    1.6050   -1.2347 H   0  0  0  0  0  0  0  0  0  0  0  0
    3.6286   -0.1531   -3.0145 H   0  0  0  0  0  0  0  0  0  0  0  0
    1.9263   -0.2162   -2.6132 H   0  0  0  0  0  0  0  0  0  0  0  0
    2.3608   -2.0676   -4.0809 H   0  0  0  0  0  0  0  0  0  0  0  0
    1.9713   -2.6852   -2.4788 H   0  0  0  0  0  0  0  0  0  0  0  0
    4.6865   -2.4433   -3.8418 H   0  0  0  0  0  0  0  0  0  0  0  0
    4.9828   -0.7329    1.1222 H   0  0  0  0  0  0  0  0  0  0  0  0
    7.0030   -2.0155    1.4395 H   0  0  0  0  0  0  0  0  0  0  0  0
    6.4492   -3.9422   -2.3476 H   0  0  0  0  0  0  0  0  0  0  0  0
    3.8878   -4.9164   -1.4048 H   0  0  0  0  0  0  0  0  0  0  0  0
    2.3508   -6.3602   -4.4916 H   0  0  0  0  0  0  0  0  0  0  0  0
    2.5996  -10.2522   -3.3149 H   0  0  0  0  0  0  0  0  0  0  0  0
    3.7047   -6.1675    0.2725 H   0  0  0  0  0  0  0  0  0  0  0  0
    4.0241   -7.9391    1.9235 H   0  0  0  0  0  0  0  0  0  0  0  0
    3.8262  -10.3213    1.2770 H   0  0  0  0  0  0  0  0  0  0  0  0
    3.2275  -10.9253   -1.0303 H   0  0  0  0  0  0  0  0  0  0  0  0
  1  2  1  0  0  0  0
  1 28  1  0  0  0  0
  1 29  1  0  0  0  0
  1 30  1  0  0  0  0
  2  3  2  0  0  0  0
  2  4  1  0  0  0  0
  4  5  1  0  0  0  0
  4  9  1  0  0  0  0
  5  6  1  0  0  0  0
  5 31  1  0  0  0  0
  5 32  1  0  0  0  0
  6  7  1  0  0  0  0
  6 33  1  0  0  0  0
  6 34  1  0  0  0  0
  7  8  1  0  0  0  0
  7 15  1  0  0  0  0
  7 35  1  6  0  0  0
  8  9  1  0  0  0  0
  8 13  2  0  0  0  0
  9 10  2  0  0  0  0
 10 11  1  0  0  0  0
 10 36  1  0  0  0  0
 11 12  2  0  0  0  0
 11 37  1  0  0  0  0
 12 13  1  0  0  0  0
 12 14  1  0  0  0  0
 13 38  1  0  0  0  0
 15 16  2  0  0  0  0
 15 17  1  0  0  0  0
 17 18  1  0  0  0  0
 17 39  1  0  0  0  0
 18 19  1  0  0  0  0
 18 23  2  0  0  0  0
 19 20  2  0  0  0  0
 19 40  1  0  0  0  0
 20 21  1  0  0  0  0
 21 22  2  0  0  0  0
 21 41  1  0  0  0  0
 22 23  1  0  0  0  0
 22 27  1  0  0  0  0
 23 24  1  0  0  0  0
 24 25  2  0  0  0  0
 24 42  1  0  0  0  0
 25 26  1  0  0  0  0
 25 43  1  0  0  0  0
 26 27  2  0  0  0  0
 26 44  1  0  0  0  0
 27 45  1  0  0  0  0
M  END
$$$$
