
 OpenBabel07202414123D

 67 70  0  0  1  0  0  0  0  0999 V2000
    1.5798    0.8664    0.6232 C   0  0  0  0  0  0  0  0  0  0  0  0
    2.5645   -0.1843    0.0639 C   0  0  0  0  0  0  0  0  0  0  0  0
    3.7488   -0.2808    1.0525 C   0  0  0  0  0  0  0  0  0  0  0  0
    1.8264   -1.5423    0.0561 C   0  0  0  0  0  0  0  0  0  0  0  0
    3.0886    0.1677   -1.3406 C   0  0  0  0  0  0  0  0  0  0  0  0
    2.6600    1.2858   -2.0679 C   0  0  0  0  0  0  0  0  0  0  0  0
    3.1507    1.5760   -3.3608 C   0  0  0  0  0  0  0  0  0  0  0  0
    4.1062    0.7711   -3.9885 C   0  0  0  0  0  0  0  0  0  0  0  0
    4.5963   -0.2957   -3.2118 C   0  0  0  0  0  0  0  0  0  0  0  0
    4.0723   -0.6180   -1.9483 C   0  0  0  0  0  0  0  0  0  0  0  0
    4.5366    0.9620   -5.3823 N   0  0  0  0  0  0  0  0  0  0  0  0
    5.0308   -0.2869   -6.0762 C   0  0  3  0  0  0  0  0  0  0  0  0
    4.1142   -0.8263   -7.1949 C   0  0  0  0  0  0  0  0  0  0  0  0
    2.8579   -0.2668   -7.4923 C   0  0  0  0  0  0  0  0  0  0  0  0
    2.0154   -0.8335   -8.4474 C   0  0  0  0  0  0  0  0  0  0  0  0
    2.4311   -1.9962   -9.0626 C   0  0  0  0  0  0  0  0  0  0  0  0
    3.6222   -2.5795   -8.8162 N   0  0  0  0  0  0  0  0  0  0  0  0
    4.4281   -1.9901   -7.8938 C   0  0  0  0  0  0  0  0  0  0  0  0
    6.6030   -0.3572   -6.2591 C   0  0  0  0  0  0  0  0  0  0  0  0
    7.1894   -1.4373   -6.3555 O   0  0  0  0  0  0  0  0  0  0  0  0
    7.3051    0.8398   -6.3372 N   0  0  0  0  0  0  0  0  0  0  0  0
    8.7456    0.8961   -6.5768 C   0  0  0  0  0  0  0  0  0  0  0  0
    9.2431    2.3417   -6.7572 C   0  0  0  0  0  0  0  0  0  0  0  0
   10.7336    2.4307   -6.9913 C   0  0  0  0  0  0  0  0  0  0  0  0
   11.6191    2.5535   -5.9089 C   0  0  0  0  0  0  0  0  0  0  0  0
   13.0022    2.5963   -6.1164 C   0  0  0  0  0  0  0  0  0  0  0  0
   13.5162    2.5178   -7.4089 C   0  0  0  0  0  0  0  0  0  0  0  0
   12.6415    2.4125   -8.4832 C   0  0  0  0  0  0  0  0  0  0  0  0
   11.2623    2.3712   -8.2886 C   0  0  0  0  0  0  0  0  0  0  0  0
   13.1341    2.3438   -9.7275 F   0  0  0  0  0  0  0  0  0  0  0  0
    4.3488    2.2099   -6.0725 C   0  0  0  0  0  0  0  0  0  0  0  0
    3.8814    3.2068   -5.5180 O   0  0  0  0  0  0  0  0  0  0  0  0
    4.7139    2.3255   -7.4900 C   0  0  0  0  0  0  0  0  0  0  0  0
    4.4933    3.3213   -8.4271 C   0  0  0  0  0  0  0  0  0  0  0  0
    5.0449    2.8729   -9.6586 C   0  0  0  0  0  0  0  0  0  0  0  0
    5.5928    1.6407   -9.4011 C   0  0  0  0  0  0  0  0  0  0  0  0
    5.4357    1.3488   -8.1000 O   0  0  0  0  0  0  0  0  0  0  0  0
    1.2476    0.6048    1.6345 H   0  0  0  0  0  0  0  0  0  0  0  0
    0.6812    0.9453   -0.0005 H   0  0  0  0  0  0  0  0  0  0  0  0
    2.0425    1.8585    0.6793 H   0  0  0  0  0  0  0  0  0  0  0  0
    3.4051   -0.5514    2.0577 H   0  0  0  0  0  0  0  0  0  0  0  0
    4.2805    0.6747    1.1249 H   0  0  0  0  0  0  0  0  0  0  0  0
    4.4784   -1.0418    0.7546 H   0  0  0  0  0  0  0  0  0  0  0  0
    1.5092   -1.8189    1.0702 H   0  0  0  0  0  0  0  0  0  0  0  0
    2.4562   -2.3578   -0.3154 H   0  0  0  0  0  0  0  0  0  0  0  0
    0.9266   -1.5065   -0.5687 H   0  0  0  0  0  0  0  0  0  0  0  0
    1.9174    1.9691   -1.6625 H   0  0  0  0  0  0  0  0  0  0  0  0
    2.7078    2.4386   -3.8472 H   0  0  0  0  0  0  0  0  0  0  0  0
    5.4213   -0.9225   -3.5413 H   0  0  0  0  0  0  0  0  0  0  0  0
    4.4657   -1.5009   -1.4474 H   0  0  0  0  0  0  0  0  0  0  0  0
    4.8743   -1.1151   -5.3781 H   0  0  0  0  0  0  0  0  0  0  0  0
    2.4954    0.6257   -6.9921 H   0  0  0  0  0  0  0  0  0  0  0  0
    1.0591   -0.3853   -8.6845 H   0  0  0  0  0  0  0  0  0  0  0  0
    1.7932   -2.5068   -9.7802 H   0  0  0  0  0  0  0  0  0  0  0  0
    5.3555   -2.5327   -7.7199 H   0  0  0  0  0  0  0  0  0  0  0  0
    6.7892    1.5810   -6.7869 H   0  0  0  0  0  0  0  0  0  0  0  0
    8.9684    0.3008   -7.4698 H   0  0  0  0  0  0  0  0  0  0  0  0
    9.2415    0.4172   -5.7252 H   0  0  0  0  0  0  0  0  0  0  0  0
    8.9763    2.9458   -5.8799 H   0  0  0  0  0  0  0  0  0  0  0  0
    8.7202    2.8151   -7.5998 H   0  0  0  0  0  0  0  0  0  0  0  0
   11.2374    2.6160   -4.8914 H   0  0  0  0  0  0  0  0  0  0  0  0
   13.6774    2.6859   -5.2688 H   0  0  0  0  0  0  0  0  0  0  0  0
   14.5869    2.5375   -7.5849 H   0  0  0  0  0  0  0  0  0  0  0  0
   10.6166    2.2913   -9.1580 H   0  0  0  0  0  0  0  0  0  0  0  0
    3.9756    4.2542   -8.2466 H   0  0  0  0  0  0  0  0  0  0  0  0
    5.0381    3.3662  -10.6185 H   0  0  0  0  0  0  0  0  0  0  0  0
    6.0920    0.8863   -9.9927 H   0  0  0  0  0  0  0  0  0  0  0  0
  1  2  1  0  0  0  0
  1 38  1  0  0  0  0
  1 39  1  0  0  0  0
  1 40  1  0  0  0  0
  2  3  1  0  0  0  0
  2  4  1  0  0  0  0
  2  5  1  0  0  0  0
  3 41  1  0  0  0  0
  3 42  1  0  0  0  0
  3 43  1  0  0  0  0
  4 44  1  0  0  0  0
  4 45  1  0  0  0  0
  4 46  1  0  0  0  0
  5  6  1  0  0  0  0
  5 10  2  0  0  0  0
  6  7  2  0  0  0  0
  6 47  1  0  0  0  0
  7  8  1  0  0  0  0
  7 48  1  0  0  0  0
  8  9  2  0  0  0  0
  8 11  1  0  0  0  0
  9 10  1  0  0  0  0
  9 49  1  0  0  0  0
 10 50  1  0  0  0  0
 11 12  1  0  0  0  0
 11 31  1  0  0  0  0
 12 13  1  0  0  0  0
 12 19  1  0  0  0  0
 12 51  1  0  0  0  0
 13 14  1  0  0  0  0
 13 18  2  0  0  0  0
 14 15  2  0  0  0  0
 14 52  1  0  0  0  0
 15 16  1  0  0  0  0
 15 53  1  0  0  0  0
 16 17  2  0  0  0  0
 16 54  1  0  0  0  0
 17 18  1  0  0  0  0
 18 55  1  0  0  0  0
 19 20  2  0  0  0  0
 19 21  1  0  0  0  0
 21 22  1  0  0  0  0
 21 56  1  0  0  0  0
 22 23  1  0  0  0  0
 22 57  1  0  0  0  0
 22 58  1  0  0  0  0
 23 24  1  0  0  0  0
 23 59  1  0  0  0  0
 23 60  1  0  0  0  0
 24 25  1  0  0  0  0
 24 29  2  0  0  0  0
 25 26  2  0  0  0  0
 25 61  1  0  0  0  0
 26 27  1  0  0  0  0
 26 62  1  0  0  0  0
 27 28  2  0  0  0  0
 27 63  1  0  0  0  0
 28 29  1  0  0  0  0
 28 30  1  0  0  0  0
 29 64  1  0  0  0  0
 31 32  2  0  0  0  0
 31 33  1  0  0  0  0
 33 34  2  0  0  0  0
 33 37  1  0  0  0  0
 34 35  1  0  0  0  0
 34 65  1  0  0  0  0
 35 36  2  0  0  0  0
 35 66  1  0  0  0  0
 36 37  1  0  0  0  0
 36 67  1  0  0  0  0
M  END
$$$$
