
 OpenBabel07202414133D

 44 45  0  0  0  0  0  0  0  0999 V2000
    8.0470    0.5765   -0.1474 C   0  0  0  0  0  0  0  0  0  0  0  0
    6.8556    0.7376    0.7903 C   0  0  0  0  0  0  0  0  0  0  0  0
    6.0858   -0.5201    0.9589 N   0  0  0  0  0  0  0  0  0  0  0  0
    6.7905   -1.7616    1.1001 C   0  0  0  0  0  0  0  0  0  0  0  0
    6.5055   -2.7908    0.1970 C   0  0  0  0  0  0  0  0  0  0  0  0
    7.1668   -4.0108    0.2954 C   0  0  0  0  0  0  0  0  0  0  0  0
    8.1006   -4.2149    1.3107 C   0  0  0  0  0  0  0  0  0  0  0  0
    8.3689   -3.2002    2.2276 C   0  0  0  0  0  0  0  0  0  0  0  0
    7.7160   -1.9692    2.1273 C   0  0  0  0  0  0  0  0  0  0  0  0
    4.5966   -0.4006    1.7927 S   0  0  0  0  0  0  0  0  0  0  0  0
    4.0315    0.9072    1.5164 O   0  0  0  0  0  0  0  0  0  0  0  0
    3.8126   -1.5935    1.5463 O   0  0  0  0  0  0  0  0  0  0  0  0
    5.0361   -0.4026    3.5260 C   0  0  0  0  0  0  0  0  0  0  0  0
    5.2642    0.8102    4.1866 C   0  0  0  0  0  0  0  0  0  0  0  0
    5.4389    0.8311    5.5777 C   0  0  0  0  0  0  0  0  0  0  0  0
    5.3512   -0.3514    6.3120 C   0  0  0  0  0  0  0  0  0  0  0  0
    5.1369   -1.5700    5.6375 C   0  0  0  0  0  0  0  0  0  0  0  0
    4.9814   -1.5986    4.2498 C   0  0  0  0  0  0  0  0  0  0  0  0
    5.0154   -2.7346    6.4220 N   0  0  0  0  0  0  0  0  0  0  0  0
    5.4783   -3.9829    6.0597 C   0  0  0  0  0  0  0  0  0  0  0  0
    6.1705   -4.2029    5.0680 O   0  0  0  0  0  0  0  0  0  0  0  0
    5.2141   -5.0758    7.0781 C   0  0  0  0  0  0  0  0  0  0  0  0
    3.5496   -4.9972    7.6947 Cl  0  0  0  0  0  0  0  0  0  0  0  0
    5.4943   -0.4614    7.6745 O   0  0  0  0  0  0  0  0  0  0  0  0
    5.6524    0.7434    8.4144 C   0  0  0  0  0  0  0  0  0  0  0  0
    8.4198    1.5598   -0.4522 H   0  0  0  0  0  0  0  0  0  0  0  0
    7.7838    0.0180   -1.0517 H   0  0  0  0  0  0  0  0  0  0  0  0
    8.8734    0.0566    0.3480 H   0  0  0  0  0  0  0  0  0  0  0  0
    6.1939    1.4816    0.3315 H   0  0  0  0  0  0  0  0  0  0  0  0
    7.1870    1.1230    1.7570 H   0  0  0  0  0  0  0  0  0  0  0  0
    5.7678   -2.6375   -0.5858 H   0  0  0  0  0  0  0  0  0  0  0  0
    6.9468   -4.8057   -0.4122 H   0  0  0  0  0  0  0  0  0  0  0  0
    8.6096   -5.1722    1.3953 H   0  0  0  0  0  0  0  0  0  0  0  0
    9.0790   -3.3702    3.0316 H   0  0  0  0  0  0  0  0  0  0  0  0
    7.9348   -1.1933    2.8474 H   0  0  0  0  0  0  0  0  0  0  0  0
    5.2797    1.7460    3.6324 H   0  0  0  0  0  0  0  0  0  0  0  0
    5.6263    1.7886    6.0550 H   0  0  0  0  0  0  0  0  0  0  0  0
    4.7566   -2.5336    3.7378 H   0  0  0  0  0  0  0  0  0  0  0  0
    4.8224   -2.5716    7.4061 H   0  0  0  0  0  0  0  0  0  0  0  0
    5.9062   -4.9735    7.9183 H   0  0  0  0  0  0  0  0  0  0  0  0
    5.3488   -6.0504    6.6036 H   0  0  0  0  0  0  0  0  0  0  0  0
    5.7582    0.4673    9.4703 H   0  0  0  0  0  0  0  0  0  0  0  0
    4.7671    1.3756    8.3201 H   0  0  0  0  0  0  0  0  0  0  0  0
    6.5620    1.2753    8.1211 H   0  0  0  0  0  0  0  0  0  0  0  0
  1  2  1  0  0  0  0
  1 26  1  0  0  0  0
  1 27  1  0  0  0  0
  1 28  1  0  0  0  0
  2  3  1  0  0  0  0
  2 29  1  0  0  0  0
  2 30  1  0  0  0  0
  3  4  1  0  0  0  0
  3 10  1  0  0  0  0
  4  5  1  0  0  0  0
  4  9  2  0  0  0  0
  5  6  2  0  0  0  0
  5 31  1  0  0  0  0
  6  7  1  0  0  0  0
  6 32  1  0  0  0  0
  7  8  2  0  0  0  0
  7 33  1  0  0  0  0
  8  9  1  0  0  0  0
  8 34  1  0  0  0  0
  9 35  1  0  0  0  0
 10 11  2  0  0  0  0
 10 12  2  0  0  0  0
 10 13  1  0  0  0  0
 13 14  1  0  0  0  0
 13 18  2  0  0  0  0
 14 15  2  0  0  0  0
 14 36  1  0  0  0  0
 15 16  1  0  0  0  0
 15 37  1  0  0  0  0
 16 17  2  0  0  0  0
 16 24  1  0  0  0  0
 17 18  1  0  0  0  0
 17 19  1  0  0  0  0
 18 38  1  0  0  0  0
 19 20  1  0  0  0  0
 19 39  1  0  0  0  0
 20 21  2  0  0  0  0
 20 22  1  0  0  0  0
 22 23  1  0  0  0  0
 22 40  1  0  0  0  0
 22 41  1  0  0  0  0
 24 25  1  0  0  0  0
 25 42  1  0  0  0  0
 25 43  1  0  0  0  0
 25 44  1  0  0  0  0
M  END
$$$$
