
 OpenBabel07202414143D

 66 70  0  0  0  0  0  0  0  0999 V2000
   -1.8007    4.1863   -0.7674 C   0  0  0  0  0  0  0  0  0  0  0  0
   -1.6382    2.7506   -0.9975 N   0  0  0  0  0  0  0  0  0  0  0  0
   -0.5506    2.2078   -0.1677 C   0  0  0  0  0  0  0  0  0  0  0  0
   -0.4301    0.6705   -0.2967 C   0  0  0  0  0  0  0  0  0  0  0  0
   -1.6494   -0.0876    0.0730 N   0  0  0  0  0  0  0  0  0  0  0  0
   -1.9921   -0.0749    1.5219 C   0  0  0  0  0  0  0  0  0  0  0  0
   -0.8044   -0.1596    2.5127 C   0  0  0  0  0  0  0  0  0  0  0  0
   -0.1966   -1.5565    2.6075 C   0  0  0  0  0  0  0  0  0  0  0  0
   -1.2567   -2.4586    3.0543 N   0  0  0  0  0  0  0  0  0  0  0  0
   -0.9688   -3.5451    3.8693 C   0  0  0  0  0  0  0  0  0  0  0  0
    0.3048   -4.1397    3.9359 C   0  0  0  0  0  0  0  0  0  0  0  0
    0.6041   -5.1750    4.8405 C   0  0  0  0  0  0  0  0  0  0  0  0
    1.9869   -5.7719    4.8846 C   0  0  0  0  0  0  0  0  0  0  0  0
    3.0934   -4.7648    5.1495 C   0  0  0  0  0  0  0  0  0  0  0  0
    4.1255   -4.7754    4.4819 O   0  0  0  0  0  0  0  0  0  0  0  0
    2.8788   -3.9425    6.2419 N   0  0  0  0  0  0  0  0  0  0  0  0
    3.7783   -2.9263    6.6485 C   0  0  0  0  0  0  0  0  0  0  0  0
    4.4854   -2.1689    5.7100 C   0  0  0  0  0  0  0  0  0  0  0  0
    5.3252   -1.1544    6.0180 N   0  0  0  0  0  0  0  0  0  0  0  0
    5.5016   -0.9060    7.3324 C   0  0  0  0  0  0  0  0  0  0  0  0
    4.8746   -1.6053    8.3665 C   0  0  0  0  0  0  0  0  0  0  0  0
    5.1531   -1.3208    9.7167 C   0  0  0  0  0  0  0  0  0  0  0  0
    4.5538   -2.0549   10.7363 C   0  0  0  0  0  0  0  0  0  0  0  0
    3.6627   -3.0729   10.4200 C   0  0  0  0  0  0  0  0  0  0  0  0
    3.3720   -3.3606    9.0838 C   0  0  0  0  0  0  0  0  0  0  0  0
    3.9698   -2.6374    8.0235 C   0  0  0  0  0  0  0  0  0  0  0  0
   -0.4073   -5.6516    5.6854 C   0  0  0  0  0  0  0  0  0  0  0  0
   -1.6736   -5.0812    5.6328 C   0  0  0  0  0  0  0  0  0  0  0  0
   -2.8983   -5.6350    6.7076 Cl  0  0  0  0  0  0  0  0  0  0  0  0
   -1.9470   -4.0443    4.7387 C   0  0  0  0  0  0  0  0  0  0  0  0
   -2.3481   -2.5873    2.0792 C   0  0  0  0  0  0  0  0  0  0  0  0
   -2.9949   -1.2126    1.8724 C   0  0  0  0  0  0  0  0  0  0  0  0
   -2.7512    0.4787   -0.7614 C   0  0  0  0  0  0  0  0  0  0  0  0
   -2.8968    2.0283   -0.7410 C   0  0  0  0  0  0  0  0  0  0  0  0
   -0.8635    4.7204   -0.9613 H   0  0  0  0  0  0  0  0  0  0  0  0
   -2.1104    4.4080    0.2610 H   0  0  0  0  0  0  0  0  0  0  0  0
   -2.5494    4.6052   -1.4491 H   0  0  0  0  0  0  0  0  0  0  0  0
   -0.6911    2.4829    0.8850 H   0  0  0  0  0  0  0  0  0  0  0  0
    0.3983    2.6507   -0.4950 H   0  0  0  0  0  0  0  0  0  0  0  0
    0.4435    0.3135    0.2573 H   0  0  0  0  0  0  0  0  0  0  0  0
   -0.1929    0.4321   -1.3434 H   0  0  0  0  0  0  0  0  0  0  0  0
   -2.4908    0.8765    1.7450 H   0  0  0  0  0  0  0  0  0  0  0  0
   -1.1824    0.1156    3.5083 H   0  0  0  0  0  0  0  0  0  0  0  0
   -0.0270    0.5777    2.2953 H   0  0  0  0  0  0  0  0  0  0  0  0
    0.6231   -1.5124    3.3338 H   0  0  0  0  0  0  0  0  0  0  0  0
    0.2201   -1.8853    1.6474 H   0  0  0  0  0  0  0  0  0  0  0  0
    1.0851   -3.7946    3.2626 H   0  0  0  0  0  0  0  0  0  0  0  0
    2.1832   -6.2497    3.9171 H   0  0  0  0  0  0  0  0  0  0  0  0
    2.0570   -6.5549    5.6501 H   0  0  0  0  0  0  0  0  0  0  0  0
    2.1395   -4.1986    6.8823 H   0  0  0  0  0  0  0  0  0  0  0  0
    4.3626   -2.3303    4.6423 H   0  0  0  0  0  0  0  0  0  0  0  0
    6.2031   -0.1019    7.5417 H   0  0  0  0  0  0  0  0  0  0  0  0
    5.8592   -0.5339    9.9787 H   0  0  0  0  0  0  0  0  0  0  0  0
    4.7913   -1.8413   11.7747 H   0  0  0  0  0  0  0  0  0  0  0  0
    3.2038   -3.6597   11.2122 H   0  0  0  0  0  0  0  0  0  0  0  0
    2.6944   -4.1852    8.8867 H   0  0  0  0  0  0  0  0  0  0  0  0
   -0.2085   -6.4600    6.3860 H   0  0  0  0  0  0  0  0  0  0  0  0
   -2.9343   -3.5852    4.7514 H   0  0  0  0  0  0  0  0  0  0  0  0
   -3.1232   -3.2862    2.4169 H   0  0  0  0  0  0  0  0  0  0  0  0
   -1.9590   -2.9815    1.1315 H   0  0  0  0  0  0  0  0  0  0  0  0
   -3.5050   -0.9334    2.8042 H   0  0  0  0  0  0  0  0  0  0  0  0
   -3.7858   -1.3077    1.1217 H   0  0  0  0  0  0  0  0  0  0  0  0
   -3.7171    0.0369   -0.4969 H   0  0  0  0  0  0  0  0  0  0  0  0
   -2.5713    0.1665   -1.7990 H   0  0  0  0  0  0  0  0  0  0  0  0
   -3.3224    2.3334    0.2231 H   0  0  0  0  0  0  0  0  0  0  0  0
   -3.6242    2.3092   -1.5133 H   0  0  0  0  0  0  0  0  0  0  0  0
  1  2  1  0  0  0  0
  1 35  1  0  0  0  0
  1 36  1  0  0  0  0
  1 37  1  0  0  0  0
  2  3  1  0  0  0  0
  2 34  1  0  0  0  0
  3  4  1  0  0  0  0
  3 38  1  0  0  0  0
  3 39  1  0  0  0  0
  4  5  1  0  0  0  0
  4 40  1  0  0  0  0
  4 41  1  0  0  0  0
  5  6  1  0  0  0  0
  5 33  1  0  0  0  0
  6  7  1  0  0  0  0
  6 32  1  0  0  0  0
  6 42  1  0  0  0  0
  7  8  1  0  0  0  0
  7 43  1  0  0  0  0
  7 44  1  0  0  0  0
  8  9  1  0  0  0  0
  8 45  1  0  0  0  0
  8 46  1  0  0  0  0
  9 10  1  0  0  0  0
  9 31  1  0  0  0  0
 10 11  2  0  0  0  0
 10 30  1  0  0  0  0
 11 12  1  0  0  0  0
 11 47  1  0  0  0  0
 12 13  1  0  0  0  0
 12 27  2  0  0  0  0
 13 14  1  0  0  0  0
 13 48  1  0  0  0  0
 13 49  1  0  0  0  0
 14 15  2  0  0  0  0
 14 16  1  0  0  0  0
 16 17  1  0  0  0  0
 16 50  1  0  0  0  0
 17 18  2  0  0  0  0
 17 26  1  0  0  0  0
 18 19  1  0  0  0  0
 18 51  1  0  0  0  0
 19 20  2  0  0  0  0
 20 21  1  0  0  0  0
 20 52  1  0  0  0  0
 21 22  2  0  0  0  0
 21 26  1  0  0  0  0
 22 23  1  0  0  0  0
 22 53  1  0  0  0  0
 23 24  2  0  0  0  0
 23 54  1  0  0  0  0
 24 25  1  0  0  0  0
 24 55  1  0  0  0  0
 25 26  2  0  0  0  0
 25 56  1  0  0  0  0
 27 28  1  0  0  0  0
 27 57  1  0  0  0  0
 28 29  1  0  0  0  0
 28 30  2  0  0  0  0
 30 58  1  0  0  0  0
 31 32  1  0  0  0  0
 31 59  1  0  0  0  0
 31 60  1  0  0  0  0
 32 61  1  0  0  0  0
 32 62  1  0  0  0  0
 33 34  1  0  0  0  0
 33 63  1  0  0  0  0
 33 64  1  0  0  0  0
 34 65  1  0  0  0  0
 34 66  1  0  0  0  0
M  END
$$$$
