
 OpenBabel07202414193D

 43 46  0  0  0  0  0  0  0  0999 V2000
    1.1352    0.4371   -0.3754 O   0  0  0  0  0  0  0  0  0  0  0  0
    2.1861   -0.0391    0.0623 C   0  0  0  0  0  0  0  0  0  0  0  0
    2.6150    0.2859    1.4875 C   0  0  0  0  0  0  0  0  0  0  0  0
    3.6665    1.3730    1.5829 C   0  0  0  0  0  0  0  0  0  0  0  0
    3.6258    2.4422    0.6821 C   0  0  0  0  0  0  0  0  0  0  0  0
    4.4822    3.4833    0.6839 N   0  0  0  0  0  0  0  0  0  0  0  0
    5.4187    3.4877    1.6530 C   0  0  0  0  0  0  0  0  0  0  0  0
    5.5553    2.5014    2.6269 C   0  0  0  0  0  0  0  0  0  0  0  0
    6.5538    2.5923    3.6134 C   0  0  0  0  0  0  0  0  0  0  0  0
    6.6827    1.6056    4.5878 C   0  0  0  0  0  0  0  0  0  0  0  0
    5.8144    0.5218    4.5829 C   0  0  0  0  0  0  0  0  0  0  0  0
    4.8147    0.4252    3.6083 C   0  0  0  0  0  0  0  0  0  0  0  0
    4.6571    1.4077    2.6011 C   0  0  0  0  0  0  0  0  0  0  0  0
    3.0242   -0.8238   -0.7209 N   0  0  0  0  0  0  0  0  0  0  0  0
    4.1965   -1.5495   -0.2303 C   0  0  0  0  0  0  0  0  0  0  0  0
    5.3737   -1.4007   -1.1890 C   0  0  0  0  0  0  0  0  0  0  0  0
    5.0038   -1.8160   -2.6223 C   0  0  0  0  0  0  0  0  0  0  0  0
    4.8300   -3.2962   -2.7656 C   0  0  0  0  0  0  0  0  0  0  0  0
    4.0741   -4.1210   -3.5710 C   0  0  0  0  0  0  0  0  0  0  0  0
    4.3258   -5.4355   -3.2728 N   0  0  0  0  0  0  0  0  0  0  0  0
    5.2285   -5.3667   -2.3225 C   0  0  0  0  0  0  0  0  0  0  0  0
    5.5892   -4.1060   -1.9609 O   0  0  0  0  0  0  0  0  0  0  0  0
    3.7616   -1.0281   -3.0689 C   0  0  0  0  0  0  0  0  0  0  0  0
    2.6029   -1.1565   -2.0802 C   0  0  0  0  0  0  0  0  0  0  0  0
    2.9152   -0.6489    1.9666 H   0  0  0  0  0  0  0  0  0  0  0  0
    1.7268    0.6230    2.0371 H   0  0  0  0  0  0  0  0  0  0  0  0
    2.8706    2.5026   -0.0999 H   0  0  0  0  0  0  0  0  0  0  0  0
    6.0817    4.3490    1.6258 H   0  0  0  0  0  0  0  0  0  0  0  0
    7.2355    3.4397    3.6314 H   0  0  0  0  0  0  0  0  0  0  0  0
    7.4547    1.6858    5.3477 H   0  0  0  0  0  0  0  0  0  0  0  0
    5.9084   -0.2517    5.3416 H   0  0  0  0  0  0  0  0  0  0  0  0
    4.1577   -0.4384    3.6586 H   0  0  0  0  0  0  0  0  0  0  0  0
    3.9043   -2.6002   -0.1183 H   0  0  0  0  0  0  0  0  0  0  0  0
    4.5086   -1.2021    0.7544 H   0  0  0  0  0  0  0  0  0  0  0  0
    6.2299   -1.9729   -0.8136 H   0  0  0  0  0  0  0  0  0  0  0  0
    5.6844   -0.3474   -1.1985 H   0  0  0  0  0  0  0  0  0  0  0  0
    5.8371   -1.5351   -3.2796 H   0  0  0  0  0  0  0  0  0  0  0  0
    3.3668   -3.8439   -4.3402 H   0  0  0  0  0  0  0  0  0  0  0  0
    5.7122   -6.1788   -1.7987 H   0  0  0  0  0  0  0  0  0  0  0  0
    3.4332   -1.3347   -4.0687 H   0  0  0  0  0  0  0  0  0  0  0  0
    4.0348    0.0333   -3.1436 H   0  0  0  0  0  0  0  0  0  0  0  0
    2.2115   -2.1801   -2.0608 H   0  0  0  0  0  0  0  0  0  0  0  0
    1.7833   -0.5085   -2.4081 H   0  0  0  0  0  0  0  0  0  0  0  0
  1  2  2  0  0  0  0
  2  3  1  0  0  0  0
  2 14  1  0  0  0  0
  3  4  1  0  0  0  0
  3 25  1  0  0  0  0
  3 26  1  0  0  0  0
  4  5  1  0  0  0  0
  4 13  2  0  0  0  0
  5  6  2  0  0  0  0
  5 27  1  0  0  0  0
  6  7  1  0  0  0  0
  7  8  2  0  0  0  0
  7 28  1  0  0  0  0
  8  9  1  0  0  0  0
  8 13  1  0  0  0  0
  9 10  2  0  0  0  0
  9 29  1  0  0  0  0
 10 11  1  0  0  0  0
 10 30  1  0  0  0  0
 11 12  2  0  0  0  0
 11 31  1  0  0  0  0
 12 13  1  0  0  0  0
 12 32  1  0  0  0  0
 14 15  1  0  0  0  0
 14 24  1  0  0  0  0
 15 16  1  0  0  0  0
 15 33  1  0  0  0  0
 15 34  1  0  0  0  0
 16 17  1  0  0  0  0
 16 35  1  0  0  0  0
 16 36  1  0  0  0  0
 17 18  1  0  0  0  0
 17 23  1  0  0  0  0
 17 37  1  0  0  0  0
 18 19  2  0  0  0  0
 18 22  1  0  0  0  0
 19 20  1  0  0  0  0
 19 38  1  0  0  0  0
 20 21  2  0  0  0  0
 21 22  1  0  0  0  0
 21 39  1  0  0  0  0
 23 24  1  0  0  0  0
 23 40  1  0  0  0  0
 23 41  1  0  0  0  0
 24 42  1  0  0  0  0
 24 43  1  0  0  0  0
M  END
$$$$
