
 OpenBabel07202414193D

 48 51  0  0  1  0  0  0  0  0999 V2000
    1.2159   -0.6065   -0.5327 O   0  0  0  0  0  0  0  0  0  0  0  0
    2.3223   -0.2781   -0.1005 C   0  0  0  0  0  0  0  0  0  0  0  0
    2.9961    0.9929   -0.5953 C   0  0  0  0  0  0  0  0  0  0  0  0
    3.6410    0.7900   -1.9450 C   0  0  0  0  0  0  0  0  0  0  0  0
    4.9566    0.3230   -1.9818 C   0  0  0  0  0  0  0  0  0  0  0  0
    5.6609    0.0964   -3.1070 N   0  0  0  0  0  0  0  0  0  0  0  0
    5.0200    0.3420   -4.2691 C   0  0  0  0  0  0  0  0  0  0  0  0
    3.7032    0.7951   -4.3731 C   0  0  0  0  0  0  0  0  0  0  0  0
    3.1054    1.0264   -5.6246 C   0  0  0  0  0  0  0  0  0  0  0  0
    1.7866    1.4676   -5.7117 C   0  0  0  0  0  0  0  0  0  0  0  0
    1.0527    1.6710   -4.5510 C   0  0  0  0  0  0  0  0  0  0  0  0
    1.6380    1.4431   -3.3018 C   0  0  0  0  0  0  0  0  0  0  0  0
    2.9810    1.0154   -3.1771 C   0  0  0  0  0  0  0  0  0  0  0  0
    3.0137   -1.0538    0.8124 N   0  0  0  0  0  0  0  0  0  0  0  0
    2.4847   -2.3295    1.2596 C   0  0  0  0  0  0  0  0  0  0  0  0
    2.7325   -2.3005    2.7562 C   0  0  0  0  0  0  0  0  0  0  0  0
    4.0899   -1.5942    2.8744 C   0  0  1  0  0  0  0  0  0  0  0  0
    5.2655   -2.5798    2.7422 C   0  0  0  0  0  0  0  0  0  0  0  0
    6.6180   -1.9268    2.9176 C   0  0  0  0  0  0  0  0  0  0  0  0
    6.9476   -1.2528    4.1036 C   0  0  0  0  0  0  0  0  0  0  0  0
    8.1893   -0.6288    4.2474 C   0  0  0  0  0  0  0  0  0  0  0  0
    9.1106   -0.6922    3.2084 C   0  0  0  0  0  0  0  0  0  0  0  0
   10.3279   -0.0854    3.2993 O   0  0  0  0  0  0  0  0  0  0  0  0
    8.8154   -1.3795    2.0385 C   0  0  0  0  0  0  0  0  0  0  0  0
    7.5720   -1.9968    1.8922 C   0  0  0  0  0  0  0  0  0  0  0  0
    4.0293   -0.5624    1.7376 C   0  0  0  0  0  0  0  0  0  0  0  0
    3.7455    1.3609    0.1117 H   0  0  0  0  0  0  0  0  0  0  0  0
    2.2464    1.7912   -0.6229 H   0  0  0  0  0  0  0  0  0  0  0  0
    5.5066    0.1129   -1.0682 H   0  0  0  0  0  0  0  0  0  0  0  0
    5.6187    0.1521   -5.1555 H   0  0  0  0  0  0  0  0  0  0  0  0
    3.6663    0.8603   -6.5426 H   0  0  0  0  0  0  0  0  0  0  0  0
    1.3336    1.6431   -6.6832 H   0  0  0  0  0  0  0  0  0  0  0  0
    0.0186    2.0009   -4.6107 H   0  0  0  0  0  0  0  0  0  0  0  0
    1.0167    1.5911   -2.4217 H   0  0  0  0  0  0  0  0  0  0  0  0
    3.0680   -3.1182    0.7769 H   0  0  0  0  0  0  0  0  0  0  0  0
    1.4282   -2.4684    1.0036 H   0  0  0  0  0  0  0  0  0  0  0  0
    2.7034   -3.2925    3.2139 H   0  0  0  0  0  0  0  0  0  0  0  0
    1.9634   -1.6803    3.2351 H   0  0  0  0  0  0  0  0  0  0  0  0
    4.1531   -1.0818    3.8410 H   0  0  0  0  0  0  0  0  0  0  0  0
    5.2250   -3.0907    1.7723 H   0  0  0  0  0  0  0  0  0  0  0  0
    5.1728   -3.3667    3.5022 H   0  0  0  0  0  0  0  0  0  0  0  0
    6.2393   -1.2076    4.9278 H   0  0  0  0  0  0  0  0  0  0  0  0
    8.4174   -0.1060    5.1706 H   0  0  0  0  0  0  0  0  0  0  0  0
   10.3756    0.3907    4.1441 H   0  0  0  0  0  0  0  0  0  0  0  0
    9.5494   -1.4320    1.2394 H   0  0  0  0  0  0  0  0  0  0  0  0
    7.3560   -2.5286    0.9678 H   0  0  0  0  0  0  0  0  0  0  0  0
    4.9760   -0.4231    1.2094 H   0  0  0  0  0  0  0  0  0  0  0  0
    3.6959    0.4056    2.1266 H   0  0  0  0  0  0  0  0  0  0  0  0
  1  2  2  0  0  0  0
  2  3  1  0  0  0  0
  2 14  1  0  0  0  0
  3  4  1  0  0  0  0
  3 27  1  0  0  0  0
  3 28  1  0  0  0  0
  4  5  1  0  0  0  0
  4 13  2  0  0  0  0
  5  6  2  0  0  0  0
  5 29  1  0  0  0  0
  6  7  1  0  0  0  0
  7  8  2  0  0  0  0
  7 30  1  0  0  0  0
  8  9  1  0  0  0  0
  8 13  1  0  0  0  0
  9 10  2  0  0  0  0
  9 31  1  0  0  0  0
 10 11  1  0  0  0  0
 10 32  1  0  0  0  0
 11 12  2  0  0  0  0
 11 33  1  0  0  0  0
 12 13  1  0  0  0  0
 12 34  1  0  0  0  0
 14 15  1  0  0  0  0
 14 26  1  0  0  0  0
 15 16  1  0  0  0  0
 15 35  1  0  0  0  0
 15 36  1  0  0  0  0
 16 17  1  0  0  0  0
 16 37  1  0  0  0  0
 16 38  1  0  0  0  0
 17 18  1  0  0  0  0
 17 26  1  0  0  0  0
 17 39  1  1  0  0  0
 18 19  1  0  0  0  0
 18 40  1  0  0  0  0
 18 41  1  0  0  0  0
 19 20  1  0  0  0  0
 19 25  2  0  0  0  0
 20 21  2  0  0  0  0
 20 42  1  0  0  0  0
 21 22  1  0  0  0  0
 21 43  1  0  0  0  0
 22 23  1  0  0  0  0
 22 24  2  0  0  0  0
 23 44  1  0  0  0  0
 24 25  1  0  0  0  0
 24 45  1  0  0  0  0
 25 46  1  0  0  0  0
 26 47  1  0  0  0  0
 26 48  1  0  0  0  0
M  END
$$$$
