
 OpenBabel07202414143D

 50 53  0  0  0  0  0  0  0  0999 V2000
    3.1686    0.6022   -2.4517 C   0  0  0  0  0  0  0  0  0  0  0  0
    2.1605    0.1291   -3.3361 O   0  0  0  0  0  0  0  0  0  0  0  0
    2.0989   -1.2233   -3.5253 C   0  0  0  0  0  0  0  0  0  0  0  0
    2.5921   -2.1960   -2.6515 C   0  0  0  0  0  0  0  0  0  0  0  0
    2.4483   -3.5716   -2.9296 C   0  0  0  0  0  0  0  0  0  0  0  0
    2.9953   -4.4711   -1.9817 N   0  0  0  0  0  0  0  0  0  0  0  0
    3.6862   -5.6818   -2.1772 C   0  0  0  0  0  0  0  0  0  0  0  0
    3.7411   -6.6276   -1.1479 C   0  0  0  0  0  0  0  0  0  0  0  0
    4.4177   -7.8347   -1.3317 C   0  0  0  0  0  0  0  0  0  0  0  0
    4.4683   -8.9871   -0.0534 Cl  0  0  0  0  0  0  0  0  0  0  0  0
    5.0461   -8.1250   -2.5412 C   0  0  0  0  0  0  0  0  0  0  0  0
    5.0214   -7.1882   -3.5778 C   0  0  0  0  0  0  0  0  0  0  0  0
    5.6341   -7.5014   -4.9216 C   0  0  0  0  0  0  0  0  0  0  0  0
    6.6172   -6.4604   -5.4259 C   0  0  0  0  0  0  0  0  0  0  0  0
    6.6127   -6.1039   -6.6018 O   0  0  0  0  0  0  0  0  0  0  0  0
    7.5529   -6.0599   -4.4892 N   0  0  0  0  0  0  0  0  0  0  0  0
    8.5663   -5.1183   -4.7648 C   0  0  0  0  0  0  0  0  0  0  0  0
    8.2955   -3.9747   -5.5308 C   0  0  0  0  0  0  0  0  0  0  0  0
    9.1979   -3.0105   -5.8120 N   0  0  0  0  0  0  0  0  0  0  0  0
   10.4471   -3.2142   -5.3446 C   0  0  0  0  0  0  0  0  0  0  0  0
   10.8481   -4.3256   -4.5932 C   0  0  0  0  0  0  0  0  0  0  0  0
   12.1833   -4.4917   -4.1875 C   0  0  0  0  0  0  0  0  0  0  0  0
   12.5758   -5.6235   -3.4756 C   0  0  0  0  0  0  0  0  0  0  0  0
   11.6357   -6.5928   -3.1485 C   0  0  0  0  0  0  0  0  0  0  0  0
   10.3045   -6.4346   -3.5406 C   0  0  0  0  0  0  0  0  0  0  0  0
    9.8790   -5.3000   -4.2741 C   0  0  0  0  0  0  0  0  0  0  0  0
    4.3593   -5.9662   -3.3734 C   0  0  0  0  0  0  0  0  0  0  0  0
    1.7378   -3.9435   -4.0891 C   0  0  0  0  0  0  0  0  0  0  0  0
    1.3008   -5.5805   -4.4478 Cl  0  0  0  0  0  0  0  0  0  0  0  0
    1.2633   -2.9696   -4.9732 C   0  0  0  0  0  0  0  0  0  0  0  0
    1.4426   -1.6175   -4.6892 C   0  0  0  0  0  0  0  0  0  0  0  0
    3.1455    1.6959   -2.4790 H   0  0  0  0  0  0  0  0  0  0  0  0
    4.1609    0.2778   -2.7814 H   0  0  0  0  0  0  0  0  0  0  0  0
    2.9733    0.2954   -1.4196 H   0  0  0  0  0  0  0  0  0  0  0  0
    3.1017   -1.9101   -1.7366 H   0  0  0  0  0  0  0  0  0  0  0  0
    2.5609   -4.3751   -1.0691 H   0  0  0  0  0  0  0  0  0  0  0  0
    3.2421   -6.4368   -0.2021 H   0  0  0  0  0  0  0  0  0  0  0  0
    5.5432   -9.0834   -2.6738 H   0  0  0  0  0  0  0  0  0  0  0  0
    4.8203   -7.5827   -5.6527 H   0  0  0  0  0  0  0  0  0  0  0  0
    6.1519   -8.4678   -4.9031 H   0  0  0  0  0  0  0  0  0  0  0  0
    7.6624   -6.6387   -3.6682 H   0  0  0  0  0  0  0  0  0  0  0  0
    7.2952   -3.7726   -5.9137 H   0  0  0  0  0  0  0  0  0  0  0  0
   11.1548   -2.4351   -5.6135 H   0  0  0  0  0  0  0  0  0  0  0  0
   12.9356   -3.7463   -4.4423 H   0  0  0  0  0  0  0  0  0  0  0  0
   13.6143   -5.7543   -3.1862 H   0  0  0  0  0  0  0  0  0  0  0  0
   11.9383   -7.4871   -2.6103 H   0  0  0  0  0  0  0  0  0  0  0  0
    9.6138   -7.2345   -3.2917 H   0  0  0  0  0  0  0  0  0  0  0  0
    4.3496   -5.2300   -4.1762 H   0  0  0  0  0  0  0  0  0  0  0  0
    0.7313   -3.2574   -5.8764 H   0  0  0  0  0  0  0  0  0  0  0  0
    1.0586   -0.8658   -5.3749 H   0  0  0  0  0  0  0  0  0  0  0  0
  1  2  1  0  0  0  0
  1 32  1  0  0  0  0
  1 33  1  0  0  0  0
  1 34  1  0  0  0  0
  2  3  1  0  0  0  0
  3  4  2  0  0  0  0
  3 31  1  0  0  0  0
  4  5  1  0  0  0  0
  4 35  1  0  0  0  0
  5  6  1  0  0  0  0
  5 28  2  0  0  0  0
  6  7  1  0  0  0  0
  6 36  1  0  0  0  0
  7  8  2  0  0  0  0
  7 27  1  0  0  0  0
  8  9  1  0  0  0  0
  8 37  1  0  0  0  0
  9 10  1  0  0  0  0
  9 11  2  0  0  0  0
 11 12  1  0  0  0  0
 11 38  1  0  0  0  0
 12 13  1  0  0  0  0
 12 27  2  0  0  0  0
 13 14  1  0  0  0  0
 13 39  1  0  0  0  0
 13 40  1  0  0  0  0
 14 15  2  0  0  0  0
 14 16  1  0  0  0  0
 16 17  1  0  0  0  0
 16 41  1  0  0  0  0
 17 18  2  0  0  0  0
 17 26  1  0  0  0  0
 18 19  1  0  0  0  0
 18 42  1  0  0  0  0
 19 20  2  0  0  0  0
 20 21  1  0  0  0  0
 20 43  1  0  0  0  0
 21 22  2  0  0  0  0
 21 26  1  0  0  0  0
 22 23  1  0  0  0  0
 22 44  1  0  0  0  0
 23 24  2  0  0  0  0
 23 45  1  0  0  0  0
 24 25  1  0  0  0  0
 24 46  1  0  0  0  0
 25 26  2  0  0  0  0
 25 47  1  0  0  0  0
 27 48  1  0  0  0  0
 28 29  1  0  0  0  0
 28 30  1  0  0  0  0
 30 31  2  0  0  0  0
 30 49  1  0  0  0  0
 31 50  1  0  0  0  0
M  END
$$$$
