
 OpenBabel07202414133D

 53 57  0  0  0  0  0  0  0  0999 V2000
  -10.3884    1.4551   -2.2429 C   0  0  0  0  0  0  0  0  0  0  0  0
   -9.0424    1.1668   -1.8152 N   0  0  0  0  0  0  0  0  0  0  0  0
   -7.9460    1.9355   -2.1000 C   0  0  0  0  0  0  0  0  0  0  0  0
   -7.8719    2.9804   -2.7188 O   0  0  0  0  0  0  0  0  0  0  0  0
   -6.7962    1.2481   -1.5140 C   0  0  0  0  0  0  0  0  0  0  0  0
   -7.2673    0.0971   -0.9111 C   0  0  0  0  0  0  0  0  0  0  0  0
   -6.4310   -0.8087   -0.2969 C   0  0  0  0  0  0  0  0  0  0  0  0
   -5.0556   -0.5430   -0.3125 C   0  0  0  0  0  0  0  0  0  0  0  0
   -4.1348   -1.4621    0.2283 N   0  0  0  0  0  0  0  0  0  0  0  0
   -4.1985   -2.8680    0.1724 C   0  0  0  0  0  0  0  0  0  0  0  0
   -3.6247   -3.6397    1.1929 C   0  0  0  0  0  0  0  0  0  0  0  0
   -3.6533   -5.0463    1.1548 C   0  0  0  0  0  0  0  0  0  0  0  0
   -2.9809   -5.8435    2.2484 C   0  0  0  0  0  0  0  0  0  0  0  0
   -3.8560   -6.8372    2.9907 C   0  0  0  0  0  0  0  0  0  0  0  0
   -3.4787   -7.9935    3.1690 O   0  0  0  0  0  0  0  0  0  0  0  0
   -5.0461   -6.3208    3.4738 N   0  0  0  0  0  0  0  0  0  0  0  0
   -5.9456   -7.1096    4.2355 C   0  0  0  0  0  0  0  0  0  0  0  0
   -5.4900   -7.8741    5.3127 C   0  0  0  0  0  0  0  0  0  0  0  0
   -6.2850   -8.6197    6.1130 N   0  0  0  0  0  0  0  0  0  0  0  0
   -7.5981   -8.6359    5.8000 C   0  0  0  0  0  0  0  0  0  0  0  0
   -8.1715   -7.9321    4.7372 C   0  0  0  0  0  0  0  0  0  0  0  0
   -9.5434   -8.0327    4.4449 C   0  0  0  0  0  0  0  0  0  0  0  0
  -10.0893   -7.3550    3.3564 C   0  0  0  0  0  0  0  0  0  0  0  0
   -9.2746   -6.5686    2.5520 C   0  0  0  0  0  0  0  0  0  0  0  0
   -7.9121   -6.4555    2.8364 C   0  0  0  0  0  0  0  0  0  0  0  0
   -7.3276   -7.1293    3.9348 C   0  0  0  0  0  0  0  0  0  0  0  0
   -4.2493   -5.6838    0.0572 C   0  0  0  0  0  0  0  0  0  0  0  0
   -4.8237   -4.9243   -0.9594 C   0  0  0  0  0  0  0  0  0  0  0  0
   -5.5551   -5.7048   -2.3077 Cl  0  0  0  0  0  0  0  0  0  0  0  0
   -4.8017   -3.5323   -0.9030 C   0  0  0  0  0  0  0  0  0  0  0  0
   -4.5784    0.6554   -0.8971 C   0  0  0  0  0  0  0  0  0  0  0  0
   -5.4511    1.5595   -1.5140 C   0  0  0  0  0  0  0  0  0  0  0  0
   -8.7117    0.0485   -1.0992 C   0  0  0  0  0  0  0  0  0  0  0  0
   -9.4240   -0.8425   -0.6875 O   0  0  0  0  0  0  0  0  0  0  0  0
  -10.4372    2.4086   -2.7727 H   0  0  0  0  0  0  0  0  0  0  0  0
  -11.0404    1.4769   -1.3635 H   0  0  0  0  0  0  0  0  0  0  0  0
  -10.7241    0.6443   -2.8947 H   0  0  0  0  0  0  0  0  0  0  0  0
   -6.8385   -1.7016    0.1659 H   0  0  0  0  0  0  0  0  0  0  0  0
   -3.5892   -1.0770    0.9929 H   0  0  0  0  0  0  0  0  0  0  0  0
   -3.1379   -3.1389    2.0283 H   0  0  0  0  0  0  0  0  0  0  0  0
   -2.5529   -5.1750    3.0049 H   0  0  0  0  0  0  0  0  0  0  0  0
   -2.1431   -6.3921    1.8012 H   0  0  0  0  0  0  0  0  0  0  0  0
   -5.4339   -5.5358    2.9674 H   0  0  0  0  0  0  0  0  0  0  0  0
   -4.4409   -7.8811    5.5969 H   0  0  0  0  0  0  0  0  0  0  0  0
   -8.2018   -9.2689    6.4463 H   0  0  0  0  0  0  0  0  0  0  0  0
  -10.1927   -8.6587    5.0537 H   0  0  0  0  0  0  0  0  0  0  0  0
  -11.1475   -7.4523    3.1278 H   0  0  0  0  0  0  0  0  0  0  0  0
   -9.6915   -6.0539    1.6897 H   0  0  0  0  0  0  0  0  0  0  0  0
   -7.3107   -5.8591    2.1565 H   0  0  0  0  0  0  0  0  0  0  0  0
   -4.2485   -6.7699   -0.0208 H   0  0  0  0  0  0  0  0  0  0  0  0
   -5.2321   -2.9631   -1.7231 H   0  0  0  0  0  0  0  0  0  0  0  0
   -3.5082    0.8561   -0.9159 H   0  0  0  0  0  0  0  0  0  0  0  0
   -5.0853    2.4623   -2.0016 H   0  0  0  0  0  0  0  0  0  0  0  0
  1  2  1  0  0  0  0
  1 35  1  0  0  0  0
  1 36  1  0  0  0  0
  1 37  1  0  0  0  0
  2  3  1  0  0  0  0
  2 33  1  0  0  0  0
  3  4  2  0  0  0  0
  3  5  1  0  0  0  0
  5  6  2  0  0  0  0
  5 32  1  0  0  0  0
  6  7  1  0  0  0  0
  6 33  1  0  0  0  0
  7  8  2  0  0  0  0
  7 38  1  0  0  0  0
  8  9  1  0  0  0  0
  8 31  1  0  0  0  0
  9 10  1  0  0  0  0
  9 39  1  0  0  0  0
 10 11  2  0  0  0  0
 10 30  1  0  0  0  0
 11 12  1  0  0  0  0
 11 40  1  0  0  0  0
 12 13  1  0  0  0  0
 12 27  2  0  0  0  0
 13 14  1  0  0  0  0
 13 41  1  0  0  0  0
 13 42  1  0  0  0  0
 14 15  2  0  0  0  0
 14 16  1  0  0  0  0
 16 17  1  0  0  0  0
 16 43  1  0  0  0  0
 17 18  2  0  0  0  0
 17 26  1  0  0  0  0
 18 19  1  0  0  0  0
 18 44  1  0  0  0  0
 19 20  2  0  0  0  0
 20 21  1  0  0  0  0
 20 45  1  0  0  0  0
 21 22  2  0  0  0  0
 21 26  1  0  0  0  0
 22 23  1  0  0  0  0
 22 46  1  0  0  0  0
 23 24  2  0  0  0  0
 23 47  1  0  0  0  0
 24 25  1  0  0  0  0
 24 48  1  0  0  0  0
 25 26  2  0  0  0  0
 25 49  1  0  0  0  0
 27 28  1  0  0  0  0
 27 50  1  0  0  0  0
 28 29  1  0  0  0  0
 28 30  2  0  0  0  0
 30 51  1  0  0  0  0
 31 32  2  0  0  0  0
 31 52  1  0  0  0  0
 32 53  1  0  0  0  0
 33 34  2  0  0  0  0
M  END
$$$$
