
 OpenBabel07202414133D

 25 25  0  0  0  0  0  0  0  0999 V2000
    6.0242   -1.5535    0.9103 C   0  0  0  0  0  0  0  0  0  0  0  0
    5.4626   -0.5995   -0.1294 C   0  0  0  0  0  0  0  0  0  0  0  0
    5.4531    0.7137    0.4467 O   0  0  0  0  0  0  0  0  0  0  0  0
    4.3300    1.0295    1.1448 C   0  0  0  0  0  0  0  0  0  0  0  0
    3.2621    0.4454    1.0926 O   0  0  0  0  0  0  0  0  0  0  0  0
    4.6746    2.1186    2.0995 C   0  0  0  0  0  0  0  0  0  0  0  0
    5.5556    3.0516    1.6357 N   0  0  0  0  0  0  0  0  0  0  0  0
    5.9138    3.9771    2.5380 C   0  0  0  0  0  0  0  0  0  0  0  0
    7.0593    5.2342    1.9908 S   0  0  0  0  0  0  0  0  0  0  0  0
    7.3653    4.8346    0.2906 C   0  0  0  0  0  0  0  0  0  0  0  0
    6.3652    6.5103    2.0057 O   0  0  0  0  0  0  0  0  0  0  0  0
    8.3120    5.0437    2.7050 O   0  0  0  0  0  0  0  0  0  0  0  0
    5.4989    4.0700    3.8151 N   0  0  0  0  0  0  0  0  0  0  0  0
    4.6276    3.1173    4.2071 C   0  0  0  0  0  0  0  0  0  0  0  0
    4.1695    2.1033    3.3910 C   0  0  0  0  0  0  0  0  0  0  0  0
    3.1197    0.9154    4.0493 Cl  0  0  0  0  0  0  0  0  0  0  0  0
    6.0670   -2.5764    0.5301 H   0  0  0  0  0  0  0  0  0  0  0  0
    5.4154   -1.5389    1.8213 H   0  0  0  0  0  0  0  0  0  0  0  0
    7.0323   -1.2403    1.2048 H   0  0  0  0  0  0  0  0  0  0  0  0
    4.4673   -0.9112   -0.4655 H   0  0  0  0  0  0  0  0  0  0  0  0
    6.1136   -0.5740   -1.0089 H   0  0  0  0  0  0  0  0  0  0  0  0
    6.4232    4.8571   -0.2611 H   0  0  0  0  0  0  0  0  0  0  0  0
    7.8342    3.8508    0.2286 H   0  0  0  0  0  0  0  0  0  0  0  0
    8.0428    5.5898   -0.1145 H   0  0  0  0  0  0  0  0  0  0  0  0
    4.3103    3.1901    5.2449 H   0  0  0  0  0  0  0  0  0  0  0  0
  1  2  1  0  0  0  0
  1 17  1  0  0  0  0
  1 18  1  0  0  0  0
  1 19  1  0  0  0  0
  2  3  1  0  0  0  0
  2 20  1  0  0  0  0
  2 21  1  0  0  0  0
  3  4  1  0  0  0  0
  4  5  2  0  0  0  0
  4  6  1  0  0  0  0
  6  7  1  0  0  0  0
  6 15  2  0  0  0  0
  7  8  2  0  0  0  0
  8  9  1  0  0  0  0
  8 13  1  0  0  0  0
  9 10  1  0  0  0  0
  9 11  2  0  0  0  0
  9 12  2  0  0  0  0
 10 22  1  0  0  0  0
 10 23  1  0  0  0  0
 10 24  1  0  0  0  0
 13 14  2  0  0  0  0
 14 15  1  0  0  0  0
 14 25  1  0  0  0  0
 15 16  1  0  0  0  0
M  END
$$$$
