
 OpenBabel07202414123D

 58 59  0  0  1  0  0  0  0  0999 V2000
    3.1379    2.6335    2.3906 C   0  0  0  0  0  0  0  0  0  0  0  0
    4.6606    2.5523    2.3086 C   0  0  0  0  0  0  0  0  0  0  0  0
    5.2461    2.3441    3.7100 C   0  0  0  0  0  0  0  0  0  0  0  0
    5.1464    1.4283    1.3621 C   0  0  0  0  0  0  0  0  0  0  0  0
    4.7148    1.5516   -0.1335 C   0  0  1  0  0  0  0  0  0  0  0  0
    5.2746    2.8587   -0.7590 C   0  0  0  0  0  0  0  0  0  0  0  0
    6.7314    2.7911   -0.9167 N   0  0  0  0  0  0  0  0  0  0  0  0
    7.5129    3.8462   -0.4749 C   0  0  0  0  0  0  0  0  0  0  0  0
    7.0232    4.8124    0.1203 O   0  0  0  0  0  0  0  0  0  0  0  0
    9.0296    3.7695   -0.6541 C   0  0  0  0  0  0  0  0  0  0  0  0
    9.4414    3.3527   -1.9366 O   0  0  0  0  0  0  0  0  0  0  0  0
   10.9946    2.9289   -2.0962 S   0  0  0  0  0  0  0  0  0  0  0  0
   11.7776    4.1455   -2.1619 O   0  0  0  0  0  0  0  0  0  0  0  0
   11.2921    1.9005   -1.1239 O   0  0  0  0  0  0  0  0  0  0  0  0
   11.0647    2.1958   -3.6344 N   0  0  0  0  0  0  0  0  0  0  0  0
   10.4807    3.0040   -4.7228 C   0  0  0  0  0  0  0  0  0  0  0  0
   12.4273    1.7233   -3.9725 C   0  0  0  0  0  0  0  0  0  0  0  0
    7.2269    1.5877   -1.5934 C   0  0  0  0  0  0  0  0  0  0  0  0
    6.6017    0.2974   -1.0388 C   0  0  0  0  0  0  0  0  0  0  0  0
    5.1291    0.3278   -0.9068 N   0  0  0  0  0  0  0  0  0  0  0  0
    4.4695    0.2861   -2.2327 C   0  0  0  0  0  0  0  0  0  0  0  0
    4.7883   -0.9478   -3.0579 C   0  0  0  0  0  0  0  0  0  0  0  0
    5.3322   -0.8229   -4.3490 C   0  0  0  0  0  0  0  0  0  0  0  0
    5.5992   -1.9538   -5.1249 C   0  0  0  0  0  0  0  0  0  0  0  0
    5.3316   -3.2245   -4.6173 C   0  0  0  0  0  0  0  0  0  0  0  0
    4.8075   -3.3582   -3.3322 C   0  0  0  0  0  0  0  0  0  0  0  0
    4.5002   -4.9290   -2.6995 Cl  0  0  0  0  0  0  0  0  0  0  0  0
    4.5317   -2.2326   -2.5561 C   0  0  0  0  0  0  0  0  0  0  0  0
    2.8280    3.3707    3.1396 H   0  0  0  0  0  0  0  0  0  0  0  0
    2.7035    1.6676    2.6681 H   0  0  0  0  0  0  0  0  0  0  0  0
    2.7058    2.9443    1.4349 H   0  0  0  0  0  0  0  0  0  0  0  0
    5.0363    3.5192    1.9567 H   0  0  0  0  0  0  0  0  0  0  0  0
    4.9268    1.3889    4.1394 H   0  0  0  0  0  0  0  0  0  0  0  0
    4.9287    3.1444    4.3876 H   0  0  0  0  0  0  0  0  0  0  0  0
    6.3412    2.3553    3.6787 H   0  0  0  0  0  0  0  0  0  0  0  0
    4.8045    0.4615    1.7528 H   0  0  0  0  0  0  0  0  0  0  0  0
    6.2417    1.4149    1.4292 H   0  0  0  0  0  0  0  0  0  0  0  0
    3.6191    1.5927   -0.1510 H   0  0  0  0  0  0  0  0  0  0  0  0
    4.9722    3.7319   -0.1744 H   0  0  0  0  0  0  0  0  0  0  0  0
    4.8503    3.0230   -1.7562 H   0  0  0  0  0  0  0  0  0  0  0  0
    9.4087    3.1032    0.1297 H   0  0  0  0  0  0  0  0  0  0  0  0
    9.4333    4.7730   -0.4818 H   0  0  0  0  0  0  0  0  0  0  0  0
    9.4170    3.1767   -4.5359 H   0  0  0  0  0  0  0  0  0  0  0  0
   10.5496    2.4566   -5.6696 H   0  0  0  0  0  0  0  0  0  0  0  0
   10.9997    3.9580   -4.8350 H   0  0  0  0  0  0  0  0  0  0  0  0
   12.7830    1.0064   -3.2267 H   0  0  0  0  0  0  0  0  0  0  0  0
   13.1276    2.5627   -4.0370 H   0  0  0  0  0  0  0  0  0  0  0  0
   12.4194    1.2088   -4.9387 H   0  0  0  0  0  0  0  0  0  0  0  0
    8.3036    1.4784   -1.4838 H   0  0  0  0  0  0  0  0  0  0  0  0
    7.0031    1.7053   -2.6600 H   0  0  0  0  0  0  0  0  0  0  0  0
    7.0344    0.0977   -0.0517 H   0  0  0  0  0  0  0  0  0  0  0  0
    6.9346   -0.5528   -1.6445 H   0  0  0  0  0  0  0  0  0  0  0  0
    4.7140    1.1717   -2.8299 H   0  0  0  0  0  0  0  0  0  0  0  0
    3.3804    0.3021   -2.0976 H   0  0  0  0  0  0  0  0  0  0  0  0
    5.5528    0.1594   -4.7628 H   0  0  0  0  0  0  0  0  0  0  0  0
    6.0129   -1.8446   -6.1231 H   0  0  0  0  0  0  0  0  0  0  0  0
    5.5343   -4.1028   -5.2239 H   0  0  0  0  0  0  0  0  0  0  0  0
    4.1263   -2.3471   -1.5532 H   0  0  0  0  0  0  0  0  0  0  0  0
  1  2  1  0  0  0  0
  1 29  1  0  0  0  0
  1 30  1  0  0  0  0
  1 31  1  0  0  0  0
  2  3  1  0  0  0  0
  2  4  1  0  0  0  0
  2 32  1  0  0  0  0
  3 33  1  0  0  0  0
  3 34  1  0  0  0  0
  3 35  1  0  0  0  0
  4 36  1  0  0  0  0
  4 37  1  0  0  0  0
  5  6  1  0  0  0  0
  5 20  1  0  0  0  0
  5  4  1  0  0  0  0
  5 38  1  6  0  0  0
  6  7  1  0  0  0  0
  6 39  1  0  0  0  0
  6 40  1  0  0  0  0
  7  8  1  0  0  0  0
  7 18  1  0  0  0  0
  8  9  2  0  0  0  0
  8 10  1  0  0  0  0
 10 11  1  0  0  0  0
 10 41  1  0  0  0  0
 10 42  1  0  0  0  0
 11 12  1  0  0  0  0
 12 13  2  0  0  0  0
 12 14  2  0  0  0  0
 12 15  1  0  0  0  0
 15 16  1  0  0  0  0
 15 17  1  0  0  0  0
 16 43  1  0  0  0  0
 16 44  1  0  0  0  0
 16 45  1  0  0  0  0
 17 46  1  0  0  0  0
 17 47  1  0  0  0  0
 17 48  1  0  0  0  0
 18 19  1  0  0  0  0
 18 49  1  0  0  0  0
 18 50  1  0  0  0  0
 19 20  1  0  0  0  0
 19 51  1  0  0  0  0
 19 52  1  0  0  0  0
 20 21  1  0  0  0  0
 21 22  1  0  0  0  0
 21 53  1  0  0  0  0
 21 54  1  0  0  0  0
 22 23  1  0  0  0  0
 22 28  2  0  0  0  0
 23 24  2  0  0  0  0
 23 55  1  0  0  0  0
 24 25  1  0  0  0  0
 24 56  1  0  0  0  0
 25 26  2  0  0  0  0
 25 57  1  0  0  0  0
 26 27  1  0  0  0  0
 26 28  1  0  0  0  0
 28 58  1  0  0  0  0
M  END
$$$$
