
 OpenBabel07202414113D

 74 78  0  0  1  0  0  0  0  0999 V2000
    2.7372   -1.0656   -1.5765 C   0  0  0  0  0  0  0  0  0  0  0  0
    3.7998   -0.2379   -1.6432 C   0  0  0  0  0  0  0  0  0  0  0  0
    3.6678    1.2689   -1.5148 C   0  0  0  0  0  0  0  0  0  0  0  0
    2.3798    1.8552   -2.0842 N   0  0  0  0  0  0  0  0  0  0  0  0
    1.2104    1.9603   -1.3040 C   0  0  0  0  0  0  0  0  0  0  0  0
    1.2559    1.6277   -0.1079 O   0  0  0  0  0  0  0  0  0  0  0  0
   -0.2089    2.3625   -1.8845 C   0  0  2  0  0  0  0  0  0  0  0  0
   -0.6402    1.6069   -3.1572 C   0  0  0  0  0  0  0  0  0  0  0  0
   -0.1973    2.3326   -4.3373 N   0  0  0  0  0  0  0  0  0  0  0  0
   -0.0376    1.5460   -5.5591 C   0  0  0  0  0  0  0  0  0  0  0  0
   -1.2566    0.7309   -5.9932 C   0  0  0  0  0  0  0  0  0  0  0  0
   -2.3249    1.2386   -6.3040 O   0  0  0  0  0  0  0  0  0  0  0  0
   -0.9957   -0.6338   -6.0221 N   0  0  0  0  0  0  0  0  0  0  0  0
   -1.9429   -1.5969   -6.5094 C   0  0  0  0  0  0  0  0  0  0  0  0
   -0.8787    3.6113   -4.5042 C   0  0  0  0  0  0  0  0  0  0  0  0
   -0.8320    4.4466   -3.2313 C   0  0  0  0  0  0  0  0  0  0  0  0
   -1.1344    5.8184   -3.3104 C   0  0  0  0  0  0  0  0  0  0  0  0
   -1.2471    6.5898   -2.1508 C   0  0  0  0  0  0  0  0  0  0  0  0
   -1.0956    5.9797   -0.9098 C   0  0  0  0  0  0  0  0  0  0  0  0
   -1.3439    6.9049    0.5217 Cl  0  0  0  0  0  0  0  0  0  0  0  0
   -0.7685    4.6231   -0.8099 C   0  0  0  0  0  0  0  0  0  0  0  0
   -0.5794    3.8475   -1.9710 C   0  0  0  0  0  0  0  0  0  0  0  0
    2.6018    2.7041   -3.2108 C   0  0  0  0  0  0  0  0  0  0  0  0
    2.9318    2.1136   -4.4301 C   0  0  0  0  0  0  0  0  0  0  0  0
    3.0481    2.7820   -5.5989 N   0  0  0  0  0  0  0  0  0  0  0  0
    2.9419    4.1255   -5.5239 C   0  0  0  0  0  0  0  0  0  0  0  0
    2.8308    4.8426   -4.3324 C   0  0  0  0  0  0  0  0  0  0  0  0
    2.9782    6.2404   -4.3102 C   0  0  0  0  0  0  0  0  0  0  0  0
    2.9425    6.9372   -3.1050 C   0  0  0  0  0  0  0  0  0  0  0  0
    2.6840    6.2556   -1.9229 C   0  0  0  0  0  0  0  0  0  0  0  0
    2.5225    4.8676   -1.9366 C   0  0  0  0  0  0  0  0  0  0  0  0
    2.6237    4.1201   -3.1345 C   0  0  0  0  0  0  0  0  0  0  0  0
    5.0742   -0.9996   -1.9896 C   0  0  0  0  0  0  0  0  0  0  0  0
    5.0027   -1.8167   -2.9181 O   0  0  0  0  0  0  0  0  0  0  0  0
    6.2147   -0.9647   -1.1787 N   0  0  0  0  0  0  0  0  0  0  0  0
    7.2208   -2.0274   -1.4062 C   0  0  0  0  0  0  0  0  0  0  0  0
    8.0044   -2.3655   -0.1343 C   0  0  0  0  0  0  0  0  0  0  0  0
    8.6692   -1.1161    0.4342 C   0  0  0  0  0  0  0  0  0  0  0  0
    7.6118   -0.0414    0.6701 C   0  0  0  0  0  0  0  0  0  0  0  0
    6.7658    0.2489   -0.5762 C   0  0  0  0  0  0  0  0  0  0  0  0
    1.7366   -0.7043   -1.3783 H   0  0  0  0  0  0  0  0  0  0  0  0
    2.8353   -2.1392   -1.7199 H   0  0  0  0  0  0  0  0  0  0  0  0
    4.5177    1.7527   -2.0126 H   0  0  0  0  0  0  0  0  0  0  0  0
    3.7135    1.5361   -0.4533 H   0  0  0  0  0  0  0  0  0  0  0  0
   -0.9008    1.9685   -1.1184 H   0  0  0  0  0  0  0  0  0  0  0  0
   -1.7389    1.5191   -3.1761 H   0  0  0  0  0  0  0  0  0  0  0  0
   -0.2459    0.5864   -3.1301 H   0  0  0  0  0  0  0  0  0  0  0  0
    0.7931    0.8530   -5.3894 H   0  0  0  0  0  0  0  0  0  0  0  0
    0.2736    2.1769   -6.3988 H   0  0  0  0  0  0  0  0  0  0  0  0
   -0.1049   -0.9722   -5.6966 H   0  0  0  0  0  0  0  0  0  0  0  0
   -2.8027   -1.1188   -6.9832 H   0  0  0  0  0  0  0  0  0  0  0  0
   -2.2668   -2.2099   -5.6641 H   0  0  0  0  0  0  0  0  0  0  0  0
   -1.4238   -2.2308   -7.2350 H   0  0  0  0  0  0  0  0  0  0  0  0
   -1.9305    3.4765   -4.7864 H   0  0  0  0  0  0  0  0  0  0  0  0
   -0.3871    4.1857   -5.2996 H   0  0  0  0  0  0  0  0  0  0  0  0
   -1.2929    6.2949   -4.2765 H   0  0  0  0  0  0  0  0  0  0  0  0
   -1.4777    7.6452   -2.2229 H   0  0  0  0  0  0  0  0  0  0  0  0
   -0.6902    4.1586    0.1719 H   0  0  0  0  0  0  0  0  0  0  0  0
    3.0485    1.0367   -4.5148 H   0  0  0  0  0  0  0  0  0  0  0  0
    2.9812    4.6335   -6.4846 H   0  0  0  0  0  0  0  0  0  0  0  0
    3.1832    6.7878   -5.2280 H   0  0  0  0  0  0  0  0  0  0  0  0
    3.1281    8.0079   -3.0874 H   0  0  0  0  0  0  0  0  0  0  0  0
    2.6202    6.7980   -0.9828 H   0  0  0  0  0  0  0  0  0  0  0  0
    2.3297    4.3741   -0.9872 H   0  0  0  0  0  0  0  0  0  0  0  0
    7.9109   -1.6872   -2.1892 H   0  0  0  0  0  0  0  0  0  0  0  0
    6.7417   -2.9424   -1.7670 H   0  0  0  0  0  0  0  0  0  0  0  0
    8.7603   -3.1325   -0.3397 H   0  0  0  0  0  0  0  0  0  0  0  0
    7.3235   -2.7826    0.6175 H   0  0  0  0  0  0  0  0  0  0  0  0
    9.4318   -0.7542   -0.2694 H   0  0  0  0  0  0  0  0  0  0  0  0
    9.1861   -1.3599    1.3679 H   0  0  0  0  0  0  0  0  0  0  0  0
    8.1017    0.8762    1.0136 H   0  0  0  0  0  0  0  0  0  0  0  0
    6.9539   -0.3792    1.4793 H   0  0  0  0  0  0  0  0  0  0  0  0
    7.3957    0.7269   -1.3399 H   0  0  0  0  0  0  0  0  0  0  0  0
    5.9757    0.9426   -0.3187 H   0  0  0  0  0  0  0  0  0  0  0  0
  1  2  2  0  0  0  0
  1 41  1  0  0  0  0
  1 42  1  0  0  0  0
  2  3  1  0  0  0  0
  2 33  1  0  0  0  0
  3  4  1  0  0  0  0
  3 43  1  0  0  0  0
  3 44  1  0  0  0  0
  4  5  1  0  0  0  0
  4 23  1  0  0  0  0
  5  6  2  0  0  0  0
  5  7  1  0  0  0  0
  7  8  1  0  0  0  0
  7 22  1  0  0  0  0
  7 45  1  1  0  0  0
  8  9  1  0  0  0  0
  8 46  1  0  0  0  0
  8 47  1  0  0  0  0
  9 10  1  0  0  0  0
  9 15  1  0  0  0  0
 10 11  1  0  0  0  0
 10 48  1  0  0  0  0
 10 49  1  0  0  0  0
 11 12  2  0  0  0  0
 11 13  1  0  0  0  0
 13 14  1  0  0  0  0
 13 50  1  0  0  0  0
 14 51  1  0  0  0  0
 14 52  1  0  0  0  0
 14 53  1  0  0  0  0
 15 16  1  0  0  0  0
 15 54  1  0  0  0  0
 15 55  1  0  0  0  0
 16 17  1  0  0  0  0
 16 22  2  0  0  0  0
 17 18  2  0  0  0  0
 17 56  1  0  0  0  0
 18 19  1  0  0  0  0
 18 57  1  0  0  0  0
 19 20  1  0  0  0  0
 19 21  2  0  0  0  0
 21 22  1  0  0  0  0
 21 58  1  0  0  0  0
 23 24  1  0  0  0  0
 23 32  2  0  0  0  0
 24 25  2  0  0  0  0
 24 59  1  0  0  0  0
 25 26  1  0  0  0  0
 26 27  2  0  0  0  0
 26 60  1  0  0  0  0
 27 28  1  0  0  0  0
 27 32  1  0  0  0  0
 28 29  2  0  0  0  0
 28 61  1  0  0  0  0
 29 30  1  0  0  0  0
 29 62  1  0  0  0  0
 30 31  2  0  0  0  0
 30 63  1  0  0  0  0
 31 32  1  0  0  0  0
 31 64  1  0  0  0  0
 33 34  2  0  0  0  0
 33 35  1  0  0  0  0
 35 36  1  0  0  0  0
 35 40  1  0  0  0  0
 36 37  1  0  0  0  0
 36 65  1  0  0  0  0
 36 66  1  0  0  0  0
 37 38  1  0  0  0  0
 37 67  1  0  0  0  0
 37 68  1  0  0  0  0
 38 39  1  0  0  0  0
 38 69  1  0  0  0  0
 38 70  1  0  0  0  0
 39 40  1  0  0  0  0
 39 71  1  0  0  0  0
 39 72  1  0  0  0  0
 40 73  1  0  0  0  0
 40 74  1  0  0  0  0
M  END
$$$$
