
 OpenBabel07202414153D

 43 46  0  0  1  0  0  0  0  0999 V2000
    2.1547   -1.3862   -0.1205 C   0  0  0  0  0  0  0  0  0  0  0  0
    2.0989    0.0272   -0.2821 O   0  0  0  0  0  0  0  0  0  0  0  0
    2.6214    0.5566   -1.5204 C   0  0  2  0  0  0  0  0  0  0  0  0
    1.6030    0.3116   -2.6961 C   0  0  0  0  0  0  0  0  0  0  0  0
    1.9613    0.2750   -3.8750 O   0  0  0  0  0  0  0  0  0  0  0  0
    0.2960    0.1501   -2.2572 N   0  0  0  0  0  0  0  0  0  0  0  0
   -0.8239   -0.3043   -3.0078 C   0  0  0  0  0  0  0  0  0  0  0  0
   -0.7191   -0.7215   -4.3347 C   0  0  0  0  0  0  0  0  0  0  0  0
   -1.7059   -1.3391   -5.0273 N   0  0  0  0  0  0  0  0  0  0  0  0
   -2.8853   -1.4939   -4.3964 C   0  0  0  0  0  0  0  0  0  0  0  0
   -3.1622   -1.0025   -3.1243 C   0  0  0  0  0  0  0  0  0  0  0  0
   -4.4666   -1.0733   -2.5980 C   0  0  0  0  0  0  0  0  0  0  0  0
   -4.7527   -0.5304   -1.3498 C   0  0  0  0  0  0  0  0  0  0  0  0
   -3.7269    0.0325   -0.6094 C   0  0  0  0  0  0  0  0  0  0  0  0
   -3.9958    0.5577    0.5929 F   0  0  0  0  0  0  0  0  0  0  0  0
   -2.4225    0.0854   -1.0997 C   0  0  0  0  0  0  0  0  0  0  0  0
   -2.1040   -0.4046   -2.3905 C   0  0  0  0  0  0  0  0  0  0  0  0
    3.9832   -0.0445   -1.9203 C   0  0  0  0  0  0  0  0  0  0  0  0
    5.0225    0.3643   -0.8956 C   0  0  0  0  0  0  0  0  0  0  0  0
    5.2596    1.7675   -0.9460 O   0  0  0  0  0  0  0  0  0  0  0  0
    4.1256    2.5351   -0.9516 C   0  0  0  0  0  0  0  0  0  0  0  0
    4.3433    3.8859   -0.6655 C   0  0  0  0  0  0  0  0  0  0  0  0
    3.2751    4.7770   -0.6290 C   0  0  0  0  0  0  0  0  0  0  0  0
    1.9922    4.3106   -0.8925 C   0  0  0  0  0  0  0  0  0  0  0  0
    0.6634    5.4021   -0.8384 Cl  0  0  0  0  0  0  0  0  0  0  0  0
    1.7695    2.9615   -1.1917 C   0  0  0  0  0  0  0  0  0  0  0  0
    2.8379    2.0460   -1.2378 C   0  0  0  0  0  0  0  0  0  0  0  0
    1.6312   -1.6381    0.8058 H   0  0  0  0  0  0  0  0  0  0  0  0
    3.1858   -1.7328   -0.0141 H   0  0  0  0  0  0  0  0  0  0  0  0
    1.6640   -1.9038   -0.9487 H   0  0  0  0  0  0  0  0  0  0  0  0
    0.1802    0.2494   -1.2543 H   0  0  0  0  0  0  0  0  0  0  0  0
    0.1833   -0.5893   -4.9195 H   0  0  0  0  0  0  0  0  0  0  0  0
   -3.6357   -2.0275   -4.9753 H   0  0  0  0  0  0  0  0  0  0  0  0
   -5.2749   -1.5165   -3.1775 H   0  0  0  0  0  0  0  0  0  0  0  0
   -5.7655   -0.5316   -0.9594 H   0  0  0  0  0  0  0  0  0  0  0  0
   -1.6840    0.5646   -0.4668 H   0  0  0  0  0  0  0  0  0  0  0  0
    4.2937    0.3343   -2.9039 H   0  0  0  0  0  0  0  0  0  0  0  0
    3.9389   -1.1349   -2.0039 H   0  0  0  0  0  0  0  0  0  0  0  0
    5.9731   -0.1321   -1.1162 H   0  0  0  0  0  0  0  0  0  0  0  0
    4.7464    0.0850    0.1280 H   0  0  0  0  0  0  0  0  0  0  0  0
    5.3517    4.2391   -0.4575 H   0  0  0  0  0  0  0  0  0  0  0  0
    3.4504    5.8217   -0.3905 H   0  0  0  0  0  0  0  0  0  0  0  0
    0.7514    2.6334   -1.3760 H   0  0  0  0  0  0  0  0  0  0  0  0
  1  2  1  0  0  0  0
  1 28  1  0  0  0  0
  1 29  1  0  0  0  0
  1 30  1  0  0  0  0
  3  2  1  1  0  0  0
  3  4  1  0  0  0  0
  3 18  1  0  0  0  0
  3 27  1  0  0  0  0
  4  5  2  0  0  0  0
  4  6  1  0  0  0  0
  6  7  1  0  0  0  0
  6 31  1  0  0  0  0
  7  8  1  0  0  0  0
  7 17  2  0  0  0  0
  8  9  2  0  0  0  0
  8 32  1  0  0  0  0
  9 10  1  0  0  0  0
 10 11  2  0  0  0  0
 10 33  1  0  0  0  0
 11 12  1  0  0  0  0
 11 17  1  0  0  0  0
 12 13  2  0  0  0  0
 12 34  1  0  0  0  0
 13 14  1  0  0  0  0
 13 35  1  0  0  0  0
 14 15  1  0  0  0  0
 14 16  2  0  0  0  0
 16 17  1  0  0  0  0
 16 36  1  0  0  0  0
 18 19  1  0  0  0  0
 18 37  1  0  0  0  0
 18 38  1  0  0  0  0
 19 20  1  0  0  0  0
 19 39  1  0  0  0  0
 19 40  1  0  0  0  0
 20 21  1  0  0  0  0
 21 22  1  0  0  0  0
 21 27  2  0  0  0  0
 22 23  2  0  0  0  0
 22 41  1  0  0  0  0
 23 24  1  0  0  0  0
 23 42  1  0  0  0  0
 24 25  1  0  0  0  0
 24 26  2  0  0  0  0
 26 27  1  0  0  0  0
 26 43  1  0  0  0  0
M  END
$$$$
