
 OpenBabel07202414123D

 66 69  0  0  1  0  0  0  0  0999 V2000
    4.6763    1.6284    0.0983 C   0  0  0  0  0  0  0  0  0  0  0  0
    3.3271    0.9600    0.4583 C   0  0  0  0  0  0  0  0  0  0  0  0
    2.4856    2.0249    1.1981 C   0  0  0  0  0  0  0  0  0  0  0  0
    2.6253    0.6086   -0.8689 C   0  0  0  0  0  0  0  0  0  0  0  0
    3.4793   -0.2826    1.3575 C   0  0  0  0  0  0  0  0  0  0  0  0
    4.7198   -0.6908    1.8603 C   0  0  0  0  0  0  0  0  0  0  0  0
    4.8150   -1.7070    2.8190 C   0  0  0  0  0  0  0  0  0  0  0  0
    3.6849   -2.3970    3.2838 C   0  0  0  0  0  0  0  0  0  0  0  0
    3.8442   -3.3520    4.3543 N   0  0  0  0  0  0  0  0  0  0  0  0
    3.3611   -4.7649    4.2267 C   0  0  3  0  0  0  0  0  0  0  0  0
    1.8677   -4.9580    4.6889 C   0  0  0  0  0  0  0  0  0  0  0  0
    0.9344   -4.2705    4.2812 O   0  0  0  0  0  0  0  0  0  0  0  0
    1.6377   -6.0340    5.5374 N   0  0  0  0  0  0  0  0  0  0  0  0
    0.2913   -6.4902    5.8572 C   0  0  0  0  0  0  0  0  0  0  0  0
    0.1826   -6.9973    7.2970 C   0  0  0  0  0  0  0  0  0  0  0  0
   -1.2085   -7.4769    7.6341 C   0  0  0  0  0  0  0  0  0  0  0  0
   -2.1578   -6.5902    8.1666 C   0  0  0  0  0  0  0  0  0  0  0  0
   -3.4518   -7.0265    8.4734 C   0  0  0  0  0  0  0  0  0  0  0  0
   -3.8109   -8.3544    8.2458 C   0  0  0  0  0  0  0  0  0  0  0  0
   -2.8741   -9.2312    7.7125 C   0  0  0  0  0  0  0  0  0  0  0  0
   -3.2178  -10.5066    7.4914 F   0  0  0  0  0  0  0  0  0  0  0  0
   -1.5834   -8.8073    7.4036 C   0  0  0  0  0  0  0  0  0  0  0  0
    3.6008   -5.5269    2.9057 C   0  0  0  0  0  0  0  0  0  0  0  0
    4.1847   -5.0172    1.7444 C   0  0  0  0  0  0  0  0  0  0  0  0
    4.2522   -5.7811    0.5784 C   0  0  0  0  0  0  0  0  0  0  0  0
    3.7855   -7.0784    0.6115 C   0  0  0  0  0  0  0  0  0  0  0  0
    3.3090   -7.6582    1.7268 N   0  0  0  0  0  0  0  0  0  0  0  0
    3.2327   -6.8776    2.8313 C   0  0  0  0  0  0  0  0  0  0  0  0
    4.4477   -2.8332    5.5458 C   0  0  0  0  0  0  0  0  0  0  0  0
    4.8753   -1.6723    5.5726 O   0  0  0  0  0  0  0  0  0  0  0  0
    4.5568   -3.6500    6.7653 C   0  0  0  0  0  0  0  0  0  0  0  0
    3.8348   -4.7144    7.0740 N   0  0  0  0  0  0  0  0  0  0  0  0
    4.1484   -5.1327    8.3547 C   0  0  0  0  0  0  0  0  0  0  0  0
    5.1397   -4.4175    8.9967 C   0  0  0  0  0  0  0  0  0  0  0  0
    5.6846   -3.1610    7.9845 S   0  0  0  0  0  0  0  0  0  0  0  0
    2.4569   -2.0726    2.7134 C   0  0  0  0  0  0  0  0  0  0  0  0
    2.3562   -1.0191    1.7803 C   0  0  0  0  0  0  0  0  0  0  0  0
    4.5268    2.5185   -0.5240 H   0  0  0  0  0  0  0  0  0  0  0  0
    5.3267    0.9458   -0.4610 H   0  0  0  0  0  0  0  0  0  0  0  0
    5.2168    1.9550    0.9951 H   0  0  0  0  0  0  0  0  0  0  0  0
    2.3413    2.9158    0.5749 H   0  0  0  0  0  0  0  0  0  0  0  0
    2.9786    2.3459    2.1235 H   0  0  0  0  0  0  0  0  0  0  0  0
    1.4901    1.6548    1.4657 H   0  0  0  0  0  0  0  0  0  0  0  0
    2.4820    1.5069   -1.4831 H   0  0  0  0  0  0  0  0  0  0  0  0
    1.6353    0.1678   -0.7134 H   0  0  0  0  0  0  0  0  0  0  0  0
    3.2186   -0.1009   -1.4563 H   0  0  0  0  0  0  0  0  0  0  0  0
    5.6455   -0.2096    1.5592 H   0  0  0  0  0  0  0  0  0  0  0  0
    5.8022   -1.9527    3.2062 H   0  0  0  0  0  0  0  0  0  0  0  0
    3.9906   -5.3406    4.9119 H   0  0  0  0  0  0  0  0  0  0  0  0
    2.4262   -6.5755    5.8710 H   0  0  0  0  0  0  0  0  0  0  0  0
    0.0574   -7.2954    5.1495 H   0  0  0  0  0  0  0  0  0  0  0  0
   -0.4289   -5.6845    5.6788 H   0  0  0  0  0  0  0  0  0  0  0  0
    0.4746   -6.2027    7.9937 H   0  0  0  0  0  0  0  0  0  0  0  0
    0.8987   -7.8116    7.4638 H   0  0  0  0  0  0  0  0  0  0  0  0
   -1.8967   -5.5502    8.3459 H   0  0  0  0  0  0  0  0  0  0  0  0
   -4.1765   -6.3316    8.8876 H   0  0  0  0  0  0  0  0  0  0  0  0
   -4.8095   -8.7078    8.4789 H   0  0  0  0  0  0  0  0  0  0  0  0
   -0.8857   -9.5254    6.9850 H   0  0  0  0  0  0  0  0  0  0  0  0
    4.5904   -4.0180    1.6846 H   0  0  0  0  0  0  0  0  0  0  0  0
    4.6508   -5.3574   -0.3369 H   0  0  0  0  0  0  0  0  0  0  0  0
    3.7864   -7.7001   -0.2782 H   0  0  0  0  0  0  0  0  0  0  0  0
    2.8458   -7.4162    3.6914 H   0  0  0  0  0  0  0  0  0  0  0  0
    3.6183   -5.9730    8.7844 H   0  0  0  0  0  0  0  0  0  0  0  0
    5.5437   -4.5685    9.9877 H   0  0  0  0  0  0  0  0  0  0  0  0
    1.5347   -2.5450    3.0272 H   0  0  0  0  0  0  0  0  0  0  0  0
    1.3604   -0.7532    1.4271 H   0  0  0  0  0  0  0  0  0  0  0  0
  1  2  1  0  0  0  0
  1 38  1  0  0  0  0
  1 39  1  0  0  0  0
  1 40  1  0  0  0  0
  2  3  1  0  0  0  0
  2  4  1  0  0  0  0
  2  5  1  0  0  0  0
  3 41  1  0  0  0  0
  3 42  1  0  0  0  0
  3 43  1  0  0  0  0
  4 44  1  0  0  0  0
  4 45  1  0  0  0  0
  4 46  1  0  0  0  0
  5  6  1  0  0  0  0
  5 37  2  0  0  0  0
  6  7  2  0  0  0  0
  6 47  1  0  0  0  0
  7  8  1  0  0  0  0
  7 48  1  0  0  0  0
  8  9  1  0  0  0  0
  8 36  2  0  0  0  0
  9 10  1  0  0  0  0
  9 29  1  0  0  0  0
 10 11  1  0  0  0  0
 10 23  1  0  0  0  0
 10 49  1  0  0  0  0
 11 12  2  0  0  0  0
 11 13  1  0  0  0  0
 13 14  1  0  0  0  0
 13 50  1  0  0  0  0
 14 15  1  0  0  0  0
 14 51  1  0  0  0  0
 14 52  1  0  0  0  0
 15 16  1  0  0  0  0
 15 53  1  0  0  0  0
 15 54  1  0  0  0  0
 16 17  1  0  0  0  0
 16 22  2  0  0  0  0
 17 18  2  0  0  0  0
 17 55  1  0  0  0  0
 18 19  1  0  0  0  0
 18 56  1  0  0  0  0
 19 20  2  0  0  0  0
 19 57  1  0  0  0  0
 20 21  1  0  0  0  0
 20 22  1  0  0  0  0
 22 58  1  0  0  0  0
 23 24  1  0  0  0  0
 23 28  2  0  0  0  0
 24 25  2  0  0  0  0
 24 59  1  0  0  0  0
 25 26  1  0  0  0  0
 25 60  1  0  0  0  0
 26 27  2  0  0  0  0
 26 61  1  0  0  0  0
 27 28  1  0  0  0  0
 28 62  1  0  0  0  0
 29 30  2  0  0  0  0
 29 31  1  0  0  0  0
 31 32  2  0  0  0  0
 31 35  1  0  0  0  0
 32 33  1  0  0  0  0
 33 34  2  0  0  0  0
 33 63  1  0  0  0  0
 34 35  1  0  0  0  0
 34 64  1  0  0  0  0
 36 37  1  0  0  0  0
 36 65  1  0  0  0  0
 37 66  1  0  0  0  0
M  END
$$$$
