
 OpenBabel07202414193D

 63 66  0  0  1  0  0  0  0  0999 V2000
    1.4381    0.9632   -0.7214 O   0  0  0  0  0  0  0  0  0  0  0  0
    2.2622    0.2003   -0.2142 C   0  0  0  0  0  0  0  0  0  0  0  0
    2.6500    0.3624    1.2610 C   0  0  0  0  0  0  0  0  0  0  0  0
    1.5736    0.7266    2.1104 O   0  0  0  0  0  0  0  0  0  0  0  0
    0.9397    2.2189    1.9951 S   0  0  0  0  0  0  0  0  0  0  0  0
    2.0092    3.1926    2.0377 O   0  0  0  0  0  0  0  0  0  0  0  0
   -0.0726    2.2565    0.9648 O   0  0  0  0  0  0  0  0  0  0  0  0
    0.0123    2.3900    3.3985 N   0  0  0  0  0  0  0  0  0  0  0  0
    0.6711    2.4893    4.6500 C   0  0  0  0  0  0  0  0  0  0  0  0
    1.1376    3.7175    5.1113 C   0  0  0  0  0  0  0  0  0  0  0  0
    1.6671    3.8107    6.3976 C   0  0  0  0  0  0  0  0  0  0  0  0
    1.7284    2.6776    7.2105 C   0  0  0  0  0  0  0  0  0  0  0  0
    1.2858    1.4440    6.7293 C   0  0  0  0  0  0  0  0  0  0  0  0
    0.7677    1.3425    5.4425 C   0  0  0  0  0  0  0  0  0  0  0  0
    2.8353   -0.7902   -0.9934 N   0  0  0  0  0  0  0  0  0  0  0  0
    2.4524   -0.8212   -2.4127 C   0  0  0  0  0  0  0  0  0  0  0  0
    2.3219   -2.2402   -2.9713 C   0  0  0  0  0  0  0  0  0  0  0  0
    3.4736   -3.1379   -2.6041 N   0  0  0  0  0  0  0  0  0  0  0  0
    4.9001   -2.8739   -3.5324 S   0  0  0  0  0  0  0  0  0  0  0  0
    5.1396   -1.4519   -3.6352 O   0  0  0  0  0  0  0  0  0  0  0  0
    5.9188   -3.7730   -3.0412 O   0  0  0  0  0  0  0  0  0  0  0  0
    4.6330   -3.3983   -5.1588 C   0  0  0  0  0  0  0  0  0  0  0  0
    4.6218   -2.5411   -6.3017 C   0  0  0  0  0  0  0  0  0  0  0  0
    4.4271   -3.2472   -7.4695 C   0  0  0  0  0  0  0  0  0  0  0  0
    4.2578   -4.9274   -7.1856 S   0  0  0  0  0  0  0  0  0  0  0  0
    4.4531   -4.7219   -5.4983 C   0  0  0  0  0  0  0  0  0  0  0  0
    3.7622   -3.0973   -1.1096 C   0  0  2  0  0  0  0  0  0  0  0  0
    2.7108   -3.7553   -0.2056 C   0  0  0  0  0  0  0  0  0  0  0  0
    2.7590   -3.6503    1.0207 O   0  0  0  0  0  0  0  0  0  0  0  0
    1.7364   -4.4896   -0.8345 N   0  0  0  0  0  0  0  0  0  0  0  0
    0.5995   -5.0530   -0.1296 C   0  0  0  0  0  0  0  0  0  0  0  0
   -0.4976   -4.0531    0.1839 C   0  0  0  0  0  0  0  0  0  0  0  0
   -0.4994   -3.3681    1.4000 C   0  0  0  0  0  0  0  0  0  0  0  0
   -1.5583   -2.5141    1.6992 C   0  0  0  0  0  0  0  0  0  0  0  0
   -2.5851   -2.3567    0.7787 C   0  0  0  0  0  0  0  0  0  0  0  0
   -2.4998   -3.0520   -0.4159 C   0  0  0  0  0  0  0  0  0  0  0  0
   -1.4836   -3.8893   -0.7376 N   0  0  0  0  0  0  0  0  0  0  0  0
    3.9735   -1.6460   -0.6251 C   0  0  0  0  0  0  0  0  0  0  0  0
    3.4572    1.1039    1.3153 H   0  0  0  0  0  0  0  0  0  0  0  0
    3.0383   -0.5696    1.6695 H   0  0  0  0  0  0  0  0  0  0  0  0
   -0.6545    3.1342    3.2161 H   0  0  0  0  0  0  0  0  0  0  0  0
    1.0856    4.6032    4.4844 H   0  0  0  0  0  0  0  0  0  0  0  0
    2.0188    4.7691    6.7705 H   0  0  0  0  0  0  0  0  0  0  0  0
    2.1164    2.7574    8.2223 H   0  0  0  0  0  0  0  0  0  0  0  0
    1.3291    0.5636    7.3654 H   0  0  0  0  0  0  0  0  0  0  0  0
    0.3968    0.3919    5.0741 H   0  0  0  0  0  0  0  0  0  0  0  0
    3.1935   -0.2345   -2.9612 H   0  0  0  0  0  0  0  0  0  0  0  0
    1.4914   -0.3204   -2.5707 H   0  0  0  0  0  0  0  0  0  0  0  0
    2.1909   -2.2208   -4.0583 H   0  0  0  0  0  0  0  0  0  0  0  0
    1.3960   -2.6774   -2.5830 H   0  0  0  0  0  0  0  0  0  0  0  0
    4.7687   -1.4668   -6.2747 H   0  0  0  0  0  0  0  0  0  0  0  0
    4.3859   -2.8617   -8.4801 H   0  0  0  0  0  0  0  0  0  0  0  0
    4.4518   -5.5798   -4.8382 H   0  0  0  0  0  0  0  0  0  0  0  0
    4.6717   -3.6816   -0.9167 H   0  0  0  0  0  0  0  0  0  0  0  0
    1.7582   -4.5614   -1.8434 H   0  0  0  0  0  0  0  0  0  0  0  0
    0.9466   -5.5310    0.7929 H   0  0  0  0  0  0  0  0  0  0  0  0
    0.1874   -5.8384   -0.7728 H   0  0  0  0  0  0  0  0  0  0  0  0
    0.3056   -3.5061    2.1157 H   0  0  0  0  0  0  0  0  0  0  0  0
   -1.5846   -1.9808    2.6461 H   0  0  0  0  0  0  0  0  0  0  0  0
   -3.4279   -1.7060    0.9857 H   0  0  0  0  0  0  0  0  0  0  0  0
   -3.2801   -2.9569   -1.1664 H   0  0  0  0  0  0  0  0  0  0  0  0
    4.8615   -1.2069   -1.0948 H   0  0  0  0  0  0  0  0  0  0  0  0
    4.1677   -1.6229    0.4475 H   0  0  0  0  0  0  0  0  0  0  0  0
  1  2  2  0  0  0  0
  2  3  1  0  0  0  0
  2 15  1  0  0  0  0
  3  4  1  0  0  0  0
  3 39  1  0  0  0  0
  3 40  1  0  0  0  0
  4  5  1  0  0  0  0
  5  6  2  0  0  0  0
  5  7  2  0  0  0  0
  5  8  1  0  0  0  0
  8  9  1  0  0  0  0
  8 41  1  0  0  0  0
  9 10  1  0  0  0  0
  9 14  2  0  0  0  0
 10 11  2  0  0  0  0
 10 42  1  0  0  0  0
 11 12  1  0  0  0  0
 11 43  1  0  0  0  0
 12 13  2  0  0  0  0
 12 44  1  0  0  0  0
 13 14  1  0  0  0  0
 13 45  1  0  0  0  0
 14 46  1  0  0  0  0
 15 16  1  0  0  0  0
 15 38  1  0  0  0  0
 16 17  1  0  0  0  0
 16 47  1  0  0  0  0
 16 48  1  0  0  0  0
 17 18  1  0  0  0  0
 17 49  1  0  0  0  0
 17 50  1  0  0  0  0
 18 19  1  0  0  0  0
 18 27  1  0  0  0  0
 19 20  2  0  0  0  0
 19 21  2  0  0  0  0
 19 22  1  0  0  0  0
 22 23  1  0  0  0  0
 22 26  2  0  0  0  0
 23 24  2  0  0  0  0
 23 51  1  0  0  0  0
 24 25  1  0  0  0  0
 24 52  1  0  0  0  0
 25 26  1  0  0  0  0
 26 53  1  0  0  0  0
 27 38  1  0  0  0  0
 27 28  1  0  0  0  0
 27 54  1  1  0  0  0
 28 29  2  0  0  0  0
 28 30  1  0  0  0  0
 30 31  1  0  0  0  0
 30 55  1  0  0  0  0
 31 32  1  0  0  0  0
 31 56  1  0  0  0  0
 31 57  1  0  0  0  0
 32 33  1  0  0  0  0
 32 37  2  0  0  0  0
 33 34  2  0  0  0  0
 33 58  1  0  0  0  0
 34 35  1  0  0  0  0
 34 59  1  0  0  0  0
 35 36  2  0  0  0  0
 35 60  1  0  0  0  0
 36 37  1  0  0  0  0
 36 61  1  0  0  0  0
 38 62  1  0  0  0  0
 38 63  1  0  0  0  0
M  END
$$$$
