
 OpenBabel07202414193D

 44 47  0  0  1  0  0  0  0  0999 V2000
    2.7487    0.8305   -0.3015 O   0  0  0  0  0  0  0  0  0  0  0  0
    2.2472   -0.2856   -0.1744 C   0  0  0  0  0  0  0  0  0  0  0  0
    1.0428   -0.7148   -1.0101 C   0  0  0  0  0  0  0  0  0  0  0  0
   -0.0328    0.3327   -1.2099 C   0  0  0  0  0  0  0  0  0  0  0  0
   -0.3993    0.6581   -2.5159 C   0  0  0  0  0  0  0  0  0  0  0  0
   -1.4071    1.4917   -2.8481 N   0  0  0  0  0  0  0  0  0  0  0  0
   -2.0831    2.0497   -1.8207 C   0  0  0  0  0  0  0  0  0  0  0  0
   -1.8185    1.8130   -0.4717 C   0  0  0  0  0  0  0  0  0  0  0  0
   -2.5740    2.4322    0.5416 C   0  0  0  0  0  0  0  0  0  0  0  0
   -2.3075    2.1769    1.8844 C   0  0  0  0  0  0  0  0  0  0  0  0
   -1.2946    1.2880    2.2282 C   0  0  0  0  0  0  0  0  0  0  0  0
   -0.5466    0.6629    1.2217 C   0  0  0  0  0  0  0  0  0  0  0  0
   -0.7734    0.9188   -0.1477 C   0  0  0  0  0  0  0  0  0  0  0  0
    2.7457   -1.2244    0.7203 N   0  0  0  0  0  0  0  0  0  0  0  0
    2.5051   -2.6562    0.6650 C   0  0  0  0  0  0  0  0  0  0  0  0
    2.9794   -3.1457    2.0153 C   0  0  0  0  0  0  0  0  0  0  0  0
    4.2199   -2.2934    2.2609 C   0  0  0  0  0  0  0  0  0  0  0  0
    3.9039   -0.9413    1.5822 C   0  0  2  0  0  0  0  0  0  0  0  0
    3.6753    0.1707    2.5873 C   0  0  0  0  0  0  0  0  0  0  0  0
    4.6011    1.2253    2.6708 C   0  0  0  0  0  0  0  0  0  0  0  0
    4.3924    2.2954    3.5426 C   0  0  0  0  0  0  0  0  0  0  0  0
    3.2586    2.3235    4.3491 C   0  0  0  0  0  0  0  0  0  0  0  0
    2.3479    1.2695    4.3017 C   0  0  0  0  0  0  0  0  0  0  0  0
    2.5591    0.1961    3.4349 C   0  0  0  0  0  0  0  0  0  0  0  0
    0.5287   -1.5769   -0.5843 H   0  0  0  0  0  0  0  0  0  0  0  0
    1.4503   -1.0399   -1.9763 H   0  0  0  0  0  0  0  0  0  0  0  0
    0.1124    0.2248   -3.3710 H   0  0  0  0  0  0  0  0  0  0  0  0
   -2.8851    2.7168   -2.1267 H   0  0  0  0  0  0  0  0  0  0  0  0
   -3.3740    3.1250    0.2878 H   0  0  0  0  0  0  0  0  0  0  0  0
   -2.8844    2.6708    2.6608 H   0  0  0  0  0  0  0  0  0  0  0  0
   -1.0771    1.0859    3.2703 H   0  0  0  0  0  0  0  0  0  0  0  0
    0.2328   -0.0239    1.5398 H   0  0  0  0  0  0  0  0  0  0  0  0
    3.1210   -3.0623   -0.1480 H   0  0  0  0  0  0  0  0  0  0  0  0
    1.4648   -2.9197    0.4829 H   0  0  0  0  0  0  0  0  0  0  0  0
    3.1817   -4.2196    2.0275 H   0  0  0  0  0  0  0  0  0  0  0  0
    2.2171   -2.9314    2.7738 H   0  0  0  0  0  0  0  0  0  0  0  0
    5.0755   -2.7631    1.7598 H   0  0  0  0  0  0  0  0  0  0  0  0
    4.4609   -2.2208    3.3263 H   0  0  0  0  0  0  0  0  0  0  0  0
    4.7399   -0.6716    0.9237 H   0  0  0  0  0  0  0  0  0  0  0  0
    5.4827    1.2354    2.0326 H   0  0  0  0  0  0  0  0  0  0  0  0
    5.1049    3.1157    3.5749 H   0  0  0  0  0  0  0  0  0  0  0  0
    3.0805    3.1706    5.0060 H   0  0  0  0  0  0  0  0  0  0  0  0
    1.4620    1.2941    4.9310 H   0  0  0  0  0  0  0  0  0  0  0  0
    1.8305   -0.6083    3.4066 H   0  0  0  0  0  0  0  0  0  0  0  0
  1  2  2  0  0  0  0
  2  3  1  0  0  0  0
  2 14  1  0  0  0  0
  3  4  1  0  0  0  0
  3 25  1  0  0  0  0
  3 26  1  0  0  0  0
  4  5  1  0  0  0  0
  4 13  2  0  0  0  0
  5  6  2  0  0  0  0
  5 27  1  0  0  0  0
  6  7  1  0  0  0  0
  7  8  2  0  0  0  0
  7 28  1  0  0  0  0
  8  9  1  0  0  0  0
  8 13  1  0  0  0  0
  9 10  2  0  0  0  0
  9 29  1  0  0  0  0
 10 11  1  0  0  0  0
 10 30  1  0  0  0  0
 11 12  2  0  0  0  0
 11 31  1  0  0  0  0
 12 13  1  0  0  0  0
 12 32  1  0  0  0  0
 14 15  1  0  0  0  0
 14 18  1  0  0  0  0
 15 16  1  0  0  0  0
 15 33  1  0  0  0  0
 15 34  1  0  0  0  0
 16 17  1  0  0  0  0
 16 35  1  0  0  0  0
 16 36  1  0  0  0  0
 17 18  1  0  0  0  0
 17 37  1  0  0  0  0
 17 38  1  0  0  0  0
 18 19  1  0  0  0  0
 18 39  1  6  0  0  0
 19 20  1  0  0  0  0
 19 24  2  0  0  0  0
 20 21  2  0  0  0  0
 20 40  1  0  0  0  0
 21 22  1  0  0  0  0
 21 41  1  0  0  0  0
 22 23  2  0  0  0  0
 22 42  1  0  0  0  0
 23 24  1  0  0  0  0
 23 43  1  0  0  0  0
 24 44  1  0  0  0  0
M  END
$$$$
