
 OpenBabel07202414153D

 41 43  0  0  1  0  0  0  0  0999 V2000
    1.9328   -1.0670   -1.1309 C   0  0  0  0  0  0  0  0  0  0  0  0
    1.6491    0.2250   -0.6066 O   0  0  0  0  0  0  0  0  0  0  0  0
    2.5221    1.2288   -0.9353 C   0  0  0  0  0  0  0  0  0  0  0  0
    3.3138    1.1910   -2.0908 C   0  0  0  0  0  0  0  0  0  0  0  0
    4.1402    2.2650   -2.4323 C   0  0  0  0  0  0  0  0  0  0  0  0
    4.1883    3.4096   -1.6296 C   0  0  0  0  0  0  0  0  0  0  0  0
    3.3806    3.4545   -0.4858 C   0  0  0  0  0  0  0  0  0  0  0  0
    2.5622    2.3744   -0.1244 C   0  0  0  0  0  0  0  0  0  0  0  0
    1.8270    2.6225    1.0065 O   0  0  0  0  0  0  0  0  0  0  0  0
    1.5013    1.5027    1.8180 C   0  0  0  0  0  0  0  0  0  0  0  0
    5.0298    4.5893   -2.0685 C   0  0  3  0  0  0  0  0  0  0  0  0
    4.2019    5.5248   -2.9388 C   0  0  0  0  0  0  0  0  0  0  0  0
    4.3731    6.8181   -2.1957 C   0  0  0  0  0  0  0  0  0  0  0  0
    5.1086    6.7574   -1.1255 N   0  0  0  0  0  0  0  0  0  0  0  0
    5.5049    5.4526   -0.9905 N   0  0  0  0  0  0  0  0  0  0  0  0
    6.4230    5.0506   -0.0272 C   0  0  0  0  0  0  0  0  0  0  0  0
    6.8804    3.9086    0.0050 O   0  0  0  0  0  0  0  0  0  0  0  0
    6.8135    6.1525    0.9465 C   0  0  0  0  0  0  0  0  0  0  0  0
    7.8227    5.5341    2.2718 Cl  0  0  0  0  0  0  0  0  0  0  0  0
    3.7692    8.0599   -2.6308 C   0  0  0  0  0  0  0  0  0  0  0  0
    3.9031    9.3115   -2.0597 C   0  0  0  0  0  0  0  0  0  0  0  0
    3.1459   10.3084   -2.7395 C   0  0  0  0  0  0  0  0  0  0  0  0
    2.4578    9.7890   -3.8118 C   0  0  0  0  0  0  0  0  0  0  0  0
    2.7384    8.1146   -3.9982 S   0  0  0  0  0  0  0  0  0  0  0  0
    1.2403   -1.7748   -0.6652 H   0  0  0  0  0  0  0  0  0  0  0  0
    2.9521   -1.3806   -0.8813 H   0  0  0  0  0  0  0  0  0  0  0  0
    1.7595   -1.1052   -2.2107 H   0  0  0  0  0  0  0  0  0  0  0  0
    3.2883    0.3478   -2.7719 H   0  0  0  0  0  0  0  0  0  0  0  0
    4.7320    2.2030   -3.3435 H   0  0  0  0  0  0  0  0  0  0  0  0
    3.3777    4.3361    0.1502 H   0  0  0  0  0  0  0  0  0  0  0  0
    1.2355    1.8842    2.8095 H   0  0  0  0  0  0  0  0  0  0  0  0
    2.3506    0.8228    1.9437 H   0  0  0  0  0  0  0  0  0  0  0  0
    0.6209    0.9847    1.4292 H   0  0  0  0  0  0  0  0  0  0  0  0
    5.9157    4.2274   -2.6057 H   0  0  0  0  0  0  0  0  0  0  0  0
    3.1400    5.2607   -2.9915 H   0  0  0  0  0  0  0  0  0  0  0  0
    4.6090    5.6013   -3.9510 H   0  0  0  0  0  0  0  0  0  0  0  0
    5.9210    6.5962    1.3959 H   0  0  0  0  0  0  0  0  0  0  0  0
    7.3894    6.9174    0.4179 H   0  0  0  0  0  0  0  0  0  0  0  0
    4.5151    9.5019   -1.1846 H   0  0  0  0  0  0  0  0  0  0  0  0
    3.1047   11.3542   -2.4519 H   0  0  0  0  0  0  0  0  0  0  0  0
    1.8035   10.3116   -4.4960 H   0  0  0  0  0  0  0  0  0  0  0  0
  1  2  1  0  0  0  0
  1 25  1  0  0  0  0
  1 26  1  0  0  0  0
  1 27  1  0  0  0  0
  2  3  1  0  0  0  0
  3  4  1  0  0  0  0
  3  8  2  0  0  0  0
  4  5  2  0  0  0  0
  4 28  1  0  0  0  0
  5  6  1  0  0  0  0
  5 29  1  0  0  0  0
  6  7  2  0  0  0  0
  6 11  1  0  0  0  0
  7  8  1  0  0  0  0
  7 30  1  0  0  0  0
  8  9  1  0  0  0  0
  9 10  1  0  0  0  0
 10 31  1  0  0  0  0
 10 32  1  0  0  0  0
 10 33  1  0  0  0  0
 11 12  1  0  0  0  0
 11 15  1  0  0  0  0
 11 34  1  0  0  0  0
 12 13  1  0  0  0  0
 12 35  1  0  0  0  0
 12 36  1  0  0  0  0
 13 14  2  0  0  0  0
 13 20  1  0  0  0  0
 14 15  1  0  0  0  0
 15 16  1  0  0  0  0
 16 17  2  0  0  0  0
 16 18  1  0  0  0  0
 18 19  1  0  0  0  0
 18 37  1  0  0  0  0
 18 38  1  0  0  0  0
 20 21  2  0  0  0  0
 20 24  1  0  0  0  0
 21 22  1  0  0  0  0
 21 39  1  0  0  0  0
 22 23  2  0  0  0  0
 22 40  1  0  0  0  0
 23 24  1  0  0  0  0
 23 41  1  0  0  0  0
M  END
$$$$
