
 OpenBabel07202414183D

 36 39  0  0  1  0  0  0  0  0999 V2000
    6.5996    1.5205   -2.5287 Cl  0  0  0  0  0  0  0  0  0  0  0  0
    6.8608   -0.1508   -2.2312 C   0  0  0  0  0  0  0  0  0  0  0  0
    7.8038   -0.8542   -2.9824 C   0  0  0  0  0  0  0  0  0  0  0  0
    8.0346   -2.2179   -2.7343 C   0  0  0  0  0  0  0  0  0  0  0  0
    7.3239   -2.8906   -1.7354 C   0  0  0  0  0  0  0  0  0  0  0  0
    6.3899   -2.1794   -0.9981 C   0  0  0  0  0  0  0  0  0  0  0  0
    6.1652   -0.8311   -1.2442 C   0  0  0  0  0  0  0  0  0  0  0  0
    5.2618   -0.2709   -0.3763 O   0  0  0  0  0  0  0  0  0  0  0  0
    4.6633   -1.3953    0.3183 C   0  0  0  0  0  0  0  0  0  0  0  0
    5.5561   -2.6284    0.1521 C   0  0  3  0  0  0  0  0  0  0  0  0
    6.3486   -2.9292    1.4218 C   0  0  0  0  0  0  0  0  0  0  0  0
    6.1653   -3.9794    2.0300 O   0  0  0  0  0  0  0  0  0  0  0  0
    7.2303   -1.9305    1.7875 N   0  0  0  0  0  0  0  0  0  0  0  0
    8.1693   -1.9270    2.8490 C   0  0  0  0  0  0  0  0  0  0  0  0
    8.2917   -2.9732    3.7642 C   0  0  0  0  0  0  0  0  0  0  0  0
    9.2027   -3.0131    4.7655 N   0  0  0  0  0  0  0  0  0  0  0  0
   10.0472   -1.9655    4.8554 C   0  0  0  0  0  0  0  0  0  0  0  0
   10.0342   -0.8612    4.0039 C   0  0  0  0  0  0  0  0  0  0  0  0
   10.9678    0.1815    4.1526 C   0  0  0  0  0  0  0  0  0  0  0  0
   10.9519    1.2807    3.2978 C   0  0  0  0  0  0  0  0  0  0  0  0
    9.9934    1.3598    2.2991 C   0  0  0  0  0  0  0  0  0  0  0  0
    9.0611    0.3311    2.1443 C   0  0  0  0  0  0  0  0  0  0  0  0
    9.0609   -0.8199    2.9784 C   0  0  0  0  0  0  0  0  0  0  0  0
    8.3716   -0.3487   -3.7605 H   0  0  0  0  0  0  0  0  0  0  0  0
    8.7804   -2.7513   -3.3203 H   0  0  0  0  0  0  0  0  0  0  0  0
    7.5169   -3.9420   -1.5368 H   0  0  0  0  0  0  0  0  0  0  0  0
    3.6751   -1.5650   -0.1270 H   0  0  0  0  0  0  0  0  0  0  0  0
    4.5126   -1.1103    1.3654 H   0  0  0  0  0  0  0  0  0  0  0  0
    4.9542   -3.5064   -0.1058 H   0  0  0  0  0  0  0  0  0  0  0  0
    7.2540   -1.1268    1.1771 H   0  0  0  0  0  0  0  0  0  0  0  0
    7.6549   -3.8511    3.7357 H   0  0  0  0  0  0  0  0  0  0  0  0
   10.7669   -2.0429    5.6670 H   0  0  0  0  0  0  0  0  0  0  0  0
   11.7229    0.1379    4.9350 H   0  0  0  0  0  0  0  0  0  0  0  0
   11.6861    2.0739    3.4123 H   0  0  0  0  0  0  0  0  0  0  0  0
    9.9668    2.2186    1.6325 H   0  0  0  0  0  0  0  0  0  0  0  0
    8.3325    0.4619    1.3501 H   0  0  0  0  0  0  0  0  0  0  0  0
  1  2  1  0  0  0  0
  2  3  1  0  0  0  0
  2  7  2  0  0  0  0
  3  4  2  0  0  0  0
  3 24  1  0  0  0  0
  4  5  1  0  0  0  0
  4 25  1  0  0  0  0
  5  6  2  0  0  0  0
  5 26  1  0  0  0  0
  6  7  1  0  0  0  0
  6 10  1  0  0  0  0
  7  8  1  0  0  0  0
  8  9  1  0  0  0  0
  9 10  1  0  0  0  0
  9 27  1  0  0  0  0
  9 28  1  0  0  0  0
 10 11  1  0  0  0  0
 10 29  1  0  0  0  0
 11 12  2  0  0  0  0
 11 13  1  0  0  0  0
 13 14  1  0  0  0  0
 13 30  1  0  0  0  0
 14 15  1  0  0  0  0
 14 23  2  0  0  0  0
 15 16  2  0  0  0  0
 15 31  1  0  0  0  0
 16 17  1  0  0  0  0
 17 18  2  0  0  0  0
 17 32  1  0  0  0  0
 18 19  1  0  0  0  0
 18 23  1  0  0  0  0
 19 20  2  0  0  0  0
 19 33  1  0  0  0  0
 20 21  1  0  0  0  0
 20 34  1  0  0  0  0
 21 22  2  0  0  0  0
 21 35  1  0  0  0  0
 22 23  1  0  0  0  0
 22 36  1  0  0  0  0
M  END
$$$$
