
 OpenBabel07202414193D

 47 51  0  0  1  0  0  0  0  0999 V2000
    2.7127   -1.1194   -0.4694 O   0  0  0  0  0  0  0  0  0  0  0  0
    2.3534    0.0427   -0.3259 C   0  0  0  0  0  0  0  0  0  0  0  0
    0.9086    0.4214   -0.0102 C   0  0  0  0  0  0  0  0  0  0  0  0
   -0.1240   -0.6666   -0.1114 C   0  0  0  0  0  0  0  0  0  0  0  0
   -0.8768   -0.9487    1.0320 C   0  0  0  0  0  0  0  0  0  0  0  0
   -1.8498   -1.8718    1.0977 N   0  0  0  0  0  0  0  0  0  0  0  0
   -2.0735   -2.5764   -0.0311 C   0  0  0  0  0  0  0  0  0  0  0  0
   -1.3955   -2.3930   -1.2368 C   0  0  0  0  0  0  0  0  0  0  0  0
   -1.6677   -3.1917   -2.3656 C   0  0  0  0  0  0  0  0  0  0  0  0
   -0.9823   -2.9872   -3.5595 C   0  0  0  0  0  0  0  0  0  0  0  0
   -0.0480   -1.9630   -3.6545 C   0  0  0  0  0  0  0  0  0  0  0  0
    0.2259   -1.1629   -2.5427 C   0  0  0  0  0  0  0  0  0  0  0  0
   -0.4128   -1.3832   -1.2988 C   0  0  0  0  0  0  0  0  0  0  0  0
    3.2152    1.1332   -0.4362 N   0  0  0  0  0  0  0  0  0  0  0  0
    2.8850    2.4796    0.0581 C   0  0  0  0  0  0  0  0  0  0  0  0
    2.7913    3.4590   -1.1087 C   0  0  0  0  0  0  0  0  0  0  0  0
    4.0415    3.4975   -1.8073 O   0  0  0  0  0  0  0  0  0  0  0  0
    4.3627    2.1946   -2.3375 C   0  0  0  0  0  0  0  0  0  0  0  0
    4.4782    1.1141   -1.2215 C   0  0  2  0  0  0  0  0  0  0  0  0
    4.8766   -0.1882   -1.8704 C   0  0  0  0  0  0  0  0  0  0  0  0
    4.4979   -0.5556   -3.0789 N   0  0  0  0  0  0  0  0  0  0  0  0
    5.2006   -1.6796   -3.4757 C   0  0  0  0  0  0  0  0  0  0  0  0
    5.0965   -2.3130   -4.7305 C   0  0  0  0  0  0  0  0  0  0  0  0
    5.9313   -3.3922   -5.0368 C   0  0  0  0  0  0  0  0  0  0  0  0
    6.8488   -3.8593   -4.1011 C   0  0  0  0  0  0  0  0  0  0  0  0
    6.9465   -3.2704   -2.8357 C   0  0  0  0  0  0  0  0  0  0  0  0
    6.1177   -2.1729   -2.5466 C   0  0  0  0  0  0  0  0  0  0  0  0
    6.0404   -1.2119   -1.1194 S   0  0  0  0  0  0  0  0  0  0  0  0
    0.5946    1.2333   -0.6769 H   0  0  0  0  0  0  0  0  0  0  0  0
    0.9084    0.8013    1.0180 H   0  0  0  0  0  0  0  0  0  0  0  0
   -0.7126   -0.4112    1.9615 H   0  0  0  0  0  0  0  0  0  0  0  0
   -2.8526   -3.3294    0.0650 H   0  0  0  0  0  0  0  0  0  0  0  0
   -2.4030   -3.9881   -2.3068 H   0  0  0  0  0  0  0  0  0  0  0  0
   -1.1740   -3.6307   -4.4143 H   0  0  0  0  0  0  0  0  0  0  0  0
    0.4871   -1.7945   -4.5861 H   0  0  0  0  0  0  0  0  0  0  0  0
    0.9712   -0.3805   -2.6617 H   0  0  0  0  0  0  0  0  0  0  0  0
    3.6955    2.7729    0.7366 H   0  0  0  0  0  0  0  0  0  0  0  0
    1.9639    2.5060    0.6402 H   0  0  0  0  0  0  0  0  0  0  0  0
    2.5743    4.4657   -0.7402 H   0  0  0  0  0  0  0  0  0  0  0  0
    1.9934    3.1723   -1.8049 H   0  0  0  0  0  0  0  0  0  0  0  0
    5.3086    2.2909   -2.8811 H   0  0  0  0  0  0  0  0  0  0  0  0
    3.5878    1.9281   -3.0688 H   0  0  0  0  0  0  0  0  0  0  0  0
    5.2622    1.4381   -0.5228 H   0  0  0  0  0  0  0  0  0  0  0  0
    4.3852   -1.9383   -5.4592 H   0  0  0  0  0  0  0  0  0  0  0  0
    5.8663   -3.8602   -6.0161 H   0  0  0  0  0  0  0  0  0  0  0  0
    7.5021   -4.6910   -4.3568 H   0  0  0  0  0  0  0  0  0  0  0  0
    7.6620   -3.6376   -2.1064 H   0  0  0  0  0  0  0  0  0  0  0  0
  1  2  2  0  0  0  0
  2  3  1  0  0  0  0
  2 14  1  0  0  0  0
  3  4  1  0  0  0  0
  3 29  1  0  0  0  0
  3 30  1  0  0  0  0
  4  5  1  0  0  0  0
  4 13  2  0  0  0  0
  5  6  2  0  0  0  0
  5 31  1  0  0  0  0
  6  7  1  0  0  0  0
  7  8  2  0  0  0  0
  7 32  1  0  0  0  0
  8  9  1  0  0  0  0
  8 13  1  0  0  0  0
  9 10  2  0  0  0  0
  9 33  1  0  0  0  0
 10 11  1  0  0  0  0
 10 34  1  0  0  0  0
 11 12  2  0  0  0  0
 11 35  1  0  0  0  0
 12 13  1  0  0  0  0
 12 36  1  0  0  0  0
 14 15  1  0  0  0  0
 14 19  1  0  0  0  0
 15 16  1  0  0  0  0
 15 37  1  0  0  0  0
 15 38  1  0  0  0  0
 16 17  1  0  0  0  0
 16 39  1  0  0  0  0
 16 40  1  0  0  0  0
 17 18  1  0  0  0  0
 18 19  1  0  0  0  0
 18 41  1  0  0  0  0
 18 42  1  0  0  0  0
 19 20  1  0  0  0  0
 19 43  1  1  0  0  0
 20 21  2  0  0  0  0
 20 28  1  0  0  0  0
 21 22  1  0  0  0  0
 22 23  1  0  0  0  0
 22 27  2  0  0  0  0
 23 24  2  0  0  0  0
 23 44  1  0  0  0  0
 24 25  1  0  0  0  0
 24 45  1  0  0  0  0
 25 26  2  0  0  0  0
 25 46  1  0  0  0  0
 26 27  1  0  0  0  0
 26 47  1  0  0  0  0
 27 28  1  0  0  0  0
M  END
$$$$
