
 OpenBabel07202414203D

 37 40  0  0  1  0  0  0  0  0999 V2000
   -0.8089   -0.1558   -3.9211 C   0  0  0  0  0  0  0  0  0  0  0  0
   -0.2819    1.0323   -3.3637 C   0  0  0  0  0  0  0  0  0  0  0  0
    0.3885    0.7726   -2.1659 C   0  0  0  0  0  0  0  0  0  0  0  0
    0.5484   -0.5290   -1.5419 C   0  0  0  0  0  0  0  0  0  0  0  0
    0.0179   -1.6887   -2.1260 C   0  0  0  0  0  0  0  0  0  0  0  0
   -0.6656   -1.4465   -3.3267 C   0  0  0  0  0  0  0  0  0  0  0  0
   -1.2201   -2.4948   -3.9583 F   0  0  0  0  0  0  0  0  0  0  0  0
    1.2383   -0.3976   -0.4018 N   0  0  0  0  0  0  0  0  0  0  0  0
    1.4675    0.9249   -0.2940 N   0  0  0  0  0  0  0  0  0  0  0  0
    0.9878    1.6873   -1.3326 C   0  0  0  0  0  0  0  0  0  0  0  0
    1.1319    3.0695   -1.3935 N   0  0  0  0  0  0  0  0  0  0  0  0
    1.7127    3.7892   -0.3497 C   0  0  0  0  0  0  0  0  0  0  0  0
    2.1253    3.2640    0.6877 O   0  0  0  0  0  0  0  0  0  0  0  0
    1.7826    5.3039   -0.5967 C   0  0  3  0  0  0  0  0  0  0  0  0
    2.9673    5.9059    0.1527 C   0  0  0  0  0  0  0  0  0  0  0  0
    3.0209    7.4277    0.1017 C   0  0  0  0  0  0  0  0  0  0  0  0
    1.8111    8.1449   -0.1235 O   0  0  0  0  0  0  0  0  0  0  0  0
    0.6327    7.4668   -0.1274 C   0  0  0  0  0  0  0  0  0  0  0  0
    0.5307    6.0766   -0.2452 C   0  0  0  0  0  0  0  0  0  0  0  0
   -0.7483    5.4982   -0.2014 C   0  0  0  0  0  0  0  0  0  0  0  0
   -1.8899    6.3033   -0.1494 C   0  0  0  0  0  0  0  0  0  0  0  0
   -1.7788    7.6879   -0.1148 C   0  0  0  0  0  0  0  0  0  0  0  0
   -0.5132    8.2668   -0.0785 C   0  0  0  0  0  0  0  0  0  0  0  0
   -3.4473    5.5735   -0.1986 Cl  0  0  0  0  0  0  0  0  0  0  0  0
   -1.3679   -0.1003   -4.8558 H   0  0  0  0  0  0  0  0  0  0  0  0
   -0.4065    1.9994   -3.8306 H   0  0  0  0  0  0  0  0  0  0  0  0
    0.1112   -2.6740   -1.6903 H   0  0  0  0  0  0  0  0  0  0  0  0
    1.9650    1.2759    0.5192 H   0  0  0  0  0  0  0  0  0  0  0  0
    0.7604    3.5544   -2.2026 H   0  0  0  0  0  0  0  0  0  0  0  0
    1.9495    5.4506   -1.6723 H   0  0  0  0  0  0  0  0  0  0  0  0
    3.9072    5.5044   -0.2514 H   0  0  0  0  0  0  0  0  0  0  0  0
    2.9546    5.5984    1.2065 H   0  0  0  0  0  0  0  0  0  0  0  0
    3.4510    7.8005    1.0412 H   0  0  0  0  0  0  0  0  0  0  0  0
    3.7140    7.7418   -0.6859 H   0  0  0  0  0  0  0  0  0  0  0  0
   -0.8827    4.4202   -0.2371 H   0  0  0  0  0  0  0  0  0  0  0  0
   -2.6646    8.3186   -0.1210 H   0  0  0  0  0  0  0  0  0  0  0  0
   -0.4145    9.3508   -0.0405 H   0  0  0  0  0  0  0  0  0  0  0  0
  1  2  2  0  0  0  0
  1  6  1  0  0  0  0
  1 25  1  0  0  0  0
  2  3  1  0  0  0  0
  2 26  1  0  0  0  0
  3  4  1  0  0  0  0
  3 10  2  0  0  0  0
  4  5  1  0  0  0  0
  4  8  2  0  0  0  0
  5  6  2  0  0  0  0
  5 27  1  0  0  0  0
  6  7  1  0  0  0  0
  8  9  1  0  0  0  0
  9 10  1  0  0  0  0
  9 28  1  0  0  0  0
 10 11  1  0  0  0  0
 11 12  1  0  0  0  0
 11 29  1  0  0  0  0
 12 13  2  0  0  0  0
 12 14  1  0  0  0  0
 14 15  1  0  0  0  0
 14 19  1  0  0  0  0
 14 30  1  0  0  0  0
 15 16  1  0  0  0  0
 15 31  1  0  0  0  0
 15 32  1  0  0  0  0
 16 17  1  0  0  0  0
 16 33  1  0  0  0  0
 16 34  1  0  0  0  0
 17 18  1  0  0  0  0
 18 19  1  0  0  0  0
 18 23  2  0  0  0  0
 19 20  2  0  0  0  0
 20 21  1  0  0  0  0
 20 35  1  0  0  0  0
 21 22  2  0  0  0  0
 21 24  1  0  0  0  0
 22 23  1  0  0  0  0
 22 36  1  0  0  0  0
 23 37  1  0  0  0  0
M  END
$$$$
