
 OpenBabel07202414153D

 47 50  0  0  1  0  0  0  0  0999 V2000
   12.1717   -4.5678    7.8634 C   0  0  0  0  0  0  0  0  0  0  0  0
   11.3266   -4.2990    6.7468 O   0  0  0  0  0  0  0  0  0  0  0  0
   10.9687   -2.9912    6.5443 C   0  0  0  0  0  0  0  0  0  0  0  0
   11.4827   -1.9075    7.2426 C   0  0  0  0  0  0  0  0  0  0  0  0
   11.0585   -0.6208    6.9267 C   0  0  0  0  0  0  0  0  0  0  0  0
   10.1219   -0.4016    5.9037 C   0  0  0  0  0  0  0  0  0  0  0  0
    9.7338    0.8980    5.5946 C   0  0  0  0  0  0  0  0  0  0  0  0
    8.8600    1.2230    4.6281 N   0  0  0  0  0  0  0  0  0  0  0  0
    8.3140    0.1918    3.9436 C   0  0  0  0  0  0  0  0  0  0  0  0
    8.5852   -1.1633    4.1668 C   0  0  0  0  0  0  0  0  0  0  0  0
    7.9384   -2.1783    3.4070 N   0  0  0  0  0  0  0  0  0  0  0  0
    6.8117   -2.0164    2.5966 C   0  0  0  0  0  0  0  0  0  0  0  0
    6.1699   -0.9724    2.4951 O   0  0  0  0  0  0  0  0  0  0  0  0
    6.3941   -3.3077    1.7897 C   0  0  1  0  0  0  0  0  0  0  0  0
    7.3264   -4.3323    2.2034 O   0  0  0  0  0  0  0  0  0  0  0  0
    7.0464   -5.6670    1.8157 C   0  0  0  0  0  0  0  0  0  0  0  0
    4.9298   -3.5981    2.1748 C   0  0  0  0  0  0  0  0  0  0  0  0
    4.2073   -4.4115    1.1135 C   0  0  0  0  0  0  0  0  0  0  0  0
    4.2245   -3.7949   -0.1685 O   0  0  0  0  0  0  0  0  0  0  0  0
    5.4314   -3.2861   -0.5662 C   0  0  0  0  0  0  0  0  0  0  0  0
    5.5081   -2.9729   -1.9268 C   0  0  0  0  0  0  0  0  0  0  0  0
    6.6595   -2.3898   -2.4505 C   0  0  0  0  0  0  0  0  0  0  0  0
    7.7329   -2.1236   -1.6076 C   0  0  0  0  0  0  0  0  0  0  0  0
    9.1385   -1.3560   -2.2367 Cl  0  0  0  0  0  0  0  0  0  0  0  0
    7.6685   -2.4530   -0.2509 C   0  0  0  0  0  0  0  0  0  0  0  0
    6.5041   -3.0285    0.2959 C   0  0  0  0  0  0  0  0  0  0  0  0
    9.5544   -1.4786    5.1731 C   0  0  0  0  0  0  0  0  0  0  0  0
   10.0143   -2.7793    5.5285 C   0  0  0  0  0  0  0  0  0  0  0  0
   12.3715   -5.6434    7.8843 H   0  0  0  0  0  0  0  0  0  0  0  0
   11.6731   -4.3020    8.8019 H   0  0  0  0  0  0  0  0  0  0  0  0
   13.1381   -4.0590    7.7745 H   0  0  0  0  0  0  0  0  0  0  0  0
   12.2177   -2.0199    8.0321 H   0  0  0  0  0  0  0  0  0  0  0  0
   11.4730    0.2186    7.4830 H   0  0  0  0  0  0  0  0  0  0  0  0
   10.1385    1.7534    6.1314 H   0  0  0  0  0  0  0  0  0  0  0  0
    7.6479    0.5284    3.1565 H   0  0  0  0  0  0  0  0  0  0  0  0
    8.2642   -3.1380    3.4853 H   0  0  0  0  0  0  0  0  0  0  0  0
    7.9177   -6.2804    2.0608 H   0  0  0  0  0  0  0  0  0  0  0  0
    6.8671   -5.7509    0.7408 H   0  0  0  0  0  0  0  0  0  0  0  0
    6.2021   -6.0619    2.3880 H   0  0  0  0  0  0  0  0  0  0  0  0
    4.3744   -2.6542    2.2652 H   0  0  0  0  0  0  0  0  0  0  0  0
    4.8690   -4.1003    3.1460 H   0  0  0  0  0  0  0  0  0  0  0  0
    3.1540   -4.5126    1.3992 H   0  0  0  0  0  0  0  0  0  0  0  0
    4.5857   -5.4315    1.0151 H   0  0  0  0  0  0  0  0  0  0  0  0
    4.6610   -3.1741   -2.5790 H   0  0  0  0  0  0  0  0  0  0  0  0
    6.7035   -2.1314   -3.5053 H   0  0  0  0  0  0  0  0  0  0  0  0
    8.5187   -2.2216    0.3877 H   0  0  0  0  0  0  0  0  0  0  0  0
    9.6309   -3.6581    5.0163 H   0  0  0  0  0  0  0  0  0  0  0  0
  1  2  1  0  0  0  0
  1 29  1  0  0  0  0
  1 30  1  0  0  0  0
  1 31  1  0  0  0  0
  2  3  1  0  0  0  0
  3  4  1  0  0  0  0
  3 28  2  0  0  0  0
  4  5  2  0  0  0  0
  4 32  1  0  0  0  0
  5  6  1  0  0  0  0
  5 33  1  0  0  0  0
  6  7  1  0  0  0  0
  6 27  2  0  0  0  0
  7  8  2  0  0  0  0
  7 34  1  0  0  0  0
  8  9  1  0  0  0  0
  9 10  2  0  0  0  0
  9 35  1  0  0  0  0
 10 11  1  0  0  0  0
 10 27  1  0  0  0  0
 11 12  1  0  0  0  0
 11 36  1  0  0  0  0
 12 13  2  0  0  0  0
 14 17  1  0  0  0  0
 14 26  1  0  0  0  0
 14 15  1  1  0  0  0
 14 12  1  0  0  0  0
 15 16  1  0  0  0  0
 16 37  1  0  0  0  0
 16 38  1  0  0  0  0
 16 39  1  0  0  0  0
 17 18  1  0  0  0  0
 17 40  1  0  0  0  0
 17 41  1  0  0  0  0
 18 19  1  0  0  0  0
 18 42  1  0  0  0  0
 18 43  1  0  0  0  0
 19 20  1  0  0  0  0
 20 21  1  0  0  0  0
 20 26  2  0  0  0  0
 21 22  2  0  0  0  0
 21 44  1  0  0  0  0
 22 23  1  0  0  0  0
 22 45  1  0  0  0  0
 23 24  1  0  0  0  0
 23 25  2  0  0  0  0
 25 26  1  0  0  0  0
 25 46  1  0  0  0  0
 27 28  1  0  0  0  0
 28 47  1  0  0  0  0
M  END
$$$$
