
 OpenBabel07202414123D

 56 58  0  0  0  0  0  0  0  0999 V2000
    2.8401   -0.3333   -1.3324 C   0  0  0  0  0  0  0  0  0  0  0  0
    2.3975    0.2068    0.0292 C   0  0  0  0  0  0  0  0  0  0  0  0
    0.8722    0.3055    0.0794 C   0  0  0  0  0  0  0  0  0  0  0  0
    2.9125   -0.6675    1.1920 C   0  0  0  0  0  0  0  0  0  0  0  0
    4.3742   -0.7697    1.2292 N   0  0  0  0  0  0  0  0  0  0  0  0
    4.9599   -2.0083    1.0540 C   0  0  0  0  0  0  0  0  0  0  0  0
    6.2850   -2.2432    1.0741 C   0  0  0  0  0  0  0  0  0  0  0  0
    7.1689   -1.0416    1.1220 C   0  0  0  0  0  0  0  0  0  0  0  0
    8.5527   -1.0751    0.8751 C   0  0  0  0  0  0  0  0  0  0  0  0
    9.3047    0.1087    0.7906 C   0  0  0  0  0  0  0  0  0  0  0  0
    8.6955    1.3513    0.9643 C   0  0  0  0  0  0  0  0  0  0  0  0
    7.3396    1.4096    1.2490 C   0  0  0  0  0  0  0  0  0  0  0  0
    6.5870    0.2278    1.3274 C   0  0  0  0  0  0  0  0  0  0  0  0
    5.1240    0.3565    1.5358 C   0  0  0  0  0  0  0  0  0  0  0  0
    4.6448    1.4213    1.9148 O   0  0  0  0  0  0  0  0  0  0  0  0
    6.8195   -3.5291    1.0286 N   0  0  0  0  0  0  0  0  0  0  0  0
    6.1054   -4.7103    0.9286 C   0  0  0  0  0  0  0  0  0  0  0  0
    4.8915   -4.8142    0.8058 O   0  0  0  0  0  0  0  0  0  0  0  0
    6.8877   -5.8402    0.9883 N   0  0  0  0  0  0  0  0  0  0  0  0
    6.2591   -7.1499    0.8749 C   0  0  0  0  0  0  0  0  0  0  0  0
    6.0040   -7.5540   -0.5777 C   0  0  0  0  0  0  0  0  0  0  0  0
    5.2475   -8.8831   -0.6453 C   0  0  0  0  0  0  0  0  0  0  0  0
    5.0307   -9.3452   -2.0042 N   0  0  0  0  0  0  0  0  0  0  0  0
    3.8626   -8.9973   -2.7744 C   0  0  0  0  0  0  0  0  0  0  0  0
    3.9962   -9.8686   -4.0094 C   0  0  0  0  0  0  0  0  0  0  0  0
    5.5027   -9.9788   -4.2116 C   0  0  0  0  0  0  0  0  0  0  0  0
    6.0458   -9.8522   -2.8080 C   0  0  0  0  0  0  0  0  0  0  0  0
    7.1880  -10.0957   -2.4663 O   0  0  0  0  0  0  0  0  0  0  0  0
    2.4289    0.2789   -2.1423 H   0  0  0  0  0  0  0  0  0  0  0  0
    2.5027   -1.3642   -1.4812 H   0  0  0  0  0  0  0  0  0  0  0  0
    3.9301   -0.3113   -1.4320 H   0  0  0  0  0  0  0  0  0  0  0  0
    2.7996    1.2216    0.1301 H   0  0  0  0  0  0  0  0  0  0  0  0
    0.4074   -0.6862    0.0854 H   0  0  0  0  0  0  0  0  0  0  0  0
    0.4877    0.8531   -0.7878 H   0  0  0  0  0  0  0  0  0  0  0  0
    0.5490    0.8385    0.9794 H   0  0  0  0  0  0  0  0  0  0  0  0
    2.4706   -1.6700    1.1161 H   0  0  0  0  0  0  0  0  0  0  0  0
    2.5840   -0.2488    2.1509 H   0  0  0  0  0  0  0  0  0  0  0  0
    4.2402   -2.8063    0.9421 H   0  0  0  0  0  0  0  0  0  0  0  0
    9.0775   -2.0084    0.6940 H   0  0  0  0  0  0  0  0  0  0  0  0
   10.3663    0.0648    0.5627 H   0  0  0  0  0  0  0  0  0  0  0  0
    9.2696    2.2674    0.8600 H   0  0  0  0  0  0  0  0  0  0  0  0
    6.8534    2.3767    1.3711 H   0  0  0  0  0  0  0  0  0  0  0  0
    7.8154   -3.6233    1.1436 H   0  0  0  0  0  0  0  0  0  0  0  0
    7.8931   -5.7760    0.9380 H   0  0  0  0  0  0  0  0  0  0  0  0
    5.3096   -7.1301    1.4239 H   0  0  0  0  0  0  0  0  0  0  0  0
    6.9130   -7.8715    1.3736 H   0  0  0  0  0  0  0  0  0  0  0  0
    6.9623   -7.6322   -1.1047 H   0  0  0  0  0  0  0  0  0  0  0  0
    5.4310   -6.7788   -1.1018 H   0  0  0  0  0  0  0  0  0  0  0  0
    4.2737   -8.8095   -0.1495 H   0  0  0  0  0  0  0  0  0  0  0  0
    5.8301   -9.6544   -0.1292 H   0  0  0  0  0  0  0  0  0  0  0  0
    3.9047   -7.9317   -3.0227 H   0  0  0  0  0  0  0  0  0  0  0  0
    2.9508   -9.2185   -2.2125 H   0  0  0  0  0  0  0  0  0  0  0  0
    3.4766   -9.4605   -4.8807 H   0  0  0  0  0  0  0  0  0  0  0  0
    3.5835  -10.8657   -3.8086 H   0  0  0  0  0  0  0  0  0  0  0  0
    5.8865   -9.1493   -4.8114 H   0  0  0  0  0  0  0  0  0  0  0  0
    5.7838  -10.9342   -4.6589 H   0  0  0  0  0  0  0  0  0  0  0  0
  1  2  1  0  0  0  0
  1 29  1  0  0  0  0
  1 30  1  0  0  0  0
  1 31  1  0  0  0  0
  2  3  1  0  0  0  0
  2  4  1  0  0  0  0
  2 32  1  0  0  0  0
  3 33  1  0  0  0  0
  3 34  1  0  0  0  0
  3 35  1  0  0  0  0
  4  5  1  0  0  0  0
  4 36  1  0  0  0  0
  4 37  1  0  0  0  0
  5  6  1  0  0  0  0
  5 14  1  0  0  0  0
  6  7  2  0  0  0  0
  6 38  1  0  0  0  0
  7  8  1  0  0  0  0
  7 16  1  0  0  0  0
  8  9  1  0  0  0  0
  8 13  2  0  0  0  0
  9 10  2  0  0  0  0
  9 39  1  0  0  0  0
 10 11  1  0  0  0  0
 10 40  1  0  0  0  0
 11 12  2  0  0  0  0
 11 41  1  0  0  0  0
 12 13  1  0  0  0  0
 12 42  1  0  0  0  0
 13 14  1  0  0  0  0
 14 15  2  0  0  0  0
 16 17  1  0  0  0  0
 16 43  1  0  0  0  0
 17 18  2  0  0  0  0
 17 19  1  0  0  0  0
 19 20  1  0  0  0  0
 19 44  1  0  0  0  0
 20 21  1  0  0  0  0
 20 45  1  0  0  0  0
 20 46  1  0  0  0  0
 21 22  1  0  0  0  0
 21 47  1  0  0  0  0
 21 48  1  0  0  0  0
 22 23  1  0  0  0  0
 22 49  1  0  0  0  0
 22 50  1  0  0  0  0
 23 24  1  0  0  0  0
 23 27  1  0  0  0  0
 24 25  1  0  0  0  0
 24 51  1  0  0  0  0
 24 52  1  0  0  0  0
 25 26  1  0  0  0  0
 25 53  1  0  0  0  0
 25 54  1  0  0  0  0
 26 27  1  0  0  0  0
 26 55  1  0  0  0  0
 26 56  1  0  0  0  0
 27 28  2  0  0  0  0
M  END
$$$$
