
 OpenBabel07202414113D

 58 62  0  0  0  0  0  0  0  0999 V2000
    4.0810   -8.5360    1.9773 C   0  0  0  0  0  0  0  0  0  0  0  0
    4.7942   -7.4552    1.6312 C   0  0  0  0  0  0  0  0  0  0  0  0
    4.6656   -6.1844    2.4098 C   0  0  0  0  0  0  0  0  0  0  0  0
    3.8336   -6.0742    3.2960 O   0  0  0  0  0  0  0  0  0  0  0  0
    5.6157   -5.2502    2.0370 N   0  0  0  0  0  0  0  0  0  0  0  0
    5.8205   -3.9908    2.6447 C   0  0  0  0  0  0  0  0  0  0  0  0
    4.8775   -3.3542    3.4454 C   0  0  0  0  0  0  0  0  0  0  0  0
    5.1928   -2.1531    4.0848 C   0  0  0  0  0  0  0  0  0  0  0  0
    6.4701   -1.5887    3.9650 C   0  0  0  0  0  0  0  0  0  0  0  0
    7.4362   -2.2123    3.1600 C   0  0  0  0  0  0  0  0  0  0  0  0
    8.8173   -1.7789    3.1532 N   0  0  0  0  0  0  0  0  0  0  0  0
    9.1800   -0.3347    2.9564 C   0  0  0  0  0  0  0  0  0  0  0  0
    8.1456    0.5655    2.3232 C   0  0  0  0  0  0  0  0  0  0  0  0
    7.3867    0.1928    1.2030 C   0  0  0  0  0  0  0  0  0  0  0  0
    6.1651    0.8136    0.9125 C   0  0  0  0  0  0  0  0  0  0  0  0
    5.6403    1.8095    1.7481 C   0  0  0  0  0  0  0  0  0  0  0  0
    6.5016    2.3596    2.7026 C   0  0  0  0  0  0  0  0  0  0  0  0
    6.5804    3.6342    3.3494 C   0  0  0  0  0  0  0  0  0  0  0  0
    7.7813    4.0529    2.7885 C   0  0  0  0  0  0  0  0  0  0  0  0
    8.6295    2.9620    2.7460 O   0  0  0  0  0  0  0  0  0  0  0  0
    7.7965    1.8496    2.7548 C   0  0  0  0  0  0  0  0  0  0  0  0
    9.7607   -2.7657    3.5199 C   0  0  0  0  0  0  0  0  0  0  0  0
    9.5140   -3.9757    3.5594 O   0  0  0  0  0  0  0  0  0  0  0  0
   11.1573   -2.3357    3.9439 C   0  0  0  0  0  0  0  0  0  0  0  0
   12.2390   -2.4504    2.8939 C   0  0  0  0  0  0  0  0  0  0  0  0
   11.9354   -2.7259    1.5596 C   0  0  0  0  0  0  0  0  0  0  0  0
   12.8324   -2.6988    0.5502 N   0  0  0  0  0  0  0  0  0  0  0  0
   14.1042   -2.4478    0.8884 C   0  0  0  0  0  0  0  0  0  0  0  0
   14.5608   -2.2552    2.1873 C   0  0  0  0  0  0  0  0  0  0  0  0
   15.9310   -2.0678    2.4765 C   0  0  0  0  0  0  0  0  0  0  0  0
   16.3793   -1.9191    3.7857 C   0  0  0  0  0  0  0  0  0  0  0  0
   15.4587   -1.9186    4.8257 C   0  0  0  0  0  0  0  0  0  0  0  0
   14.0944   -2.0705    4.5423 C   0  0  0  0  0  0  0  0  0  0  0  0
   13.6131   -2.2479    3.2271 C   0  0  0  0  0  0  0  0  0  0  0  0
    7.0710   -3.3812    2.4680 C   0  0  0  0  0  0  0  0  0  0  0  0
    4.1538   -9.4614    1.4157 H   0  0  0  0  0  0  0  0  0  0  0  0
    3.4087   -8.5220    2.8313 H   0  0  0  0  0  0  0  0  0  0  0  0
    5.4592   -7.4859    0.7787 H   0  0  0  0  0  0  0  0  0  0  0  0
    6.3463   -5.5572    1.4089 H   0  0  0  0  0  0  0  0  0  0  0  0
    3.8855   -3.7747    3.5925 H   0  0  0  0  0  0  0  0  0  0  0  0
    4.4495   -1.6822    4.7254 H   0  0  0  0  0  0  0  0  0  0  0  0
    6.7069   -0.7024    4.5428 H   0  0  0  0  0  0  0  0  0  0  0  0
   10.0806   -0.3153    2.3329 H   0  0  0  0  0  0  0  0  0  0  0  0
    9.4562    0.0590    3.9415 H   0  0  0  0  0  0  0  0  0  0  0  0
    7.7195   -0.6346    0.5796 H   0  0  0  0  0  0  0  0  0  0  0  0
    5.6047    0.5090    0.0329 H   0  0  0  0  0  0  0  0  0  0  0  0
    4.6837    2.2752    1.5337 H   0  0  0  0  0  0  0  0  0  0  0  0
    6.5987    3.6775    4.4400 H   0  0  0  0  0  0  0  0  0  0  0  0
    8.0008    4.8532    2.0873 H   0  0  0  0  0  0  0  0  0  0  0  0
   11.4066   -3.0009    4.7869 H   0  0  0  0  0  0  0  0  0  0  0  0
   11.1422   -1.3280    4.3567 H   0  0  0  0  0  0  0  0  0  0  0  0
   10.9272   -2.9963    1.2494 H   0  0  0  0  0  0  0  0  0  0  0  0
   14.7907   -2.3870    0.0445 H   0  0  0  0  0  0  0  0  0  0  0  0
   16.6564   -2.0748    1.6684 H   0  0  0  0  0  0  0  0  0  0  0  0
   17.4437   -1.8252    3.9901 H   0  0  0  0  0  0  0  0  0  0  0  0
   15.8009   -1.8128    5.8532 H   0  0  0  0  0  0  0  0  0  0  0  0
   13.4158   -2.0768    5.4031 H   0  0  0  0  0  0  0  0  0  0  0  0
    7.8068   -3.8636    1.8282 H   0  0  0  0  0  0  0  0  0  0  0  0
  1  2  2  0  0  0  0
  1 36  1  0  0  0  0
  1 37  1  0  0  0  0
  2  3  1  0  0  0  0
  2 38  1  0  0  0  0
  3  4  2  0  0  0  0
  3  5  1  0  0  0  0
  5  6  1  0  0  0  0
  5 39  1  0  0  0  0
  6  7  1  0  0  0  0
  6 35  2  0  0  0  0
  7  8  2  0  0  0  0
  7 40  1  0  0  0  0
  8  9  1  0  0  0  0
  8 41  1  0  0  0  0
  9 10  2  0  0  0  0
  9 42  1  0  0  0  0
 10 11  1  0  0  0  0
 10 35  1  0  0  0  0
 11 12  1  0  0  0  0
 11 22  1  0  0  0  0
 12 13  1  0  0  0  0
 12 43  1  0  0  0  0
 12 44  1  0  0  0  0
 13 14  1  0  0  0  0
 13 21  2  0  0  0  0
 14 15  2  0  0  0  0
 14 45  1  0  0  0  0
 15 16  1  0  0  0  0
 15 46  1  0  0  0  0
 16 17  2  0  0  0  0
 16 47  1  0  0  0  0
 17 18  1  0  0  0  0
 17 21  1  0  0  0  0
 18 19  2  0  0  0  0
 18 48  1  0  0  0  0
 19 20  1  0  0  0  0
 19 49  1  0  0  0  0
 20 21  1  0  0  0  0
 22 23  2  0  0  0  0
 22 24  1  0  0  0  0
 24 25  1  0  0  0  0
 24 50  1  0  0  0  0
 24 51  1  0  0  0  0
 25 26  1  0  0  0  0
 25 34  2  0  0  0  0
 26 27  2  0  0  0  0
 26 52  1  0  0  0  0
 27 28  1  0  0  0  0
 28 29  2  0  0  0  0
 28 53  1  0  0  0  0
 29 30  1  0  0  0  0
 29 34  1  0  0  0  0
 30 31  2  0  0  0  0
 30 54  1  0  0  0  0
 31 32  1  0  0  0  0
 31 55  1  0  0  0  0
 32 33  2  0  0  0  0
 32 56  1  0  0  0  0
 33 34  1  0  0  0  0
 33 57  1  0  0  0  0
 35 58  1  0  0  0  0
M  END
$$$$
