
 OpenBabel07202414123D

 59 63  0  0  1  0  0  0  0  0999 V2000
    1.3130    0.3941   -0.0246 C   0  0  0  0  0  0  0  0  0  0  0  0
    2.8187    0.0653    0.0483 C   0  0  3  0  0  0  0  0  0  0  0  0
    3.3021   -0.3205   -1.3056 N   0  0  0  0  0  0  0  0  0  0  0  0
    3.1274   -1.5651   -1.8813 C   0  0  0  0  0  0  0  0  0  0  0  0
    2.6001   -2.5065   -1.2919 O   0  0  0  0  0  0  0  0  0  0  0  0
    3.6421   -1.7146   -3.3129 C   0  0  0  0  0  0  0  0  0  0  0  0
    4.8877   -2.5709   -3.4678 C   0  0  0  0  0  0  0  0  0  0  0  0
    4.9222   -3.8953   -3.0066 C   0  0  0  0  0  0  0  0  0  0  0  0
    6.0533   -4.7042   -3.1930 C   0  0  0  0  0  0  0  0  0  0  0  0
    7.1769   -4.1974   -3.8564 C   0  0  0  0  0  0  0  0  0  0  0  0
    8.3377   -4.9895   -4.0416 N   0  0  0  0  0  0  0  0  0  0  0  0
    8.5757   -6.2932   -3.6810 C   0  0  0  0  0  0  0  0  0  0  0  0
    9.8013   -6.6245   -4.0181 N   0  0  0  0  0  0  0  0  0  0  0  0
   10.3360   -5.5117   -4.6099 N   0  0  0  0  0  0  0  0  0  0  0  0
    9.4587   -4.5177   -4.6374 N   0  0  0  0  0  0  0  0  0  0  0  0
    7.1461   -2.8827   -4.3428 C   0  0  0  0  0  0  0  0  0  0  0  0
    6.0095   -2.0825   -4.1544 C   0  0  0  0  0  0  0  0  0  0  0  0
    3.5484    1.4333    0.4348 C   0  0  0  0  0  0  0  0  0  0  0  0
    3.9031    2.2240   -0.4488 O   0  0  0  0  0  0  0  0  0  0  0  0
    3.6864    1.6537    1.7991 N   0  0  0  0  0  0  0  0  0  0  0  0
    4.2532    2.7597    2.4885 C   0  0  0  0  0  0  0  0  0  0  0  0
    4.5629    3.9686    1.8718 C   0  0  0  0  0  0  0  0  0  0  0  0
    4.9649    5.0822    2.5306 N   0  0  0  0  0  0  0  0  0  0  0  0
    5.1440    4.9718    3.8641 C   0  0  0  0  0  0  0  0  0  0  0  0
    5.0033    3.7864    4.5793 C   0  0  0  0  0  0  0  0  0  0  0  0
    5.3662    3.7179    5.9406 C   0  0  0  0  0  0  0  0  0  0  0  0
    5.2567    2.5239    6.6469 C   0  0  0  0  0  0  0  0  0  0  0  0
    4.7316    1.4047    6.0189 C   0  0  0  0  0  0  0  0  0  0  0  0
    4.3574    1.4672    4.6691 C   0  0  0  0  0  0  0  0  0  0  0  0
    4.5145    2.6492    3.8944 C   0  0  0  0  0  0  0  0  0  0  0  0
    3.1539   -1.0220    1.0922 C   0  0  0  0  0  0  0  0  0  0  0  0
    4.4739   -1.4940    1.2018 C   0  0  0  0  0  0  0  0  0  0  0  0
    4.8145   -2.4594    2.1500 C   0  0  0  0  0  0  0  0  0  0  0  0
    3.8476   -2.9681    3.0192 C   0  0  0  0  0  0  0  0  0  0  0  0
    4.3458   -4.1398    4.1836 Cl  0  0  0  0  0  0  0  0  0  0  0  0
    2.5309   -2.5126    2.9314 C   0  0  0  0  0  0  0  0  0  0  0  0
    1.2819   -3.0666    3.9891 Cl  0  0  0  0  0  0  0  0  0  0  0  0
    2.1889   -1.5518    1.9729 C   0  0  0  0  0  0  0  0  0  0  0  0
    1.1011    1.1429   -0.7965 H   0  0  0  0  0  0  0  0  0  0  0  0
    0.9436    0.8073    0.9228 H   0  0  0  0  0  0  0  0  0  0  0  0
    0.7147   -0.4931   -0.2637 H   0  0  0  0  0  0  0  0  0  0  0  0
    3.5646    0.4608   -1.8996 H   0  0  0  0  0  0  0  0  0  0  0  0
    3.8056   -0.7226   -3.7492 H   0  0  0  0  0  0  0  0  0  0  0  0
    2.8355   -2.1724   -3.9006 H   0  0  0  0  0  0  0  0  0  0  0  0
    4.0570   -4.3184   -2.4960 H   0  0  0  0  0  0  0  0  0  0  0  0
    6.0136   -5.7189   -2.8056 H   0  0  0  0  0  0  0  0  0  0  0  0
    7.8579   -6.9358   -3.1982 H   0  0  0  0  0  0  0  0  0  0  0  0
    7.9941   -2.4622   -4.8832 H   0  0  0  0  0  0  0  0  0  0  0  0
    6.0117   -1.0741   -4.5649 H   0  0  0  0  0  0  0  0  0  0  0  0
    3.3976    0.8960    2.3962 H   0  0  0  0  0  0  0  0  0  0  0  0
    4.4865    4.1102    0.7987 H   0  0  0  0  0  0  0  0  0  0  0  0
    5.4269    5.8986    4.3590 H   0  0  0  0  0  0  0  0  0  0  0  0
    5.7790    4.5887    6.4483 H   0  0  0  0  0  0  0  0  0  0  0  0
    5.5899    2.4649    7.6805 H   0  0  0  0  0  0  0  0  0  0  0  0
    4.6307    0.4710    6.5667 H   0  0  0  0  0  0  0  0  0  0  0  0
    3.9752    0.5485    4.2377 H   0  0  0  0  0  0  0  0  0  0  0  0
    5.2480   -1.1214    0.5294 H   0  0  0  0  0  0  0  0  0  0  0  0
    5.8399   -2.8171    2.1993 H   0  0  0  0  0  0  0  0  0  0  0  0
    1.1492   -1.2360    1.9249 H   0  0  0  0  0  0  0  0  0  0  0  0
  1  2  1  0  0  0  0
  1 39  1  0  0  0  0
  1 40  1  0  0  0  0
  1 41  1  0  0  0  0
  2  3  1  0  0  0  0
  2 18  1  0  0  0  0
  2 31  1  0  0  0  0
  3  4  1  0  0  0  0
  3 42  1  0  0  0  0
  4  5  2  0  0  0  0
  4  6  1  0  0  0  0
  6  7  1  0  0  0  0
  6 43  1  0  0  0  0
  6 44  1  0  0  0  0
  7  8  1  0  0  0  0
  7 17  2  0  0  0  0
  8  9  2  0  0  0  0
  8 45  1  0  0  0  0
  9 10  1  0  0  0  0
  9 46  1  0  0  0  0
 10 11  1  0  0  0  0
 10 16  2  0  0  0  0
 11 12  1  0  0  0  0
 11 15  1  0  0  0  0
 12 13  2  0  0  0  0
 12 47  1  0  0  0  0
 13 14  1  0  0  0  0
 14 15  2  0  0  0  0
 16 17  1  0  0  0  0
 16 48  1  0  0  0  0
 17 49  1  0  0  0  0
 18 19  2  0  0  0  0
 18 20  1  0  0  0  0
 20 21  1  0  0  0  0
 20 50  1  0  0  0  0
 21 22  1  0  0  0  0
 21 30  2  0  0  0  0
 22 23  2  0  0  0  0
 22 51  1  0  0  0  0
 23 24  1  0  0  0  0
 24 25  2  0  0  0  0
 24 52  1  0  0  0  0
 25 26  1  0  0  0  0
 25 30  1  0  0  0  0
 26 27  2  0  0  0  0
 26 53  1  0  0  0  0
 27 28  1  0  0  0  0
 27 54  1  0  0  0  0
 28 29  2  0  0  0  0
 28 55  1  0  0  0  0
 29 30  1  0  0  0  0
 29 56  1  0  0  0  0
 31 32  1  0  0  0  0
 31 38  2  0  0  0  0
 32 33  2  0  0  0  0
 32 57  1  0  0  0  0
 33 34  1  0  0  0  0
 33 58  1  0  0  0  0
 34 35  1  0  0  0  0
 34 36  2  0  0  0  0
 36 37  1  0  0  0  0
 36 38  1  0  0  0  0
 38 59  1  0  0  0  0
M  END
$$$$
