
 OpenBabel07202414123D

 35 36  0  0  1  0  0  0  0  0999 V2000
    1.0023    0.0852   -0.1232 C   0  0  0  0  0  0  0  0  0  0  0  0
    2.5231    0.1784    0.0237 C   0  0  3  0  0  0  0  0  0  0  0  0
    3.0057    1.4880   -0.5999 C   0  0  0  0  0  0  0  0  0  0  0  0
    3.5131    1.4931   -1.7189 O   0  0  0  0  0  0  0  0  0  0  0  0
    2.7921    2.6291    0.1581 N   0  0  0  0  0  0  0  0  0  0  0  0
    3.1056    3.9233   -0.3230 C   0  0  0  0  0  0  0  0  0  0  0  0
    2.7839    4.3242   -1.6220 C   0  0  0  0  0  0  0  0  0  0  0  0
    3.0270    5.5592   -2.1259 N   0  0  0  0  0  0  0  0  0  0  0  0
    3.6484    6.4289   -1.3062 C   0  0  0  0  0  0  0  0  0  0  0  0
    4.0182    6.1287   -0.0039 C   0  0  0  0  0  0  0  0  0  0  0  0
    3.7446    4.8532    0.5092 C   0  0  0  0  0  0  0  0  0  0  0  0
    4.1994    4.5064    1.8966 C   0  0  0  0  0  0  0  0  0  0  0  0
    3.0396   -0.0821    1.4353 C   0  0  0  0  0  0  0  0  0  0  0  0
    2.2921    0.2238    2.5830 C   0  0  0  0  0  0  0  0  0  0  0  0
    2.7784   -0.0741    3.8576 C   0  0  0  0  0  0  0  0  0  0  0  0
    4.0225   -0.6856    4.0080 C   0  0  0  0  0  0  0  0  0  0  0  0
    4.7903   -0.9930    2.8824 C   0  0  0  0  0  0  0  0  0  0  0  0
    6.0610   -1.6470    3.0238 C   0  0  0  0  0  0  0  0  0  0  0  0
    7.0812   -2.1789    3.1720 N   0  0  0  0  0  0  0  0  0  0  0  0
    4.3021   -0.6824    1.6046 C   0  0  0  0  0  0  0  0  0  0  0  0
    0.7145    0.1846   -1.1758 H   0  0  0  0  0  0  0  0  0  0  0  0
    0.4818    0.8772    0.4243 H   0  0  0  0  0  0  0  0  0  0  0  0
    0.6345   -0.8817    0.2368 H   0  0  0  0  0  0  0  0  0  0  0  0
    2.9359   -0.6222   -0.6077 H   0  0  0  0  0  0  0  0  0  0  0  0
    2.7678    2.5042    1.1609 H   0  0  0  0  0  0  0  0  0  0  0  0
    2.2715    3.6573   -2.3102 H   0  0  0  0  0  0  0  0  0  0  0  0
    3.8594    7.4025   -1.7383 H   0  0  0  0  0  0  0  0  0  0  0  0
    4.5362    6.8762    0.5889 H   0  0  0  0  0  0  0  0  0  0  0  0
    4.9347    5.2291    2.2661 H   0  0  0  0  0  0  0  0  0  0  0  0
    4.6910    3.5273    1.9069 H   0  0  0  0  0  0  0  0  0  0  0  0
    3.3487    4.4937    2.5828 H   0  0  0  0  0  0  0  0  0  0  0  0
    1.3060    0.6786    2.5102 H   0  0  0  0  0  0  0  0  0  0  0  0
    2.1771    0.1536    4.7352 H   0  0  0  0  0  0  0  0  0  0  0  0
    4.3828   -0.9281    5.0066 H   0  0  0  0  0  0  0  0  0  0  0  0
    4.9020   -0.9363    0.7305 H   0  0  0  0  0  0  0  0  0  0  0  0
  1  2  1  0  0  0  0
  1 21  1  0  0  0  0
  1 22  1  0  0  0  0
  1 23  1  0  0  0  0
  2  3  1  0  0  0  0
  2 13  1  0  0  0  0
  2 24  1  0  0  0  0
  3  4  2  0  0  0  0
  3  5  1  0  0  0  0
  5  6  1  0  0  0  0
  5 25  1  0  0  0  0
  6  7  1  0  0  0  0
  6 11  2  0  0  0  0
  7  8  2  0  0  0  0
  7 26  1  0  0  0  0
  8  9  1  0  0  0  0
  9 10  2  0  0  0  0
  9 27  1  0  0  0  0
 10 11  1  0  0  0  0
 10 28  1  0  0  0  0
 11 12  1  0  0  0  0
 12 29  1  0  0  0  0
 12 30  1  0  0  0  0
 12 31  1  0  0  0  0
 13 14  1  0  0  0  0
 13 20  2  0  0  0  0
 14 15  2  0  0  0  0
 14 32  1  0  0  0  0
 15 16  1  0  0  0  0
 15 33  1  0  0  0  0
 16 17  2  0  0  0  0
 16 34  1  0  0  0  0
 17 18  1  0  0  0  0
 17 20  1  0  0  0  0
 18 19  3  0  0  0  0
 20 35  1  0  0  0  0
M  END
$$$$
