
 OpenBabel07202414183D

 31 33  0  0  0  0  0  0  0  0999 V2000
   -1.3323   -4.9229   -2.2042 Cl  0  0  0  0  0  0  0  0  0  0  0  0
    0.1232   -4.0157   -2.3327 C   0  0  0  0  0  0  0  0  0  0  0  0
    0.6128   -3.6554   -3.5828 C   0  0  0  0  0  0  0  0  0  0  0  0
    1.7773   -2.8961   -3.6751 C   0  0  0  0  0  0  0  0  0  0  0  0
    2.4544   -2.4976   -2.5167 C   0  0  0  0  0  0  0  0  0  0  0  0
    1.9779   -2.8738   -1.2520 C   0  0  0  0  0  0  0  0  0  0  0  0
    2.6160   -2.4191    0.0374 C   0  0  0  0  0  0  0  0  0  0  0  0
    4.1043   -2.1158   -0.0061 C   0  0  0  0  0  0  0  0  0  0  0  0
    4.5212   -0.9586   -0.0240 O   0  0  0  0  0  0  0  0  0  0  0  0
    4.9132   -3.2400   -0.0492 N   0  0  0  0  0  0  0  0  0  0  0  0
    6.3174   -3.1117   -0.1068 C   0  0  0  0  0  0  0  0  0  0  0  0
    7.0449   -2.2471    0.7144 C   0  0  0  0  0  0  0  0  0  0  0  0
    8.3881   -2.0550    0.6556 N   0  0  0  0  0  0  0  0  0  0  0  0
    9.1009   -2.7049   -0.2905 C   0  0  0  0  0  0  0  0  0  0  0  0
    8.4390   -3.5808   -1.1379 C   0  0  0  0  0  0  0  0  0  0  0  0
    8.8754   -4.3298   -2.1953 N   0  0  0  0  0  0  0  0  0  0  0  0
    7.9136   -5.0682   -2.7766 N   0  0  0  0  0  0  0  0  0  0  0  0
    6.8177   -4.7524   -2.0838 C   0  0  0  0  0  0  0  0  0  0  0  0
    7.0715   -3.8251   -1.0484 C   0  0  0  0  0  0  0  0  0  0  0  0
    0.7982   -3.6272   -1.1743 C   0  0  0  0  0  0  0  0  0  0  0  0
    0.0857   -3.9517   -4.4857 H   0  0  0  0  0  0  0  0  0  0  0  0
    2.1501   -2.5963   -4.6524 H   0  0  0  0  0  0  0  0  0  0  0  0
    3.3392   -1.8716   -2.6246 H   0  0  0  0  0  0  0  0  0  0  0  0
    2.4704   -3.1707    0.8195 H   0  0  0  0  0  0  0  0  0  0  0  0
    2.1114   -1.5051    0.3755 H   0  0  0  0  0  0  0  0  0  0  0  0
    4.5040   -4.0628   -0.4766 H   0  0  0  0  0  0  0  0  0  0  0  0
    6.5494   -1.6694    1.4919 H   0  0  0  0  0  0  0  0  0  0  0  0
   10.1613   -2.4899   -0.3463 H   0  0  0  0  0  0  0  0  0  0  0  0
    9.8120   -4.3704   -2.5812 H   0  0  0  0  0  0  0  0  0  0  0  0
    5.8734   -5.1929   -2.3749 H   0  0  0  0  0  0  0  0  0  0  0  0
    0.3857   -3.8941   -0.2042 H   0  0  0  0  0  0  0  0  0  0  0  0
  1  2  1  0  0  0  0
  2  3  1  0  0  0  0
  2 20  2  0  0  0  0
  3  4  2  0  0  0  0
  3 21  1  0  0  0  0
  4  5  1  0  0  0  0
  4 22  1  0  0  0  0
  5  6  2  0  0  0  0
  5 23  1  0  0  0  0
  6  7  1  0  0  0  0
  6 20  1  0  0  0  0
  7  8  1  0  0  0  0
  7 24  1  0  0  0  0
  7 25  1  0  0  0  0
  8  9  2  0  0  0  0
  8 10  1  0  0  0  0
 10 11  1  0  0  0  0
 10 26  1  0  0  0  0
 11 12  1  0  0  0  0
 11 19  2  0  0  0  0
 12 13  2  0  0  0  0
 12 27  1  0  0  0  0
 13 14  1  0  0  0  0
 14 15  2  0  0  0  0
 14 28  1  0  0  0  0
 15 16  1  0  0  0  0
 15 19  1  0  0  0  0
 16 17  1  0  0  0  0
 16 29  1  0  0  0  0
 17 18  2  0  0  0  0
 18 19  1  0  0  0  0
 18 30  1  0  0  0  0
 20 31  1  0  0  0  0
M  END
$$$$
