
 OpenBabel07202414133D

 46 49  0  0  1  0  0  0  0  0999 V2000
   15.1656    1.3035    1.0106 C   0  0  0  0  0  0  0  0  0  0  0  0
   13.8140    0.8423    1.2797 N   0  0  0  0  0  0  0  0  0  0  0  0
   13.6168   -0.0013    2.4492 C   0  0  0  0  0  0  0  0  0  0  0  0
   12.8129    1.2383    0.3712 C   0  0  0  0  0  0  0  0  0  0  0  0
   13.1438    1.8643   -0.6393 O   0  0  0  0  0  0  0  0  0  0  0  0
   11.4204    0.8977    0.6335 C   0  0  0  0  0  0  0  0  0  0  0  0
   10.7127    0.8165    1.8154 C   0  0  0  0  0  0  0  0  0  0  0  0
    9.3411    0.3967    1.6668 C   0  0  0  0  0  0  0  0  0  0  0  0
    8.3208    0.1185    2.6135 C   0  0  0  0  0  0  0  0  0  0  0  0
    8.5044   -0.0109    4.0136 N   0  0  0  0  0  0  0  0  0  0  0  0
    9.6492   -0.5016    4.6209 C   0  0  0  0  0  0  0  0  0  0  0  0
   10.6387   -0.9391    4.0347 O   0  0  0  0  0  0  0  0  0  0  0  0
    9.5963   -0.5770    6.1466 C   0  0  3  0  0  0  0  0  0  0  0  0
    8.6358   -1.6855    6.5929 C   0  0  0  0  0  0  0  0  0  0  0  0
    7.6078   -1.2504    7.6261 C   0  0  0  0  0  0  0  0  0  0  0  0
    7.1201    0.0747    7.4361 O   0  0  0  0  0  0  0  0  0  0  0  0
    8.1244    1.0010    7.4387 C   0  0  0  0  0  0  0  0  0  0  0  0
    7.8738    2.2281    8.0499 C   0  0  0  0  0  0  0  0  0  0  0  0
    8.8216    3.2502    7.9736 C   0  0  0  0  0  0  0  0  0  0  0  0
   10.0024    3.0434    7.2641 C   0  0  0  0  0  0  0  0  0  0  0  0
   11.1326    4.3281    7.0886 Cl  0  0  0  0  0  0  0  0  0  0  0  0
   10.2655    1.8052    6.6774 C   0  0  0  0  0  0  0  0  0  0  0  0
    9.3264    0.7645    6.7743 C   0  0  0  0  0  0  0  0  0  0  0  0
    7.0306   -0.0215    2.0975 C   0  0  0  0  0  0  0  0  0  0  0  0
    6.7071   -0.0134    0.7910 N   0  0  0  0  0  0  0  0  0  0  0  0
    7.6962    0.1454   -0.1181 C   0  0  0  0  0  0  0  0  0  0  0  0
    9.0064    0.3655    0.3086 C   0  0  0  0  0  0  0  0  0  0  0  0
   10.3795    0.6209   -0.6961 S   0  0  0  0  0  0  0  0  0  0  0  0
   15.8684    0.9442    1.7671 H   0  0  0  0  0  0  0  0  0  0  0  0
   15.1768    2.3975    0.9992 H   0  0  0  0  0  0  0  0  0  0  0  0
   15.4783    0.9353    0.0284 H   0  0  0  0  0  0  0  0  0  0  0  0
   14.5479   -0.5119    2.7123 H   0  0  0  0  0  0  0  0  0  0  0  0
   12.8600   -0.7638    2.2543 H   0  0  0  0  0  0  0  0  0  0  0  0
   13.3163    0.6321    3.2888 H   0  0  0  0  0  0  0  0  0  0  0  0
   11.1550    1.0384    2.7736 H   0  0  0  0  0  0  0  0  0  0  0  0
    7.6701    0.0262    4.5885 H   0  0  0  0  0  0  0  0  0  0  0  0
   10.6038   -0.8744    6.4752 H   0  0  0  0  0  0  0  0  0  0  0  0
    9.2135   -2.5188    7.0144 H   0  0  0  0  0  0  0  0  0  0  0  0
    8.1142   -2.1194    5.7299 H   0  0  0  0  0  0  0  0  0  0  0  0
    8.0055   -1.3449    8.6457 H   0  0  0  0  0  0  0  0  0  0  0  0
    6.7438   -1.9208    7.5672 H   0  0  0  0  0  0  0  0  0  0  0  0
    6.9428    2.3896    8.5869 H   0  0  0  0  0  0  0  0  0  0  0  0
    8.6255    4.2068    8.4506 H   0  0  0  0  0  0  0  0  0  0  0  0
   11.1951    1.6567    6.1310 H   0  0  0  0  0  0  0  0  0  0  0  0
    6.1804   -0.1903    2.7549 H   0  0  0  0  0  0  0  0  0  0  0  0
    7.4152    0.1222   -1.1639 H   0  0  0  0  0  0  0  0  0  0  0  0
  1  2  1  0  0  0  0
  1 29  1  0  0  0  0
  1 30  1  0  0  0  0
  1 31  1  0  0  0  0
  2  3  1  0  0  0  0
  2  4  1  0  0  0  0
  3 32  1  0  0  0  0
  3 33  1  0  0  0  0
  3 34  1  0  0  0  0
  4  5  2  0  0  0  0
  4  6  1  0  0  0  0
  6  7  2  0  0  0  0
  6 28  1  0  0  0  0
  7  8  1  0  0  0  0
  7 35  1  0  0  0  0
  8  9  1  0  0  0  0
  8 27  2  0  0  0  0
  9 10  1  0  0  0  0
  9 24  2  0  0  0  0
 10 11  1  0  0  0  0
 10 36  1  0  0  0  0
 11 12  2  0  0  0  0
 11 13  1  0  0  0  0
 13 14  1  0  0  0  0
 13 23  1  0  0  0  0
 13 37  1  0  0  0  0
 14 15  1  0  0  0  0
 14 38  1  0  0  0  0
 14 39  1  0  0  0  0
 15 16  1  0  0  0  0
 15 40  1  0  0  0  0
 15 41  1  0  0  0  0
 16 17  1  0  0  0  0
 17 18  1  0  0  0  0
 17 23  2  0  0  0  0
 18 19  2  0  0  0  0
 18 42  1  0  0  0  0
 19 20  1  0  0  0  0
 19 43  1  0  0  0  0
 20 21  1  0  0  0  0
 20 22  2  0  0  0  0
 22 23  1  0  0  0  0
 22 44  1  0  0  0  0
 24 25  1  0  0  0  0
 24 45  1  0  0  0  0
 25 26  2  0  0  0  0
 26 27  1  0  0  0  0
 26 46  1  0  0  0  0
 27 28  1  0  0  0  0
M  END
$$$$
