
 OpenBabel07202414203D

 34 36  0  0  1  0  0  0  0  0999 V2000
   -4.6541    0.8748   -0.3359 C   0  0  0  0  0  0  0  0  0  0  0  0
   -4.5477   -0.1634    0.5959 C   0  0  0  0  0  0  0  0  0  0  0  0
   -3.3690   -0.8779    0.6351 C   0  0  0  0  0  0  0  0  0  0  0  0
   -2.3087   -0.5705   -0.1988 C   0  0  0  0  0  0  0  0  0  0  0  0
   -2.3843    0.4696   -1.1115 C   0  0  0  0  0  0  0  0  0  0  0  0
   -3.5788    1.1829   -1.1844 C   0  0  0  0  0  0  0  0  0  0  0  0
   -3.7558    2.4156   -2.3713 Cl  0  0  0  0  0  0  0  0  0  0  0  0
   -1.2419   -1.5885   -0.0390 C   0  0  1  0  0  0  0  0  0  0  0  0
   -1.8066   -2.4046    1.1255 C   0  0  0  0  0  0  0  0  0  0  0  0
   -3.1682   -1.9872    1.4093 O   0  0  0  0  0  0  0  0  0  0  0  0
   -1.0276   -2.4108   -1.2981 C   0  0  0  0  0  0  0  0  0  0  0  0
    0.1060   -2.4711   -1.7845 O   0  0  0  0  0  0  0  0  0  0  0  0
   -2.1530   -3.0114   -1.8257 N   0  0  0  0  0  0  0  0  0  0  0  0
   -2.2139   -3.7913   -3.0058 C   0  0  0  0  0  0  0  0  0  0  0  0
   -1.0722   -4.3107   -3.6185 C   0  0  0  0  0  0  0  0  0  0  0  0
   -1.0621   -5.0129   -4.7750 N   0  0  0  0  0  0  0  0  0  0  0  0
   -2.2553   -5.2170   -5.3620 C   0  0  0  0  0  0  0  0  0  0  0  0
   -3.4591   -4.7854   -4.8183 C   0  0  0  0  0  0  0  0  0  0  0  0
   -3.4584   -4.0683   -3.6044 C   0  0  0  0  0  0  0  0  0  0  0  0
   -4.8037   -3.6363   -3.0747 C   0  0  0  0  0  0  0  0  0  0  0  0
   -4.7200   -3.0302   -1.7878 O   0  0  0  0  0  0  0  0  0  0  0  0
   -5.5866    1.4273   -0.4183 H   0  0  0  0  0  0  0  0  0  0  0  0
   -5.3788   -0.4247    1.2411 H   0  0  0  0  0  0  0  0  0  0  0  0
   -1.5598    0.6819   -1.7860 H   0  0  0  0  0  0  0  0  0  0  0  0
   -0.2884   -1.1299    0.2468 H   0  0  0  0  0  0  0  0  0  0  0  0
   -1.2174   -2.2338    2.0352 H   0  0  0  0  0  0  0  0  0  0  0  0
   -1.8089   -3.4836    0.9348 H   0  0  0  0  0  0  0  0  0  0  0  0
   -3.0686   -2.7252   -1.4676 H   0  0  0  0  0  0  0  0  0  0  0  0
   -0.0878   -4.1952   -3.1884 H   0  0  0  0  0  0  0  0  0  0  0  0
   -2.2221   -5.7477   -6.3083 H   0  0  0  0  0  0  0  0  0  0  0  0
   -4.3834   -4.9909   -5.3497 H   0  0  0  0  0  0  0  0  0  0  0  0
   -5.4703   -4.5032   -3.0015 H   0  0  0  0  0  0  0  0  0  0  0  0
   -5.2505   -2.9106   -3.7621 H   0  0  0  0  0  0  0  0  0  0  0  0
   -5.3080   -3.5349   -1.1977 H   0  0  0  0  0  0  0  0  0  0  0  0
  1  2  1  0  0  0  0
  1  6  2  0  0  0  0
  1 22  1  0  0  0  0
  2  3  2  0  0  0  0
  2 23  1  0  0  0  0
  3  4  1  0  0  0  0
  3 10  1  0  0  0  0
  4  5  2  0  0  0  0
  4  8  1  0  0  0  0
  5  6  1  0  0  0  0
  5 24  1  0  0  0  0
  6  7  1  0  0  0  0
  8  9  1  0  0  0  0
  8 11  1  0  0  0  0
  8 25  1  1  0  0  0
  9 10  1  0  0  0  0
  9 26  1  0  0  0  0
  9 27  1  0  0  0  0
 11 12  2  0  0  0  0
 11 13  1  0  0  0  0
 13 14  1  0  0  0  0
 13 28  1  0  0  0  0
 14 15  1  0  0  0  0
 14 19  2  0  0  0  0
 15 16  2  0  0  0  0
 15 29  1  0  0  0  0
 16 17  1  0  0  0  0
 17 18  2  0  0  0  0
 17 30  1  0  0  0  0
 18 19  1  0  0  0  0
 18 31  1  0  0  0  0
 19 20  1  0  0  0  0
 20 21  1  0  0  0  0
 20 32  1  0  0  0  0
 20 33  1  0  0  0  0
 21 34  1  0  0  0  0
M  END
$$$$
