
 OpenBabel07202414193D

 41 43  0  0  1  0  0  0  0  0999 V2000
    1.0889    0.5906   -0.2904 O   0  0  0  0  0  0  0  0  0  0  0  0
    2.2574    0.2179   -0.1505 C   0  0  0  0  0  0  0  0  0  0  0  0
    2.9101    0.3602    1.2237 C   0  0  0  0  0  0  0  0  0  0  0  0
    2.8707   -0.8809    2.0904 C   0  0  0  0  0  0  0  0  0  0  0  0
    1.7542   -1.7211    2.0338 C   0  0  0  0  0  0  0  0  0  0  0  0
    1.5859   -2.8270    2.7861 N   0  0  0  0  0  0  0  0  0  0  0  0
    2.5678   -3.1124    3.6682 C   0  0  0  0  0  0  0  0  0  0  0  0
    3.7134   -2.3454    3.8501 C   0  0  0  0  0  0  0  0  0  0  0  0
    4.6725   -2.6993    4.8167 C   0  0  0  0  0  0  0  0  0  0  0  0
    5.8076   -1.9176    5.0109 C   0  0  0  0  0  0  0  0  0  0  0  0
    5.9882   -0.7730    4.2458 C   0  0  0  0  0  0  0  0  0  0  0  0
    5.0378   -0.4116    3.2830 C   0  0  0  0  0  0  0  0  0  0  0  0
    3.8769   -1.1887    3.0508 C   0  0  0  0  0  0  0  0  0  0  0  0
    2.9881   -0.3074   -1.2171 N   0  0  0  0  0  0  0  0  0  0  0  0
    2.3577   -0.3142   -2.5419 C   0  0  0  0  0  0  0  0  0  0  0  0
    2.7699    0.9026   -3.3638 C   0  0  0  0  0  0  0  0  0  0  0  0
    3.9406    0.6651   -4.3089 C   0  0  0  0  0  0  0  0  0  0  0  0
    5.4905   -0.0641   -3.6963 S   0  0  0  0  0  0  0  0  0  0  0  0
    5.3743    0.0995   -1.8834 C   0  0  0  0  0  0  0  0  0  0  0  0
    4.3887   -0.8143   -1.1325 C   0  0  2  0  0  0  0  0  0  0  0  0
    4.5671   -2.3374   -1.3665 C   0  0  0  0  0  0  0  0  0  0  0  0
    3.3828   -2.9580   -1.5770 F   0  0  0  0  0  0  0  0  0  0  0  0
    5.3717   -2.6474   -2.3999 F   0  0  0  0  0  0  0  0  0  0  0  0
    5.1138   -2.9089   -0.2632 F   0  0  0  0  0  0  0  0  0  0  0  0
    2.3744    1.1560    1.7585 H   0  0  0  0  0  0  0  0  0  0  0  0
    3.9201    0.7507    1.0792 H   0  0  0  0  0  0  0  0  0  0  0  0
    0.9191   -1.5215    1.3646 H   0  0  0  0  0  0  0  0  0  0  0  0
    2.3849   -4.0070    4.2586 H   0  0  0  0  0  0  0  0  0  0  0  0
    4.5354   -3.5890    5.4303 H   0  0  0  0  0  0  0  0  0  0  0  0
    6.5415   -2.1981    5.7620 H   0  0  0  0  0  0  0  0  0  0  0  0
    6.8679   -0.1527    4.4003 H   0  0  0  0  0  0  0  0  0  0  0  0
    5.2232    0.5031    2.7276 H   0  0  0  0  0  0  0  0  0  0  0  0
    1.2687   -0.2882   -2.4185 H   0  0  0  0  0  0  0  0  0  0  0  0
    2.5804   -1.2535   -3.0569 H   0  0  0  0  0  0  0  0  0  0  0  0
    2.9744    1.7663   -2.7206 H   0  0  0  0  0  0  0  0  0  0  0  0
    1.9178    1.1918   -3.9940 H   0  0  0  0  0  0  0  0  0  0  0  0
    4.2049    1.6159   -4.7853 H   0  0  0  0  0  0  0  0  0  0  0  0
    3.6077    0.0081   -5.1213 H   0  0  0  0  0  0  0  0  0  0  0  0
    5.1792    1.1521   -1.6466 H   0  0  0  0  0  0  0  0  0  0  0  0
    6.3825   -0.1124   -1.5094 H   0  0  0  0  0  0  0  0  0  0  0  0
    4.6864   -0.6964   -0.0896 H   0  0  0  0  0  0  0  0  0  0  0  0
  1  2  2  0  0  0  0
  2  3  1  0  0  0  0
  2 14  1  0  0  0  0
  3  4  1  0  0  0  0
  3 25  1  0  0  0  0
  3 26  1  0  0  0  0
  4  5  1  0  0  0  0
  4 13  2  0  0  0  0
  5  6  2  0  0  0  0
  5 27  1  0  0  0  0
  6  7  1  0  0  0  0
  7  8  2  0  0  0  0
  7 28  1  0  0  0  0
  8  9  1  0  0  0  0
  8 13  1  0  0  0  0
  9 10  2  0  0  0  0
  9 29  1  0  0  0  0
 10 11  1  0  0  0  0
 10 30  1  0  0  0  0
 11 12  2  0  0  0  0
 11 31  1  0  0  0  0
 12 13  1  0  0  0  0
 12 32  1  0  0  0  0
 14 15  1  0  0  0  0
 14 20  1  0  0  0  0
 15 16  1  0  0  0  0
 15 33  1  0  0  0  0
 15 34  1  0  0  0  0
 16 17  1  0  0  0  0
 16 35  1  0  0  0  0
 16 36  1  0  0  0  0
 17 18  1  0  0  0  0
 17 37  1  0  0  0  0
 17 38  1  0  0  0  0
 18 19  1  0  0  0  0
 19 20  1  0  0  0  0
 19 39  1  0  0  0  0
 19 40  1  0  0  0  0
 20 21  1  0  0  0  0
 20 41  1  1  0  0  0
 21 22  1  0  0  0  0
 21 23  1  0  0  0  0
 21 24  1  0  0  0  0
M  END
$$$$
