
 OpenBabel07202414173D

 52 56  0  0  1  0  0  0  0  0999 V2000
    1.0678    0.0739    0.0215 Cl  0  0  0  0  0  0  0  0  0  0  0  0
    2.7879    0.0536    0.0225 C   0  0  0  0  0  0  0  0  0  0  0  0
    3.4892    1.2548   -0.0142 C   0  0  0  0  0  0  0  0  0  0  0  0
    4.8821    1.2407    0.0013 C   0  0  0  0  0  0  0  0  0  0  0  0
    5.5830    0.0258    0.0666 C   0  0  0  0  0  0  0  0  0  0  0  0
    4.8729   -1.1870    0.0964 C   0  0  0  0  0  0  0  0  0  0  0  0
    3.4682   -1.1626    0.0726 C   0  0  0  0  0  0  0  0  0  0  0  0
    5.6189   -2.5041    0.2808 C   0  0  3  0  0  0  0  0  0  0  0  0
    5.5393   -2.9738    1.7467 C   0  0  0  0  0  0  0  0  0  0  0  0
    4.9385   -2.3139    2.5910 O   0  0  0  0  0  0  0  0  0  0  0  0
    6.1581   -4.1829    2.0060 N   0  0  0  0  0  0  0  0  0  0  0  0
    6.0822   -4.7432    3.2705 C   0  0  0  0  0  0  0  0  0  0  0  0
    5.2242   -4.4692    4.2341 N   0  0  0  0  0  0  0  0  0  0  0  0
    5.5098   -5.2598    5.3239 N   0  0  0  0  0  0  0  0  0  0  0  0
    6.5542   -5.9893    5.0168 C   0  0  0  0  0  0  0  0  0  0  0  0
    6.9416   -5.7067    3.7428 N   0  0  0  0  0  0  0  0  0  0  0  0
    8.0954   -6.2454    3.0563 C   0  0  0  0  0  0  0  0  0  0  0  0
    8.6834   -7.6043    3.3851 C   0  0  0  0  0  0  0  0  0  0  0  0
    9.4376   -6.3741    3.7563 C   0  0  0  0  0  0  0  0  0  0  0  0
    7.0628   -2.3676   -0.2324 C   0  0  0  0  0  0  0  0  0  0  0  0
    7.7592   -1.2214    0.4339 N   0  0  0  0  0  0  0  0  0  0  0  0
    9.4527   -1.1984    0.1560 S   0  0  0  0  0  0  0  0  0  0  0  0
    9.9696   -2.4596    0.6486 O   0  0  0  0  0  0  0  0  0  0  0  0
    9.6154   -0.8219   -1.2293 O   0  0  0  0  0  0  0  0  0  0  0  0
   10.0073    0.1286    1.2463 C   0  0  0  0  0  0  0  0  0  0  0  0
   11.4900    0.3282    1.0378 C   0  0  0  0  0  0  0  0  0  0  0  0
   11.8942    0.7295   -0.2923 C   0  0  0  0  0  0  0  0  0  0  0  0
   12.2270    1.0898   -1.3447 N   0  0  0  0  0  0  0  0  0  0  0  0
   12.5133   -0.3816    1.9104 C   0  0  0  0  0  0  0  0  0  0  0  0
   12.2158    1.0633    2.1661 C   0  0  0  0  0  0  0  0  0  0  0  0
    7.0907    0.0655    0.0826 C   0  0  0  0  0  0  0  0  0  0  0  0
    2.9603    2.2032   -0.0433 H   0  0  0  0  0  0  0  0  0  0  0  0
    5.4214    2.1859   -0.0191 H   0  0  0  0  0  0  0  0  0  0  0  0
    2.9028   -2.0893    0.1420 H   0  0  0  0  0  0  0  0  0  0  0  0
    5.1158   -3.2683   -0.3282 H   0  0  0  0  0  0  0  0  0  0  0  0
    6.7721   -4.6006    1.3282 H   0  0  0  0  0  0  0  0  0  0  0  0
    7.0416   -6.7018    5.6641 H   0  0  0  0  0  0  0  0  0  0  0  0
    8.1650   -5.9389    2.0173 H   0  0  0  0  0  0  0  0  0  0  0  0
    9.0602   -8.2022    2.5617 H   0  0  0  0  0  0  0  0  0  0  0  0
    8.2527   -8.1970    4.1840 H   0  0  0  0  0  0  0  0  0  0  0  0
   10.3231   -6.1188    3.1820 H   0  0  0  0  0  0  0  0  0  0  0  0
    9.5172   -6.1111    4.8054 H   0  0  0  0  0  0  0  0  0  0  0  0
    7.0546   -2.1967   -1.3180 H   0  0  0  0  0  0  0  0  0  0  0  0
    7.6181   -3.2946   -0.0604 H   0  0  0  0  0  0  0  0  0  0  0  0
    9.7605   -0.1653    2.2716 H   0  0  0  0  0  0  0  0  0  0  0  0
    9.4826    1.0493    0.9832 H   0  0  0  0  0  0  0  0  0  0  0  0
   13.4821   -0.6233    1.4806 H   0  0  0  0  0  0  0  0  0  0  0  0
   12.1843   -1.0982    2.6544 H   0  0  0  0  0  0  0  0  0  0  0  0
   12.9777    1.7952    1.9102 H   0  0  0  0  0  0  0  0  0  0  0  0
   11.6762    1.3130    3.0742 H   0  0  0  0  0  0  0  0  0  0  0  0
    7.4196    0.4035   -0.9064 H   0  0  0  0  0  0  0  0  0  0  0  0
    7.3806    0.8057    0.8348 H   0  0  0  0  0  0  0  0  0  0  0  0
  1  2  1  0  0  0  0
  2  3  1  0  0  0  0
  2  7  2  0  0  0  0
  3  4  2  0  0  0  0
  3 32  1  0  0  0  0
  4  5  1  0  0  0  0
  4 33  1  0  0  0  0
  5  6  2  0  0  0  0
  5 31  1  0  0  0  0
  6  7  1  0  0  0  0
  6  8  1  0  0  0  0
  7 34  1  0  0  0  0
  8  9  1  0  0  0  0
  8 20  1  0  0  0  0
  8 35  1  0  0  0  0
  9 10  2  0  0  0  0
  9 11  1  0  0  0  0
 11 12  1  0  0  0  0
 11 36  1  0  0  0  0
 12 13  2  0  0  0  0
 12 16  1  0  0  0  0
 13 14  1  0  0  0  0
 14 15  2  0  0  0  0
 15 16  1  0  0  0  0
 15 37  1  0  0  0  0
 16 17  1  0  0  0  0
 17 18  1  0  0  0  0
 17 19  1  0  0  0  0
 17 38  1  0  0  0  0
 18 19  1  0  0  0  0
 18 39  1  0  0  0  0
 18 40  1  0  0  0  0
 19 41  1  0  0  0  0
 19 42  1  0  0  0  0
 20 21  1  0  0  0  0
 20 43  1  0  0  0  0
 20 44  1  0  0  0  0
 21 22  1  0  0  0  0
 21 31  1  0  0  0  0
 22 23  2  0  0  0  0
 22 24  2  0  0  0  0
 22 25  1  0  0  0  0
 25 26  1  0  0  0  0
 25 45  1  0  0  0  0
 25 46  1  0  0  0  0
 26 27  1  0  0  0  0
 26 29  1  0  0  0  0
 26 30  1  0  0  0  0
 27 28  3  0  0  0  0
 29 30  1  0  0  0  0
 29 47  1  0  0  0  0
 29 48  1  0  0  0  0
 30 49  1  0  0  0  0
 30 50  1  0  0  0  0
 31 51  1  0  0  0  0
 31 52  1  0  0  0  0
M  END
$$$$
