
 OpenBabel07202414153D

 44 46  0  0  1  0  0  0  0  0999 V2000
    1.7106    1.0928   -0.9774 C   0  0  0  0  0  0  0  0  0  0  0  0
    2.8911    1.1204   -1.7738 O   0  0  0  0  0  0  0  0  0  0  0  0
    4.0060    0.5517   -1.0709 C   0  0  0  0  0  0  0  0  0  0  0  0
    5.2400    0.5963   -1.9704 C   0  0  0  0  0  0  0  0  0  0  0  0
    5.6040    1.9522   -2.3363 N   0  0  0  0  0  0  0  0  0  0  0  0
    6.5145    2.7184   -1.6201 C   0  0  0  0  0  0  0  0  0  0  0  0
    7.0810    2.3027   -0.6137 O   0  0  0  0  0  0  0  0  0  0  0  0
    6.6764    4.1625   -2.2026 C   0  0  1  0  0  0  0  0  0  0  0  0
    5.6966    5.1247   -1.5243 C   0  0  0  0  0  0  0  0  0  0  0  0
    5.7539    5.3065   -0.1350 C   0  0  0  0  0  0  0  0  0  0  0  0
    5.2191    6.4564    0.4391 C   0  0  0  0  0  0  0  0  0  0  0  0
    4.6266    7.4280   -0.3662 C   0  0  0  0  0  0  0  0  0  0  0  0
    4.4727    7.2073   -1.7340 C   0  0  0  0  0  0  0  0  0  0  0  0
    4.9663    6.0362   -2.3083 C   0  0  0  0  0  0  0  0  0  0  0  0
    8.0348    4.7802   -2.2087 N   0  0  0  0  0  0  0  0  0  0  0  0
    8.1210    6.1353   -2.7753 C   0  0  0  0  0  0  0  0  0  0  0  0
    8.4162    5.8640   -4.2011 C   0  0  0  0  0  0  0  0  0  0  0  0
    7.9943    6.4817   -5.3641 C   0  0  0  0  0  0  0  0  0  0  0  0
    8.3778    5.8979   -6.5753 C   0  0  0  0  0  0  0  0  0  0  0  0
    9.2050    4.7572   -6.6082 C   0  0  0  0  0  0  0  0  0  0  0  0
    9.5910    4.1328   -5.4255 C   0  0  0  0  0  0  0  0  0  0  0  0
    9.1405    4.6837   -4.2508 C   0  0  0  0  0  0  0  0  0  0  0  0
    8.9752    4.0183   -2.9430 C   0  0  0  0  0  0  0  0  0  0  0  0
    9.4287    2.9204   -2.6880 O   0  0  0  0  0  0  0  0  0  0  0  0
    0.9030    1.5719   -1.5378 H   0  0  0  0  0  0  0  0  0  0  0  0
    1.8619    1.6440   -0.0441 H   0  0  0  0  0  0  0  0  0  0  0  0
    1.4197    0.0600   -0.7619 H   0  0  0  0  0  0  0  0  0  0  0  0
    3.7745   -0.4902   -0.8222 H   0  0  0  0  0  0  0  0  0  0  0  0
    4.1802    1.1149   -0.1475 H   0  0  0  0  0  0  0  0  0  0  0  0
    5.0404    0.0746   -2.9111 H   0  0  0  0  0  0  0  0  0  0  0  0
    6.0915    0.1175   -1.4751 H   0  0  0  0  0  0  0  0  0  0  0  0
    4.9543    2.4211   -2.9584 H   0  0  0  0  0  0  0  0  0  0  0  0
    6.3902    4.0716   -3.2635 H   0  0  0  0  0  0  0  0  0  0  0  0
    6.3000    4.6020    0.4917 H   0  0  0  0  0  0  0  0  0  0  0  0
    5.3281    6.6225    1.5076 H   0  0  0  0  0  0  0  0  0  0  0  0
    4.3058    8.3690    0.0720 H   0  0  0  0  0  0  0  0  0  0  0  0
    4.0329    7.9777   -2.3623 H   0  0  0  0  0  0  0  0  0  0  0  0
    4.9159    5.9213   -3.3908 H   0  0  0  0  0  0  0  0  0  0  0  0
    8.9814    6.6355   -2.3133 H   0  0  0  0  0  0  0  0  0  0  0  0
    7.2560    6.7733   -2.6118 H   0  0  0  0  0  0  0  0  0  0  0  0
    7.3245    7.3352   -5.3437 H   0  0  0  0  0  0  0  0  0  0  0  0
    8.0097    6.3145   -7.5128 H   0  0  0  0  0  0  0  0  0  0  0  0
    9.4967    4.3293   -7.5644 H   0  0  0  0  0  0  0  0  0  0  0  0
   10.1592    3.2027   -5.4239 H   0  0  0  0  0  0  0  0  0  0  0  0
  1  2  1  0  0  0  0
  1 25  1  0  0  0  0
  1 26  1  0  0  0  0
  1 27  1  0  0  0  0
  2  3  1  0  0  0  0
  3  4  1  0  0  0  0
  3 28  1  0  0  0  0
  3 29  1  0  0  0  0
  4  5  1  0  0  0  0
  4 30  1  0  0  0  0
  4 31  1  0  0  0  0
  5  6  1  0  0  0  0
  5 32  1  0  0  0  0
  6  7  2  0  0  0  0
  6  8  1  0  0  0  0
  8  9  1  0  0  0  0
  8 15  1  0  0  0  0
  8 33  1  6  0  0  0
  9 10  1  0  0  0  0
  9 14  2  0  0  0  0
 10 11  2  0  0  0  0
 10 34  1  0  0  0  0
 11 12  1  0  0  0  0
 11 35  1  0  0  0  0
 12 13  2  0  0  0  0
 12 36  1  0  0  0  0
 13 14  1  0  0  0  0
 13 37  1  0  0  0  0
 14 38  1  0  0  0  0
 15 16  1  0  0  0  0
 15 23  1  0  0  0  0
 16 17  1  0  0  0  0
 16 39  1  0  0  0  0
 16 40  1  0  0  0  0
 17 18  1  0  0  0  0
 17 22  2  0  0  0  0
 18 19  2  0  0  0  0
 18 41  1  0  0  0  0
 19 20  1  0  0  0  0
 19 42  1  0  0  0  0
 20 21  2  0  0  0  0
 20 43  1  0  0  0  0
 21 22  1  0  0  0  0
 21 44  1  0  0  0  0
 22 23  1  0  0  0  0
 23 24  2  0  0  0  0
M  END
$$$$
