
 OpenBabel07202414163D

 47 49  0  0  1  0  0  0  0  0999 V2000
   -5.1018    2.1414   -4.3717 C   0  0  0  0  0  0  0  0  0  0  0  0
   -3.7939    2.8034   -4.7072 C   0  0  0  0  0  0  0  0  0  0  0  0
   -3.3683    2.7737   -6.0459 C   0  0  0  0  0  0  0  0  0  0  0  0
   -2.1781    3.3877   -6.3964 C   0  0  0  0  0  0  0  0  0  0  0  0
   -1.3963    4.0415   -5.5220 N   0  0  0  0  0  0  0  0  0  0  0  0
   -1.8171    4.0638   -4.2322 C   0  0  0  0  0  0  0  0  0  0  0  0
   -2.9861    3.4603   -3.7588 C   0  0  0  0  0  0  0  0  0  0  0  0
   -3.3738    3.5145   -2.3965 N   0  0  0  0  0  0  0  0  0  0  0  0
   -2.5670    3.8875   -1.3301 C   0  0  0  0  0  0  0  0  0  0  0  0
   -1.3670    4.1515   -1.4214 O   0  0  0  0  0  0  0  0  0  0  0  0
   -3.2073    3.9282    0.0551 C   0  0  0  0  0  0  0  0  0  0  0  0
   -4.6872    3.6510    0.1184 C   0  0  0  0  0  0  0  0  0  0  0  0
   -5.6231    4.6984    0.0297 C   0  0  0  0  0  0  0  0  0  0  0  0
   -7.0021    4.4446   -0.0033 C   0  0  0  0  0  0  0  0  0  0  0  0
   -7.4151    3.1078   -0.0357 C   0  0  0  0  0  0  0  0  0  0  0  0
   -6.4980    2.0647    0.0742 C   0  0  0  0  0  0  0  0  0  0  0  0
   -5.1395    2.3283    0.1745 C   0  0  0  0  0  0  0  0  0  0  0  0
   -7.0493    0.4361    0.0325 Cl  0  0  0  0  0  0  0  0  0  0  0  0
   -7.9000    5.5051   -0.1291 N   0  0  0  0  0  0  0  0  0  0  0  0
   -9.2647    5.3709    0.3911 C   0  0  3  0  0  0  0  0  0  0  0  0
   -9.2927    5.2051    1.9212 C   0  0  0  0  0  0  0  0  0  0  0  0
  -10.3736    6.1476    2.4466 C   0  0  0  0  0  0  0  0  0  0  0  0
  -11.1658    6.5785    1.2192 C   0  0  0  0  0  0  0  0  0  0  0  0
  -10.1112    6.6330    0.1168 C   0  0  3  0  0  0  0  0  0  0  0  0
   -9.3161    7.8202    0.2117 O   0  0  0  0  0  0  0  0  0  0  0  0
   -5.4217    1.4716   -5.1793 H   0  0  0  0  0  0  0  0  0  0  0  0
   -5.8835    2.8945   -4.2323 H   0  0  0  0  0  0  0  0  0  0  0  0
   -5.0176    1.5247   -3.4719 H   0  0  0  0  0  0  0  0  0  0  0  0
   -3.9512    2.2730   -6.8122 H   0  0  0  0  0  0  0  0  0  0  0  0
   -1.8149    3.3695   -7.4193 H   0  0  0  0  0  0  0  0  0  0  0  0
   -1.1593    4.6387   -3.5879 H   0  0  0  0  0  0  0  0  0  0  0  0
   -4.3071    3.1840   -2.1843 H   0  0  0  0  0  0  0  0  0  0  0  0
   -3.0021    4.9172    0.4835 H   0  0  0  0  0  0  0  0  0  0  0  0
   -2.6777    3.2002    0.6844 H   0  0  0  0  0  0  0  0  0  0  0  0
   -5.2680    5.7279   -0.0136 H   0  0  0  0  0  0  0  0  0  0  0  0
   -8.4625    2.8587   -0.1639 H   0  0  0  0  0  0  0  0  0  0  0  0
   -4.4313    1.5062    0.2534 H   0  0  0  0  0  0  0  0  0  0  0  0
   -7.5160    6.4278    0.0816 H   0  0  0  0  0  0  0  0  0  0  0  0
   -9.7826    4.5262   -0.0775 H   0  0  0  0  0  0  0  0  0  0  0  0
   -8.3326    5.4280    2.3997 H   0  0  0  0  0  0  0  0  0  0  0  0
   -9.5421    4.1672    2.1721 H   0  0  0  0  0  0  0  0  0  0  0  0
   -9.9043    7.0190    2.9187 H   0  0  0  0  0  0  0  0  0  0  0  0
  -11.0065    5.6681    3.1997 H   0  0  0  0  0  0  0  0  0  0  0  0
  -11.6657    7.5370    1.3860 H   0  0  0  0  0  0  0  0  0  0  0  0
  -11.9232    5.8206    0.9866 H   0  0  0  0  0  0  0  0  0  0  0  0
  -10.5622    6.6064   -0.8805 H   0  0  0  0  0  0  0  0  0  0  0  0
   -9.5721    8.3142    1.0075 H   0  0  0  0  0  0  0  0  0  0  0  0
  1  2  1  0  0  0  0
  1 26  1  0  0  0  0
  1 27  1  0  0  0  0
  1 28  1  0  0  0  0
  2  3  1  0  0  0  0
  2  7  2  0  0  0  0
  3  4  2  0  0  0  0
  3 29  1  0  0  0  0
  4  5  1  0  0  0  0
  4 30  1  0  0  0  0
  5  6  2  0  0  0  0
  6  7  1  0  0  0  0
  6 31  1  0  0  0  0
  7  8  1  0  0  0  0
  8  9  1  0  0  0  0
  8 32  1  0  0  0  0
  9 10  2  0  0  0  0
  9 11  1  0  0  0  0
 11 12  1  0  0  0  0
 11 33  1  0  0  0  0
 11 34  1  0  0  0  0
 12 13  1  0  0  0  0
 12 17  2  0  0  0  0
 13 14  2  0  0  0  0
 13 35  1  0  0  0  0
 14 15  1  0  0  0  0
 14 19  1  0  0  0  0
 15 16  2  0  0  0  0
 15 36  1  0  0  0  0
 16 17  1  0  0  0  0
 16 18  1  0  0  0  0
 17 37  1  0  0  0  0
 19 20  1  0  0  0  0
 19 38  1  0  0  0  0
 20 21  1  0  0  0  0
 20 24  1  0  0  0  0
 20 39  1  0  0  0  0
 21 22  1  0  0  0  0
 21 40  1  0  0  0  0
 21 41  1  0  0  0  0
 22 23  1  0  0  0  0
 22 42  1  0  0  0  0
 22 43  1  0  0  0  0
 23 24  1  0  0  0  0
 23 44  1  0  0  0  0
 23 45  1  0  0  0  0
 24 25  1  0  0  0  0
 24 46  1  0  0  0  0
 25 47  1  0  0  0  0
M  END
$$$$
