
 OpenBabel07202414203D

 32 34  0  0  0  0  0  0  0  0999 V2000
    2.6765    1.3277   -3.5558 C   0  0  0  0  0  0  0  0  0  0  0  0
    2.1039    1.8197   -2.3767 C   0  0  0  0  0  0  0  0  0  0  0  0
    2.9102    2.2274   -1.3045 C   0  0  0  0  0  0  0  0  0  0  0  0
    4.3040    2.1271   -1.4373 C   0  0  0  0  0  0  0  0  0  0  0  0
    4.8712    1.6342   -2.6173 C   0  0  0  0  0  0  0  0  0  0  0  0
    4.0638    1.2335   -3.6759 C   0  0  0  0  0  0  0  0  0  0  0  0
    6.5818    1.5005   -2.7454 Cl  0  0  0  0  0  0  0  0  0  0  0  0
    2.3101    2.6491    0.0179 C   0  0  0  0  0  0  0  0  0  0  0  0
    1.3192    3.7942   -0.0319 C   0  0  0  0  0  0  0  0  0  0  0  0
    0.1108    3.5972    0.1054 O   0  0  0  0  0  0  0  0  0  0  0  0
    1.8984    5.0412   -0.1946 N   0  0  0  0  0  0  0  0  0  0  0  0
    1.1714    6.2491   -0.2026 C   0  0  0  0  0  0  0  0  0  0  0  0
    1.5370    7.2361   -1.1286 C   0  0  0  0  0  0  0  0  0  0  0  0
    0.8299    8.4366   -1.2368 C   0  0  0  0  0  0  0  0  0  0  0  0
   -0.2306    8.7245   -0.3739 C   0  0  0  0  0  0  0  0  0  0  0  0
   -0.5679    7.7815    0.6139 C   0  0  0  0  0  0  0  0  0  0  0  0
    0.1147    6.5695    0.6677 C   0  0  0  0  0  0  0  0  0  0  0  0
   -0.4604    5.8944    1.7142 N   0  0  0  0  0  0  0  0  0  0  0  0
   -1.4155    6.5847    2.3697 N   0  0  0  0  0  0  0  0  0  0  0  0
   -1.4976    7.7222    1.6763 C   0  0  0  0  0  0  0  0  0  0  0  0
    2.0400    0.9994   -4.3744 H   0  0  0  0  0  0  0  0  0  0  0  0
    1.0173    1.8532   -2.2959 H   0  0  0  0  0  0  0  0  0  0  0  0
    4.9558    2.4046   -0.6128 H   0  0  0  0  0  0  0  0  0  0  0  0
    4.5033    0.8375   -4.5881 H   0  0  0  0  0  0  0  0  0  0  0  0
    3.0974    2.9258    0.7289 H   0  0  0  0  0  0  0  0  0  0  0  0
    1.7997    1.7814    0.4577 H   0  0  0  0  0  0  0  0  0  0  0  0
    2.7980    5.0498   -0.6626 H   0  0  0  0  0  0  0  0  0  0  0  0
    2.3491    7.0507   -1.8266 H   0  0  0  0  0  0  0  0  0  0  0  0
    1.1060    9.1552   -2.0052 H   0  0  0  0  0  0  0  0  0  0  0  0
   -0.7697    9.6635   -0.4556 H   0  0  0  0  0  0  0  0  0  0  0  0
   -0.2365    4.9565    2.0293 H   0  0  0  0  0  0  0  0  0  0  0  0
   -2.2195    8.4708    1.9784 H   0  0  0  0  0  0  0  0  0  0  0  0
  1  2  1  0  0  0  0
  1  6  2  0  0  0  0
  1 21  1  0  0  0  0
  2  3  2  0  0  0  0
  2 22  1  0  0  0  0
  3  4  1  0  0  0  0
  3  8  1  0  0  0  0
  4  5  2  0  0  0  0
  4 23  1  0  0  0  0
  5  6  1  0  0  0  0
  5  7  1  0  0  0  0
  6 24  1  0  0  0  0
  8  9  1  0  0  0  0
  8 25  1  0  0  0  0
  8 26  1  0  0  0  0
  9 10  2  0  0  0  0
  9 11  1  0  0  0  0
 11 12  1  0  0  0  0
 11 27  1  0  0  0  0
 12 13  1  0  0  0  0
 12 17  2  0  0  0  0
 13 14  2  0  0  0  0
 13 28  1  0  0  0  0
 14 15  1  0  0  0  0
 14 29  1  0  0  0  0
 15 16  2  0  0  0  0
 15 30  1  0  0  0  0
 16 17  1  0  0  0  0
 16 20  1  0  0  0  0
 17 18  1  0  0  0  0
 18 19  1  0  0  0  0
 18 31  1  0  0  0  0
 19 20  2  0  0  0  0
 20 32  1  0  0  0  0
M  END
$$$$
