
 OpenBabel07202414203D

 47 50  0  0  0  0  0  0  0  0999 V2000
    4.7644   -5.0434    2.1141 O   0  0  0  0  0  0  0  0  0  0  0  0
    3.5711   -4.7377    1.5107 C   0  0  0  0  0  0  0  0  0  0  0  0
    2.7789   -5.7444    0.9570 C   0  0  0  0  0  0  0  0  0  0  0  0
    3.2941   -7.3906    0.9992 Cl  0  0  0  0  0  0  0  0  0  0  0  0
    1.5545   -5.4344    0.3681 C   0  0  0  0  0  0  0  0  0  0  0  0
    1.0955   -4.1111    0.3321 C   0  0  0  0  0  0  0  0  0  0  0  0
   -0.1655   -3.7748   -0.2022 N   0  0  0  0  0  0  0  0  0  0  0  0
   -1.3579   -4.5209   -0.1323 C   0  0  0  0  0  0  0  0  0  0  0  0
   -2.3285   -4.3996   -1.1295 C   0  0  0  0  0  0  0  0  0  0  0  0
   -3.5021   -5.1538   -1.0627 C   0  0  0  0  0  0  0  0  0  0  0  0
   -4.6798   -5.0102   -2.3113 Cl  0  0  0  0  0  0  0  0  0  0  0  0
   -3.7298   -6.0349   -0.0045 C   0  0  0  0  0  0  0  0  0  0  0  0
   -2.7848   -6.1533    1.0171 C   0  0  0  0  0  0  0  0  0  0  0  0
   -2.9778   -7.1313    2.1512 C   0  0  0  0  0  0  0  0  0  0  0  0
   -2.8586   -6.5259    3.5412 C   0  0  0  0  0  0  0  0  0  0  0  0
   -2.2063   -7.0874    4.4162 O   0  0  0  0  0  0  0  0  0  0  0  0
   -3.6202   -5.3880    3.7380 N   0  0  0  0  0  0  0  0  0  0  0  0
   -3.6685   -4.6862    4.9657 C   0  0  0  0  0  0  0  0  0  0  0  0
   -2.5249   -4.5199    5.7509 C   0  0  0  0  0  0  0  0  0  0  0  0
   -2.4884   -3.8297    6.9127 N   0  0  0  0  0  0  0  0  0  0  0  0
   -3.6605   -3.3104    7.3355 C   0  0  0  0  0  0  0  0  0  0  0  0
   -4.8749   -3.4279    6.6543 C   0  0  0  0  0  0  0  0  0  0  0  0
   -6.0665   -2.9055    7.1868 C   0  0  0  0  0  0  0  0  0  0  0  0
   -7.2779   -3.0737    6.5183 C   0  0  0  0  0  0  0  0  0  0  0  0
   -7.3109   -3.7594    5.3115 C   0  0  0  0  0  0  0  0  0  0  0  0
   -6.1326   -4.2720    4.7662 C   0  0  0  0  0  0  0  0  0  0  0  0
   -4.8862   -4.1238    5.4251 C   0  0  0  0  0  0  0  0  0  0  0  0
   -1.6109   -5.3883    0.9425 C   0  0  0  0  0  0  0  0  0  0  0  0
    1.9116   -3.0992    0.8536 C   0  0  0  0  0  0  0  0  0  0  0  0
    3.1376   -3.4110    1.4511 C   0  0  0  0  0  0  0  0  0  0  0  0
    4.0771   -2.1298    2.1216 Cl  0  0  0  0  0  0  0  0  0  0  0  0
    4.8668   -6.0140    2.1011 H   0  0  0  0  0  0  0  0  0  0  0  0
    0.9528   -6.2279   -0.0667 H   0  0  0  0  0  0  0  0  0  0  0  0
   -0.1048   -3.1272   -0.9831 H   0  0  0  0  0  0  0  0  0  0  0  0
   -2.1717   -3.7304   -1.9708 H   0  0  0  0  0  0  0  0  0  0  0  0
   -4.6416   -6.6285    0.0144 H   0  0  0  0  0  0  0  0  0  0  0  0
   -2.2105   -7.9102    2.0571 H   0  0  0  0  0  0  0  0  0  0  0  0
   -3.9524   -7.6271    2.0837 H   0  0  0  0  0  0  0  0  0  0  0  0
   -4.3336   -5.1824    3.0513 H   0  0  0  0  0  0  0  0  0  0  0  0
   -1.5607   -4.9138    5.4401 H   0  0  0  0  0  0  0  0  0  0  0  0
   -3.5959   -2.7860    8.2856 H   0  0  0  0  0  0  0  0  0  0  0  0
   -6.0602   -2.3809    8.1397 H   0  0  0  0  0  0  0  0  0  0  0  0
   -8.1969   -2.6849    6.9507 H   0  0  0  0  0  0  0  0  0  0  0  0
   -8.2564   -3.9106    4.7971 H   0  0  0  0  0  0  0  0  0  0  0  0
   -6.2144   -4.8276    3.8382 H   0  0  0  0  0  0  0  0  0  0  0  0
   -0.8797   -5.4661    1.7466 H   0  0  0  0  0  0  0  0  0  0  0  0
    1.5707   -2.0656    0.8383 H   0  0  0  0  0  0  0  0  0  0  0  0
  1  2  1  0  0  0  0
  1 32  1  0  0  0  0
  2  3  2  0  0  0  0
  2 30  1  0  0  0  0
  3  4  1  0  0  0  0
  3  5  1  0  0  0  0
  5  6  2  0  0  0  0
  5 33  1  0  0  0  0
  6  7  1  0  0  0  0
  6 29  1  0  0  0  0
  7  8  1  0  0  0  0
  7 34  1  0  0  0  0
  8  9  2  0  0  0  0
  8 28  1  0  0  0  0
  9 10  1  0  0  0  0
  9 35  1  0  0  0  0
 10 11  1  0  0  0  0
 10 12  2  0  0  0  0
 12 13  1  0  0  0  0
 12 36  1  0  0  0  0
 13 14  1  0  0  0  0
 13 28  2  0  0  0  0
 14 15  1  0  0  0  0
 14 37  1  0  0  0  0
 14 38  1  0  0  0  0
 15 16  2  0  0  0  0
 15 17  1  0  0  0  0
 17 18  1  0  0  0  0
 17 39  1  0  0  0  0
 18 19  2  0  0  0  0
 18 27  1  0  0  0  0
 19 20  1  0  0  0  0
 19 40  1  0  0  0  0
 20 21  2  0  0  0  0
 21 22  1  0  0  0  0
 21 41  1  0  0  0  0
 22 23  2  0  0  0  0
 22 27  1  0  0  0  0
 23 24  1  0  0  0  0
 23 42  1  0  0  0  0
 24 25  2  0  0  0  0
 24 43  1  0  0  0  0
 25 26  1  0  0  0  0
 25 44  1  0  0  0  0
 26 27  2  0  0  0  0
 26 45  1  0  0  0  0
 28 46  1  0  0  0  0
 29 30  2  0  0  0  0
 29 47  1  0  0  0  0
 30 31  1  0  0  0  0
M  END
$$$$
