
 OpenBabel07202414183D

 47 50  0  0  0  0  0  0  0  0999 V2000
    2.2433   -6.5472    3.0370 Cl  0  0  0  0  0  0  0  0  0  0  0  0
    1.5128   -5.1461    2.3529 C   0  0  0  0  0  0  0  0  0  0  0  0
    0.2071   -4.8115    2.6990 C   0  0  0  0  0  0  0  0  0  0  0  0
   -0.3826   -3.6815    2.1393 C   0  0  0  0  0  0  0  0  0  0  0  0
    0.3424   -2.8784    1.2491 C   0  0  0  0  0  0  0  0  0  0  0  0
    1.6719   -3.1880    0.9098 C   0  0  0  0  0  0  0  0  0  0  0  0
    2.4239   -2.3158   -0.0928 C   0  0  0  0  0  0  0  0  0  0  0  0
    3.8933   -2.3804    0.0057 N   0  0  0  0  0  0  0  0  0  0  0  0
    4.4495   -1.7701    1.2236 C   0  0  0  0  0  0  0  0  0  0  0  0
    4.4315   -0.2341    1.2476 C   0  0  0  0  0  0  0  0  0  0  0  0
    4.9739    0.4286    0.0551 N   0  0  0  0  0  0  0  0  0  0  0  0
    5.3334    1.7901   -0.0378 C   0  0  0  0  0  0  0  0  0  0  0  0
    5.6704    2.2743   -1.1218 O   0  0  0  0  0  0  0  0  0  0  0  0
    5.3144    2.6934    1.1815 C   0  0  0  0  0  0  0  0  0  0  0  0
    4.2488    2.6215    2.0000 C   0  0  0  0  0  0  0  0  0  0  0  0
    4.1434    3.3627    3.2678 C   0  0  0  0  0  0  0  0  0  0  0  0
    3.2317    3.1269    4.0513 O   0  0  0  0  0  0  0  0  0  0  0  0
    5.1042    4.2864    3.5151 N   0  0  0  0  0  0  0  0  0  0  0  0
    6.1344    4.5733    2.6120 C   0  0  0  0  0  0  0  0  0  0  0  0
    6.9742    5.6505    2.9106 C   0  0  0  0  0  0  0  0  0  0  0  0
    7.9561    6.0314    2.0069 C   0  0  0  0  0  0  0  0  0  0  0  0
    8.0986    5.3222    0.8172 C   0  0  0  0  0  0  0  0  0  0  0  0
    7.2725    4.2206    0.5358 C   0  0  0  0  0  0  0  0  0  0  0  0
    6.2688    3.8182    1.4310 C   0  0  0  0  0  0  0  0  0  0  0  0
    4.7007   -0.2519   -1.2210 C   0  0  0  0  0  0  0  0  0  0  0  0
    4.5801   -1.7944   -1.1607 C   0  0  0  0  0  0  0  0  0  0  0  0
    2.2346   -4.3553    1.4546 C   0  0  0  0  0  0  0  0  0  0  0  0
   -0.3551   -5.4304    3.3965 H   0  0  0  0  0  0  0  0  0  0  0  0
   -1.4094   -3.4268    2.3927 H   0  0  0  0  0  0  0  0  0  0  0  0
   -0.1479   -2.0090    0.8155 H   0  0  0  0  0  0  0  0  0  0  0  0
    2.0699   -1.2804   -0.0161 H   0  0  0  0  0  0  0  0  0  0  0  0
    2.1161   -2.6856   -1.0802 H   0  0  0  0  0  0  0  0  0  0  0  0
    5.4874   -2.1116    1.3247 H   0  0  0  0  0  0  0  0  0  0  0  0
    3.9349   -2.1395    2.1179 H   0  0  0  0  0  0  0  0  0  0  0  0
    4.9806    0.1084    2.1292 H   0  0  0  0  0  0  0  0  0  0  0  0
    3.3854    0.0721    1.3304 H   0  0  0  0  0  0  0  0  0  0  0  0
    3.3960    1.9870    1.8242 H   0  0  0  0  0  0  0  0  0  0  0  0
    5.0059    4.8203    4.3704 H   0  0  0  0  0  0  0  0  0  0  0  0
    6.8484    6.2219    3.8293 H   0  0  0  0  0  0  0  0  0  0  0  0
    8.5969    6.8829    2.2212 H   0  0  0  0  0  0  0  0  0  0  0  0
    8.8511    5.6339    0.0957 H   0  0  0  0  0  0  0  0  0  0  0  0
    7.4179    3.7152   -0.4153 H   0  0  0  0  0  0  0  0  0  0  0  0
    5.4967    0.0004   -1.9336 H   0  0  0  0  0  0  0  0  0  0  0  0
    3.7699    0.1751   -1.6120 H   0  0  0  0  0  0  0  0  0  0  0  0
    5.5980   -2.2067   -1.1615 H   0  0  0  0  0  0  0  0  0  0  0  0
    4.1302   -2.1581   -2.0934 H   0  0  0  0  0  0  0  0  0  0  0  0
    3.2469   -4.6460    1.1843 H   0  0  0  0  0  0  0  0  0  0  0  0
  1  2  1  0  0  0  0
  2  3  1  0  0  0  0
  2 27  2  0  0  0  0
  3  4  2  0  0  0  0
  3 28  1  0  0  0  0
  4  5  1  0  0  0  0
  4 29  1  0  0  0  0
  5  6  2  0  0  0  0
  5 30  1  0  0  0  0
  6  7  1  0  0  0  0
  6 27  1  0  0  0  0
  7  8  1  0  0  0  0
  7 31  1  0  0  0  0
  7 32  1  0  0  0  0
  8  9  1  0  0  0  0
  8 26  1  0  0  0  0
  9 10  1  0  0  0  0
  9 33  1  0  0  0  0
  9 34  1  0  0  0  0
 10 11  1  0  0  0  0
 10 35  1  0  0  0  0
 10 36  1  0  0  0  0
 11 12  1  0  0  0  0
 11 25  1  0  0  0  0
 12 13  2  0  0  0  0
 12 14  1  0  0  0  0
 14 15  2  0  0  0  0
 14 24  1  0  0  0  0
 15 16  1  0  0  0  0
 15 37  1  0  0  0  0
 16 17  2  0  0  0  0
 16 18  1  0  0  0  0
 18 19  1  0  0  0  0
 18 38  1  0  0  0  0
 19 20  1  0  0  0  0
 19 24  2  0  0  0  0
 20 21  2  0  0  0  0
 20 39  1  0  0  0  0
 21 22  1  0  0  0  0
 21 40  1  0  0  0  0
 22 23  2  0  0  0  0
 22 41  1  0  0  0  0
 23 24  1  0  0  0  0
 23 42  1  0  0  0  0
 25 26  1  0  0  0  0
 25 43  1  0  0  0  0
 25 44  1  0  0  0  0
 26 45  1  0  0  0  0
 26 46  1  0  0  0  0
 27 47  1  0  0  0  0
M  END
$$$$
