
 OpenBabel07202414143D

 42 45  0  0  1  0  0  0  0  0999 V2000
    0.9645   -0.0258    0.1677 C   0  0  0  0  0  0  0  0  0  0  0  0
    2.3340   -0.1267   -0.3001 N   0  0  0  0  0  0  0  0  0  0  0  0
    3.0013   -1.4265   -0.3068 C   0  0  0  0  0  0  0  0  0  0  0  0
    3.6922   -1.6898   -1.6428 C   0  0  1  0  0  0  0  0  0  0  0  0
    2.6687   -2.1127   -2.6963 C   0  0  0  0  0  0  0  0  0  0  0  0
    2.7317   -3.2378   -3.1907 O   0  0  0  0  0  0  0  0  0  0  0  0
    1.7214   -1.1553   -3.0096 N   0  0  0  0  0  0  0  0  0  0  0  0
    0.7101   -1.2248   -3.9983 C   0  0  0  0  0  0  0  0  0  0  0  0
    0.3810   -2.4159   -4.6467 C   0  0  0  0  0  0  0  0  0  0  0  0
   -0.4746   -2.5125   -5.6891 N   0  0  0  0  0  0  0  0  0  0  0  0
   -1.0515   -1.3649   -6.0971 C   0  0  0  0  0  0  0  0  0  0  0  0
   -0.8820   -0.1285   -5.4757 C   0  0  0  0  0  0  0  0  0  0  0  0
   -1.5851    1.0036   -5.9293 C   0  0  0  0  0  0  0  0  0  0  0  0
   -1.4396    2.2340   -5.2922 C   0  0  0  0  0  0  0  0  0  0  0  0
   -0.5782    2.3488   -4.2112 C   0  0  0  0  0  0  0  0  0  0  0  0
    0.1457    1.2351   -3.7710 C   0  0  0  0  0  0  0  0  0  0  0  0
    0.0117   -0.0406   -4.3843 C   0  0  0  0  0  0  0  0  0  0  0  0
    4.5256   -0.4899   -2.0454 C   0  0  0  0  0  0  0  0  0  0  0  0
    5.5914   -0.6377   -2.9446 C   0  0  0  0  0  0  0  0  0  0  0  0
    6.3457    0.4711   -3.3166 C   0  0  0  0  0  0  0  0  0  0  0  0
    7.3569    0.3192   -4.1831 F   0  0  0  0  0  0  0  0  0  0  0  0
    6.0603    1.7354   -2.8161 C   0  0  0  0  0  0  0  0  0  0  0  0
    4.9940    1.9017   -1.9319 C   0  0  0  0  0  0  0  0  0  0  0  0
    4.2243    0.7951   -1.5489 C   0  0  0  0  0  0  0  0  0  0  0  0
    2.9988    1.0178   -0.7213 C   0  0  0  0  0  0  0  0  0  0  0  0
    2.5560    2.1501   -0.5672 O   0  0  0  0  0  0  0  0  0  0  0  0
    0.5941   -0.9913    0.5193 H   0  0  0  0  0  0  0  0  0  0  0  0
    0.3491    0.3030   -0.6760 H   0  0  0  0  0  0  0  0  0  0  0  0
    0.8944    0.7207    0.9613 H   0  0  0  0  0  0  0  0  0  0  0  0
    2.2874   -2.2224   -0.0702 H   0  0  0  0  0  0  0  0  0  0  0  0
    3.7487   -1.3987    0.4971 H   0  0  0  0  0  0  0  0  0  0  0  0
    4.3667   -2.5449   -1.4991 H   0  0  0  0  0  0  0  0  0  0  0  0
    1.8412   -0.2599   -2.5611 H   0  0  0  0  0  0  0  0  0  0  0  0
    0.7897   -3.3739   -4.3421 H   0  0  0  0  0  0  0  0  0  0  0  0
   -1.6886   -1.4755   -6.9715 H   0  0  0  0  0  0  0  0  0  0  0  0
   -2.2611    0.9305   -6.7785 H   0  0  0  0  0  0  0  0  0  0  0  0
   -2.0044    3.0968   -5.6361 H   0  0  0  0  0  0  0  0  0  0  0  0
   -0.4640    3.3042   -3.7038 H   0  0  0  0  0  0  0  0  0  0  0  0
    0.8009    1.3951   -2.9194 H   0  0  0  0  0  0  0  0  0  0  0  0
    5.8442   -1.6090   -3.3670 H   0  0  0  0  0  0  0  0  0  0  0  0
    6.6563    2.5865   -3.1308 H   0  0  0  0  0  0  0  0  0  0  0  0
    4.7511    2.8960   -1.5612 H   0  0  0  0  0  0  0  0  0  0  0  0
  1  2  1  0  0  0  0
  1 27  1  0  0  0  0
  1 28  1  0  0  0  0
  1 29  1  0  0  0  0
  2  3  1  0  0  0  0
  2 25  1  0  0  0  0
  3  4  1  0  0  0  0
  3 30  1  0  0  0  0
  3 31  1  0  0  0  0
  4  5  1  0  0  0  0
  4 18  1  0  0  0  0
  4 32  1  1  0  0  0
  5  6  2  0  0  0  0
  5  7  1  0  0  0  0
  7  8  1  0  0  0  0
  7 33  1  0  0  0  0
  8  9  1  0  0  0  0
  8 17  2  0  0  0  0
  9 10  2  0  0  0  0
  9 34  1  0  0  0  0
 10 11  1  0  0  0  0
 11 12  2  0  0  0  0
 11 35  1  0  0  0  0
 12 13  1  0  0  0  0
 12 17  1  0  0  0  0
 13 14  2  0  0  0  0
 13 36  1  0  0  0  0
 14 15  1  0  0  0  0
 14 37  1  0  0  0  0
 15 16  2  0  0  0  0
 15 38  1  0  0  0  0
 16 17  1  0  0  0  0
 16 39  1  0  0  0  0
 18 19  1  0  0  0  0
 18 24  2  0  0  0  0
 19 20  2  0  0  0  0
 19 40  1  0  0  0  0
 20 21  1  0  0  0  0
 20 22  1  0  0  0  0
 22 23  2  0  0  0  0
 22 41  1  0  0  0  0
 23 24  1  0  0  0  0
 23 42  1  0  0  0  0
 24 25  1  0  0  0  0
 25 26  2  0  0  0  0
M  END
$$$$
