
 OpenBabel07202414183D

 41 45  0  0  1  0  0  0  0  0999 V2000
    0.9616   -0.1450    0.0408 Cl  0  0  0  0  0  0  0  0  0  0  0  0
    2.6776   -0.0753    0.1382 C   0  0  0  0  0  0  0  0  0  0  0  0
    3.4245   -1.2471    0.1001 C   0  0  0  0  0  0  0  0  0  0  0  0
    4.8156   -1.1743    0.1343 C   0  0  0  0  0  0  0  0  0  0  0  0
    5.4597    0.0645    0.1923 C   0  0  0  0  0  0  0  0  0  0  0  0
    4.7199    1.2542    0.2162 C   0  0  0  0  0  0  0  0  0  0  0  0
    3.3150    1.1648    0.2153 C   0  0  0  0  0  0  0  0  0  0  0  0
    5.4337    2.5904    0.1317 C   0  0  1  0  0  0  0  0  0  0  0  0
    6.8971    2.4209   -0.2748 C   0  0  0  0  0  0  0  0  0  0  0  0
    7.4921    1.2368    0.4715 C   0  0  0  0  0  0  0  0  0  0  0  0
    6.8253    0.0176    0.1439 O   0  0  0  0  0  0  0  0  0  0  0  0
    4.7328    3.4668   -0.7861 N   0  0  0  0  0  0  0  0  0  0  0  0
    4.0572    4.4647   -0.1103 C   0  0  0  0  0  0  0  0  0  0  0  0
    3.1550    5.1125   -0.6155 O   0  0  0  0  0  0  0  0  0  0  0  0
    4.5547    4.5326    1.1594 N   0  0  0  0  0  0  0  0  0  0  0  0
    4.2392    5.5509    2.0797 C   0  0  0  0  0  0  0  0  0  0  0  0
    2.9091    5.7509    2.4566 C   0  0  0  0  0  0  0  0  0  0  0  0
    2.5060    6.6913    3.3391 N   0  0  0  0  0  0  0  0  0  0  0  0
    3.4556    7.5433    3.7820 C   0  0  0  0  0  0  0  0  0  0  0  0
    4.7859    7.5327    3.3601 C   0  0  0  0  0  0  0  0  0  0  0  0
    5.6676    8.5762    3.6944 C   0  0  0  0  0  0  0  0  0  0  0  0
    6.9693    8.5914    3.1978 C   0  0  0  0  0  0  0  0  0  0  0  0
    7.4272    7.5271    2.4318 C   0  0  0  0  0  0  0  0  0  0  0  0
    6.5667    6.4732    2.1148 C   0  0  0  0  0  0  0  0  0  0  0  0
    5.2116    6.4742    2.5263 C   0  0  0  0  0  0  0  0  0  0  0  0
    5.3462    3.4388    1.4248 C   0  0  0  0  0  0  0  0  0  0  0  0
    5.8771    3.1546    2.4906 O   0  0  0  0  0  0  0  0  0  0  0  0
    2.9318   -2.2123    0.0242 H   0  0  0  0  0  0  0  0  0  0  0  0
    5.4038   -2.0886    0.0951 H   0  0  0  0  0  0  0  0  0  0  0  0
    2.6960    2.0585    0.2194 H   0  0  0  0  0  0  0  0  0  0  0  0
    7.4815    3.3249   -0.0663 H   0  0  0  0  0  0  0  0  0  0  0  0
    6.9652    2.2302   -1.3542 H   0  0  0  0  0  0  0  0  0  0  0  0
    7.4816    1.3684    1.5586 H   0  0  0  0  0  0  0  0  0  0  0  0
    8.5406    1.1126    0.1787 H   0  0  0  0  0  0  0  0  0  0  0  0
    4.3783    3.1687   -1.6880 H   0  0  0  0  0  0  0  0  0  0  0  0
    2.1048    5.1387    2.0578 H   0  0  0  0  0  0  0  0  0  0  0  0
    3.0955    8.2879    4.4886 H   0  0  0  0  0  0  0  0  0  0  0  0
    5.3244    9.4173    4.2937 H   0  0  0  0  0  0  0  0  0  0  0  0
    7.6204    9.4383    3.3993 H   0  0  0  0  0  0  0  0  0  0  0  0
    8.4474    7.5261    2.0558 H   0  0  0  0  0  0  0  0  0  0  0  0
    6.9638    5.6688    1.5025 H   0  0  0  0  0  0  0  0  0  0  0  0
  1  2  1  0  0  0  0
  2  3  1  0  0  0  0
  2  7  2  0  0  0  0
  3  4  2  0  0  0  0
  3 28  1  0  0  0  0
  4  5  1  0  0  0  0
  4 29  1  0  0  0  0
  5  6  2  0  0  0  0
  5 11  1  0  0  0  0
  6  7  1  0  0  0  0
  7 30  1  0  0  0  0
  8  6  1  1  0  0  0
  8  9  1  0  0  0  0
  8 12  1  0  0  0  0
  8 26  1  0  0  0  0
  9 10  1  0  0  0  0
  9 31  1  0  0  0  0
  9 32  1  0  0  0  0
 10 11  1  0  0  0  0
 10 33  1  0  0  0  0
 10 34  1  0  0  0  0
 12 13  1  0  0  0  0
 12 35  1  0  0  0  0
 13 14  2  0  0  0  0
 13 15  1  0  0  0  0
 15 16  1  0  0  0  0
 15 26  1  0  0  0  0
 16 17  1  0  0  0  0
 16 25  2  0  0  0  0
 17 18  2  0  0  0  0
 17 36  1  0  0  0  0
 18 19  1  0  0  0  0
 19 20  2  0  0  0  0
 19 37  1  0  0  0  0
 20 21  1  0  0  0  0
 20 25  1  0  0  0  0
 21 22  2  0  0  0  0
 21 38  1  0  0  0  0
 22 23  1  0  0  0  0
 22 39  1  0  0  0  0
 23 24  2  0  0  0  0
 23 40  1  0  0  0  0
 24 25  1  0  0  0  0
 24 41  1  0  0  0  0
 26 27  2  0  0  0  0
M  END
$$$$
