
 OpenBabel07202414163D

 41 45  0  0  1  0  0  0  0  0999 V2000
    1.4772   -0.6289   -0.1033 C   0  0  0  0  0  0  0  0  0  0  0  0
    2.9649   -0.4185   -0.0562 C   0  0  0  0  0  0  0  0  0  0  0  0
    3.8940   -1.4776   -0.1836 C   0  0  0  0  0  0  0  0  0  0  0  0
    5.2785   -1.2250   -0.1548 C   0  0  0  0  0  0  0  0  0  0  0  0
    5.6904    0.1242    0.0420 C   0  0  0  0  0  0  0  0  0  0  0  0
    4.7717    1.1705    0.1445 C   0  0  0  0  0  0  0  0  0  0  0  0
    3.4179    0.9004    0.0876 C   0  0  0  0  0  0  0  0  0  0  0  0
    5.1294    2.4837    0.2780 O   0  0  0  0  0  0  0  0  0  0  0  0
    7.1412    0.4349    0.1021 C   0  0  0  0  0  0  0  0  0  0  0  0
    7.5279    1.5807    0.3166 O   0  0  0  0  0  0  0  0  0  0  0  0
    8.0762   -0.7275   -0.0900 C   0  0  3  0  0  0  0  0  0  0  0  0
    7.4846   -1.6268   -1.1850 C   0  0  0  0  0  0  0  0  0  0  0  0
    6.3583   -2.3244   -0.3913 C   0  0  3  0  0  0  0  0  0  0  0  0
    7.1556   -2.6551    0.8553 C   0  0  0  0  0  0  0  0  0  0  0  0
    7.9992   -1.6438    1.0858 C   0  0  0  0  0  0  0  0  0  0  0  0
    8.7987   -1.5000    2.2934 C   0  0  0  0  0  0  0  0  0  0  0  0
    9.4359   -0.4825    2.5156 O   0  0  0  0  0  0  0  0  0  0  0  0
    8.7952   -2.6467    3.2145 C   0  0  0  0  0  0  0  0  0  0  0  0
    9.4509   -2.4947    4.4462 C   0  0  0  0  0  0  0  0  0  0  0  0
    9.6769   -3.6030    5.2499 C   0  0  0  0  0  0  0  0  0  0  0  0
    9.2872   -4.8615    4.7984 C   0  0  0  0  0  0  0  0  0  0  0  0
    8.5871   -4.9989    3.5866 C   0  0  0  0  0  0  0  0  0  0  0  0
    8.2628   -3.8776    2.8060 C   0  0  0  0  0  0  0  0  0  0  0  0
    7.3992   -3.9317    1.5642 C   0  0  0  0  0  0  0  0  0  0  0  0
    6.9787   -4.9710    1.0771 O   0  0  0  0  0  0  0  0  0  0  0  0
    8.2709   -6.2620    3.1749 O   0  0  0  0  0  0  0  0  0  0  0  0
    5.8614   -3.4053   -1.1388 O   0  0  0  0  0  0  0  0  0  0  0  0
    1.2093   -1.6878   -0.1122 H   0  0  0  0  0  0  0  0  0  0  0  0
    1.0621   -0.1546   -0.9998 H   0  0  0  0  0  0  0  0  0  0  0  0
    1.0107   -0.1697    0.7768 H   0  0  0  0  0  0  0  0  0  0  0  0
    3.5320   -2.4947   -0.3322 H   0  0  0  0  0  0  0  0  0  0  0  0
    2.7118    1.7263    0.1508 H   0  0  0  0  0  0  0  0  0  0  0  0
    6.1112    2.5337    0.3318 H   0  0  0  0  0  0  0  0  0  0  0  0
    9.0829   -0.3949   -0.3463 H   0  0  0  0  0  0  0  0  0  0  0  0
    8.2244   -2.3534   -1.5540 H   0  0  0  0  0  0  0  0  0  0  0  0
    7.1166   -1.0766   -2.0568 H   0  0  0  0  0  0  0  0  0  0  0  0
    9.8025   -1.5140    4.7655 H   0  0  0  0  0  0  0  0  0  0  0  0
   10.1900   -3.4887    6.2026 H   0  0  0  0  0  0  0  0  0  0  0  0
    9.5325   -5.7276    5.4098 H   0  0  0  0  0  0  0  0  0  0  0  0
    8.7317   -6.9164    3.7272 H   0  0  0  0  0  0  0  0  0  0  0  0
    6.5592   -4.0807   -1.2122 H   0  0  0  0  0  0  0  0  0  0  0  0
  1  2  1  0  0  0  0
  1 28  1  0  0  0  0
  1 29  1  0  0  0  0
  1 30  1  0  0  0  0
  2  3  1  0  0  0  0
  2  7  2  0  0  0  0
  3  4  2  0  0  0  0
  3 31  1  0  0  0  0
  4  5  1  0  0  0  0
  4 13  1  0  0  0  0
  5  6  2  0  0  0  0
  5  9  1  0  0  0  0
  6  7  1  0  0  0  0
  6  8  1  0  0  0  0
  7 32  1  0  0  0  0
  8 33  1  0  0  0  0
  9 10  2  0  0  0  0
  9 11  1  0  0  0  0
 11 12  1  0  0  0  0
 11 15  1  0  0  0  0
 11 34  1  0  0  0  0
 12 13  1  0  0  0  0
 12 35  1  0  0  0  0
 12 36  1  0  0  0  0
 13 14  1  0  0  0  0
 13 27  1  0  0  0  0
 14 15  2  0  0  0  0
 14 24  1  0  0  0  0
 15 16  1  0  0  0  0
 16 17  2  0  0  0  0
 16 18  1  0  0  0  0
 18 19  1  0  0  0  0
 18 23  2  0  0  0  0
 19 20  2  0  0  0  0
 19 37  1  0  0  0  0
 20 21  1  0  0  0  0
 20 38  1  0  0  0  0
 21 22  2  0  0  0  0
 21 39  1  0  0  0  0
 22 23  1  0  0  0  0
 22 26  1  0  0  0  0
 23 24  1  0  0  0  0
 24 25  2  0  0  0  0
 26 40  1  0  0  0  0
 27 41  1  0  0  0  0
M  END
$$$$
