
 OpenBabel07202414183D

 56 60  0  0  1  0  0  0  0  0999 V2000
    4.1374   -4.2853    2.0295 F   0  0  0  0  0  0  0  0  0  0  0  0
    5.1356   -3.6153    1.4412 C   0  0  0  0  0  0  0  0  0  0  0  0
    5.8006   -2.6226    2.1420 C   0  0  0  0  0  0  0  0  0  0  0  0
    6.7948   -1.8747    1.5040 C   0  0  0  0  0  0  0  0  0  0  0  0
    7.1265   -2.0960    0.1403 C   0  0  0  0  0  0  0  0  0  0  0  0
    7.9935   -1.2811   -0.6342 C   0  0  0  0  0  0  0  0  0  0  0  0
    8.5661   -0.1057   -0.0914 N   0  0  0  0  0  0  0  0  0  0  0  0
    8.7964    1.0531   -0.8312 C   0  0  0  0  0  0  0  0  0  0  0  0
    8.4608    1.2205   -1.9996 O   0  0  0  0  0  0  0  0  0  0  0  0
    9.4699    2.1418   -0.0231 C   0  0  3  0  0  0  0  0  0  0  0  0
    9.2418    3.5238   -0.6584 C   0  0  0  0  0  0  0  0  0  0  0  0
    9.6317    4.5289    0.3327 N   0  0  0  0  0  0  0  0  0  0  0  0
    8.6305    4.7895    1.3784 C   0  0  0  0  0  0  0  0  0  0  0  0
    7.5414    5.8526    1.2011 C   0  0  0  0  0  0  0  0  0  0  0  0
    6.4161    5.6483    1.6537 O   0  0  0  0  0  0  0  0  0  0  0  0
    7.9052    7.0419    0.6456 N   0  0  0  0  0  0  0  0  0  0  0  0
    6.9317    8.1098    0.5751 C   0  0  0  0  0  0  0  0  0  0  0  0
    7.5635    9.3854    0.1182 C   0  0  0  0  0  0  0  0  0  0  0  0
    8.6179   10.0647    0.9531 C   0  0  0  0  0  0  0  0  0  0  0  0
    7.2579   10.6871    0.8202 C   0  0  0  0  0  0  0  0  0  0  0  0
   10.9754    4.4650    0.7520 C   0  0  0  0  0  0  0  0  0  0  0  0
   11.4984    5.3259    1.4586 O   0  0  0  0  0  0  0  0  0  0  0  0
   11.7170    3.1883    0.4198 C   0  0  0  0  0  0  0  0  0  0  0  0
   13.1162    3.1215    0.4781 C   0  0  0  0  0  0  0  0  0  0  0  0
   13.7652    1.8872    0.3362 C   0  0  0  0  0  0  0  0  0  0  0  0
   13.0211    0.7191    0.1897 C   0  0  0  0  0  0  0  0  0  0  0  0
   13.8002   -0.8131    0.1220 Cl  0  0  0  0  0  0  0  0  0  0  0  0
   11.6329    0.7755    0.0971 C   0  0  0  0  0  0  0  0  0  0  0  0
   10.9732    2.0115    0.1548 C   0  0  0  0  0  0  0  0  0  0  0  0
    8.2420   -1.6508   -1.9584 C   0  0  0  0  0  0  0  0  0  0  0  0
    7.7070   -2.7313   -2.5648 N   0  0  0  0  0  0  0  0  0  0  0  0
    6.8260   -3.4472   -1.8395 C   0  0  0  0  0  0  0  0  0  0  0  0
    6.4798   -3.1715   -0.5170 C   0  0  0  0  0  0  0  0  0  0  0  0
    5.4833   -3.9159    0.1333 C   0  0  0  0  0  0  0  0  0  0  0  0
    5.5249   -2.4194    3.1725 H   0  0  0  0  0  0  0  0  0  0  0  0
    7.2845   -1.1012    2.0885 H   0  0  0  0  0  0  0  0  0  0  0  0
    8.6019   -0.0293    0.9168 H   0  0  0  0  0  0  0  0  0  0  0  0
    9.0299    2.1104    0.9820 H   0  0  0  0  0  0  0  0  0  0  0  0
    9.8851    3.6644   -1.5439 H   0  0  0  0  0  0  0  0  0  0  0  0
    8.2133    3.7109   -0.9791 H   0  0  0  0  0  0  0  0  0  0  0  0
    9.1166    4.9632    2.3429 H   0  0  0  0  0  0  0  0  0  0  0  0
    8.0559    3.8613    1.4897 H   0  0  0  0  0  0  0  0  0  0  0  0
    8.8597    7.1913    0.3414 H   0  0  0  0  0  0  0  0  0  0  0  0
    6.4597    8.2289    1.5582 H   0  0  0  0  0  0  0  0  0  0  0  0
    6.1436    7.8096   -0.1269 H   0  0  0  0  0  0  0  0  0  0  0  0
    7.6703    9.4131   -0.9601 H   0  0  0  0  0  0  0  0  0  0  0  0
    9.4476   10.5254    0.4296 H   0  0  0  0  0  0  0  0  0  0  0  0
    8.8823    9.6325    1.9121 H   0  0  0  0  0  0  0  0  0  0  0  0
    7.1661   11.5847    0.2164 H   0  0  0  0  0  0  0  0  0  0  0  0
    6.6177   10.6826    1.6966 H   0  0  0  0  0  0  0  0  0  0  0  0
   13.7058    4.0234    0.6368 H   0  0  0  0  0  0  0  0  0  0  0  0
   14.8506    1.8357    0.3587 H   0  0  0  0  0  0  0  0  0  0  0  0
   11.0884   -0.1578   -0.0188 H   0  0  0  0  0  0  0  0  0  0  0  0
    8.9238   -1.0867   -2.5894 H   0  0  0  0  0  0  0  0  0  0  0  0
    6.3781   -4.2780   -2.3800 H   0  0  0  0  0  0  0  0  0  0  0  0
    4.9451   -4.7078   -0.3805 H   0  0  0  0  0  0  0  0  0  0  0  0
  1  2  1  0  0  0  0
  2  3  1  0  0  0  0
  2 34  2  0  0  0  0
  3  4  2  0  0  0  0
  3 35  1  0  0  0  0
  4  5  1  0  0  0  0
  4 36  1  0  0  0  0
  5  6  1  0  0  0  0
  5 33  2  0  0  0  0
  6  7  1  0  0  0  0
  6 30  2  0  0  0  0
  7  8  1  0  0  0  0
  7 37  1  0  0  0  0
  8  9  2  0  0  0  0
  8 10  1  0  0  0  0
 10 11  1  0  0  0  0
 10 29  1  0  0  0  0
 10 38  1  0  0  0  0
 11 12  1  0  0  0  0
 11 39  1  0  0  0  0
 11 40  1  0  0  0  0
 12 13  1  0  0  0  0
 12 21  1  0  0  0  0
 13 14  1  0  0  0  0
 13 41  1  0  0  0  0
 13 42  1  0  0  0  0
 14 15  2  0  0  0  0
 14 16  1  0  0  0  0
 16 17  1  0  0  0  0
 16 43  1  0  0  0  0
 17 18  1  0  0  0  0
 17 44  1  0  0  0  0
 17 45  1  0  0  0  0
 18 19  1  0  0  0  0
 18 20  1  0  0  0  0
 18 46  1  0  0  0  0
 19 20  1  0  0  0  0
 19 47  1  0  0  0  0
 19 48  1  0  0  0  0
 20 49  1  0  0  0  0
 20 50  1  0  0  0  0
 21 22  2  0  0  0  0
 21 23  1  0  0  0  0
 23 24  1  0  0  0  0
 23 29  2  0  0  0  0
 24 25  2  0  0  0  0
 24 51  1  0  0  0  0
 25 26  1  0  0  0  0
 25 52  1  0  0  0  0
 26 27  1  0  0  0  0
 26 28  2  0  0  0  0
 28 29  1  0  0  0  0
 28 53  1  0  0  0  0
 30 31  1  0  0  0  0
 30 54  1  0  0  0  0
 31 32  2  0  0  0  0
 32 33  1  0  0  0  0
 32 55  1  0  0  0  0
 33 34  1  0  0  0  0
 34 56  1  0  0  0  0
M  END
$$$$
