
 OpenBabel07202414193D

 49 51  0  0  0  0  0  0  0  0999 V2000
    3.5425   -0.3673    1.4122 N   0  0  0  0  0  0  0  0  0  0  0  0
    2.6828   -0.0483   -0.0031 S   0  0  0  0  0  0  0  0  0  0  0  0
    3.1112   -1.0423   -0.9630 O   0  0  0  0  0  0  0  0  0  0  0  0
    1.3083    0.0829    0.4176 O   0  0  0  0  0  0  0  0  0  0  0  0
    3.3121    1.5244   -0.4861 C   0  0  0  0  0  0  0  0  0  0  0  0
    4.6883    1.6446   -0.7073 C   0  0  0  0  0  0  0  0  0  0  0  0
    5.2085    2.8629   -1.1194 C   0  0  0  0  0  0  0  0  0  0  0  0
    4.3525    3.9541   -1.2840 C   0  0  0  0  0  0  0  0  0  0  0  0
    2.9719    3.8617   -1.0238 C   0  0  0  0  0  0  0  0  0  0  0  0
    2.4463    2.6218   -0.6443 C   0  0  0  0  0  0  0  0  0  0  0  0
    2.1300    5.1162   -1.2409 C   0  0  0  0  0  0  0  0  0  0  0  0
    2.7684    6.3484   -0.7084 N   0  0  0  0  0  0  0  0  0  0  0  0
    2.0885    7.5866   -1.1472 C   0  0  0  0  0  0  0  0  0  0  0  0
    2.7369    8.9175   -0.6529 C   0  0  0  0  0  0  0  0  0  0  0  0
    2.8021    9.0667    0.8715 C   0  0  0  0  0  0  0  0  0  0  0  0
    1.5415    9.6252    1.5245 C   0  0  0  0  0  0  0  0  0  0  0  0
    0.9144   10.7279    0.7964 N   0  0  0  0  0  0  0  0  0  0  0  0
   -0.0124   11.6019    1.3977 C   0  0  0  0  0  0  0  0  0  0  0  0
   -0.6480   12.4173    0.7274 O   0  0  0  0  0  0  0  0  0  0  0  0
   -0.1965   11.4583    2.9042 C   0  0  0  0  0  0  0  0  0  0  0  0
   -1.3981   12.6008    3.5418 Cl  0  0  0  0  0  0  0  0  0  0  0  0
    0.8134   10.5863   -0.6523 C   0  0  0  0  0  0  0  0  0  0  0  0
    2.1235   10.1684   -1.2879 C   0  0  0  0  0  0  0  0  0  0  0  0
    4.2348    6.3711   -0.8778 C   0  0  0  0  0  0  0  0  0  0  0  0
    4.8582    5.2808   -1.7464 C   0  0  0  0  0  0  0  0  0  0  0  0
    4.0237   -1.2642    1.3292 H   0  0  0  0  0  0  0  0  0  0  0  0
    2.9214   -0.3073    2.2199 H   0  0  0  0  0  0  0  0  0  0  0  0
    5.3521    0.7953   -0.5648 H   0  0  0  0  0  0  0  0  0  0  0  0
    6.2755    2.9660   -1.2982 H   0  0  0  0  0  0  0  0  0  0  0  0
    1.3785    2.5058   -0.4736 H   0  0  0  0  0  0  0  0  0  0  0  0
    1.1532    4.9852   -0.7590 H   0  0  0  0  0  0  0  0  0  0  0  0
    1.9523    5.2070   -2.3217 H   0  0  0  0  0  0  0  0  0  0  0  0
    1.0460    7.5540   -0.8054 H   0  0  0  0  0  0  0  0  0  0  0  0
    2.0610    7.6068   -2.2448 H   0  0  0  0  0  0  0  0  0  0  0  0
    3.7688    8.9439   -1.0105 H   0  0  0  0  0  0  0  0  0  0  0  0
    3.6294    9.7539    1.0956 H   0  0  0  0  0  0  0  0  0  0  0  0
    3.0685    8.1196    1.3545 H   0  0  0  0  0  0  0  0  0  0  0  0
    1.8208    9.9730    2.5247 H   0  0  0  0  0  0  0  0  0  0  0  0
    0.7864    8.8431    1.6510 H   0  0  0  0  0  0  0  0  0  0  0  0
    0.7440   11.6530    3.4231 H   0  0  0  0  0  0  0  0  0  0  0  0
   -0.5595   10.4516    3.1285 H   0  0  0  0  0  0  0  0  0  0  0  0
    0.4941   11.5312   -1.1062 H   0  0  0  0  0  0  0  0  0  0  0  0
    0.0284    9.8493   -0.8547 H   0  0  0  0  0  0  0  0  0  0  0  0
    2.8411   10.9927   -1.1689 H   0  0  0  0  0  0  0  0  0  0  0  0
    1.9936   10.0283   -2.3671 H   0  0  0  0  0  0  0  0  0  0  0  0
    4.6525    6.2926    0.1349 H   0  0  0  0  0  0  0  0  0  0  0  0
    4.6156    7.3042   -1.2888 H   0  0  0  0  0  0  0  0  0  0  0  0
    5.9491    5.3383   -1.6671 H   0  0  0  0  0  0  0  0  0  0  0  0
    4.5917    5.4269   -2.8008 H   0  0  0  0  0  0  0  0  0  0  0  0
  1  2  1  0  0  0  0
  1 26  1  0  0  0  0
  1 27  1  0  0  0  0
  2  3  2  0  0  0  0
  2  4  2  0  0  0  0
  2  5  1  0  0  0  0
  5  6  1  0  0  0  0
  5 10  2  0  0  0  0
  6  7  2  0  0  0  0
  6 28  1  0  0  0  0
  7  8  1  0  0  0  0
  7 29  1  0  0  0  0
  8  9  2  0  0  0  0
  8 25  1  0  0  0  0
  9 10  1  0  0  0  0
  9 11  1  0  0  0  0
 10 30  1  0  0  0  0
 11 12  1  0  0  0  0
 11 31  1  0  0  0  0
 11 32  1  0  0  0  0
 12 13  1  0  0  0  0
 12 24  1  0  0  0  0
 13 14  1  0  0  0  0
 13 33  1  0  0  0  0
 13 34  1  0  0  0  0
 14 15  1  0  0  0  0
 14 23  1  0  0  0  0
 14 35  1  0  0  0  0
 15 16  1  0  0  0  0
 15 36  1  0  0  0  0
 15 37  1  0  0  0  0
 16 17  1  0  0  0  0
 16 38  1  0  0  0  0
 16 39  1  0  0  0  0
 17 18  1  0  0  0  0
 17 22  1  0  0  0  0
 18 19  2  0  0  0  0
 18 20  1  0  0  0  0
 20 21  1  0  0  0  0
 20 40  1  0  0  0  0
 20 41  1  0  0  0  0
 22 23  1  0  0  0  0
 22 42  1  0  0  0  0
 22 43  1  0  0  0  0
 23 44  1  0  0  0  0
 23 45  1  0  0  0  0
 24 25  1  0  0  0  0
 24 46  1  0  0  0  0
 24 47  1  0  0  0  0
 25 48  1  0  0  0  0
 25 49  1  0  0  0  0
M  END
$$$$
