
 OpenBabel07202414193D

 47 50  0  0  0  0  0  0  0  0999 V2000
    1.3116    0.9847   -0.2823 O   0  0  0  0  0  0  0  0  0  0  0  0
    2.1798    0.1263   -0.1020 C   0  0  0  0  0  0  0  0  0  0  0  0
    2.6418   -0.1818    1.3169 C   0  0  0  0  0  0  0  0  0  0  0  0
    1.9387   -1.3635    1.9501 C   0  0  0  0  0  0  0  0  0  0  0  0
    0.6099   -1.6386    1.6074 C   0  0  0  0  0  0  0  0  0  0  0  0
   -0.1273   -2.6431    2.1217 N   0  0  0  0  0  0  0  0  0  0  0  0
    0.4726   -3.4101    3.0521 C   0  0  0  0  0  0  0  0  0  0  0  0
    1.7760   -3.2322    3.5054 C   0  0  0  0  0  0  0  0  0  0  0  0
    2.3185   -4.0697    4.4950 C   0  0  0  0  0  0  0  0  0  0  0  0
    3.6189   -3.8816    4.9511 C   0  0  0  0  0  0  0  0  0  0  0  0
    4.3884   -2.8512    4.4246 C   0  0  0  0  0  0  0  0  0  0  0  0
    3.8571   -2.0095    3.4411 C   0  0  0  0  0  0  0  0  0  0  0  0
    2.5411   -2.1773    2.9488 C   0  0  0  0  0  0  0  0  0  0  0  0
    2.7093   -0.6172   -1.1548 N   0  0  0  0  0  0  0  0  0  0  0  0
    2.3256   -0.2265   -2.5097 C   0  0  0  0  0  0  0  0  0  0  0  0
    2.2934   -1.4064   -3.4758 C   0  0  0  0  0  0  0  0  0  0  0  0
    3.5763   -2.2522   -3.4316 C   0  0  0  0  0  0  0  0  0  0  0  0
    3.2887   -3.4069   -4.1229 F   0  0  0  0  0  0  0  0  0  0  0  0
    4.8272   -1.6146   -4.0435 C   0  0  0  0  0  0  0  0  0  0  0  0
    4.8294   -0.3717   -4.6958 C   0  0  0  0  0  0  0  0  0  0  0  0
    6.0082    0.1814   -5.2038 C   0  0  0  0  0  0  0  0  0  0  0  0
    7.2088   -0.5146   -5.1009 C   0  0  0  0  0  0  0  0  0  0  0  0
    7.2249   -1.7708   -4.5093 C   0  0  0  0  0  0  0  0  0  0  0  0
    6.0478   -2.3186   -3.9968 C   0  0  0  0  0  0  0  0  0  0  0  0
    3.7917   -2.6774   -1.9688 C   0  0  0  0  0  0  0  0  0  0  0  0
    3.8847   -1.4809   -1.0371 C   0  0  0  0  0  0  0  0  0  0  0  0
    2.4432    0.7066    1.9301 H   0  0  0  0  0  0  0  0  0  0  0  0
    3.7292   -0.2894    1.3055 H   0  0  0  0  0  0  0  0  0  0  0  0
    0.0678   -1.0337    0.8837 H   0  0  0  0  0  0  0  0  0  0  0  0
   -0.1584   -4.2033    3.4468 H   0  0  0  0  0  0  0  0  0  0  0  0
    1.7229   -4.8751    4.9199 H   0  0  0  0  0  0  0  0  0  0  0  0
    4.0267   -4.5337    5.7184 H   0  0  0  0  0  0  0  0  0  0  0  0
    5.4038   -2.6971    4.7818 H   0  0  0  0  0  0  0  0  0  0  0  0
    4.4978   -1.2130    3.0722 H   0  0  0  0  0  0  0  0  0  0  0  0
    3.0321    0.5474   -2.8268 H   0  0  0  0  0  0  0  0  0  0  0  0
    1.3369    0.2451   -2.5055 H   0  0  0  0  0  0  0  0  0  0  0  0
    2.0733   -1.0704   -4.4949 H   0  0  0  0  0  0  0  0  0  0  0  0
    1.4485   -2.0535   -3.2012 H   0  0  0  0  0  0  0  0  0  0  0  0
    3.9176    0.2021   -4.8373 H   0  0  0  0  0  0  0  0  0  0  0  0
    5.9853    1.1545   -5.6893 H   0  0  0  0  0  0  0  0  0  0  0  0
    8.1237   -0.0853   -5.4992 H   0  0  0  0  0  0  0  0  0  0  0  0
    8.1553   -2.3343   -4.4506 H   0  0  0  0  0  0  0  0  0  0  0  0
    6.0886   -3.3194   -3.5683 H   0  0  0  0  0  0  0  0  0  0  0  0
    4.6751   -3.3136   -1.8500 H   0  0  0  0  0  0  0  0  0  0  0  0
    2.9451   -3.3060   -1.6579 H   0  0  0  0  0  0  0  0  0  0  0  0
    4.7697   -0.8699   -1.2511 H   0  0  0  0  0  0  0  0  0  0  0  0
    3.9932   -1.8574   -0.0187 H   0  0  0  0  0  0  0  0  0  0  0  0
  1  2  2  0  0  0  0
  2  3  1  0  0  0  0
  2 14  1  0  0  0  0
  3  4  1  0  0  0  0
  3 27  1  0  0  0  0
  3 28  1  0  0  0  0
  4  5  1  0  0  0  0
  4 13  2  0  0  0  0
  5  6  2  0  0  0  0
  5 29  1  0  0  0  0
  6  7  1  0  0  0  0
  7  8  2  0  0  0  0
  7 30  1  0  0  0  0
  8  9  1  0  0  0  0
  8 13  1  0  0  0  0
  9 10  2  0  0  0  0
  9 31  1  0  0  0  0
 10 11  1  0  0  0  0
 10 32  1  0  0  0  0
 11 12  2  0  0  0  0
 11 33  1  0  0  0  0
 12 13  1  0  0  0  0
 12 34  1  0  0  0  0
 14 15  1  0  0  0  0
 14 26  1  0  0  0  0
 15 16  1  0  0  0  0
 15 35  1  0  0  0  0
 15 36  1  0  0  0  0
 16 17  1  0  0  0  0
 16 37  1  0  0  0  0
 16 38  1  0  0  0  0
 17 18  1  0  0  0  0
 17 19  1  0  0  0  0
 17 25  1  0  0  0  0
 19 20  1  0  0  0  0
 19 24  2  0  0  0  0
 20 21  2  0  0  0  0
 20 39  1  0  0  0  0
 21 22  1  0  0  0  0
 21 40  1  0  0  0  0
 22 23  2  0  0  0  0
 22 41  1  0  0  0  0
 23 24  1  0  0  0  0
 23 42  1  0  0  0  0
 24 43  1  0  0  0  0
 25 26  1  0  0  0  0
 25 44  1  0  0  0  0
 25 45  1  0  0  0  0
 26 46  1  0  0  0  0
 26 47  1  0  0  0  0
M  END
$$$$
