
 OpenBabel07202414163D

 31 32  0  0  0  0  0  0  0  0999 V2000
    1.7106    2.3624   -0.2737 C   0  0  0  0  0  0  0  0  0  0  0  0
    0.8254    1.1521   -0.3808 C   0  0  0  0  0  0  0  0  0  0  0  0
    1.4498   -0.0839   -0.6370 C   0  0  0  0  0  0  0  0  0  0  0  0
    0.6831   -1.2317   -0.7397 C   0  0  0  0  0  0  0  0  0  0  0  0
   -0.6473   -1.2439   -0.5842 N   0  0  0  0  0  0  0  0  0  0  0  0
   -1.2384   -0.0475   -0.3377 C   0  0  0  0  0  0  0  0  0  0  0  0
   -0.5759    1.1833   -0.2395 C   0  0  0  0  0  0  0  0  0  0  0  0
   -1.2697    2.4099   -0.0205 N   0  0  0  0  0  0  0  0  0  0  0  0
   -2.6466    2.5647   -0.1064 C   0  0  0  0  0  0  0  0  0  0  0  0
   -3.4407    1.6650   -0.3590 O   0  0  0  0  0  0  0  0  0  0  0  0
   -3.0547    3.8823    0.0621 N   0  0  0  0  0  0  0  0  0  0  0  0
   -4.4341    4.2111   -0.0135 C   0  0  0  0  0  0  0  0  0  0  0  0
   -4.8323    5.2712   -0.8296 C   0  0  0  0  0  0  0  0  0  0  0  0
   -6.1908    5.5647   -0.9875 C   0  0  0  0  0  0  0  0  0  0  0  0
   -7.1532    4.8369   -0.2866 C   0  0  0  0  0  0  0  0  0  0  0  0
   -6.7629    3.7953    0.5643 C   0  0  0  0  0  0  0  0  0  0  0  0
   -5.3987    3.4800    0.6861 C   0  0  0  0  0  0  0  0  0  0  0  0
   -7.7525    3.0650    1.2991 C   0  0  0  0  0  0  0  0  0  0  0  0
   -8.5646    2.4939    1.9034 N   0  0  0  0  0  0  0  0  0  0  0  0
    2.7309    2.1347   -0.6081 H   0  0  0  0  0  0  0  0  0  0  0  0
    1.7739    2.6976    0.7657 H   0  0  0  0  0  0  0  0  0  0  0  0
    1.3468    3.1757   -0.9077 H   0  0  0  0  0  0  0  0  0  0  0  0
    2.5248   -0.1600   -0.7679 H   0  0  0  0  0  0  0  0  0  0  0  0
    1.1320   -2.1966   -0.9550 H   0  0  0  0  0  0  0  0  0  0  0  0
   -2.3079   -0.1494   -0.1955 H   0  0  0  0  0  0  0  0  0  0  0  0
   -0.7170    3.2286    0.1811 H   0  0  0  0  0  0  0  0  0  0  0  0
   -2.4184    4.5683   -0.3143 H   0  0  0  0  0  0  0  0  0  0  0  0
   -4.1047    5.8292   -1.4090 H   0  0  0  0  0  0  0  0  0  0  0  0
   -6.4994    6.3530   -1.6698 H   0  0  0  0  0  0  0  0  0  0  0  0
   -8.2074    5.0805   -0.4134 H   0  0  0  0  0  0  0  0  0  0  0  0
   -5.1052    2.6568    1.3380 H   0  0  0  0  0  0  0  0  0  0  0  0
  1  2  1  0  0  0  0
  1 20  1  0  0  0  0
  1 21  1  0  0  0  0
  1 22  1  0  0  0  0
  2  3  1  0  0  0  0
  2  7  2  0  0  0  0
  3  4  2  0  0  0  0
  3 23  1  0  0  0  0
  4  5  1  0  0  0  0
  4 24  1  0  0  0  0
  5  6  2  0  0  0  0
  6  7  1  0  0  0  0
  6 25  1  0  0  0  0
  7  8  1  0  0  0  0
  8  9  1  0  0  0  0
  8 26  1  0  0  0  0
  9 10  2  0  0  0  0
  9 11  1  0  0  0  0
 11 12  1  0  0  0  0
 11 27  1  0  0  0  0
 12 13  1  0  0  0  0
 12 17  2  0  0  0  0
 13 14  2  0  0  0  0
 13 28  1  0  0  0  0
 14 15  1  0  0  0  0
 14 29  1  0  0  0  0
 15 16  2  0  0  0  0
 15 30  1  0  0  0  0
 16 17  1  0  0  0  0
 16 18  1  0  0  0  0
 17 31  1  0  0  0  0
 18 19  3  0  0  0  0
M  END
$$$$
