
 OpenBabel07202414203D

 30 31  0  0  1  0  0  0  0  0999 V2000
    0.3240    0.8633   -2.5932 C   0  0  0  0  0  0  0  0  0  0  0  0
    0.7193    1.4446   -1.3853 C   0  0  0  0  0  0  0  0  0  0  0  0
    1.9935    2.0174   -1.2440 C   0  0  0  0  0  0  0  0  0  0  0  0
    2.8805    1.9541   -2.3292 C   0  0  0  0  0  0  0  0  0  0  0  0
    2.4762    1.3783   -3.5386 C   0  0  0  0  0  0  0  0  0  0  0  0
    1.1997    0.8397   -3.6769 C   0  0  0  0  0  0  0  0  0  0  0  0
    3.5624    1.3474   -4.8741 Cl  0  0  0  0  0  0  0  0  0  0  0  0
    2.4115    2.6464    0.0662 C   0  0  0  0  0  0  0  0  0  0  0  0
    1.4923    3.7668    0.5308 C   0  0  0  0  0  0  0  0  0  0  0  0
    0.4752    3.5472    1.1884 O   0  0  0  0  0  0  0  0  0  0  0  0
    1.8637    5.0520    0.1768 N   0  0  0  0  0  0  0  0  0  0  0  0
    0.9646    6.1716    0.4865 C   0  0  3  0  0  0  0  0  0  0  0  0
    1.4929    7.5125   -0.0410 C   0  0  0  0  0  0  0  0  0  0  0  0
    1.9309    8.2653    1.1877 C   0  0  0  0  0  0  0  0  0  0  0  0
    2.4669    9.3597    1.2030 O   0  0  0  0  0  0  0  0  0  0  0  0
    1.5783    7.5492    2.3028 N   0  0  0  0  0  0  0  0  0  0  0  0
    0.7576    6.4177    1.9925 C   0  0  0  0  0  0  0  0  0  0  0  0
   -0.6689    0.4292   -2.6858 H   0  0  0  0  0  0  0  0  0  0  0  0
    0.0217    1.4445   -0.5473 H   0  0  0  0  0  0  0  0  0  0  0  0
    3.8914    2.3441   -2.2391 H   0  0  0  0  0  0  0  0  0  0  0  0
    0.8840    0.3971   -4.6186 H   0  0  0  0  0  0  0  0  0  0  0  0
    3.4409    3.0196    0.0165 H   0  0  0  0  0  0  0  0  0  0  0  0
    2.4066    1.8732    0.8453 H   0  0  0  0  0  0  0  0  0  0  0  0
    2.4359    5.1264   -0.6588 H   0  0  0  0  0  0  0  0  0  0  0  0
    0.0067    5.9256    0.0154 H   0  0  0  0  0  0  0  0  0  0  0  0
    0.6886    8.0836   -0.5142 H   0  0  0  0  0  0  0  0  0  0  0  0
    2.3337    7.4061   -0.7306 H   0  0  0  0  0  0  0  0  0  0  0  0
    1.6627    7.9734    3.2184 H   0  0  0  0  0  0  0  0  0  0  0  0
   -0.2765    6.7112    2.2008 H   0  0  0  0  0  0  0  0  0  0  0  0
    1.0381    5.5882    2.6447 H   0  0  0  0  0  0  0  0  0  0  0  0
  1  2  1  0  0  0  0
  1  6  2  0  0  0  0
  1 18  1  0  0  0  0
  2  3  2  0  0  0  0
  2 19  1  0  0  0  0
  3  4  1  0  0  0  0
  3  8  1  0  0  0  0
  4  5  2  0  0  0  0
  4 20  1  0  0  0  0
  5  6  1  0  0  0  0
  5  7  1  0  0  0  0
  6 21  1  0  0  0  0
  8  9  1  0  0  0  0
  8 22  1  0  0  0  0
  8 23  1  0  0  0  0
  9 10  2  0  0  0  0
  9 11  1  0  0  0  0
 11 12  1  0  0  0  0
 11 24  1  0  0  0  0
 12 13  1  0  0  0  0
 12 17  1  0  0  0  0
 12 25  1  0  0  0  0
 13 14  1  0  0  0  0
 13 26  1  0  0  0  0
 13 27  1  0  0  0  0
 14 15  2  0  0  0  0
 14 16  1  0  0  0  0
 16 17  1  0  0  0  0
 16 28  1  0  0  0  0
 17 29  1  0  0  0  0
 17 30  1  0  0  0  0
M  END
$$$$
