
 OpenBabel07202414203D

 40 43  0  0  1  0  0  0  0  0999 V2000
    1.1549   -0.1079   -0.1534 O   0  0  0  0  0  0  0  0  0  0  0  0
    2.5293   -0.0853   -0.1708 C   0  0  0  0  0  0  0  0  0  0  0  0
    3.2001    1.1191   -0.1187 C   0  0  0  0  0  0  0  0  0  0  0  0
    4.5967    1.0999   -0.1455 C   0  0  0  0  0  0  0  0  0  0  0  0
    5.4668    2.5880   -0.0608 Cl  0  0  0  0  0  0  0  0  0  0  0  0
    5.3068   -0.1009   -0.2186 C   0  0  0  0  0  0  0  0  0  0  0  0
    4.6184   -1.3202   -0.2575 C   0  0  0  0  0  0  0  0  0  0  0  0
    3.2090   -1.3068   -0.2322 C   0  0  0  0  0  0  0  0  0  0  0  0
    2.4629   -2.4540   -0.2400 O   0  0  0  0  0  0  0  0  0  0  0  0
    3.1416   -3.6759   -0.5264 C   0  0  0  0  0  0  0  0  0  0  0  0
    4.4879   -3.7676    0.1659 C   0  0  0  0  0  0  0  0  0  0  0  0
    5.3877   -2.6253   -0.2964 C   0  0  3  0  0  0  0  0  0  0  0  0
    6.0498   -2.9784   -1.6403 C   0  0  0  0  0  0  0  0  0  0  0  0
    7.0532   -3.6886   -1.6523 O   0  0  0  0  0  0  0  0  0  0  0  0
    5.4339   -2.4748   -2.7626 N   0  0  0  0  0  0  0  0  0  0  0  0
    5.7796   -2.6915   -4.1206 C   0  0  0  0  0  0  0  0  0  0  0  0
    5.6954   -1.5528   -4.9325 C   0  0  0  0  0  0  0  0  0  0  0  0
    5.7917   -1.5389   -6.2769 N   0  0  0  0  0  0  0  0  0  0  0  0
    5.8981   -2.7497   -6.8524 C   0  0  0  0  0  0  0  0  0  0  0  0
    5.9957   -3.9567   -6.1601 C   0  0  0  0  0  0  0  0  0  0  0  0
    6.0528   -5.1558   -6.8826 C   0  0  0  0  0  0  0  0  0  0  0  0
    6.5451   -6.3059   -6.2863 C   0  0  0  0  0  0  0  0  0  0  0  0
    6.7367   -6.3204   -4.9145 C   0  0  0  0  0  0  0  0  0  0  0  0
    6.3791   -5.2006   -4.1462 C   0  0  0  0  0  0  0  0  0  0  0  0
    6.0624   -3.9464   -4.7476 C   0  0  0  0  0  0  0  0  0  0  0  0
    0.8164    0.7978   -0.0733 H   0  0  0  0  0  0  0  0  0  0  0  0
    2.6742    2.0599   -0.0561 H   0  0  0  0  0  0  0  0  0  0  0  0
    6.3966   -0.0917   -0.2138 H   0  0  0  0  0  0  0  0  0  0  0  0
    3.2236   -3.7921   -1.6122 H   0  0  0  0  0  0  0  0  0  0  0  0
    2.4950   -4.4875   -0.1723 H   0  0  0  0  0  0  0  0  0  0  0  0
    4.9484   -4.7420   -0.0240 H   0  0  0  0  0  0  0  0  0  0  0  0
    4.3360   -3.6762    1.2503 H   0  0  0  0  0  0  0  0  0  0  0  0
    6.2159   -2.5374    0.4213 H   0  0  0  0  0  0  0  0  0  0  0  0
    4.8545   -1.6569   -2.6097 H   0  0  0  0  0  0  0  0  0  0  0  0
    5.5706   -0.5638   -4.4994 H   0  0  0  0  0  0  0  0  0  0  0  0
    5.9738   -2.7242   -7.9370 H   0  0  0  0  0  0  0  0  0  0  0  0
    5.7209   -5.1910   -7.9179 H   0  0  0  0  0  0  0  0  0  0  0  0
    6.7793   -7.1748   -6.8945 H   0  0  0  0  0  0  0  0  0  0  0  0
    7.1409   -7.2095   -4.4352 H   0  0  0  0  0  0  0  0  0  0  0  0
    6.4249   -5.3138   -3.0688 H   0  0  0  0  0  0  0  0  0  0  0  0
  1  2  1  0  0  0  0
  1 26  1  0  0  0  0
  2  3  1  0  0  0  0
  2  8  2  0  0  0  0
  3  4  2  0  0  0  0
  3 27  1  0  0  0  0
  4  5  1  0  0  0  0
  4  6  1  0  0  0  0
  6  7  2  0  0  0  0
  6 28  1  0  0  0  0
  7  8  1  0  0  0  0
  7 12  1  0  0  0  0
  8  9  1  0  0  0  0
  9 10  1  0  0  0  0
 10 11  1  0  0  0  0
 10 29  1  0  0  0  0
 10 30  1  0  0  0  0
 11 12  1  0  0  0  0
 11 31  1  0  0  0  0
 11 32  1  0  0  0  0
 12 13  1  0  0  0  0
 12 33  1  0  0  0  0
 13 14  2  0  0  0  0
 13 15  1  0  0  0  0
 15 16  1  0  0  0  0
 15 34  1  0  0  0  0
 16 17  1  0  0  0  0
 16 25  2  0  0  0  0
 17 18  2  0  0  0  0
 17 35  1  0  0  0  0
 18 19  1  0  0  0  0
 19 20  2  0  0  0  0
 19 36  1  0  0  0  0
 20 21  1  0  0  0  0
 20 25  1  0  0  0  0
 21 22  2  0  0  0  0
 21 37  1  0  0  0  0
 22 23  1  0  0  0  0
 22 38  1  0  0  0  0
 23 24  2  0  0  0  0
 23 39  1  0  0  0  0
 24 25  1  0  0  0  0
 24 40  1  0  0  0  0
M  END
$$$$
