
 OpenBabel07202414193D

 51 55  0  0  1  0  0  0  0  0999 V2000
    1.1150    0.3139    0.1538 O   0  0  0  0  0  0  0  0  0  0  0  0
    2.3014    0.0892   -0.0823 C   0  0  0  0  0  0  0  0  0  0  0  0
    2.9943   -1.1643    0.4440 C   0  0  0  0  0  0  0  0  0  0  0  0
    2.5584   -2.4572   -0.2082 C   0  0  0  0  0  0  0  0  0  0  0  0
    1.2293   -2.8528   -0.0367 C   0  0  0  0  0  0  0  0  0  0  0  0
    0.7197   -4.0179   -0.4812 N   0  0  0  0  0  0  0  0  0  0  0  0
    1.5603   -4.8308   -1.1344 C   0  0  0  0  0  0  0  0  0  0  0  0
    2.9111   -4.5588   -1.3811 C   0  0  0  0  0  0  0  0  0  0  0  0
    3.7228   -5.4893   -2.0574 C   0  0  0  0  0  0  0  0  0  0  0  0
    5.0666   -5.2106   -2.3038 C   0  0  0  0  0  0  0  0  0  0  0  0
    5.6006   -4.0017   -1.8790 C   0  0  0  0  0  0  0  0  0  0  0  0
    4.7997   -3.0794   -1.1968 C   0  0  0  0  0  0  0  0  0  0  0  0
    3.4320   -3.3336   -0.9182 C   0  0  0  0  0  0  0  0  0  0  0  0
    3.1005    0.9712   -0.7839 N   0  0  0  0  0  0  0  0  0  0  0  0
    2.6420    2.2810   -1.2101 C   0  0  0  0  0  0  0  0  0  0  0  0
    3.1828    2.4149   -2.6229 C   0  0  0  0  0  0  0  0  0  0  0  0
    4.5060    1.6286   -2.6008 C   0  0  1  0  0  0  0  0  0  0  0  0
    5.7508    2.4788   -2.3210 C   0  0  0  0  0  0  0  0  0  0  0  0
    6.0555    3.5357   -3.3847 C   0  0  0  0  0  0  0  0  0  0  0  0
    6.0938    4.9026   -3.0714 C   0  0  0  0  0  0  0  0  0  0  0  0
    6.5437    5.8450   -3.9961 C   0  0  0  0  0  0  0  0  0  0  0  0
    6.9234    5.4409   -5.2725 C   0  0  0  0  0  0  0  0  0  0  0  0
    6.8234    4.1012   -5.6343 C   0  0  0  0  0  0  0  0  0  0  0  0
    6.3946    3.1608   -4.6983 C   0  0  0  0  0  0  0  0  0  0  0  0
    7.0160    1.7785   -1.8065 C   0  0  0  0  0  0  0  0  0  0  0  0
    6.2552    2.6918   -0.8956 C   0  0  0  0  0  0  0  0  0  0  0  0
    4.2187    0.5223   -1.5888 C   0  0  0  0  0  0  0  0  0  0  0  0
    2.7771   -1.2211    1.5178 H   0  0  0  0  0  0  0  0  0  0  0  0
    4.0781   -1.0456    0.4146 H   0  0  0  0  0  0  0  0  0  0  0  0
    0.5181   -2.2261    0.5017 H   0  0  0  0  0  0  0  0  0  0  0  0
    1.1094   -5.7616   -1.4699 H   0  0  0  0  0  0  0  0  0  0  0  0
    3.3155   -6.4398   -2.3940 H   0  0  0  0  0  0  0  0  0  0  0  0
    5.6895   -5.9372   -2.8160 H   0  0  0  0  0  0  0  0  0  0  0  0
    6.6466   -3.7751   -2.0730 H   0  0  0  0  0  0  0  0  0  0  0  0
    5.2750   -2.1550   -0.8906 H   0  0  0  0  0  0  0  0  0  0  0  0
    3.0996    3.0273   -0.5498 H   0  0  0  0  0  0  0  0  0  0  0  0
    1.5548    2.3851   -1.1555 H   0  0  0  0  0  0  0  0  0  0  0  0
    3.2659    3.4546   -2.9442 H   0  0  0  0  0  0  0  0  0  0  0  0
    2.4863    1.9089   -3.3051 H   0  0  0  0  0  0  0  0  0  0  0  0
    4.6574    1.1562   -3.5796 H   0  0  0  0  0  0  0  0  0  0  0  0
    5.8103    5.2355   -2.0760 H   0  0  0  0  0  0  0  0  0  0  0  0
    6.6169    6.8893   -3.7071 H   0  0  0  0  0  0  0  0  0  0  0  0
    7.3003    6.1700   -5.9835 H   0  0  0  0  0  0  0  0  0  0  0  0
    7.1017    3.7824   -6.6351 H   0  0  0  0  0  0  0  0  0  0  0  0
    6.3522    2.1126   -4.9889 H   0  0  0  0  0  0  0  0  0  0  0  0
    7.9846    2.1244   -2.1595 H   0  0  0  0  0  0  0  0  0  0  0  0
    7.0116    0.7142   -1.6122 H   0  0  0  0  0  0  0  0  0  0  0  0
    6.7355    3.6280   -0.6295 H   0  0  0  0  0  0  0  0  0  0  0  0
    5.7243    2.2565   -0.0579 H   0  0  0  0  0  0  0  0  0  0  0  0
    5.0494    0.2759   -0.9280 H   0  0  0  0  0  0  0  0  0  0  0  0
    3.9111   -0.3880   -2.1102 H   0  0  0  0  0  0  0  0  0  0  0  0
  1  2  2  0  0  0  0
  2  3  1  0  0  0  0
  2 14  1  0  0  0  0
  3  4  1  0  0  0  0
  3 28  1  0  0  0  0
  3 29  1  0  0  0  0
  4  5  1  0  0  0  0
  4 13  2  0  0  0  0
  5  6  2  0  0  0  0
  5 30  1  0  0  0  0
  6  7  1  0  0  0  0
  7  8  2  0  0  0  0
  7 31  1  0  0  0  0
  8  9  1  0  0  0  0
  8 13  1  0  0  0  0
  9 10  2  0  0  0  0
  9 32  1  0  0  0  0
 10 11  1  0  0  0  0
 10 33  1  0  0  0  0
 11 12  2  0  0  0  0
 11 34  1  0  0  0  0
 12 13  1  0  0  0  0
 12 35  1  0  0  0  0
 14 15  1  0  0  0  0
 14 27  1  0  0  0  0
 15 16  1  0  0  0  0
 15 36  1  0  0  0  0
 15 37  1  0  0  0  0
 16 17  1  0  0  0  0
 16 38  1  0  0  0  0
 16 39  1  0  0  0  0
 17 18  1  0  0  0  0
 17 27  1  0  0  0  0
 17 40  1  6  0  0  0
 18 19  1  0  0  0  0
 18 25  1  0  0  0  0
 18 26  1  0  0  0  0
 19 20  1  0  0  0  0
 19 24  2  0  0  0  0
 20 21  2  0  0  0  0
 20 41  1  0  0  0  0
 21 22  1  0  0  0  0
 21 42  1  0  0  0  0
 22 23  2  0  0  0  0
 22 43  1  0  0  0  0
 23 24  1  0  0  0  0
 23 44  1  0  0  0  0
 24 45  1  0  0  0  0
 25 26  1  0  0  0  0
 25 46  1  0  0  0  0
 25 47  1  0  0  0  0
 26 48  1  0  0  0  0
 26 49  1  0  0  0  0
 27 50  1  0  0  0  0
 27 51  1  0  0  0  0
M  END
$$$$
