
 OpenBabel07202414123D

 41 42  0  0  0  0  0  0  0  0999 V2000
    3.8530   -0.2359   -1.2476 C   0  0  0  0  0  0  0  0  0  0  0  0
    2.9401    0.7480   -0.4865 C   0  0  0  0  0  0  0  0  0  0  0  0
    2.8330    2.1166   -1.1891 C   0  0  0  0  0  0  0  0  0  0  0  0
    1.5212    0.1369   -0.5348 C   0  0  0  0  0  0  0  0  0  0  0  0
    3.2611    0.8763    0.9332 O   0  0  0  0  0  0  0  0  0  0  0  0
    4.5707    0.9637    1.3571 C   0  0  0  0  0  0  0  0  0  0  0  0
    5.5832    1.5235    0.5720 C   0  0  0  0  0  0  0  0  0  0  0  0
    6.8900    1.4985    1.0110 C   0  0  0  0  0  0  0  0  0  0  0  0
    7.2601    1.0145    2.2000 N   0  0  0  0  0  0  0  0  0  0  0  0
    6.2691    0.5319    2.9863 C   0  0  0  0  0  0  0  0  0  0  0  0
    4.9155    0.4776    2.6347 C   0  0  0  0  0  0  0  0  0  0  0  0
    3.9283   -0.0162    3.5426 N   0  0  0  0  0  0  0  0  0  0  0  0
    4.2080   -0.7125    4.7154 C   0  0  0  0  0  0  0  0  0  0  0  0
    5.3059   -1.1802    5.0118 O   0  0  0  0  0  0  0  0  0  0  0  0
    3.0492   -0.8676    5.6896 C   0  0  0  0  0  0  0  0  0  0  0  0
    2.9609    0.2801    6.6705 C   0  0  0  0  0  0  0  0  0  0  0  0
    4.0200    0.5686    7.5490 C   0  0  0  0  0  0  0  0  0  0  0  0
    3.9565    1.6712    8.4046 C   0  0  0  0  0  0  0  0  0  0  0  0
    2.8294    2.4907    8.4049 C   0  0  0  0  0  0  0  0  0  0  0  0
    1.7591    2.1875    7.5663 C   0  0  0  0  0  0  0  0  0  0  0  0
    0.3601    3.1890    7.5682 Cl  0  0  0  0  0  0  0  0  0  0  0  0
    1.8158    1.0864    6.7096 C   0  0  0  0  0  0  0  0  0  0  0  0
    3.4226   -0.5178   -2.2158 H   0  0  0  0  0  0  0  0  0  0  0  0
    4.0151   -1.1468   -0.6619 H   0  0  0  0  0  0  0  0  0  0  0  0
    4.8365    0.1812   -1.4746 H   0  0  0  0  0  0  0  0  0  0  0  0
    2.5152    2.0000   -2.2320 H   0  0  0  0  0  0  0  0  0  0  0  0
    3.7643    2.6815   -1.2042 H   0  0  0  0  0  0  0  0  0  0  0  0
    2.1058    2.7603   -0.6803 H   0  0  0  0  0  0  0  0  0  0  0  0
    1.2276   -0.1145   -1.5646 H   0  0  0  0  0  0  0  0  0  0  0  0
    0.7737    0.8345   -0.1425 H   0  0  0  0  0  0  0  0  0  0  0  0
    1.4620   -0.7706    0.0719 H   0  0  0  0  0  0  0  0  0  0  0  0
    5.4046    1.9672   -0.3948 H   0  0  0  0  0  0  0  0  0  0  0  0
    7.6958    1.8748    0.3857 H   0  0  0  0  0  0  0  0  0  0  0  0
    6.6329    0.2192    3.9564 H   0  0  0  0  0  0  0  0  0  0  0  0
    2.9633    0.1462    3.2725 H   0  0  0  0  0  0  0  0  0  0  0  0
    3.2014   -1.8009    6.2521 H   0  0  0  0  0  0  0  0  0  0  0  0
    2.1150   -0.9969    5.1356 H   0  0  0  0  0  0  0  0  0  0  0  0
    4.9134   -0.0563    7.5620 H   0  0  0  0  0  0  0  0  0  0  0  0
    4.7935    1.8978    9.0637 H   0  0  0  0  0  0  0  0  0  0  0  0
    2.7910    3.3599    9.0563 H   0  0  0  0  0  0  0  0  0  0  0  0
    0.9681    0.8653    6.0669 H   0  0  0  0  0  0  0  0  0  0  0  0
  1  2  1  0  0  0  0
  1 23  1  0  0  0  0
  1 24  1  0  0  0  0
  1 25  1  0  0  0  0
  2  3  1  0  0  0  0
  2  4  1  0  0  0  0
  2  5  1  0  0  0  0
  3 26  1  0  0  0  0
  3 27  1  0  0  0  0
  3 28  1  0  0  0  0
  4 29  1  0  0  0  0
  4 30  1  0  0  0  0
  4 31  1  0  0  0  0
  5  6  1  0  0  0  0
  6  7  1  0  0  0  0
  6 11  2  0  0  0  0
  7  8  2  0  0  0  0
  7 32  1  0  0  0  0
  8  9  1  0  0  0  0
  8 33  1  0  0  0  0
  9 10  2  0  0  0  0
 10 11  1  0  0  0  0
 10 34  1  0  0  0  0
 11 12  1  0  0  0  0
 12 13  1  0  0  0  0
 12 35  1  0  0  0  0
 13 14  2  0  0  0  0
 13 15  1  0  0  0  0
 15 16  1  0  0  0  0
 15 36  1  0  0  0  0
 15 37  1  0  0  0  0
 16 17  1  0  0  0  0
 16 22  2  0  0  0  0
 17 18  2  0  0  0  0
 17 38  1  0  0  0  0
 18 19  1  0  0  0  0
 18 39  1  0  0  0  0
 19 20  2  0  0  0  0
 19 40  1  0  0  0  0
 20 21  1  0  0  0  0
 20 22  1  0  0  0  0
 22 41  1  0  0  0  0
M  END
$$$$
