
 OpenBabel07202414163D

 30 31  0  0  0  0  0  0  0  0999 V2000
    1.7227    2.3902   -0.1650 C   0  0  0  0  0  0  0  0  0  0  0  0
    0.8581    1.1764   -0.3619 C   0  0  0  0  0  0  0  0  0  0  0  0
    1.5048   -0.0437   -0.6367 C   0  0  0  0  0  0  0  0  0  0  0  0
    0.7501   -1.1931   -0.8164 C   0  0  0  0  0  0  0  0  0  0  0  0
   -0.5836   -1.2186   -0.7215 N   0  0  0  0  0  0  0  0  0  0  0  0
   -1.1959   -0.0386   -0.4596 C   0  0  0  0  0  0  0  0  0  0  0  0
   -0.5499    1.1932   -0.2796 C   0  0  0  0  0  0  0  0  0  0  0  0
   -1.2562    2.4067   -0.0460 N   0  0  0  0  0  0  0  0  0  0  0  0
   -2.6303    2.5600   -0.1643 C   0  0  0  0  0  0  0  0  0  0  0  0
   -3.4130    1.6591   -0.4429 O   0  0  0  0  0  0  0  0  0  0  0  0
   -3.0403    3.8767    0.0022 N   0  0  0  0  0  0  0  0  0  0  0  0
   -4.4145    4.2165   -0.1117 C   0  0  0  0  0  0  0  0  0  0  0  0
   -4.7687    5.3243   -0.8875 C   0  0  0  0  0  0  0  0  0  0  0  0
   -6.1162    5.6302   -1.1022 C   0  0  0  0  0  0  0  0  0  0  0  0
   -7.1140    4.8655   -0.4988 C   0  0  0  0  0  0  0  0  0  0  0  0
   -6.7607    3.7894    0.3124 C   0  0  0  0  0  0  0  0  0  0  0  0
   -5.4194    3.4566    0.5020 C   0  0  0  0  0  0  0  0  0  0  0  0
   -7.9948    2.8673    1.0819 Cl  0  0  0  0  0  0  0  0  0  0  0  0
    2.7526    2.1963   -0.4896 H   0  0  0  0  0  0  0  0  0  0  0  0
    1.7550    2.6647    0.8935 H   0  0  0  0  0  0  0  0  0  0  0  0
    1.3610    3.2345   -0.7586 H   0  0  0  0  0  0  0  0  0  0  0  0
    2.5848   -0.1059   -0.7158 H   0  0  0  0  0  0  0  0  0  0  0  0
    1.2224   -2.1432   -1.0422 H   0  0  0  0  0  0  0  0  0  0  0  0
   -2.2710   -0.1521   -0.3777 H   0  0  0  0  0  0  0  0  0  0  0  0
   -0.7156    3.2214    0.2009 H   0  0  0  0  0  0  0  0  0  0  0  0
   -2.3840    4.5694   -0.3263 H   0  0  0  0  0  0  0  0  0  0  0  0
   -4.0106    5.9170   -1.3899 H   0  0  0  0  0  0  0  0  0  0  0  0
   -6.3889    6.4556   -1.7559 H   0  0  0  0  0  0  0  0  0  0  0  0
   -8.1602    5.1069   -0.6687 H   0  0  0  0  0  0  0  0  0  0  0  0
   -5.1649    2.6017    1.1241 H   0  0  0  0  0  0  0  0  0  0  0  0
  1  2  1  0  0  0  0
  1 19  1  0  0  0  0
  1 20  1  0  0  0  0
  1 21  1  0  0  0  0
  2  3  1  0  0  0  0
  2  7  2  0  0  0  0
  3  4  2  0  0  0  0
  3 22  1  0  0  0  0
  4  5  1  0  0  0  0
  4 23  1  0  0  0  0
  5  6  2  0  0  0  0
  6  7  1  0  0  0  0
  6 24  1  0  0  0  0
  7  8  1  0  0  0  0
  8  9  1  0  0  0  0
  8 25  1  0  0  0  0
  9 10  2  0  0  0  0
  9 11  1  0  0  0  0
 11 12  1  0  0  0  0
 11 26  1  0  0  0  0
 12 13  1  0  0  0  0
 12 17  2  0  0  0  0
 13 14  2  0  0  0  0
 13 27  1  0  0  0  0
 14 15  1  0  0  0  0
 14 28  1  0  0  0  0
 15 16  2  0  0  0  0
 15 29  1  0  0  0  0
 16 17  1  0  0  0  0
 16 18  1  0  0  0  0
 17 30  1  0  0  0  0
M  END
$$$$
