
 OpenBabel07202414123D

 64 66  0  0  1  0  0  0  0  0999 V2000
    3.8192    1.0852   -9.7685 C   0  0  0  0  0  0  0  0  0  0  0  0
    2.9603   -0.1842   -9.5594 C   0  0  0  0  0  0  0  0  0  0  0  0
    1.4854    0.2328   -9.7446 C   0  0  0  0  0  0  0  0  0  0  0  0
    3.3401   -1.1749  -10.6835 C   0  0  0  0  0  0  0  0  0  0  0  0
    3.1729   -0.8584   -8.1895 C   0  0  0  0  0  0  0  0  0  0  0  0
    4.1244   -0.4174   -7.2613 C   0  0  0  0  0  0  0  0  0  0  0  0
    4.3761   -1.1150   -6.0621 C   0  0  0  0  0  0  0  0  0  0  0  0
    3.6788   -2.2779   -5.7111 C   0  0  0  0  0  0  0  0  0  0  0  0
    2.6610   -2.6618   -6.6014 C   0  0  0  0  0  0  0  0  0  0  0  0
    2.4305   -1.9866   -7.8169 C   0  0  0  0  0  0  0  0  0  0  0  0
    4.0337   -3.0850   -4.5323 N   0  0  0  0  0  0  0  0  0  0  0  0
    3.7347   -4.5552   -4.6378 C   0  0  1  0  0  0  0  0  0  0  0  0
    4.9532   -5.4869   -4.6936 C   0  0  0  0  0  0  0  0  0  0  0  0
    6.2749   -5.0250   -4.8075 C   0  0  0  0  0  0  0  0  0  0  0  0
    7.3356   -5.9217   -4.9117 C   0  0  0  0  0  0  0  0  0  0  0  0
    7.0478   -7.2707   -4.9603 C   0  0  0  0  0  0  0  0  0  0  0  0
    5.7954   -7.7635   -4.9053 N   0  0  0  0  0  0  0  0  0  0  0  0
    4.7842   -6.8702   -4.7825 C   0  0  0  0  0  0  0  0  0  0  0  0
    2.5275   -5.0485   -3.7639 C   0  0  0  0  0  0  0  0  0  0  0  0
    1.8813   -6.0467   -4.0940 O   0  0  0  0  0  0  0  0  0  0  0  0
    2.2411   -4.4012   -2.5790 N   0  0  0  0  0  0  0  0  0  0  0  0
    1.1115   -4.8047   -1.7451 C   0  0  0  0  0  0  0  0  0  0  0  0
    0.9710   -3.9313   -0.4949 C   0  0  0  0  0  0  0  0  0  0  0  0
   -0.1919   -4.3400    0.3838 C   0  0  0  0  0  0  0  0  0  0  0  0
   -1.4656   -3.7811    0.1916 C   0  0  0  0  0  0  0  0  0  0  0  0
   -2.5377   -4.1543    1.0096 C   0  0  0  0  0  0  0  0  0  0  0  0
   -2.3500   -5.0896    2.0254 C   0  0  0  0  0  0  0  0  0  0  0  0
   -1.0902   -5.6434    2.2142 C   0  0  0  0  0  0  0  0  0  0  0  0
   -0.0138   -5.2805    1.4072 C   0  0  0  0  0  0  0  0  0  0  0  0
   -0.9058   -6.5422    3.1920 F   0  0  0  0  0  0  0  0  0  0  0  0
    4.7235   -2.5007   -3.4511 C   0  0  0  0  0  0  0  0  0  0  0  0
    4.9394   -1.2946   -3.3299 O   0  0  0  0  0  0  0  0  0  0  0  0
    5.1891   -3.3853   -2.3278 C   0  0  0  0  0  0  0  0  0  0  0  0
    5.8858   -2.8832   -1.2982 C   0  0  0  0  0  0  0  0  0  0  0  0
    3.6351    1.5322  -10.7524 H   0  0  0  0  0  0  0  0  0  0  0  0
    4.8919    0.8640   -9.7127 H   0  0  0  0  0  0  0  0  0  0  0  0
    3.5930    1.8473   -9.0205 H   0  0  0  0  0  0  0  0  0  0  0  0
    1.3322    0.7054  -10.7225 H   0  0  0  0  0  0  0  0  0  0  0  0
    1.1779    0.9530   -8.9802 H   0  0  0  0  0  0  0  0  0  0  0  0
    0.7987   -0.6234   -9.6931 H   0  0  0  0  0  0  0  0  0  0  0  0
    3.1818   -0.7288  -11.6730 H   0  0  0  0  0  0  0  0  0  0  0  0
    2.7436   -2.0930  -10.6453 H   0  0  0  0  0  0  0  0  0  0  0  0
    4.3959   -1.4635  -10.6177 H   0  0  0  0  0  0  0  0  0  0  0  0
    4.7248    0.4690   -7.4498 H   0  0  0  0  0  0  0  0  0  0  0  0
    5.1809   -0.7223   -5.4478 H   0  0  0  0  0  0  0  0  0  0  0  0
    1.9978   -3.5003   -6.3949 H   0  0  0  0  0  0  0  0  0  0  0  0
    1.6587   -2.3789   -8.4781 H   0  0  0  0  0  0  0  0  0  0  0  0
    3.3568   -4.7245   -5.6510 H   0  0  0  0  0  0  0  0  0  0  0  0
    6.5101   -3.9637   -4.8240 H   0  0  0  0  0  0  0  0  0  0  0  0
    8.3599   -5.5701   -4.9692 H   0  0  0  0  0  0  0  0  0  0  0  0
    7.8364   -8.0102   -5.0622 H   0  0  0  0  0  0  0  0  0  0  0  0
    3.7997   -7.3333   -4.7917 H   0  0  0  0  0  0  0  0  0  0  0  0
    2.7608   -3.5835   -2.2983 H   0  0  0  0  0  0  0  0  0  0  0  0
    1.2546   -5.8567   -1.4700 H   0  0  0  0  0  0  0  0  0  0  0  0
    0.2040   -4.7507   -2.3591 H   0  0  0  0  0  0  0  0  0  0  0  0
    0.8517   -2.8795   -0.7865 H   0  0  0  0  0  0  0  0  0  0  0  0
    1.8994   -3.9662    0.0900 H   0  0  0  0  0  0  0  0  0  0  0  0
   -1.6291   -3.0462   -0.5930 H   0  0  0  0  0  0  0  0  0  0  0  0
   -3.5190   -3.7137    0.8504 H   0  0  0  0  0  0  0  0  0  0  0  0
   -3.1724   -5.3895    2.6679 H   0  0  0  0  0  0  0  0  0  0  0  0
    0.9539   -5.7356    1.5950 H   0  0  0  0  0  0  0  0  0  0  0  0
    4.9734   -4.4432   -2.3224 H   0  0  0  0  0  0  0  0  0  0  0  0
    6.1468   -1.8297   -1.2384 H   0  0  0  0  0  0  0  0  0  0  0  0
    6.2210   -3.5245   -0.4889 H   0  0  0  0  0  0  0  0  0  0  0  0
  1  2  1  0  0  0  0
  1 35  1  0  0  0  0
  1 36  1  0  0  0  0
  1 37  1  0  0  0  0
  2  3  1  0  0  0  0
  2  4  1  0  0  0  0
  2  5  1  0  0  0  0
  3 38  1  0  0  0  0
  3 39  1  0  0  0  0
  3 40  1  0  0  0  0
  4 41  1  0  0  0  0
  4 42  1  0  0  0  0
  4 43  1  0  0  0  0
  5  6  1  0  0  0  0
  5 10  2  0  0  0  0
  6  7  2  0  0  0  0
  6 44  1  0  0  0  0
  7  8  1  0  0  0  0
  7 45  1  0  0  0  0
  8  9  2  0  0  0  0
  8 11  1  0  0  0  0
  9 10  1  0  0  0  0
  9 46  1  0  0  0  0
 10 47  1  0  0  0  0
 11 12  1  0  0  0  0
 11 31  1  0  0  0  0
 12 13  1  0  0  0  0
 12 19  1  0  0  0  0
 12 48  1  6  0  0  0
 13 14  1  0  0  0  0
 13 18  2  0  0  0  0
 14 15  2  0  0  0  0
 14 49  1  0  0  0  0
 15 16  1  0  0  0  0
 15 50  1  0  0  0  0
 16 17  2  0  0  0  0
 16 51  1  0  0  0  0
 17 18  1  0  0  0  0
 18 52  1  0  0  0  0
 19 20  2  0  0  0  0
 19 21  1  0  0  0  0
 21 22  1  0  0  0  0
 21 53  1  0  0  0  0
 22 23  1  0  0  0  0
 22 54  1  0  0  0  0
 22 55  1  0  0  0  0
 23 24  1  0  0  0  0
 23 56  1  0  0  0  0
 23 57  1  0  0  0  0
 24 25  1  0  0  0  0
 24 29  2  0  0  0  0
 25 26  2  0  0  0  0
 25 58  1  0  0  0  0
 26 27  1  0  0  0  0
 26 59  1  0  0  0  0
 27 28  2  0  0  0  0
 27 60  1  0  0  0  0
 28 29  1  0  0  0  0
 28 30  1  0  0  0  0
 29 61  1  0  0  0  0
 31 32  2  0  0  0  0
 31 33  1  0  0  0  0
 33 34  2  0  0  0  0
 33 62  1  0  0  0  0
 34 63  1  0  0  0  0
 34 64  1  0  0  0  0
M  END
$$$$
