
 OpenBabel07202414123D

 59 63  0  0  1  0  0  0  0  0999 V2000
    4.4304   -1.8740    0.7508 C   0  0  0  0  0  0  0  0  0  0  0  0
    3.1358   -1.6159   -0.0223 C   0  0  0  0  0  0  0  0  0  0  0  0
    3.4346   -1.5017   -1.5360 C   0  0  0  0  0  0  0  0  0  0  0  0
    4.5511   -0.1397   -1.9292 S   0  0  0  0  0  0  0  0  0  0  0  0
    3.9290    1.0902   -1.5101 O   0  0  0  0  0  0  0  0  0  0  0  0
    5.8992   -0.4798   -1.5199 O   0  0  0  0  0  0  0  0  0  0  0  0
    4.5576   -0.1520   -3.6521 N   0  0  0  0  0  0  0  0  0  0  0  0
    5.2652   -1.3464   -4.2384 C   0  0  0  0  0  0  0  0  0  0  0  0
    5.1450   -1.3853   -5.7682 C   0  0  3  0  0  0  0  0  0  0  0  0
    3.7655   -1.8597   -6.2914 C   0  0  0  0  0  0  0  0  0  0  0  0
    3.6749   -2.4278   -7.3622 O   0  0  0  0  0  0  0  0  0  0  0  0
    2.6984   -1.5517   -5.4578 N   0  0  0  0  0  0  0  0  0  0  0  0
    1.3234   -1.8446   -5.7156 C   0  0  0  0  0  0  0  0  0  0  0  0
    0.9239   -2.8330   -6.6105 C   0  0  0  0  0  0  0  0  0  0  0  0
   -0.3097   -2.8701   -7.1591 N   0  0  0  0  0  0  0  0  0  0  0  0
   -1.1618   -1.9386   -6.7179 C   0  0  0  0  0  0  0  0  0  0  0  0
   -1.0067   -1.1984   -5.5534 C   0  0  0  0  0  0  0  0  0  0  0  0
   -2.0840   -0.5647   -4.9087 C   0  0  0  0  0  0  0  0  0  0  0  0
   -1.8705    0.2640   -3.8187 C   0  0  0  0  0  0  0  0  0  0  0  0
   -0.5635    0.5137   -3.4055 C   0  0  0  0  0  0  0  0  0  0  0  0
    0.5016   -0.1499   -4.0163 C   0  0  0  0  0  0  0  0  0  0  0  0
    0.3091   -1.0713   -5.0799 C   0  0  0  0  0  0  0  0  0  0  0  0
    5.6004   -0.0707   -6.3700 C   0  0  0  0  0  0  0  0  0  0  0  0
    6.1184   -0.0329   -7.6744 C   0  0  0  0  0  0  0  0  0  0  0  0
    6.4965    1.1826   -8.2486 C   0  0  0  0  0  0  0  0  0  0  0  0
    7.1043    1.2173   -9.8561 Cl  0  0  0  0  0  0  0  0  0  0  0  0
    6.3763    2.3690   -7.5315 C   0  0  0  0  0  0  0  0  0  0  0  0
    5.9140    2.3367   -6.2180 C   0  0  0  0  0  0  0  0  0  0  0  0
    5.5316    1.1200   -5.6243 C   0  0  0  0  0  0  0  0  0  0  0  0
    5.1698    1.1286   -4.1563 C   0  0  0  0  0  0  0  0  0  0  0  0
    2.2853   -0.4818    0.6361 C   0  0  0  0  0  0  0  0  0  0  0  0
    0.8586   -1.5017    0.7645 S   0  0  0  0  0  0  0  0  0  0  0  0
    0.3958   -1.6305    2.1319 O   0  0  0  0  0  0  0  0  0  0  0  0
   -0.0565   -1.2762   -0.3792 O   0  0  0  0  0  0  0  0  0  0  0  0
    2.0746   -2.7094    0.3591 C   0  0  0  0  0  0  0  0  0  0  0  0
    5.1642   -1.0888    0.5887 H   0  0  0  0  0  0  0  0  0  0  0  0
    4.8756   -2.8318    0.4582 H   0  0  0  0  0  0  0  0  0  0  0  0
    4.2570   -1.8953    1.8402 H   0  0  0  0  0  0  0  0  0  0  0  0
    2.5181   -1.3297   -2.1125 H   0  0  0  0  0  0  0  0  0  0  0  0
    3.9206   -2.4129   -1.8876 H   0  0  0  0  0  0  0  0  0  0  0  0
    4.8402   -2.2625   -3.8228 H   0  0  0  0  0  0  0  0  0  0  0  0
    6.3268   -1.3062   -3.9612 H   0  0  0  0  0  0  0  0  0  0  0  0
    5.8443   -2.1690   -6.0929 H   0  0  0  0  0  0  0  0  0  0  0  0
    2.8742   -0.8059   -4.8054 H   0  0  0  0  0  0  0  0  0  0  0  0
    1.5839   -3.6182   -6.9668 H   0  0  0  0  0  0  0  0  0  0  0  0
   -1.9242   -1.6354   -7.4434 H   0  0  0  0  0  0  0  0  0  0  0  0
   -3.1131   -0.7680   -5.2232 H   0  0  0  0  0  0  0  0  0  0  0  0
   -2.7034    0.7230   -3.2934 H   0  0  0  0  0  0  0  0  0  0  0  0
   -0.3781    1.2055   -2.5898 H   0  0  0  0  0  0  0  0  0  0  0  0
    1.4946    0.0723   -3.6375 H   0  0  0  0  0  0  0  0  0  0  0  0
    6.2312   -0.9530   -8.2467 H   0  0  0  0  0  0  0  0  0  0  0  0
    6.6524    3.3192   -7.9827 H   0  0  0  0  0  0  0  0  0  0  0  0
    5.8639    3.2653   -5.6506 H   0  0  0  0  0  0  0  0  0  0  0  0
    4.4513    1.9376   -3.9825 H   0  0  0  0  0  0  0  0  0  0  0  0
    6.0944    1.3476   -3.6059 H   0  0  0  0  0  0  0  0  0  0  0  0
    2.1172    0.4214    0.0532 H   0  0  0  0  0  0  0  0  0  0  0  0
    2.6240   -0.1811    1.6393 H   0  0  0  0  0  0  0  0  0  0  0  0
    1.7702   -3.4030   -0.4210 H   0  0  0  0  0  0  0  0  0  0  0  0
    2.3219   -3.2964    1.2581 H   0  0  0  0  0  0  0  0  0  0  0  0
  1  2  1  0  0  0  0
  1 36  1  0  0  0  0
  1 37  1  0  0  0  0
  1 38  1  0  0  0  0
  2  3  1  0  0  0  0
  2 31  1  0  0  0  0
  2 35  1  0  0  0  0
  3  4  1  0  0  0  0
  3 39  1  0  0  0  0
  3 40  1  0  0  0  0
  4  5  2  0  0  0  0
  4  6  2  0  0  0  0
  4  7  1  0  0  0  0
  7  8  1  0  0  0  0
  7 30  1  0  0  0  0
  8  9  1  0  0  0  0
  8 41  1  0  0  0  0
  8 42  1  0  0  0  0
  9 10  1  0  0  0  0
  9 23  1  0  0  0  0
  9 43  1  0  0  0  0
 10 11  2  0  0  0  0
 10 12  1  0  0  0  0
 12 13  1  0  0  0  0
 12 44  1  0  0  0  0
 13 14  1  0  0  0  0
 13 22  2  0  0  0  0
 14 15  2  0  0  0  0
 14 45  1  0  0  0  0
 15 16  1  0  0  0  0
 16 17  2  0  0  0  0
 16 46  1  0  0  0  0
 17 18  1  0  0  0  0
 17 22  1  0  0  0  0
 18 19  2  0  0  0  0
 18 47  1  0  0  0  0
 19 20  1  0  0  0  0
 19 48  1  0  0  0  0
 20 21  2  0  0  0  0
 20 49  1  0  0  0  0
 21 22  1  0  0  0  0
 21 50  1  0  0  0  0
 23 24  1  0  0  0  0
 23 29  2  0  0  0  0
 24 25  2  0  0  0  0
 24 51  1  0  0  0  0
 25 26  1  0  0  0  0
 25 27  1  0  0  0  0
 27 28  2  0  0  0  0
 27 52  1  0  0  0  0
 28 29  1  0  0  0  0
 28 53  1  0  0  0  0
 29 30  1  0  0  0  0
 30 54  1  0  0  0  0
 30 55  1  0  0  0  0
 31 32  1  0  0  0  0
 31 56  1  0  0  0  0
 31 57  1  0  0  0  0
 32 33  2  0  0  0  0
 32 34  2  0  0  0  0
 32 35  1  0  0  0  0
 35 58  1  0  0  0  0
 35 59  1  0  0  0  0
M  END
$$$$
