
 OpenBabel07202414143D

 53 57  0  0  1  0  0  0  0  0999 V2000
    1.2673    2.1070    1.7894 C   0  0  0  0  0  0  0  0  0  0  0  0
    2.6213    2.1322    1.3279 N   0  0  0  0  0  0  0  0  0  0  0  0
    3.1093    1.2302    0.4119 C   0  0  0  0  0  0  0  0  0  0  0  0
    2.4490    0.2770   -0.0126 O   0  0  0  0  0  0  0  0  0  0  0  0
    4.5863    1.4171    0.0584 C   0  0  0  0  0  0  0  0  0  0  0  0
    5.0038    2.8157    0.2313 N   0  0  0  0  0  0  0  0  0  0  0  0
    4.9169    3.6804   -0.9291 C   0  0  0  0  0  0  0  0  0  0  0  0
    4.8354    5.1922   -0.6592 C   0  0  3  0  0  0  0  0  0  0  0  0
    5.4333    5.8923   -1.8947 C   0  0  0  0  0  0  0  0  0  0  0  0
    4.3941    6.8570   -2.4056 C   0  0  0  0  0  0  0  0  0  0  0  0
    3.2316    6.7465   -1.5571 N   0  0  0  0  0  0  0  0  0  0  0  0
    2.3833    7.9078   -1.4006 C   0  0  0  0  0  0  0  0  0  0  0  0
    1.8774    8.2413   -0.1451 C   0  0  0  0  0  0  0  0  0  0  0  0
    1.4982    9.4908    0.2181 N   0  0  0  0  0  0  0  0  0  0  0  0
    1.5376   10.4432   -0.7364 C   0  0  0  0  0  0  0  0  0  0  0  0
    1.8007   10.1943   -2.0782 C   0  0  0  0  0  0  0  0  0  0  0  0
    1.6419   11.2088   -3.0488 C   0  0  0  0  0  0  0  0  0  0  0  0
    1.8587   10.9445   -4.3962 C   0  0  0  0  0  0  0  0  0  0  0  0
    2.2315    9.6685   -4.7733 C   0  0  0  0  0  0  0  0  0  0  0  0
    2.4297    9.3927   -6.0678 F   0  0  0  0  0  0  0  0  0  0  0  0
    2.3983    8.6602   -3.8253 C   0  0  0  0  0  0  0  0  0  0  0  0
    2.2144    8.8859   -2.4382 C   0  0  0  0  0  0  0  0  0  0  0  0
    3.3853    5.7179   -0.6080 C   0  0  0  0  0  0  0  0  0  0  0  0
    2.5568    5.3390    0.2061 O   0  0  0  0  0  0  0  0  0  0  0  0
    5.5736    5.5855    0.6187 C   0  0  0  0  0  0  0  0  0  0  0  0
    5.7742    6.9444    0.9414 C   0  0  0  0  0  0  0  0  0  0  0  0
    6.4438    7.3165    2.1081 C   0  0  0  0  0  0  0  0  0  0  0  0
    6.6779    8.9833    2.4576 Cl  0  0  0  0  0  0  0  0  0  0  0  0
    6.9204    6.3497    2.9840 C   0  0  0  0  0  0  0  0  0  0  0  0
    6.7104    5.0015    2.6966 C   0  0  0  0  0  0  0  0  0  0  0  0
    6.0325    4.6151    1.5279 C   0  0  0  0  0  0  0  0  0  0  0  0
    5.7438    3.1669    1.3447 C   0  0  0  0  0  0  0  0  0  0  0  0
    6.1022    2.3605    2.1971 O   0  0  0  0  0  0  0  0  0  0  0  0
    1.1448    2.8773    2.5538 H   0  0  0  0  0  0  0  0  0  0  0  0
    1.0494    1.1212    2.2116 H   0  0  0  0  0  0  0  0  0  0  0  0
    0.5961    2.3024    0.9475 H   0  0  0  0  0  0  0  0  0  0  0  0
    3.1806    2.9620    1.5074 H   0  0  0  0  0  0  0  0  0  0  0  0
    4.7532    1.1235   -0.9844 H   0  0  0  0  0  0  0  0  0  0  0  0
    5.1707    0.7504    0.7028 H   0  0  0  0  0  0  0  0  0  0  0  0
    4.0811    3.3546   -1.5597 H   0  0  0  0  0  0  0  0  0  0  0  0
    5.8430    3.4561   -1.4788 H   0  0  0  0  0  0  0  0  0  0  0  0
    5.6628    5.1900   -2.7058 H   0  0  0  0  0  0  0  0  0  0  0  0
    6.3782    6.4080   -1.6878 H   0  0  0  0  0  0  0  0  0  0  0  0
    4.1216    6.5669   -3.4221 H   0  0  0  0  0  0  0  0  0  0  0  0
    4.7914    7.8768   -2.3954 H   0  0  0  0  0  0  0  0  0  0  0  0
    1.8204    7.5287    0.6727 H   0  0  0  0  0  0  0  0  0  0  0  0
    1.3236   11.4493   -0.3783 H   0  0  0  0  0  0  0  0  0  0  0  0
    1.3136   12.2057   -2.7565 H   0  0  0  0  0  0  0  0  0  0  0  0
    1.6954   11.7089   -5.1526 H   0  0  0  0  0  0  0  0  0  0  0  0
    2.6194    7.6721   -4.2126 H   0  0  0  0  0  0  0  0  0  0  0  0
    5.3965    7.7312    0.2912 H   0  0  0  0  0  0  0  0  0  0  0  0
    7.4359    6.6336    3.8975 H   0  0  0  0  0  0  0  0  0  0  0  0
    7.0584    4.2491    3.4034 H   0  0  0  0  0  0  0  0  0  0  0  0
  1  2  1  0  0  0  0
  1 34  1  0  0  0  0
  1 35  1  0  0  0  0
  1 36  1  0  0  0  0
  2  3  1  0  0  0  0
  2 37  1  0  0  0  0
  3  4  2  0  0  0  0
  3  5  1  0  0  0  0
  5  6  1  0  0  0  0
  5 38  1  0  0  0  0
  5 39  1  0  0  0  0
  6  7  1  0  0  0  0
  6 32  1  0  0  0  0
  7  8  1  0  0  0  0
  7 40  1  0  0  0  0
  7 41  1  0  0  0  0
  8  9  1  0  0  0  0
  8 23  1  0  0  0  0
  8 25  1  0  0  0  0
  9 10  1  0  0  0  0
  9 42  1  0  0  0  0
  9 43  1  0  0  0  0
 10 11  1  0  0  0  0
 10 44  1  0  0  0  0
 10 45  1  0  0  0  0
 11 12  1  0  0  0  0
 11 23  1  0  0  0  0
 12 13  1  0  0  0  0
 12 22  2  0  0  0  0
 13 14  2  0  0  0  0
 13 46  1  0  0  0  0
 14 15  1  0  0  0  0
 15 16  2  0  0  0  0
 15 47  1  0  0  0  0
 16 17  1  0  0  0  0
 16 22  1  0  0  0  0
 17 18  2  0  0  0  0
 17 48  1  0  0  0  0
 18 19  1  0  0  0  0
 18 49  1  0  0  0  0
 19 20  1  0  0  0  0
 19 21  2  0  0  0  0
 21 22  1  0  0  0  0
 21 50  1  0  0  0  0
 23 24  2  0  0  0  0
 25 26  1  0  0  0  0
 25 31  2  0  0  0  0
 26 27  2  0  0  0  0
 26 51  1  0  0  0  0
 27 28  1  0  0  0  0
 27 29  1  0  0  0  0
 29 30  2  0  0  0  0
 29 52  1  0  0  0  0
 30 31  1  0  0  0  0
 30 53  1  0  0  0  0
 31 32  1  0  0  0  0
 32 33  2  0  0  0  0
M  END
$$$$
