
 OpenBabel07202414193D

 47 51  0  0  0  0  0  0  0  0999 V2000
    1.2708   -0.0936   -0.0031 N   0  0  0  0  0  0  0  0  0  0  0  0
    2.4279   -0.0542   -0.0611 C   0  0  0  0  0  0  0  0  0  0  0  0
    3.8613   -0.0001   -0.1258 C   0  0  0  0  0  0  0  0  0  0  0  0
    4.5390    1.2076    0.1089 C   0  0  0  0  0  0  0  0  0  0  0  0
    5.9355    1.2617    0.0690 C   0  0  0  0  0  0  0  0  0  0  0  0
    6.6775    0.1006   -0.1812 C   0  0  0  0  0  0  0  0  0  0  0  0
    5.9935   -1.1043   -0.3844 C   0  0  0  0  0  0  0  0  0  0  0  0
    4.5989   -1.1563   -0.3942 C   0  0  0  0  0  0  0  0  0  0  0  0
    6.6785   -2.2509   -0.7076 O   0  0  0  0  0  0  0  0  0  0  0  0
    7.4121   -2.8297    0.3008 C   0  0  0  0  0  0  0  0  0  0  0  0
    7.2847   -4.2202    0.3989 C   0  0  0  0  0  0  0  0  0  0  0  0
    6.4633   -4.8775   -0.4343 F   0  0  0  0  0  0  0  0  0  0  0  0
    7.9789   -4.9455    1.3593 C   0  0  0  0  0  0  0  0  0  0  0  0
    8.8261   -4.2803    2.2365 C   0  0  0  0  0  0  0  0  0  0  0  0
    8.9755   -2.8964    2.1372 C   0  0  0  0  0  0  0  0  0  0  0  0
    8.2857   -2.1487    1.1597 C   0  0  0  0  0  0  0  0  0  0  0  0
    8.5287   -0.6589    1.1588 C   0  0  0  0  0  0  0  0  0  0  0  0
    8.0869    0.0720   -0.0274 N   0  0  0  0  0  0  0  0  0  0  0  0
    9.0041    0.9080   -0.6827 C   0  0  0  0  0  0  0  0  0  0  0  0
   10.1551    1.0449   -0.2692 O   0  0  0  0  0  0  0  0  0  0  0  0
    8.5003    1.5840   -1.9486 C   0  0  0  0  0  0  0  0  0  0  0  0
    9.4311    2.3551   -2.8714 C   0  0  0  0  0  0  0  0  0  0  0  0
   10.8215    2.2713   -2.8286 C   0  0  0  0  0  0  0  0  0  0  0  0
   11.6506    2.7917   -3.7643 N   0  0  0  0  0  0  0  0  0  0  0  0
   11.0818    3.5120   -4.7511 C   0  0  0  0  0  0  0  0  0  0  0  0
    9.7256    3.8143   -4.8149 C   0  0  0  0  0  0  0  0  0  0  0  0
    9.2186    4.7408   -5.7448 C   0  0  0  0  0  0  0  0  0  0  0  0
    7.8618    5.0545   -5.7641 C   0  0  0  0  0  0  0  0  0  0  0  0
    6.9890    4.3760   -4.9256 C   0  0  0  0  0  0  0  0  0  0  0  0
    7.4821    3.4322   -4.0233 C   0  0  0  0  0  0  0  0  0  0  0  0
    8.8679    3.1797   -3.8903 C   0  0  0  0  0  0  0  0  0  0  0  0
    3.9729    2.1072    0.3510 H   0  0  0  0  0  0  0  0  0  0  0  0
    6.4340    2.2006    0.3121 H   0  0  0  0  0  0  0  0  0  0  0  0
    4.0990   -2.1048   -0.5902 H   0  0  0  0  0  0  0  0  0  0  0  0
    7.8523   -6.0216    1.4157 H   0  0  0  0  0  0  0  0  0  0  0  0
    9.3754   -4.8333    2.9943 H   0  0  0  0  0  0  0  0  0  0  0  0
    9.6504   -2.3932    2.8298 H   0  0  0  0  0  0  0  0  0  0  0  0
    9.5980   -0.4873    1.3219 H   0  0  0  0  0  0  0  0  0  0  0  0
    8.0098   -0.2199    2.0227 H   0  0  0  0  0  0  0  0  0  0  0  0
    7.7361    2.2872   -1.6112 H   0  0  0  0  0  0  0  0  0  0  0  0
    8.0429    0.8012   -2.5679 H   0  0  0  0  0  0  0  0  0  0  0  0
   11.3592    1.7751   -2.0270 H   0  0  0  0  0  0  0  0  0  0  0  0
   11.7758    3.8615   -5.5116 H   0  0  0  0  0  0  0  0  0  0  0  0
    9.8895    5.2632   -6.4237 H   0  0  0  0  0  0  0  0  0  0  0  0
    7.4869    5.8262   -6.4306 H   0  0  0  0  0  0  0  0  0  0  0  0
    5.9239    4.5906   -4.9530 H   0  0  0  0  0  0  0  0  0  0  0  0
    6.7553    2.9225   -3.3970 H   0  0  0  0  0  0  0  0  0  0  0  0
  1  2  3  0  0  0  0
  2  3  1  0  0  0  0
  3  4  1  0  0  0  0
  3  8  2  0  0  0  0
  4  5  2  0  0  0  0
  4 32  1  0  0  0  0
  5  6  1  0  0  0  0
  5 33  1  0  0  0  0
  6  7  2  0  0  0  0
  6 18  1  0  0  0  0
  7  8  1  0  0  0  0
  7  9  1  0  0  0  0
  8 34  1  0  0  0  0
  9 10  1  0  0  0  0
 10 11  1  0  0  0  0
 10 16  2  0  0  0  0
 11 12  1  0  0  0  0
 11 13  2  0  0  0  0
 13 14  1  0  0  0  0
 13 35  1  0  0  0  0
 14 15  2  0  0  0  0
 14 36  1  0  0  0  0
 15 16  1  0  0  0  0
 15 37  1  0  0  0  0
 16 17  1  0  0  0  0
 17 18  1  0  0  0  0
 17 38  1  0  0  0  0
 17 39  1  0  0  0  0
 18 19  1  0  0  0  0
 19 20  2  0  0  0  0
 19 21  1  0  0  0  0
 21 22  1  0  0  0  0
 21 40  1  0  0  0  0
 21 41  1  0  0  0  0
 22 23  1  0  0  0  0
 22 31  2  0  0  0  0
 23 24  2  0  0  0  0
 23 42  1  0  0  0  0
 24 25  1  0  0  0  0
 25 26  2  0  0  0  0
 25 43  1  0  0  0  0
 26 27  1  0  0  0  0
 26 31  1  0  0  0  0
 27 28  2  0  0  0  0
 27 44  1  0  0  0  0
 28 29  1  0  0  0  0
 28 45  1  0  0  0  0
 29 30  2  0  0  0  0
 29 46  1  0  0  0  0
 30 31  1  0  0  0  0
 30 47  1  0  0  0  0
M  END
$$$$
