
 OpenBabel07202414143D

 53 57  0  0  1  0  0  0  0  0999 V2000
    8.2561   -0.0671   -0.1427 C   0  0  0  0  0  0  0  0  0  0  0  0
    7.0301   -0.6662    0.3181 N   0  0  0  0  0  0  0  0  0  0  0  0
    5.9171    0.0979    0.5895 C   0  0  0  0  0  0  0  0  0  0  0  0
    5.8983    1.3224    0.4830 O   0  0  0  0  0  0  0  0  0  0  0  0
    4.6750   -0.7001    0.9907 C   0  0  0  0  0  0  0  0  0  0  0  0
    4.7714   -1.3820    2.2809 N   0  0  0  0  0  0  0  0  0  0  0  0
    4.7341   -0.5808    3.4934 C   0  0  0  0  0  0  0  0  0  0  0  0
    4.1164   -1.2836    4.7112 C   0  0  3  0  0  0  0  0  0  0  0  0
    4.5893   -0.5551    5.9928 C   0  0  0  0  0  0  0  0  0  0  0  0
    3.3416   -0.2588    6.7986 C   0  0  0  0  0  0  0  0  0  0  0  0
    2.2702   -0.9892    6.1655 N   0  0  0  0  0  0  0  0  0  0  0  0
    0.9775   -1.0634    6.7604 C   0  0  0  0  0  0  0  0  0  0  0  0
   -0.1657   -0.7730    6.0159 C   0  0  0  0  0  0  0  0  0  0  0  0
   -1.4091   -0.6453    6.5366 N   0  0  0  0  0  0  0  0  0  0  0  0
   -1.5448   -0.8957    7.8535 C   0  0  0  0  0  0  0  0  0  0  0  0
   -0.5204   -1.3452    8.6807 C   0  0  0  0  0  0  0  0  0  0  0  0
   -0.7922   -1.7201   10.0117 C   0  0  0  0  0  0  0  0  0  0  0  0
    0.2144   -2.2210   10.8336 C   0  0  0  0  0  0  0  0  0  0  0  0
    1.4966   -2.3455   10.3262 C   0  0  0  0  0  0  0  0  0  0  0  0
    2.7588   -2.9511   11.3276 Cl  0  0  0  0  0  0  0  0  0  0  0  0
    1.7723   -1.9867    9.0020 C   0  0  0  0  0  0  0  0  0  0  0  0
    0.7831   -1.4433    8.1343 C   0  0  0  0  0  0  0  0  0  0  0  0
    2.5821   -1.1534    4.7971 C   0  0  0  0  0  0  0  0  0  0  0  0
    1.8102   -1.3252    3.8669 O   0  0  0  0  0  0  0  0  0  0  0  0
    4.4708   -2.7776    4.7307 C   0  0  0  0  0  0  0  0  0  0  0  0
    4.1322   -3.5814    5.8423 C   0  0  0  0  0  0  0  0  0  0  0  0
    4.3746   -4.9529    5.8486 C   0  0  0  0  0  0  0  0  0  0  0  0
    3.8809   -5.8911    7.2027 Cl  0  0  0  0  0  0  0  0  0  0  0  0
    4.9844   -5.5573    4.7590 C   0  0  0  0  0  0  0  0  0  0  0  0
    5.3224   -4.7851    3.6439 C   0  0  0  0  0  0  0  0  0  0  0  0
    5.0478   -3.4055    3.6129 C   0  0  0  0  0  0  0  0  0  0  0  0
    5.2617   -2.6767    2.3302 C   0  0  0  0  0  0  0  0  0  0  0  0
    5.7970   -3.2220    1.3690 O   0  0  0  0  0  0  0  0  0  0  0  0
    8.9193   -0.8519   -0.5122 H   0  0  0  0  0  0  0  0  0  0  0  0
    8.7285    0.4614    0.6899 H   0  0  0  0  0  0  0  0  0  0  0  0
    8.0429    0.6462   -0.9452 H   0  0  0  0  0  0  0  0  0  0  0  0
    6.9786   -1.6707    0.4867 H   0  0  0  0  0  0  0  0  0  0  0  0
    4.4749   -1.4360    0.2032 H   0  0  0  0  0  0  0  0  0  0  0  0
    3.8150   -0.0239    1.0282 H   0  0  0  0  0  0  0  0  0  0  0  0
    4.2232    0.3671    3.2868 H   0  0  0  0  0  0  0  0  0  0  0  0
    5.7873   -0.3445    3.7046 H   0  0  0  0  0  0  0  0  0  0  0  0
    5.0990    0.3919    5.7782 H   0  0  0  0  0  0  0  0  0  0  0  0
    5.2972   -1.1550    6.5758 H   0  0  0  0  0  0  0  0  0  0  0  0
    3.0890    0.8069    6.7209 H   0  0  0  0  0  0  0  0  0  0  0  0
    3.4916   -0.4828    7.8524 H   0  0  0  0  0  0  0  0  0  0  0  0
   -0.1283   -0.5760    4.9498 H   0  0  0  0  0  0  0  0  0  0  0  0
   -2.5509   -0.7402    8.2369 H   0  0  0  0  0  0  0  0  0  0  0  0
   -1.8036   -1.6574   10.4081 H   0  0  0  0  0  0  0  0  0  0  0  0
   -0.0139   -2.5302   11.8507 H   0  0  0  0  0  0  0  0  0  0  0  0
    2.7753   -2.1883    8.6428 H   0  0  0  0  0  0  0  0  0  0  0  0
    3.6294   -3.1554    6.7039 H   0  0  0  0  0  0  0  0  0  0  0  0
    5.1686   -6.6282    4.7555 H   0  0  0  0  0  0  0  0  0  0  0  0
    5.7606   -5.2753    2.7757 H   0  0  0  0  0  0  0  0  0  0  0  0
  1  2  1  0  0  0  0
  1 34  1  0  0  0  0
  1 35  1  0  0  0  0
  1 36  1  0  0  0  0
  2  3  1  0  0  0  0
  2 37  1  0  0  0  0
  3  4  2  0  0  0  0
  3  5  1  0  0  0  0
  5  6  1  0  0  0  0
  5 38  1  0  0  0  0
  5 39  1  0  0  0  0
  6  7  1  0  0  0  0
  6 32  1  0  0  0  0
  7  8  1  0  0  0  0
  7 40  1  0  0  0  0
  7 41  1  0  0  0  0
  8  9  1  0  0  0  0
  8 23  1  0  0  0  0
  8 25  1  0  0  0  0
  9 10  1  0  0  0  0
  9 42  1  0  0  0  0
  9 43  1  0  0  0  0
 10 11  1  0  0  0  0
 10 44  1  0  0  0  0
 10 45  1  0  0  0  0
 11 12  1  0  0  0  0
 11 23  1  0  0  0  0
 12 13  1  0  0  0  0
 12 22  2  0  0  0  0
 13 14  2  0  0  0  0
 13 46  1  0  0  0  0
 14 15  1  0  0  0  0
 15 16  2  0  0  0  0
 15 47  1  0  0  0  0
 16 17  1  0  0  0  0
 16 22  1  0  0  0  0
 17 18  2  0  0  0  0
 17 48  1  0  0  0  0
 18 19  1  0  0  0  0
 18 49  1  0  0  0  0
 19 20  1  0  0  0  0
 19 21  2  0  0  0  0
 21 22  1  0  0  0  0
 21 50  1  0  0  0  0
 23 24  2  0  0  0  0
 25 26  1  0  0  0  0
 25 31  2  0  0  0  0
 26 27  2  0  0  0  0
 26 51  1  0  0  0  0
 27 28  1  0  0  0  0
 27 29  1  0  0  0  0
 29 30  2  0  0  0  0
 29 52  1  0  0  0  0
 30 31  1  0  0  0  0
 30 53  1  0  0  0  0
 31 32  1  0  0  0  0
 32 33  2  0  0  0  0
M  END
$$$$
