
 OpenBabel07202414133D

 40 41  0  0  1  0  0  0  0  0999 V2000
    0.9244   -0.2073    0.1297 C   0  0  0  0  0  0  0  0  0  0  0  0
    2.4415   -0.1141    0.0979 C   0  0  0  0  0  0  0  0  0  0  0  0
    3.0081    0.3312    1.4530 C   0  0  0  0  0  0  0  0  0  0  0  0
    4.5374    0.5475    1.4231 C   0  0  3  0  0  0  0  0  0  0  0  0
    5.0383    1.6264    0.4689 C   0  0  0  0  0  0  0  0  0  0  0  0
    4.2686    2.7444    0.1086 C   0  0  0  0  0  0  0  0  0  0  0  0
    4.7879    3.7320   -0.7272 C   0  0  0  0  0  0  0  0  0  0  0  0
    6.0896    3.6226   -1.2116 C   0  0  0  0  0  0  0  0  0  0  0  0
    6.8662    2.5234   -0.8567 C   0  0  0  0  0  0  0  0  0  0  0  0
    6.3527    1.5320   -0.0239 C   0  0  0  0  0  0  0  0  0  0  0  0
    8.4767    2.3930   -1.4468 Cl  0  0  0  0  0  0  0  0  0  0  0  0
    5.0671    0.8145    2.8420 C   0  0  0  0  0  0  0  0  0  0  0  0
    5.6837   -0.0528    3.4637 O   0  0  0  0  0  0  0  0  0  0  0  0
    4.7335    2.0520    3.3503 N   0  0  0  0  0  0  0  0  0  0  0  0
    5.1685    2.5649    4.5882 C   0  0  0  0  0  0  0  0  0  0  0  0
    6.4247    2.2845    5.1219 C   0  0  0  0  0  0  0  0  0  0  0  0
    6.8929    2.8051    6.2831 N   0  0  0  0  0  0  0  0  0  0  0  0
    6.0605    3.6240    6.9546 C   0  0  0  0  0  0  0  0  0  0  0  0
    4.7894    3.9573    6.5174 C   0  0  0  0  0  0  0  0  0  0  0  0
    4.3235    3.4241    5.3089 C   0  0  0  0  0  0  0  0  0  0  0  0
    2.9232    3.7217    4.8569 C   0  0  0  0  0  0  0  0  0  0  0  0
    0.5442   -0.5037   -0.8532 H   0  0  0  0  0  0  0  0  0  0  0  0
    0.4772    0.7587    0.3871 H   0  0  0  0  0  0  0  0  0  0  0  0
    0.5909   -0.9481    0.8625 H   0  0  0  0  0  0  0  0  0  0  0  0
    2.7216    0.5862   -0.6958 H   0  0  0  0  0  0  0  0  0  0  0  0
    2.8619   -1.0880   -0.1766 H   0  0  0  0  0  0  0  0  0  0  0  0
    2.7749   -0.4410    2.1990 H   0  0  0  0  0  0  0  0  0  0  0  0
    2.4892    1.2340    1.7965 H   0  0  0  0  0  0  0  0  0  0  0  0
    4.9853   -0.4039    1.1036 H   0  0  0  0  0  0  0  0  0  0  0  0
    3.2492    2.8685    0.4675 H   0  0  0  0  0  0  0  0  0  0  0  0
    4.1767    4.5892   -1.0015 H   0  0  0  0  0  0  0  0  0  0  0  0
    6.4902    4.3952   -1.8609 H   0  0  0  0  0  0  0  0  0  0  0  0
    6.9783    0.6842    0.2523 H   0  0  0  0  0  0  0  0  0  0  0  0
    4.0146    2.5760    2.8692 H   0  0  0  0  0  0  0  0  0  0  0  0
    7.1388    1.6531    4.5975 H   0  0  0  0  0  0  0  0  0  0  0  0
    6.4507    4.0144    7.8919 H   0  0  0  0  0  0  0  0  0  0  0  0
    4.1659    4.6063    7.1245 H   0  0  0  0  0  0  0  0  0  0  0  0
    2.3481    4.2334    5.6359 H   0  0  0  0  0  0  0  0  0  0  0  0
    2.3937    2.7878    4.6322 H   0  0  0  0  0  0  0  0  0  0  0  0
    2.9337    4.3551    3.9657 H   0  0  0  0  0  0  0  0  0  0  0  0
  1  2  1  0  0  0  0
  1 22  1  0  0  0  0
  1 23  1  0  0  0  0
  1 24  1  0  0  0  0
  2  3  1  0  0  0  0
  2 25  1  0  0  0  0
  2 26  1  0  0  0  0
  3  4  1  0  0  0  0
  3 27  1  0  0  0  0
  3 28  1  0  0  0  0
  4  5  1  0  0  0  0
  4 12  1  0  0  0  0
  4 29  1  0  0  0  0
  5  6  1  0  0  0  0
  5 10  2  0  0  0  0
  6  7  2  0  0  0  0
  6 30  1  0  0  0  0
  7  8  1  0  0  0  0
  7 31  1  0  0  0  0
  8  9  2  0  0  0  0
  8 32  1  0  0  0  0
  9 10  1  0  0  0  0
  9 11  1  0  0  0  0
 10 33  1  0  0  0  0
 12 13  2  0  0  0  0
 12 14  1  0  0  0  0
 14 15  1  0  0  0  0
 14 34  1  0  0  0  0
 15 16  1  0  0  0  0
 15 20  2  0  0  0  0
 16 17  2  0  0  0  0
 16 35  1  0  0  0  0
 17 18  1  0  0  0  0
 18 19  2  0  0  0  0
 18 36  1  0  0  0  0
 19 20  1  0  0  0  0
 19 37  1  0  0  0  0
 20 21  1  0  0  0  0
 21 38  1  0  0  0  0
 21 39  1  0  0  0  0
 21 40  1  0  0  0  0
M  END
$$$$
