
 OpenBabel07202414123D

 64 67  0  0  1  0  0  0  0  0999 V2000
    0.8216    2.7893    0.4617 C   0  0  0  0  0  0  0  0  0  0  0  0
    2.2230    2.3416    0.0451 C   0  0  0  0  0  0  0  0  0  0  0  0
    2.3998    2.5342   -1.4592 C   0  0  0  0  0  0  0  0  0  0  0  0
    3.1673    3.1530    0.7577 O   0  0  0  0  0  0  0  0  0  0  0  0
    4.4116    2.6548    1.0399 C   0  0  0  0  0  0  0  0  0  0  0  0
    4.8811    1.3816    0.7449 C   0  0  0  0  0  0  0  0  0  0  0  0
    6.1884    1.0091    1.0975 C   0  0  0  0  0  0  0  0  0  0  0  0
    7.0581    1.8908    1.7549 C   0  0  0  0  0  0  0  0  0  0  0  0
    8.4216    1.4934    2.0024 N   0  0  0  0  0  0  0  0  0  0  0  0
    8.9937    1.5889    3.3708 C   0  0  3  0  0  0  0  0  0  0  0  0
    9.7448    2.9224    3.6705 C   0  0  0  0  0  0  0  0  0  0  0  0
    9.3180    4.0295    3.3482 O   0  0  0  0  0  0  0  0  0  0  0  0
   10.9190    2.7851    4.3968 N   0  0  0  0  0  0  0  0  0  0  0  0
   11.6355    3.9384    4.9200 C   0  0  0  0  0  0  0  0  0  0  0  0
   13.1446    3.8189    4.7394 C   0  0  0  0  0  0  0  0  0  0  0  0
   13.8544    5.0273    5.3006 C   0  0  0  0  0  0  0  0  0  0  0  0
   14.0738    6.1528    4.5068 C   0  0  0  0  0  0  0  0  0  0  0  0
   14.7085    7.2619    5.0657 C   0  0  0  0  0  0  0  0  0  0  0  0
   15.1005    7.2145    6.3940 C   0  0  0  0  0  0  0  0  0  0  0  0
   15.7259    8.2593    6.9983 O   0  0  0  0  0  0  0  0  0  0  0  0
   14.8372    6.0625    7.1176 C   0  0  0  0  0  0  0  0  0  0  0  0
   14.2216    4.9694    6.6031 N   0  0  0  0  0  0  0  0  0  0  0  0
    8.0946    1.1763    4.5331 C   0  0  0  0  0  0  0  0  0  0  0  0
    7.3163    2.0798    5.2630 C   0  0  0  0  0  0  0  0  0  0  0  0
    6.6736    1.6617    6.4272 C   0  0  0  0  0  0  0  0  0  0  0  0
    6.8163    0.3433    6.8241 C   0  0  0  0  0  0  0  0  0  0  0  0
    7.5218   -0.5717    6.1289 N   0  0  0  0  0  0  0  0  0  0  0  0
    8.1313   -0.1396    5.0013 C   0  0  0  0  0  0  0  0  0  0  0  0
    9.1740    1.0632    0.8745 C   0  0  0  0  0  0  0  0  0  0  0  0
    8.6745    1.0044   -0.2531 O   0  0  0  0  0  0  0  0  0  0  0  0
   10.5915    0.6747    0.9922 C   0  0  0  0  0  0  0  0  0  0  0  0
   11.3362    0.2034   -0.0739 C   0  0  0  0  0  0  0  0  0  0  0  0
   12.5941   -0.0820    0.3536 O   0  0  0  0  0  0  0  0  0  0  0  0
   12.5662    0.2400    1.6718 C   0  0  0  0  0  0  0  0  0  0  0  0
   11.4149    0.6995    2.1092 N   0  0  0  0  0  0  0  0  0  0  0  0
    6.5813    3.1710    2.0436 C   0  0  0  0  0  0  0  0  0  0  0  0
    5.2734    3.5480    1.6853 C   0  0  0  0  0  0  0  0  0  0  0  0
    0.0508    2.2241   -0.0734 H   0  0  0  0  0  0  0  0  0  0  0  0
    0.6690    3.8570    0.2715 H   0  0  0  0  0  0  0  0  0  0  0  0
    0.6763    2.6321    1.5359 H   0  0  0  0  0  0  0  0  0  0  0  0
    2.3018    1.2838    0.3154 H   0  0  0  0  0  0  0  0  0  0  0  0
    2.4681    3.5974   -1.7155 H   0  0  0  0  0  0  0  0  0  0  0  0
    1.5696    2.0919   -2.0199 H   0  0  0  0  0  0  0  0  0  0  0  0
    3.3268    2.0657   -1.8041 H   0  0  0  0  0  0  0  0  0  0  0  0
    4.2767    0.6454    0.2284 H   0  0  0  0  0  0  0  0  0  0  0  0
    6.5232    0.0072    0.8330 H   0  0  0  0  0  0  0  0  0  0  0  0
    9.7586    0.8166    3.4187 H   0  0  0  0  0  0  0  0  0  0  0  0
   11.1760    1.8676    4.7416 H   0  0  0  0  0  0  0  0  0  0  0  0
   11.3809    4.0075    5.9837 H   0  0  0  0  0  0  0  0  0  0  0  0
   11.2705    4.8526    4.4400 H   0  0  0  0  0  0  0  0  0  0  0  0
   13.3987    3.6979    3.6756 H   0  0  0  0  0  0  0  0  0  0  0  0
   13.5171    2.9174    5.2414 H   0  0  0  0  0  0  0  0  0  0  0  0
   13.7562    6.1723    3.4694 H   0  0  0  0  0  0  0  0  0  0  0  0
   14.8860    8.1413    4.4523 H   0  0  0  0  0  0  0  0  0  0  0  0
   15.8353    8.9756    6.3513 H   0  0  0  0  0  0  0  0  0  0  0  0
   15.1222    5.9882    8.1632 H   0  0  0  0  0  0  0  0  0  0  0  0
    7.2328    3.1208    4.9609 H   0  0  0  0  0  0  0  0  0  0  0  0
    6.0939    2.3573    7.0237 H   0  0  0  0  0  0  0  0  0  0  0  0
    6.3619   -0.0185    7.7423 H   0  0  0  0  0  0  0  0  0  0  0  0
    8.7090   -0.9092    4.4938 H   0  0  0  0  0  0  0  0  0  0  0  0
   11.1234    0.0208   -1.1181 H   0  0  0  0  0  0  0  0  0  0  0  0
   13.4824    0.0845    2.2249 H   0  0  0  0  0  0  0  0  0  0  0  0
    7.2188    3.9331    2.4761 H   0  0  0  0  0  0  0  0  0  0  0  0
    4.9400    4.5643    1.8886 H   0  0  0  0  0  0  0  0  0  0  0  0
  1  2  1  0  0  0  0
  1 38  1  0  0  0  0
  1 39  1  0  0  0  0
  1 40  1  0  0  0  0
  2  3  1  0  0  0  0
  2  4  1  0  0  0  0
  2 41  1  0  0  0  0
  3 42  1  0  0  0  0
  3 43  1  0  0  0  0
  3 44  1  0  0  0  0
  4  5  1  0  0  0  0
  5  6  1  0  0  0  0
  5 37  2  0  0  0  0
  6  7  2  0  0  0  0
  6 45  1  0  0  0  0
  7  8  1  0  0  0  0
  7 46  1  0  0  0  0
  8  9  1  0  0  0  0
  8 36  2  0  0  0  0
  9 10  1  0  0  0  0
  9 29  1  0  0  0  0
 10 11  1  0  0  0  0
 10 23  1  0  0  0  0
 10 47  1  0  0  0  0
 11 12  2  0  0  0  0
 11 13  1  0  0  0  0
 13 14  1  0  0  0  0
 13 48  1  0  0  0  0
 14 15  1  0  0  0  0
 14 49  1  0  0  0  0
 14 50  1  0  0  0  0
 15 16  1  0  0  0  0
 15 51  1  0  0  0  0
 15 52  1  0  0  0  0
 16 17  1  0  0  0  0
 16 22  2  0  0  0  0
 17 18  2  0  0  0  0
 17 53  1  0  0  0  0
 18 19  1  0  0  0  0
 18 54  1  0  0  0  0
 19 20  1  0  0  0  0
 19 21  2  0  0  0  0
 20 55  1  0  0  0  0
 21 22  1  0  0  0  0
 21 56  1  0  0  0  0
 23 24  1  0  0  0  0
 23 28  2  0  0  0  0
 24 25  2  0  0  0  0
 24 57  1  0  0  0  0
 25 26  1  0  0  0  0
 25 58  1  0  0  0  0
 26 27  2  0  0  0  0
 26 59  1  0  0  0  0
 27 28  1  0  0  0  0
 28 60  1  0  0  0  0
 29 30  2  0  0  0  0
 29 31  1  0  0  0  0
 31 32  2  0  0  0  0
 31 35  1  0  0  0  0
 32 33  1  0  0  0  0
 32 61  1  0  0  0  0
 33 34  1  0  0  0  0
 34 35  2  0  0  0  0
 34 62  1  0  0  0  0
 36 37  1  0  0  0  0
 36 63  1  0  0  0  0
 37 64  1  0  0  0  0
M  END
$$$$
