
 OpenBabel07202414153D

 62 65  0  0  1  0  0  0  0  0999 V2000
    4.8598    0.7169   -2.6612 C   0  0  0  0  0  0  0  0  0  0  0  0
    3.6202    0.0245   -2.5701 O   0  0  0  0  0  0  0  0  0  0  0  0
    3.7579   -1.1751   -1.8053 C   0  0  0  0  0  0  0  0  0  0  0  0
    4.7058   -2.0569   -2.4033 O   0  0  0  0  0  0  0  0  0  0  0  0
    5.2860   -2.9642   -1.5651 C   0  0  0  0  0  0  0  0  0  0  0  0
    4.6946   -3.4879   -0.4205 C   0  0  0  0  0  0  0  0  0  0  0  0
    5.3561   -4.4795    0.3110 C   0  0  0  0  0  0  0  0  0  0  0  0
    6.6200   -4.9486   -0.0781 C   0  0  0  0  0  0  0  0  0  0  0  0
    7.1658   -6.1014    0.5764 N   0  0  0  0  0  0  0  0  0  0  0  0
    8.5272   -6.0360    1.1747 C   0  0  3  0  0  0  0  0  0  0  0  0
    9.7093   -6.5647    0.3070 C   0  0  0  0  0  0  0  0  0  0  0  0
   10.8677   -6.5691    0.7300 O   0  0  0  0  0  0  0  0  0  0  0  0
    9.4161   -6.9899   -0.9681 N   0  0  0  0  0  0  0  0  0  0  0  0
   10.4651   -7.3473   -1.9117 C   0  0  0  0  0  0  0  0  0  0  0  0
   10.3153   -8.7937   -2.3637 C   0  0  0  0  0  0  0  0  0  0  0  0
   11.4005   -9.2217   -3.3145 C   0  0  0  0  0  0  0  0  0  0  0  0
   12.5656   -9.8372   -2.8315 C   0  0  0  0  0  0  0  0  0  0  0  0
   13.5543  -10.2791   -3.7146 C   0  0  0  0  0  0  0  0  0  0  0  0
   13.3936  -10.0974   -5.0866 C   0  0  0  0  0  0  0  0  0  0  0  0
   12.2536   -9.4612   -5.5627 C   0  0  0  0  0  0  0  0  0  0  0  0
   12.1020   -9.2784   -6.8808 F   0  0  0  0  0  0  0  0  0  0  0  0
   11.2617   -9.0183   -4.6933 C   0  0  0  0  0  0  0  0  0  0  0  0
    8.9059   -4.7187    1.8545 C   0  0  0  0  0  0  0  0  0  0  0  0
    8.6547   -4.5228    3.2198 C   0  0  0  0  0  0  0  0  0  0  0  0
    9.2182   -3.4325    3.8785 C   0  0  0  0  0  0  0  0  0  0  0  0
    9.9868   -2.5459    3.1444 C   0  0  0  0  0  0  0  0  0  0  0  0
   10.1918   -2.6563    1.8167 N   0  0  0  0  0  0  0  0  0  0  0  0
    9.6570   -3.7388    1.2062 C   0  0  0  0  0  0  0  0  0  0  0  0
    6.3793   -7.2853    0.4985 C   0  0  0  0  0  0  0  0  0  0  0  0
    5.3333   -7.3219   -0.1494 O   0  0  0  0  0  0  0  0  0  0  0  0
    6.8468   -8.5345    1.1053 C   0  0  0  0  0  0  0  0  0  0  0  0
    6.4490   -9.7870    0.6756 C   0  0  0  0  0  0  0  0  0  0  0  0
    7.0239  -10.7259    1.4733 O   0  0  0  0  0  0  0  0  0  0  0  0
    7.7370   -9.9960    2.3694 C   0  0  0  0  0  0  0  0  0  0  0  0
    7.6775   -8.6938    2.1944 N   0  0  0  0  0  0  0  0  0  0  0  0
    7.2303   -4.3818   -1.1990 C   0  0  0  0  0  0  0  0  0  0  0  0
    6.5490   -3.4163   -1.9522 C   0  0  0  0  0  0  0  0  0  0  0  0
    4.6834    1.6810   -3.1444 H   0  0  0  0  0  0  0  0  0  0  0  0
    5.5681    0.1507   -3.2740 H   0  0  0  0  0  0  0  0  0  0  0  0
    5.2816    0.8940   -1.6670 H   0  0  0  0  0  0  0  0  0  0  0  0
    2.7760   -1.6605   -1.7868 H   0  0  0  0  0  0  0  0  0  0  0  0
    4.0383   -0.8947   -0.7803 H   0  0  0  0  0  0  0  0  0  0  0  0
    3.7029   -3.1848   -0.0995 H   0  0  0  0  0  0  0  0  0  0  0  0
    4.8554   -4.9061    1.1777 H   0  0  0  0  0  0  0  0  0  0  0  0
    8.5303   -6.7367    2.0083 H   0  0  0  0  0  0  0  0  0  0  0  0
    8.4501   -7.0426   -1.2681 H   0  0  0  0  0  0  0  0  0  0  0  0
   11.4569   -7.1841   -1.4745 H   0  0  0  0  0  0  0  0  0  0  0  0
   10.3734   -6.6590   -2.7596 H   0  0  0  0  0  0  0  0  0  0  0  0
    9.3373   -8.9305   -2.8425 H   0  0  0  0  0  0  0  0  0  0  0  0
   10.3088   -9.4591   -1.4908 H   0  0  0  0  0  0  0  0  0  0  0  0
   12.7054   -9.9871   -1.7621 H   0  0  0  0  0  0  0  0  0  0  0  0
   14.4452  -10.7699   -3.3312 H   0  0  0  0  0  0  0  0  0  0  0  0
   14.1469  -10.4454   -5.7854 H   0  0  0  0  0  0  0  0  0  0  0  0
   10.3831   -8.5312   -5.1055 H   0  0  0  0  0  0  0  0  0  0  0  0
    8.0826   -5.2509    3.7902 H   0  0  0  0  0  0  0  0  0  0  0  0
    9.0921   -3.2973    4.9468 H   0  0  0  0  0  0  0  0  0  0  0  0
   10.4863   -1.7074    3.6212 H   0  0  0  0  0  0  0  0  0  0  0  0
    9.9123   -3.8153    0.1530 H   0  0  0  0  0  0  0  0  0  0  0  0
    5.8088  -10.1450   -0.1171 H   0  0  0  0  0  0  0  0  0  0  0  0
    8.2716  -10.5502    3.1291 H   0  0  0  0  0  0  0  0  0  0  0  0
    8.1953   -4.7133   -1.5624 H   0  0  0  0  0  0  0  0  0  0  0  0
    6.9990   -3.0267   -2.8632 H   0  0  0  0  0  0  0  0  0  0  0  0
  1  2  1  0  0  0  0
  1 38  1  0  0  0  0
  1 39  1  0  0  0  0
  1 40  1  0  0  0  0
  2  3  1  0  0  0  0
  3  4  1  0  0  0  0
  3 41  1  0  0  0  0
  3 42  1  0  0  0  0
  4  5  1  0  0  0  0
  5  6  1  0  0  0  0
  5 37  2  0  0  0  0
  6  7  2  0  0  0  0
  6 43  1  0  0  0  0
  7  8  1  0  0  0  0
  7 44  1  0  0  0  0
  8  9  1  0  0  0  0
  8 36  2  0  0  0  0
  9 10  1  0  0  0  0
  9 29  1  0  0  0  0
 10 11  1  0  0  0  0
 10 23  1  0  0  0  0
 10 45  1  0  0  0  0
 11 12  2  0  0  0  0
 11 13  1  0  0  0  0
 13 14  1  0  0  0  0
 13 46  1  0  0  0  0
 14 15  1  0  0  0  0
 14 47  1  0  0  0  0
 14 48  1  0  0  0  0
 15 16  1  0  0  0  0
 15 49  1  0  0  0  0
 15 50  1  0  0  0  0
 16 17  1  0  0  0  0
 16 22  2  0  0  0  0
 17 18  2  0  0  0  0
 17 51  1  0  0  0  0
 18 19  1  0  0  0  0
 18 52  1  0  0  0  0
 19 20  2  0  0  0  0
 19 53  1  0  0  0  0
 20 21  1  0  0  0  0
 20 22  1  0  0  0  0
 22 54  1  0  0  0  0
 23 24  1  0  0  0  0
 23 28  2  0  0  0  0
 24 25  2  0  0  0  0
 24 55  1  0  0  0  0
 25 26  1  0  0  0  0
 25 56  1  0  0  0  0
 26 27  2  0  0  0  0
 26 57  1  0  0  0  0
 27 28  1  0  0  0  0
 28 58  1  0  0  0  0
 29 30  2  0  0  0  0
 29 31  1  0  0  0  0
 31 32  2  0  0  0  0
 31 35  1  0  0  0  0
 32 33  1  0  0  0  0
 32 59  1  0  0  0  0
 33 34  1  0  0  0  0
 34 35  2  0  0  0  0
 34 60  1  0  0  0  0
 36 37  1  0  0  0  0
 36 61  1  0  0  0  0
 37 62  1  0  0  0  0
M  END
$$$$
