
 OpenBabel07202414143D

 53 57  0  0  1  0  0  0  0  0999 V2000
    1.0279    0.8895   -2.1389 C   0  0  0  0  0  0  0  0  0  0  0  0
    2.4548    0.9813   -1.9873 N   0  0  0  0  0  0  0  0  0  0  0  0
    3.1803   -0.0306   -1.4006 C   0  0  0  0  0  0  0  0  0  0  0  0
    2.6843   -1.1002   -1.0529 O   0  0  0  0  0  0  0  0  0  0  0  0
    4.6336    0.3292   -1.0892 C   0  0  0  0  0  0  0  0  0  0  0  0
    5.4465    0.7212   -2.2361 N   0  0  0  0  0  0  0  0  0  0  0  0
    6.0268   -0.3161   -3.0567 C   0  0  0  0  0  0  0  0  0  0  0  0
    7.4638   -0.0054   -3.5067 C   0  0  2  0  0  0  0  0  0  0  0  0
    7.7191   -0.8922   -4.7301 C   0  0  0  0  0  0  0  0  0  0  0  0
    9.0201   -1.5886   -4.4610 C   0  0  0  0  0  0  0  0  0  0  0  0
    9.3540   -1.4250   -3.0807 N   0  0  0  0  0  0  0  0  0  0  0  0
   10.3777   -2.2417   -2.4604 C   0  0  0  0  0  0  0  0  0  0  0  0
   10.5017   -2.2591   -1.0654 C   0  0  0  0  0  0  0  0  0  0  0  0
   11.2385   -3.1516   -0.3625 N   0  0  0  0  0  0  0  0  0  0  0  0
   11.9619   -4.0324   -1.0768 C   0  0  0  0  0  0  0  0  0  0  0  0
   12.0816   -4.0197   -2.4610 C   0  0  0  0  0  0  0  0  0  0  0  0
   13.0143   -4.8793   -3.0839 C   0  0  0  0  0  0  0  0  0  0  0  0
   13.2024   -4.8764   -4.4609 C   0  0  0  0  0  0  0  0  0  0  0  0
   12.4166   -4.0512   -5.2340 C   0  0  0  0  0  0  0  0  0  0  0  0
   11.4845   -3.2078   -4.6181 C   0  0  0  0  0  0  0  0  0  0  0  0
   11.2736   -3.1228   -3.2022 C   0  0  0  0  0  0  0  0  0  0  0  0
    8.4726   -0.5137   -2.4605 C   0  0  0  0  0  0  0  0  0  0  0  0
    8.4886   -0.1344   -1.2917 O   0  0  0  0  0  0  0  0  0  0  0  0
    7.6310    1.4716   -3.8574 C   0  0  0  0  0  0  0  0  0  0  0  0
    8.7809    1.9403   -4.5252 C   0  0  0  0  0  0  0  0  0  0  0  0
    8.8679    3.2665   -4.9541 C   0  0  0  0  0  0  0  0  0  0  0  0
   10.2682    3.7952   -5.8027 Cl  0  0  0  0  0  0  0  0  0  0  0  0
    7.8245    4.1547   -4.7185 C   0  0  0  0  0  0  0  0  0  0  0  0
    6.6991    3.7240   -4.0141 C   0  0  0  0  0  0  0  0  0  0  0  0
    6.6067    2.3974   -3.5653 C   0  0  0  0  0  0  0  0  0  0  0  0
    5.4534    2.0244   -2.6916 C   0  0  0  0  0  0  0  0  0  0  0  0
    4.6042    2.8485   -2.3689 O   0  0  0  0  0  0  0  0  0  0  0  0
    0.6463    1.8513   -2.4879 H   0  0  0  0  0  0  0  0  0  0  0  0
    0.5731    0.6373   -1.1759 H   0  0  0  0  0  0  0  0  0  0  0  0
    0.7943    0.1049   -2.8629 H   0  0  0  0  0  0  0  0  0  0  0  0
    2.9349    1.8612   -2.1845 H   0  0  0  0  0  0  0  0  0  0  0  0
    5.1172   -0.5258   -0.6041 H   0  0  0  0  0  0  0  0  0  0  0  0
    4.6260    1.1560   -0.3705 H   0  0  0  0  0  0  0  0  0  0  0  0
    5.3678   -0.3875   -3.9353 H   0  0  0  0  0  0  0  0  0  0  0  0
    5.9763   -1.2811   -2.5385 H   0  0  0  0  0  0  0  0  0  0  0  0
    7.7727   -0.3424   -5.6768 H   0  0  0  0  0  0  0  0  0  0  0  0
    6.9388   -1.6495   -4.8722 H   0  0  0  0  0  0  0  0  0  0  0  0
    9.7879   -1.0987   -5.0642 H   0  0  0  0  0  0  0  0  0  0  0  0
    8.8932   -2.6517   -4.6815 H   0  0  0  0  0  0  0  0  0  0  0  0
    9.9930   -1.5508   -0.4191 H   0  0  0  0  0  0  0  0  0  0  0  0
   12.4805   -4.7754   -0.4749 H   0  0  0  0  0  0  0  0  0  0  0  0
   13.6406   -5.5386   -2.4847 H   0  0  0  0  0  0  0  0  0  0  0  0
   13.9620   -5.5004   -4.9236 H   0  0  0  0  0  0  0  0  0  0  0  0
   12.5279   -4.0327   -6.3158 H   0  0  0  0  0  0  0  0  0  0  0  0
   10.9568   -2.5900   -5.3260 H   0  0  0  0  0  0  0  0  0  0  0  0
    9.6166    1.2749   -4.7285 H   0  0  0  0  0  0  0  0  0  0  0  0
    7.8877    5.1852   -5.0588 H   0  0  0  0  0  0  0  0  0  0  0  0
    5.8998    4.4319   -3.8012 H   0  0  0  0  0  0  0  0  0  0  0  0
  1  2  1  0  0  0  0
  1 33  1  0  0  0  0
  1 34  1  0  0  0  0
  1 35  1  0  0  0  0
  2  3  1  0  0  0  0
  2 36  1  0  0  0  0
  3  4  2  0  0  0  0
  3  5  1  0  0  0  0
  5  6  1  0  0  0  0
  5 37  1  0  0  0  0
  5 38  1  0  0  0  0
  6  7  1  0  0  0  0
  6 31  1  0  0  0  0
  7  8  1  0  0  0  0
  7 39  1  0  0  0  0
  7 40  1  0  0  0  0
  8  9  1  0  0  0  0
  8 22  1  1  0  0  0
  8 24  1  0  0  0  0
  9 10  1  0  0  0  0
  9 41  1  0  0  0  0
  9 42  1  0  0  0  0
 10 11  1  0  0  0  0
 10 43  1  0  0  0  0
 10 44  1  0  0  0  0
 11 12  1  0  0  0  0
 11 22  1  0  0  0  0
 12 13  1  0  0  0  0
 12 21  2  0  0  0  0
 13 14  2  0  0  0  0
 13 45  1  0  0  0  0
 14 15  1  0  0  0  0
 15 16  2  0  0  0  0
 15 46  1  0  0  0  0
 16 17  1  0  0  0  0
 16 21  1  0  0  0  0
 17 18  2  0  0  0  0
 17 47  1  0  0  0  0
 18 19  1  0  0  0  0
 18 48  1  0  0  0  0
 19 20  2  0  0  0  0
 19 49  1  0  0  0  0
 20 21  1  0  0  0  0
 20 50  1  0  0  0  0
 22 23  2  0  0  0  0
 24 25  1  0  0  0  0
 24 30  2  0  0  0  0
 25 26  2  0  0  0  0
 25 51  1  0  0  0  0
 26 27  1  0  0  0  0
 26 28  1  0  0  0  0
 28 29  2  0  0  0  0
 28 52  1  0  0  0  0
 29 30  1  0  0  0  0
 29 53  1  0  0  0  0
 30 31  1  0  0  0  0
 31 32  2  0  0  0  0
M  END
$$$$
