
 OpenBabel07202414193D

 47 50  0  0  1  0  0  0  0  0999 V2000
    3.0706   -0.6822   -2.9242 N   0  0  0  0  0  0  0  0  0  0  0  0
    2.4234   -0.2540   -1.8037 C   0  0  0  0  0  0  0  0  0  0  0  0
    1.2842   -0.6364   -1.5532 O   0  0  0  0  0  0  0  0  0  0  0  0
    3.1570    0.7742   -0.9362 C   0  0  0  0  0  0  0  0  0  0  0  0
    4.6396    0.6281   -0.9612 N   0  0  0  0  0  0  0  0  0  0  0  0
    5.0586   -0.6541   -0.3364 C   0  0  0  0  0  0  0  0  0  0  0  0
    6.5781   -0.8640   -0.5028 C   0  0  3  0  0  0  0  0  0  0  0  0
    6.9385   -1.1736   -1.9689 C   0  0  0  0  0  0  0  0  0  0  0  0
    7.5474   -2.2011   -2.2565 O   0  0  0  0  0  0  0  0  0  0  0  0
    6.5039   -0.2158   -2.8700 N   0  0  0  0  0  0  0  0  0  0  0  0
    6.4548   -0.2937   -4.2851 C   0  0  0  0  0  0  0  0  0  0  0  0
    6.8470   -1.4331   -4.9851 C   0  0  0  0  0  0  0  0  0  0  0  0
    6.6362   -1.6271   -6.3055 N   0  0  0  0  0  0  0  0  0  0  0  0
    6.0689   -0.6113   -6.9827 C   0  0  0  0  0  0  0  0  0  0  0  0
    5.7438    0.6220   -6.4297 C   0  0  0  0  0  0  0  0  0  0  0  0
    5.2831    1.6781   -7.2381 C   0  0  0  0  0  0  0  0  0  0  0  0
    4.9949    2.9231   -6.6893 C   0  0  0  0  0  0  0  0  0  0  0  0
    5.1145    3.1108   -5.3225 C   0  0  0  0  0  0  0  0  0  0  0  0
    5.5570    2.0650   -4.5019 C   0  0  0  0  0  0  0  0  0  0  0  0
    5.9246    0.7988   -5.0345 C   0  0  0  0  0  0  0  0  0  0  0  0
    7.3407    0.3292    0.0351 C   0  0  0  0  0  0  0  0  0  0  0  0
    8.6694    0.1812    0.4616 C   0  0  0  0  0  0  0  0  0  0  0  0
    9.3715    1.2819    0.9463 C   0  0  0  0  0  0  0  0  0  0  0  0
   10.9821    1.0860    1.5175 Cl  0  0  0  0  0  0  0  0  0  0  0  0
    8.7714    2.5373    0.9873 C   0  0  0  0  0  0  0  0  0  0  0  0
    7.4474    2.6911    0.5698 C   0  0  0  0  0  0  0  0  0  0  0  0
    6.7141    1.5895    0.1028 C   0  0  0  0  0  0  0  0  0  0  0  0
    5.2369    1.7567   -0.2069 C   0  0  0  0  0  0  0  0  0  0  0  0
    2.6338   -1.4024   -3.4843 H   0  0  0  0  0  0  0  0  0  0  0  0
    4.0561   -0.5010   -3.0530 H   0  0  0  0  0  0  0  0  0  0  0  0
    2.7753    0.6899    0.0888 H   0  0  0  0  0  0  0  0  0  0  0  0
    2.8806    1.7586   -1.3334 H   0  0  0  0  0  0  0  0  0  0  0  0
    4.5443   -1.5040   -0.7992 H   0  0  0  0  0  0  0  0  0  0  0  0
    4.7916   -0.6614    0.7301 H   0  0  0  0  0  0  0  0  0  0  0  0
    6.8468   -1.7494    0.0903 H   0  0  0  0  0  0  0  0  0  0  0  0
    6.0458    0.5811   -2.4399 H   0  0  0  0  0  0  0  0  0  0  0  0
    7.3428   -2.2703   -4.5036 H   0  0  0  0  0  0  0  0  0  0  0  0
    5.8839   -0.8254   -8.0333 H   0  0  0  0  0  0  0  0  0  0  0  0
    5.1778    1.5436   -8.3128 H   0  0  0  0  0  0  0  0  0  0  0  0
    4.6772    3.7478   -7.3320 H   0  0  0  0  0  0  0  0  0  0  0  0
    4.8794    4.0818   -4.8839 H   0  0  0  0  0  0  0  0  0  0  0  0
    5.6562    2.2799   -3.4464 H   0  0  0  0  0  0  0  0  0  0  0  0
    9.1508   -0.7949    0.4288 H   0  0  0  0  0  0  0  0  0  0  0  0
    9.3230    3.3970    1.3599 H   0  0  0  0  0  0  0  0  0  0  0  0
    6.9852    3.6743    0.6316 H   0  0  0  0  0  0  0  0  0  0  0  0
    5.1106    2.6680   -0.8042 H   0  0  0  0  0  0  0  0  0  0  0  0
    4.7177    1.8994    0.7498 H   0  0  0  0  0  0  0  0  0  0  0  0
  1  2  1  0  0  0  0
  1 29  1  0  0  0  0
  1 30  1  0  0  0  0
  2  3  2  0  0  0  0
  2  4  1  0  0  0  0
  4  5  1  0  0  0  0
  4 31  1  0  0  0  0
  4 32  1  0  0  0  0
  5  6  1  0  0  0  0
  5 28  1  0  0  0  0
  6  7  1  0  0  0  0
  6 33  1  0  0  0  0
  6 34  1  0  0  0  0
  7  8  1  0  0  0  0
  7 21  1  0  0  0  0
  7 35  1  0  0  0  0
  8  9  2  0  0  0  0
  8 10  1  0  0  0  0
 10 11  1  0  0  0  0
 10 36  1  0  0  0  0
 11 12  1  0  0  0  0
 11 20  2  0  0  0  0
 12 13  2  0  0  0  0
 12 37  1  0  0  0  0
 13 14  1  0  0  0  0
 14 15  2  0  0  0  0
 14 38  1  0  0  0  0
 15 16  1  0  0  0  0
 15 20  1  0  0  0  0
 16 17  2  0  0  0  0
 16 39  1  0  0  0  0
 17 18  1  0  0  0  0
 17 40  1  0  0  0  0
 18 19  2  0  0  0  0
 18 41  1  0  0  0  0
 19 20  1  0  0  0  0
 19 42  1  0  0  0  0
 21 22  1  0  0  0  0
 21 27  2  0  0  0  0
 22 23  2  0  0  0  0
 22 43  1  0  0  0  0
 23 24  1  0  0  0  0
 23 25  1  0  0  0  0
 25 26  2  0  0  0  0
 25 44  1  0  0  0  0
 26 27  1  0  0  0  0
 26 45  1  0  0  0  0
 27 28  1  0  0  0  0
 28 46  1  0  0  0  0
 28 47  1  0  0  0  0
M  END
$$$$
