
 OpenBabel07202414133D

 55 58  0  0  1  0  0  0  0  0999 V2000
    2.3063    0.8931    1.0466 C   0  0  0  0  0  0  0  0  0  0  0  0
    2.4823   -0.4044    1.7614 N   0  0  0  0  0  0  0  0  0  0  0  0
    1.2395   -0.6996    2.5587 C   0  0  0  0  0  0  0  0  0  0  0  0
    1.4031   -1.8311    3.5579 C   0  0  0  0  0  0  0  0  0  0  0  0
    0.1229   -2.0296    4.3529 C   0  0  0  0  0  0  0  0  0  0  0  0
   -0.9391   -2.1943    5.0125 N   0  0  0  0  0  0  0  0  0  0  0  0
    3.0647   -1.6566    0.7706 S   0  0  0  0  0  0  0  0  0  0  0  0
    2.8878   -2.9203    1.4434 O   0  0  0  0  0  0  0  0  0  0  0  0
    2.5964   -1.4630   -0.5750 O   0  0  0  0  0  0  0  0  0  0  0  0
    4.7155   -1.4148    0.8328 N   0  0  0  0  0  0  0  0  0  0  0  0
    5.3627   -1.2306    2.1530 C   0  0  0  0  0  0  0  0  0  0  0  0
    6.8408   -1.6304    2.1072 C   0  0  3  0  0  0  0  0  0  0  0  0
    7.0921   -3.1476    2.1701 C   0  0  0  0  0  0  0  0  0  0  0  0
    8.1158   -3.5641    2.7123 O   0  0  0  0  0  0  0  0  0  0  0  0
    6.1532   -3.9418    1.5366 N   0  0  0  0  0  0  0  0  0  0  0  0
    6.1851   -5.3589    1.3912 C   0  0  0  0  0  0  0  0  0  0  0  0
    7.0806   -6.1654    2.0966 C   0  0  0  0  0  0  0  0  0  0  0  0
    7.2277   -7.4998    1.9170 N   0  0  0  0  0  0  0  0  0  0  0  0
    6.4156   -8.0760    1.0098 C   0  0  0  0  0  0  0  0  0  0  0  0
    5.4130   -7.4091    0.3098 C   0  0  0  0  0  0  0  0  0  0  0  0
    4.5466   -8.1104   -0.5509 C   0  0  0  0  0  0  0  0  0  0  0  0
    3.5298   -7.4492   -1.2336 C   0  0  0  0  0  0  0  0  0  0  0  0
    3.3928   -6.0777   -1.0900 C   0  0  0  0  0  0  0  0  0  0  0  0
    4.2666   -5.3722   -0.2567 C   0  0  0  0  0  0  0  0  0  0  0  0
    5.2872   -6.0110    0.4918 C   0  0  0  0  0  0  0  0  0  0  0  0
    7.5571   -0.9666    0.9445 C   0  0  0  0  0  0  0  0  0  0  0  0
    8.9345   -0.7092    1.0145 C   0  0  0  0  0  0  0  0  0  0  0  0
    9.5915   -0.0912   -0.0494 C   0  0  0  0  0  0  0  0  0  0  0  0
   11.2696    0.2654    0.0634 Cl  0  0  0  0  0  0  0  0  0  0  0  0
    8.8938    0.2580   -1.2028 C   0  0  0  0  0  0  0  0  0  0  0  0
    7.5264    0.0087   -1.2824 C   0  0  0  0  0  0  0  0  0  0  0  0
    6.8456   -0.5853   -0.2070 C   0  0  0  0  0  0  0  0  0  0  0  0
    5.3503   -0.7725   -0.3226 C   0  0  0  0  0  0  0  0  0  0  0  0
    2.1401    1.6984    1.7700 H   0  0  0  0  0  0  0  0  0  0  0  0
    1.4384    0.8498    0.3787 H   0  0  0  0  0  0  0  0  0  0  0  0
    3.1927    1.1608    0.4709 H   0  0  0  0  0  0  0  0  0  0  0  0
    0.3969   -0.8773    1.8807 H   0  0  0  0  0  0  0  0  0  0  0  0
    0.9923    0.2081    3.1297 H   0  0  0  0  0  0  0  0  0  0  0  0
    2.2420   -1.6487    4.2376 H   0  0  0  0  0  0  0  0  0  0  0  0
    1.5533   -2.8013    3.0905 H   0  0  0  0  0  0  0  0  0  0  0  0
    4.8499   -1.8242    2.9196 H   0  0  0  0  0  0  0  0  0  0  0  0
    5.2752   -0.1748    2.4403 H   0  0  0  0  0  0  0  0  0  0  0  0
    7.2766   -1.2368    3.0385 H   0  0  0  0  0  0  0  0  0  0  0  0
    5.4188   -3.4544    1.0371 H   0  0  0  0  0  0  0  0  0  0  0  0
    7.7275   -5.7724    2.8738 H   0  0  0  0  0  0  0  0  0  0  0  0
    6.5974   -9.1374    0.8596 H   0  0  0  0  0  0  0  0  0  0  0  0
    4.6478   -9.1864   -0.6779 H   0  0  0  0  0  0  0  0  0  0  0  0
    2.8471   -8.0027   -1.8726 H   0  0  0  0  0  0  0  0  0  0  0  0
    2.6041   -5.5468   -1.6181 H   0  0  0  0  0  0  0  0  0  0  0  0
    4.1126   -4.3034   -0.1969 H   0  0  0  0  0  0  0  0  0  0  0  0
    9.5004   -0.9841    1.9036 H   0  0  0  0  0  0  0  0  0  0  0  0
    9.4072    0.7295   -2.0375 H   0  0  0  0  0  0  0  0  0  0  0  0
    6.9888    0.2839   -2.1875 H   0  0  0  0  0  0  0  0  0  0  0  0
    5.1724   -1.4123   -1.1966 H   0  0  0  0  0  0  0  0  0  0  0  0
    4.8971    0.2069   -0.5002 H   0  0  0  0  0  0  0  0  0  0  0  0
  1  2  1  0  0  0  0
  1 34  1  0  0  0  0
  1 35  1  0  0  0  0
  1 36  1  0  0  0  0
  2  3  1  0  0  0  0
  2  7  1  0  0  0  0
  3  4  1  0  0  0  0
  3 37  1  0  0  0  0
  3 38  1  0  0  0  0
  4  5  1  0  0  0  0
  4 39  1  0  0  0  0
  4 40  1  0  0  0  0
  5  6  3  0  0  0  0
  7  8  2  0  0  0  0
  7  9  2  0  0  0  0
  7 10  1  0  0  0  0
 10 11  1  0  0  0  0
 10 33  1  0  0  0  0
 11 12  1  0  0  0  0
 11 41  1  0  0  0  0
 11 42  1  0  0  0  0
 12 13  1  0  0  0  0
 12 26  1  0  0  0  0
 12 43  1  0  0  0  0
 13 14  2  0  0  0  0
 13 15  1  0  0  0  0
 15 16  1  0  0  0  0
 15 44  1  0  0  0  0
 16 17  1  0  0  0  0
 16 25  2  0  0  0  0
 17 18  2  0  0  0  0
 17 45  1  0  0  0  0
 18 19  1  0  0  0  0
 19 20  2  0  0  0  0
 19 46  1  0  0  0  0
 20 21  1  0  0  0  0
 20 25  1  0  0  0  0
 21 22  2  0  0  0  0
 21 47  1  0  0  0  0
 22 23  1  0  0  0  0
 22 48  1  0  0  0  0
 23 24  2  0  0  0  0
 23 49  1  0  0  0  0
 24 25  1  0  0  0  0
 24 50  1  0  0  0  0
 26 27  1  0  0  0  0
 26 32  2  0  0  0  0
 27 28  2  0  0  0  0
 27 51  1  0  0  0  0
 28 29  1  0  0  0  0
 28 30  1  0  0  0  0
 30 31  2  0  0  0  0
 30 52  1  0  0  0  0
 31 32  1  0  0  0  0
 31 53  1  0  0  0  0
 32 33  1  0  0  0  0
 33 54  1  0  0  0  0
 33 55  1  0  0  0  0
M  END
$$$$
