
 OpenBabel07202414163D

 44 46  0  0  0  0  0  0  0  0999 V2000
    0.5398    1.8851    1.3992 C   0  0  0  0  0  0  0  0  0  0  0  0
   -0.2994    0.8053    0.7754 C   0  0  0  0  0  0  0  0  0  0  0  0
   -1.6874    0.9879    0.6789 C   0  0  0  0  0  0  0  0  0  0  0  0
   -2.5628    0.0567    0.0716 C   0  0  0  0  0  0  0  0  0  0  0  0
   -2.0034   -1.1453   -0.3956 C   0  0  0  0  0  0  0  0  0  0  0  0
   -0.6088   -1.3363   -0.2824 C   0  0  0  0  0  0  0  0  0  0  0  0
    0.2344   -0.3773    0.2826 C   0  0  0  0  0  0  0  0  0  0  0  0
    1.9254   -0.7100    0.3614 Cl  0  0  0  0  0  0  0  0  0  0  0  0
   -2.5678   -2.2373   -0.9913 O   0  0  0  0  0  0  0  0  0  0  0  0
   -3.9439   -2.3219   -1.2844 C   0  0  0  0  0  0  0  0  0  0  0  0
   -3.9504    0.3790   -0.0106 N   0  0  0  0  0  0  0  0  0  0  0  0
   -4.4559    1.6677    0.0290 C   0  0  0  0  0  0  0  0  0  0  0  0
   -3.7612    2.6782    0.0399 O   0  0  0  0  0  0  0  0  0  0  0  0
   -5.8484    1.6987    0.0558 N   0  0  0  0  0  0  0  0  0  0  0  0
   -6.5954    2.8736    0.0674 C   0  0  0  0  0  0  0  0  0  0  0  0
   -6.1028    4.0251   -0.4181 C   0  0  0  0  0  0  0  0  0  0  0  0
   -6.7334    5.2464   -0.3325 N   0  0  0  0  0  0  0  0  0  0  0  0
   -7.9918    5.3937    0.2324 C   0  0  0  0  0  0  0  0  0  0  0  0
   -8.5661    6.4741    0.3411 O   0  0  0  0  0  0  0  0  0  0  0  0
   -8.6353    4.1509    0.7324 C   0  0  0  0  0  0  0  0  0  0  0  0
   -7.9576    2.9156    0.6646 C   0  0  0  0  0  0  0  0  0  0  0  0
   -8.6042    1.7924    1.2124 C   0  0  0  0  0  0  0  0  0  0  0  0
   -9.8698    1.9019    1.8062 C   0  0  0  0  0  0  0  0  0  0  0  0
  -10.5233    3.1287    1.8525 C   0  0  0  0  0  0  0  0  0  0  0  0
   -9.9077    4.2529    1.3140 C   0  0  0  0  0  0  0  0  0  0  0  0
   -5.9932    6.4489   -0.6848 C   0  0  0  0  0  0  0  0  0  0  0  0
   -0.0695    2.7425    1.7060 H   0  0  0  0  0  0  0  0  0  0  0  0
    1.2808    2.2578    0.6848 H   0  0  0  0  0  0  0  0  0  0  0  0
    1.0445    1.5081    2.2939 H   0  0  0  0  0  0  0  0  0  0  0  0
   -2.0767    1.9028    1.1191 H   0  0  0  0  0  0  0  0  0  0  0  0
   -0.1741   -2.2618   -0.6582 H   0  0  0  0  0  0  0  0  0  0  0  0
   -4.1183   -3.2819   -1.7812 H   0  0  0  0  0  0  0  0  0  0  0  0
   -4.2514   -1.5380   -1.9825 H   0  0  0  0  0  0  0  0  0  0  0  0
   -4.5403   -2.3252   -0.3676 H   0  0  0  0  0  0  0  0  0  0  0  0
   -4.5826   -0.3099   -0.3666 H   0  0  0  0  0  0  0  0  0  0  0  0
   -6.2935    0.8564    0.3801 H   0  0  0  0  0  0  0  0  0  0  0  0
   -5.1343    4.0701   -0.9078 H   0  0  0  0  0  0  0  0  0  0  0  0
   -8.1404    0.8129    1.2197 H   0  0  0  0  0  0  0  0  0  0  0  0
  -10.3422    1.0255    2.2415 H   0  0  0  0  0  0  0  0  0  0  0  0
  -11.5023    3.2152    2.3149 H   0  0  0  0  0  0  0  0  0  0  0  0
  -10.4113    5.2158    1.3613 H   0  0  0  0  0  0  0  0  0  0  0  0
   -5.0312    6.2138   -1.1526 H   0  0  0  0  0  0  0  0  0  0  0  0
   -5.8090    7.0227    0.2298 H   0  0  0  0  0  0  0  0  0  0  0  0
   -6.5877    7.0597   -1.3687 H   0  0  0  0  0  0  0  0  0  0  0  0
  1  2  1  0  0  0  0
  1 27  1  0  0  0  0
  1 28  1  0  0  0  0
  1 29  1  0  0  0  0
  2  3  1  0  0  0  0
  2  7  2  0  0  0  0
  3  4  2  0  0  0  0
  3 30  1  0  0  0  0
  4  5  1  0  0  0  0
  4 11  1  0  0  0  0
  5  6  2  0  0  0  0
  5  9  1  0  0  0  0
  6  7  1  0  0  0  0
  6 31  1  0  0  0  0
  7  8  1  0  0  0  0
  9 10  1  0  0  0  0
 10 32  1  0  0  0  0
 10 33  1  0  0  0  0
 10 34  1  0  0  0  0
 11 12  1  0  0  0  0
 11 35  1  0  0  0  0
 12 13  2  0  0  0  0
 12 14  1  0  0  0  0
 14 15  1  0  0  0  0
 14 36  1  0  0  0  0
 15 16  2  0  0  0  0
 15 21  1  0  0  0  0
 16 17  1  0  0  0  0
 16 37  1  0  0  0  0
 17 18  1  0  0  0  0
 17 26  1  0  0  0  0
 18 19  2  0  0  0  0
 18 20  1  0  0  0  0
 20 21  1  0  0  0  0
 20 25  2  0  0  0  0
 21 22  2  0  0  0  0
 22 23  1  0  0  0  0
 22 38  1  0  0  0  0
 23 24  2  0  0  0  0
 23 39  1  0  0  0  0
 24 25  1  0  0  0  0
 24 40  1  0  0  0  0
 25 41  1  0  0  0  0
 26 42  1  0  0  0  0
 26 43  1  0  0  0  0
 26 44  1  0  0  0  0
M  END
$$$$
