
 OpenBabel07202414153D

 40 43  0  0  1  0  0  0  0  0999 V2000
    4.2524    0.2759    2.3665 C   0  0  0  0  0  0  0  0  0  0  0  0
    3.5242    1.4336    1.9848 O   0  0  0  0  0  0  0  0  0  0  0  0
    3.0429    1.4305    0.6293 C   0  0  1  0  0  0  0  0  0  0  0  0
    2.1996    2.7175    0.5068 C   0  0  0  0  0  0  0  0  0  0  0  0
    2.1469    3.3061   -0.8945 C   0  0  0  0  0  0  0  0  0  0  0  0
    3.5675    3.5088   -1.3671 C   0  0  1  0  0  0  0  0  0  0  0  0
    4.2338    2.2443   -1.4722 N   0  0  0  0  0  0  0  0  0  0  0  0
    4.1841    1.2602   -0.4103 C   0  0  0  0  0  0  0  0  0  0  0  0
    4.8250    2.0640   -2.7148 C   0  0  0  0  0  0  0  0  0  0  0  0
    5.4033    1.0407   -3.0476 O   0  0  0  0  0  0  0  0  0  0  0  0
    4.5360    3.1727   -3.4820 N   0  0  0  0  0  0  0  0  0  0  0  0
    4.8362    3.3146   -4.8578 C   0  0  0  0  0  0  0  0  0  0  0  0
    6.1379    3.1276   -5.4037 C   0  0  0  0  0  0  0  0  0  0  0  0
    7.3073    2.8106   -4.6656 C   0  0  0  0  0  0  0  0  0  0  0  0
    8.5599    2.6874   -5.2772 C   0  0  0  0  0  0  0  0  0  0  0  0
    8.6912    2.8938   -6.6433 C   0  0  0  0  0  0  0  0  0  0  0  0
    7.5697    3.2216   -7.3989 C   0  0  0  0  0  0  0  0  0  0  0  0
    6.3055    3.3411   -6.7946 C   0  0  0  0  0  0  0  0  0  0  0  0
    5.1911    3.7009   -7.5529 C   0  0  0  0  0  0  0  0  0  0  0  0
    3.9507    3.8802   -7.0594 N   0  0  0  0  0  0  0  0  0  0  0  0
    3.8114    3.6994   -5.7297 C   0  0  0  0  0  0  0  0  0  0  0  0
    3.6772    4.0054   -2.7938 C   0  0  0  0  0  0  0  0  0  0  0  0
    3.1198    5.0138   -3.2054 O   0  0  0  0  0  0  0  0  0  0  0  0
    4.2176    0.1983    3.4566 H   0  0  0  0  0  0  0  0  0  0  0  0
    5.3009    0.3835    2.0752 H   0  0  0  0  0  0  0  0  0  0  0  0
    3.8275   -0.6332    1.9325 H   0  0  0  0  0  0  0  0  0  0  0  0
    2.3572    0.5787    0.5245 H   0  0  0  0  0  0  0  0  0  0  0  0
    2.5915    3.4819    1.1920 H   0  0  0  0  0  0  0  0  0  0  0  0
    1.1798    2.5149    0.8579 H   0  0  0  0  0  0  0  0  0  0  0  0
    1.6043    4.2581   -0.8852 H   0  0  0  0  0  0  0  0  0  0  0  0
    1.6011    2.6326   -1.5672 H   0  0  0  0  0  0  0  0  0  0  0  0
    4.1480    4.1635   -0.7070 H   0  0  0  0  0  0  0  0  0  0  0  0
    5.1721    1.2611    0.0577 H   0  0  0  0  0  0  0  0  0  0  0  0
    4.0732    0.2783   -0.8890 H   0  0  0  0  0  0  0  0  0  0  0  0
    7.2662    2.6594   -3.5899 H   0  0  0  0  0  0  0  0  0  0  0  0
    9.4321    2.4354   -4.6790 H   0  0  0  0  0  0  0  0  0  0  0  0
    9.6645    2.8084   -7.1193 H   0  0  0  0  0  0  0  0  0  0  0  0
    7.6899    3.3984   -8.4660 H   0  0  0  0  0  0  0  0  0  0  0  0
    5.2705    3.8760   -8.6231 H   0  0  0  0  0  0  0  0  0  0  0  0
    2.7922    3.8463   -5.3787 H   0  0  0  0  0  0  0  0  0  0  0  0
  1  2  1  0  0  0  0
  1 24  1  0  0  0  0
  1 25  1  0  0  0  0
  1 26  1  0  0  0  0
  3  4  1  0  0  0  0
  3  8  1  0  0  0  0
  3  2  1  0  0  0  0
  3 27  1  6  0  0  0
  4  5  1  0  0  0  0
  4 28  1  0  0  0  0
  4 29  1  0  0  0  0
  5  6  1  0  0  0  0
  5 30  1  0  0  0  0
  5 31  1  0  0  0  0
  6  7  1  0  0  0  0
  6 22  1  0  0  0  0
  6 32  1  1  0  0  0
  7  8  1  0  0  0  0
  7  9  1  0  0  0  0
  8 33  1  0  0  0  0
  8 34  1  0  0  0  0
  9 10  2  0  0  0  0
  9 11  1  0  0  0  0
 11 12  1  0  0  0  0
 11 22  1  0  0  0  0
 12 13  2  0  0  0  0
 12 21  1  0  0  0  0
 13 14  1  0  0  0  0
 13 18  1  0  0  0  0
 14 15  2  0  0  0  0
 14 35  1  0  0  0  0
 15 16  1  0  0  0  0
 15 36  1  0  0  0  0
 16 17  2  0  0  0  0
 16 37  1  0  0  0  0
 17 18  1  0  0  0  0
 17 38  1  0  0  0  0
 18 19  2  0  0  0  0
 19 20  1  0  0  0  0
 19 39  1  0  0  0  0
 20 21  2  0  0  0  0
 21 40  1  0  0  0  0
 22 23  2  0  0  0  0
M  END
$$$$
