
 OpenBabel07202414133D

 58 60  0  0  1  0  0  0  0  0999 V2000
    1.2702   -0.6003    0.1621 C   0  0  0  0  0  0  0  0  0  0  0  0
    2.7893   -0.5476    0.0940 C   0  0  0  0  0  0  0  0  0  0  0  0
    3.2497   -0.0221   -1.2568 C   0  0  0  0  0  0  0  0  0  0  0  0
    4.6783    0.0227   -1.3045 O   0  0  0  0  0  0  0  0  0  0  0  0
    5.2480   -0.0954   -2.5528 C   0  0  0  0  0  0  0  0  0  0  0  0
    6.5174   -0.7229   -2.6021 C   0  0  0  0  0  0  0  0  0  0  0  0
    7.1628   -0.8916   -3.8402 C   0  0  0  0  0  0  0  0  0  0  0  0
    6.5485   -0.4968   -5.0402 C   0  0  0  0  0  0  0  0  0  0  0  0
    5.2863    0.0676   -4.9779 C   0  0  0  0  0  0  0  0  0  0  0  0
    4.6759    0.3525   -3.7584 C   0  0  0  0  0  0  0  0  0  0  0  0
    3.2537    1.3321   -3.9135 Cl  0  0  0  0  0  0  0  0  0  0  0  0
    7.2583   -0.8040   -6.3135 C   0  0  0  0  0  0  0  0  0  0  0  0
    7.9925   -1.7962   -6.2783 O   0  0  0  0  0  0  0  0  0  0  0  0
    7.1265   -0.0285   -7.4669 N   0  0  0  0  0  0  0  0  0  0  0  0
    7.6980   -0.5891   -8.6917 C   0  0  0  0  0  0  0  0  0  0  0  0
    8.2700    0.4821   -9.6135 C   0  0  0  0  0  0  0  0  0  0  0  0
    7.2875    1.6236   -9.9412 C   0  0  0  0  0  0  0  0  0  0  0  0
    6.7482    2.1650   -8.6060 C   0  0  0  0  0  0  0  0  0  0  0  0
    6.2192    1.0982   -7.6612 C   0  0  0  0  0  0  0  0  0  0  0  0
    6.1685    1.2476  -10.9575 C   0  0  3  0  0  0  0  0  0  0  0  0
    6.6838    0.8803  -12.3562 C   0  0  0  0  0  0  0  0  0  0  0  0
    6.5889    2.1721  -13.1428 C   0  0  0  0  0  0  0  0  0  0  0  0
    5.3300    2.7574  -12.6865 N   0  0  0  0  0  0  0  0  0  0  0  0
    5.2226    2.4303  -11.2594 C   0  0  0  0  0  0  0  0  0  0  0  0
    7.0632   -1.1662   -1.4142 O   0  0  0  0  0  0  0  0  0  0  0  0
    8.3510   -1.7937   -1.4897 C   0  0  0  0  0  0  0  0  0  0  0  0
    8.7945   -2.2392   -0.1083 C   0  0  0  0  0  0  0  0  0  0  0  0
    0.9463   -0.9822    1.1339 H   0  0  0  0  0  0  0  0  0  0  0  0
    0.8639   -1.2575   -0.6142 H   0  0  0  0  0  0  0  0  0  0  0  0
    0.8353    0.3951    0.0256 H   0  0  0  0  0  0  0  0  0  0  0  0
    3.2104   -1.5452    0.2646 H   0  0  0  0  0  0  0  0  0  0  0  0
    3.1790    0.0962    0.8910 H   0  0  0  0  0  0  0  0  0  0  0  0
    2.8610    0.9957   -1.3634 H   0  0  0  0  0  0  0  0  0  0  0  0
    2.8424   -0.6790   -2.0363 H   0  0  0  0  0  0  0  0  0  0  0  0
    8.1364   -1.3602   -3.9088 H   0  0  0  0  0  0  0  0  0  0  0  0
    4.7369    0.3017   -5.8786 H   0  0  0  0  0  0  0  0  0  0  0  0
    6.9087   -1.1650   -9.1847 H   0  0  0  0  0  0  0  0  0  0  0  0
    8.5006   -1.2902   -8.4458 H   0  0  0  0  0  0  0  0  0  0  0  0
    8.6575    0.0065  -10.5180 H   0  0  0  0  0  0  0  0  0  0  0  0
    9.1389    0.9242   -9.1066 H   0  0  0  0  0  0  0  0  0  0  0  0
    7.8752    2.4309  -10.3967 H   0  0  0  0  0  0  0  0  0  0  0  0
    5.9658    2.9153   -8.7450 H   0  0  0  0  0  0  0  0  0  0  0  0
    7.5679    2.6846   -8.0923 H   0  0  0  0  0  0  0  0  0  0  0  0
    5.2664    0.6934   -8.0280 H   0  0  0  0  0  0  0  0  0  0  0  0
    6.0450    1.6127   -6.7141 H   0  0  0  0  0  0  0  0  0  0  0  0
    5.5940    0.4009  -10.5627 H   0  0  0  0  0  0  0  0  0  0  0  0
    6.0075    0.1397  -12.8048 H   0  0  0  0  0  0  0  0  0  0  0  0
    7.6909    0.4608  -12.3839 H   0  0  0  0  0  0  0  0  0  0  0  0
    6.5768    2.0021  -14.2237 H   0  0  0  0  0  0  0  0  0  0  0  0
    7.4232    2.8442  -12.9128 H   0  0  0  0  0  0  0  0  0  0  0  0
    4.5587    2.3120  -13.1848 H   0  0  0  0  0  0  0  0  0  0  0  0
    4.1880    2.1637  -11.0169 H   0  0  0  0  0  0  0  0  0  0  0  0
    5.4691    3.3328  -10.6957 H   0  0  0  0  0  0  0  0  0  0  0  0
    9.0893   -1.0809   -1.8760 H   0  0  0  0  0  0  0  0  0  0  0  0
    8.3070   -2.6791   -2.1354 H   0  0  0  0  0  0  0  0  0  0  0  0
    8.8470   -1.3874    0.5759 H   0  0  0  0  0  0  0  0  0  0  0  0
    9.7818   -2.7113   -0.1574 H   0  0  0  0  0  0  0  0  0  0  0  0
    8.0850   -2.9571    0.3144 H   0  0  0  0  0  0  0  0  0  0  0  0
  1  2  1  0  0  0  0
  1 28  1  0  0  0  0
  1 29  1  0  0  0  0
  1 30  1  0  0  0  0
  2  3  1  0  0  0  0
  2 31  1  0  0  0  0
  2 32  1  0  0  0  0
  3  4  1  0  0  0  0
  3 33  1  0  0  0  0
  3 34  1  0  0  0  0
  4  5  1  0  0  0  0
  5  6  1  0  0  0  0
  5 10  2  0  0  0  0
  6  7  2  0  0  0  0
  6 25  1  0  0  0  0
  7  8  1  0  0  0  0
  7 35  1  0  0  0  0
  8  9  2  0  0  0  0
  8 12  1  0  0  0  0
  9 10  1  0  0  0  0
  9 36  1  0  0  0  0
 10 11  1  0  0  0  0
 12 13  2  0  0  0  0
 12 14  1  0  0  0  0
 14 15  1  0  0  0  0
 14 19  1  0  0  0  0
 15 16  1  0  0  0  0
 15 37  1  0  0  0  0
 15 38  1  0  0  0  0
 16 17  1  0  0  0  0
 16 39  1  0  0  0  0
 16 40  1  0  0  0  0
 17 18  1  0  0  0  0
 17 20  1  0  0  0  0
 17 41  1  0  0  0  0
 18 19  1  0  0  0  0
 18 42  1  0  0  0  0
 18 43  1  0  0  0  0
 19 44  1  0  0  0  0
 19 45  1  0  0  0  0
 20 21  1  0  0  0  0
 20 24  1  0  0  0  0
 20 46  1  0  0  0  0
 21 22  1  0  0  0  0
 21 47  1  0  0  0  0
 21 48  1  0  0  0  0
 22 23  1  0  0  0  0
 22 49  1  0  0  0  0
 22 50  1  0  0  0  0
 23 24  1  0  0  0  0
 23 51  1  0  0  0  0
 24 52  1  0  0  0  0
 24 53  1  0  0  0  0
 25 26  1  0  0  0  0
 26 27  1  0  0  0  0
 26 54  1  0  0  0  0
 26 55  1  0  0  0  0
 27 56  1  0  0  0  0
 27 57  1  0  0  0  0
 27 58  1  0  0  0  0
M  END
$$$$
