
 OpenBabel07202414183D

 58 63  0  0  1  0  0  0  0  0999 V2000
    0.8723   -0.0190   -0.0465 Cl  0  0  0  0  0  0  0  0  0  0  0  0
    2.5859    0.0282   -0.2035 C   0  0  0  0  0  0  0  0  0  0  0  0
    3.3174   -1.1455   -0.0671 C   0  0  0  0  0  0  0  0  0  0  0  0
    4.7071   -1.1010   -0.1395 C   0  0  0  0  0  0  0  0  0  0  0  0
    5.3784    0.1214   -0.3204 C   0  0  0  0  0  0  0  0  0  0  0  0
    4.6369    1.3239   -0.4756 C   0  0  0  0  0  0  0  0  0  0  0  0
    3.2299    1.2491   -0.4199 C   0  0  0  0  0  0  0  0  0  0  0  0
    5.3490    2.6958   -0.4883 C   0  0  2  0  0  0  0  0  0  0  0  0
    6.8791    2.5124   -0.6798 C   0  0  0  0  0  0  0  0  0  0  0  0
    7.4765    1.3815    0.1750 N   0  0  0  0  0  0  0  0  0  0  0  0
    7.5767    1.5451    1.8931 S   0  0  0  0  0  0  0  0  0  0  0  0
    7.8652    2.9363    2.1659 O   0  0  0  0  0  0  0  0  0  0  0  0
    6.4173    0.8904    2.4695 O   0  0  0  0  0  0  0  0  0  0  0  0
    9.0512    0.6443    2.3843 C   0  0  0  0  0  0  0  0  0  0  0  0
    9.1070    0.6673    3.9167 C   0  0  0  0  0  0  0  0  0  0  0  0
    9.2650    1.9757    4.5627 C   0  0  0  0  0  0  0  0  0  0  0  0
    9.4147    2.9663    5.1277 N   0  0  0  0  0  0  0  0  0  0  0  0
    8.3927   -0.4177    4.7111 C   0  0  0  0  0  0  0  0  0  0  0  0
    9.8825   -0.4688    4.5940 C   0  0  0  0  0  0  0  0  0  0  0  0
    6.8941    0.1021   -0.2870 C   0  0  0  0  0  0  0  0  0  0  0  0
    5.1429    3.3668    0.8601 C   0  0  0  0  0  0  0  0  0  0  0  0
    4.3373    4.5952    0.6544 C   0  0  0  0  0  0  0  0  0  0  0  0
    3.9431    4.6781   -0.7162 N   0  0  0  0  0  0  0  0  0  0  0  0
    3.3068    5.9190   -1.1240 C   0  0  0  0  0  0  0  0  0  0  0  0
    3.6002    6.5202   -2.3453 C   0  0  0  0  0  0  0  0  0  0  0  0
    3.4181    7.8438   -2.6000 N   0  0  0  0  0  0  0  0  0  0  0  0
    2.8294    8.5828   -1.6336 C   0  0  0  0  0  0  0  0  0  0  0  0
    2.2625    8.0628   -0.4747 C   0  0  0  0  0  0  0  0  0  0  0  0
    1.4745    8.8734    0.3808 C   0  0  0  0  0  0  0  0  0  0  0  0
    0.9447    8.3775    1.5690 C   0  0  0  0  0  0  0  0  0  0  0  0
    1.1764    7.0598    1.9018 C   0  0  0  0  0  0  0  0  0  0  0  0
    1.8701    6.2382    1.0059 C   0  0  0  0  0  0  0  0  0  0  0  0
    2.4957    6.6989   -0.1929 C   0  0  0  0  0  0  0  0  0  0  0  0
    4.6886    3.7361   -1.4811 C   0  0  0  0  0  0  0  0  0  0  0  0
    4.7951    3.6824   -2.6969 O   0  0  0  0  0  0  0  0  0  0  0  0
    2.8168   -2.0913    0.1223 H   0  0  0  0  0  0  0  0  0  0  0  0
    5.2687   -2.0232    0.0005 H   0  0  0  0  0  0  0  0  0  0  0  0
    2.6218    2.1487   -0.4864 H   0  0  0  0  0  0  0  0  0  0  0  0
    7.4332    3.4411   -0.4980 H   0  0  0  0  0  0  0  0  0  0  0  0
    7.0896    2.2607   -1.7292 H   0  0  0  0  0  0  0  0  0  0  0  0
    9.9237    1.1443    1.9574 H   0  0  0  0  0  0  0  0  0  0  0  0
    8.9775   -0.3824    2.0124 H   0  0  0  0  0  0  0  0  0  0  0  0
    7.8165   -1.1670    4.1796 H   0  0  0  0  0  0  0  0  0  0  0  0
    7.9741   -0.1806    5.6879 H   0  0  0  0  0  0  0  0  0  0  0  0
   10.3086   -1.2660    3.9944 H   0  0  0  0  0  0  0  0  0  0  0  0
   10.4585   -0.2719    5.4969 H   0  0  0  0  0  0  0  0  0  0  0  0
    7.2576   -0.7147    0.3475 H   0  0  0  0  0  0  0  0  0  0  0  0
    7.2704   -0.1067   -1.2961 H   0  0  0  0  0  0  0  0  0  0  0  0
    6.0630    3.7358    1.2946 H   0  0  0  0  0  0  0  0  0  0  0  0
    4.6648    2.7187    1.6014 H   0  0  0  0  0  0  0  0  0  0  0  0
    4.9195    5.4903    0.9077 H   0  0  0  0  0  0  0  0  0  0  0  0
    3.5006    4.4895    1.3223 H   0  0  0  0  0  0  0  0  0  0  0  0
    4.0645    5.9847   -3.1694 H   0  0  0  0  0  0  0  0  0  0  0  0
    2.8301    9.6558   -1.8139 H   0  0  0  0  0  0  0  0  0  0  0  0
    1.2395    9.8999    0.1044 H   0  0  0  0  0  0  0  0  0  0  0  0
    0.3310    9.0016    2.2135 H   0  0  0  0  0  0  0  0  0  0  0  0
    0.7910    6.6455    2.8313 H   0  0  0  0  0  0  0  0  0  0  0  0
    1.8492    5.1857    1.2616 H   0  0  0  0  0  0  0  0  0  0  0  0
  1  2  1  0  0  0  0
  2  3  1  0  0  0  0
  2  7  2  0  0  0  0
  3  4  2  0  0  0  0
  3 36  1  0  0  0  0
  4  5  1  0  0  0  0
  4 37  1  0  0  0  0
  5  6  2  0  0  0  0
  5 20  1  0  0  0  0
  6  7  1  0  0  0  0
  7 38  1  0  0  0  0
  8  6  1  6  0  0  0
  8  9  1  0  0  0  0
  8 21  1  0  0  0  0
  8 34  1  0  0  0  0
  9 10  1  0  0  0  0
  9 39  1  0  0  0  0
  9 40  1  0  0  0  0
 10 11  1  0  0  0  0
 10 20  1  0  0  0  0
 11 12  2  0  0  0  0
 11 13  2  0  0  0  0
 11 14  1  0  0  0  0
 14 15  1  0  0  0  0
 14 41  1  0  0  0  0
 14 42  1  0  0  0  0
 15 16  1  0  0  0  0
 15 18  1  0  0  0  0
 15 19  1  0  0  0  0
 16 17  3  0  0  0  0
 18 19  1  0  0  0  0
 18 43  1  0  0  0  0
 18 44  1  0  0  0  0
 19 45  1  0  0  0  0
 19 46  1  0  0  0  0
 20 47  1  0  0  0  0
 20 48  1  0  0  0  0
 21 22  1  0  0  0  0
 21 49  1  0  0  0  0
 21 50  1  0  0  0  0
 22 23  1  0  0  0  0
 22 51  1  0  0  0  0
 22 52  1  0  0  0  0
 23 24  1  0  0  0  0
 23 34  1  0  0  0  0
 24 25  1  0  0  0  0
 24 33  2  0  0  0  0
 25 26  2  0  0  0  0
 25 53  1  0  0  0  0
 26 27  1  0  0  0  0
 27 28  2  0  0  0  0
 27 54  1  0  0  0  0
 28 29  1  0  0  0  0
 28 33  1  0  0  0  0
 29 30  2  0  0  0  0
 29 55  1  0  0  0  0
 30 31  1  0  0  0  0
 30 56  1  0  0  0  0
 31 32  2  0  0  0  0
 31 57  1  0  0  0  0
 32 33  1  0  0  0  0
 32 58  1  0  0  0  0
 34 35  2  0  0  0  0
M  END
$$$$
