
 OpenBabel07202414163D

 37 39  0  0  0  0  0  0  0  0999 V2000
    1.0391   -0.4359   -0.1901 C   0  0  0  0  0  0  0  0  0  0  0  0
    2.5059   -0.2032   -0.1014 C   0  0  0  0  0  0  0  0  0  0  0  0
    3.4230   -1.2779   -0.0224 C   0  0  0  0  0  0  0  0  0  0  0  0
    4.8424   -1.1139    0.0203 C   0  0  0  0  0  0  0  0  0  0  0  0
    5.4897    0.0963    0.0187 N   0  0  0  0  0  0  0  0  0  0  0  0
    4.6515    1.1541   -0.0698 C   0  0  0  0  0  0  0  0  0  0  0  0
    3.2247    1.0029   -0.1151 C   0  0  0  0  0  0  0  0  0  0  0  0
    2.7386    2.2771   -0.2981 C   0  0  0  0  0  0  0  0  0  0  0  0
    3.8571    3.0803   -0.3633 N   0  0  0  0  0  0  0  0  0  0  0  0
    5.0163    2.4318   -0.1673 N   0  0  0  0  0  0  0  0  0  0  0  0
    1.4119    2.6751   -0.4386 N   0  0  0  0  0  0  0  0  0  0  0  0
    1.0679    3.7711   -1.3034 C   0  0  0  0  0  0  0  0  0  0  0  0
    1.9577    4.3497   -1.9121 O   0  0  0  0  0  0  0  0  0  0  0  0
   -0.4010    4.1135   -1.4060 C   0  0  0  0  0  0  0  0  0  0  0  0
   -1.2188    3.1131   -2.1866 C   0  0  0  0  0  0  0  0  0  0  0  0
   -0.9030    2.7998   -3.5180 C   0  0  0  0  0  0  0  0  0  0  0  0
   -1.6679    1.8717   -4.2329 C   0  0  0  0  0  0  0  0  0  0  0  0
   -2.7688    1.2597   -3.6356 C   0  0  0  0  0  0  0  0  0  0  0  0
   -3.1175    1.5996   -2.3319 C   0  0  0  0  0  0  0  0  0  0  0  0
   -2.3541    2.5215   -1.6095 C   0  0  0  0  0  0  0  0  0  0  0  0
   -4.4982    0.8810   -1.6004 Cl  0  0  0  0  0  0  0  0  0  0  0  0
    5.7174   -2.3745    0.0228 C   0  0  0  0  0  0  0  0  0  0  0  0
    4.9841   -3.5293    0.0024 F   0  0  0  0  0  0  0  0  0  0  0  0
    6.5345   -2.4470   -1.0640 F   0  0  0  0  0  0  0  0  0  0  0  0
    6.5155   -2.4672    1.1180 F   0  0  0  0  0  0  0  0  0  0  0  0
    0.8201   -1.4826   -0.4371 H   0  0  0  0  0  0  0  0  0  0  0  0
    0.5867    0.1731   -0.9815 H   0  0  0  0  0  0  0  0  0  0  0  0
    0.5648   -0.2132    0.7704 H   0  0  0  0  0  0  0  0  0  0  0  0
    3.0268   -2.2978   -0.0261 H   0  0  0  0  0  0  0  0  0  0  0  0
    3.8881    4.0834   -0.5171 H   0  0  0  0  0  0  0  0  0  0  0  0
    0.6837    2.1131   -0.0171 H   0  0  0  0  0  0  0  0  0  0  0  0
   -0.4957    5.1005   -1.8736 H   0  0  0  0  0  0  0  0  0  0  0  0
   -0.7802    4.2135   -0.3824 H   0  0  0  0  0  0  0  0  0  0  0  0
   -0.0706    3.2842   -4.0284 H   0  0  0  0  0  0  0  0  0  0  0  0
   -1.4131    1.6320   -5.2640 H   0  0  0  0  0  0  0  0  0  0  0  0
   -3.3573    0.5364   -4.1948 H   0  0  0  0  0  0  0  0  0  0  0  0
   -2.6687    2.7865   -0.6019 H   0  0  0  0  0  0  0  0  0  0  0  0
  1  2  1  0  0  0  0
  1 26  1  0  0  0  0
  1 27  1  0  0  0  0
  1 28  1  0  0  0  0
  2  3  2  0  0  0  0
  2  7  1  0  0  0  0
  3  4  1  0  0  0  0
  3 29  1  0  0  0  0
  4  5  2  0  0  0  0
  4 22  1  0  0  0  0
  5  6  1  0  0  0  0
  6  7  1  0  0  0  0
  6 10  2  0  0  0  0
  7  8  2  0  0  0  0
  8  9  1  0  0  0  0
  8 11  1  0  0  0  0
  9 10  1  0  0  0  0
  9 30  1  0  0  0  0
 11 12  1  0  0  0  0
 11 31  1  0  0  0  0
 12 13  2  0  0  0  0
 12 14  1  0  0  0  0
 14 15  1  0  0  0  0
 14 32  1  0  0  0  0
 14 33  1  0  0  0  0
 15 16  1  0  0  0  0
 15 20  2  0  0  0  0
 16 17  2  0  0  0  0
 16 34  1  0  0  0  0
 17 18  1  0  0  0  0
 17 35  1  0  0  0  0
 18 19  2  0  0  0  0
 18 36  1  0  0  0  0
 19 20  1  0  0  0  0
 19 21  1  0  0  0  0
 20 37  1  0  0  0  0
 22 23  1  0  0  0  0
 22 24  1  0  0  0  0
 22 25  1  0  0  0  0
M  END
$$$$
