
 OpenBabel07202414143D

 41 43  0  0  0  0  0  0  0  0999 V2000
    1.1822   -0.2477   -0.8087 C   0  0  0  0  0  0  0  0  0  0  0  0
    2.6228   -0.1966   -0.7537 N   0  0  0  0  0  0  0  0  0  0  0  0
    3.2566    1.0156   -0.6080 C   0  0  0  0  0  0  0  0  0  0  0  0
    2.6595    2.0824   -0.5285 O   0  0  0  0  0  0  0  0  0  0  0  0
    4.7420    1.0078   -0.5219 C   0  0  0  0  0  0  0  0  0  0  0  0
    5.5176    0.0265   -1.1401 C   0  0  0  0  0  0  0  0  0  0  0  0
    6.9067    0.1365   -1.1061 C   0  0  0  0  0  0  0  0  0  0  0  0
    7.5308    1.2325   -0.4820 C   0  0  0  0  0  0  0  0  0  0  0  0
    8.9162    1.3549   -0.4921 C   0  0  0  0  0  0  0  0  0  0  0  0
    9.5973    2.3800    0.0481 N   0  0  0  0  0  0  0  0  0  0  0  0
    8.8621    3.3337    0.6627 C   0  0  0  0  0  0  0  0  0  0  0  0
    7.4689    3.3245    0.7811 C   0  0  0  0  0  0  0  0  0  0  0  0
    6.7762    4.3678    1.4647 N   0  0  0  0  0  0  0  0  0  0  0  0
    7.3643    5.2771    2.3354 C   0  0  0  0  0  0  0  0  0  0  0  0
    8.5419    5.2713    2.6894 O   0  0  0  0  0  0  0  0  0  0  0  0
    6.4138    6.3168    2.8953 C   0  0  0  0  0  0  0  0  0  0  0  0
    5.7390    5.8748    4.1711 C   0  0  0  0  0  0  0  0  0  0  0  0
    6.4950    5.5239    5.3022 C   0  0  0  0  0  0  0  0  0  0  0  0
    5.8661    5.1686    6.4979 C   0  0  0  0  0  0  0  0  0  0  0  0
    4.4748    5.1550    6.5762 C   0  0  0  0  0  0  0  0  0  0  0  0
    3.7182    5.4798    5.4526 C   0  0  0  0  0  0  0  0  0  0  0  0
    2.0010    5.4218    5.5332 Cl  0  0  0  0  0  0  0  0  0  0  0  0
    4.3412    5.8470    4.2582 C   0  0  0  0  0  0  0  0  0  0  0  0
    6.7705    2.2446    0.1632 C   0  0  0  0  0  0  0  0  0  0  0  0
    5.3647    2.0851    0.1377 C   0  0  0  0  0  0  0  0  0  0  0  0
    0.8680   -1.2890   -0.9222 H   0  0  0  0  0  0  0  0  0  0  0  0
    0.8328    0.3429   -1.6570 H   0  0  0  0  0  0  0  0  0  0  0  0
    0.7726    0.1698    0.1164 H   0  0  0  0  0  0  0  0  0  0  0  0
    3.1293   -1.0529   -0.5747 H   0  0  0  0  0  0  0  0  0  0  0  0
    5.0635   -0.7980   -1.6854 H   0  0  0  0  0  0  0  0  0  0  0  0
    7.5062   -0.6305   -1.5987 H   0  0  0  0  0  0  0  0  0  0  0  0
    9.5500    0.6049   -0.9638 H   0  0  0  0  0  0  0  0  0  0  0  0
    9.4727    4.1450    1.0437 H   0  0  0  0  0  0  0  0  0  0  0  0
    5.7676    4.3706    1.4151 H   0  0  0  0  0  0  0  0  0  0  0  0
    5.6794    6.5890    2.1285 H   0  0  0  0  0  0  0  0  0  0  0  0
    6.9896    7.2301    3.0959 H   0  0  0  0  0  0  0  0  0  0  0  0
    7.5846    5.5271    5.2620 H   0  0  0  0  0  0  0  0  0  0  0  0
    6.4628    4.9038    7.3678 H   0  0  0  0  0  0  0  0  0  0  0  0
    3.9885    4.8898    7.5109 H   0  0  0  0  0  0  0  0  0  0  0  0
    3.7306    6.1170    3.3996 H   0  0  0  0  0  0  0  0  0  0  0  0
    4.7161    2.8086    0.6234 H   0  0  0  0  0  0  0  0  0  0  0  0
  1  2  1  0  0  0  0
  1 26  1  0  0  0  0
  1 27  1  0  0  0  0
  1 28  1  0  0  0  0
  2  3  1  0  0  0  0
  2 29  1  0  0  0  0
  3  4  2  0  0  0  0
  3  5  1  0  0  0  0
  5  6  1  0  0  0  0
  5 25  2  0  0  0  0
  6  7  2  0  0  0  0
  6 30  1  0  0  0  0
  7  8  1  0  0  0  0
  7 31  1  0  0  0  0
  8  9  1  0  0  0  0
  8 24  2  0  0  0  0
  9 10  2  0  0  0  0
  9 32  1  0  0  0  0
 10 11  1  0  0  0  0
 11 12  2  0  0  0  0
 11 33  1  0  0  0  0
 12 13  1  0  0  0  0
 12 24  1  0  0  0  0
 13 14  1  0  0  0  0
 13 34  1  0  0  0  0
 14 15  2  0  0  0  0
 14 16  1  0  0  0  0
 16 17  1  0  0  0  0
 16 35  1  0  0  0  0
 16 36  1  0  0  0  0
 17 18  1  0  0  0  0
 17 23  2  0  0  0  0
 18 19  2  0  0  0  0
 18 37  1  0  0  0  0
 19 20  1  0  0  0  0
 19 38  1  0  0  0  0
 20 21  2  0  0  0  0
 20 39  1  0  0  0  0
 21 22  1  0  0  0  0
 21 23  1  0  0  0  0
 23 40  1  0  0  0  0
 24 25  1  0  0  0  0
 25 41  1  0  0  0  0
M  END
$$$$
