
 OpenBabel07202414183D

 59 63  0  0  0  0  0  0  0  0999 V2000
   -1.5099   -3.3398   -4.4951 C   0  0  0  0  0  0  0  0  0  0  0  0
   -1.4831   -2.6354   -3.2386 N   0  0  0  0  0  0  0  0  0  0  0  0
   -2.4425   -2.6555   -2.2678 C   0  0  0  0  0  0  0  0  0  0  0  0
   -1.9757   -1.8162   -1.2727 C   0  0  0  0  0  0  0  0  0  0  0  0
   -0.7436   -1.3054   -1.6352 N   0  0  0  0  0  0  0  0  0  0  0  0
   -0.4745   -1.8228   -2.8124 C   0  0  0  0  0  0  0  0  0  0  0  0
   -2.5765   -1.4790    0.0579 C   0  0  0  0  0  0  0  0  0  0  0  0
   -3.8295   -0.7257   -0.0772 N   0  0  0  0  0  0  0  0  0  0  0  0
   -3.7164    0.6738   -0.1286 C   0  0  0  0  0  0  0  0  0  0  0  0
   -3.7592    1.4348    1.0411 C   0  0  0  0  0  0  0  0  0  0  0  0
   -3.7476    2.8297    0.9531 C   0  0  0  0  0  0  0  0  0  0  0  0
   -3.6949    3.4552   -0.2945 C   0  0  0  0  0  0  0  0  0  0  0  0
   -3.6703    2.6802   -1.4581 C   0  0  0  0  0  0  0  0  0  0  0  0
   -3.6350    1.2926   -1.3754 C   0  0  0  0  0  0  0  0  0  0  0  0
   -3.6646    4.8261   -0.2780 O   0  0  0  0  0  0  0  0  0  0  0  0
   -3.1810    5.4142   -1.4868 C   0  0  0  0  0  0  0  0  0  0  0  0
   -2.6994    6.8178   -1.2403 C   0  0  0  0  0  0  0  0  0  0  0  0
   -1.3343    7.1168   -1.3619 C   0  0  0  0  0  0  0  0  0  0  0  0
   -0.8836    8.4249   -1.2047 C   0  0  0  0  0  0  0  0  0  0  0  0
   -1.7905    9.4410   -0.9178 C   0  0  0  0  0  0  0  0  0  0  0  0
   -3.1490    9.1524   -0.7743 C   0  0  0  0  0  0  0  0  0  0  0  0
   -3.6033    7.8432   -0.9321 C   0  0  0  0  0  0  0  0  0  0  0  0
   -5.0502   -1.4150   -0.1436 C   0  0  0  0  0  0  0  0  0  0  0  0
   -5.0435   -2.6487   -0.1654 O   0  0  0  0  0  0  0  0  0  0  0  0
   -6.3071   -0.6975   -0.1536 C   0  0  0  0  0  0  0  0  0  0  0  0
   -6.7153    0.4338   -0.8403 C   0  0  0  0  0  0  0  0  0  0  0  0
   -8.0499    0.6351   -0.7058 N   0  0  0  0  0  0  0  0  0  0  0  0
   -8.5280   -0.3561    0.0195 N   0  0  0  0  0  0  0  0  0  0  0  0
   -7.4923   -1.1345    0.4350 N   0  0  0  0  0  0  0  0  0  0  0  0
   -7.7446   -2.1788    1.3612 C   0  0  0  0  0  0  0  0  0  0  0  0
   -9.0313   -2.7344    1.4185 C   0  0  0  0  0  0  0  0  0  0  0  0
   -9.3022   -3.7951    2.2816 C   0  0  0  0  0  0  0  0  0  0  0  0
   -8.3006   -4.2859    3.1163 C   0  0  0  0  0  0  0  0  0  0  0  0
   -7.0320   -3.7072    3.0968 C   0  0  0  0  0  0  0  0  0  0  0  0
   -6.7513   -2.6540    2.2250 C   0  0  0  0  0  0  0  0  0  0  0  0
   -2.3168   -4.0762   -4.4867 H   0  0  0  0  0  0  0  0  0  0  0  0
   -0.5503   -3.8444   -4.6377 H   0  0  0  0  0  0  0  0  0  0  0  0
   -1.6761   -2.6094   -5.2912 H   0  0  0  0  0  0  0  0  0  0  0  0
   -3.3447   -3.2480   -2.3438 H   0  0  0  0  0  0  0  0  0  0  0  0
    0.4240   -1.6450   -3.3895 H   0  0  0  0  0  0  0  0  0  0  0  0
   -1.8648   -0.8902    0.6496 H   0  0  0  0  0  0  0  0  0  0  0  0
   -2.7606   -2.4036    0.6171 H   0  0  0  0  0  0  0  0  0  0  0  0
   -3.8082    0.9578    2.0157 H   0  0  0  0  0  0  0  0  0  0  0  0
   -3.7772    3.4307    1.8596 H   0  0  0  0  0  0  0  0  0  0  0  0
   -3.6920    3.1251   -2.4475 H   0  0  0  0  0  0  0  0  0  0  0  0
   -3.6043    0.7005   -2.2865 H   0  0  0  0  0  0  0  0  0  0  0  0
   -3.9823    5.4364   -2.2367 H   0  0  0  0  0  0  0  0  0  0  0  0
   -2.3396    4.8348   -1.8901 H   0  0  0  0  0  0  0  0  0  0  0  0
   -0.6155    6.3309   -1.5909 H   0  0  0  0  0  0  0  0  0  0  0  0
    0.1757    8.6476   -1.3119 H   0  0  0  0  0  0  0  0  0  0  0  0
   -1.4378   10.4630   -0.8022 H   0  0  0  0  0  0  0  0  0  0  0  0
   -3.8527    9.9482   -0.5451 H   0  0  0  0  0  0  0  0  0  0  0  0
   -4.6624    7.6237   -0.8237 H   0  0  0  0  0  0  0  0  0  0  0  0
   -6.1499    1.0926   -1.4777 H   0  0  0  0  0  0  0  0  0  0  0  0
   -9.8286   -2.3788    0.7643 H   0  0  0  0  0  0  0  0  0  0  0  0
  -10.2918   -4.2448    2.2948 H   0  0  0  0  0  0  0  0  0  0  0  0
   -8.5081   -5.1167    3.7838 H   0  0  0  0  0  0  0  0  0  0  0  0
   -6.2567   -4.0797    3.7618 H   0  0  0  0  0  0  0  0  0  0  0  0
   -5.7607   -2.2118    2.2655 H   0  0  0  0  0  0  0  0  0  0  0  0
  1  2  1  0  0  0  0
  1 36  1  0  0  0  0
  1 37  1  0  0  0  0
  1 38  1  0  0  0  0
  2  3  1  0  0  0  0
  2  6  1  0  0  0  0
  3  4  2  0  0  0  0
  3 39  1  0  0  0  0
  4  5  1  0  0  0  0
  4  7  1  0  0  0  0
  5  6  2  0  0  0  0
  6 40  1  0  0  0  0
  7  8  1  0  0  0  0
  7 41  1  0  0  0  0
  7 42  1  0  0  0  0
  8  9  1  0  0  0  0
  8 23  1  0  0  0  0
  9 10  1  0  0  0  0
  9 14  2  0  0  0  0
 10 11  2  0  0  0  0
 10 43  1  0  0  0  0
 11 12  1  0  0  0  0
 11 44  1  0  0  0  0
 12 13  2  0  0  0  0
 12 15  1  0  0  0  0
 13 14  1  0  0  0  0
 13 45  1  0  0  0  0
 14 46  1  0  0  0  0
 15 16  1  0  0  0  0
 16 17  1  0  0  0  0
 16 47  1  0  0  0  0
 16 48  1  0  0  0  0
 17 18  1  0  0  0  0
 17 22  2  0  0  0  0
 18 19  2  0  0  0  0
 18 49  1  0  0  0  0
 19 20  1  0  0  0  0
 19 50  1  0  0  0  0
 20 21  2  0  0  0  0
 20 51  1  0  0  0  0
 21 22  1  0  0  0  0
 21 52  1  0  0  0  0
 22 53  1  0  0  0  0
 23 24  2  0  0  0  0
 23 25  1  0  0  0  0
 25 26  2  0  0  0  0
 25 29  1  0  0  0  0
 26 27  1  0  0  0  0
 26 54  1  0  0  0  0
 27 28  2  0  0  0  0
 28 29  1  0  0  0  0
 29 30  1  0  0  0  0
 30 31  1  0  0  0  0
 30 35  2  0  0  0  0
 31 32  2  0  0  0  0
 31 55  1  0  0  0  0
 32 33  1  0  0  0  0
 32 56  1  0  0  0  0
 33 34  2  0  0  0  0
 33 57  1  0  0  0  0
 34 35  1  0  0  0  0
 34 58  1  0  0  0  0
 35 59  1  0  0  0  0
M  END
$$$$
