
 OpenBabel07202414133D

 52 55  0  0  0  0  0  0  0  0999 V2000
    1.1399   -0.3206   -0.0176 C   0  0  0  0  0  0  0  0  0  0  0  0
    1.9584   -0.3434   -1.2344 N   0  0  0  0  0  0  0  0  0  0  0  0
    2.1507    0.9472   -1.8913 C   0  0  0  0  0  0  0  0  0  0  0  0
    2.8267   -1.4144   -1.4629 C   0  0  0  0  0  0  0  0  0  0  0  0
    2.5818   -2.6913   -0.9246 C   0  0  0  0  0  0  0  0  0  0  0  0
    3.4094   -3.7981   -1.1957 C   0  0  0  0  0  0  0  0  0  0  0  0
    4.5411   -3.6755   -1.9979 C   0  0  0  0  0  0  0  0  0  0  0  0
    4.8235   -2.4164   -2.5307 C   0  0  0  0  0  0  0  0  0  0  0  0
    3.9679   -1.3180   -2.2770 C   0  0  0  0  0  0  0  0  0  0  0  0
    5.3089   -4.8385   -2.3233 N   0  0  0  0  0  0  0  0  0  0  0  0
    6.6099   -5.0524   -1.6768 C   0  0  0  0  0  0  0  0  0  0  0  0
    7.0499   -4.2768   -0.4540 C   0  0  0  0  0  0  0  0  0  0  0  0
    6.6339   -4.6651    0.8298 C   0  0  0  0  0  0  0  0  0  0  0  0
    7.2372   -4.1241    1.9705 C   0  0  0  0  0  0  0  0  0  0  0  0
    8.2524   -3.1782    1.8454 C   0  0  0  0  0  0  0  0  0  0  0  0
    8.6453   -2.7509    0.5793 C   0  0  0  0  0  0  0  0  0  0  0  0
    8.0448   -3.2910   -0.5630 C   0  0  0  0  0  0  0  0  0  0  0  0
    4.8646   -5.6536   -3.4004 C   0  0  0  0  0  0  0  0  0  0  0  0
    3.8357   -5.3948   -4.0329 O   0  0  0  0  0  0  0  0  0  0  0  0
    5.7601   -6.7952   -3.8743 C   0  0  0  0  0  0  0  0  0  0  0  0
    5.2339   -8.1551   -4.0008 N   0  0  0  0  0  0  0  0  0  0  0  0
    3.9909   -8.7366   -3.9175 C   0  0  0  0  0  0  0  0  0  0  0  0
    2.6731   -8.2830   -3.7750 C   0  0  0  0  0  0  0  0  0  0  0  0
    1.6549   -9.2484   -3.6881 C   0  0  0  0  0  0  0  0  0  0  0  0
    1.9323  -10.6140   -3.7425 C   0  0  0  0  0  0  0  0  0  0  0  0
    3.2434  -11.0570   -3.9179 C   0  0  0  0  0  0  0  0  0  0  0  0
    4.2713  -10.1039   -4.0139 C   0  0  0  0  0  0  0  0  0  0  0  0
    5.6080  -10.2924   -4.2021 N   0  0  0  0  0  0  0  0  0  0  0  0
    6.1866   -9.1042   -4.2133 N   0  0  0  0  0  0  0  0  0  0  0  0
    0.5553    0.6042    0.0646 H   0  0  0  0  0  0  0  0  0  0  0  0
    1.7680   -0.3830    0.8768 H   0  0  0  0  0  0  0  0  0  0  0  0
    0.4072   -1.1376   -0.0091 H   0  0  0  0  0  0  0  0  0  0  0  0
    1.3467    1.6498   -1.6393 H   0  0  0  0  0  0  0  0  0  0  0  0
    2.1249    0.8368   -2.9800 H   0  0  0  0  0  0  0  0  0  0  0  0
    3.0931    1.4101   -1.5844 H   0  0  0  0  0  0  0  0  0  0  0  0
    1.7090   -2.8763   -0.3098 H   0  0  0  0  0  0  0  0  0  0  0  0
    3.1393   -4.7693   -0.7874 H   0  0  0  0  0  0  0  0  0  0  0  0
    5.6768   -2.2692   -3.1834 H   0  0  0  0  0  0  0  0  0  0  0  0
    4.2213   -0.3692   -2.7432 H   0  0  0  0  0  0  0  0  0  0  0  0
    7.3784   -4.9552   -2.4542 H   0  0  0  0  0  0  0  0  0  0  0  0
    6.6290   -6.1076   -1.3725 H   0  0  0  0  0  0  0  0  0  0  0  0
    5.8776   -5.4369    0.9534 H   0  0  0  0  0  0  0  0  0  0  0  0
    6.9377   -4.4651    2.9594 H   0  0  0  0  0  0  0  0  0  0  0  0
    8.7449   -2.7847    2.7317 H   0  0  0  0  0  0  0  0  0  0  0  0
    9.4442   -2.0198    0.4808 H   0  0  0  0  0  0  0  0  0  0  0  0
    8.4036   -2.9748   -1.5397 H   0  0  0  0  0  0  0  0  0  0  0  0
    6.6428   -6.9105   -3.2439 H   0  0  0  0  0  0  0  0  0  0  0  0
    6.1316   -6.5264   -4.8716 H   0  0  0  0  0  0  0  0  0  0  0  0
    2.4160   -7.2307   -3.7509 H   0  0  0  0  0  0  0  0  0  0  0  0
    0.6217   -8.9216   -3.5773 H   0  0  0  0  0  0  0  0  0  0  0  0
    1.1240  -11.3382   -3.6598 H   0  0  0  0  0  0  0  0  0  0  0  0
    3.4726  -12.1162   -3.9816 H   0  0  0  0  0  0  0  0  0  0  0  0
  1  2  1  0  0  0  0
  1 30  1  0  0  0  0
  1 31  1  0  0  0  0
  1 32  1  0  0  0  0
  2  3  1  0  0  0  0
  2  4  1  0  0  0  0
  3 33  1  0  0  0  0
  3 34  1  0  0  0  0
  3 35  1  0  0  0  0
  4  5  1  0  0  0  0
  4  9  2  0  0  0  0
  5  6  2  0  0  0  0
  5 36  1  0  0  0  0
  6  7  1  0  0  0  0
  6 37  1  0  0  0  0
  7  8  2  0  0  0  0
  7 10  1  0  0  0  0
  8  9  1  0  0  0  0
  8 38  1  0  0  0  0
  9 39  1  0  0  0  0
 10 11  1  0  0  0  0
 10 18  1  0  0  0  0
 11 12  1  0  0  0  0
 11 40  1  0  0  0  0
 11 41  1  0  0  0  0
 12 13  1  0  0  0  0
 12 17  2  0  0  0  0
 13 14  2  0  0  0  0
 13 42  1  0  0  0  0
 14 15  1  0  0  0  0
 14 43  1  0  0  0  0
 15 16  2  0  0  0  0
 15 44  1  0  0  0  0
 16 17  1  0  0  0  0
 16 45  1  0  0  0  0
 17 46  1  0  0  0  0
 18 19  2  0  0  0  0
 18 20  1  0  0  0  0
 20 21  1  0  0  0  0
 20 47  1  0  0  0  0
 20 48  1  0  0  0  0
 21 22  1  0  0  0  0
 21 29  1  0  0  0  0
 22 23  1  0  0  0  0
 22 27  2  0  0  0  0
 23 24  2  0  0  0  0
 23 49  1  0  0  0  0
 24 25  1  0  0  0  0
 24 50  1  0  0  0  0
 25 26  2  0  0  0  0
 25 51  1  0  0  0  0
 26 27  1  0  0  0  0
 26 52  1  0  0  0  0
 27 28  1  0  0  0  0
 28 29  2  0  0  0  0
M  END
$$$$
