
 OpenBabel07202414113D

 44 45  0  0  1  0  0  0  0  0999 V2000
    8.5333    0.9877   -3.9262 C   0  0  0  0  0  0  0  0  0  0  0  0
    7.9571    0.1186   -3.0813 C   0  0  0  0  0  0  0  0  0  0  0  0
    8.1894    0.2510   -1.6243 C   0  0  0  0  0  0  0  0  0  0  0  0
    8.9909    1.0580   -1.1619 O   0  0  0  0  0  0  0  0  0  0  0  0
    7.4244   -0.5949   -0.8507 N   0  0  0  0  0  0  0  0  0  0  0  0
    7.5167   -0.4427    0.5840 C   0  0  0  0  0  0  0  0  0  0  0  0
    6.8948   -1.5423    1.4594 C   0  0  0  0  0  0  0  0  0  0  0  0
    5.6638   -1.6383    1.5117 O   0  0  0  0  0  0  0  0  0  0  0  0
    7.7328   -2.4088    2.1613 N   0  0  0  0  0  0  0  0  0  0  0  0
    7.1281   -3.3506    3.1214 C   0  0  0  0  0  0  0  0  0  0  0  0
    7.1604   -4.8021    2.6870 C   0  0  0  0  0  0  0  0  0  0  0  0
    7.9371   -5.7463    3.3803 C   0  0  0  0  0  0  0  0  0  0  0  0
    7.9740   -7.0831    2.9714 C   0  0  0  0  0  0  0  0  0  0  0  0
    7.2244   -7.4979    1.8731 C   0  0  0  0  0  0  0  0  0  0  0  0
    6.4180   -6.5811    1.2009 C   0  0  0  0  0  0  0  0  0  0  0  0
    6.3829   -5.2432    1.6067 C   0  0  0  0  0  0  0  0  0  0  0  0
    9.2010   -2.4449    2.0072 C   0  0  0  0  0  0  0  0  0  0  0  0
   10.0039   -1.3003    2.6765 C   0  0  1  0  0  0  0  0  0  0  0  0
    9.7959   -1.1479    4.1543 C   0  0  0  0  0  0  0  0  0  0  0  0
    9.2512   -0.0523    4.7991 C   0  0  0  0  0  0  0  0  0  0  0  0
    9.1589   -0.2399    6.2050 C   0  0  0  0  0  0  0  0  0  0  0  0
    9.6492   -1.4656    6.5907 C   0  0  0  0  0  0  0  0  0  0  0  0
   10.2600   -2.3629    5.2686 S   0  0  0  0  0  0  0  0  0  0  0  0
   11.4001   -1.4637    2.4272 O   0  0  0  0  0  0  0  0  0  0  0  0
    8.3982    0.9069   -4.9958 H   0  0  0  0  0  0  0  0  0  0  0  0
    9.1598    1.7997   -3.5625 H   0  0  0  0  0  0  0  0  0  0  0  0
    7.3447   -0.6929   -3.4432 H   0  0  0  0  0  0  0  0  0  0  0  0
    6.6458   -1.1094   -1.2426 H   0  0  0  0  0  0  0  0  0  0  0  0
    7.0238    0.5004    0.8493 H   0  0  0  0  0  0  0  0  0  0  0  0
    8.5642   -0.2967    0.8031 H   0  0  0  0  0  0  0  0  0  0  0  0
    6.0878   -3.0774    3.3323 H   0  0  0  0  0  0  0  0  0  0  0  0
    7.6567   -3.2359    4.0723 H   0  0  0  0  0  0  0  0  0  0  0  0
    8.5183   -5.4507    4.2515 H   0  0  0  0  0  0  0  0  0  0  0  0
    8.5860   -7.8026    3.5111 H   0  0  0  0  0  0  0  0  0  0  0  0
    7.2605   -8.5350    1.5474 H   0  0  0  0  0  0  0  0  0  0  0  0
    5.8117   -6.9095    0.3602 H   0  0  0  0  0  0  0  0  0  0  0  0
    5.7347   -4.5439    1.0822 H   0  0  0  0  0  0  0  0  0  0  0  0
    9.4171   -2.4396    0.9309 H   0  0  0  0  0  0  0  0  0  0  0  0
    9.5741   -3.4143    2.3596 H   0  0  0  0  0  0  0  0  0  0  0  0
    9.7529   -0.3374    2.2323 H   0  0  0  0  0  0  0  0  0  0  0  0
    8.9270    0.8444    4.2811 H   0  0  0  0  0  0  0  0  0  0  0  0
    8.7505    0.4883    6.8958 H   0  0  0  0  0  0  0  0  0  0  0  0
    9.6919   -1.8746    7.5906 H   0  0  0  0  0  0  0  0  0  0  0  0
   11.7479   -2.0764    3.0942 H   0  0  0  0  0  0  0  0  0  0  0  0
  1  2  2  0  0  0  0
  1 25  1  0  0  0  0
  1 26  1  0  0  0  0
  2  3  1  0  0  0  0
  2 27  1  0  0  0  0
  3  4  2  0  0  0  0
  3  5  1  0  0  0  0
  5  6  1  0  0  0  0
  5 28  1  0  0  0  0
  6  7  1  0  0  0  0
  6 29  1  0  0  0  0
  6 30  1  0  0  0  0
  7  8  2  0  0  0  0
  7  9  1  0  0  0  0
  9 10  1  0  0  0  0
  9 17  1  0  0  0  0
 10 11  1  0  0  0  0
 10 31  1  0  0  0  0
 10 32  1  0  0  0  0
 11 12  1  0  0  0  0
 11 16  2  0  0  0  0
 12 13  2  0  0  0  0
 12 33  1  0  0  0  0
 13 14  1  0  0  0  0
 13 34  1  0  0  0  0
 14 15  2  0  0  0  0
 14 35  1  0  0  0  0
 15 16  1  0  0  0  0
 15 36  1  0  0  0  0
 16 37  1  0  0  0  0
 17 18  1  0  0  0  0
 17 38  1  0  0  0  0
 17 39  1  0  0  0  0
 18 19  1  0  0  0  0
 18 24  1  0  0  0  0
 18 40  1  6  0  0  0
 19 20  2  0  0  0  0
 19 23  1  0  0  0  0
 20 21  1  0  0  0  0
 20 41  1  0  0  0  0
 21 22  2  0  0  0  0
 21 42  1  0  0  0  0
 22 23  1  0  0  0  0
 22 43  1  0  0  0  0
 24 44  1  0  0  0  0
M  END
$$$$
