
 OpenBabel07202414133D

 52 55  0  0  1  0  0  0  0  0999 V2000
    1.2250    0.9104    0.9796 C   0  0  0  0  0  0  0  0  0  0  0  0
    2.5886    0.5812    0.5865 N   0  0  0  0  0  0  0  0  0  0  0  0
    3.3363   -0.3653    1.3931 C   0  0  0  0  0  0  0  0  0  0  0  0
    3.0324    1.0804   -0.6295 C   0  0  0  0  0  0  0  0  0  0  0  0
    2.2764    1.7381   -1.3344 O   0  0  0  0  0  0  0  0  0  0  0  0
    4.4203    0.6418   -1.1118 C   0  0  0  0  0  0  0  0  0  0  0  0
    4.8823    1.1798   -2.5124 C   0  0  2  0  0  0  0  0  0  0  0  0
    3.9139    0.8439   -3.7208 C   0  0  0  0  0  0  0  0  0  0  0  0
    4.1396    1.2691   -4.8497 O   0  0  0  0  0  0  0  0  0  0  0  0
    2.8563    0.0037   -3.4169 N   0  0  0  0  0  0  0  0  0  0  0  0
    1.7934   -0.4754   -4.2282 C   0  0  0  0  0  0  0  0  0  0  0  0
    1.7788   -0.3796   -5.6097 C   0  0  0  0  0  0  0  0  0  0  0  0
    0.8585   -0.9869   -6.3998 N   0  0  0  0  0  0  0  0  0  0  0  0
   -0.1383   -1.6529   -5.7751 C   0  0  0  0  0  0  0  0  0  0  0  0
   -0.3143   -1.7038   -4.3908 C   0  0  0  0  0  0  0  0  0  0  0  0
   -1.4572   -2.2993   -3.8183 C   0  0  0  0  0  0  0  0  0  0  0  0
   -1.6593   -2.2868   -2.4369 C   0  0  0  0  0  0  0  0  0  0  0  0
   -0.6937   -1.7298   -1.6164 C   0  0  0  0  0  0  0  0  0  0  0  0
    0.4614   -1.1805   -2.1831 C   0  0  0  0  0  0  0  0  0  0  0  0
    0.6804   -1.1191   -3.5847 C   0  0  0  0  0  0  0  0  0  0  0  0
    6.2339    0.5038   -2.8826 C   0  0  0  0  0  0  0  0  0  0  0  0
    7.3486    0.9289   -1.9381 C   0  0  0  0  0  0  0  0  0  0  0  0
    7.5714    2.3341   -1.9359 O   0  0  0  0  0  0  0  0  0  0  0  0
    6.4575    3.1248   -1.9992 C   0  0  0  0  0  0  0  0  0  0  0  0
    6.6866    4.4683   -1.6790 C   0  0  0  0  0  0  0  0  0  0  0  0
    5.6340    5.3799   -1.6738 C   0  0  0  0  0  0  0  0  0  0  0  0
    4.3674    4.9584   -2.0568 C   0  0  0  0  0  0  0  0  0  0  0  0
    3.0490    6.0631   -2.0096 Cl  0  0  0  0  0  0  0  0  0  0  0  0
    4.1464    3.6336   -2.4318 C   0  0  0  0  0  0  0  0  0  0  0  0
    5.1766    2.6777   -2.3555 C   0  0  0  0  0  0  0  0  0  0  0  0
    0.9973    0.5387    1.9795 H   0  0  0  0  0  0  0  0  0  0  0  0
    0.5218    0.4735    0.2682 H   0  0  0  0  0  0  0  0  0  0  0  0
    1.0985    1.9988    0.9567 H   0  0  0  0  0  0  0  0  0  0  0  0
    2.7866   -0.6268    2.3006 H   0  0  0  0  0  0  0  0  0  0  0  0
    4.2924    0.0866    1.6709 H   0  0  0  0  0  0  0  0  0  0  0  0
    3.5215   -1.2724    0.8107 H   0  0  0  0  0  0  0  0  0  0  0  0
    4.4266   -0.4544   -1.1459 H   0  0  0  0  0  0  0  0  0  0  0  0
    5.1241    0.9524   -0.3327 H   0  0  0  0  0  0  0  0  0  0  0  0
    2.7288   -0.2194   -2.4504 H   0  0  0  0  0  0  0  0  0  0  0  0
    2.5281    0.1801   -6.1597 H   0  0  0  0  0  0  0  0  0  0  0  0
   -0.8319   -2.1527   -6.4449 H   0  0  0  0  0  0  0  0  0  0  0  0
   -2.2245   -2.7429   -4.4482 H   0  0  0  0  0  0  0  0  0  0  0  0
   -2.5726   -2.6917   -2.0087 H   0  0  0  0  0  0  0  0  0  0  0  0
   -0.8419   -1.6979   -0.5407 H   0  0  0  0  0  0  0  0  0  0  0  0
    1.1671   -0.7503   -1.4837 H   0  0  0  0  0  0  0  0  0  0  0  0
    6.5305    0.7917   -3.9015 H   0  0  0  0  0  0  0  0  0  0  0  0
    6.1394   -0.5890   -2.8811 H   0  0  0  0  0  0  0  0  0  0  0  0
    8.2883    0.4562   -2.2444 H   0  0  0  0  0  0  0  0  0  0  0  0
    7.1705    0.6030   -0.9079 H   0  0  0  0  0  0  0  0  0  0  0  0
    7.6855    4.7962   -1.4030 H   0  0  0  0  0  0  0  0  0  0  0  0
    5.8077    6.4087   -1.3730 H   0  0  0  0  0  0  0  0  0  0  0  0
    3.1446    3.3461   -2.7437 H   0  0  0  0  0  0  0  0  0  0  0  0
  1  2  1  0  0  0  0
  1 31  1  0  0  0  0
  1 32  1  0  0  0  0
  1 33  1  0  0  0  0
  2  3  1  0  0  0  0
  2  4  1  0  0  0  0
  3 34  1  0  0  0  0
  3 35  1  0  0  0  0
  3 36  1  0  0  0  0
  4  5  2  0  0  0  0
  4  6  1  0  0  0  0
  6  7  1  0  0  0  0
  6 37  1  0  0  0  0
  6 38  1  0  0  0  0
  7  8  1  6  0  0  0
  7 21  1  0  0  0  0
  7 30  1  0  0  0  0
  8  9  2  0  0  0  0
  8 10  1  0  0  0  0
 10 11  1  0  0  0  0
 10 39  1  0  0  0  0
 11 12  1  0  0  0  0
 11 20  2  0  0  0  0
 12 13  2  0  0  0  0
 12 40  1  0  0  0  0
 13 14  1  0  0  0  0
 14 15  2  0  0  0  0
 14 41  1  0  0  0  0
 15 16  1  0  0  0  0
 15 20  1  0  0  0  0
 16 17  2  0  0  0  0
 16 42  1  0  0  0  0
 17 18  1  0  0  0  0
 17 43  1  0  0  0  0
 18 19  2  0  0  0  0
 18 44  1  0  0  0  0
 19 20  1  0  0  0  0
 19 45  1  0  0  0  0
 21 22  1  0  0  0  0
 21 46  1  0  0  0  0
 21 47  1  0  0  0  0
 22 23  1  0  0  0  0
 22 48  1  0  0  0  0
 22 49  1  0  0  0  0
 23 24  1  0  0  0  0
 24 25  1  0  0  0  0
 24 30  2  0  0  0  0
 25 26  2  0  0  0  0
 25 50  1  0  0  0  0
 26 27  1  0  0  0  0
 26 51  1  0  0  0  0
 27 28  1  0  0  0  0
 27 29  2  0  0  0  0
 29 30  1  0  0  0  0
 29 52  1  0  0  0  0
M  END
$$$$
