
 OpenBabel07202414113D

 45 48  0  0  1  0  0  0  0  0999 V2000
    1.7839   -0.4344   -0.7870 C   0  0  0  0  0  0  0  0  0  0  0  0
    2.5436   -0.1978    0.4942 C   0  0  0  0  0  0  0  0  0  0  0  0
    2.6363    0.9373    0.9587 O   0  0  0  0  0  0  0  0  0  0  0  0
    3.1197   -1.2966    1.1138 N   0  0  0  0  0  0  0  0  0  0  0  0
    3.0452   -2.6677    0.6071 C   0  0  0  0  0  0  0  0  0  0  0  0
    4.2892   -3.0076   -0.2066 C   0  0  0  0  0  0  0  0  0  0  0  0
    5.5578   -2.5731    0.4861 C   0  0  0  0  0  0  0  0  0  0  0  0
    6.7847   -3.0775    0.0296 C   0  0  0  0  0  0  0  0  0  0  0  0
    7.9860   -2.6294    0.5820 C   0  0  0  0  0  0  0  0  0  0  0  0
    7.9668   -1.6663    1.5846 C   0  0  0  0  0  0  0  0  0  0  0  0
    9.4490   -1.0960    2.2481 Cl  0  0  0  0  0  0  0  0  0  0  0  0
    6.7575   -1.1566    2.0525 C   0  0  0  0  0  0  0  0  0  0  0  0
    5.5375   -1.6084    1.5192 C   0  0  0  0  0  0  0  0  0  0  0  0
    4.2230   -1.0488    2.0734 C   0  0  3  0  0  0  0  0  0  0  0  0
    3.9206   -1.5778    3.5114 C   0  0  0  0  0  0  0  0  0  0  0  0
    4.8143   -1.7689    4.3404 O   0  0  0  0  0  0  0  0  0  0  0  0
    2.5672   -1.6951    3.7848 N   0  0  0  0  0  0  0  0  0  0  0  0
    1.9576   -2.2596    4.9372 C   0  0  0  0  0  0  0  0  0  0  0  0
    2.6948   -2.8067    5.9906 C   0  0  0  0  0  0  0  0  0  0  0  0
    2.1625   -3.4958    7.0283 N   0  0  0  0  0  0  0  0  0  0  0  0
    0.8206   -3.6073    7.0505 C   0  0  0  0  0  0  0  0  0  0  0  0
   -0.0345   -3.0181    6.1224 C   0  0  0  0  0  0  0  0  0  0  0  0
   -1.4294   -3.0958    6.2804 C   0  0  0  0  0  0  0  0  0  0  0  0
   -2.2822   -2.4828    5.3677 C   0  0  0  0  0  0  0  0  0  0  0  0
   -1.7508   -1.8112    4.2755 C   0  0  0  0  0  0  0  0  0  0  0  0
   -0.3647   -1.7388    4.1024 C   0  0  0  0  0  0  0  0  0  0  0  0
    0.5381   -2.3281    5.0255 C   0  0  0  0  0  0  0  0  0  0  0  0
    1.4096    0.5219   -1.1663 H   0  0  0  0  0  0  0  0  0  0  0  0
    0.9284   -1.0907   -0.6156 H   0  0  0  0  0  0  0  0  0  0  0  0
    2.4498   -0.8558   -1.5452 H   0  0  0  0  0  0  0  0  0  0  0  0
    2.1471   -2.8175    0.0014 H   0  0  0  0  0  0  0  0  0  0  0  0
    2.9583   -3.3398    1.4688 H   0  0  0  0  0  0  0  0  0  0  0  0
    4.2463   -2.4926   -1.1742 H   0  0  0  0  0  0  0  0  0  0  0  0
    4.3072   -4.0862   -0.4016 H   0  0  0  0  0  0  0  0  0  0  0  0
    6.8136   -3.8183   -0.7660 H   0  0  0  0  0  0  0  0  0  0  0  0
    8.9285   -3.0316    0.2220 H   0  0  0  0  0  0  0  0  0  0  0  0
    6.7614   -0.4122    2.8465 H   0  0  0  0  0  0  0  0  0  0  0  0
    4.3543    0.0340    2.1924 H   0  0  0  0  0  0  0  0  0  0  0  0
    1.9638   -1.4102    3.0243 H   0  0  0  0  0  0  0  0  0  0  0  0
    3.7748   -2.7283    6.0541 H   0  0  0  0  0  0  0  0  0  0  0  0
    0.4366   -4.1995    7.8778 H   0  0  0  0  0  0  0  0  0  0  0  0
   -1.8594   -3.6132    7.1358 H   0  0  0  0  0  0  0  0  0  0  0  0
   -3.3585   -2.5189    5.5174 H   0  0  0  0  0  0  0  0  0  0  0  0
   -2.4128   -1.3267    3.5618 H   0  0  0  0  0  0  0  0  0  0  0  0
   -0.0081   -1.1747    3.2449 H   0  0  0  0  0  0  0  0  0  0  0  0
  1  2  1  0  0  0  0
  1 28  1  0  0  0  0
  1 29  1  0  0  0  0
  1 30  1  0  0  0  0
  2  3  2  0  0  0  0
  2  4  1  0  0  0  0
  4  5  1  0  0  0  0
  4 14  1  0  0  0  0
  5  6  1  0  0  0  0
  5 31  1  0  0  0  0
  5 32  1  0  0  0  0
  6  7  1  0  0  0  0
  6 33  1  0  0  0  0
  6 34  1  0  0  0  0
  7  8  1  0  0  0  0
  7 13  2  0  0  0  0
  8  9  2  0  0  0  0
  8 35  1  0  0  0  0
  9 10  1  0  0  0  0
  9 36  1  0  0  0  0
 10 11  1  0  0  0  0
 10 12  2  0  0  0  0
 12 13  1  0  0  0  0
 12 37  1  0  0  0  0
 13 14  1  0  0  0  0
 14 15  1  0  0  0  0
 14 38  1  0  0  0  0
 15 16  2  0  0  0  0
 15 17  1  0  0  0  0
 17 18  1  0  0  0  0
 17 39  1  0  0  0  0
 18 19  1  0  0  0  0
 18 27  2  0  0  0  0
 19 20  2  0  0  0  0
 19 40  1  0  0  0  0
 20 21  1  0  0  0  0
 21 22  2  0  0  0  0
 21 41  1  0  0  0  0
 22 23  1  0  0  0  0
 22 27  1  0  0  0  0
 23 24  2  0  0  0  0
 23 42  1  0  0  0  0
 24 25  1  0  0  0  0
 24 43  1  0  0  0  0
 25 26  2  0  0  0  0
 25 44  1  0  0  0  0
 26 27  1  0  0  0  0
 26 45  1  0  0  0  0
M  END
$$$$
