
 OpenBabel07202414143D

 50 53  0  0  0  0  0  0  0  0999 V2000
    2.1702   -0.5020    1.4120 C   0  0  0  0  0  0  0  0  0  0  0  0
    2.9669   -0.1172    0.2652 N   0  0  0  0  0  0  0  0  0  0  0  0
    3.5714   -1.1145   -0.4766 C   0  0  0  0  0  0  0  0  0  0  0  0
    3.4463   -2.2933   -0.1874 O   0  0  0  0  0  0  0  0  0  0  0  0
    4.3482   -0.5994   -1.4959 N   0  0  0  0  0  0  0  0  0  0  0  0
    5.0789   -1.3647   -2.4355 C   0  0  0  0  0  0  0  0  0  0  0  0
    4.7924   -2.7041   -2.7162 C   0  0  0  0  0  0  0  0  0  0  0  0
    5.5597   -3.4311   -3.6366 C   0  0  0  0  0  0  0  0  0  0  0  0
    6.6221   -2.8243   -4.3046 C   0  0  0  0  0  0  0  0  0  0  0  0
    7.3982   -3.5890   -5.2277 N   0  0  0  0  0  0  0  0  0  0  0  0
    8.5975   -4.2226   -4.6564 C   0  0  0  0  0  0  0  0  0  0  0  0
    8.6302   -5.7186   -4.8588 C   0  0  0  0  0  0  0  0  0  0  0  0
    7.5804   -6.5551   -5.3799 C   0  0  0  0  0  0  0  0  0  0  0  0
    7.9625   -7.8701   -5.5273 C   0  0  0  0  0  0  0  0  0  0  0  0
    9.5476   -8.1416   -4.9597 S   0  0  0  0  0  0  0  0  0  0  0  0
    9.7459   -6.4895   -4.5690 C   0  0  0  0  0  0  0  0  0  0  0  0
    7.1179   -3.4540   -6.5907 C   0  0  0  0  0  0  0  0  0  0  0  0
    6.1102   -2.8568   -6.9939 O   0  0  0  0  0  0  0  0  0  0  0  0
    8.0467   -4.0727   -7.6346 C   0  0  0  0  0  0  0  0  0  0  0  0
    9.2159   -3.2511   -7.8586 N   0  0  0  0  0  0  0  0  0  0  0  0
   10.4283   -3.7410   -7.5246 N   0  0  0  0  0  0  0  0  0  0  0  0
   11.1610   -2.7146   -7.1141 N   0  0  0  0  0  0  0  0  0  0  0  0
   10.4333   -1.5723   -7.3119 C   0  0  0  0  0  0  0  0  0  0  0  0
   10.6832   -0.2481   -6.9398 C   0  0  0  0  0  0  0  0  0  0  0  0
    9.7401    0.7287   -7.2869 C   0  0  0  0  0  0  0  0  0  0  0  0
    8.5971    0.3988   -8.0222 C   0  0  0  0  0  0  0  0  0  0  0  0
    8.3140   -0.9246   -8.3689 C   0  0  0  0  0  0  0  0  0  0  0  0
    9.2397   -1.8832   -7.9499 C   0  0  0  0  0  0  0  0  0  0  0  0
    6.9087   -1.4789   -4.0488 C   0  0  0  0  0  0  0  0  0  0  0  0
    6.1334   -0.7521   -3.1263 C   0  0  0  0  0  0  0  0  0  0  0  0
    1.7033    0.3883    1.8413 H   0  0  0  0  0  0  0  0  0  0  0  0
    2.8210   -0.9748    2.1543 H   0  0  0  0  0  0  0  0  0  0  0  0
    1.3983   -1.2163    1.1091 H   0  0  0  0  0  0  0  0  0  0  0  0
    2.6511    0.6835   -0.2584 H   0  0  0  0  0  0  0  0  0  0  0  0
    4.6038    0.3703   -1.3862 H   0  0  0  0  0  0  0  0  0  0  0  0
    3.9546   -3.2088   -2.2434 H   0  0  0  0  0  0  0  0  0  0  0  0
    5.3067   -4.4683   -3.8309 H   0  0  0  0  0  0  0  0  0  0  0  0
    8.6535   -4.0201   -3.5781 H   0  0  0  0  0  0  0  0  0  0  0  0
    9.4794   -3.7637   -5.1086 H   0  0  0  0  0  0  0  0  0  0  0  0
    6.6032   -6.2023   -5.6882 H   0  0  0  0  0  0  0  0  0  0  0  0
    7.3839   -8.6863   -5.9382 H   0  0  0  0  0  0  0  0  0  0  0  0
   10.6903   -6.1569   -4.1584 H   0  0  0  0  0  0  0  0  0  0  0  0
    7.5144   -4.1598   -8.5873 H   0  0  0  0  0  0  0  0  0  0  0  0
    8.3724   -5.0753   -7.3664 H   0  0  0  0  0  0  0  0  0  0  0  0
   11.5692   -0.0010   -6.3667 H   0  0  0  0  0  0  0  0  0  0  0  0
    9.9003    1.7582   -6.9778 H   0  0  0  0  0  0  0  0  0  0  0  0
    7.8931    1.1810   -8.3013 H   0  0  0  0  0  0  0  0  0  0  0  0
    7.3984   -1.1902   -8.8904 H   0  0  0  0  0  0  0  0  0  0  0  0
    7.7333   -0.9830   -4.5561 H   0  0  0  0  0  0  0  0  0  0  0  0
    6.3792    0.2914   -2.9459 H   0  0  0  0  0  0  0  0  0  0  0  0
  1  2  1  0  0  0  0
  1 31  1  0  0  0  0
  1 32  1  0  0  0  0
  1 33  1  0  0  0  0
  2  3  1  0  0  0  0
  2 34  1  0  0  0  0
  3  4  2  0  0  0  0
  3  5  1  0  0  0  0
  5  6  1  0  0  0  0
  5 35  1  0  0  0  0
  6  7  1  0  0  0  0
  6 30  2  0  0  0  0
  7  8  2  0  0  0  0
  7 36  1  0  0  0  0
  8  9  1  0  0  0  0
  8 37  1  0  0  0  0
  9 10  1  0  0  0  0
  9 29  2  0  0  0  0
 10 11  1  0  0  0  0
 10 17  1  0  0  0  0
 11 12  1  0  0  0  0
 11 38  1  0  0  0  0
 11 39  1  0  0  0  0
 12 13  1  0  0  0  0
 12 16  2  0  0  0  0
 13 14  2  0  0  0  0
 13 40  1  0  0  0  0
 14 15  1  0  0  0  0
 14 41  1  0  0  0  0
 15 16  1  0  0  0  0
 16 42  1  0  0  0  0
 17 18  2  0  0  0  0
 17 19  1  0  0  0  0
 19 20  1  0  0  0  0
 19 43  1  0  0  0  0
 19 44  1  0  0  0  0
 20 21  1  0  0  0  0
 20 28  1  0  0  0  0
 21 22  2  0  0  0  0
 22 23  1  0  0  0  0
 23 24  1  0  0  0  0
 23 28  2  0  0  0  0
 24 25  2  0  0  0  0
 24 45  1  0  0  0  0
 25 26  1  0  0  0  0
 25 46  1  0  0  0  0
 26 27  2  0  0  0  0
 26 47  1  0  0  0  0
 27 28  1  0  0  0  0
 27 48  1  0  0  0  0
 29 30  1  0  0  0  0
 29 49  1  0  0  0  0
 30 50  1  0  0  0  0
M  END
$$$$
