
 OpenBabel07202414133D

 48 51  0  0  0  0  0  0  0  0999 V2000
    8.2065    1.0205    2.4215 C   0  0  0  0  0  0  0  0  0  0  0  0
    8.0514   -0.3081    1.7425 C   0  0  0  0  0  0  0  0  0  0  0  0
    6.8058   -0.6787    1.2072 C   0  0  0  0  0  0  0  0  0  0  0  0
    6.6373   -1.9099    0.5697 C   0  0  0  0  0  0  0  0  0  0  0  0
    5.3895   -2.2711    0.0426 N   0  0  0  0  0  0  0  0  0  0  0  0
    4.7722   -3.5315   -0.0253 C   0  0  0  0  0  0  0  0  0  0  0  0
    3.9149   -3.8308   -1.0876 C   0  0  0  0  0  0  0  0  0  0  0  0
    3.2714   -5.0673   -1.1482 C   0  0  0  0  0  0  0  0  0  0  0  0
    2.2072   -5.4064   -2.4592 Cl  0  0  0  0  0  0  0  0  0  0  0  0
    3.4680   -6.0262   -0.1544 C   0  0  0  0  0  0  0  0  0  0  0  0
    4.3359   -5.7570    0.9092 C   0  0  0  0  0  0  0  0  0  0  0  0
    4.5589   -6.7672    2.0075 C   0  0  0  0  0  0  0  0  0  0  0  0
    4.2239   -6.2756    3.4175 C   0  0  0  0  0  0  0  0  0  0  0  0
    4.0763   -5.0880    3.7045 O   0  0  0  0  0  0  0  0  0  0  0  0
    4.1950   -7.2963    4.3359 N   0  0  0  0  0  0  0  0  0  0  0  0
    3.9216   -7.1723    5.7219 C   0  0  0  0  0  0  0  0  0  0  0  0
    4.8011   -7.8544    6.5687 C   0  0  0  0  0  0  0  0  0  0  0  0
    4.5661   -8.1402    7.8619 N   0  0  0  0  0  0  0  0  0  0  0  0
    3.3779   -7.7262    8.3404 C   0  0  0  0  0  0  0  0  0  0  0  0
    2.4535   -6.9545    7.6348 C   0  0  0  0  0  0  0  0  0  0  0  0
    1.2571   -6.5479    8.2517 C   0  0  0  0  0  0  0  0  0  0  0  0
    0.3642   -5.7072    7.5952 C   0  0  0  0  0  0  0  0  0  0  0  0
    0.6563   -5.2847    6.3047 C   0  0  0  0  0  0  0  0  0  0  0  0
    1.8040   -5.7548    5.6498 C   0  0  0  0  0  0  0  0  0  0  0  0
    2.7444   -6.6033    6.2915 C   0  0  0  0  0  0  0  0  0  0  0  0
    5.0028   -4.5205    0.9408 C   0  0  0  0  0  0  0  0  0  0  0  0
    7.7507   -2.7413    0.5244 C   0  0  0  0  0  0  0  0  0  0  0  0
    8.9704   -2.4280    1.0178 N   0  0  0  0  0  0  0  0  0  0  0  0
    9.1012   -1.2214    1.6138 C   0  0  0  0  0  0  0  0  0  0  0  0
   10.8390   -0.8218    2.2832 Br  0  0  0  0  0  0  0  0  0  0  0  0
    7.2711    1.5901    2.4098 H   0  0  0  0  0  0  0  0  0  0  0  0
    8.9606    1.6273    1.9096 H   0  0  0  0  0  0  0  0  0  0  0  0
    8.4926    0.8861    3.4698 H   0  0  0  0  0  0  0  0  0  0  0  0
    5.9532   -0.0110    1.3118 H   0  0  0  0  0  0  0  0  0  0  0  0
    4.9416   -1.5390   -0.4986 H   0  0  0  0  0  0  0  0  0  0  0  0
    3.7462   -3.1004   -1.8740 H   0  0  0  0  0  0  0  0  0  0  0  0
    2.9381   -6.9741   -0.2120 H   0  0  0  0  0  0  0  0  0  0  0  0
    5.6141   -7.0778    1.9909 H   0  0  0  0  0  0  0  0  0  0  0  0
    3.9606   -7.6685    1.8123 H   0  0  0  0  0  0  0  0  0  0  0  0
    4.7415   -8.1180    4.0799 H   0  0  0  0  0  0  0  0  0  0  0  0
    5.7684   -8.1908    6.2061 H   0  0  0  0  0  0  0  0  0  0  0  0
    3.1809   -8.0407    9.3654 H   0  0  0  0  0  0  0  0  0  0  0  0
    1.0145   -6.8811    9.2592 H   0  0  0  0  0  0  0  0  0  0  0  0
   -0.5392   -5.3691    8.0916 H   0  0  0  0  0  0  0  0  0  0  0  0
   -0.0080   -4.5836    5.8021 H   0  0  0  0  0  0  0  0  0  0  0  0
    1.9740   -5.3962    4.6379 H   0  0  0  0  0  0  0  0  0  0  0  0
    5.6587   -4.2977    1.7820 H   0  0  0  0  0  0  0  0  0  0  0  0
    7.7001   -3.7107    0.0362 H   0  0  0  0  0  0  0  0  0  0  0  0
  1  2  1  0  0  0  0
  1 31  1  0  0  0  0
  1 32  1  0  0  0  0
  1 33  1  0  0  0  0
  2  3  2  0  0  0  0
  2 29  1  0  0  0  0
  3  4  1  0  0  0  0
  3 34  1  0  0  0  0
  4  5  1  0  0  0  0
  4 27  2  0  0  0  0
  5  6  1  0  0  0  0
  5 35  1  0  0  0  0
  6  7  2  0  0  0  0
  6 26  1  0  0  0  0
  7  8  1  0  0  0  0
  7 36  1  0  0  0  0
  8  9  1  0  0  0  0
  8 10  2  0  0  0  0
 10 11  1  0  0  0  0
 10 37  1  0  0  0  0
 11 12  1  0  0  0  0
 11 26  2  0  0  0  0
 12 13  1  0  0  0  0
 12 38  1  0  0  0  0
 12 39  1  0  0  0  0
 13 14  2  0  0  0  0
 13 15  1  0  0  0  0
 15 16  1  0  0  0  0
 15 40  1  0  0  0  0
 16 17  2  0  0  0  0
 16 25  1  0  0  0  0
 17 18  1  0  0  0  0
 17 41  1  0  0  0  0
 18 19  2  0  0  0  0
 19 20  1  0  0  0  0
 19 42  1  0  0  0  0
 20 21  2  0  0  0  0
 20 25  1  0  0  0  0
 21 22  1  0  0  0  0
 21 43  1  0  0  0  0
 22 23  2  0  0  0  0
 22 44  1  0  0  0  0
 23 24  1  0  0  0  0
 23 45  1  0  0  0  0
 24 25  2  0  0  0  0
 24 46  1  0  0  0  0
 26 47  1  0  0  0  0
 27 28  1  0  0  0  0
 27 48  1  0  0  0  0
 28 29  2  0  0  0  0
 29 30  1  0  0  0  0
M  END
$$$$
