
 OpenBabel07202414143D

 46 49  0  0  1  0  0  0  0  0999 V2000
    3.4425   -0.0428   -0.1350 C   0  0  0  0  0  0  0  0  0  0  0  0
    2.0174    0.2260   -0.1738 N   0  0  0  0  0  0  0  0  0  0  0  0
    1.5562    1.5738   -0.4919 C   0  0  0  0  0  0  0  0  0  0  0  0
    0.3137    1.9199    0.3242 C   0  0  2  0  0  0  0  0  0  0  0  0
    0.7494    2.1494    1.7655 C   0  0  0  0  0  0  0  0  0  0  0  0
    1.0389    3.2997    2.1012 O   0  0  0  0  0  0  0  0  0  0  0  0
    0.9222    1.0302    2.5656 N   0  0  0  0  0  0  0  0  0  0  0  0
    1.3430    1.0438    3.9219 C   0  0  0  0  0  0  0  0  0  0  0  0
    1.3116    2.2185    4.6761 C   0  0  0  0  0  0  0  0  0  0  0  0
    1.6711    2.3184    5.9710 N   0  0  0  0  0  0  0  0  0  0  0  0
    2.0771    1.1801    6.5618 C   0  0  0  0  0  0  0  0  0  0  0  0
    2.1473   -0.0629    5.9325 C   0  0  0  0  0  0  0  0  0  0  0  0
    2.5779   -1.1978    6.6425 C   0  0  0  0  0  0  0  0  0  0  0  0
    2.6813   -2.4344    6.0128 C   0  0  0  0  0  0  0  0  0  0  0  0
    2.3711   -2.5446    4.6644 C   0  0  0  0  0  0  0  0  0  0  0  0
    1.9330   -1.4230    3.9485 C   0  0  0  0  0  0  0  0  0  0  0  0
    1.7871   -0.1494    4.5643 C   0  0  0  0  0  0  0  0  0  0  0  0
   -0.7376    0.8551    0.1242 C   0  0  0  0  0  0  0  0  0  0  0  0
   -2.1049    1.1714    0.1537 C   0  0  0  0  0  0  0  0  0  0  0  0
   -3.0761    0.1713   -0.0408 C   0  0  0  0  0  0  0  0  0  0  0  0
   -4.5448    0.5268   -0.0764 C   0  0  0  0  0  0  0  0  0  0  0  0
   -5.0126    0.8679   -1.4304 C   0  0  0  0  0  0  0  0  0  0  0  0
   -5.3949    1.1380   -2.4969 N   0  0  0  0  0  0  0  0  0  0  0  0
   -2.6505   -1.1521   -0.2413 C   0  0  0  0  0  0  0  0  0  0  0  0
   -1.2912   -1.4738   -0.2642 C   0  0  0  0  0  0  0  0  0  0  0  0
   -0.3337   -0.4722   -0.1028 C   0  0  0  0  0  0  0  0  0  0  0  0
    1.1180   -0.8324   -0.0943 C   0  0  0  0  0  0  0  0  0  0  0  0
    1.4590   -1.9956    0.0834 O   0  0  0  0  0  0  0  0  0  0  0  0
    4.0199    0.8829   -0.2062 H   0  0  0  0  0  0  0  0  0  0  0  0
    3.7045   -0.7097   -0.9600 H   0  0  0  0  0  0  0  0  0  0  0  0
    3.6783   -0.5379    0.8126 H   0  0  0  0  0  0  0  0  0  0  0  0
    1.3354    1.5980   -1.5660 H   0  0  0  0  0  0  0  0  0  0  0  0
    2.3561    2.2964   -0.2913 H   0  0  0  0  0  0  0  0  0  0  0  0
   -0.0869    2.8770   -0.0381 H   0  0  0  0  0  0  0  0  0  0  0  0
    0.8697    0.1216    2.1307 H   0  0  0  0  0  0  0  0  0  0  0  0
    0.9607    3.1584    4.2690 H   0  0  0  0  0  0  0  0  0  0  0  0
    2.3613    1.3075    7.6025 H   0  0  0  0  0  0  0  0  0  0  0  0
    2.8433   -1.1200    7.6951 H   0  0  0  0  0  0  0  0  0  0  0  0
    3.0170   -3.3046    6.5717 H   0  0  0  0  0  0  0  0  0  0  0  0
    2.4759   -3.5033    4.1593 H   0  0  0  0  0  0  0  0  0  0  0  0
    1.7334   -1.5686    2.8904 H   0  0  0  0  0  0  0  0  0  0  0  0
   -2.4202    2.2037    0.3150 H   0  0  0  0  0  0  0  0  0  0  0  0
   -4.7372    1.3666    0.6052 H   0  0  0  0  0  0  0  0  0  0  0  0
   -5.1331   -0.3123    0.3187 H   0  0  0  0  0  0  0  0  0  0  0  0
   -3.3770   -1.9515   -0.3857 H   0  0  0  0  0  0  0  0  0  0  0  0
   -0.9784   -2.5048   -0.4126 H   0  0  0  0  0  0  0  0  0  0  0  0
  1  2  1  0  0  0  0
  1 29  1  0  0  0  0
  1 30  1  0  0  0  0
  1 31  1  0  0  0  0
  2  3  1  0  0  0  0
  2 27  1  0  0  0  0
  3  4  1  0  0  0  0
  3 32  1  0  0  0  0
  3 33  1  0  0  0  0
  4 18  1  0  0  0  0
  4  5  1  0  0  0  0
  4 34  1  6  0  0  0
  5  6  2  0  0  0  0
  5  7  1  0  0  0  0
  7  8  1  0  0  0  0
  7 35  1  0  0  0  0
  8  9  1  0  0  0  0
  8 17  2  0  0  0  0
  9 10  2  0  0  0  0
  9 36  1  0  0  0  0
 10 11  1  0  0  0  0
 11 12  2  0  0  0  0
 11 37  1  0  0  0  0
 12 13  1  0  0  0  0
 12 17  1  0  0  0  0
 13 14  2  0  0  0  0
 13 38  1  0  0  0  0
 14 15  1  0  0  0  0
 14 39  1  0  0  0  0
 15 16  2  0  0  0  0
 15 40  1  0  0  0  0
 16 17  1  0  0  0  0
 16 41  1  0  0  0  0
 18 19  1  0  0  0  0
 18 26  2  0  0  0  0
 19 20  2  0  0  0  0
 19 42  1  0  0  0  0
 20 21  1  0  0  0  0
 20 24  1  0  0  0  0
 21 22  1  0  0  0  0
 21 43  1  0  0  0  0
 21 44  1  0  0  0  0
 22 23  3  0  0  0  0
 24 25  2  0  0  0  0
 24 45  1  0  0  0  0
 25 26  1  0  0  0  0
 25 46  1  0  0  0  0
 26 27  1  0  0  0  0
 27 28  2  0  0  0  0
M  END
$$$$
