
 OpenBabel07202414133D

 52 55  0  0  0  0  0  0  0  0999 V2000
    3.9722   -0.0411   -0.7378 C   0  0  0  0  0  0  0  0  0  0  0  0
    2.5674    0.4328   -1.0729 C   0  0  0  0  0  0  0  0  0  0  0  0
    1.7174    0.6258    0.1638 C   0  0  0  0  0  0  0  0  0  0  0  0
    1.7026    1.8248    0.9065 C   0  0  0  0  0  0  0  0  0  0  0  0
    2.5037    2.9313    0.5429 N   0  0  0  0  0  0  0  0  0  0  0  0
    2.2325    4.3036    0.7080 C   0  0  0  0  0  0  0  0  0  0  0  0
    3.2791    5.1933    0.9648 C   0  0  0  0  0  0  0  0  0  0  0  0
    3.0065    6.5437    1.1853 C   0  0  0  0  0  0  0  0  0  0  0  0
    4.2998    7.6302    1.5258 Cl  0  0  0  0  0  0  0  0  0  0  0  0
    1.6990    7.0270    1.1452 C   0  0  0  0  0  0  0  0  0  0  0  0
    0.6412    6.1520    0.8754 C   0  0  0  0  0  0  0  0  0  0  0  0
   -0.7815    6.6423    0.7795 C   0  0  0  0  0  0  0  0  0  0  0  0
   -1.7645    5.9224    1.6854 C   0  0  0  0  0  0  0  0  0  0  0  0
   -2.8723    5.5857    1.2651 O   0  0  0  0  0  0  0  0  0  0  0  0
   -1.3615    5.7911    3.0016 N   0  0  0  0  0  0  0  0  0  0  0  0
   -2.1660    5.1864    3.9967 C   0  0  0  0  0  0  0  0  0  0  0  0
   -2.8983    4.0275    3.7277 C   0  0  0  0  0  0  0  0  0  0  0  0
   -3.6549    3.3722    4.6366 N   0  0  0  0  0  0  0  0  0  0  0  0
   -3.7178    3.9219    5.8675 C   0  0  0  0  0  0  0  0  0  0  0  0
   -3.0533    5.0883    6.2536 C   0  0  0  0  0  0  0  0  0  0  0  0
   -3.2052    5.6282    7.5428 C   0  0  0  0  0  0  0  0  0  0  0  0
   -2.5722    6.8178    7.8957 C   0  0  0  0  0  0  0  0  0  0  0  0
   -1.7735    7.4759    6.9680 C   0  0  0  0  0  0  0  0  0  0  0  0
   -1.6037    6.9437    5.6896 C   0  0  0  0  0  0  0  0  0  0  0  0
   -2.2347    5.7368    5.2980 C   0  0  0  0  0  0  0  0  0  0  0  0
    0.9255    4.7980    0.6492 C   0  0  0  0  0  0  0  0  0  0  0  0
    0.8497    1.9127    2.0239 C   0  0  0  0  0  0  0  0  0  0  0  0
    0.0304    0.8496    2.4102 C   0  0  0  0  0  0  0  0  0  0  0  0
    0.0732   -0.3333    1.6880 C   0  0  0  0  0  0  0  0  0  0  0  0
   -1.0015   -1.7950    2.2217 Br  0  0  0  0  0  0  0  0  0  0  0  0
    0.9118   -0.4542    0.5809 C   0  0  0  0  0  0  0  0  0  0  0  0
    4.5563   -0.1659   -1.6549 H   0  0  0  0  0  0  0  0  0  0  0  0
    3.9499   -1.0046   -0.2174 H   0  0  0  0  0  0  0  0  0  0  0  0
    4.4965    0.6748   -0.0963 H   0  0  0  0  0  0  0  0  0  0  0  0
    2.0890   -0.2986   -1.7363 H   0  0  0  0  0  0  0  0  0  0  0  0
    2.6056    1.3608   -1.6556 H   0  0  0  0  0  0  0  0  0  0  0  0
    3.2129    2.7481   -0.1510 H   0  0  0  0  0  0  0  0  0  0  0  0
    4.3002    4.8291    1.0244 H   0  0  0  0  0  0  0  0  0  0  0  0
    1.5104    8.0843    1.3140 H   0  0  0  0  0  0  0  0  0  0  0  0
   -1.1127    6.5006   -0.2570 H   0  0  0  0  0  0  0  0  0  0  0  0
   -0.8445    7.7158    0.9969 H   0  0  0  0  0  0  0  0  0  0  0  0
   -0.5889    6.3674    3.3074 H   0  0  0  0  0  0  0  0  0  0  0  0
   -2.8695    3.5527    2.7502 H   0  0  0  0  0  0  0  0  0  0  0  0
   -4.3589    3.3840    6.5621 H   0  0  0  0  0  0  0  0  0  0  0  0
   -3.8411    5.1336    8.2753 H   0  0  0  0  0  0  0  0  0  0  0  0
   -2.7128    7.2365    8.8881 H   0  0  0  0  0  0  0  0  0  0  0  0
   -1.2971    8.4170    7.2321 H   0  0  0  0  0  0  0  0  0  0  0  0
   -1.0019    7.5149    4.9881 H   0  0  0  0  0  0  0  0  0  0  0  0
    0.1100    4.1158    0.4070 H   0  0  0  0  0  0  0  0  0  0  0  0
    0.8264    2.8183    2.6259 H   0  0  0  0  0  0  0  0  0  0  0  0
   -0.6229    0.9612    3.2704 H   0  0  0  0  0  0  0  0  0  0  0  0
    0.9313   -1.3900    0.0260 H   0  0  0  0  0  0  0  0  0  0  0  0
  1  2  1  0  0  0  0
  1 32  1  0  0  0  0
  1 33  1  0  0  0  0
  1 34  1  0  0  0  0
  2  3  1  0  0  0  0
  2 35  1  0  0  0  0
  2 36  1  0  0  0  0
  3  4  2  0  0  0  0
  3 31  1  0  0  0  0
  4  5  1  0  0  0  0
  4 27  1  0  0  0  0
  5  6  1  0  0  0  0
  5 37  1  0  0  0  0
  6  7  2  0  0  0  0
  6 26  1  0  0  0  0
  7  8  1  0  0  0  0
  7 38  1  0  0  0  0
  8  9  1  0  0  0  0
  8 10  2  0  0  0  0
 10 11  1  0  0  0  0
 10 39  1  0  0  0  0
 11 12  1  0  0  0  0
 11 26  2  0  0  0  0
 12 13  1  0  0  0  0
 12 40  1  0  0  0  0
 12 41  1  0  0  0  0
 13 14  2  0  0  0  0
 13 15  1  0  0  0  0
 15 16  1  0  0  0  0
 15 42  1  0  0  0  0
 16 17  2  0  0  0  0
 16 25  1  0  0  0  0
 17 18  1  0  0  0  0
 17 43  1  0  0  0  0
 18 19  2  0  0  0  0
 19 20  1  0  0  0  0
 19 44  1  0  0  0  0
 20 21  2  0  0  0  0
 20 25  1  0  0  0  0
 21 22  1  0  0  0  0
 21 45  1  0  0  0  0
 22 23  2  0  0  0  0
 22 46  1  0  0  0  0
 23 24  1  0  0  0  0
 23 47  1  0  0  0  0
 24 25  2  0  0  0  0
 24 48  1  0  0  0  0
 26 49  1  0  0  0  0
 27 28  2  0  0  0  0
 27 50  1  0  0  0  0
 28 29  1  0  0  0  0
 28 51  1  0  0  0  0
 29 30  1  0  0  0  0
 29 31  2  0  0  0  0
 31 52  1  0  0  0  0
M  END
$$$$
