
 OpenBabel07202414153D

 42 45  0  0  1  0  0  0  0  0999 V2000
    0.8901    0.1035    0.1805 C   0  0  0  0  0  0  0  0  0  0  0  0
    2.4077    0.2157    0.2661 C   0  0  2  0  0  0  0  0  0  0  0  0
    2.9976   -0.9766    0.8621 N   0  0  0  0  0  0  0  0  0  0  0  0
    4.3651   -1.0597    1.0270 C   0  0  0  0  0  0  0  0  0  0  0  0
    4.9123   -2.1431    1.1705 O   0  0  0  0  0  0  0  0  0  0  0  0
    5.1165    0.2267    1.0489 C   0  0  0  0  0  0  0  0  0  0  0  0
    6.5163    0.1946    1.0622 C   0  0  0  0  0  0  0  0  0  0  0  0
    7.2416    1.3871    1.0836 C   0  0  0  0  0  0  0  0  0  0  0  0
    6.5676    2.6074    1.1051 C   0  0  0  0  0  0  0  0  0  0  0  0
    7.4668    4.0740    1.1277 Cl  0  0  0  0  0  0  0  0  0  0  0  0
    5.1709    2.6497    1.0941 C   0  0  0  0  0  0  0  0  0  0  0  0
    4.4293    1.4573    1.0503 C   0  0  0  0  0  0  0  0  0  0  0  0
    2.9086    1.4891    0.9778 C   0  0  2  0  0  0  0  0  0  0  0  0
    2.2758    1.7554    2.3527 C   0  0  0  0  0  0  0  0  0  0  0  0
    1.9489    2.9015    2.6534 O   0  0  0  0  0  0  0  0  0  0  0  0
    2.1773    0.6497    3.1783 N   0  0  0  0  0  0  0  0  0  0  0  0
    1.7052    0.6122    4.5187 C   0  0  0  0  0  0  0  0  0  0  0  0
    1.1019    1.7121    5.1323 C   0  0  0  0  0  0  0  0  0  0  0  0
    0.7467    1.7702    6.4369 N   0  0  0  0  0  0  0  0  0  0  0  0
    0.9747    0.6639    7.1700 C   0  0  0  0  0  0  0  0  0  0  0  0
    1.4763   -0.5318    6.6606 C   0  0  0  0  0  0  0  0  0  0  0  0
    1.5965   -1.6647    7.4852 C   0  0  0  0  0  0  0  0  0  0  0  0
    2.0796   -2.8667    6.9770 C   0  0  0  0  0  0  0  0  0  0  0  0
    2.4728   -2.9371    5.6438 C   0  0  0  0  0  0  0  0  0  0  0  0
    2.3665   -1.8137    4.8218 C   0  0  0  0  0  0  0  0  0  0  0  0
    1.8567   -0.5756    5.2970 C   0  0  0  0  0  0  0  0  0  0  0  0
    0.6094   -0.7910   -0.3872 H   0  0  0  0  0  0  0  0  0  0  0  0
    0.4660    0.9728   -0.3319 H   0  0  0  0  0  0  0  0  0  0  0  0
    0.4205    0.0170    1.1646 H   0  0  0  0  0  0  0  0  0  0  0  0
    2.7890    0.2373   -0.7650 H   0  0  0  0  0  0  0  0  0  0  0  0
    2.5835   -1.8829    0.6609 H   0  0  0  0  0  0  0  0  0  0  0  0
    7.0449   -0.7572    1.0463 H   0  0  0  0  0  0  0  0  0  0  0  0
    8.3288    1.3569    1.0814 H   0  0  0  0  0  0  0  0  0  0  0  0
    4.6624    3.6126    1.1101 H   0  0  0  0  0  0  0  0  0  0  0  0
    2.6151    2.3361    0.3403 H   0  0  0  0  0  0  0  0  0  0  0  0
    2.5695   -0.2097    2.8132 H   0  0  0  0  0  0  0  0  0  0  0  0
    0.8565    2.6190    4.5900 H   0  0  0  0  0  0  0  0  0  0  0  0
    0.7255    0.7691    8.2234 H   0  0  0  0  0  0  0  0  0  0  0  0
    1.2981   -1.6200    8.5312 H   0  0  0  0  0  0  0  0  0  0  0  0
    2.1486   -3.7430    7.6170 H   0  0  0  0  0  0  0  0  0  0  0  0
    2.8521   -3.8732    5.2441 H   0  0  0  0  0  0  0  0  0  0  0  0
    2.6849   -1.9387    3.7911 H   0  0  0  0  0  0  0  0  0  0  0  0
  1  2  1  0  0  0  0
  1 27  1  0  0  0  0
  1 28  1  0  0  0  0
  1 29  1  0  0  0  0
  2  3  1  0  0  0  0
  2 13  1  0  0  0  0
  2 30  1  6  0  0  0
  3  4  1  0  0  0  0
  3 31  1  0  0  0  0
  4  5  2  0  0  0  0
  4  6  1  0  0  0  0
  6  7  1  0  0  0  0
  6 12  2  0  0  0  0
  7  8  2  0  0  0  0
  7 32  1  0  0  0  0
  8  9  1  0  0  0  0
  8 33  1  0  0  0  0
  9 10  1  0  0  0  0
  9 11  2  0  0  0  0
 11 12  1  0  0  0  0
 11 34  1  0  0  0  0
 12 13  1  0  0  0  0
 13 14  1  0  0  0  0
 13 35  1  6  0  0  0
 14 15  2  0  0  0  0
 14 16  1  0  0  0  0
 16 17  1  0  0  0  0
 16 36  1  0  0  0  0
 17 18  1  0  0  0  0
 17 26  2  0  0  0  0
 18 19  2  0  0  0  0
 18 37  1  0  0  0  0
 19 20  1  0  0  0  0
 20 21  2  0  0  0  0
 20 38  1  0  0  0  0
 21 22  1  0  0  0  0
 21 26  1  0  0  0  0
 22 23  2  0  0  0  0
 22 39  1  0  0  0  0
 23 24  1  0  0  0  0
 23 40  1  0  0  0  0
 24 25  2  0  0  0  0
 24 41  1  0  0  0  0
 25 26  1  0  0  0  0
 25 42  1  0  0  0  0
M  END
$$$$
