
 OpenBabel07202414153D

 38 40  0  0  0  0  0  0  0  0999 V2000
    1.0810    0.2508    0.4032 C   0  0  0  0  0  0  0  0  0  0  0  0
    2.4493    0.0028    0.0889 O   0  0  0  0  0  0  0  0  0  0  0  0
    3.0779    1.0035   -0.6010 C   0  0  0  0  0  0  0  0  0  0  0  0
    4.0868    0.5759   -1.4726 C   0  0  0  0  0  0  0  0  0  0  0  0
    4.7927    1.4813   -2.2986 C   0  0  0  0  0  0  0  0  0  0  0  0
    5.7276    1.0950   -3.2892 C   0  0  0  0  0  0  0  0  0  0  0  0
    6.0864   -0.2670   -3.4555 N   0  0  0  0  0  0  0  0  0  0  0  0
    6.1517   -0.8669   -4.7041 C   0  0  0  0  0  0  0  0  0  0  0  0
    5.8970   -0.3030   -5.7651 O   0  0  0  0  0  0  0  0  0  0  0  0
    6.5383   -2.3362   -4.6577 C   0  0  0  0  0  0  0  0  0  0  0  0
    5.4044   -3.2594   -4.2761 C   0  0  0  0  0  0  0  0  0  0  0  0
    4.2373   -3.3278   -5.0524 C   0  0  0  0  0  0  0  0  0  0  0  0
    3.1969   -4.1940   -4.7016 C   0  0  0  0  0  0  0  0  0  0  0  0
    3.3121   -5.0072   -3.5752 C   0  0  0  0  0  0  0  0  0  0  0  0
    4.4759   -4.9612   -2.8121 C   0  0  0  0  0  0  0  0  0  0  0  0
    4.6334   -5.9766   -1.4313 Cl  0  0  0  0  0  0  0  0  0  0  0  0
    5.5195   -4.0994   -3.1578 C   0  0  0  0  0  0  0  0  0  0  0  0
    6.2938    2.0914   -4.0898 C   0  0  0  0  0  0  0  0  0  0  0  0
    6.0366    3.4126   -3.9628 N   0  0  0  0  0  0  0  0  0  0  0  0
    5.1372    3.7601   -3.0193 C   0  0  0  0  0  0  0  0  0  0  0  0
    4.4779    2.8572   -2.1836 C   0  0  0  0  0  0  0  0  0  0  0  0
    3.5071    3.2895   -1.2730 C   0  0  0  0  0  0  0  0  0  0  0  0
    2.8085    2.3655   -0.4979 C   0  0  0  0  0  0  0  0  0  0  0  0
    1.8775    2.8311    0.3450 F   0  0  0  0  0  0  0  0  0  0  0  0
    0.6358   -0.6981    0.7166 H   0  0  0  0  0  0  0  0  0  0  0  0
    0.5266    0.6064   -0.4746 H   0  0  0  0  0  0  0  0  0  0  0  0
    0.9918    0.9481    1.2390 H   0  0  0  0  0  0  0  0  0  0  0  0
    4.2610   -0.4955   -1.5353 H   0  0  0  0  0  0  0  0  0  0  0  0
    5.9352   -0.8896   -2.6726 H   0  0  0  0  0  0  0  0  0  0  0  0
    7.3780   -2.4448   -3.9603 H   0  0  0  0  0  0  0  0  0  0  0  0
    6.9218   -2.6226   -5.6444 H   0  0  0  0  0  0  0  0  0  0  0  0
    4.1305   -2.7102   -5.9445 H   0  0  0  0  0  0  0  0  0  0  0  0
    2.2968   -4.2373   -5.3109 H   0  0  0  0  0  0  0  0  0  0  0  0
    2.4997   -5.6761   -3.3036 H   0  0  0  0  0  0  0  0  0  0  0  0
    6.4265   -4.0965   -2.5578 H   0  0  0  0  0  0  0  0  0  0  0  0
    7.0233    1.8513   -4.8591 H   0  0  0  0  0  0  0  0  0  0  0  0
    4.9401    4.8288   -2.9650 H   0  0  0  0  0  0  0  0  0  0  0  0
    3.2532    4.3423   -1.1700 H   0  0  0  0  0  0  0  0  0  0  0  0
  1  2  1  0  0  0  0
  1 25  1  0  0  0  0
  1 26  1  0  0  0  0
  1 27  1  0  0  0  0
  2  3  1  0  0  0  0
  3  4  1  0  0  0  0
  3 23  2  0  0  0  0
  4  5  2  0  0  0  0
  4 28  1  0  0  0  0
  5  6  1  0  0  0  0
  5 21  1  0  0  0  0
  6  7  1  0  0  0  0
  6 18  2  0  0  0  0
  7  8  1  0  0  0  0
  7 29  1  0  0  0  0
  8  9  2  0  0  0  0
  8 10  1  0  0  0  0
 10 11  1  0  0  0  0
 10 30  1  0  0  0  0
 10 31  1  0  0  0  0
 11 12  1  0  0  0  0
 11 17  2  0  0  0  0
 12 13  2  0  0  0  0
 12 32  1  0  0  0  0
 13 14  1  0  0  0  0
 13 33  1  0  0  0  0
 14 15  2  0  0  0  0
 14 34  1  0  0  0  0
 15 16  1  0  0  0  0
 15 17  1  0  0  0  0
 17 35  1  0  0  0  0
 18 19  1  0  0  0  0
 18 36  1  0  0  0  0
 19 20  2  0  0  0  0
 20 21  1  0  0  0  0
 20 37  1  0  0  0  0
 21 22  2  0  0  0  0
 22 23  1  0  0  0  0
 22 38  1  0  0  0  0
 23 24  1  0  0  0  0
M  END
$$$$
