
 OpenBabel07202414203D

 39 42  0  0  0  0  0  0  0  0999 V2000
    4.6247   -0.8051    0.2015 C   0  0  0  0  0  0  0  0  0  0  0  0
    4.6626    0.5491    0.4942 C   0  0  0  0  0  0  0  0  0  0  0  0
    3.5095    1.3321    0.3398 C   0  0  0  0  0  0  0  0  0  0  0  0
    2.2787    0.7828   -0.1123 C   0  0  0  0  0  0  0  0  0  0  0  0
    2.2767   -0.6041   -0.3976 C   0  0  0  0  0  0  0  0  0  0  0  0
    3.4398   -1.3778   -0.2438 C   0  0  0  0  0  0  0  0  0  0  0  0
    1.0919   -1.1866   -0.8409 C   0  0  0  0  0  0  0  0  0  0  0  0
   -0.0714   -0.5274   -1.0047 N   0  0  0  0  0  0  0  0  0  0  0  0
   -0.0589    0.7975   -0.7318 C   0  0  0  0  0  0  0  0  0  0  0  0
    1.0621    1.5110   -0.3039 C   0  0  0  0  0  0  0  0  0  0  0  0
    1.0297    2.9109   -0.0698 N   0  0  0  0  0  0  0  0  0  0  0  0
   -0.0199    3.7864   -0.3073 C   0  0  0  0  0  0  0  0  0  0  0  0
   -1.1110    3.4983   -0.7793 O   0  0  0  0  0  0  0  0  0  0  0  0
    0.3354    5.2186    0.0190 C   0  0  0  0  0  0  0  0  0  0  0  0
    0.9422    5.4325    1.2025 C   0  0  0  0  0  0  0  0  0  0  0  0
    1.4808    6.7464    1.6616 C   0  0  0  0  0  0  0  0  0  0  0  0
    1.3046    7.9236    0.7035 C   0  0  0  0  0  0  0  0  0  0  0  0
    0.5375    7.6464   -0.5645 C   0  0  0  0  0  0  0  0  0  0  0  0
    0.0478    6.3623   -0.8822 C   0  0  0  0  0  0  0  0  0  0  0  0
   -0.6954    6.2160   -2.0676 C   0  0  0  0  0  0  0  0  0  0  0  0
   -0.9181    7.3025   -2.9185 C   0  0  0  0  0  0  0  0  0  0  0  0
   -0.4031    8.5559   -2.6158 C   0  0  0  0  0  0  0  0  0  0  0  0
    0.3191    8.7279   -1.4395 C   0  0  0  0  0  0  0  0  0  0  0  0
   -1.8345    7.0915   -4.3611 Cl  0  0  0  0  0  0  0  0  0  0  0  0
    5.5161   -1.4169    0.3205 H   0  0  0  0  0  0  0  0  0  0  0  0
    5.5875    1.0033    0.8427 H   0  0  0  0  0  0  0  0  0  0  0  0
    3.6059    2.3851    0.5806 H   0  0  0  0  0  0  0  0  0  0  0  0
    3.4251   -2.4441   -0.4684 H   0  0  0  0  0  0  0  0  0  0  0  0
    1.0402   -2.2443   -1.0860 H   0  0  0  0  0  0  0  0  0  0  0  0
   -1.0266    1.2652   -0.8730 H   0  0  0  0  0  0  0  0  0  0  0  0
    1.8900    3.3302    0.2476 H   0  0  0  0  0  0  0  0  0  0  0  0
    1.0836    4.6136    1.9058 H   0  0  0  0  0  0  0  0  0  0  0  0
    2.5538    6.6153    1.8545 H   0  0  0  0  0  0  0  0  0  0  0  0
    1.0333    6.9948    2.6313 H   0  0  0  0  0  0  0  0  0  0  0  0
    2.2966    8.3045    0.4292 H   0  0  0  0  0  0  0  0  0  0  0  0
    0.7961    8.7319    1.2449 H   0  0  0  0  0  0  0  0  0  0  0  0
   -1.1246    5.2570   -2.3473 H   0  0  0  0  0  0  0  0  0  0  0  0
   -0.5638    9.3983   -3.2830 H   0  0  0  0  0  0  0  0  0  0  0  0
    0.7138    9.7137   -1.2004 H   0  0  0  0  0  0  0  0  0  0  0  0
  1  2  1  0  0  0  0
  1  6  2  0  0  0  0
  1 25  1  0  0  0  0
  2  3  2  0  0  0  0
  2 26  1  0  0  0  0
  3  4  1  0  0  0  0
  3 27  1  0  0  0  0
  4  5  1  0  0  0  0
  4 10  2  0  0  0  0
  5  6  1  0  0  0  0
  5  7  2  0  0  0  0
  6 28  1  0  0  0  0
  7  8  1  0  0  0  0
  7 29  1  0  0  0  0
  8  9  2  0  0  0  0
  9 10  1  0  0  0  0
  9 30  1  0  0  0  0
 10 11  1  0  0  0  0
 11 12  1  0  0  0  0
 11 31  1  0  0  0  0
 12 13  2  0  0  0  0
 12 14  1  0  0  0  0
 14 15  2  0  0  0  0
 14 19  1  0  0  0  0
 15 16  1  0  0  0  0
 15 32  1  0  0  0  0
 16 17  1  0  0  0  0
 16 33  1  0  0  0  0
 16 34  1  0  0  0  0
 17 18  1  0  0  0  0
 17 35  1  0  0  0  0
 17 36  1  0  0  0  0
 18 19  1  0  0  0  0
 18 23  2  0  0  0  0
 19 20  2  0  0  0  0
 20 21  1  0  0  0  0
 20 37  1  0  0  0  0
 21 22  2  0  0  0  0
 21 24  1  0  0  0  0
 22 23  1  0  0  0  0
 22 38  1  0  0  0  0
 23 39  1  0  0  0  0
M  END
$$$$
