
 OpenBabel07202414133D

 47 50  0  0  1  0  0  0  0  0999 V2000
    0.9320    0.0695    0.2612 C   0  0  0  0  0  0  0  0  0  0  0  0
    2.4563    0.0413    0.1125 C   0  0  3  0  0  0  0  0  0  0  0  0
    2.9202    1.0394   -0.9867 C   0  0  0  0  0  0  0  0  0  0  0  0
    2.5979    0.5829   -2.3532 N   0  0  0  0  0  0  0  0  0  0  0  0
    2.0517    1.4958   -3.2555 C   0  0  0  0  0  0  0  0  0  0  0  0
    1.7522    2.6422   -2.9160 O   0  0  0  0  0  0  0  0  0  0  0  0
    1.7629    1.0486   -4.6644 C   0  0  0  0  0  0  0  0  0  0  0  0
    2.7413    0.4030   -5.3222 C   0  0  0  0  0  0  0  0  0  0  0  0
    2.4762   -0.3358   -6.5716 C   0  0  0  0  0  0  0  0  0  0  0  0
    3.2882   -1.1460   -6.9972 O   0  0  0  0  0  0  0  0  0  0  0  0
    1.2770   -0.1081   -7.1737 N   0  0  0  0  0  0  0  0  0  0  0  0
    0.3168    0.7700   -6.6628 C   0  0  0  0  0  0  0  0  0  0  0  0
   -0.8111    1.0468   -7.4393 C   0  0  0  0  0  0  0  0  0  0  0  0
   -1.7553    1.9587   -6.9776 C   0  0  0  0  0  0  0  0  0  0  0  0
   -1.5805    2.5644   -5.7358 C   0  0  0  0  0  0  0  0  0  0  0  0
   -0.4612    2.2609   -4.9489 C   0  0  0  0  0  0  0  0  0  0  0  0
    0.5155    1.3649   -5.4026 C   0  0  0  0  0  0  0  0  0  0  0  0
    3.0347   -0.8002   -2.6286 C   0  0  0  0  0  0  0  0  0  0  0  0
    2.5778   -1.8023   -1.5678 C   0  0  0  0  0  0  0  0  0  0  0  0
    2.9115   -1.3270   -0.2248 N   0  0  0  0  0  0  0  0  0  0  0  0
    3.7237   -2.0684    0.6125 C   0  0  0  0  0  0  0  0  0  0  0  0
    3.5065   -2.0967    1.9957 C   0  0  0  0  0  0  0  0  0  0  0  0
    4.2822   -2.8909    2.8476 C   0  0  0  0  0  0  0  0  0  0  0  0
    5.3108   -3.6710    2.3299 C   0  0  0  0  0  0  0  0  0  0  0  0
    5.5582   -3.6459    0.9637 C   0  0  0  0  0  0  0  0  0  0  0  0
    6.8330   -4.6005    0.3080 Cl  0  0  0  0  0  0  0  0  0  0  0  0
    4.7776   -2.8565    0.1155 C   0  0  0  0  0  0  0  0  0  0  0  0
    0.5992    1.0507    0.6150 H   0  0  0  0  0  0  0  0  0  0  0  0
    0.5933   -0.6853    0.9777 H   0  0  0  0  0  0  0  0  0  0  0  0
    0.4216   -0.1251   -0.6881 H   0  0  0  0  0  0  0  0  0  0  0  0
    2.8948    0.3760    1.0613 H   0  0  0  0  0  0  0  0  0  0  0  0
    4.0133    1.1390   -0.9440 H   0  0  0  0  0  0  0  0  0  0  0  0
    2.5019    2.0327   -0.7870 H   0  0  0  0  0  0  0  0  0  0  0  0
    3.7328    0.2456   -4.9149 H   0  0  0  0  0  0  0  0  0  0  0  0
    1.1137   -0.6021   -8.0402 H   0  0  0  0  0  0  0  0  0  0  0  0
   -0.9466    0.5847   -8.4132 H   0  0  0  0  0  0  0  0  0  0  0  0
   -2.6180    2.2067   -7.5913 H   0  0  0  0  0  0  0  0  0  0  0  0
   -2.3104    3.2883   -5.3806 H   0  0  0  0  0  0  0  0  0  0  0  0
   -0.3615    2.7692   -3.9926 H   0  0  0  0  0  0  0  0  0  0  0  0
    4.1317   -0.7779   -2.6804 H   0  0  0  0  0  0  0  0  0  0  0  0
    2.6491   -1.1745   -3.5744 H   0  0  0  0  0  0  0  0  0  0  0  0
    2.9950   -2.7891   -1.7967 H   0  0  0  0  0  0  0  0  0  0  0  0
    1.4912   -1.9246   -1.6373 H   0  0  0  0  0  0  0  0  0  0  0  0
    2.6863   -1.5292    2.4272 H   0  0  0  0  0  0  0  0  0  0  0  0
    4.0702   -2.9070    3.9133 H   0  0  0  0  0  0  0  0  0  0  0  0
    5.9090   -4.2917    2.9907 H   0  0  0  0  0  0  0  0  0  0  0  0
    5.0190   -2.8479   -0.9437 H   0  0  0  0  0  0  0  0  0  0  0  0
  1  2  1  0  0  0  0
  1 28  1  0  0  0  0
  1 29  1  0  0  0  0
  1 30  1  0  0  0  0
  2  3  1  0  0  0  0
  2 20  1  0  0  0  0
  2 31  1  0  0  0  0
  3  4  1  0  0  0  0
  3 32  1  0  0  0  0
  3 33  1  0  0  0  0
  4  5  1  0  0  0  0
  4 18  1  0  0  0  0
  5  6  2  0  0  0  0
  5  7  1  0  0  0  0
  7  8  2  0  0  0  0
  7 17  1  0  0  0  0
  8  9  1  0  0  0  0
  8 34  1  0  0  0  0
  9 10  2  0  0  0  0
  9 11  1  0  0  0  0
 11 12  1  0  0  0  0
 11 35  1  0  0  0  0
 12 13  1  0  0  0  0
 12 17  2  0  0  0  0
 13 14  2  0  0  0  0
 13 36  1  0  0  0  0
 14 15  1  0  0  0  0
 14 37  1  0  0  0  0
 15 16  2  0  0  0  0
 15 38  1  0  0  0  0
 16 17  1  0  0  0  0
 16 39  1  0  0  0  0
 18 19  1  0  0  0  0
 18 40  1  0  0  0  0
 18 41  1  0  0  0  0
 19 20  1  0  0  0  0
 19 42  1  0  0  0  0
 19 43  1  0  0  0  0
 20 21  1  0  0  0  0
 21 22  1  0  0  0  0
 21 27  2  0  0  0  0
 22 23  2  0  0  0  0
 22 44  1  0  0  0  0
 23 24  1  0  0  0  0
 23 45  1  0  0  0  0
 24 25  2  0  0  0  0
 24 46  1  0  0  0  0
 25 26  1  0  0  0  0
 25 27  1  0  0  0  0
 27 47  1  0  0  0  0
M  END
$$$$
