
 OpenBabel07202414193D

 34 35  0  0  0  0  0  0  0  0999 V2000
    3.0799   -2.9234    1.0608 N   0  0  0  0  0  0  0  0  0  0  0  0
    2.5604   -1.7556    0.9332 C   0  0  0  0  0  0  0  0  0  0  0  0
    1.2319   -1.6255    0.6907 N   0  0  0  0  0  0  0  0  0  0  0  0
    3.2087   -0.5587    1.0014 N   0  0  0  0  0  0  0  0  0  0  0  0
    4.5895   -0.3475    1.1847 C   0  0  0  0  0  0  0  0  0  0  0  0
    5.1786    0.7813    0.5996 C   0  0  0  0  0  0  0  0  0  0  0  0
    6.5657    0.9447    0.5936 C   0  0  0  0  0  0  0  0  0  0  0  0
    7.3846    0.0061    1.2241 C   0  0  0  0  0  0  0  0  0  0  0  0
    8.7939    0.0684    1.1733 O   0  0  0  0  0  0  0  0  0  0  0  0
    9.3667    1.3177    1.3939 C   0  0  0  0  0  0  0  0  0  0  0  0
    8.7186    2.3381    1.6054 O   0  0  0  0  0  0  0  0  0  0  0  0
   10.7405    1.2583    1.3207 N   0  0  0  0  0  0  0  0  0  0  0  0
   11.5863    2.3363    1.6653 C   0  0  0  0  0  0  0  0  0  0  0  0
   11.1366    3.3713    2.4937 C   0  0  0  0  0  0  0  0  0  0  0  0
   11.9368    4.4669    2.7829 C   0  0  0  0  0  0  0  0  0  0  0  0
   13.2186    4.5316    2.2609 C   0  0  0  0  0  0  0  0  0  0  0  0
   13.7050    3.4856    1.4788 C   0  0  0  0  0  0  0  0  0  0  0  0
   12.8970    2.3801    1.1866 C   0  0  0  0  0  0  0  0  0  0  0  0
    6.8177   -1.0889    1.8669 C   0  0  0  0  0  0  0  0  0  0  0  0
    5.4279   -1.2598    1.8406 C   0  0  0  0  0  0  0  0  0  0  0  0
    2.3646   -3.6429    0.9812 H   0  0  0  0  0  0  0  0  0  0  0  0
    0.7688   -2.4742    0.3921 H   0  0  0  0  0  0  0  0  0  0  0  0
    0.9510   -0.8346    0.1296 H   0  0  0  0  0  0  0  0  0  0  0  0
    2.7046    0.2593    0.7020 H   0  0  0  0  0  0  0  0  0  0  0  0
    4.5696    1.5306    0.1013 H   0  0  0  0  0  0  0  0  0  0  0  0
    6.9837    1.8100    0.0881 H   0  0  0  0  0  0  0  0  0  0  0  0
   11.1391    0.4334    0.8894 H   0  0  0  0  0  0  0  0  0  0  0  0
   10.1532    3.3439    2.9527 H   0  0  0  0  0  0  0  0  0  0  0  0
   11.5442    5.2656    3.4072 H   0  0  0  0  0  0  0  0  0  0  0  0
   13.8431    5.4003    2.4710 H   0  0  0  0  0  0  0  0  0  0  0  0
   14.7185    3.5484    1.0796 H   0  0  0  0  0  0  0  0  0  0  0  0
   13.2979    1.5941    0.5551 H   0  0  0  0  0  0  0  0  0  0  0  0
    7.4379   -1.8234    2.3706 H   0  0  0  0  0  0  0  0  0  0  0  0
    5.0025   -2.1305    2.3342 H   0  0  0  0  0  0  0  0  0  0  0  0
  1  2  2  0  0  0  0
  1 21  1  0  0  0  0
  2  3  1  0  0  0  0
  2  4  1  0  0  0  0
  3 22  1  0  0  0  0
  3 23  1  0  0  0  0
  4  5  1  0  0  0  0
  4 24  1  0  0  0  0
  5  6  1  0  0  0  0
  5 20  2  0  0  0  0
  6  7  2  0  0  0  0
  6 25  1  0  0  0  0
  7  8  1  0  0  0  0
  7 26  1  0  0  0  0
  8  9  1  0  0  0  0
  8 19  2  0  0  0  0
  9 10  1  0  0  0  0
 10 11  2  0  0  0  0
 10 12  1  0  0  0  0
 12 13  1  0  0  0  0
 12 27  1  0  0  0  0
 13 14  1  0  0  0  0
 13 18  2  0  0  0  0
 14 15  2  0  0  0  0
 14 28  1  0  0  0  0
 15 16  1  0  0  0  0
 15 29  1  0  0  0  0
 16 17  2  0  0  0  0
 16 30  1  0  0  0  0
 17 18  1  0  0  0  0
 17 31  1  0  0  0  0
 18 32  1  0  0  0  0
 19 20  1  0  0  0  0
 19 33  1  0  0  0  0
 20 34  1  0  0  0  0
M  END
$$$$
