
 OpenBabel07202414123D

 69 72  0  0  1  0  0  0  0  0999 V2000
    2.2047    1.2356   -1.2837 C   0  0  0  0  0  0  0  0  0  0  0  0
    2.3608    0.1242   -0.2312 C   0  0  0  0  0  0  0  0  0  0  0  0
    3.2967   -0.9680   -0.7820 C   0  0  0  0  0  0  0  0  0  0  0  0
    2.8682    0.6434    1.1222 C   0  0  0  0  0  0  0  0  0  0  0  0
    3.4119    1.9221    1.3237 C   0  0  0  0  0  0  0  0  0  0  0  0
    3.8445    2.3526    2.6031 C   0  0  0  0  0  0  0  0  0  0  0  0
    3.6635    1.5729    3.7524 C   0  0  0  0  0  0  0  0  0  0  0  0
    4.0441    1.9940    5.1043 N   0  0  0  0  0  0  0  0  0  0  0  0
    4.1486    0.9837    6.2221 C   0  0  3  0  0  0  0  0  0  0  0  0
    2.7299    0.7993    6.8771 C   0  0  0  0  0  0  0  0  0  0  0  0
    2.2599    1.6162    7.6671 O   0  0  0  0  0  0  0  0  0  0  0  0
    1.9958   -0.2961    6.4527 N   0  0  0  0  0  0  0  0  0  0  0  0
    0.6843   -0.6228    6.9716 C   0  0  0  0  0  0  0  0  0  0  0  0
    0.0543   -1.7534    6.1523 C   0  0  0  0  0  0  0  0  0  0  0  0
   -1.3121   -2.1265    6.6530 C   0  0  0  0  0  0  0  0  0  0  0  0
   -1.4728   -3.1419    7.6074 C   0  0  0  0  0  0  0  0  0  0  0  0
   -2.7401   -3.4765    8.0854 C   0  0  0  0  0  0  0  0  0  0  0  0
   -3.8603   -2.7922    7.6125 C   0  0  0  0  0  0  0  0  0  0  0  0
   -3.7006   -1.7938    6.6552 C   0  0  0  0  0  0  0  0  0  0  0  0
   -4.7713   -1.1262    6.2196 F   0  0  0  0  0  0  0  0  0  0  0  0
   -2.4356   -1.4458    6.1815 C   0  0  0  0  0  0  0  0  0  0  0  0
    4.8981   -0.3495    6.0331 C   0  0  0  0  0  0  0  0  0  0  0  0
    5.7850   -0.6526    4.9982 C   0  0  0  0  0  0  0  0  0  0  0  0
    6.3485   -1.9315    4.9143 C   0  0  0  0  0  0  0  0  0  0  0  0
    6.0379   -2.8663    5.8868 C   0  0  0  0  0  0  0  0  0  0  0  0
    5.2692   -2.5889    6.9511 N   0  0  0  0  0  0  0  0  0  0  0  0
    4.7592   -1.3397    7.0196 C   0  0  0  0  0  0  0  0  0  0  0  0
    3.9816    3.3991    5.4027 C   0  0  0  0  0  0  0  0  0  0  0  0
    3.6490    4.2328    4.5550 O   0  0  0  0  0  0  0  0  0  0  0  0
    4.2434    3.9255    6.7527 C   0  0  0  0  0  0  0  0  0  0  0  0
    3.8218    5.1773    7.1630 C   0  0  0  0  0  0  0  0  0  0  0  0
    4.1954    5.3704    8.4547 O   0  0  0  0  0  0  0  0  0  0  0  0
    4.8505    4.2231    8.7700 C   0  0  0  0  0  0  0  0  0  0  0  0
    4.9475    3.3475    7.7939 N   0  0  0  0  0  0  0  0  0  0  0  0
    3.0930    0.3314    3.5191 C   0  0  0  0  0  0  0  0  0  0  0  0
    2.8147   -0.1661    2.2474 C   0  0  0  0  0  0  0  0  0  0  0  0
    0.6619   -0.6633   -0.0070 S   0  0  0  0  0  0  0  0  0  0  0  0
   -0.3551    0.5911    0.7475 C   0  0  0  0  0  0  0  0  0  0  0  0
    0.1028   -0.9109   -1.3197 O   0  0  0  0  0  0  0  0  0  0  0  0
    0.7298   -1.7705    0.9358 O   0  0  0  0  0  0  0  0  0  0  0  0
    3.1700    1.6805   -1.5495 H   0  0  0  0  0  0  0  0  0  0  0  0
    1.5549    2.0399   -0.9222 H   0  0  0  0  0  0  0  0  0  0  0  0
    1.7623    0.8501   -2.2073 H   0  0  0  0  0  0  0  0  0  0  0  0
    4.2952   -0.5687   -0.9962 H   0  0  0  0  0  0  0  0  0  0  0  0
    2.8977   -1.3896   -1.7116 H   0  0  0  0  0  0  0  0  0  0  0  0
    3.4186   -1.8004   -0.0802 H   0  0  0  0  0  0  0  0  0  0  0  0
    3.5425    2.6238    0.5037 H   0  0  0  0  0  0  0  0  0  0  0  0
    4.3259    3.3251    2.6492 H   0  0  0  0  0  0  0  0  0  0  0  0
    4.7735    1.4175    6.9953 H   0  0  0  0  0  0  0  0  0  0  0  0
    2.4778   -1.0543    5.9876 H   0  0  0  0  0  0  0  0  0  0  0  0
    0.0660    0.2807    6.9529 H   0  0  0  0  0  0  0  0  0  0  0  0
    0.8172   -0.9218    8.0164 H   0  0  0  0  0  0  0  0  0  0  0  0
    0.7054   -2.6383    6.1710 H   0  0  0  0  0  0  0  0  0  0  0  0
   -0.0059   -1.4669    5.0932 H   0  0  0  0  0  0  0  0  0  0  0  0
   -0.6068   -3.6834    7.9849 H   0  0  0  0  0  0  0  0  0  0  0  0
   -2.8601   -4.2612    8.8231 H   0  0  0  0  0  0  0  0  0  0  0  0
   -4.8555   -3.0272    7.9762 H   0  0  0  0  0  0  0  0  0  0  0  0
   -2.3570   -0.6489    5.4505 H   0  0  0  0  0  0  0  0  0  0  0  0
    6.0445    0.0823    4.2406 H   0  0  0  0  0  0  0  0  0  0  0  0
    7.0179   -2.1977    4.1025 H   0  0  0  0  0  0  0  0  0  0  0  0
    6.4194   -3.8835    5.8427 H   0  0  0  0  0  0  0  0  0  0  0  0
    4.1839   -1.1638    7.9283 H   0  0  0  0  0  0  0  0  0  0  0  0
    3.2732    5.9787    6.6894 H   0  0  0  0  0  0  0  0  0  0  0  0
    5.2252    4.1462    9.7808 H   0  0  0  0  0  0  0  0  0  0  0  0
    2.7771   -0.3169    4.3069 H   0  0  0  0  0  0  0  0  0  0  0  0
    2.5031   -1.2054    2.1972 H   0  0  0  0  0  0  0  0  0  0  0  0
   -0.4439    1.4394    0.0680 H   0  0  0  0  0  0  0  0  0  0  0  0
    0.0742    0.8935    1.7021 H   0  0  0  0  0  0  0  0  0  0  0  0
   -1.3433    0.1539    0.9143 H   0  0  0  0  0  0  0  0  0  0  0  0
  1  2  1  0  0  0  0
  1 41  1  0  0  0  0
  1 42  1  0  0  0  0
  1 43  1  0  0  0  0
  2  3  1  0  0  0  0
  2  4  1  0  0  0  0
  2 37  1  0  0  0  0
  3 44  1  0  0  0  0
  3 45  1  0  0  0  0
  3 46  1  0  0  0  0
  4  5  1  0  0  0  0
  4 36  2  0  0  0  0
  5  6  2  0  0  0  0
  5 47  1  0  0  0  0
  6  7  1  0  0  0  0
  6 48  1  0  0  0  0
  7  8  1  0  0  0  0
  7 35  2  0  0  0  0
  8  9  1  0  0  0  0
  8 28  1  0  0  0  0
  9 10  1  0  0  0  0
  9 22  1  0  0  0  0
  9 49  1  0  0  0  0
 10 11  2  0  0  0  0
 10 12  1  0  0  0  0
 12 13  1  0  0  0  0
 12 50  1  0  0  0  0
 13 14  1  0  0  0  0
 13 51  1  0  0  0  0
 13 52  1  0  0  0  0
 14 15  1  0  0  0  0
 14 53  1  0  0  0  0
 14 54  1  0  0  0  0
 15 16  1  0  0  0  0
 15 21  2  0  0  0  0
 16 17  2  0  0  0  0
 16 55  1  0  0  0  0
 17 18  1  0  0  0  0
 17 56  1  0  0  0  0
 18 19  2  0  0  0  0
 18 57  1  0  0  0  0
 19 20  1  0  0  0  0
 19 21  1  0  0  0  0
 21 58  1  0  0  0  0
 22 23  1  0  0  0  0
 22 27  2  0  0  0  0
 23 24  2  0  0  0  0
 23 59  1  0  0  0  0
 24 25  1  0  0  0  0
 24 60  1  0  0  0  0
 25 26  2  0  0  0  0
 25 61  1  0  0  0  0
 26 27  1  0  0  0  0
 27 62  1  0  0  0  0
 28 29  2  0  0  0  0
 28 30  1  0  0  0  0
 30 31  2  0  0  0  0
 30 34  1  0  0  0  0
 31 32  1  0  0  0  0
 31 63  1  0  0  0  0
 32 33  1  0  0  0  0
 33 34  2  0  0  0  0
 33 64  1  0  0  0  0
 35 36  1  0  0  0  0
 35 65  1  0  0  0  0
 36 66  1  0  0  0  0
 37 38  1  0  0  0  0
 37 39  2  0  0  0  0
 37 40  2  0  0  0  0
 38 67  1  0  0  0  0
 38 68  1  0  0  0  0
 38 69  1  0  0  0  0
M  END
$$$$
