
 OpenBabel07202414183D

 56 59  0  0  0  0  0  0  0  0999 V2000
   -0.6719    1.0279    2.3618 Cl  0  0  0  0  0  0  0  0  0  0  0  0
    0.2496    0.5321    0.9931 C   0  0  0  0  0  0  0  0  0  0  0  0
    0.3043    1.3602   -0.1261 C   0  0  0  0  0  0  0  0  0  0  0  0
    1.0754    0.9788   -1.2217 C   0  0  0  0  0  0  0  0  0  0  0  0
    1.7838   -0.2301   -1.1895 C   0  0  0  0  0  0  0  0  0  0  0  0
    1.7127   -1.0807   -0.0773 C   0  0  0  0  0  0  0  0  0  0  0  0
    2.4457   -2.3152   -0.0766 N   0  0  0  0  0  0  0  0  0  0  0  0
    1.7286   -3.6031    0.0472 C   0  0  0  0  0  0  0  0  0  0  0  0
    0.1985   -3.5800    0.0371 C   0  0  0  0  0  0  0  0  0  0  0  0
   -0.4955   -4.9577   -0.0614 C   0  0  0  0  0  0  0  0  0  0  0  0
   -2.0156   -4.7058   -0.0437 C   0  0  0  0  0  0  0  0  0  0  0  0
   -2.8360   -5.9874   -0.0700 C   0  0  0  0  0  0  0  0  0  0  0  0
   -2.4320   -6.9261    1.0585 C   0  0  0  0  0  0  0  0  0  0  0  0
   -0.9370   -7.2235    1.0149 C   0  0  0  0  0  0  0  0  0  0  0  0
   -0.0980   -5.9414    1.0533 C   0  0  0  0  0  0  0  0  0  0  0  0
    3.8329   -2.2579   -0.3025 C   0  0  0  0  0  0  0  0  0  0  0  0
    4.4507   -1.1988   -0.4560 O   0  0  0  0  0  0  0  0  0  0  0  0
    4.6203   -3.5720   -0.3364 C   0  0  0  0  0  0  0  0  0  0  0  0
    4.8266   -4.1666   -1.7162 C   0  0  0  0  0  0  0  0  0  0  0  0
    4.9143   -3.3256   -2.8292 C   0  0  0  0  0  0  0  0  0  0  0  0
    5.0961   -3.7443   -4.0984 N   0  0  0  0  0  0  0  0  0  0  0  0
    5.2344   -5.0725   -4.2813 C   0  0  0  0  0  0  0  0  0  0  0  0
    5.2174   -6.0181   -3.2577 C   0  0  0  0  0  0  0  0  0  0  0  0
    5.4039   -7.3846   -3.5335 C   0  0  0  0  0  0  0  0  0  0  0  0
    5.4163   -8.3217   -2.5066 C   0  0  0  0  0  0  0  0  0  0  0  0
    5.2458   -7.8999   -1.1938 C   0  0  0  0  0  0  0  0  0  0  0  0
    5.0526   -6.5426   -0.9108 C   0  0  0  0  0  0  0  0  0  0  0  0
    5.0244   -5.5599   -1.9310 C   0  0  0  0  0  0  0  0  0  0  0  0
    0.9411   -0.6841    1.0234 C   0  0  0  0  0  0  0  0  0  0  0  0
   -0.2345    2.3018   -0.1456 H   0  0  0  0  0  0  0  0  0  0  0  0
    1.1307    1.6157   -2.0991 H   0  0  0  0  0  0  0  0  0  0  0  0
    2.3862   -0.5054   -2.0527 H   0  0  0  0  0  0  0  0  0  0  0  0
    2.0852   -4.0829    0.9648 H   0  0  0  0  0  0  0  0  0  0  0  0
    2.0586   -4.2214   -0.7965 H   0  0  0  0  0  0  0  0  0  0  0  0
   -0.1398   -2.9768   -0.8153 H   0  0  0  0  0  0  0  0  0  0  0  0
   -0.1603   -3.0871    0.9459 H   0  0  0  0  0  0  0  0  0  0  0  0
   -0.2288   -5.4143   -1.0245 H   0  0  0  0  0  0  0  0  0  0  0  0
   -2.2964   -4.0811   -0.8998 H   0  0  0  0  0  0  0  0  0  0  0  0
   -2.2791   -4.1394    0.8596 H   0  0  0  0  0  0  0  0  0  0  0  0
   -2.7035   -6.4891   -1.0358 H   0  0  0  0  0  0  0  0  0  0  0  0
   -3.8997   -5.7389    0.0198 H   0  0  0  0  0  0  0  0  0  0  0  0
   -3.0024   -7.8588    0.9827 H   0  0  0  0  0  0  0  0  0  0  0  0
   -2.6883   -6.4729    2.0243 H   0  0  0  0  0  0  0  0  0  0  0  0
   -0.7064   -7.7854    0.1011 H   0  0  0  0  0  0  0  0  0  0  0  0
   -0.6689   -7.8684    1.8598 H   0  0  0  0  0  0  0  0  0  0  0  0
    0.9594   -6.2155    0.9598 H   0  0  0  0  0  0  0  0  0  0  0  0
   -0.2190   -5.4644    2.0338 H   0  0  0  0  0  0  0  0  0  0  0  0
    4.1494   -4.2850    0.3419 H   0  0  0  0  0  0  0  0  0  0  0  0
    5.6087   -3.3667    0.0966 H   0  0  0  0  0  0  0  0  0  0  0  0
    4.8472   -2.2432   -2.7397 H   0  0  0  0  0  0  0  0  0  0  0  0
    5.3838   -5.3669   -5.3162 H   0  0  0  0  0  0  0  0  0  0  0  0
    5.5537   -7.7270   -4.5574 H   0  0  0  0  0  0  0  0  0  0  0  0
    5.5687   -9.3746   -2.7281 H   0  0  0  0  0  0  0  0  0  0  0  0
    5.2710   -8.6265   -0.3853 H   0  0  0  0  0  0  0  0  0  0  0  0
    4.9437   -6.2669    0.1347 H   0  0  0  0  0  0  0  0  0  0  0  0
    0.9057   -1.2941    1.9206 H   0  0  0  0  0  0  0  0  0  0  0  0
  1  2  1  0  0  0  0
  2  3  1  0  0  0  0
  2 29  2  0  0  0  0
  3  4  2  0  0  0  0
  3 30  1  0  0  0  0
  4  5  1  0  0  0  0
  4 31  1  0  0  0  0
  5  6  2  0  0  0  0
  5 32  1  0  0  0  0
  6  7  1  0  0  0  0
  6 29  1  0  0  0  0
  7  8  1  0  0  0  0
  7 16  1  0  0  0  0
  8  9  1  0  0  0  0
  8 33  1  0  0  0  0
  8 34  1  0  0  0  0
  9 10  1  0  0  0  0
  9 35  1  0  0  0  0
  9 36  1  0  0  0  0
 10 11  1  0  0  0  0
 10 15  1  0  0  0  0
 10 37  1  0  0  0  0
 11 12  1  0  0  0  0
 11 38  1  0  0  0  0
 11 39  1  0  0  0  0
 12 13  1  0  0  0  0
 12 40  1  0  0  0  0
 12 41  1  0  0  0  0
 13 14  1  0  0  0  0
 13 42  1  0  0  0  0
 13 43  1  0  0  0  0
 14 15  1  0  0  0  0
 14 44  1  0  0  0  0
 14 45  1  0  0  0  0
 15 46  1  0  0  0  0
 15 47  1  0  0  0  0
 16 17  2  0  0  0  0
 16 18  1  0  0  0  0
 18 19  1  0  0  0  0
 18 48  1  0  0  0  0
 18 49  1  0  0  0  0
 19 20  1  0  0  0  0
 19 28  2  0  0  0  0
 20 21  2  0  0  0  0
 20 50  1  0  0  0  0
 21 22  1  0  0  0  0
 22 23  2  0  0  0  0
 22 51  1  0  0  0  0
 23 24  1  0  0  0  0
 23 28  1  0  0  0  0
 24 25  2  0  0  0  0
 24 52  1  0  0  0  0
 25 26  1  0  0  0  0
 25 53  1  0  0  0  0
 26 27  2  0  0  0  0
 26 54  1  0  0  0  0
 27 28  1  0  0  0  0
 27 55  1  0  0  0  0
 29 56  1  0  0  0  0
M  END
$$$$
