
 OpenBabel07202414203D

 43 46  0  0  1  0  0  0  0  0999 V2000
    4.4283   -8.8842    4.2208 O   0  0  0  0  0  0  0  0  0  0  0  0
    4.7748   -7.9737    3.1889 C   0  0  0  0  0  0  0  0  0  0  0  0
    4.5068   -6.5731    3.6581 C   0  0  0  0  0  0  0  0  0  0  0  0
    5.1313   -6.0815    4.8077 C   0  0  0  0  0  0  0  0  0  0  0  0
    4.9221   -4.7668    5.2302 C   0  0  0  0  0  0  0  0  0  0  0  0
    4.0832   -3.8855    4.5082 C   0  0  0  0  0  0  0  0  0  0  0  0
    3.9003   -2.5177    4.8281 C   0  0  0  0  0  0  0  0  0  0  0  0
    4.4979   -1.9610    5.9855 N   0  0  0  0  0  0  0  0  0  0  0  0
    5.0352   -0.6878    6.0259 C   0  0  0  0  0  0  0  0  0  0  0  0
    5.1786    0.0234    5.0328 O   0  0  0  0  0  0  0  0  0  0  0  0
    5.5311   -0.2034    7.3932 C   0  0  3  0  0  0  0  0  0  0  0  0
    6.9260   -0.7194    7.7407 C   0  0  0  0  0  0  0  0  0  0  0  0
    6.8586   -2.0584    8.4525 C   0  0  0  0  0  0  0  0  0  0  0  0
    6.0683   -2.0173    9.6412 O   0  0  0  0  0  0  0  0  0  0  0  0
    4.8701   -1.3690    9.5369 C   0  0  0  0  0  0  0  0  0  0  0  0
    3.9551   -1.6042   10.5638 C   0  0  0  0  0  0  0  0  0  0  0  0
    2.7015   -0.9890   10.5454 C   0  0  0  0  0  0  0  0  0  0  0  0
    2.3723   -0.1246    9.5057 C   0  0  0  0  0  0  0  0  0  0  0  0
    0.8269    0.6276    9.4685 Cl  0  0  0  0  0  0  0  0  0  0  0  0
    3.2903    0.1342    8.4908 C   0  0  0  0  0  0  0  0  0  0  0  0
    4.5497   -0.4895    8.5003 C   0  0  0  0  0  0  0  0  0  0  0  0
    3.0908   -1.7465    3.9916 C   0  0  0  0  0  0  0  0  0  0  0  0
    2.4437   -2.2199    2.9036 N   0  0  0  0  0  0  0  0  0  0  0  0
    2.6434   -3.5218    2.6101 C   0  0  0  0  0  0  0  0  0  0  0  0
    3.4503   -4.3899    3.3498 C   0  0  0  0  0  0  0  0  0  0  0  0
    3.6607   -5.7202    2.9401 C   0  0  0  0  0  0  0  0  0  0  0  0
    4.4887   -9.7755    3.8397 H   0  0  0  0  0  0  0  0  0  0  0  0
    4.1837   -8.2145    2.2993 H   0  0  0  0  0  0  0  0  0  0  0  0
    5.8359   -8.0915    2.9439 H   0  0  0  0  0  0  0  0  0  0  0  0
    5.7944   -6.7271    5.3811 H   0  0  0  0  0  0  0  0  0  0  0  0
    5.4566   -4.4346    6.1122 H   0  0  0  0  0  0  0  0  0  0  0  0
    4.6570   -2.5839    6.7650 H   0  0  0  0  0  0  0  0  0  0  0  0
    5.6087    0.8901    7.3038 H   0  0  0  0  0  0  0  0  0  0  0  0
    7.3971    0.0009    8.4241 H   0  0  0  0  0  0  0  0  0  0  0  0
    7.5634   -0.7880    6.8523 H   0  0  0  0  0  0  0  0  0  0  0  0
    7.8690   -2.3598    8.7512 H   0  0  0  0  0  0  0  0  0  0  0  0
    6.4807   -2.8520    7.8009 H   0  0  0  0  0  0  0  0  0  0  0  0
    4.2159   -2.2747   11.3790 H   0  0  0  0  0  0  0  0  0  0  0  0
    1.9906   -1.1873   11.3426 H   0  0  0  0  0  0  0  0  0  0  0  0
    3.0266    0.8219    7.6888 H   0  0  0  0  0  0  0  0  0  0  0  0
    2.8948   -0.6984    4.2026 H   0  0  0  0  0  0  0  0  0  0  0  0
    2.1292   -3.8592    1.7161 H   0  0  0  0  0  0  0  0  0  0  0  0
    3.1728   -6.0875    2.0376 H   0  0  0  0  0  0  0  0  0  0  0  0
  1  2  1  0  0  0  0
  1 27  1  0  0  0  0
  2  3  1  0  0  0  0
  2 28  1  0  0  0  0
  2 29  1  0  0  0  0
  3  4  1  0  0  0  0
  3 26  2  0  0  0  0
  4  5  2  0  0  0  0
  4 30  1  0  0  0  0
  5  6  1  0  0  0  0
  5 31  1  0  0  0  0
  6  7  1  0  0  0  0
  6 25  2  0  0  0  0
  7  8  1  0  0  0  0
  7 22  2  0  0  0  0
  8  9  1  0  0  0  0
  8 32  1  0  0  0  0
  9 10  2  0  0  0  0
  9 11  1  0  0  0  0
 11 12  1  0  0  0  0
 11 21  1  0  0  0  0
 11 33  1  0  0  0  0
 12 13  1  0  0  0  0
 12 34  1  0  0  0  0
 12 35  1  0  0  0  0
 13 14  1  0  0  0  0
 13 36  1  0  0  0  0
 13 37  1  0  0  0  0
 14 15  1  0  0  0  0
 15 16  1  0  0  0  0
 15 21  2  0  0  0  0
 16 17  2  0  0  0  0
 16 38  1  0  0  0  0
 17 18  1  0  0  0  0
 17 39  1  0  0  0  0
 18 19  1  0  0  0  0
 18 20  2  0  0  0  0
 20 21  1  0  0  0  0
 20 40  1  0  0  0  0
 22 23  1  0  0  0  0
 22 41  1  0  0  0  0
 23 24  2  0  0  0  0
 24 25  1  0  0  0  0
 24 42  1  0  0  0  0
 25 26  1  0  0  0  0
 26 43  1  0  0  0  0
M  END
$$$$
