
 OpenBabel07202414203D

 52 55  0  0  1  0  0  0  0  0999 V2000
    3.2990    0.3748    4.7527 C   0  0  0  0  0  0  0  0  0  0  0  0
    3.3607    1.7280    4.4472 C   0  0  0  0  0  0  0  0  0  0  0  0
    2.5528    2.2665    3.4320 C   0  0  0  0  0  0  0  0  0  0  0  0
    1.6504    1.4661    2.6811 C   0  0  0  0  0  0  0  0  0  0  0  0
    1.5927    0.0926    3.0483 C   0  0  0  0  0  0  0  0  0  0  0  0
    2.4127   -0.4380    4.0610 C   0  0  0  0  0  0  0  0  0  0  0  0
    0.6933   -0.7370    2.3882 C   0  0  0  0  0  0  0  0  0  0  0  0
   -0.1289   -0.3369    1.4035 N   0  0  0  0  0  0  0  0  0  0  0  0
   -0.0537    0.9669    1.0488 C   0  0  0  0  0  0  0  0  0  0  0  0
    0.7939    1.9190    1.6261 C   0  0  0  0  0  0  0  0  0  0  0  0
    0.8192    3.2808    1.1757 N   0  0  0  0  0  0  0  0  0  0  0  0
   -0.1154    3.8717    0.3268 C   0  0  0  0  0  0  0  0  0  0  0  0
   -1.0852    3.2893   -0.1639 O   0  0  0  0  0  0  0  0  0  0  0  0
    0.0811    5.3831    0.0405 C   0  0  3  0  0  0  0  0  0  0  0  0
    0.8225    5.7197   -1.2486 C   0  0  0  0  0  0  0  0  0  0  0  0
    0.7695    4.9236   -2.4046 C   0  0  0  0  0  0  0  0  0  0  0  0
    1.3816    5.3417   -3.5954 C   0  0  0  0  0  0  0  0  0  0  0  0
    2.0423    6.5687   -3.6588 C   0  0  0  0  0  0  0  0  0  0  0  0
    2.0864    7.3754   -2.5269 C   0  0  0  0  0  0  0  0  0  0  0  0
    1.4884    6.9625   -1.3350 C   0  0  0  0  0  0  0  0  0  0  0  0
    2.8596    8.9115   -2.6040 Cl  0  0  0  0  0  0  0  0  0  0  0  0
   -1.2596    5.9646   -0.0408 N   0  0  0  0  0  0  0  0  0  0  0  0
   -1.6841    6.9873    0.7665 C   0  0  0  0  0  0  0  0  0  0  0  0
   -0.9728    7.4883    1.6353 O   0  0  0  0  0  0  0  0  0  0  0  0
   -3.1356    7.4249    0.5519 C   0  0  0  0  0  0  0  0  0  0  0  0
   -4.0520    6.7168    1.4486 N   0  0  0  0  0  0  0  0  0  0  0  0
   -4.2796    7.1988    2.7244 C   0  0  0  0  0  0  0  0  0  0  0  0
   -5.0996    6.5830    3.5891 C   0  0  0  0  0  0  0  0  0  0  0  0
   -5.7633    5.3375    3.1635 C   0  0  0  0  0  0  0  0  0  0  0  0
   -6.4926    4.6936    3.9075 O   0  0  0  0  0  0  0  0  0  0  0  0
   -5.4967    4.9363    1.8778 N   0  0  0  0  0  0  0  0  0  0  0  0
   -4.6346    5.5408    0.9966 C   0  0  0  0  0  0  0  0  0  0  0  0
   -4.4048    5.0537   -0.1066 O   0  0  0  0  0  0  0  0  0  0  0  0
   -5.2195    7.0986    5.0140 C   0  0  0  0  0  0  0  0  0  0  0  0
   -5.3190    7.5263    6.1960 N   0  0  0  0  0  0  0  0  0  0  0  0
    3.9292   -0.0468    5.5328 H   0  0  0  0  0  0  0  0  0  0  0  0
    4.0383    2.3708    5.0056 H   0  0  0  0  0  0  0  0  0  0  0  0
    2.6343    3.3348    3.2560 H   0  0  0  0  0  0  0  0  0  0  0  0
    2.3605   -1.4955    4.3175 H   0  0  0  0  0  0  0  0  0  0  0  0
    0.5985   -1.7900    2.6440 H   0  0  0  0  0  0  0  0  0  0  0  0
   -0.7233    1.1974    0.2287 H   0  0  0  0  0  0  0  0  0  0  0  0
    1.5418    3.8734    1.5625 H   0  0  0  0  0  0  0  0  0  0  0  0
    0.6226    5.8169    0.8897 H   0  0  0  0  0  0  0  0  0  0  0  0
    0.2269    3.9782   -2.4129 H   0  0  0  0  0  0  0  0  0  0  0  0
    1.3243    4.7161   -4.4843 H   0  0  0  0  0  0  0  0  0  0  0  0
    2.4984    6.8940   -4.5900 H   0  0  0  0  0  0  0  0  0  0  0  0
    1.5096    7.6237   -0.4716 H   0  0  0  0  0  0  0  0  0  0  0  0
   -1.9571    5.4080   -0.5376 H   0  0  0  0  0  0  0  0  0  0  0  0
   -3.4189    7.2531   -0.4932 H   0  0  0  0  0  0  0  0  0  0  0  0
   -3.2067    8.5056    0.7248 H   0  0  0  0  0  0  0  0  0  0  0  0
   -3.7346    8.0983    3.0064 H   0  0  0  0  0  0  0  0  0  0  0  0
   -5.9199    4.0725    1.5710 H   0  0  0  0  0  0  0  0  0  0  0  0
  1  2  1  0  0  0  0
  1  6  2  0  0  0  0
  1 36  1  0  0  0  0
  2  3  2  0  0  0  0
  2 37  1  0  0  0  0
  3  4  1  0  0  0  0
  3 38  1  0  0  0  0
  4  5  1  0  0  0  0
  4 10  2  0  0  0  0
  5  6  1  0  0  0  0
  5  7  2  0  0  0  0
  6 39  1  0  0  0  0
  7  8  1  0  0  0  0
  7 40  1  0  0  0  0
  8  9  2  0  0  0  0
  9 10  1  0  0  0  0
  9 41  1  0  0  0  0
 10 11  1  0  0  0  0
 11 12  1  0  0  0  0
 11 42  1  0  0  0  0
 12 13  2  0  0  0  0
 12 14  1  0  0  0  0
 14 15  1  0  0  0  0
 14 22  1  0  0  0  0
 14 43  1  0  0  0  0
 15 16  1  0  0  0  0
 15 20  2  0  0  0  0
 16 17  2  0  0  0  0
 16 44  1  0  0  0  0
 17 18  1  0  0  0  0
 17 45  1  0  0  0  0
 18 19  2  0  0  0  0
 18 46  1  0  0  0  0
 19 20  1  0  0  0  0
 19 21  1  0  0  0  0
 20 47  1  0  0  0  0
 22 23  1  0  0  0  0
 22 48  1  0  0  0  0
 23 24  2  0  0  0  0
 23 25  1  0  0  0  0
 25 26  1  0  0  0  0
 25 49  1  0  0  0  0
 25 50  1  0  0  0  0
 26 27  1  0  0  0  0
 26 32  1  0  0  0  0
 27 28  2  0  0  0  0
 27 51  1  0  0  0  0
 28 29  1  0  0  0  0
 28 34  1  0  0  0  0
 29 30  2  0  0  0  0
 29 31  1  0  0  0  0
 31 32  1  0  0  0  0
 31 52  1  0  0  0  0
 32 33  2  0  0  0  0
 34 35  3  0  0  0  0
M  END
$$$$
