
 OpenBabel07202414133D

 51 54  0  0  0  0  0  0  0  0999 V2000
    2.6397   -1.7683    1.9119 C   0  0  0  0  0  0  0  0  0  0  0  0
    2.4253   -0.3894    1.3208 C   0  0  0  0  0  0  0  0  0  0  0  0
    3.2926    0.5640    1.9467 O   0  0  0  0  0  0  0  0  0  0  0  0
    4.2604    1.1534    1.1816 C   0  0  0  0  0  0  0  0  0  0  0  0
    4.6104    0.7724    0.0718 O   0  0  0  0  0  0  0  0  0  0  0  0
    4.7876    2.3527    1.8282 C   0  0  0  0  0  0  0  0  0  0  0  0
    4.3358    2.8466    3.1049 C   0  0  0  0  0  0  0  0  0  0  0  0
    4.9600    4.0066    3.5105 C   0  0  0  0  0  0  0  0  0  0  0  0
    6.0434    4.5358    2.3089 S   0  0  0  0  0  0  0  0  0  0  0  0
    5.7813    3.1754    1.3184 C   0  0  0  0  0  0  0  0  0  0  0  0
    6.4976    3.0355    0.1335 N   0  0  0  0  0  0  0  0  0  0  0  0
    7.6656    3.7241   -0.1837 C   0  0  0  0  0  0  0  0  0  0  0  0
    8.2803    4.5160    0.5295 O   0  0  0  0  0  0  0  0  0  0  0  0
    8.2163    3.3867   -1.5521 C   0  0  0  0  0  0  0  0  0  0  0  0
    9.1990    2.2754   -1.4439 C   0  0  0  0  0  0  0  0  0  0  0  0
   10.5218    2.3824   -1.0608 C   0  0  0  0  0  0  0  0  0  0  0  0
   11.2644    0.8448   -1.0835 S   0  0  0  0  0  0  0  0  0  0  0  0
    9.7896    0.1410   -1.6381 C   0  0  0  0  0  0  0  0  0  0  0  0
    8.7821    0.9883   -1.7435 N   0  0  0  0  0  0  0  0  0  0  0  0
    9.6998   -1.2961   -1.9391 C   0  0  0  0  0  0  0  0  0  0  0  0
    8.4895   -1.9745   -1.7284 C   0  0  0  0  0  0  0  0  0  0  0  0
    8.3696   -3.3334   -2.0348 C   0  0  0  0  0  0  0  0  0  0  0  0
    9.4516   -4.0284   -2.5661 C   0  0  0  0  0  0  0  0  0  0  0  0
   10.6581   -3.3696   -2.7898 C   0  0  0  0  0  0  0  0  0  0  0  0
   10.7794   -2.0116   -2.4787 C   0  0  0  0  0  0  0  0  0  0  0  0
    4.8056    4.7349    4.7758 C   0  0  0  0  0  0  0  0  0  0  0  0
    4.5479    4.0166    5.9568 C   0  0  0  0  0  0  0  0  0  0  0  0
    4.4140    4.6704    7.1810 C   0  0  0  0  0  0  0  0  0  0  0  0
    4.5353    6.0570    7.2428 C   0  0  0  0  0  0  0  0  0  0  0  0
    4.7883    6.7861    6.0838 C   0  0  0  0  0  0  0  0  0  0  0  0
    4.9208    6.1302    4.8571 C   0  0  0  0  0  0  0  0  0  0  0  0
    1.9409   -2.4852    1.4697 H   0  0  0  0  0  0  0  0  0  0  0  0
    2.4854   -1.7577    2.9963 H   0  0  0  0  0  0  0  0  0  0  0  0
    3.6617   -2.1156    1.7345 H   0  0  0  0  0  0  0  0  0  0  0  0
    1.4029   -0.0628    1.5395 H   0  0  0  0  0  0  0  0  0  0  0  0
    2.5383   -0.4054    0.2330 H   0  0  0  0  0  0  0  0  0  0  0  0
    3.5787    2.3504    3.7028 H   0  0  0  0  0  0  0  0  0  0  0  0
    6.2396    2.2433   -0.4544 H   0  0  0  0  0  0  0  0  0  0  0  0
    8.7018    4.2863   -1.9509 H   0  0  0  0  0  0  0  0  0  0  0  0
    7.4055    3.1361   -2.2440 H   0  0  0  0  0  0  0  0  0  0  0  0
   11.0678    3.2690   -0.7682 H   0  0  0  0  0  0  0  0  0  0  0  0
    7.6300   -1.4434   -1.3207 H   0  0  0  0  0  0  0  0  0  0  0  0
    7.4223   -3.8452   -1.8636 H   0  0  0  0  0  0  0  0  0  0  0  0
    9.3559   -5.0837   -2.8139 H   0  0  0  0  0  0  0  0  0  0  0  0
   11.5032   -3.9053   -3.2146 H   0  0  0  0  0  0  0  0  0  0  0  0
   11.7277   -1.5212   -2.6863 H   0  0  0  0  0  0  0  0  0  0  0  0
    4.4693    2.9318    5.9352 H   0  0  0  0  0  0  0  0  0  0  0  0
    4.2203    4.0989    8.0867 H   0  0  0  0  0  0  0  0  0  0  0  0
    4.4375    6.5701    8.1943 H   0  0  0  0  0  0  0  0  0  0  0  0
    4.8910    7.8671    6.1307 H   0  0  0  0  0  0  0  0  0  0  0  0
    5.1135    6.7278    3.9678 H   0  0  0  0  0  0  0  0  0  0  0  0
  1  2  1  0  0  0  0
  1 32  1  0  0  0  0
  1 33  1  0  0  0  0
  1 34  1  0  0  0  0
  2  3  1  0  0  0  0
  2 35  1  0  0  0  0
  2 36  1  0  0  0  0
  3  4  1  0  0  0  0
  4  5  2  0  0  0  0
  4  6  1  0  0  0  0
  6  7  1  0  0  0  0
  6 10  2  0  0  0  0
  7  8  2  0  0  0  0
  7 37  1  0  0  0  0
  8  9  1  0  0  0  0
  8 26  1  0  0  0  0
  9 10  1  0  0  0  0
 10 11  1  0  0  0  0
 11 12  1  0  0  0  0
 11 38  1  0  0  0  0
 12 13  2  0  0  0  0
 12 14  1  0  0  0  0
 14 15  1  0  0  0  0
 14 39  1  0  0  0  0
 14 40  1  0  0  0  0
 15 16  2  0  0  0  0
 15 19  1  0  0  0  0
 16 17  1  0  0  0  0
 16 41  1  0  0  0  0
 17 18  1  0  0  0  0
 18 19  2  0  0  0  0
 18 20  1  0  0  0  0
 20 21  1  0  0  0  0
 20 25  2  0  0  0  0
 21 22  2  0  0  0  0
 21 42  1  0  0  0  0
 22 23  1  0  0  0  0
 22 43  1  0  0  0  0
 23 24  2  0  0  0  0
 23 44  1  0  0  0  0
 24 25  1  0  0  0  0
 24 45  1  0  0  0  0
 25 46  1  0  0  0  0
 26 27  1  0  0  0  0
 26 31  2  0  0  0  0
 27 28  2  0  0  0  0
 27 47  1  0  0  0  0
 28 29  1  0  0  0  0
 28 48  1  0  0  0  0
 29 30  2  0  0  0  0
 29 49  1  0  0  0  0
 30 31  1  0  0  0  0
 30 50  1  0  0  0  0
 31 51  1  0  0  0  0
M  END
$$$$
