
 OpenBabel07202414133D

 42 44  0  0  0  0  0  0  0  0999 V2000
    0.8257    0.9033    0.1955 C   0  0  0  0  0  0  0  0  0  0  0  0
    2.2187    0.4612    0.1098 N   0  0  0  0  0  0  0  0  0  0  0  0
    2.4919   -0.8881    0.5897 C   0  0  0  0  0  0  0  0  0  0  0  0
    3.0637    1.0732   -0.8195 C   0  0  0  0  0  0  0  0  0  0  0  0
    2.7985    2.3630   -1.2986 C   0  0  0  0  0  0  0  0  0  0  0  0
    3.6466    3.0020   -2.2026 C   0  0  0  0  0  0  0  0  0  0  0  0
    4.8066    2.3706   -2.6624 C   0  0  0  0  0  0  0  0  0  0  0  0
    5.6539    3.0274   -3.5490 C   0  0  0  0  0  0  0  0  0  0  0  0
    6.7884    2.5076   -4.0490 N   0  0  0  0  0  0  0  0  0  0  0  0
    7.1058    1.2599   -3.6319 C   0  0  0  0  0  0  0  0  0  0  0  0
    6.3500    0.4912   -2.7412 C   0  0  0  0  0  0  0  0  0  0  0  0
    6.7394   -0.8327   -2.3745 N   0  0  0  0  0  0  0  0  0  0  0  0
    7.9786   -1.4116   -2.6116 C   0  0  0  0  0  0  0  0  0  0  0  0
    8.9565   -0.8407   -3.0886 O   0  0  0  0  0  0  0  0  0  0  0  0
    8.0790   -2.8731   -2.1978 C   0  0  0  0  0  0  0  0  0  0  0  0
    8.4509   -3.0584   -0.7468 C   0  0  0  0  0  0  0  0  0  0  0  0
    9.5955   -2.4442   -0.2143 C   0  0  0  0  0  0  0  0  0  0  0  0
    9.9258   -2.5980    1.1340 C   0  0  0  0  0  0  0  0  0  0  0  0
    9.1273   -3.3844    1.9624 C   0  0  0  0  0  0  0  0  0  0  0  0
    8.0135   -4.0306    1.4322 C   0  0  0  0  0  0  0  0  0  0  0  0
    7.0389   -5.0236    2.4451 Cl  0  0  0  0  0  0  0  0  0  0  0  0
    7.6755   -3.8771    0.0862 C   0  0  0  0  0  0  0  0  0  0  0  0
    5.1432    1.0688   -2.2306 C   0  0  0  0  0  0  0  0  0  0  0  0
    4.2448    0.4607   -1.2989 C   0  0  0  0  0  0  0  0  0  0  0  0
    0.2258    0.2311    0.8196 H   0  0  0  0  0  0  0  0  0  0  0  0
    0.3557    0.9263   -0.7942 H   0  0  0  0  0  0  0  0  0  0  0  0
    0.7581    1.8954    0.6555 H   0  0  0  0  0  0  0  0  0  0  0  0
    1.8238   -1.1557    1.4162 H   0  0  0  0  0  0  0  0  0  0  0  0
    3.5089   -0.9726    0.9877 H   0  0  0  0  0  0  0  0  0  0  0  0
    2.3474   -1.6208   -0.2111 H   0  0  0  0  0  0  0  0  0  0  0  0
    1.9287    2.9179   -0.9605 H   0  0  0  0  0  0  0  0  0  0  0  0
    3.3917    4.0069   -2.5346 H   0  0  0  0  0  0  0  0  0  0  0  0
    5.4387    4.0362   -3.8970 H   0  0  0  0  0  0  0  0  0  0  0  0
    8.0150    0.8895   -4.0946 H   0  0  0  0  0  0  0  0  0  0  0  0
    6.0852   -1.3706   -1.8242 H   0  0  0  0  0  0  0  0  0  0  0  0
    8.8400   -3.3541   -2.8261 H   0  0  0  0  0  0  0  0  0  0  0  0
    7.1314   -3.3735   -2.4310 H   0  0  0  0  0  0  0  0  0  0  0  0
   10.2400   -1.8329   -0.8469 H   0  0  0  0  0  0  0  0  0  0  0  0
   10.8059   -2.1014    1.5365 H   0  0  0  0  0  0  0  0  0  0  0  0
    9.3822   -3.4929    3.0130 H   0  0  0  0  0  0  0  0  0  0  0  0
    6.8090   -4.4014   -0.3092 H   0  0  0  0  0  0  0  0  0  0  0  0
    4.4873   -0.5288   -0.9324 H   0  0  0  0  0  0  0  0  0  0  0  0
  1  2  1  0  0  0  0
  1 25  1  0  0  0  0
  1 26  1  0  0  0  0
  1 27  1  0  0  0  0
  2  3  1  0  0  0  0
  2  4  1  0  0  0  0
  3 28  1  0  0  0  0
  3 29  1  0  0  0  0
  3 30  1  0  0  0  0
  4  5  1  0  0  0  0
  4 24  2  0  0  0  0
  5  6  2  0  0  0  0
  5 31  1  0  0  0  0
  6  7  1  0  0  0  0
  6 32  1  0  0  0  0
  7  8  1  0  0  0  0
  7 23  2  0  0  0  0
  8  9  2  0  0  0  0
  8 33  1  0  0  0  0
  9 10  1  0  0  0  0
 10 11  2  0  0  0  0
 10 34  1  0  0  0  0
 11 12  1  0  0  0  0
 11 23  1  0  0  0  0
 12 13  1  0  0  0  0
 12 35  1  0  0  0  0
 13 14  2  0  0  0  0
 13 15  1  0  0  0  0
 15 16  1  0  0  0  0
 15 36  1  0  0  0  0
 15 37  1  0  0  0  0
 16 17  1  0  0  0  0
 16 22  2  0  0  0  0
 17 18  2  0  0  0  0
 17 38  1  0  0  0  0
 18 19  1  0  0  0  0
 18 39  1  0  0  0  0
 19 20  2  0  0  0  0
 19 40  1  0  0  0  0
 20 21  1  0  0  0  0
 20 22  1  0  0  0  0
 22 41  1  0  0  0  0
 23 24  1  0  0  0  0
 24 42  1  0  0  0  0
M  END
$$$$
