
 OpenBabel07202414153D

 47 50  0  0  1  0  0  0  0  0999 V2000
    3.8106    0.3587    0.8604 C   0  0  0  0  0  0  0  0  0  0  0  0
    4.9119   -1.0066    1.1322 S   0  0  0  0  0  0  0  0  0  0  0  0
    6.2650   -0.4913    1.2136 O   0  0  0  0  0  0  0  0  0  0  0  0
    4.3628   -1.8272    2.1948 O   0  0  0  0  0  0  0  0  0  0  0  0
    4.7853   -1.9326   -0.3795 C   0  0  0  0  0  0  0  0  0  0  0  0
    5.6437   -1.6473   -1.4359 C   0  0  0  0  0  0  0  0  0  0  0  0
    5.5155   -2.3496   -2.6403 C   0  0  0  0  0  0  0  0  0  0  0  0
    4.5327   -3.3538   -2.8198 C   0  0  0  0  0  0  0  0  0  0  0  0
    4.3394   -4.1011   -4.0117 C   0  0  0  0  0  0  0  0  0  0  0  0
    5.0238   -3.8891   -5.2446 N   0  0  0  0  0  0  0  0  0  0  0  0
    5.0912   -2.6576   -5.8925 C   0  0  0  0  0  0  0  0  0  0  0  0
    4.6708   -1.5963   -5.4438 O   0  0  0  0  0  0  0  0  0  0  0  0
    5.7784   -2.7340   -7.2753 C   0  0  3  0  0  0  0  0  0  0  0  0
    7.2607   -2.3575   -7.1221 C   0  0  0  0  0  0  0  0  0  0  0  0
    7.4842   -0.8556   -7.0767 C   0  0  0  0  0  0  0  0  0  0  0  0
    7.0786   -0.1314   -8.6440 S   0  0  0  0  0  0  0  0  0  0  0  0
    6.8738    1.2912   -8.4438 O   0  0  0  0  0  0  0  0  0  0  0  0
    8.0110   -0.6334   -9.6325 O   0  0  0  0  0  0  0  0  0  0  0  0
    5.5038   -0.8444   -9.0357 C   0  0  0  0  0  0  0  0  0  0  0  0
    4.7678   -0.2159  -10.0518 C   0  0  0  0  0  0  0  0  0  0  0  0
    3.5247   -0.7208  -10.4242 C   0  0  0  0  0  0  0  0  0  0  0  0
    3.0252   -1.8465   -9.7770 C   0  0  0  0  0  0  0  0  0  0  0  0
    1.4954   -2.4851  -10.2377 Cl  0  0  0  0  0  0  0  0  0  0  0  0
    3.7588   -2.4709   -8.7612 C   0  0  0  0  0  0  0  0  0  0  0  0
    5.0203   -1.9824   -8.3645 C   0  0  0  0  0  0  0  0  0  0  0  0
    3.4322   -5.1638   -3.9714 C   0  0  0  0  0  0  0  0  0  0  0  0
    2.6762   -5.4996   -2.9069 N   0  0  0  0  0  0  0  0  0  0  0  0
    2.8325   -4.7381   -1.8017 C   0  0  0  0  0  0  0  0  0  0  0  0
    3.7304   -3.6762   -1.6915 C   0  0  0  0  0  0  0  0  0  0  0  0
    3.8494   -2.9614   -0.4869 C   0  0  0  0  0  0  0  0  0  0  0  0
    3.8742    1.0247    1.7236 H   0  0  0  0  0  0  0  0  0  0  0  0
    2.7919   -0.0204    0.7581 H   0  0  0  0  0  0  0  0  0  0  0  0
    4.1182    0.8918   -0.0412 H   0  0  0  0  0  0  0  0  0  0  0  0
    6.4138   -0.8843   -1.3407 H   0  0  0  0  0  0  0  0  0  0  0  0
    6.2071   -2.1098   -3.4422 H   0  0  0  0  0  0  0  0  0  0  0  0
    5.0446   -4.6959   -5.8579 H   0  0  0  0  0  0  0  0  0  0  0  0
    5.7725   -3.7879   -7.5898 H   0  0  0  0  0  0  0  0  0  0  0  0
    7.8221   -2.7823   -7.9651 H   0  0  0  0  0  0  0  0  0  0  0  0
    7.6734   -2.8096   -6.2124 H   0  0  0  0  0  0  0  0  0  0  0  0
    8.5369   -0.6246   -6.8875 H   0  0  0  0  0  0  0  0  0  0  0  0
    6.8800   -0.3678   -6.3086 H   0  0  0  0  0  0  0  0  0  0  0  0
    5.1643    0.6642  -10.5575 H   0  0  0  0  0  0  0  0  0  0  0  0
    2.9574   -0.2358  -11.2139 H   0  0  0  0  0  0  0  0  0  0  0  0
    3.3352   -3.3524   -8.2819 H   0  0  0  0  0  0  0  0  0  0  0  0
    3.2480   -5.7816   -4.8447 H   0  0  0  0  0  0  0  0  0  0  0  0
    2.2000   -5.0329   -0.9658 H   0  0  0  0  0  0  0  0  0  0  0  0
    3.2213   -3.2140    0.3656 H   0  0  0  0  0  0  0  0  0  0  0  0
  1  2  1  0  0  0  0
  1 31  1  0  0  0  0
  1 32  1  0  0  0  0
  1 33  1  0  0  0  0
  2  3  2  0  0  0  0
  2  4  2  0  0  0  0
  2  5  1  0  0  0  0
  5  6  1  0  0  0  0
  5 30  2  0  0  0  0
  6  7  2  0  0  0  0
  6 34  1  0  0  0  0
  7  8  1  0  0  0  0
  7 35  1  0  0  0  0
  8  9  1  0  0  0  0
  8 29  2  0  0  0  0
  9 10  1  0  0  0  0
  9 26  2  0  0  0  0
 10 11  1  0  0  0  0
 10 36  1  0  0  0  0
 11 12  2  0  0  0  0
 11 13  1  0  0  0  0
 13 14  1  0  0  0  0
 13 25  1  0  0  0  0
 13 37  1  0  0  0  0
 14 15  1  0  0  0  0
 14 38  1  0  0  0  0
 14 39  1  0  0  0  0
 15 16  1  0  0  0  0
 15 40  1  0  0  0  0
 15 41  1  0  0  0  0
 16 17  2  0  0  0  0
 16 18  2  0  0  0  0
 16 19  1  0  0  0  0
 19 20  1  0  0  0  0
 19 25  2  0  0  0  0
 20 21  2  0  0  0  0
 20 42  1  0  0  0  0
 21 22  1  0  0  0  0
 21 43  1  0  0  0  0
 22 23  1  0  0  0  0
 22 24  2  0  0  0  0
 24 25  1  0  0  0  0
 24 44  1  0  0  0  0
 26 27  1  0  0  0  0
 26 45  1  0  0  0  0
 27 28  2  0  0  0  0
 28 29  1  0  0  0  0
 28 46  1  0  0  0  0
 29 30  1  0  0  0  0
 30 47  1  0  0  0  0
M  END
$$$$
