
 OpenBabel07202414183D

 46 49  0  0  0  0  0  0  0  0999 V2000
    3.2777   -5.1549    0.1979 F   0  0  0  0  0  0  0  0  0  0  0  0
    2.1876   -4.6572   -0.4058 C   0  0  0  0  0  0  0  0  0  0  0  0
    1.9266   -3.2757   -0.3850 C   0  0  0  0  0  0  0  0  0  0  0  0
    2.7953   -2.3302    0.2166 N   0  0  0  0  0  0  0  0  0  0  0  0
    4.2076   -2.3666    0.1897 C   0  0  0  0  0  0  0  0  0  0  0  0
    4.9515   -1.7617    1.2069 C   0  0  0  0  0  0  0  0  0  0  0  0
    6.3468   -1.7630    1.1494 C   0  0  0  0  0  0  0  0  0  0  0  0
    7.2530   -1.0230    2.4131 Cl  0  0  0  0  0  0  0  0  0  0  0  0
    7.0218   -2.3572    0.0821 C   0  0  0  0  0  0  0  0  0  0  0  0
    6.2982   -2.9448   -0.9590 C   0  0  0  0  0  0  0  0  0  0  0  0
    7.0011   -3.6442   -2.0979 C   0  0  0  0  0  0  0  0  0  0  0  0
    6.6399   -3.1518   -3.4879 C   0  0  0  0  0  0  0  0  0  0  0  0
    6.5424   -3.9393   -4.4273 O   0  0  0  0  0  0  0  0  0  0  0  0
    6.5561   -1.7779   -3.6182 N   0  0  0  0  0  0  0  0  0  0  0  0
    6.2538   -1.1554   -4.8517 C   0  0  0  0  0  0  0  0  0  0  0  0
    5.2065   -1.6231   -5.6496 C   0  0  0  0  0  0  0  0  0  0  0  0
    4.8278   -1.0629   -6.8205 N   0  0  0  0  0  0  0  0  0  0  0  0
    5.5575   -0.0022   -7.2331 C   0  0  0  0  0  0  0  0  0  0  0  0
    6.6366    0.5415   -6.5367 C   0  0  0  0  0  0  0  0  0  0  0  0
    7.3796    1.6204   -7.0538 C   0  0  0  0  0  0  0  0  0  0  0  0
    8.4818    2.1191   -6.3601 C   0  0  0  0  0  0  0  0  0  0  0  0
    8.8546    1.5529   -5.1513 C   0  0  0  0  0  0  0  0  0  0  0  0
    8.1209    0.4917   -4.6234 C   0  0  0  0  0  0  0  0  0  0  0  0
    6.9940   -0.0377   -5.2978 C   0  0  0  0  0  0  0  0  0  0  0  0
    4.8974   -2.9239   -0.9001 C   0  0  0  0  0  0  0  0  0  0  0  0
    0.7269   -2.8215   -0.9452 C   0  0  0  0  0  0  0  0  0  0  0  0
   -0.1301   -3.7180   -1.5898 C   0  0  0  0  0  0  0  0  0  0  0  0
   -1.7125   -3.0770   -2.4029 Br  0  0  0  0  0  0  0  0  0  0  0  0
    0.1741   -5.0778   -1.6567 C   0  0  0  0  0  0  0  0  0  0  0  0
    1.3342   -5.5504   -1.0486 C   0  0  0  0  0  0  0  0  0  0  0  0
    2.4188   -2.0047    1.1050 H   0  0  0  0  0  0  0  0  0  0  0  0
    4.4523   -1.3031    2.0548 H   0  0  0  0  0  0  0  0  0  0  0  0
    8.1087   -2.3671    0.0724 H   0  0  0  0  0  0  0  0  0  0  0  0
    6.7430   -4.7093   -2.0455 H   0  0  0  0  0  0  0  0  0  0  0  0
    8.0892   -3.5689   -1.9904 H   0  0  0  0  0  0  0  0  0  0  0  0
    7.0089   -1.2190   -2.9075 H   0  0  0  0  0  0  0  0  0  0  0  0
    4.5946   -2.4660   -5.3396 H   0  0  0  0  0  0  0  0  0  0  0  0
    5.2410    0.4024   -8.1941 H   0  0  0  0  0  0  0  0  0  0  0  0
    7.1144    2.0608   -8.0113 H   0  0  0  0  0  0  0  0  0  0  0  0
    9.0622    2.9380   -6.7822 H   0  0  0  0  0  0  0  0  0  0  0  0
    9.7298    1.9232   -4.6197 H   0  0  0  0  0  0  0  0  0  0  0  0
    8.4710    0.0550   -3.6883 H   0  0  0  0  0  0  0  0  0  0  0  0
    4.3302   -3.3657   -1.7187 H   0  0  0  0  0  0  0  0  0  0  0  0
    0.4889   -1.7610   -0.9192 H   0  0  0  0  0  0  0  0  0  0  0  0
   -0.4827   -5.7721   -2.1743 H   0  0  0  0  0  0  0  0  0  0  0  0
    1.5872   -6.6061   -1.0741 H   0  0  0  0  0  0  0  0  0  0  0  0
  1  2  1  0  0  0  0
  2  3  2  0  0  0  0
  2 30  1  0  0  0  0
  3  4  1  0  0  0  0
  3 26  1  0  0  0  0
  4  5  1  0  0  0  0
  4 31  1  0  0  0  0
  5  6  2  0  0  0  0
  5 25  1  0  0  0  0
  6  7  1  0  0  0  0
  6 32  1  0  0  0  0
  7  8  1  0  0  0  0
  7  9  2  0  0  0  0
  9 10  1  0  0  0  0
  9 33  1  0  0  0  0
 10 11  1  0  0  0  0
 10 25  2  0  0  0  0
 11 12  1  0  0  0  0
 11 34  1  0  0  0  0
 11 35  1  0  0  0  0
 12 13  2  0  0  0  0
 12 14  1  0  0  0  0
 14 15  1  0  0  0  0
 14 36  1  0  0  0  0
 15 16  2  0  0  0  0
 15 24  1  0  0  0  0
 16 17  1  0  0  0  0
 16 37  1  0  0  0  0
 17 18  2  0  0  0  0
 18 19  1  0  0  0  0
 18 38  1  0  0  0  0
 19 20  2  0  0  0  0
 19 24  1  0  0  0  0
 20 21  1  0  0  0  0
 20 39  1  0  0  0  0
 21 22  2  0  0  0  0
 21 40  1  0  0  0  0
 22 23  1  0  0  0  0
 22 41  1  0  0  0  0
 23 24  2  0  0  0  0
 23 42  1  0  0  0  0
 25 43  1  0  0  0  0
 26 27  2  0  0  0  0
 26 44  1  0  0  0  0
 27 28  1  0  0  0  0
 27 29  1  0  0  0  0
 29 30  2  0  0  0  0
 29 45  1  0  0  0  0
 30 46  1  0  0  0  0
M  END
$$$$
