
 OpenBabel07202414183D

 61 65  0  0  1  0  0  0  0  0999 V2000
    0.8841    0.0000   -0.1097 Cl  0  0  0  0  0  0  0  0  0  0  0  0
    2.5974    0.0097    0.0467 C   0  0  0  0  0  0  0  0  0  0  0  0
    3.2930    1.2078   -0.0630 C   0  0  0  0  0  0  0  0  0  0  0  0
    4.6836    1.2121    0.0477 C   0  0  0  0  0  0  0  0  0  0  0  0
    5.3948    0.0208    0.2727 C   0  0  0  0  0  0  0  0  0  0  0  0
    4.6868   -1.1890    0.3812 C   0  0  0  0  0  0  0  0  0  0  0  0
    3.2827   -1.1860    0.2683 C   0  0  0  0  0  0  0  0  0  0  0  0
    5.4301   -2.4898    0.6475 C   0  0  2  0  0  0  0  0  0  0  0  0
    5.2930   -2.9442    2.1196 C   0  0  0  0  0  0  0  0  0  0  0  0
    4.6658   -2.2884    2.9478 O   0  0  0  0  0  0  0  0  0  0  0  0
    5.9009   -4.1649    2.3944 N   0  0  0  0  0  0  0  0  0  0  0  0
    6.0320   -4.7386    3.6897 C   0  0  0  0  0  0  0  0  0  0  0  0
    5.1832   -4.3976    4.7465 C   0  0  0  0  0  0  0  0  0  0  0  0
    5.3838   -4.7563    6.0335 N   0  0  0  0  0  0  0  0  0  0  0  0
    6.4494   -5.5417    6.2791 C   0  0  0  0  0  0  0  0  0  0  0  0
    7.2724   -6.0837    5.2925 C   0  0  0  0  0  0  0  0  0  0  0  0
    8.2683   -7.0222    5.6213 C   0  0  0  0  0  0  0  0  0  0  0  0
    9.0900   -7.5623    4.6366 C   0  0  0  0  0  0  0  0  0  0  0  0
    8.9505   -7.1404    3.3220 C   0  0  0  0  0  0  0  0  0  0  0  0
    7.9685   -6.2030    2.9847 C   0  0  0  0  0  0  0  0  0  0  0  0
    7.0812   -5.6668    3.9534 C   0  0  0  0  0  0  0  0  0  0  0  0
    6.8883   -2.3848    0.1585 C   0  0  0  0  0  0  0  0  0  0  0  0
    7.5956   -1.1849    0.7180 N   0  0  0  0  0  0  0  0  0  0  0  0
    9.2993   -1.1631    0.4167 S   0  0  0  0  0  0  0  0  0  0  0  0
    9.7398   -2.5425    0.4304 O   0  0  0  0  0  0  0  0  0  0  0  0
    9.5176   -0.3309   -0.7488 O   0  0  0  0  0  0  0  0  0  0  0  0
    9.9695   -0.3736    1.8812 C   0  0  0  0  0  0  0  0  0  0  0  0
   11.5099   -0.0810    1.8345 C   0  0  0  0  0  0  0  0  0  0  0  0
   11.7662    0.9214    0.7209 C   0  0  0  0  0  0  0  0  0  0  0  0
   11.9789    1.7529   -0.2028 N   0  0  0  0  0  0  0  0  0  0  0  0
   12.3870   -1.3294    1.6228 C   0  0  0  0  0  0  0  0  0  0  0  0
   12.3714   -2.2373    2.8466 C   0  0  0  0  0  0  0  0  0  0  0  0
   12.8181   -1.5177    3.9935 O   0  0  0  0  0  0  0  0  0  0  0  0
   11.9877   -0.4081    4.3179 C   0  0  0  0  0  0  0  0  0  0  0  0
   11.9473    0.5854    3.1635 C   0  0  0  0  0  0  0  0  0  0  0  0
    6.9084    0.0747    0.2844 C   0  0  0  0  0  0  0  0  0  0  0  0
    2.7623    2.1392   -0.2407 H   0  0  0  0  0  0  0  0  0  0  0  0
    5.2170    2.1560   -0.0596 H   0  0  0  0  0  0  0  0  0  0  0  0
    2.7194   -2.1126    0.3643 H   0  0  0  0  0  0  0  0  0  0  0  0
    4.9468   -3.2767    0.0501 H   0  0  0  0  0  0  0  0  0  0  0  0
    6.4865   -4.5635    1.6779 H   0  0  0  0  0  0  0  0  0  0  0  0
    4.2743   -3.8284    4.5921 H   0  0  0  0  0  0  0  0  0  0  0  0
    6.6266   -5.7383    7.3322 H   0  0  0  0  0  0  0  0  0  0  0  0
    8.3889   -7.3598    6.6492 H   0  0  0  0  0  0  0  0  0  0  0  0
    9.8334   -8.3101    4.8950 H   0  0  0  0  0  0  0  0  0  0  0  0
    9.6020   -7.5455    2.5499 H   0  0  0  0  0  0  0  0  0  0  0  0
    7.9090   -5.9209    1.9386 H   0  0  0  0  0  0  0  0  0  0  0  0
    6.9012   -2.3159   -0.9365 H   0  0  0  0  0  0  0  0  0  0  0  0
    7.4359   -3.2895    0.4314 H   0  0  0  0  0  0  0  0  0  0  0  0
    9.7206   -1.0455    2.7089 H   0  0  0  0  0  0  0  0  0  0  0  0
    9.4137    0.5615    2.0195 H   0  0  0  0  0  0  0  0  0  0  0  0
   13.4250   -1.0050    1.4591 H   0  0  0  0  0  0  0  0  0  0  0  0
   12.1085   -1.8874    0.7248 H   0  0  0  0  0  0  0  0  0  0  0  0
   13.0576   -3.0761    2.6962 H   0  0  0  0  0  0  0  0  0  0  0  0
   11.3788   -2.6582    3.0405 H   0  0  0  0  0  0  0  0  0  0  0  0
   12.4101    0.0754    5.2051 H   0  0  0  0  0  0  0  0  0  0  0  0
   10.9884   -0.7646    4.5897 H   0  0  0  0  0  0  0  0  0  0  0  0
   12.9605    0.9946    3.0366 H   0  0  0  0  0  0  0  0  0  0  0  0
   11.2988    1.4328    3.4163 H   0  0  0  0  0  0  0  0  0  0  0  0
    7.1964    0.3100   -0.7461 H   0  0  0  0  0  0  0  0  0  0  0  0
    7.2317    0.8892    0.9441 H   0  0  0  0  0  0  0  0  0  0  0  0
  1  2  1  0  0  0  0
  2  3  1  0  0  0  0
  2  7  2  0  0  0  0
  3  4  2  0  0  0  0
  3 37  1  0  0  0  0
  4  5  1  0  0  0  0
  4 38  1  0  0  0  0
  5  6  2  0  0  0  0
  5 36  1  0  0  0  0
  6  7  1  0  0  0  0
  6  8  1  0  0  0  0
  7 39  1  0  0  0  0
  8  9  1  0  0  0  0
  8 22  1  0  0  0  0
  8 40  1  6  0  0  0
  9 10  2  0  0  0  0
  9 11  1  0  0  0  0
 11 12  1  0  0  0  0
 11 41  1  0  0  0  0
 12 13  1  0  0  0  0
 12 21  2  0  0  0  0
 13 14  2  0  0  0  0
 13 42  1  0  0  0  0
 14 15  1  0  0  0  0
 15 16  2  0  0  0  0
 15 43  1  0  0  0  0
 16 17  1  0  0  0  0
 16 21  1  0  0  0  0
 17 18  2  0  0  0  0
 17 44  1  0  0  0  0
 18 19  1  0  0  0  0
 18 45  1  0  0  0  0
 19 20  2  0  0  0  0
 19 46  1  0  0  0  0
 20 21  1  0  0  0  0
 20 47  1  0  0  0  0
 22 23  1  0  0  0  0
 22 48  1  0  0  0  0
 22 49  1  0  0  0  0
 23 24  1  0  0  0  0
 23 36  1  0  0  0  0
 24 25  2  0  0  0  0
 24 26  2  0  0  0  0
 24 27  1  0  0  0  0
 27 28  1  0  0  0  0
 27 50  1  0  0  0  0
 27 51  1  0  0  0  0
 28 29  1  0  0  0  0
 28 31  1  0  0  0  0
 28 35  1  0  0  0  0
 29 30  3  0  0  0  0
 31 32  1  0  0  0  0
 31 52  1  0  0  0  0
 31 53  1  0  0  0  0
 32 33  1  0  0  0  0
 32 54  1  0  0  0  0
 32 55  1  0  0  0  0
 33 34  1  0  0  0  0
 34 35  1  0  0  0  0
 34 56  1  0  0  0  0
 34 57  1  0  0  0  0
 35 58  1  0  0  0  0
 35 59  1  0  0  0  0
 36 60  1  0  0  0  0
 36 61  1  0  0  0  0
M  END
$$$$
