
 OpenBabel07202414123D

 64 67  0  0  1  0  0  0  0  0999 V2000
    2.9276    1.9016   -1.5686 C   0  0  0  0  0  0  0  0  0  0  0  0
    2.5134    0.8571   -0.4995 C   0  0  0  0  0  0  0  0  0  0  0  0
    0.9680    0.8152   -0.5113 C   0  0  0  0  0  0  0  0  0  0  0  0
    3.0525   -0.5081   -0.9691 C   0  0  0  0  0  0  0  0  0  0  0  0
    3.0276    1.1867    0.9173 C   0  0  0  0  0  0  0  0  0  0  0  0
    3.8061    2.3155    1.1785 C   0  0  0  0  0  0  0  0  0  0  0  0
    4.1730    2.6734    2.4871 C   0  0  0  0  0  0  0  0  0  0  0  0
    3.7479    1.9571    3.6190 C   0  0  0  0  0  0  0  0  0  0  0  0
    3.9554    2.5018    4.9674 N   0  0  0  0  0  0  0  0  0  0  0  0
    4.0206    1.5385    6.1307 C   0  0  3  0  0  0  0  0  0  0  0  0
    5.3943    1.5348    6.9168 C   0  0  0  0  0  0  0  0  0  0  0  0
    5.6072    0.7767    7.8663 O   0  0  0  0  0  0  0  0  0  0  0  0
    6.3911    2.3767    6.4706 N   0  0  0  0  0  0  0  0  0  0  0  0
    7.6833    2.4836    7.1614 C   0  0  0  0  0  0  0  0  0  0  0  0
    7.5616    2.9224    8.6359 C   0  0  0  0  0  0  0  0  0  0  0  0
    8.9369    3.1606    9.2449 C   0  0  0  0  0  0  0  0  0  0  0  0
    9.6641    4.1216    8.4827 O   0  0  0  0  0  0  0  0  0  0  0  0
    9.8980    3.6779    7.1496 C   0  0  0  0  0  0  0  0  0  0  0  0
    8.5833    3.4679    6.4139 C   0  0  0  0  0  0  0  0  0  0  0  0
    2.8008    1.4937    7.0665 C   0  0  0  0  0  0  0  0  0  0  0  0
    1.6825    2.3328    6.9560 C   0  0  0  0  0  0  0  0  0  0  0  0
    0.7114    2.3480    7.9609 C   0  0  0  0  0  0  0  0  0  0  0  0
    0.8417    1.4762    9.0262 C   0  0  0  0  0  0  0  0  0  0  0  0
    1.8314    0.5735    9.1196 N   0  0  0  0  0  0  0  0  0  0  0  0
    2.7756    0.6065    8.1430 C   0  0  0  0  0  0  0  0  0  0  0  0
    3.9132    3.9246    5.1109 C   0  0  0  0  0  0  0  0  0  0  0  0
    3.6887    4.6768    4.1591 O   0  0  0  0  0  0  0  0  0  0  0  0
    4.0962    4.5844    6.4056 C   0  0  0  0  0  0  0  0  0  0  0  0
    4.1580    5.9583    6.5460 C   0  0  0  0  0  0  0  0  0  0  0  0
    4.2712    6.2581    7.8639 O   0  0  0  0  0  0  0  0  0  0  0  0
    4.2666    5.0408    8.4681 C   0  0  0  0  0  0  0  0  0  0  0  0
    4.1840    4.0138    7.6531 N   0  0  0  0  0  0  0  0  0  0  0  0
    3.0695    0.7613    3.3560 C   0  0  0  0  0  0  0  0  0  0  0  0
    2.7147    0.3886    2.0333 C   0  0  0  0  0  0  0  0  0  0  0  0
    2.5367    1.6375   -2.5590 H   0  0  0  0  0  0  0  0  0  0  0  0
    4.0172    1.9746   -1.6642 H   0  0  0  0  0  0  0  0  0  0  0  0
    2.5392    2.8996   -1.3291 H   0  0  0  0  0  0  0  0  0  0  0  0
    0.5883    0.5869   -1.5143 H   0  0  0  0  0  0  0  0  0  0  0  0
    0.5427    1.7819   -0.2139 H   0  0  0  0  0  0  0  0  0  0  0  0
    0.5676    0.0535    0.1645 H   0  0  0  0  0  0  0  0  0  0  0  0
    2.6837   -0.7518   -1.9736 H   0  0  0  0  0  0  0  0  0  0  0  0
    2.7440   -1.3233   -0.3071 H   0  0  0  0  0  0  0  0  0  0  0  0
    4.1475   -0.5066   -1.0116 H   0  0  0  0  0  0  0  0  0  0  0  0
    4.1252    2.9821    0.3829 H   0  0  0  0  0  0  0  0  0  0  0  0
    4.7841    3.5697    2.5785 H   0  0  0  0  0  0  0  0  0  0  0  0
    4.0596    0.5350    5.6860 H   0  0  0  0  0  0  0  0  0  0  0  0
    6.3372    2.6684    5.5042 H   0  0  0  0  0  0  0  0  0  0  0  0
    8.1385    1.4836    7.1370 H   0  0  0  0  0  0  0  0  0  0  0  0
    7.0326    2.1806    9.2427 H   0  0  0  0  0  0  0  0  0  0  0  0
    6.9845    3.8525    8.6897 H   0  0  0  0  0  0  0  0  0  0  0  0
    9.5160    2.2318    9.3105 H   0  0  0  0  0  0  0  0  0  0  0  0
    8.8336    3.5527   10.2621 H   0  0  0  0  0  0  0  0  0  0  0  0
   10.4987    2.7616    7.1687 H   0  0  0  0  0  0  0  0  0  0  0  0
   10.4851    4.4492    6.6423 H   0  0  0  0  0  0  0  0  0  0  0  0
    8.7742    3.1127    5.3957 H   0  0  0  0  0  0  0  0  0  0  0  0
    8.0620    4.4302    6.3300 H   0  0  0  0  0  0  0  0  0  0  0  0
    1.5682    3.0266    6.1272 H   0  0  0  0  0  0  0  0  0  0  0  0
   -0.1182    3.0455    7.9265 H   0  0  0  0  0  0  0  0  0  0  0  0
    0.1382    1.4801    9.8536 H   0  0  0  0  0  0  0  0  0  0  0  0
    3.5542   -0.1415    8.2923 H   0  0  0  0  0  0  0  0  0  0  0  0
    4.1208    6.7892    5.8539 H   0  0  0  0  0  0  0  0  0  0  0  0
    4.3300    5.0329    9.5462 H   0  0  0  0  0  0  0  0  0  0  0  0
    2.7160    0.1122    4.1520 H   0  0  0  0  0  0  0  0  0  0  0  0
    2.1465   -0.5314    1.8985 H   0  0  0  0  0  0  0  0  0  0  0  0
  1  2  1  0  0  0  0
  1 35  1  0  0  0  0
  1 36  1  0  0  0  0
  1 37  1  0  0  0  0
  2  3  1  0  0  0  0
  2  4  1  0  0  0  0
  2  5  1  0  0  0  0
  3 38  1  0  0  0  0
  3 39  1  0  0  0  0
  3 40  1  0  0  0  0
  4 41  1  0  0  0  0
  4 42  1  0  0  0  0
  4 43  1  0  0  0  0
  5  6  1  0  0  0  0
  5 34  2  0  0  0  0
  6  7  2  0  0  0  0
  6 44  1  0  0  0  0
  7  8  1  0  0  0  0
  7 45  1  0  0  0  0
  8  9  1  0  0  0  0
  8 33  2  0  0  0  0
  9 10  1  0  0  0  0
  9 26  1  0  0  0  0
 10 11  1  0  0  0  0
 10 20  1  0  0  0  0
 10 46  1  0  0  0  0
 11 12  2  0  0  0  0
 11 13  1  0  0  0  0
 13 14  1  0  0  0  0
 13 47  1  0  0  0  0
 14 15  1  0  0  0  0
 14 19  1  0  0  0  0
 14 48  1  0  0  0  0
 15 16  1  0  0  0  0
 15 49  1  0  0  0  0
 15 50  1  0  0  0  0
 16 17  1  0  0  0  0
 16 51  1  0  0  0  0
 16 52  1  0  0  0  0
 17 18  1  0  0  0  0
 18 19  1  0  0  0  0
 18 53  1  0  0  0  0
 18 54  1  0  0  0  0
 19 55  1  0  0  0  0
 19 56  1  0  0  0  0
 20 21  1  0  0  0  0
 20 25  2  0  0  0  0
 21 22  2  0  0  0  0
 21 57  1  0  0  0  0
 22 23  1  0  0  0  0
 22 58  1  0  0  0  0
 23 24  2  0  0  0  0
 23 59  1  0  0  0  0
 24 25  1  0  0  0  0
 25 60  1  0  0  0  0
 26 27  2  0  0  0  0
 26 28  1  0  0  0  0
 28 29  2  0  0  0  0
 28 32  1  0  0  0  0
 29 30  1  0  0  0  0
 29 61  1  0  0  0  0
 30 31  1  0  0  0  0
 31 32  2  0  0  0  0
 31 62  1  0  0  0  0
 33 34  1  0  0  0  0
 33 63  1  0  0  0  0
 34 64  1  0  0  0  0
M  END
$$$$
