
 OpenBabel07202414183D

 46 49  0  0  0  0  0  0  0  0999 V2000
    4.3349    2.9546   -3.7754 F   0  0  0  0  0  0  0  0  0  0  0  0
    4.8387    2.1832   -2.8065 C   0  0  0  0  0  0  0  0  0  0  0  0
    5.9742    1.4251   -3.0112 C   0  0  0  0  0  0  0  0  0  0  0  0
    6.6560    0.9197   -1.8965 C   0  0  0  0  0  0  0  0  0  0  0  0
    5.9636    0.7176   -0.6828 C   0  0  0  0  0  0  0  0  0  0  0  0
    6.5111   -0.1176    0.3108 N   0  0  0  0  0  0  0  0  0  0  0  0
    7.3450   -1.2299    0.0863 C   0  0  0  0  0  0  0  0  0  0  0  0
    7.2314   -1.9907   -1.1030 C   0  0  0  0  0  0  0  0  0  0  0  0
    7.8334   -3.2213   -1.2102 C   0  0  0  0  0  0  0  0  0  0  0  0
    7.5786   -4.3022   -2.5237 Cl  0  0  0  0  0  0  0  0  0  0  0  0
    8.6078   -3.6403   -0.1675 C   0  0  0  0  0  0  0  0  0  0  0  0
    8.8315   -2.8887    0.9910 C   0  0  0  0  0  0  0  0  0  0  0  0
    9.7848   -3.3575    2.0453 C   0  0  0  0  0  0  0  0  0  0  0  0
    9.1091   -3.5554    3.3997 C   0  0  0  0  0  0  0  0  0  0  0  0
    8.1396   -2.9731    3.8755 O   0  0  0  0  0  0  0  0  0  0  0  0
    9.7793   -4.3130    4.2847 N   0  0  0  0  0  0  0  0  0  0  0  0
    9.1436   -4.2083    5.5299 C   0  0  0  0  0  0  0  0  0  0  0  0
   10.1296   -3.6651    6.4053 C   0  0  0  0  0  0  0  0  0  0  0  0
    9.8207   -4.8135    6.8424 N   0  0  0  0  0  0  0  0  0  0  0  0
    9.5236   -5.9784    7.3103 C   0  0  0  0  0  0  0  0  0  0  0  0
    8.5168   -6.4187    6.5269 C   0  0  0  0  0  0  0  0  0  0  0  0
    7.9151   -7.5973    6.9638 C   0  0  0  0  0  0  0  0  0  0  0  0
    6.6839   -8.0633    6.5190 C   0  0  0  0  0  0  0  0  0  0  0  0
    6.3134   -7.7170    5.2434 C   0  0  0  0  0  0  0  0  0  0  0  0
    7.0150   -6.5931    4.6646 C   0  0  0  0  0  0  0  0  0  0  0  0
    8.0945   -5.6292    5.4895 C   0  0  0  0  0  0  0  0  0  0  0  0
    8.1704   -1.6746    1.1212 C   0  0  0  0  0  0  0  0  0  0  0  0
    4.7256    1.3878   -0.5535 C   0  0  0  0  0  0  0  0  0  0  0  0
    3.5483    1.4999    0.9410 Br  0  0  0  0  0  0  0  0  0  0  0  0
    4.2477    2.1906   -1.5734 C   0  0  0  0  0  0  0  0  0  0  0  0
    3.1753    2.9632   -1.3539 F   0  0  0  0  0  0  0  0  0  0  0  0
    6.3029    1.2287   -4.0266 H   0  0  0  0  0  0  0  0  0  0  0  0
    7.7279    0.7316   -1.9964 H   0  0  0  0  0  0  0  0  0  0  0  0
    6.3910    0.1220    1.2906 H   0  0  0  0  0  0  0  0  0  0  0  0
    6.4898   -1.7431   -1.8519 H   0  0  0  0  0  0  0  0  0  0  0  0
    9.0437   -4.5985   -0.3515 H   0  0  0  0  0  0  0  0  0  0  0  0
   10.6350   -2.6532    2.0866 H   0  0  0  0  0  0  0  0  0  0  0  0
   10.1937   -4.3321    1.7517 H   0  0  0  0  0  0  0  0  0  0  0  0
   10.7158   -4.0549    4.5634 H   0  0  0  0  0  0  0  0  0  0  0  0
   10.9232   -3.4911    7.1747 H   0  0  0  0  0  0  0  0  0  0  0  0
    9.9544   -6.1949    8.2267 H   0  0  0  0  0  0  0  0  0  0  0  0
    8.4505   -8.1678    7.7253 H   0  0  0  0  0  0  0  0  0  0  0  0
    6.0609   -8.6571    7.1820 H   0  0  0  0  0  0  0  0  0  0  0  0
    5.4906   -8.2865    4.7751 H   0  0  0  0  0  0  0  0  0  0  0  0
    6.6403   -6.4271    3.6207 H   0  0  0  0  0  0  0  0  0  0  0  0
    8.2583   -1.1131    2.0472 H   0  0  0  0  0  0  0  0  0  0  0  0
  1  2  1  0  0  0  0
  2  3  2  0  0  0  0
  2 30  1  0  0  0  0
  3  4  1  0  0  0  0
  3 32  1  0  0  0  0
  4  5  2  0  0  0  0
  4 33  1  0  0  0  0
  5  6  1  0  0  0  0
  5 28  1  0  0  0  0
  6  7  1  0  0  0  0
  6 34  1  0  0  0  0
  7  8  2  0  0  0  0
  7 27  1  0  0  0  0
  8  9  1  0  0  0  0
  8 35  1  0  0  0  0
  9 10  1  0  0  0  0
  9 11  2  0  0  0  0
 11 12  1  0  0  0  0
 11 36  1  0  0  0  0
 12 13  1  0  0  0  0
 12 27  2  0  0  0  0
 13 14  1  0  0  0  0
 13 37  1  0  0  0  0
 13 38  1  0  0  0  0
 14 15  2  0  0  0  0
 14 16  1  0  0  0  0
 16 17  1  0  0  0  0
 16 39  1  0  0  0  0
 17 18  2  0  0  0  0
 17 26  1  0  0  0  0
 18 19  1  0  0  0  0
 18 40  1  0  0  0  0
 19 20  2  0  0  0  0
 20 21  1  0  0  0  0
 20 41  1  0  0  0  0
 21 22  2  0  0  0  0
 21 26  1  0  0  0  0
 22 23  1  0  0  0  0
 22 42  1  0  0  0  0
 23 24  2  0  0  0  0
 23 43  1  0  0  0  0
 24 25  1  0  0  0  0
 24 44  1  0  0  0  0
 25 26  2  0  0  0  0
 25 45  1  0  0  0  0
 27 46  1  0  0  0  0
 28 29  1  0  0  0  0
 28 30  2  0  0  0  0
 30 31  1  0  0  0  0
M  END
$$$$
