
 OpenBabel07202414153D

 47 50  0  0  1  0  0  0  0  0999 V2000
   10.9341   -6.2889    0.7029 C   0  0  0  0  0  0  0  0  0  0  0  0
   10.0651   -5.5281    1.5418 O   0  0  0  0  0  0  0  0  0  0  0  0
    8.7879   -5.3650    1.0704 C   0  0  0  0  0  0  0  0  0  0  0  0
    8.1688   -6.2421    0.1863 C   0  0  0  0  0  0  0  0  0  0  0  0
    6.8672   -5.9885   -0.2277 C   0  0  0  0  0  0  0  0  0  0  0  0
    6.1799   -4.8546    0.2221 C   0  0  0  0  0  0  0  0  0  0  0  0
    4.8852   -4.6363   -0.2286 C   0  0  0  0  0  0  0  0  0  0  0  0
    4.1405   -3.5732    0.0981 N   0  0  0  0  0  0  0  0  0  0  0  0
    4.7118   -2.6799    0.9390 C   0  0  0  0  0  0  0  0  0  0  0  0
    5.9902   -2.7821    1.5084 C   0  0  0  0  0  0  0  0  0  0  0  0
    6.4882   -1.7682    2.4011 N   0  0  0  0  0  0  0  0  0  0  0  0
    5.6981   -0.7597    2.9706 C   0  0  0  0  0  0  0  0  0  0  0  0
    4.4739   -0.7087    2.8401 O   0  0  0  0  0  0  0  0  0  0  0  0
    6.4182    0.2625    3.9317 C   0  0  3  0  0  0  0  0  0  0  0  0
    7.7395    0.5348    3.4229 O   0  0  0  0  0  0  0  0  0  0  0  0
    8.4922    1.5178    4.1382 C   0  0  0  0  0  0  0  0  0  0  0  0
    6.5021   -0.4272    5.3055 C   0  0  0  0  0  0  0  0  0  0  0  0
    5.1372   -0.4109    5.9728 C   0  0  0  0  0  0  0  0  0  0  0  0
    4.6983    0.9241    6.2252 O   0  0  0  0  0  0  0  0  0  0  0  0
    4.7498    1.7569    5.1409 C   0  0  0  0  0  0  0  0  0  0  0  0
    3.9578    2.9054    5.2281 C   0  0  0  0  0  0  0  0  0  0  0  0
    3.9464    3.8341    4.1879 C   0  0  0  0  0  0  0  0  0  0  0  0
    4.7312    3.6098    3.0607 C   0  0  0  0  0  0  0  0  0  0  0  0
    4.7361    4.7653    1.7851 Cl  0  0  0  0  0  0  0  0  0  0  0  0
    5.5241    2.4639    2.9653 C   0  0  0  0  0  0  0  0  0  0  0  0
    5.5590    1.5278    4.0195 C   0  0  0  0  0  0  0  0  0  0  0  0
    6.7691   -3.9241    1.1249 C   0  0  0  0  0  0  0  0  0  0  0  0
    8.0885   -4.2425    1.5567 C   0  0  0  0  0  0  0  0  0  0  0  0
   11.9566   -6.1568    1.0685 H   0  0  0  0  0  0  0  0  0  0  0  0
   10.9030   -5.9317   -0.3333 H   0  0  0  0  0  0  0  0  0  0  0  0
   10.6999   -7.3576    0.7531 H   0  0  0  0  0  0  0  0  0  0  0  0
    8.6595   -7.1335   -0.1861 H   0  0  0  0  0  0  0  0  0  0  0  0
    6.3939   -6.6865   -0.9187 H   0  0  0  0  0  0  0  0  0  0  0  0
    4.3902   -5.3327   -0.9008 H   0  0  0  0  0  0  0  0  0  0  0  0
    4.0621   -1.8281    1.0997 H   0  0  0  0  0  0  0  0  0  0  0  0
    7.4673   -1.7773    2.6428 H   0  0  0  0  0  0  0  0  0  0  0  0
    9.4039    1.7252    3.5736 H   0  0  0  0  0  0  0  0  0  0  0  0
    8.7900    1.1515    5.1240 H   0  0  0  0  0  0  0  0  0  0  0  0
    7.9542    2.4647    4.2461 H   0  0  0  0  0  0  0  0  0  0  0  0
    7.2036    0.0930    5.9657 H   0  0  0  0  0  0  0  0  0  0  0  0
    6.8727   -1.4541    5.2091 H   0  0  0  0  0  0  0  0  0  0  0  0
    5.2078   -0.9103    6.9450 H   0  0  0  0  0  0  0  0  0  0  0  0
    4.3717   -0.9475    5.4014 H   0  0  0  0  0  0  0  0  0  0  0  0
    3.3383    3.0694    6.1064 H   0  0  0  0  0  0  0  0  0  0  0  0
    3.3238    4.7216    4.2631 H   0  0  0  0  0  0  0  0  0  0  0  0
    6.1255    2.3018    2.0732 H   0  0  0  0  0  0  0  0  0  0  0  0
    8.5998   -3.6097    2.2760 H   0  0  0  0  0  0  0  0  0  0  0  0
  1  2  1  0  0  0  0
  1 29  1  0  0  0  0
  1 30  1  0  0  0  0
  1 31  1  0  0  0  0
  2  3  1  0  0  0  0
  3  4  1  0  0  0  0
  3 28  2  0  0  0  0
  4  5  2  0  0  0  0
  4 32  1  0  0  0  0
  5  6  1  0  0  0  0
  5 33  1  0  0  0  0
  6  7  1  0  0  0  0
  6 27  2  0  0  0  0
  7  8  2  0  0  0  0
  7 34  1  0  0  0  0
  8  9  1  0  0  0  0
  9 10  2  0  0  0  0
  9 35  1  0  0  0  0
 10 11  1  0  0  0  0
 10 27  1  0  0  0  0
 11 12  1  0  0  0  0
 11 36  1  0  0  0  0
 12 13  2  0  0  0  0
 12 14  1  0  0  0  0
 14 15  1  0  0  0  0
 14 17  1  0  0  0  0
 14 26  1  0  0  0  0
 15 16  1  0  0  0  0
 16 37  1  0  0  0  0
 16 38  1  0  0  0  0
 16 39  1  0  0  0  0
 17 18  1  0  0  0  0
 17 40  1  0  0  0  0
 17 41  1  0  0  0  0
 18 19  1  0  0  0  0
 18 42  1  0  0  0  0
 18 43  1  0  0  0  0
 19 20  1  0  0  0  0
 20 21  1  0  0  0  0
 20 26  2  0  0  0  0
 21 22  2  0  0  0  0
 21 44  1  0  0  0  0
 22 23  1  0  0  0  0
 22 45  1  0  0  0  0
 23 24  1  0  0  0  0
 23 25  2  0  0  0  0
 25 26  1  0  0  0  0
 25 46  1  0  0  0  0
 27 28  1  0  0  0  0
 28 47  1  0  0  0  0
M  END
$$$$
