
 OpenBabel07202414203D

 45 49  0  0  1  0  0  0  0  0999 V2000
    0.8990   -0.0015   -0.1771 O   0  0  0  0  0  0  0  0  0  0  0  0
    2.2773   -0.0798    0.1443 C   0  0  0  0  0  0  0  0  0  0  0  0
    2.5654    0.8704    1.2747 C   0  0  0  0  0  0  0  0  0  0  0  0
    3.2024    0.4435    2.4416 C   0  0  0  0  0  0  0  0  0  0  0  0
    3.4949    1.3585    3.4544 C   0  0  0  0  0  0  0  0  0  0  0  0
    3.1626    2.7082    3.3094 C   0  0  0  0  0  0  0  0  0  0  0  0
    2.5425    3.1693    2.1437 C   0  0  0  0  0  0  0  0  0  0  0  0
    2.2327    2.2275    1.1449 C   0  0  0  0  0  0  0  0  0  0  0  0
    2.3167    4.6509    1.9332 C   0  0  1  0  0  0  0  0  0  0  0  0
    3.0665    5.4839    2.9713 C   0  0  0  0  0  0  0  0  0  0  0  0
    2.9443    4.8147    4.3331 C   0  0  0  0  0  0  0  0  0  0  0  0
    3.5491    3.5232    4.3378 O   0  0  0  0  0  0  0  0  0  0  0  0
    2.7010    5.0156    0.5848 N   0  0  0  0  0  0  0  0  0  0  0  0
    1.5944    5.2428   -0.2112 C   0  0  0  0  0  0  0  0  0  0  0  0
    1.6372    5.2183   -1.4309 O   0  0  0  0  0  0  0  0  0  0  0  0
    0.5179    5.4354    0.6065 N   0  0  0  0  0  0  0  0  0  0  0  0
   -0.7595    5.8196    0.1646 C   0  0  0  0  0  0  0  0  0  0  0  0
   -1.4516    5.0210   -0.7433 C   0  0  0  0  0  0  0  0  0  0  0  0
   -2.6978    5.2884   -1.1932 N   0  0  0  0  0  0  0  0  0  0  0  0
   -3.2365    6.4640   -0.8031 C   0  0  0  0  0  0  0  0  0  0  0  0
   -2.5757    7.4168   -0.0269 C   0  0  0  0  0  0  0  0  0  0  0  0
   -3.1029    8.7078    0.1543 C   0  0  0  0  0  0  0  0  0  0  0  0
   -2.3899    9.6717    0.8637 C   0  0  0  0  0  0  0  0  0  0  0  0
   -1.1864    9.3318    1.4692 C   0  0  0  0  0  0  0  0  0  0  0  0
   -0.6669    8.0435    1.3186 C   0  0  0  0  0  0  0  0  0  0  0  0
   -1.3200    7.0718    0.5225 C   0  0  0  0  0  0  0  0  0  0  0  0
    0.8240    5.0674    1.8981 C   0  0  0  0  0  0  0  0  0  0  0  0
    0.0674    5.0421    2.8585 O   0  0  0  0  0  0  0  0  0  0  0  0
    0.7420   -0.6320   -0.8989 H   0  0  0  0  0  0  0  0  0  0  0  0
    2.8668    0.2024   -0.7353 H   0  0  0  0  0  0  0  0  0  0  0  0
    2.5194   -1.1115    0.4139 H   0  0  0  0  0  0  0  0  0  0  0  0
    3.4782   -0.6003    2.5728 H   0  0  0  0  0  0  0  0  0  0  0  0
    3.9918    1.0185    4.3602 H   0  0  0  0  0  0  0  0  0  0  0  0
    1.7479    2.5371    0.2203 H   0  0  0  0  0  0  0  0  0  0  0  0
    2.6830    6.5107    3.0191 H   0  0  0  0  0  0  0  0  0  0  0  0
    4.1297    5.5462    2.7021 H   0  0  0  0  0  0  0  0  0  0  0  0
    1.9074    4.7313    4.6735 H   0  0  0  0  0  0  0  0  0  0  0  0
    3.4737    5.4189    5.0803 H   0  0  0  0  0  0  0  0  0  0  0  0
    3.5446    4.6737    0.1410 H   0  0  0  0  0  0  0  0  0  0  0  0
   -1.0196    4.1056   -1.1390 H   0  0  0  0  0  0  0  0  0  0  0  0
   -4.2435    6.6414   -1.1740 H   0  0  0  0  0  0  0  0  0  0  0  0
   -4.0453    8.9887   -0.3119 H   0  0  0  0  0  0  0  0  0  0  0  0
   -2.7680   10.6886    0.9338 H   0  0  0  0  0  0  0  0  0  0  0  0
   -0.6351   10.0757    2.0388 H   0  0  0  0  0  0  0  0  0  0  0  0
    0.2826    7.8234    1.7989 H   0  0  0  0  0  0  0  0  0  0  0  0
  1  2  1  0  0  0  0
  1 29  1  0  0  0  0
  2  3  1  0  0  0  0
  2 30  1  0  0  0  0
  2 31  1  0  0  0  0
  3  4  1  0  0  0  0
  3  8  2  0  0  0  0
  4  5  2  0  0  0  0
  4 32  1  0  0  0  0
  5  6  1  0  0  0  0
  5 33  1  0  0  0  0
  6  7  2  0  0  0  0
  6 12  1  0  0  0  0
  7  8  1  0  0  0  0
  8 34  1  0  0  0  0
  9  7  1  1  0  0  0
  9 10  1  0  0  0  0
  9 13  1  0  0  0  0
  9 27  1  0  0  0  0
 10 11  1  0  0  0  0
 10 35  1  0  0  0  0
 10 36  1  0  0  0  0
 11 12  1  0  0  0  0
 11 37  1  0  0  0  0
 11 38  1  0  0  0  0
 13 14  1  0  0  0  0
 13 39  1  0  0  0  0
 14 15  2  0  0  0  0
 14 16  1  0  0  0  0
 16 17  1  0  0  0  0
 16 27  1  0  0  0  0
 17 18  1  0  0  0  0
 17 26  2  0  0  0  0
 18 19  2  0  0  0  0
 18 40  1  0  0  0  0
 19 20  1  0  0  0  0
 20 21  2  0  0  0  0
 20 41  1  0  0  0  0
 21 22  1  0  0  0  0
 21 26  1  0  0  0  0
 22 23  2  0  0  0  0
 22 42  1  0  0  0  0
 23 24  1  0  0  0  0
 23 43  1  0  0  0  0
 24 25  2  0  0  0  0
 24 44  1  0  0  0  0
 25 26  1  0  0  0  0
 25 45  1  0  0  0  0
 27 28  2  0  0  0  0
M  END
$$$$
