
 OpenBabel07202414193D

 44 47  0  0  1  0  0  0  0  0999 V2000
    2.8754    0.6471   -0.5574 O   0  0  0  0  0  0  0  0  0  0  0  0
    2.4137   -0.3891   -0.0818 C   0  0  0  0  0  0  0  0  0  0  0  0
    1.2402   -1.0946   -0.7587 C   0  0  0  0  0  0  0  0  0  0  0  0
   -0.0906   -0.9078   -0.0550 C   0  0  0  0  0  0  0  0  0  0  0  0
   -0.3899    0.3340    0.5119 C   0  0  0  0  0  0  0  0  0  0  0  0
   -1.5359    0.6276    1.1593 N   0  0  0  0  0  0  0  0  0  0  0  0
   -2.4553   -0.3559    1.2301 C   0  0  0  0  0  0  0  0  0  0  0  0
   -2.2998   -1.6276    0.6873 C   0  0  0  0  0  0  0  0  0  0  0  0
   -3.3160   -2.5928    0.7985 C   0  0  0  0  0  0  0  0  0  0  0  0
   -3.1608   -3.8623    0.2464 C   0  0  0  0  0  0  0  0  0  0  0  0
   -1.9884   -4.1734   -0.4293 C   0  0  0  0  0  0  0  0  0  0  0  0
   -0.9720   -3.2175   -0.5475 C   0  0  0  0  0  0  0  0  0  0  0  0
   -1.0908   -1.9212    0.0132 C   0  0  0  0  0  0  0  0  0  0  0  0
    2.8921   -0.9485    1.0898 N   0  0  0  0  0  0  0  0  0  0  0  0
    2.6217   -2.3018    1.5388 C   0  0  0  0  0  0  0  0  0  0  0  0
    3.0477   -2.2847    2.9886 C   0  0  0  0  0  0  0  0  0  0  0  0
    4.2919   -1.4005    2.9613 C   0  0  0  0  0  0  0  0  0  0  0  0
    4.0188   -0.3772    1.8361 C   0  0  2  0  0  0  0  0  0  0  0  0
    3.7803    1.0184    2.3828 C   0  0  0  0  0  0  0  0  0  0  0  0
    4.7320    2.0257    2.1379 C   0  0  0  0  0  0  0  0  0  0  0  0
    4.5524    3.3201    2.6328 C   0  0  0  0  0  0  0  0  0  0  0  0
    3.4194    3.6202    3.3819 C   0  0  0  0  0  0  0  0  0  0  0  0
    3.1901    5.2150    3.9845 Cl  0  0  0  0  0  0  0  0  0  0  0  0
    2.4693    2.6350    3.6440 C   0  0  0  0  0  0  0  0  0  0  0  0
    2.6487    1.3398    3.1473 C   0  0  0  0  0  0  0  0  0  0  0  0
    1.5141   -2.1476   -0.8621 H   0  0  0  0  0  0  0  0  0  0  0  0
    1.1486   -0.7035   -1.7796 H   0  0  0  0  0  0  0  0  0  0  0  0
    0.3091    1.1670    0.4618 H   0  0  0  0  0  0  0  0  0  0  0  0
   -3.3655   -0.0767    1.7546 H   0  0  0  0  0  0  0  0  0  0  0  0
   -4.2442   -2.3566    1.3168 H   0  0  0  0  0  0  0  0  0  0  0  0
   -3.9550   -4.5966    0.3349 H   0  0  0  0  0  0  0  0  0  0  0  0
   -1.8653   -5.1600   -0.8713 H   0  0  0  0  0  0  0  0  0  0  0  0
   -0.0821   -3.5144   -1.0950 H   0  0  0  0  0  0  0  0  0  0  0  0
    3.2564   -2.9743    0.9466 H   0  0  0  0  0  0  0  0  0  0  0  0
    1.5811   -2.5955    1.4069 H   0  0  0  0  0  0  0  0  0  0  0  0
    3.2391   -3.2854    3.3840 H   0  0  0  0  0  0  0  0  0  0  0  0
    2.2648   -1.8179    3.5977 H   0  0  0  0  0  0  0  0  0  0  0  0
    5.1599   -2.0153    2.6935 H   0  0  0  0  0  0  0  0  0  0  0  0
    4.4944   -0.9534    3.9401 H   0  0  0  0  0  0  0  0  0  0  0  0
    4.8798   -0.3573    1.1547 H   0  0  0  0  0  0  0  0  0  0  0  0
    5.6194    1.8124    1.5446 H   0  0  0  0  0  0  0  0  0  0  0  0
    5.2938    4.0861    2.4231 H   0  0  0  0  0  0  0  0  0  0  0  0
    1.5834    2.8685    4.2284 H   0  0  0  0  0  0  0  0  0  0  0  0
    1.8912    0.5881    3.3547 H   0  0  0  0  0  0  0  0  0  0  0  0
  1  2  2  0  0  0  0
  2  3  1  0  0  0  0
  2 14  1  0  0  0  0
  3  4  1  0  0  0  0
  3 26  1  0  0  0  0
  3 27  1  0  0  0  0
  4  5  1  0  0  0  0
  4 13  2  0  0  0  0
  5  6  2  0  0  0  0
  5 28  1  0  0  0  0
  6  7  1  0  0  0  0
  7  8  2  0  0  0  0
  7 29  1  0  0  0  0
  8  9  1  0  0  0  0
  8 13  1  0  0  0  0
  9 10  2  0  0  0  0
  9 30  1  0  0  0  0
 10 11  1  0  0  0  0
 10 31  1  0  0  0  0
 11 12  2  0  0  0  0
 11 32  1  0  0  0  0
 12 13  1  0  0  0  0
 12 33  1  0  0  0  0
 14 15  1  0  0  0  0
 14 18  1  0  0  0  0
 15 16  1  0  0  0  0
 15 34  1  0  0  0  0
 15 35  1  0  0  0  0
 16 17  1  0  0  0  0
 16 36  1  0  0  0  0
 16 37  1  0  0  0  0
 17 18  1  0  0  0  0
 17 38  1  0  0  0  0
 17 39  1  0  0  0  0
 18 19  1  0  0  0  0
 18 40  1  6  0  0  0
 19 20  1  0  0  0  0
 19 25  2  0  0  0  0
 20 21  2  0  0  0  0
 20 41  1  0  0  0  0
 21 22  1  0  0  0  0
 21 42  1  0  0  0  0
 22 23  1  0  0  0  0
 22 24  2  0  0  0  0
 24 25  1  0  0  0  0
 24 43  1  0  0  0  0
 25 44  1  0  0  0  0
M  END
$$$$
