
 OpenBabel07202414143D

 52 56  0  0  1  0  0  0  0  0999 V2000
    8.2196   -0.9243    1.0089 C   0  0  0  0  0  0  0  0  0  0  0  0
    7.0981   -0.0272    1.1306 N   0  0  0  0  0  0  0  0  0  0  0  0
    5.8228   -0.4827    0.8760 C   0  0  0  0  0  0  0  0  0  0  0  0
    5.5844   -1.6455    0.5530 O   0  0  0  0  0  0  0  0  0  0  0  0
    4.7244    0.5797    0.8889 C   0  0  0  0  0  0  0  0  0  0  0  0
    4.8421    1.6218    1.9147 N   0  0  0  0  0  0  0  0  0  0  0  0
    4.6373    1.2705    3.3064 C   0  0  0  0  0  0  0  0  0  0  0  0
    3.8401    2.3331    4.0869 C   0  0  2  0  0  0  0  0  0  0  0  0
    4.1144    2.1218    5.5823 C   0  0  0  0  0  0  0  0  0  0  0  0
    2.7522    1.9968    6.1686 C   0  0  0  0  0  0  0  0  0  0  0  0
    2.5051    2.3198    7.3216 O   0  0  0  0  0  0  0  0  0  0  0  0
    1.8884    1.5706    5.1917 N   0  0  0  0  0  0  0  0  0  0  0  0
    0.5442    1.2270    5.5361 C   0  0  0  0  0  0  0  0  0  0  0  0
   -0.5409    1.7587    4.8423 C   0  0  0  0  0  0  0  0  0  0  0  0
   -1.8122    1.7506    5.3056 N   0  0  0  0  0  0  0  0  0  0  0  0
   -2.0220    1.1539    6.4995 C   0  0  0  0  0  0  0  0  0  0  0  0
   -1.0555    0.4450    7.2081 C   0  0  0  0  0  0  0  0  0  0  0  0
   -1.3734   -0.2443    8.3957 C   0  0  0  0  0  0  0  0  0  0  0  0
   -0.4183   -1.0161    9.0529 C   0  0  0  0  0  0  0  0  0  0  0  0
    0.8604   -1.1147    8.5236 C   0  0  0  0  0  0  0  0  0  0  0  0
    1.1927   -0.4041    7.3647 C   0  0  0  0  0  0  0  0  0  0  0  0
    0.2581    0.4324    6.6936 C   0  0  0  0  0  0  0  0  0  0  0  0
    2.3464    2.0063    3.9673 C   0  0  0  0  0  0  0  0  0  0  0  0
    1.7047    2.1355    2.9332 O   0  0  0  0  0  0  0  0  0  0  0  0
    4.2110    3.7492    3.6430 C   0  0  0  0  0  0  0  0  0  0  0  0
    3.7714    4.8824    4.3580 C   0  0  0  0  0  0  0  0  0  0  0  0
    4.1813    6.1670    3.9855 C   0  0  0  0  0  0  0  0  0  0  0  0
    3.6379    7.5293    4.8846 Cl  0  0  0  0  0  0  0  0  0  0  0  0
    5.0281    6.3549    2.8984 C   0  0  0  0  0  0  0  0  0  0  0  0
    5.4503    5.2530    2.1582 C   0  0  0  0  0  0  0  0  0  0  0  0
    5.0363    3.9600    2.5147 C   0  0  0  0  0  0  0  0  0  0  0  0
    5.3975    2.8398    1.5939 C   0  0  0  0  0  0  0  0  0  0  0  0
    6.0879    3.0209    0.5980 O   0  0  0  0  0  0  0  0  0  0  0  0
    9.1469   -0.3530    1.0851 H   0  0  0  0  0  0  0  0  0  0  0  0
    8.1785   -1.4457    0.0478 H   0  0  0  0  0  0  0  0  0  0  0  0
    8.1675   -1.6611    1.8159 H   0  0  0  0  0  0  0  0  0  0  0  0
    7.2510    0.9760    1.0546 H   0  0  0  0  0  0  0  0  0  0  0  0
    3.7629    0.0817    1.0511 H   0  0  0  0  0  0  0  0  0  0  0  0
    4.7010    1.0465   -0.1014 H   0  0  0  0  0  0  0  0  0  0  0  0
    5.6453    1.1732    3.7341 H   0  0  0  0  0  0  0  0  0  0  0  0
    4.1590    0.2864    3.3717 H   0  0  0  0  0  0  0  0  0  0  0  0
    4.6568    2.9428    6.0602 H   0  0  0  0  0  0  0  0  0  0  0  0
    4.6401    1.1858    5.8014 H   0  0  0  0  0  0  0  0  0  0  0  0
   -0.4336    2.2882    3.9007 H   0  0  0  0  0  0  0  0  0  0  0  0
   -3.0380    1.2484    6.8766 H   0  0  0  0  0  0  0  0  0  0  0  0
   -2.3782   -0.1923    8.8105 H   0  0  0  0  0  0  0  0  0  0  0  0
   -0.6772   -1.5507    9.9640 H   0  0  0  0  0  0  0  0  0  0  0  0
    1.6043   -1.7396    9.0121 H   0  0  0  0  0  0  0  0  0  0  0  0
    2.2005   -0.5299    6.9775 H   0  0  0  0  0  0  0  0  0  0  0  0
    3.1097    4.7833    5.2167 H   0  0  0  0  0  0  0  0  0  0  0  0
    5.3446    7.3538    2.6087 H   0  0  0  0  0  0  0  0  0  0  0  0
    6.0819    5.4067    1.2840 H   0  0  0  0  0  0  0  0  0  0  0  0
  1  2  1  0  0  0  0
  1 34  1  0  0  0  0
  1 35  1  0  0  0  0
  1 36  1  0  0  0  0
  2  3  1  0  0  0  0
  2 37  1  0  0  0  0
  3  4  2  0  0  0  0
  3  5  1  0  0  0  0
  5  6  1  0  0  0  0
  5 38  1  0  0  0  0
  5 39  1  0  0  0  0
  6  7  1  0  0  0  0
  6 32  1  0  0  0  0
  7  8  1  0  0  0  0
  7 40  1  0  0  0  0
  7 41  1  0  0  0  0
  8  9  1  0  0  0  0
  8 23  1  6  0  0  0
  8 25  1  0  0  0  0
  9 10  1  0  0  0  0
  9 42  1  0  0  0  0
  9 43  1  0  0  0  0
 10 11  2  0  0  0  0
 10 12  1  0  0  0  0
 12 13  1  0  0  0  0
 12 23  1  0  0  0  0
 13 14  1  0  0  0  0
 13 22  2  0  0  0  0
 14 15  2  0  0  0  0
 14 44  1  0  0  0  0
 15 16  1  0  0  0  0
 16 17  2  0  0  0  0
 16 45  1  0  0  0  0
 17 18  1  0  0  0  0
 17 22  1  0  0  0  0
 18 19  2  0  0  0  0
 18 46  1  0  0  0  0
 19 20  1  0  0  0  0
 19 47  1  0  0  0  0
 20 21  2  0  0  0  0
 20 48  1  0  0  0  0
 21 22  1  0  0  0  0
 21 49  1  0  0  0  0
 23 24  2  0  0  0  0
 25 26  1  0  0  0  0
 25 31  2  0  0  0  0
 26 27  2  0  0  0  0
 26 50  1  0  0  0  0
 27 28  1  0  0  0  0
 27 29  1  0  0  0  0
 29 30  2  0  0  0  0
 29 51  1  0  0  0  0
 30 31  1  0  0  0  0
 30 52  1  0  0  0  0
 31 32  1  0  0  0  0
 32 33  2  0  0  0  0
M  END
$$$$
