
 OpenBabel07202414203D

 37 40  0  0  1  0  0  0  0  0999 V2000
   -1.9686    0.5987   -2.1161 C   0  0  0  0  0  0  0  0  0  0  0  0
   -3.3211    0.3467   -1.7466 C   0  0  0  0  0  0  0  0  0  0  0  0
   -4.0425    1.1668   -0.8619 C   0  0  0  0  0  0  0  0  0  0  0  0
   -3.3137    2.2597   -0.3639 C   0  0  0  0  0  0  0  0  0  0  0  0
   -1.9191    2.4942   -0.7405 C   0  0  0  0  0  0  0  0  0  0  0  0
   -1.2059    1.6907   -1.6371 C   0  0  0  0  0  0  0  0  0  0  0  0
   -1.5444    3.6523   -0.0911 C   0  0  0  0  0  0  0  0  0  0  0  0
   -2.6777    4.0339    0.5876 N   0  0  0  0  0  0  0  0  0  0  0  0
   -3.7263    3.2221    0.4702 N   0  0  0  0  0  0  0  0  0  0  0  0
   -0.3841    4.4240   -0.0144 N   0  0  0  0  0  0  0  0  0  0  0  0
    0.9641    4.0261   -0.2903 C   0  0  0  0  0  0  0  0  0  0  0  0
    1.2353    2.8782   -0.5930 O   0  0  0  0  0  0  0  0  0  0  0  0
    2.0318    5.0734    0.0082 C   0  0  3  0  0  0  0  0  0  0  0  0
    2.4845    4.9269    1.4672 C   0  0  0  0  0  0  0  0  0  0  0  0
    1.6607    5.8325    2.3669 C   0  0  0  0  0  0  0  0  0  0  0  0
    1.8659    7.2010    2.0238 O   0  0  0  0  0  0  0  0  0  0  0  0
    1.7015    7.4883    0.6979 C   0  0  0  0  0  0  0  0  0  0  0  0
    1.6634    6.5119   -0.3079 C   0  0  0  0  0  0  0  0  0  0  0  0
    1.4130    6.9225   -1.6281 C   0  0  0  0  0  0  0  0  0  0  0  0
    1.3080    8.2846   -1.9333 C   0  0  0  0  0  0  0  0  0  0  0  0
    1.4397    9.2482   -0.9374 C   0  0  0  0  0  0  0  0  0  0  0  0
    1.6198    8.8463    0.3839 C   0  0  0  0  0  0  0  0  0  0  0  0
    1.0651    8.7758   -3.5628 Cl  0  0  0  0  0  0  0  0  0  0  0  0
   -1.4978   -0.0917   -2.8188 H   0  0  0  0  0  0  0  0  0  0  0  0
   -3.8262   -0.5197   -2.1773 H   0  0  0  0  0  0  0  0  0  0  0  0
   -5.0758    0.9871   -0.5959 H   0  0  0  0  0  0  0  0  0  0  0  0
   -0.1917    1.8383   -1.9791 H   0  0  0  0  0  0  0  0  0  0  0  0
   -2.7901    4.8415    1.1888 H   0  0  0  0  0  0  0  0  0  0  0  0
   -0.5079    5.3598    0.3531 H   0  0  0  0  0  0  0  0  0  0  0  0
    2.8901    4.8216   -0.6325 H   0  0  0  0  0  0  0  0  0  0  0  0
    3.5360    5.2362    1.5399 H   0  0  0  0  0  0  0  0  0  0  0  0
    2.4204    3.8888    1.8103 H   0  0  0  0  0  0  0  0  0  0  0  0
    1.9685    5.7077    3.4103 H   0  0  0  0  0  0  0  0  0  0  0  0
    0.5888    5.6055    2.3226 H   0  0  0  0  0  0  0  0  0  0  0  0
    1.3496    6.1985   -2.4379 H   0  0  0  0  0  0  0  0  0  0  0  0
    1.4140   10.3079   -1.1804 H   0  0  0  0  0  0  0  0  0  0  0  0
    1.7245    9.5938    1.1677 H   0  0  0  0  0  0  0  0  0  0  0  0
  1  2  1  0  0  0  0
  1  6  2  0  0  0  0
  1 24  1  0  0  0  0
  2  3  2  0  0  0  0
  2 25  1  0  0  0  0
  3  4  1  0  0  0  0
  3 26  1  0  0  0  0
  4  5  1  0  0  0  0
  4  9  2  0  0  0  0
  5  6  1  0  0  0  0
  5  7  2  0  0  0  0
  6 27  1  0  0  0  0
  7  8  1  0  0  0  0
  7 10  1  0  0  0  0
  8  9  1  0  0  0  0
  8 28  1  0  0  0  0
 10 11  1  0  0  0  0
 10 29  1  0  0  0  0
 11 12  2  0  0  0  0
 11 13  1  0  0  0  0
 13 14  1  0  0  0  0
 13 18  1  0  0  0  0
 13 30  1  0  0  0  0
 14 15  1  0  0  0  0
 14 31  1  0  0  0  0
 14 32  1  0  0  0  0
 15 16  1  0  0  0  0
 15 33  1  0  0  0  0
 15 34  1  0  0  0  0
 16 17  1  0  0  0  0
 17 18  1  0  0  0  0
 17 22  2  0  0  0  0
 18 19  2  0  0  0  0
 19 20  1  0  0  0  0
 19 35  1  0  0  0  0
 20 21  2  0  0  0  0
 20 23  1  0  0  0  0
 21 22  1  0  0  0  0
 21 36  1  0  0  0  0
 22 37  1  0  0  0  0
M  END
$$$$
