
 OpenBabel07202414143D

 43 46  0  0  1  0  0  0  0  0999 V2000
    1.6593    0.6986   -1.0533 C   0  0  0  0  0  0  0  0  0  0  0  0
    1.5316   -0.2965   -0.0215 O   0  0  0  0  0  0  0  0  0  0  0  0
    2.7901   -0.8466    0.4238 C   0  0  3  0  0  0  0  0  0  0  0  0
    3.5435    0.2916    1.2095 C   0  0  0  0  0  0  0  0  0  0  0  0
    4.7669    0.3871    1.2023 O   0  0  0  0  0  0  0  0  0  0  0  0
    2.6662    1.1692    1.8815 N   0  0  0  0  0  0  0  0  0  0  0  0
    3.0130    2.3784    2.5529 C   0  0  0  0  0  0  0  0  0  0  0  0
    4.3419    2.7255    2.7952 C   0  0  0  0  0  0  0  0  0  0  0  0
    4.7578    3.9350    3.2363 N   0  0  0  0  0  0  0  0  0  0  0  0
    3.8007    4.8484    3.4868 C   0  0  0  0  0  0  0  0  0  0  0  0
    2.4344    4.5945    3.4070 C   0  0  0  0  0  0  0  0  0  0  0  0
    1.5194    5.5955    3.7738 C   0  0  0  0  0  0  0  0  0  0  0  0
    0.1588    5.3255    3.7510 C   0  0  0  0  0  0  0  0  0  0  0  0
   -0.7073    6.2693    4.1422 F   0  0  0  0  0  0  0  0  0  0  0  0
   -0.3056    4.0830    3.3528 C   0  0  0  0  0  0  0  0  0  0  0  0
    0.6041    3.0957    2.9429 C   0  0  0  0  0  0  0  0  0  0  0  0
    2.0071    3.3203    2.9485 C   0  0  0  0  0  0  0  0  0  0  0  0
    3.6230   -1.3567   -0.7797 C   0  0  0  0  0  0  0  0  0  0  0  0
    2.9599   -2.6238   -1.2959 C   0  0  0  0  0  0  0  0  0  0  0  0
    3.2096   -3.6845   -0.3796 O   0  0  0  0  0  0  0  0  0  0  0  0
    2.8864   -3.3655    0.9124 C   0  0  0  0  0  0  0  0  0  0  0  0
    2.9464   -4.4442    1.8026 C   0  0  0  0  0  0  0  0  0  0  0  0
    2.6334   -4.2601    3.1440 C   0  0  0  0  0  0  0  0  0  0  0  0
    2.2175   -3.0049    3.5756 C   0  0  0  0  0  0  0  0  0  0  0  0
    1.7980   -2.7757    5.2295 Cl  0  0  0  0  0  0  0  0  0  0  0  0
    2.1717   -1.9209    2.6940 C   0  0  0  0  0  0  0  0  0  0  0  0
    2.5696   -2.0626    1.3516 C   0  0  0  0  0  0  0  0  0  0  0  0
    1.4927    0.2371   -2.0319 H   0  0  0  0  0  0  0  0  0  0  0  0
    2.6432    1.1944   -1.0515 H   0  0  0  0  0  0  0  0  0  0  0  0
    0.9085    1.4731   -0.8976 H   0  0  0  0  0  0  0  0  0  0  0  0
    1.6823    1.0085    1.6884 H   0  0  0  0  0  0  0  0  0  0  0  0
    5.1591    2.0273    2.6496 H   0  0  0  0  0  0  0  0  0  0  0  0
    4.1848    5.8228    3.7804 H   0  0  0  0  0  0  0  0  0  0  0  0
    1.8478    6.5775    4.1004 H   0  0  0  0  0  0  0  0  0  0  0  0
   -1.3744    3.8858    3.3743 H   0  0  0  0  0  0  0  0  0  0  0  0
    0.1929    2.1329    2.6556 H   0  0  0  0  0  0  0  0  0  0  0  0
    4.6503   -1.5891   -0.4684 H   0  0  0  0  0  0  0  0  0  0  0  0
    3.6969   -0.6320   -1.5942 H   0  0  0  0  0  0  0  0  0  0  0  0
    3.3864   -2.9163   -2.2611 H   0  0  0  0  0  0  0  0  0  0  0  0
    1.8770   -2.5134   -1.4467 H   0  0  0  0  0  0  0  0  0  0  0  0
    3.2611   -5.4234    1.4453 H   0  0  0  0  0  0  0  0  0  0  0  0
    2.7137   -5.0924    3.8368 H   0  0  0  0  0  0  0  0  0  0  0  0
    1.8688   -0.9549    3.0890 H   0  0  0  0  0  0  0  0  0  0  0  0
  1  2  1  0  0  0  0
  1 28  1  0  0  0  0
  1 29  1  0  0  0  0
  1 30  1  0  0  0  0
  2  3  1  0  0  0  0
  3  4  1  0  0  0  0
  3 18  1  0  0  0  0
  3 27  1  0  0  0  0
  4  5  2  0  0  0  0
  4  6  1  0  0  0  0
  6  7  1  0  0  0  0
  6 31  1  0  0  0  0
  7  8  1  0  0  0  0
  7 17  2  0  0  0  0
  8  9  2  0  0  0  0
  8 32  1  0  0  0  0
  9 10  1  0  0  0  0
 10 11  2  0  0  0  0
 10 33  1  0  0  0  0
 11 12  1  0  0  0  0
 11 17  1  0  0  0  0
 12 13  2  0  0  0  0
 12 34  1  0  0  0  0
 13 14  1  0  0  0  0
 13 15  1  0  0  0  0
 15 16  2  0  0  0  0
 15 35  1  0  0  0  0
 16 17  1  0  0  0  0
 16 36  1  0  0  0  0
 18 19  1  0  0  0  0
 18 37  1  0  0  0  0
 18 38  1  0  0  0  0
 19 20  1  0  0  0  0
 19 39  1  0  0  0  0
 19 40  1  0  0  0  0
 20 21  1  0  0  0  0
 21 22  1  0  0  0  0
 21 27  2  0  0  0  0
 22 23  2  0  0  0  0
 22 41  1  0  0  0  0
 23 24  1  0  0  0  0
 23 42  1  0  0  0  0
 24 25  1  0  0  0  0
 24 26  2  0  0  0  0
 26 27  1  0  0  0  0
 26 43  1  0  0  0  0
M  END
$$$$
