
 OpenBabel07202414193D

 52 56  0  0  0  0  0  0  0  0999 V2000
    1.2906   -0.4623   -1.0148 O   0  0  0  0  0  0  0  0  0  0  0  0
    2.3870   -0.1779   -0.5265 C   0  0  0  0  0  0  0  0  0  0  0  0
    3.1044    1.1033   -0.9366 C   0  0  0  0  0  0  0  0  0  0  0  0
    3.5975    1.0660   -2.2976 N   0  0  0  0  0  0  0  0  0  0  0  0
    4.9249    1.1735   -2.5281 N   0  0  0  0  0  0  0  0  0  0  0  0
    5.1052    1.2357   -3.8406 N   0  0  0  0  0  0  0  0  0  0  0  0
    3.8766    1.1900   -4.4403 C   0  0  0  0  0  0  0  0  0  0  0  0
    3.5181    1.2375   -5.7956 C   0  0  0  0  0  0  0  0  0  0  0  0
    2.1622    1.1678   -6.1324 C   0  0  0  0  0  0  0  0  0  0  0  0
    1.1847    1.0575   -5.1399 C   0  0  0  0  0  0  0  0  0  0  0  0
    1.5238    1.0248   -3.7835 C   0  0  0  0  0  0  0  0  0  0  0  0
    2.8859    1.0836   -3.4703 C   0  0  0  0  0  0  0  0  0  0  0  0
    2.9808   -0.9582    0.4780 N   0  0  0  0  0  0  0  0  0  0  0  0
    2.2659   -2.1667    0.9131 C   0  0  0  0  0  0  0  0  0  0  0  0
    1.1979   -1.8263    1.9219 C   0  0  0  0  0  0  0  0  0  0  0  0
   -0.1676   -1.5085    1.5987 C   0  0  0  0  0  0  0  0  0  0  0  0
   -0.9450   -1.2740    2.7115 C   0  0  0  0  0  0  0  0  0  0  0  0
   -0.0539   -1.4472    4.1570 S   0  0  0  0  0  0  0  0  0  0  0  0
    1.3721   -1.8382    3.2952 C   0  0  0  0  0  0  0  0  0  0  0  0
    4.3964   -1.0380    0.5361 C   0  0  0  0  0  0  0  0  0  0  0  0
    5.0645   -0.5528    1.6572 C   0  0  0  0  0  0  0  0  0  0  0  0
    6.4613   -0.4624    1.6454 C   0  0  0  0  0  0  0  0  0  0  0  0
    7.1978   -0.8622    0.5247 C   0  0  0  0  0  0  0  0  0  0  0  0
    8.5967   -0.7075    0.4165 N   0  0  0  0  0  0  0  0  0  0  0  0
    9.4630   -0.3645    1.4339 C   0  0  0  0  0  0  0  0  0  0  0  0
    9.1933   -0.2682    2.6231 O   0  0  0  0  0  0  0  0  0  0  0  0
   10.8572   -0.0816    0.9702 C   0  0  0  0  0  0  0  0  0  0  0  0
   11.9821    0.0766    1.9706 C   0  0  0  0  0  0  0  0  0  0  0  0
   11.4474    1.2828    1.2568 C   0  0  0  0  0  0  0  0  0  0  0  0
    6.5172   -1.3924   -0.5763 C   0  0  0  0  0  0  0  0  0  0  0  0
    5.1235   -1.4924   -0.5675 C   0  0  0  0  0  0  0  0  0  0  0  0
    3.9330    1.3584   -0.2699 H   0  0  0  0  0  0  0  0  0  0  0  0
    2.3914    1.9327   -0.8699 H   0  0  0  0  0  0  0  0  0  0  0  0
    4.2806    1.3327   -6.5623 H   0  0  0  0  0  0  0  0  0  0  0  0
    1.8660    1.1978   -7.1773 H   0  0  0  0  0  0  0  0  0  0  0  0
    0.1355    0.9993   -5.4255 H   0  0  0  0  0  0  0  0  0  0  0  0
    0.7567    0.9364   -3.0213 H   0  0  0  0  0  0  0  0  0  0  0  0
    2.9674   -2.8817    1.3617 H   0  0  0  0  0  0  0  0  0  0  0  0
    1.8156   -2.6566    0.0410 H   0  0  0  0  0  0  0  0  0  0  0  0
   -0.5603   -1.4561    0.5889 H   0  0  0  0  0  0  0  0  0  0  0  0
   -1.9951   -1.0156    2.7437 H   0  0  0  0  0  0  0  0  0  0  0  0
    2.2732   -2.0700    3.8463 H   0  0  0  0  0  0  0  0  0  0  0  0
    4.5158   -0.1815    2.5189 H   0  0  0  0  0  0  0  0  0  0  0  0
    6.9451   -0.0170    2.5100 H   0  0  0  0  0  0  0  0  0  0  0  0
    8.9934   -0.8472   -0.5034 H   0  0  0  0  0  0  0  0  0  0  0  0
   11.1358   -0.5382    0.0253 H   0  0  0  0  0  0  0  0  0  0  0  0
   12.9683   -0.2785    1.6969 H   0  0  0  0  0  0  0  0  0  0  0  0
   11.7529   -0.0316    3.0261 H   0  0  0  0  0  0  0  0  0  0  0  0
   12.0691    1.7439    0.4992 H   0  0  0  0  0  0  0  0  0  0  0  0
   10.8565    1.9861    1.8355 H   0  0  0  0  0  0  0  0  0  0  0  0
    7.0535   -1.7149   -1.4653 H   0  0  0  0  0  0  0  0  0  0  0  0
    4.6169   -1.8887   -1.4445 H   0  0  0  0  0  0  0  0  0  0  0  0
  1  2  2  0  0  0  0
  2  3  1  0  0  0  0
  2 13  1  0  0  0  0
  3  4  1  0  0  0  0
  3 32  1  0  0  0  0
  3 33  1  0  0  0  0
  4  5  1  0  0  0  0
  4 12  1  0  0  0  0
  5  6  2  0  0  0  0
  6  7  1  0  0  0  0
  7  8  1  0  0  0  0
  7 12  2  0  0  0  0
  8  9  2  0  0  0  0
  8 34  1  0  0  0  0
  9 10  1  0  0  0  0
  9 35  1  0  0  0  0
 10 11  2  0  0  0  0
 10 36  1  0  0  0  0
 11 12  1  0  0  0  0
 11 37  1  0  0  0  0
 13 14  1  0  0  0  0
 13 20  1  0  0  0  0
 14 15  1  0  0  0  0
 14 38  1  0  0  0  0
 14 39  1  0  0  0  0
 15 16  1  0  0  0  0
 15 19  2  0  0  0  0
 16 17  2  0  0  0  0
 16 40  1  0  0  0  0
 17 18  1  0  0  0  0
 17 41  1  0  0  0  0
 18 19  1  0  0  0  0
 19 42  1  0  0  0  0
 20 21  1  0  0  0  0
 20 31  2  0  0  0  0
 21 22  2  0  0  0  0
 21 43  1  0  0  0  0
 22 23  1  0  0  0  0
 22 44  1  0  0  0  0
 23 24  1  0  0  0  0
 23 30  2  0  0  0  0
 24 25  1  0  0  0  0
 24 45  1  0  0  0  0
 25 26  2  0  0  0  0
 25 27  1  0  0  0  0
 27 28  1  0  0  0  0
 27 29  1  0  0  0  0
 27 46  1  0  0  0  0
 28 29  1  0  0  0  0
 28 47  1  0  0  0  0
 28 48  1  0  0  0  0
 29 49  1  0  0  0  0
 29 50  1  0  0  0  0
 30 31  1  0  0  0  0
 30 51  1  0  0  0  0
 31 52  1  0  0  0  0
M  END
$$$$
