
 OpenBabel07202414143D

 48 51  0  0  1  0  0  0  0  0999 V2000
    3.8775   -2.0139   -1.1961 C   0  0  0  0  0  0  0  0  0  0  0  0
    3.0524   -2.3123   -0.0275 N   0  0  0  0  0  0  0  0  0  0  0  0
    3.0390   -1.2426    1.2480 S   0  0  0  0  0  0  0  0  0  0  0  0
    2.6712    0.0676    0.7733 O   0  0  0  0  0  0  0  0  0  0  0  0
    2.3268   -1.8694    2.3320 O   0  0  0  0  0  0  0  0  0  0  0  0
    4.6520   -1.2116    1.6341 N   0  0  0  0  0  0  0  0  0  0  0  0
    5.2431   -2.4244    2.2430 C   0  0  0  0  0  0  0  0  0  0  0  0
    6.7389   -2.4439    1.9308 C   0  0  0  0  0  0  0  0  0  0  0  0
    7.4214   -1.1163    2.1654 C   0  0  0  0  0  0  0  0  0  0  0  0
    8.8213   -1.0590    2.1768 C   0  0  0  0  0  0  0  0  0  0  0  0
    9.4762    0.1677    2.2810 C   0  0  0  0  0  0  0  0  0  0  0  0
    8.7355    1.3439    2.3581 C   0  0  0  0  0  0  0  0  0  0  0  0
    9.5478    2.8589    2.4324 Cl  0  0  0  0  0  0  0  0  0  0  0  0
    7.3420    1.3053    2.3617 C   0  0  0  0  0  0  0  0  0  0  0  0
    6.6710    0.0737    2.2744 C   0  0  0  0  0  0  0  0  0  0  0  0
    5.1425    0.0288    2.3073 C   0  0  3  0  0  0  0  0  0  0  0  0
    4.5933    0.2118    3.7554 C   0  0  0  0  0  0  0  0  0  0  0  0
    5.1816   -0.2354    4.7427 O   0  0  0  0  0  0  0  0  0  0  0  0
    3.3979    0.9144    3.7967 N   0  0  0  0  0  0  0  0  0  0  0  0
    2.7503    1.4632    4.9315 C   0  0  0  0  0  0  0  0  0  0  0  0
    3.3057    1.4503    6.2129 C   0  0  0  0  0  0  0  0  0  0  0  0
    2.7981    2.1201    7.2766 N   0  0  0  0  0  0  0  0  0  0  0  0
    1.6355    2.7743    7.0798 C   0  0  0  0  0  0  0  0  0  0  0  0
    0.9103    2.7508    5.8900 C   0  0  0  0  0  0  0  0  0  0  0  0
   -0.3727    3.3253    5.8088 C   0  0  0  0  0  0  0  0  0  0  0  0
   -1.1014    3.2724    4.6236 C   0  0  0  0  0  0  0  0  0  0  0  0
   -0.5321    2.7030    3.4942 C   0  0  0  0  0  0  0  0  0  0  0  0
    0.7462    2.1426    3.5611 C   0  0  0  0  0  0  0  0  0  0  0  0
    1.4903    2.1103    4.7689 C   0  0  0  0  0  0  0  0  0  0  0  0
    3.6257   -2.7213   -1.9930 H   0  0  0  0  0  0  0  0  0  0  0  0
    4.9390   -2.1463   -0.9685 H   0  0  0  0  0  0  0  0  0  0  0  0
    3.6972   -1.0046   -1.5718 H   0  0  0  0  0  0  0  0  0  0  0  0
    3.0552   -3.2803    0.2843 H   0  0  0  0  0  0  0  0  0  0  0  0
    4.7923   -3.3316    1.8269 H   0  0  0  0  0  0  0  0  0  0  0  0
    5.0676   -2.4420    3.3231 H   0  0  0  0  0  0  0  0  0  0  0  0
    6.8737   -2.6945    0.8701 H   0  0  0  0  0  0  0  0  0  0  0  0
    7.2200   -3.2296    2.5234 H   0  0  0  0  0  0  0  0  0  0  0  0
    9.4085   -1.9708    2.0929 H   0  0  0  0  0  0  0  0  0  0  0  0
   10.5622    0.1989    2.2883 H   0  0  0  0  0  0  0  0  0  0  0  0
    6.7818    2.2357    2.4243 H   0  0  0  0  0  0  0  0  0  0  0  0
    4.8178    0.8900    1.7069 H   0  0  0  0  0  0  0  0  0  0  0  0
    2.9465    1.0657    2.9042 H   0  0  0  0  0  0  0  0  0  0  0  0
    4.2112    0.9029    6.4523 H   0  0  0  0  0  0  0  0  0  0  0  0
    1.2836    3.3329    7.9442 H   0  0  0  0  0  0  0  0  0  0  0  0
   -0.8298    3.7824    6.6844 H   0  0  0  0  0  0  0  0  0  0  0  0
   -2.1136    3.6663    4.5830 H   0  0  0  0  0  0  0  0  0  0  0  0
   -1.0854    2.6693    2.5591 H   0  0  0  0  0  0  0  0  0  0  0  0
    1.1242    1.6968    2.6459 H   0  0  0  0  0  0  0  0  0  0  0  0
  1  2  1  0  0  0  0
  1 30  1  0  0  0  0
  1 31  1  0  0  0  0
  1 32  1  0  0  0  0
  2  3  1  0  0  0  0
  2 33  1  0  0  0  0
  3  4  2  0  0  0  0
  3  5  2  0  0  0  0
  3  6  1  0  0  0  0
  6  7  1  0  0  0  0
  6 16  1  0  0  0  0
  7  8  1  0  0  0  0
  7 34  1  0  0  0  0
  7 35  1  0  0  0  0
  8  9  1  0  0  0  0
  8 36  1  0  0  0  0
  8 37  1  0  0  0  0
  9 10  1  0  0  0  0
  9 15  2  0  0  0  0
 10 11  2  0  0  0  0
 10 38  1  0  0  0  0
 11 12  1  0  0  0  0
 11 39  1  0  0  0  0
 12 13  1  0  0  0  0
 12 14  2  0  0  0  0
 14 15  1  0  0  0  0
 14 40  1  0  0  0  0
 15 16  1  0  0  0  0
 16 17  1  0  0  0  0
 16 41  1  0  0  0  0
 17 18  2  0  0  0  0
 17 19  1  0  0  0  0
 19 20  1  0  0  0  0
 19 42  1  0  0  0  0
 20 21  1  0  0  0  0
 20 29  2  0  0  0  0
 21 22  2  0  0  0  0
 21 43  1  0  0  0  0
 22 23  1  0  0  0  0
 23 24  2  0  0  0  0
 23 44  1  0  0  0  0
 24 25  1  0  0  0  0
 24 29  1  0  0  0  0
 25 26  2  0  0  0  0
 25 45  1  0  0  0  0
 26 27  1  0  0  0  0
 26 46  1  0  0  0  0
 27 28  2  0  0  0  0
 27 47  1  0  0  0  0
 28 29  1  0  0  0  0
 28 48  1  0  0  0  0
M  END
$$$$
