
 OpenBabel07202414143D

 52 56  0  0  1  0  0  0  0  0999 V2000
    7.6585   -1.8217    0.1692 C   0  0  0  0  0  0  0  0  0  0  0  0
    6.5001   -1.3846    0.9034 N   0  0  0  0  0  0  0  0  0  0  0  0
    5.8025   -0.2593    0.5269 C   0  0  0  0  0  0  0  0  0  0  0  0
    6.1445    0.4637   -0.4065 O   0  0  0  0  0  0  0  0  0  0  0  0
    4.5089   -0.0163    1.3057 C   0  0  0  0  0  0  0  0  0  0  0  0
    4.6808    0.1919    2.7432 N   0  0  0  0  0  0  0  0  0  0  0  0
    5.2057    1.4647    3.1946 C   0  0  0  0  0  0  0  0  0  0  0  0
    4.6481    1.9240    4.5501 C   0  0  3  0  0  0  0  0  0  0  0  0
    5.5619    3.0369    5.0727 C   0  0  0  0  0  0  0  0  0  0  0  0
    4.6594    4.2207    5.2120 C   0  0  0  0  0  0  0  0  0  0  0  0
    5.1106    5.3471    5.3594 O   0  0  0  0  0  0  0  0  0  0  0  0
    3.3550    3.7949    5.1451 N   0  0  0  0  0  0  0  0  0  0  0  0
    2.2665    4.5135    5.7525 C   0  0  0  0  0  0  0  0  0  0  0  0
    2.4366    5.8785    6.0403 C   0  0  0  0  0  0  0  0  0  0  0  0
    1.6641    6.6212    6.8619 N   0  0  0  0  0  0  0  0  0  0  0  0
    0.6089    5.9990    7.4052 C   0  0  0  0  0  0  0  0  0  0  0  0
    0.2368    4.6929    7.1190 C   0  0  0  0  0  0  0  0  0  0  0  0
   -0.9526    4.1935    7.6826 C   0  0  0  0  0  0  0  0  0  0  0  0
   -1.3573    2.8911    7.4504 C   0  0  0  0  0  0  0  0  0  0  0  0
   -0.5488    2.0623    6.6915 C   0  0  0  0  0  0  0  0  0  0  0  0
    0.6501    2.5471    6.1442 C   0  0  0  0  0  0  0  0  0  0  0  0
    1.0756    3.8960    6.2866 C   0  0  0  0  0  0  0  0  0  0  0  0
    3.3027    2.6488    4.4019 C   0  0  0  0  0  0  0  0  0  0  0  0
    2.3847    2.2499    3.6915 O   0  0  0  0  0  0  0  0  0  0  0  0
    4.4800    0.7519    5.5187 C   0  0  0  0  0  0  0  0  0  0  0  0
    4.1611    0.9690    6.8775 C   0  0  0  0  0  0  0  0  0  0  0  0
    3.8970   -0.1028    7.7332 C   0  0  0  0  0  0  0  0  0  0  0  0
    3.4374    0.2046    9.3617 Cl  0  0  0  0  0  0  0  0  0  0  0  0
    3.9707   -1.4099    7.2682 C   0  0  0  0  0  0  0  0  0  0  0  0
    4.2928   -1.6479    5.9312 C   0  0  0  0  0  0  0  0  0  0  0  0
    4.5266   -0.5780    5.0514 C   0  0  0  0  0  0  0  0  0  0  0  0
    4.6820   -0.8926    3.5997 C   0  0  0  0  0  0  0  0  0  0  0  0
    4.7507   -2.0522    3.2056 O   0  0  0  0  0  0  0  0  0  0  0  0
    7.9945   -2.7805    0.5694 H   0  0  0  0  0  0  0  0  0  0  0  0
    8.4493   -1.0735    0.2710 H   0  0  0  0  0  0  0  0  0  0  0  0
    7.4023   -1.9289   -0.8893 H   0  0  0  0  0  0  0  0  0  0  0  0
    6.1047   -1.9737    1.6369 H   0  0  0  0  0  0  0  0  0  0  0  0
    3.8500   -0.8768    1.1432 H   0  0  0  0  0  0  0  0  0  0  0  0
    4.0053    0.8649    0.8938 H   0  0  0  0  0  0  0  0  0  0  0  0
    5.0310    2.2271    2.4264 H   0  0  0  0  0  0  0  0  0  0  0  0
    6.2928    1.3180    3.2716 H   0  0  0  0  0  0  0  0  0  0  0  0
    6.3657    3.3002    4.3784 H   0  0  0  0  0  0  0  0  0  0  0  0
    6.0061    2.8271    6.0507 H   0  0  0  0  0  0  0  0  0  0  0  0
    3.2370    6.4675    5.6031 H   0  0  0  0  0  0  0  0  0  0  0  0
    0.0505    6.6064    8.1135 H   0  0  0  0  0  0  0  0  0  0  0  0
   -1.5843    4.8345    8.2983 H   0  0  0  0  0  0  0  0  0  0  0  0
   -2.2932    2.5220    7.8613 H   0  0  0  0  0  0  0  0  0  0  0  0
   -0.8456    1.0301    6.5117 H   0  0  0  0  0  0  0  0  0  0  0  0
    1.2171    1.8219    5.5728 H   0  0  0  0  0  0  0  0  0  0  0  0
    4.0699    1.9759    7.2811 H   0  0  0  0  0  0  0  0  0  0  0  0
    3.7502   -2.2451    7.9285 H   0  0  0  0  0  0  0  0  0  0  0  0
    4.3123   -2.6736    5.5652 H   0  0  0  0  0  0  0  0  0  0  0  0
  1  2  1  0  0  0  0
  1 34  1  0  0  0  0
  1 35  1  0  0  0  0
  1 36  1  0  0  0  0
  2  3  1  0  0  0  0
  2 37  1  0  0  0  0
  3  4  2  0  0  0  0
  3  5  1  0  0  0  0
  5  6  1  0  0  0  0
  5 38  1  0  0  0  0
  5 39  1  0  0  0  0
  6  7  1  0  0  0  0
  6 32  1  0  0  0  0
  7  8  1  0  0  0  0
  7 40  1  0  0  0  0
  7 41  1  0  0  0  0
  8  9  1  0  0  0  0
  8 23  1  0  0  0  0
  8 25  1  0  0  0  0
  9 10  1  0  0  0  0
  9 42  1  0  0  0  0
  9 43  1  0  0  0  0
 10 11  2  0  0  0  0
 10 12  1  0  0  0  0
 12 13  1  0  0  0  0
 12 23  1  0  0  0  0
 13 14  1  0  0  0  0
 13 22  2  0  0  0  0
 14 15  2  0  0  0  0
 14 44  1  0  0  0  0
 15 16  1  0  0  0  0
 16 17  2  0  0  0  0
 16 45  1  0  0  0  0
 17 18  1  0  0  0  0
 17 22  1  0  0  0  0
 18 19  2  0  0  0  0
 18 46  1  0  0  0  0
 19 20  1  0  0  0  0
 19 47  1  0  0  0  0
 20 21  2  0  0  0  0
 20 48  1  0  0  0  0
 21 22  1  0  0  0  0
 21 49  1  0  0  0  0
 23 24  2  0  0  0  0
 25 26  1  0  0  0  0
 25 31  2  0  0  0  0
 26 27  2  0  0  0  0
 26 50  1  0  0  0  0
 27 28  1  0  0  0  0
 27 29  1  0  0  0  0
 29 30  2  0  0  0  0
 29 51  1  0  0  0  0
 30 31  1  0  0  0  0
 30 52  1  0  0  0  0
 31 32  1  0  0  0  0
 32 33  2  0  0  0  0
M  END
$$$$
