
 OpenBabel07202414193D

 43 46  0  0  1  0  0  0  0  0999 V2000
    2.3504   -1.0052   -1.0501 O   0  0  0  0  0  0  0  0  0  0  0  0
    2.2752    0.0391   -0.3989 C   0  0  0  0  0  0  0  0  0  0  0  0
    1.1484    0.2162    0.6127 C   0  0  0  0  0  0  0  0  0  0  0  0
   -0.0030    1.0737    0.1380 C   0  0  0  0  0  0  0  0  0  0  0  0
   -0.3968    1.0209   -1.2016 C   0  0  0  0  0  0  0  0  0  0  0  0
   -1.3643    1.7845   -1.7435 N   0  0  0  0  0  0  0  0  0  0  0  0
   -1.9918    2.6427   -0.9133 C   0  0  0  0  0  0  0  0  0  0  0  0
   -1.7200    2.7686    0.4484 C   0  0  0  0  0  0  0  0  0  0  0  0
   -2.4160    3.6926    1.2490 C   0  0  0  0  0  0  0  0  0  0  0  0
   -2.1453    3.8005    2.6103 C   0  0  0  0  0  0  0  0  0  0  0  0
   -1.1944    2.9707    3.1889 C   0  0  0  0  0  0  0  0  0  0  0  0
   -0.4949    2.0521    2.4003 C   0  0  0  0  0  0  0  0  0  0  0  0
   -0.7194    1.9425    1.0062 C   0  0  0  0  0  0  0  0  0  0  0  0
    3.2173    1.0571   -0.5141 N   0  0  0  0  0  0  0  0  0  0  0  0
    4.3432    0.8704   -1.4253 C   0  0  0  0  0  0  0  0  0  0  0  0
    5.6220    1.4205   -0.8016 C   0  0  0  0  0  0  0  0  0  0  0  0
    5.4656    2.8892   -0.4084 C   0  0  0  0  0  0  0  0  0  0  0  0
    4.2232    3.1189    0.4664 C   0  0  1  0  0  0  0  0  0  0  0  0
    3.9682    4.5706    0.6732 C   0  0  0  0  0  0  0  0  0  0  0  0
    3.8828    5.3975    1.7695 C   0  0  0  0  0  0  0  0  0  0  0  0
    3.5781    6.6743    1.3701 N   0  0  0  0  0  0  0  0  0  0  0  0
    3.4876    6.5772    0.0641 C   0  0  0  0  0  0  0  0  0  0  0  0
    3.7121    5.3313   -0.4369 O   0  0  0  0  0  0  0  0  0  0  0  0
    2.9740    2.4484   -0.1260 C   0  0  0  0  0  0  0  0  0  0  0  0
    1.6128    0.6092    1.5231 H   0  0  0  0  0  0  0  0  0  0  0  0
    0.7627   -0.7768    0.8745 H   0  0  0  0  0  0  0  0  0  0  0  0
    0.0822    0.3484   -1.9109 H   0  0  0  0  0  0  0  0  0  0  0  0
   -2.7583    3.2474   -1.3919 H   0  0  0  0  0  0  0  0  0  0  0  0
   -3.1723    4.3403    0.8109 H   0  0  0  0  0  0  0  0  0  0  0  0
   -2.6814    4.5249    3.2180 H   0  0  0  0  0  0  0  0  0  0  0  0
   -0.9940    3.0351    4.2556 H   0  0  0  0  0  0  0  0  0  0  0  0
    0.2253    1.4141    2.9052 H   0  0  0  0  0  0  0  0  0  0  0  0
    4.1086    1.3958   -2.3594 H   0  0  0  0  0  0  0  0  0  0  0  0
    4.4821   -0.1875   -1.6697 H   0  0  0  0  0  0  0  0  0  0  0  0
    6.4560    1.3132   -1.5038 H   0  0  0  0  0  0  0  0  0  0  0  0
    5.8718    0.8330    0.0909 H   0  0  0  0  0  0  0  0  0  0  0  0
    5.4106    3.4953   -1.3216 H   0  0  0  0  0  0  0  0  0  0  0  0
    6.3633    3.2194    0.1296 H   0  0  0  0  0  0  0  0  0  0  0  0
    4.4160    2.6540    1.4437 H   0  0  0  0  0  0  0  0  0  0  0  0
    4.0126    5.1454    2.8127 H   0  0  0  0  0  0  0  0  0  0  0  0
    3.2558    7.3512   -0.6534 H   0  0  0  0  0  0  0  0  0  0  0  0
    2.6345    2.9678   -1.0322 H   0  0  0  0  0  0  0  0  0  0  0  0
    2.1610    2.5280    0.5963 H   0  0  0  0  0  0  0  0  0  0  0  0
  1  2  2  0  0  0  0
  2  3  1  0  0  0  0
  2 14  1  0  0  0  0
  3  4  1  0  0  0  0
  3 25  1  0  0  0  0
  3 26  1  0  0  0  0
  4  5  1  0  0  0  0
  4 13  2  0  0  0  0
  5  6  2  0  0  0  0
  5 27  1  0  0  0  0
  6  7  1  0  0  0  0
  7  8  2  0  0  0  0
  7 28  1  0  0  0  0
  8  9  1  0  0  0  0
  8 13  1  0  0  0  0
  9 10  2  0  0  0  0
  9 29  1  0  0  0  0
 10 11  1  0  0  0  0
 10 30  1  0  0  0  0
 11 12  2  0  0  0  0
 11 31  1  0  0  0  0
 12 13  1  0  0  0  0
 12 32  1  0  0  0  0
 14 15  1  0  0  0  0
 14 24  1  0  0  0  0
 15 16  1  0  0  0  0
 15 33  1  0  0  0  0
 15 34  1  0  0  0  0
 16 17  1  0  0  0  0
 16 35  1  0  0  0  0
 16 36  1  0  0  0  0
 17 18  1  0  0  0  0
 17 37  1  0  0  0  0
 17 38  1  0  0  0  0
 18 19  1  0  0  0  0
 18 24  1  0  0  0  0
 18 39  1  1  0  0  0
 19 20  2  0  0  0  0
 19 23  1  0  0  0  0
 20 21  1  0  0  0  0
 20 40  1  0  0  0  0
 21 22  2  0  0  0  0
 22 23  1  0  0  0  0
 22 41  1  0  0  0  0
 24 42  1  0  0  0  0
 24 43  1  0  0  0  0
M  END
$$$$
