
 OpenBabel07202414173D

 64 70  0  0  1  0  0  0  0  0999 V2000
    0.8918    0.5026   -0.1739 Cl  0  0  0  0  0  0  0  0  0  0  0  0
    2.6042    0.3625   -0.1601 C   0  0  0  0  0  0  0  0  0  0  0  0
    3.4054    1.4958   -0.0872 C   0  0  0  0  0  0  0  0  0  0  0  0
    4.7963    1.3585    0.0102 C   0  0  0  0  0  0  0  0  0  0  0  0
    5.4000    0.0902    0.0378 C   0  0  0  0  0  0  0  0  0  0  0  0
    4.5906   -1.0528   -0.0994 C   0  0  0  0  0  0  0  0  0  0  0  0
    3.1868   -0.8971   -0.1807 C   0  0  0  0  0  0  0  0  0  0  0  0
    5.1857   -2.4449    0.0227 C   0  0  3  0  0  0  0  0  0  0  0  0
    6.7113   -2.4228   -0.1192 C   0  0  0  0  0  0  0  0  0  0  0  0
    7.3965   -1.2886    0.4680 N   0  0  0  0  0  0  0  0  0  0  0  0
    8.8134   -1.4503    0.8562 C   0  0  0  0  0  0  0  0  0  0  0  0
    9.1593   -1.1609    2.3161 C   0  0  0  0  0  0  0  0  0  0  0  0
    9.8997   -0.2296    2.6161 O   0  0  0  0  0  0  0  0  0  0  0  0
    8.7074   -2.0153    3.2976 N   0  0  0  0  0  0  0  0  0  0  0  0
    7.7132   -3.0457    3.1677 C   0  0  0  0  0  0  0  0  0  0  0  0
    8.3028   -4.3781    2.8335 C   0  0  0  0  0  0  0  0  0  0  0  0
    7.4046   -5.4884    2.3247 C   0  0  0  0  0  0  0  0  0  0  0  0
    8.0040   -5.5764    3.6968 C   0  0  0  0  0  0  0  0  0  0  0  0
    9.8509   -1.0815   -0.2075 C   0  0  0  0  0  0  0  0  0  0  0  0
    9.7253   -2.5069    0.2012 C   0  0  0  0  0  0  0  0  0  0  0  0
    6.8601   -0.0048    0.3386 C   0  0  0  0  0  0  0  0  0  0  0  0
    7.5135    1.0223    0.4791 O   0  0  0  0  0  0  0  0  0  0  0  0
    4.6741   -3.4233   -1.0437 C   0  0  0  0  0  0  0  0  0  0  0  0
    3.7885   -4.4135   -0.3280 C   0  0  0  0  0  0  0  0  0  0  0  0
    3.7057   -4.0309    1.0451 N   0  0  0  0  0  0  0  0  0  0  0  0
    2.7798   -4.6114    1.9902 C   0  0  0  0  0  0  0  0  0  0  0  0
    2.6678   -4.0430    3.2733 C   0  0  0  0  0  0  0  0  0  0  0  0
    1.9227   -4.5202    4.2950 N   0  0  0  0  0  0  0  0  0  0  0  0
    1.1650   -5.5913    4.0256 C   0  0  0  0  0  0  0  0  0  0  0  0
    1.0567   -6.1774    2.7685 C   0  0  0  0  0  0  0  0  0  0  0  0
    0.1037   -7.1941    2.5847 C   0  0  0  0  0  0  0  0  0  0  0  0
   -0.0826   -7.7881    1.3459 C   0  0  0  0  0  0  0  0  0  0  0  0
    0.7378   -7.4219    0.3012 C   0  0  0  0  0  0  0  0  0  0  0  0
    1.7102   -6.4368    0.4880 C   0  0  0  0  0  0  0  0  0  0  0  0
    1.8920   -5.7239    1.7140 C   0  0  0  0  0  0  0  0  0  0  0  0
    4.6421   -3.0273    1.3373 C   0  0  0  0  0  0  0  0  0  0  0  0
    4.8957   -2.5586    2.4373 O   0  0  0  0  0  0  0  0  0  0  0  0
    2.9562    2.4839   -0.0656 H   0  0  0  0  0  0  0  0  0  0  0  0
    5.4095    2.2536    0.1138 H   0  0  0  0  0  0  0  0  0  0  0  0
    2.5307   -1.7670   -0.1919 H   0  0  0  0  0  0  0  0  0  0  0  0
    6.9727   -2.3651   -1.1870 H   0  0  0  0  0  0  0  0  0  0  0  0
    7.1401   -3.3573    0.2602 H   0  0  0  0  0  0  0  0  0  0  0  0
    8.9341   -1.7018    4.2323 H   0  0  0  0  0  0  0  0  0  0  0  0
    7.0559   -2.7541    2.3708 H   0  0  0  0  0  0  0  0  0  0  0  0
    7.1228   -3.0743    4.0882 H   0  0  0  0  0  0  0  0  0  0  0  0
    9.2798   -4.3078    2.3766 H   0  0  0  0  0  0  0  0  0  0  0  0
    7.7948   -6.1513    1.5600 H   0  0  0  0  0  0  0  0  0  0  0  0
    6.3339   -5.3277    2.2648 H   0  0  0  0  0  0  0  0  0  0  0  0
    8.8050   -6.2866    3.8618 H   0  0  0  0  0  0  0  0  0  0  0  0
    7.3367   -5.4553    4.5432 H   0  0  0  0  0  0  0  0  0  0  0  0
   10.7284   -0.5246    0.1087 H   0  0  0  0  0  0  0  0  0  0  0  0
    9.5045   -0.8097   -1.1993 H   0  0  0  0  0  0  0  0  0  0  0  0
   10.5399   -2.9209    0.7940 H   0  0  0  0  0  0  0  0  0  0  0  0
    9.3227   -3.2108   -0.5127 H   0  0  0  0  0  0  0  0  0  0  0  0
    5.4841   -3.9813   -1.5331 H   0  0  0  0  0  0  0  0  0  0  0  0
    4.1345   -2.9258   -1.8570 H   0  0  0  0  0  0  0  0  0  0  0  0
    4.2445   -5.4093   -0.3767 H   0  0  0  0  0  0  0  0  0  0  0  0
    2.8044   -4.3813   -0.7970 H   0  0  0  0  0  0  0  0  0  0  0  0
    3.1568   -3.1146    3.5505 H   0  0  0  0  0  0  0  0  0  0  0  0
    0.6053   -5.9650    4.8798 H   0  0  0  0  0  0  0  0  0  0  0  0
   -0.5386   -7.5051    3.4062 H   0  0  0  0  0  0  0  0  0  0  0  0
   -0.8580   -8.5337    1.2016 H   0  0  0  0  0  0  0  0  0  0  0  0
    0.6208   -7.8866   -0.6771 H   0  0  0  0  0  0  0  0  0  0  0  0
    2.3143   -6.2559   -0.3871 H   0  0  0  0  0  0  0  0  0  0  0  0
  1  2  1  0  0  0  0
  2  3  1  0  0  0  0
  2  7  2  0  0  0  0
  3  4  2  0  0  0  0
  3 38  1  0  0  0  0
  4  5  1  0  0  0  0
  4 39  1  0  0  0  0
  5  6  2  0  0  0  0
  5 21  1  0  0  0  0
  6  7  1  0  0  0  0
  6  8  1  0  0  0  0
  7 40  1  0  0  0  0
  8  9  1  0  0  0  0
  8 23  1  0  0  0  0
  8 36  1  0  0  0  0
  9 10  1  0  0  0  0
  9 41  1  0  0  0  0
  9 42  1  0  0  0  0
 10 11  1  0  0  0  0
 10 21  1  0  0  0  0
 11 12  1  0  0  0  0
 11 19  1  0  0  0  0
 11 20  1  0  0  0  0
 12 13  2  0  0  0  0
 12 14  1  0  0  0  0
 14 15  1  0  0  0  0
 14 43  1  0  0  0  0
 15 16  1  0  0  0  0
 15 44  1  0  0  0  0
 15 45  1  0  0  0  0
 16 17  1  0  0  0  0
 16 18  1  0  0  0  0
 16 46  1  0  0  0  0
 17 18  1  0  0  0  0
 17 47  1  0  0  0  0
 17 48  1  0  0  0  0
 18 49  1  0  0  0  0
 18 50  1  0  0  0  0
 19 20  1  0  0  0  0
 19 51  1  0  0  0  0
 19 52  1  0  0  0  0
 20 53  1  0  0  0  0
 20 54  1  0  0  0  0
 21 22  2  0  0  0  0
 23 24  1  0  0  0  0
 23 55  1  0  0  0  0
 23 56  1  0  0  0  0
 24 25  1  0  0  0  0
 24 57  1  0  0  0  0
 24 58  1  0  0  0  0
 25 26  1  0  0  0  0
 25 36  1  0  0  0  0
 26 27  1  0  0  0  0
 26 35  2  0  0  0  0
 27 28  2  0  0  0  0
 27 59  1  0  0  0  0
 28 29  1  0  0  0  0
 29 30  2  0  0  0  0
 29 60  1  0  0  0  0
 30 31  1  0  0  0  0
 30 35  1  0  0  0  0
 31 32  2  0  0  0  0
 31 61  1  0  0  0  0
 32 33  1  0  0  0  0
 32 62  1  0  0  0  0
 33 34  2  0  0  0  0
 33 63  1  0  0  0  0
 34 35  1  0  0  0  0
 34 64  1  0  0  0  0
 36 37  2  0  0  0  0
M  END
$$$$
