
 OpenBabel07202414143D

 57 60  0  0  1  0  0  0  0  0999 V2000
    1.1029    0.1945   -0.0233 C   0  0  0  0  0  0  0  0  0  0  0  0
    2.5048    0.0663    0.2674 O   0  0  0  0  0  0  0  0  0  0  0  0
    3.1608    1.2597    0.4029 C   0  0  0  0  0  0  0  0  0  0  0  0
    2.6276    2.3607    0.2609 O   0  0  0  0  0  0  0  0  0  0  0  0
    4.6072    1.0322    0.7975 C   0  0  0  0  0  0  0  0  0  0  0  0
    5.1970    2.1403    1.6443 N   0  0  0  0  0  0  0  0  0  0  0  0
    4.4283    2.3209    2.8837 C   0  0  0  0  0  0  0  0  0  0  0  0
    6.8881    1.9959    1.7729 S   0  0  0  0  0  0  0  0  0  0  0  0
    7.1696    0.7479    2.4572 O   0  0  0  0  0  0  0  0  0  0  0  0
    7.4354    2.2491    0.4718 O   0  0  0  0  0  0  0  0  0  0  0  0
    7.3805    3.2528    2.7969 N   0  0  0  0  0  0  0  0  0  0  0  0
    7.2442    3.0601    4.2693 C   0  0  0  0  0  0  0  0  0  0  0  0
    7.9621    4.1257    5.1050 C   0  0  3  0  0  0  0  0  0  0  0  0
    9.4701    3.9056    5.3481 C   0  0  0  0  0  0  0  0  0  0  0  0
   10.0072    4.3538    6.3577 O   0  0  0  0  0  0  0  0  0  0  0  0
   10.1077    3.1941    4.3590 N   0  0  0  0  0  0  0  0  0  0  0  0
   11.4792    2.8321    4.2791 C   0  0  0  0  0  0  0  0  0  0  0  0
   12.4263    3.1719    5.2463 C   0  0  0  0  0  0  0  0  0  0  0  0
   13.7586    3.1715    5.0036 N   0  0  0  0  0  0  0  0  0  0  0  0
   14.1551    2.6845    3.8124 C   0  0  0  0  0  0  0  0  0  0  0  0
   13.3219    2.0003    2.9292 C   0  0  0  0  0  0  0  0  0  0  0  0
   13.8264    1.2057    1.8832 C   0  0  0  0  0  0  0  0  0  0  0  0
   12.9657    0.5704    0.9923 C   0  0  0  0  0  0  0  0  0  0  0  0
   11.5964    0.7700    1.1061 C   0  0  0  0  0  0  0  0  0  0  0  0
   11.0891    1.5352    2.1620 C   0  0  0  0  0  0  0  0  0  0  0  0
   11.9331    2.1346    3.1302 C   0  0  0  0  0  0  0  0  0  0  0  0
    7.6225    5.5171    4.6145 C   0  0  0  0  0  0  0  0  0  0  0  0
    7.6290    6.5946    5.5176 C   0  0  0  0  0  0  0  0  0  0  0  0
    7.3278    7.8827    5.0809 C   0  0  0  0  0  0  0  0  0  0  0  0
    7.3074    9.1851    6.2040 Cl  0  0  0  0  0  0  0  0  0  0  0  0
    7.0293    8.1194    3.7438 C   0  0  0  0  0  0  0  0  0  0  0  0
    6.9823    7.0515    2.8470 C   0  0  0  0  0  0  0  0  0  0  0  0
    7.2559    5.7402    3.2750 C   0  0  0  0  0  0  0  0  0  0  0  0
    7.0536    4.6094    2.2886 C   0  0  0  0  0  0  0  0  0  0  0  0
    0.7027   -0.8109   -0.2117 H   0  0  0  0  0  0  0  0  0  0  0  0
    0.9458    0.8010   -0.9123 H   0  0  0  0  0  0  0  0  0  0  0  0
    0.5790    0.6152    0.8389 H   0  0  0  0  0  0  0  0  0  0  0  0
    5.1750    0.9142   -0.1364 H   0  0  0  0  0  0  0  0  0  0  0  0
    4.6687    0.1012    1.3720 H   0  0  0  0  0  0  0  0  0  0  0  0
    3.3650    2.1080    2.7550 H   0  0  0  0  0  0  0  0  0  0  0  0
    4.4854    3.3688    3.1962 H   0  0  0  0  0  0  0  0  0  0  0  0
    4.7922    1.6597    3.6726 H   0  0  0  0  0  0  0  0  0  0  0  0
    7.6203    2.0679    4.5470 H   0  0  0  0  0  0  0  0  0  0  0  0
    6.1897    3.1046    4.5411 H   0  0  0  0  0  0  0  0  0  0  0  0
    7.5294    4.0181    6.1113 H   0  0  0  0  0  0  0  0  0  0  0  0
    9.5888    3.0833    3.4985 H   0  0  0  0  0  0  0  0  0  0  0  0
   12.1626    3.4994    6.2431 H   0  0  0  0  0  0  0  0  0  0  0  0
   15.1890    2.8955    3.5528 H   0  0  0  0  0  0  0  0  0  0  0  0
   14.8987    1.0250    1.7958 H   0  0  0  0  0  0  0  0  0  0  0  0
   13.3547   -0.0811    0.2144 H   0  0  0  0  0  0  0  0  0  0  0  0
   10.9120    0.3133    0.3979 H   0  0  0  0  0  0  0  0  0  0  0  0
   10.0091    1.6077    2.2313 H   0  0  0  0  0  0  0  0  0  0  0  0
    7.8578    6.4242    6.5686 H   0  0  0  0  0  0  0  0  0  0  0  0
    6.8147    9.1265    3.3968 H   0  0  0  0  0  0  0  0  0  0  0  0
    6.7091    7.2465    1.8110 H   0  0  0  0  0  0  0  0  0  0  0  0
    7.6674    4.8095    1.4019 H   0  0  0  0  0  0  0  0  0  0  0  0
    5.9995    4.6428    1.9888 H   0  0  0  0  0  0  0  0  0  0  0  0
  1  2  1  0  0  0  0
  1 35  1  0  0  0  0
  1 36  1  0  0  0  0
  1 37  1  0  0  0  0
  2  3  1  0  0  0  0
  3  4  2  0  0  0  0
  3  5  1  0  0  0  0
  5  6  1  0  0  0  0
  5 38  1  0  0  0  0
  5 39  1  0  0  0  0
  6  7  1  0  0  0  0
  6  8  1  0  0  0  0
  7 40  1  0  0  0  0
  7 41  1  0  0  0  0
  7 42  1  0  0  0  0
  8  9  2  0  0  0  0
  8 10  2  0  0  0  0
  8 11  1  0  0  0  0
 11 12  1  0  0  0  0
 11 34  1  0  0  0  0
 12 13  1  0  0  0  0
 12 43  1  0  0  0  0
 12 44  1  0  0  0  0
 13 14  1  0  0  0  0
 13 27  1  0  0  0  0
 13 45  1  0  0  0  0
 14 15  2  0  0  0  0
 14 16  1  0  0  0  0
 16 17  1  0  0  0  0
 16 46  1  0  0  0  0
 17 18  1  0  0  0  0
 17 26  2  0  0  0  0
 18 19  2  0  0  0  0
 18 47  1  0  0  0  0
 19 20  1  0  0  0  0
 20 21  2  0  0  0  0
 20 48  1  0  0  0  0
 21 22  1  0  0  0  0
 21 26  1  0  0  0  0
 22 23  2  0  0  0  0
 22 49  1  0  0  0  0
 23 24  1  0  0  0  0
 23 50  1  0  0  0  0
 24 25  2  0  0  0  0
 24 51  1  0  0  0  0
 25 26  1  0  0  0  0
 25 52  1  0  0  0  0
 27 28  1  0  0  0  0
 27 33  2  0  0  0  0
 28 29  2  0  0  0  0
 28 53  1  0  0  0  0
 29 30  1  0  0  0  0
 29 31  1  0  0  0  0
 31 32  2  0  0  0  0
 31 54  1  0  0  0  0
 32 33  1  0  0  0  0
 32 55  1  0  0  0  0
 33 34  1  0  0  0  0
 34 56  1  0  0  0  0
 34 57  1  0  0  0  0
M  END
$$$$
