
 OpenBabel07202414143D

 53 57  0  0  1  0  0  0  0  0999 V2000
    8.0100    1.1459    0.7104 C   0  0  0  0  0  0  0  0  0  0  0  0
    6.9005    0.9160   -0.1804 N   0  0  0  0  0  0  0  0  0  0  0  0
    5.5952    0.9535    0.2517 C   0  0  0  0  0  0  0  0  0  0  0  0
    5.2886    1.1448    1.4230 O   0  0  0  0  0  0  0  0  0  0  0  0
    4.5262    0.6939   -0.8191 C   0  0  0  0  0  0  0  0  0  0  0  0
    4.8983    1.2087   -2.1578 N   0  0  0  0  0  0  0  0  0  0  0  0
    5.0063    2.6748   -2.1865 C   0  0  0  0  0  0  0  0  0  0  0  0
    3.7022    3.4288   -2.3270 C   0  0  0  0  0  0  0  0  0  0  0  0
    3.6871    4.7901   -1.9608 C   0  0  0  0  0  0  0  0  0  0  0  0
    2.5449    5.5724   -2.1136 C   0  0  0  0  0  0  0  0  0  0  0  0
    1.4027    4.9953   -2.6521 C   0  0  0  0  0  0  0  0  0  0  0  0
   -0.0221    5.9371   -2.8470 Cl  0  0  0  0  0  0  0  0  0  0  0  0
    1.4082    3.6559   -3.0342 C   0  0  0  0  0  0  0  0  0  0  0  0
    2.5456    2.8418   -2.8797 C   0  0  0  0  0  0  0  0  0  0  0  0
    2.5366    1.3528   -3.2643 C   0  0  3  0  0  0  0  0  0  0  0  0
    1.9429    1.1016   -4.6673 C   0  0  0  0  0  0  0  0  0  0  0  0
    0.5649    0.5720   -4.4019 C   0  0  0  0  0  0  0  0  0  0  0  0
   -0.1217    0.0502   -5.2695 O   0  0  0  0  0  0  0  0  0  0  0  0
    0.3031    0.6602   -3.0630 N   0  0  0  0  0  0  0  0  0  0  0  0
   -0.9889    0.3879   -2.5285 C   0  0  0  0  0  0  0  0  0  0  0  0
   -1.1627   -0.4458   -1.4253 C   0  0  0  0  0  0  0  0  0  0  0  0
   -2.3661   -0.8342   -0.9412 N   0  0  0  0  0  0  0  0  0  0  0  0
   -3.4580   -0.3116   -1.5371 C   0  0  0  0  0  0  0  0  0  0  0  0
   -3.4243    0.6454   -2.5460 C   0  0  0  0  0  0  0  0  0  0  0  0
   -4.6125    1.2505   -3.0054 C   0  0  0  0  0  0  0  0  0  0  0  0
   -4.5783    2.2635   -3.9590 C   0  0  0  0  0  0  0  0  0  0  0  0
   -3.3587    2.6661   -4.4783 C   0  0  0  0  0  0  0  0  0  0  0  0
   -2.1792    2.0474   -4.0496 C   0  0  0  0  0  0  0  0  0  0  0  0
   -2.1633    1.0163   -3.0688 C   0  0  0  0  0  0  0  0  0  0  0  0
    1.5109    0.5813   -2.4132 C   0  0  0  0  0  0  0  0  0  0  0  0
    1.7554   -0.0143   -1.3750 O   0  0  0  0  0  0  0  0  0  0  0  0
    3.9699    0.7457   -3.2113 C   0  0  0  0  0  0  0  0  0  0  0  0
    8.7030    1.8417    0.2297 H   0  0  0  0  0  0  0  0  0  0  0  0
    8.5155    0.1945    0.8911 H   0  0  0  0  0  0  0  0  0  0  0  0
    7.6796    1.5687    1.6649 H   0  0  0  0  0  0  0  0  0  0  0  0
    7.0617    0.6941   -1.1573 H   0  0  0  0  0  0  0  0  0  0  0  0
    3.6028    1.1505   -0.4587 H   0  0  0  0  0  0  0  0  0  0  0  0
    4.4047   -0.3957   -0.8640 H   0  0  0  0  0  0  0  0  0  0  0  0
    5.6355    2.9517   -3.0423 H   0  0  0  0  0  0  0  0  0  0  0  0
    5.5392    3.0405   -1.3007 H   0  0  0  0  0  0  0  0  0  0  0  0
    4.5871    5.2528   -1.5511 H   0  0  0  0  0  0  0  0  0  0  0  0
    2.5546    6.6146   -1.8159 H   0  0  0  0  0  0  0  0  0  0  0  0
    0.4854    3.2652   -3.4515 H   0  0  0  0  0  0  0  0  0  0  0  0
    2.4940    0.3367   -5.2261 H   0  0  0  0  0  0  0  0  0  0  0  0
    1.8641    2.0047   -5.2829 H   0  0  0  0  0  0  0  0  0  0  0  0
   -0.3295   -0.8843   -0.8853 H   0  0  0  0  0  0  0  0  0  0  0  0
   -4.4026   -0.6809   -1.1431 H   0  0  0  0  0  0  0  0  0  0  0  0
   -5.5764    0.9578   -2.5921 H   0  0  0  0  0  0  0  0  0  0  0  0
   -5.4973    2.7441   -4.2845 H   0  0  0  0  0  0  0  0  0  0  0  0
   -3.3165    3.4664   -5.2140 H   0  0  0  0  0  0  0  0  0  0  0  0
   -1.2611    2.4141   -4.4942 H   0  0  0  0  0  0  0  0  0  0  0  0
    4.4714    0.9868   -4.1614 H   0  0  0  0  0  0  0  0  0  0  0  0
    3.9222   -0.3515   -3.1975 H   0  0  0  0  0  0  0  0  0  0  0  0
  1  2  1  0  0  0  0
  1 33  1  0  0  0  0
  1 34  1  0  0  0  0
  1 35  1  0  0  0  0
  2  3  1  0  0  0  0
  2 36  1  0  0  0  0
  3  4  2  0  0  0  0
  3  5  1  0  0  0  0
  5  6  1  0  0  0  0
  5 37  1  0  0  0  0
  5 38  1  0  0  0  0
  6  7  1  0  0  0  0
  6 32  1  0  0  0  0
  7  8  1  0  0  0  0
  7 39  1  0  0  0  0
  7 40  1  0  0  0  0
  8  9  1  0  0  0  0
  8 14  2  0  0  0  0
  9 10  2  0  0  0  0
  9 41  1  0  0  0  0
 10 11  1  0  0  0  0
 10 42  1  0  0  0  0
 11 12  1  0  0  0  0
 11 13  2  0  0  0  0
 13 14  1  0  0  0  0
 13 43  1  0  0  0  0
 14 15  1  0  0  0  0
 15 16  1  0  0  0  0
 15 30  1  0  0  0  0
 15 32  1  0  0  0  0
 16 17  1  0  0  0  0
 16 44  1  0  0  0  0
 16 45  1  0  0  0  0
 17 18  2  0  0  0  0
 17 19  1  0  0  0  0
 19 20  1  0  0  0  0
 19 30  1  0  0  0  0
 20 21  1  0  0  0  0
 20 29  2  0  0  0  0
 21 22  2  0  0  0  0
 21 46  1  0  0  0  0
 22 23  1  0  0  0  0
 23 24  2  0  0  0  0
 23 47  1  0  0  0  0
 24 25  1  0  0  0  0
 24 29  1  0  0  0  0
 25 26  2  0  0  0  0
 25 48  1  0  0  0  0
 26 27  1  0  0  0  0
 26 49  1  0  0  0  0
 27 28  2  0  0  0  0
 27 50  1  0  0  0  0
 28 29  1  0  0  0  0
 28 51  1  0  0  0  0
 30 31  2  0  0  0  0
 32 52  1  0  0  0  0
 32 53  1  0  0  0  0
M  END
$$$$
