
 OpenBabel07202414123D

 64 68  0  0  1  0  0  0  0  0999 V2000
    8.9821    6.0663   -0.8079 C   0  0  0  0  0  0  0  0  0  0  0  0
    7.6746    5.5313   -0.2138 C   0  0  0  0  0  0  0  0  0  0  0  0
    7.9655    4.3266    0.6946 C   0  0  0  0  0  0  0  0  0  0  0  0
    7.1305    6.5801    0.6033 O   0  0  0  0  0  0  0  0  0  0  0  0
    6.6178    5.1319   -1.2398 C   0  0  0  0  0  0  0  0  0  0  0  0
    6.9347    4.7021   -2.5321 C   0  0  0  0  0  0  0  0  0  0  0  0
    5.9293    4.2251   -3.3833 C   0  0  0  0  0  0  0  0  0  0  0  0
    4.5946    4.1322   -2.9464 C   0  0  0  0  0  0  0  0  0  0  0  0
    3.6111    3.5898   -3.7701 C   0  0  0  0  0  0  0  0  0  0  0  0
    2.3266    3.4175   -3.4041 N   0  0  0  0  0  0  0  0  0  0  0  0
    1.9986    3.8037   -2.1473 C   0  0  0  0  0  0  0  0  0  0  0  0
    2.8848    4.3786   -1.2327 C   0  0  0  0  0  0  0  0  0  0  0  0
    2.4788    4.7723    0.0746 N   0  0  0  0  0  0  0  0  0  0  0  0
    1.3831    4.2834    0.7607 C   0  0  0  0  0  0  0  0  0  0  0  0
    0.6381    3.3957    0.3460 O   0  0  0  0  0  0  0  0  0  0  0  0
    1.0803    4.9406    2.1066 C   0  0  3  0  0  0  0  0  0  0  0  0
    0.2415    6.2017    1.8697 C   0  0  0  0  0  0  0  0  0  0  0  0
    1.1217    7.3700    1.5207 N   0  0  0  0  0  0  0  0  0  0  0  0
    0.2062    8.7072    0.9296 S   0  0  0  0  0  0  0  0  0  0  0  0
   -0.5344    8.2423   -0.2225 O   0  0  0  0  0  0  0  0  0  0  0  0
   -0.4658    9.2634    2.0815 O   0  0  0  0  0  0  0  0  0  0  0  0
    1.4979    9.8137    0.3643 C   0  0  0  0  0  0  0  0  0  0  0  0
    0.8716   11.1005   -0.1166 C   0  0  0  0  0  0  0  0  0  0  0  0
    0.1264   11.8646    0.8619 C   0  0  0  0  0  0  0  0  0  0  0  0
   -0.4345   12.5207    1.6357 N   0  0  0  0  0  0  0  0  0  0  0  0
    1.7894   11.9301   -1.0120 C   0  0  0  0  0  0  0  0  0  0  0  0
    0.5433   11.3288   -1.5841 C   0  0  0  0  0  0  0  0  0  0  0  0
    1.9965    7.7054    2.6816 C   0  0  0  0  0  0  0  0  0  0  0  0
    2.7031    6.5076    3.2785 C   0  0  0  0  0  0  0  0  0  0  0  0
    3.7600    6.7260    4.1792 C   0  0  0  0  0  0  0  0  0  0  0  0
    4.3949    5.6526    4.8027 C   0  0  0  0  0  0  0  0  0  0  0  0
    3.9804    4.3535    4.5265 C   0  0  0  0  0  0  0  0  0  0  0  0
    4.7519    3.0322    5.3128 Cl  0  0  0  0  0  0  0  0  0  0  0  0
    2.9329    4.1179    3.6342 C   0  0  0  0  0  0  0  0  0  0  0  0
    2.2769    5.1928    3.0100 C   0  0  0  0  0  0  0  0  0  0  0  0
    4.2298    4.5610   -1.6539 C   0  0  0  0  0  0  0  0  0  0  0  0
    5.2644    5.0829   -0.8394 C   0  0  0  0  0  0  0  0  0  0  0  0
    9.6592    6.4006   -0.0126 H   0  0  0  0  0  0  0  0  0  0  0  0
    8.7954    6.9391   -1.4441 H   0  0  0  0  0  0  0  0  0  0  0  0
    9.5130    5.3121   -1.3976 H   0  0  0  0  0  0  0  0  0  0  0  0
    8.6146    4.6115    1.5300 H   0  0  0  0  0  0  0  0  0  0  0  0
    8.4452    3.5106    0.1431 H   0  0  0  0  0  0  0  0  0  0  0  0
    7.0455    3.9329    1.1445 H   0  0  0  0  0  0  0  0  0  0  0  0
    7.7751    6.7596    1.3084 H   0  0  0  0  0  0  0  0  0  0  0  0
    7.9570    4.6999   -2.8960 H   0  0  0  0  0  0  0  0  0  0  0  0
    6.2121    3.8866   -4.3799 H   0  0  0  0  0  0  0  0  0  0  0  0
    3.8371    3.2422   -4.7748 H   0  0  0  0  0  0  0  0  0  0  0  0
    0.9497    3.6504   -1.9133 H   0  0  0  0  0  0  0  0  0  0  0  0
    3.1068    5.3684    0.5954 H   0  0  0  0  0  0  0  0  0  0  0  0
    0.4363    4.2279    2.6427 H   0  0  0  0  0  0  0  0  0  0  0  0
   -0.3193    6.4443    2.7832 H   0  0  0  0  0  0  0  0  0  0  0  0
   -0.4866    6.0182    1.0722 H   0  0  0  0  0  0  0  0  0  0  0  0
    2.0411    9.2923   -0.4309 H   0  0  0  0  0  0  0  0  0  0  0  0
    2.1694   10.0333    1.1955 H   0  0  0  0  0  0  0  0  0  0  0  0
    2.7389   11.5109   -1.3303 H   0  0  0  0  0  0  0  0  0  0  0  0
    1.8289   13.0045   -0.8581 H   0  0  0  0  0  0  0  0  0  0  0  0
    0.6440   10.5061   -2.2831 H   0  0  0  0  0  0  0  0  0  0  0  0
   -0.2600   12.0142   -1.8429 H   0  0  0  0  0  0  0  0  0  0  0  0
    1.4153    8.1891    3.4750 H   0  0  0  0  0  0  0  0  0  0  0  0
    2.7782    8.3889    2.3369 H   0  0  0  0  0  0  0  0  0  0  0  0
    4.0812    7.7388    4.4186 H   0  0  0  0  0  0  0  0  0  0  0  0
    5.1984    5.8375    5.5115 H   0  0  0  0  0  0  0  0  0  0  0  0
    2.6085    3.0950    3.4497 H   0  0  0  0  0  0  0  0  0  0  0  0
    5.0412    5.4241    0.1678 H   0  0  0  0  0  0  0  0  0  0  0  0
  1  2  1  0  0  0  0
  1 38  1  0  0  0  0
  1 39  1  0  0  0  0
  1 40  1  0  0  0  0
  2  3  1  0  0  0  0
  2  4  1  0  0  0  0
  2  5  1  0  0  0  0
  3 41  1  0  0  0  0
  3 42  1  0  0  0  0
  3 43  1  0  0  0  0
  4 44  1  0  0  0  0
  5  6  1  0  0  0  0
  5 37  2  0  0  0  0
  6  7  2  0  0  0  0
  6 45  1  0  0  0  0
  7  8  1  0  0  0  0
  7 46  1  0  0  0  0
  8  9  1  0  0  0  0
  8 36  2  0  0  0  0
  9 10  2  0  0  0  0
  9 47  1  0  0  0  0
 10 11  1  0  0  0  0
 11 12  2  0  0  0  0
 11 48  1  0  0  0  0
 12 13  1  0  0  0  0
 12 36  1  0  0  0  0
 13 14  1  0  0  0  0
 13 49  1  0  0  0  0
 14 15  2  0  0  0  0
 14 16  1  0  0  0  0
 16 17  1  0  0  0  0
 16 35  1  0  0  0  0
 16 50  1  0  0  0  0
 17 18  1  0  0  0  0
 17 51  1  0  0  0  0
 17 52  1  0  0  0  0
 18 19  1  0  0  0  0
 18 28  1  0  0  0  0
 19 20  2  0  0  0  0
 19 21  2  0  0  0  0
 19 22  1  0  0  0  0
 22 23  1  0  0  0  0
 22 53  1  0  0  0  0
 22 54  1  0  0  0  0
 23 24  1  0  0  0  0
 23 26  1  0  0  0  0
 23 27  1  0  0  0  0
 24 25  3  0  0  0  0
 26 27  1  0  0  0  0
 26 55  1  0  0  0  0
 26 56  1  0  0  0  0
 27 57  1  0  0  0  0
 27 58  1  0  0  0  0
 28 29  1  0  0  0  0
 28 59  1  0  0  0  0
 28 60  1  0  0  0  0
 29 30  1  0  0  0  0
 29 35  2  0  0  0  0
 30 31  2  0  0  0  0
 30 61  1  0  0  0  0
 31 32  1  0  0  0  0
 31 62  1  0  0  0  0
 32 33  1  0  0  0  0
 32 34  2  0  0  0  0
 34 35  1  0  0  0  0
 34 63  1  0  0  0  0
 36 37  1  0  0  0  0
 37 64  1  0  0  0  0
M  END
$$$$
