
 OpenBabel07202414133D

 56 60  0  0  0  0  0  0  0  0999 V2000
   -3.2198   -3.6097    3.9951 C   0  0  0  0  0  0  0  0  0  0  0  0
   -1.9992   -3.0755    4.6580 C   0  0  0  0  0  0  0  0  0  0  0  0
   -2.0428   -2.2586    5.6946 N   0  0  0  0  0  0  0  0  0  0  0  0
   -0.7605   -2.1478    6.1436 C   0  0  0  0  0  0  0  0  0  0  0  0
    0.0872   -2.8982    5.3692 C   0  0  0  0  0  0  0  0  0  0  0  0
   -0.6871   -3.4480    4.3663 N   0  0  0  0  0  0  0  0  0  0  0  0
   -0.1792   -4.2093    3.2762 C   0  0  0  0  0  0  0  0  0  0  0  0
    1.0039   -4.9490    3.4149 C   0  0  0  0  0  0  0  0  0  0  0  0
    1.5227   -5.6756    2.3309 C   0  0  0  0  0  0  0  0  0  0  0  0
    0.8632   -5.6882    1.0980 C   0  0  0  0  0  0  0  0  0  0  0  0
    1.4084   -6.4161    0.0147 N   0  0  0  0  0  0  0  0  0  0  0  0
    0.6784   -6.9676   -1.0666 C   0  0  0  0  0  0  0  0  0  0  0  0
    1.2006   -6.9591   -2.3747 C   0  0  0  0  0  0  0  0  0  0  0  0
    0.4501   -7.4635   -3.4537 C   0  0  0  0  0  0  0  0  0  0  0  0
    0.9657   -7.5520   -4.8734 C   0  0  0  0  0  0  0  0  0  0  0  0
    1.9338   -6.4854   -5.3328 C   0  0  0  0  0  0  0  0  0  0  0  0
    3.1248   -6.7368   -5.5010 O   0  0  0  0  0  0  0  0  0  0  0  0
    1.3482   -5.2423   -5.5533 N   0  0  0  0  0  0  0  0  0  0  0  0
    2.1694   -4.1726   -5.9981 C   0  0  0  0  0  0  0  0  0  0  0  0
    2.8867   -4.2893   -7.1913 C   0  0  0  0  0  0  0  0  0  0  0  0
    3.7551   -3.3633   -7.6534 N   0  0  0  0  0  0  0  0  0  0  0  0
    4.0285   -2.3458   -6.8106 C   0  0  0  0  0  0  0  0  0  0  0  0
    3.4468   -2.1811   -5.5514 C   0  0  0  0  0  0  0  0  0  0  0  0
    3.9298   -1.2360   -4.6309 C   0  0  0  0  0  0  0  0  0  0  0  0
    3.3232   -1.0846   -3.3857 C   0  0  0  0  0  0  0  0  0  0  0  0
    2.1734   -1.8048   -3.0848 C   0  0  0  0  0  0  0  0  0  0  0  0
    1.7070   -2.7725   -3.9749 C   0  0  0  0  0  0  0  0  0  0  0  0
    2.3899   -3.0411   -5.1832 C   0  0  0  0  0  0  0  0  0  0  0  0
   -0.8120   -8.0231   -3.1926 C   0  0  0  0  0  0  0  0  0  0  0  0
   -1.3131   -8.0705   -1.8959 C   0  0  0  0  0  0  0  0  0  0  0  0
   -2.8536   -8.7763   -1.5999 Cl  0  0  0  0  0  0  0  0  0  0  0  0
   -0.5743   -7.5548   -0.8408 C   0  0  0  0  0  0  0  0  0  0  0  0
   -0.2995   -4.9207    0.9627 C   0  0  0  0  0  0  0  0  0  0  0  0
   -0.8239   -4.1951    2.0362 C   0  0  0  0  0  0  0  0  0  0  0  0
   -4.0999   -3.3978    4.6121 H   0  0  0  0  0  0  0  0  0  0  0  0
   -3.1607   -4.6950    3.8748 H   0  0  0  0  0  0  0  0  0  0  0  0
   -3.3945   -3.1376    3.0259 H   0  0  0  0  0  0  0  0  0  0  0  0
   -0.5144   -1.5332    6.9993 H   0  0  0  0  0  0  0  0  0  0  0  0
    1.1565   -3.0193    5.4159 H   0  0  0  0  0  0  0  0  0  0  0  0
    1.5315   -5.0018    4.3666 H   0  0  0  0  0  0  0  0  0  0  0  0
    2.4229   -6.2677    2.4753 H   0  0  0  0  0  0  0  0  0  0  0  0
    2.3167   -6.0453   -0.2526 H   0  0  0  0  0  0  0  0  0  0  0  0
    2.2006   -6.5637   -2.5470 H   0  0  0  0  0  0  0  0  0  0  0  0
    0.1214   -7.5271   -5.5756 H   0  0  0  0  0  0  0  0  0  0  0  0
    1.4543   -8.5256   -5.0027 H   0  0  0  0  0  0  0  0  0  0  0  0
    0.6143   -5.0177   -4.8950 H   0  0  0  0  0  0  0  0  0  0  0  0
    2.7812   -5.1639   -7.8290 H   0  0  0  0  0  0  0  0  0  0  0  0
    4.7722   -1.6449   -7.1833 H   0  0  0  0  0  0  0  0  0  0  0  0
    4.8239   -0.6589   -4.8578 H   0  0  0  0  0  0  0  0  0  0  0  0
    3.7469   -0.4027   -2.6531 H   0  0  0  0  0  0  0  0  0  0  0  0
    1.6593   -1.6424   -2.1411 H   0  0  0  0  0  0  0  0  0  0  0  0
    0.8169   -3.3283   -3.6958 H   0  0  0  0  0  0  0  0  0  0  0  0
   -1.3995   -8.4505   -4.0030 H   0  0  0  0  0  0  0  0  0  0  0  0
   -0.9684   -7.6222    0.1703 H   0  0  0  0  0  0  0  0  0  0  0  0
   -0.8055   -4.8577    0.0012 H   0  0  0  0  0  0  0  0  0  0  0  0
   -1.6951   -3.5805    1.8424 H   0  0  0  0  0  0  0  0  0  0  0  0
  1  2  1  0  0  0  0
  1 35  1  0  0  0  0
  1 36  1  0  0  0  0
  1 37  1  0  0  0  0
  2  3  2  0  0  0  0
  2  6  1  0  0  0  0
  3  4  1  0  0  0  0
  4  5  2  0  0  0  0
  4 38  1  0  0  0  0
  5  6  1  0  0  0  0
  5 39  1  0  0  0  0
  6  7  1  0  0  0  0
  7  8  2  0  0  0  0
  7 34  1  0  0  0  0
  8  9  1  0  0  0  0
  8 40  1  0  0  0  0
  9 10  2  0  0  0  0
  9 41  1  0  0  0  0
 10 11  1  0  0  0  0
 10 33  1  0  0  0  0
 11 12  1  0  0  0  0
 11 42  1  0  0  0  0
 12 13  2  0  0  0  0
 12 32  1  0  0  0  0
 13 14  1  0  0  0  0
 13 43  1  0  0  0  0
 14 15  1  0  0  0  0
 14 29  2  0  0  0  0
 15 16  1  0  0  0  0
 15 44  1  0  0  0  0
 15 45  1  0  0  0  0
 16 17  2  0  0  0  0
 16 18  1  0  0  0  0
 18 19  1  0  0  0  0
 18 46  1  0  0  0  0
 19 20  2  0  0  0  0
 19 28  1  0  0  0  0
 20 21  1  0  0  0  0
 20 47  1  0  0  0  0
 21 22  2  0  0  0  0
 22 23  1  0  0  0  0
 22 48  1  0  0  0  0
 23 24  2  0  0  0  0
 23 28  1  0  0  0  0
 24 25  1  0  0  0  0
 24 49  1  0  0  0  0
 25 26  2  0  0  0  0
 25 50  1  0  0  0  0
 26 27  1  0  0  0  0
 26 51  1  0  0  0  0
 27 28  2  0  0  0  0
 27 52  1  0  0  0  0
 29 30  1  0  0  0  0
 29 53  1  0  0  0  0
 30 31  1  0  0  0  0
 30 32  2  0  0  0  0
 32 54  1  0  0  0  0
 33 34  2  0  0  0  0
 33 55  1  0  0  0  0
 34 56  1  0  0  0  0
M  END
$$$$
