
 OpenBabel07202414123D

 64 67  0  0  1  0  0  0  0  0999 V2000
    5.3025    3.0389    0.8461 C   0  0  0  0  0  0  0  0  0  0  0  0
    4.8232    3.6049   -0.5006 C   0  0  0  0  0  0  0  0  0  0  0  0
    3.3188    3.9245   -0.4364 C   0  0  0  0  0  0  0  0  0  0  0  0
    5.5806    4.9177   -0.7670 C   0  0  0  0  0  0  0  0  0  0  0  0
    5.1085    2.6613   -1.5906 N   0  0  0  0  0  0  0  0  0  0  0  0
    4.5933    1.3835   -1.6524 C   0  0  0  0  0  0  0  0  0  0  0  0
    3.8840    0.8764   -0.7882 O   0  0  0  0  0  0  0  0  0  0  0  0
    4.8701    0.6498   -2.9542 C   0  0  0  0  0  0  0  0  0  0  0  0
    6.2804    0.4128   -3.2484 N   0  0  0  0  0  0  0  0  0  0  0  0
    6.9498   -0.7301   -2.6357 C   0  0  0  0  0  0  0  0  0  0  0  0
    7.6769   -1.5571   -3.6923 C   0  0  3  0  0  0  0  0  0  0  0  0
    6.6870   -2.4465   -4.4483 C   0  0  0  0  0  0  0  0  0  0  0  0
    6.8016   -3.6682   -4.3807 O   0  0  0  0  0  0  0  0  0  0  0  0
    5.7182   -1.7676   -5.1742 N   0  0  0  0  0  0  0  0  0  0  0  0
    4.7219   -2.3501   -6.0011 C   0  0  0  0  0  0  0  0  0  0  0  0
    4.4236   -3.7131   -5.9438 C   0  0  0  0  0  0  0  0  0  0  0  0
    3.6077   -4.3584   -6.8042 N   0  0  0  0  0  0  0  0  0  0  0  0
    3.0226   -3.6068   -7.7535 C   0  0  0  0  0  0  0  0  0  0  0  0
    3.1290   -2.2226   -7.8404 C   0  0  0  0  0  0  0  0  0  0  0  0
    2.3833   -1.5197   -8.7991 C   0  0  0  0  0  0  0  0  0  0  0  0
    2.4655   -0.1322   -8.8719 C   0  0  0  0  0  0  0  0  0  0  0  0
    1.4924    0.7401  -10.0818 S   0  0  0  0  0  0  0  0  0  0  0  0
   -0.0148    1.1114   -9.2247 C   0  0  0  0  0  0  0  0  0  0  0  0
    2.1734    1.9885  -10.3675 O   0  0  0  0  0  0  0  0  0  0  0  0
    1.1869   -0.1991  -11.1447 O   0  0  0  0  0  0  0  0  0  0  0  0
    3.3383    0.5622   -8.0398 C   0  0  0  0  0  0  0  0  0  0  0  0
    4.0947   -0.1393   -7.0888 C   0  0  0  0  0  0  0  0  0  0  0  0
    4.0060   -1.5545   -6.9427 C   0  0  0  0  0  0  0  0  0  0  0  0
    8.4955   -0.6609   -4.6027 C   0  0  0  0  0  0  0  0  0  0  0  0
    9.5440   -1.2030   -5.3649 C   0  0  0  0  0  0  0  0  0  0  0  0
   10.2759   -0.3871   -6.2286 C   0  0  0  0  0  0  0  0  0  0  0  0
   11.5422   -1.0648   -7.1745 Cl  0  0  0  0  0  0  0  0  0  0  0  0
    9.9798    0.9705   -6.3408 C   0  0  0  0  0  0  0  0  0  0  0  0
    8.9411    1.5222   -5.5868 C   0  0  0  0  0  0  0  0  0  0  0  0
    8.1966    0.7132   -4.7206 C   0  0  0  0  0  0  0  0  0  0  0  0
    6.9916    1.2894   -4.0457 C   0  0  0  0  0  0  0  0  0  0  0  0
    6.5979    2.4229   -4.2946 O   0  0  0  0  0  0  0  0  0  0  0  0
    5.1256    3.7496    1.6605 H   0  0  0  0  0  0  0  0  0  0  0  0
    6.3754    2.8173    0.8155 H   0  0  0  0  0  0  0  0  0  0  0  0
    4.7880    2.1107    1.1122 H   0  0  0  0  0  0  0  0  0  0  0  0
    3.0990    4.6396    0.3645 H   0  0  0  0  0  0  0  0  0  0  0  0
    2.7133    3.0322   -0.2483 H   0  0  0  0  0  0  0  0  0  0  0  0
    2.9680    4.3594   -1.3800 H   0  0  0  0  0  0  0  0  0  0  0  0
    5.3907    5.6512    0.0253 H   0  0  0  0  0  0  0  0  0  0  0  0
    5.2750    5.3682   -1.7185 H   0  0  0  0  0  0  0  0  0  0  0  0
    6.6625    4.7498   -0.8165 H   0  0  0  0  0  0  0  0  0  0  0  0
    5.6328    2.9881   -2.4018 H   0  0  0  0  0  0  0  0  0  0  0  0
    4.4263    1.2306   -3.7712 H   0  0  0  0  0  0  0  0  0  0  0  0
    4.3575   -0.3186   -2.9343 H   0  0  0  0  0  0  0  0  0  0  0  0
    6.2294   -1.3359   -2.0753 H   0  0  0  0  0  0  0  0  0  0  0  0
    7.6768   -0.3254   -1.9190 H   0  0  0  0  0  0  0  0  0  0  0  0
    8.3658   -2.2313   -3.1638 H   0  0  0  0  0  0  0  0  0  0  0  0
    5.8253   -0.7654   -5.2349 H   0  0  0  0  0  0  0  0  0  0  0  0
    4.8268   -4.3635   -5.1742 H   0  0  0  0  0  0  0  0  0  0  0  0
    2.4329   -4.1763   -8.4677 H   0  0  0  0  0  0  0  0  0  0  0  0
    1.7306   -2.0597   -9.4852 H   0  0  0  0  0  0  0  0  0  0  0  0
    0.2039    1.7711   -8.3828 H   0  0  0  0  0  0  0  0  0  0  0  0
   -0.4745    0.1826   -8.8814 H   0  0  0  0  0  0  0  0  0  0  0  0
   -0.6859    1.6160   -9.9243 H   0  0  0  0  0  0  0  0  0  0  0  0
    3.4418    1.6445   -8.1181 H   0  0  0  0  0  0  0  0  0  0  0  0
    4.7562    0.4515   -6.4579 H   0  0  0  0  0  0  0  0  0  0  0  0
    9.7818   -2.2643   -5.2979 H   0  0  0  0  0  0  0  0  0  0  0  0
   10.5415    1.6005   -7.0267 H   0  0  0  0  0  0  0  0  0  0  0  0
    8.6983    2.5773   -5.7017 H   0  0  0  0  0  0  0  0  0  0  0  0
  1  2  1  0  0  0  0
  1 38  1  0  0  0  0
  1 39  1  0  0  0  0
  1 40  1  0  0  0  0
  2  3  1  0  0  0  0
  2  4  1  0  0  0  0
  2  5  1  0  0  0  0
  3 41  1  0  0  0  0
  3 42  1  0  0  0  0
  3 43  1  0  0  0  0
  4 44  1  0  0  0  0
  4 45  1  0  0  0  0
  4 46  1  0  0  0  0
  5  6  1  0  0  0  0
  5 47  1  0  0  0  0
  6  7  2  0  0  0  0
  6  8  1  0  0  0  0
  8  9  1  0  0  0  0
  8 48  1  0  0  0  0
  8 49  1  0  0  0  0
  9 10  1  0  0  0  0
  9 36  1  0  0  0  0
 10 11  1  0  0  0  0
 10 50  1  0  0  0  0
 10 51  1  0  0  0  0
 11 12  1  0  0  0  0
 11 29  1  0  0  0  0
 11 52  1  0  0  0  0
 12 13  2  0  0  0  0
 12 14  1  0  0  0  0
 14 15  1  0  0  0  0
 14 53  1  0  0  0  0
 15 16  1  0  0  0  0
 15 28  2  0  0  0  0
 16 17  2  0  0  0  0
 16 54  1  0  0  0  0
 17 18  1  0  0  0  0
 18 19  2  0  0  0  0
 18 55  1  0  0  0  0
 19 20  1  0  0  0  0
 19 28  1  0  0  0  0
 20 21  2  0  0  0  0
 20 56  1  0  0  0  0
 21 22  1  0  0  0  0
 21 26  1  0  0  0  0
 22 23  1  0  0  0  0
 22 24  2  0  0  0  0
 22 25  2  0  0  0  0
 23 57  1  0  0  0  0
 23 58  1  0  0  0  0
 23 59  1  0  0  0  0
 26 27  2  0  0  0  0
 26 60  1  0  0  0  0
 27 28  1  0  0  0  0
 27 61  1  0  0  0  0
 29 30  1  0  0  0  0
 29 35  2  0  0  0  0
 30 31  2  0  0  0  0
 30 62  1  0  0  0  0
 31 32  1  0  0  0  0
 31 33  1  0  0  0  0
 33 34  2  0  0  0  0
 33 63  1  0  0  0  0
 34 35  1  0  0  0  0
 34 64  1  0  0  0  0
 35 36  1  0  0  0  0
 36 37  2  0  0  0  0
M  END
$$$$
