
 OpenBabel07202414143D

 56 59  0  0  0  0  0  0  0  0999 V2000
    0.2611   -1.3146   -3.1696 C   0  0  0  0  0  0  0  0  0  0  0  0
    1.4242   -2.1282   -3.0841 O   0  0  0  0  0  0  0  0  0  0  0  0
    2.5040   -1.7408   -3.8340 C   0  0  0  0  0  0  0  0  0  0  0  0
    2.5483   -0.6589   -4.7101 C   0  0  0  0  0  0  0  0  0  0  0  0
    3.7215   -0.3749   -5.4135 C   0  0  0  0  0  0  0  0  0  0  0  0
    4.8513   -1.1743   -5.2463 C   0  0  0  0  0  0  0  0  0  0  0  0
    4.8136   -2.2712   -4.3770 C   0  0  0  0  0  0  0  0  0  0  0  0
    6.0318   -3.1347   -4.1820 C   0  0  0  0  0  0  0  0  0  0  0  0
    6.9458   -2.5962   -3.0719 C   0  0  0  0  0  0  0  0  0  0  0  0
    8.1429   -3.4320   -2.9083 N   0  0  0  0  0  0  0  0  0  0  0  0
    9.0592   -3.5182   -3.9742 C   0  0  0  0  0  0  0  0  0  0  0  0
    9.2392   -2.5046   -4.9237 C   0  0  0  0  0  0  0  0  0  0  0  0
   10.1859   -2.6118   -5.9557 C   0  0  0  0  0  0  0  0  0  0  0  0
   10.3118   -1.5670   -7.0406 C   0  0  0  0  0  0  0  0  0  0  0  0
   10.2289   -0.1004   -6.6255 C   0  0  0  0  0  0  0  0  0  0  0  0
    9.6843    0.3170   -5.6080 O   0  0  0  0  0  0  0  0  0  0  0  0
   10.7590    0.7355   -7.6080 N   0  0  0  0  0  0  0  0  0  0  0  0
   10.6718    2.1468   -7.5279 C   0  0  0  0  0  0  0  0  0  0  0  0
   10.0340    2.8071   -8.5768 C   0  0  0  0  0  0  0  0  0  0  0  0
    9.9137    4.1455   -8.6838 N   0  0  0  0  0  0  0  0  0  0  0  0
   10.5635    4.8679   -7.7479 C   0  0  0  0  0  0  0  0  0  0  0  0
   11.3393    4.3271   -6.7212 C   0  0  0  0  0  0  0  0  0  0  0  0
   12.1596    5.1470   -5.9273 C   0  0  0  0  0  0  0  0  0  0  0  0
   12.9310    4.6035   -4.9042 C   0  0  0  0  0  0  0  0  0  0  0  0
   12.8299    3.2485   -4.6159 C   0  0  0  0  0  0  0  0  0  0  0  0
   12.0425    2.4187   -5.4214 C   0  0  0  0  0  0  0  0  0  0  0  0
   11.3263    2.9247   -6.5355 C   0  0  0  0  0  0  0  0  0  0  0  0
   10.9489   -3.7839   -6.0336 C   0  0  0  0  0  0  0  0  0  0  0  0
   10.8054   -4.7821   -5.0704 C   0  0  0  0  0  0  0  0  0  0  0  0
   11.7507   -6.2152   -5.1845 Cl  0  0  0  0  0  0  0  0  0  0  0  0
    9.8846   -4.6371   -4.0310 C   0  0  0  0  0  0  0  0  0  0  0  0
    3.6338   -2.5442   -3.6745 C   0  0  0  0  0  0  0  0  0  0  0  0
   -0.4875   -1.7285   -2.4862 H   0  0  0  0  0  0  0  0  0  0  0  0
   -0.1604   -1.3356   -4.1801 H   0  0  0  0  0  0  0  0  0  0  0  0
    0.4717   -0.2888   -2.8496 H   0  0  0  0  0  0  0  0  0  0  0  0
    1.6905   -0.0134   -4.8691 H   0  0  0  0  0  0  0  0  0  0  0  0
    3.7551    0.4735   -6.0928 H   0  0  0  0  0  0  0  0  0  0  0  0
    5.7585   -0.9372   -5.7977 H   0  0  0  0  0  0  0  0  0  0  0  0
    6.5601   -3.2058   -5.1399 H   0  0  0  0  0  0  0  0  0  0  0  0
    5.7265   -4.1624   -3.9468 H   0  0  0  0  0  0  0  0  0  0  0  0
    6.3980   -2.6190   -2.1215 H   0  0  0  0  0  0  0  0  0  0  0  0
    7.2145   -1.5445   -3.2308 H   0  0  0  0  0  0  0  0  0  0  0  0
    8.6528   -3.1598   -2.0654 H   0  0  0  0  0  0  0  0  0  0  0  0
    8.6216   -1.6155   -4.8713 H   0  0  0  0  0  0  0  0  0  0  0  0
    9.5240   -1.7481   -7.7845 H   0  0  0  0  0  0  0  0  0  0  0  0
   11.2772   -1.7037   -7.5476 H   0  0  0  0  0  0  0  0  0  0  0  0
   10.7047    0.3520   -8.5448 H   0  0  0  0  0  0  0  0  0  0  0  0
    9.5668    2.2556   -9.3880 H   0  0  0  0  0  0  0  0  0  0  0  0
   10.4543    5.9441   -7.8602 H   0  0  0  0  0  0  0  0  0  0  0  0
   12.2422    6.2112   -6.1401 H   0  0  0  0  0  0  0  0  0  0  0  0
   13.6046    5.2370   -4.3332 H   0  0  0  0  0  0  0  0  0  0  0  0
   13.3822    2.8282   -3.7791 H   0  0  0  0  0  0  0  0  0  0  0  0
   12.0009    1.3615   -5.1712 H   0  0  0  0  0  0  0  0  0  0  0  0
   11.6534   -3.9291   -6.8509 H   0  0  0  0  0  0  0  0  0  0  0  0
    9.7760   -5.4279   -3.2909 H   0  0  0  0  0  0  0  0  0  0  0  0
    3.5893   -3.3902   -2.9922 H   0  0  0  0  0  0  0  0  0  0  0  0
  1  2  1  0  0  0  0
  1 33  1  0  0  0  0
  1 34  1  0  0  0  0
  1 35  1  0  0  0  0
  2  3  1  0  0  0  0
  3  4  2  0  0  0  0
  3 32  1  0  0  0  0
  4  5  1  0  0  0  0
  4 36  1  0  0  0  0
  5  6  2  0  0  0  0
  5 37  1  0  0  0  0
  6  7  1  0  0  0  0
  6 38  1  0  0  0  0
  7  8  1  0  0  0  0
  7 32  2  0  0  0  0
  8  9  1  0  0  0  0
  8 39  1  0  0  0  0
  8 40  1  0  0  0  0
  9 10  1  0  0  0  0
  9 41  1  0  0  0  0
  9 42  1  0  0  0  0
 10 11  1  0  0  0  0
 10 43  1  0  0  0  0
 11 12  2  0  0  0  0
 11 31  1  0  0  0  0
 12 13  1  0  0  0  0
 12 44  1  0  0  0  0
 13 14  1  0  0  0  0
 13 28  2  0  0  0  0
 14 15  1  0  0  0  0
 14 45  1  0  0  0  0
 14 46  1  0  0  0  0
 15 16  2  0  0  0  0
 15 17  1  0  0  0  0
 17 18  1  0  0  0  0
 17 47  1  0  0  0  0
 18 19  2  0  0  0  0
 18 27  1  0  0  0  0
 19 20  1  0  0  0  0
 19 48  1  0  0  0  0
 20 21  2  0  0  0  0
 21 22  1  0  0  0  0
 21 49  1  0  0  0  0
 22 23  2  0  0  0  0
 22 27  1  0  0  0  0
 23 24  1  0  0  0  0
 23 50  1  0  0  0  0
 24 25  2  0  0  0  0
 24 51  1  0  0  0  0
 25 26  1  0  0  0  0
 25 52  1  0  0  0  0
 26 27  2  0  0  0  0
 26 53  1  0  0  0  0
 28 29  1  0  0  0  0
 28 54  1  0  0  0  0
 29 30  1  0  0  0  0
 29 31  2  0  0  0  0
 31 55  1  0  0  0  0
 32 56  1  0  0  0  0
M  END
$$$$
