
 OpenBabel07202414183D

 40 43  0  0  1  0  0  0  0  0999 V2000
    0.9737   -0.0710   -0.1007 Cl  0  0  0  0  0  0  0  0  0  0  0  0
    2.6882   -0.1174    0.0459 C   0  0  0  0  0  0  0  0  0  0  0  0
    3.4236    1.0557   -0.1103 C   0  0  0  0  0  0  0  0  0  0  0  0
    4.8159    1.0119   -0.0422 C   0  0  0  0  0  0  0  0  0  0  0  0
    5.4832   -0.2029    0.1929 C   0  0  0  0  0  0  0  0  0  0  0  0
    4.7309   -1.3800    0.3845 C   0  0  0  0  0  0  0  0  0  0  0  0
    3.3307   -1.3280    0.2985 C   0  0  0  0  0  0  0  0  0  0  0  0
    5.4305   -2.7023    0.6543 C   0  0  2  0  0  0  0  0  0  0  0  0
    5.3437   -3.1336    2.1398 C   0  0  0  0  0  0  0  0  0  0  0  0
    4.4069   -3.8244    2.5390 O   0  0  0  0  0  0  0  0  0  0  0  0
    6.3744   -2.6506    2.9168 N   0  0  0  0  0  0  0  0  0  0  0  0
    6.6080   -2.8089    4.3051 C   0  0  0  0  0  0  0  0  0  0  0  0
    5.7170   -3.4695    5.1534 C   0  0  0  0  0  0  0  0  0  0  0  0
    5.8064   -3.4598    6.5057 N   0  0  0  0  0  0  0  0  0  0  0  0
    6.8712   -2.8219    7.0409 C   0  0  0  0  0  0  0  0  0  0  0  0
    7.9151   -2.2733    6.2905 C   0  0  0  0  0  0  0  0  0  0  0  0
    9.0772   -1.7820    6.9191 C   0  0  0  0  0  0  0  0  0  0  0  0
   10.1251   -1.2598    6.1644 C   0  0  0  0  0  0  0  0  0  0  0  0
   10.0152   -1.1992    4.7820 C   0  0  0  0  0  0  0  0  0  0  0  0
    8.8596   -1.6827    4.1555 C   0  0  0  0  0  0  0  0  0  0  0  0
    7.7811   -2.2492    4.8906 C   0  0  0  0  0  0  0  0  0  0  0  0
    6.8802   -2.6543    0.1240 C   0  0  0  0  0  0  0  0  0  0  0  0
    7.6066   -1.4702    0.6234 N   0  0  0  0  0  0  0  0  0  0  0  0
    6.9932   -0.2337    0.1132 C   0  0  0  0  0  0  0  0  0  0  0  0
    2.9207    1.9997   -0.3004 H   0  0  0  0  0  0  0  0  0  0  0  0
    5.3810    1.9290   -0.1949 H   0  0  0  0  0  0  0  0  0  0  0  0
    2.7428   -2.2370    0.4154 H   0  0  0  0  0  0  0  0  0  0  0  0
    4.9225   -3.4875    0.0793 H   0  0  0  0  0  0  0  0  0  0  0  0
    7.0038   -2.0146    2.4279 H   0  0  0  0  0  0  0  0  0  0  0  0
    4.8683   -4.0298    4.7823 H   0  0  0  0  0  0  0  0  0  0  0  0
    6.8669   -2.7738    8.1249 H   0  0  0  0  0  0  0  0  0  0  0  0
    9.1864   -1.8365    7.9999 H   0  0  0  0  0  0  0  0  0  0  0  0
   11.0333   -0.9150    6.6526 H   0  0  0  0  0  0  0  0  0  0  0  0
   10.8254   -0.7917    4.1842 H   0  0  0  0  0  0  0  0  0  0  0  0
    8.8447   -1.6447    3.0725 H   0  0  0  0  0  0  0  0  0  0  0  0
    6.8857   -2.6497   -0.9739 H   0  0  0  0  0  0  0  0  0  0  0  0
    7.4228   -3.5525    0.4418 H   0  0  0  0  0  0  0  0  0  0  0  0
    8.5651   -1.5025    0.2690 H   0  0  0  0  0  0  0  0  0  0  0  0
    7.2830   -0.0943   -0.9361 H   0  0  0  0  0  0  0  0  0  0  0  0
    7.4033    0.6066    0.6858 H   0  0  0  0  0  0  0  0  0  0  0  0
  1  2  1  0  0  0  0
  2  3  1  0  0  0  0
  2  7  2  0  0  0  0
  3  4  2  0  0  0  0
  3 25  1  0  0  0  0
  4  5  1  0  0  0  0
  4 26  1  0  0  0  0
  5  6  2  0  0  0  0
  5 24  1  0  0  0  0
  6  7  1  0  0  0  0
  6  8  1  0  0  0  0
  7 27  1  0  0  0  0
  8  9  1  0  0  0  0
  8 22  1  0  0  0  0
  8 28  1  6  0  0  0
  9 10  2  0  0  0  0
  9 11  1  0  0  0  0
 11 12  1  0  0  0  0
 11 29  1  0  0  0  0
 12 13  1  0  0  0  0
 12 21  2  0  0  0  0
 13 14  2  0  0  0  0
 13 30  1  0  0  0  0
 14 15  1  0  0  0  0
 15 16  2  0  0  0  0
 15 31  1  0  0  0  0
 16 17  1  0  0  0  0
 16 21  1  0  0  0  0
 17 18  2  0  0  0  0
 17 32  1  0  0  0  0
 18 19  1  0  0  0  0
 18 33  1  0  0  0  0
 19 20  2  0  0  0  0
 19 34  1  0  0  0  0
 20 21  1  0  0  0  0
 20 35  1  0  0  0  0
 22 23  1  0  0  0  0
 22 36  1  0  0  0  0
 22 37  1  0  0  0  0
 23 24  1  0  0  0  0
 23 38  1  0  0  0  0
 24 39  1  0  0  0  0
 24 40  1  0  0  0  0
M  END
$$$$
