
 OpenBabel07202414153D

 47 50  0  0  0  0  0  0  0  0999 V2000
    1.2790   -0.7088    0.5428 C   0  0  0  0  0  0  0  0  0  0  0  0
    2.3813    0.0159   -0.0092 O   0  0  0  0  0  0  0  0  0  0  0  0
    3.0362    0.8762    0.8343 C   0  0  0  0  0  0  0  0  0  0  0  0
    2.6227    1.0168    2.1651 C   0  0  0  0  0  0  0  0  0  0  0  0
    3.3995    1.6713    3.1391 C   0  0  0  0  0  0  0  0  0  0  0  0
    4.6292    2.2091    2.8146 C   0  0  0  0  0  0  0  0  0  0  0  0
    5.0557    2.0553    1.4757 C   0  0  0  0  0  0  0  0  0  0  0  0
    4.2393    1.4769    0.4620 C   0  0  0  0  0  0  0  0  0  0  0  0
    4.7682    1.6537   -1.2484 S   0  0  0  0  0  0  0  0  0  0  0  0
    6.2180    1.6833   -1.2679 O   0  0  0  0  0  0  0  0  0  0  0  0
    4.0512    0.6695   -2.0310 O   0  0  0  0  0  0  0  0  0  0  0  0
    4.1809    3.1108   -1.7819 N   0  0  0  0  0  0  0  0  0  0  0  0
    2.9196    3.1341   -2.3675 C   0  0  0  0  0  0  0  0  0  0  0  0
    2.5646    2.9863   -3.6269 C   0  0  0  0  0  0  0  0  0  0  0  0
    1.2466    2.8632   -4.0484 C   0  0  0  0  0  0  0  0  0  0  0  0
    0.2062    2.9409   -3.1034 C   0  0  0  0  0  0  0  0  0  0  0  0
    0.5909    3.2264   -1.6397 C   0  0  0  0  0  0  0  0  0  0  0  0
    1.9029    3.4347   -1.5430 C   0  0  0  0  0  0  0  0  0  0  0  0
    2.1044    3.9947   -0.4099 N   0  0  0  0  0  0  0  0  0  0  0  0
    2.6959    4.3178    0.5943 C   0  0  0  0  0  0  0  0  0  0  0  0
    1.4234    3.8306    1.1125 C   0  0  0  0  0  0  0  0  0  0  0  0
    0.2128    3.3210   -0.0728 C   0  0  0  0  0  0  0  0  0  0  0  0
    5.3649    3.0372    3.7323 N   0  0  0  0  0  0  0  0  0  0  0  0
    6.2189    2.6746    4.8134 C   0  0  0  0  0  0  0  0  0  0  0  0
    6.2488    1.6058    5.4074 O   0  0  0  0  0  0  0  0  0  0  0  0
    7.1403    3.8750    5.1553 C   0  0  0  0  0  0  0  0  0  0  0  0
    6.7986    4.9971    4.1740 C   0  0  0  0  0  0  0  0  0  0  0  0
    5.1230    4.7118    3.7178 S   0  0  0  0  0  0  0  0  0  0  0  0
    4.9028    5.2182    2.3866 O   0  0  0  0  0  0  0  0  0  0  0  0
    4.3018    5.0774    4.8511 O   0  0  0  0  0  0  0  0  0  0  0  0
    0.9014   -1.3835   -0.2316 H   0  0  0  0  0  0  0  0  0  0  0  0
    0.4873   -0.0030    0.8000 H   0  0  0  0  0  0  0  0  0  0  0  0
    1.5278   -1.3258    1.4103 H   0  0  0  0  0  0  0  0  0  0  0  0
    1.6772    0.6001    2.4863 H   0  0  0  0  0  0  0  0  0  0  0  0
    3.0378    1.7097    4.1586 H   0  0  0  0  0  0  0  0  0  0  0  0
    6.0744    2.3429    1.2342 H   0  0  0  0  0  0  0  0  0  0  0  0
    4.7663    3.9475   -1.9010 H   0  0  0  0  0  0  0  0  0  0  0  0
    3.4110    2.9889   -4.2632 H   0  0  0  0  0  0  0  0  0  0  0  0
    1.1355    2.7079   -5.1223 H   0  0  0  0  0  0  0  0  0  0  0  0
   -0.8029    2.8862   -3.5600 H   0  0  0  0  0  0  0  0  0  0  0  0
    3.7337    4.0081    0.3629 H   0  0  0  0  0  0  0  0  0  0  0  0
    2.2327    4.1727    1.8658 H   0  0  0  0  0  0  0  0  0  0  0  0
   -0.8072    2.8794   -0.0896 H   0  0  0  0  0  0  0  0  0  0  0  0
    8.1943    3.5989    5.0394 H   0  0  0  0  0  0  0  0  0  0  0  0
    6.9954    4.2169    6.1873 H   0  0  0  0  0  0  0  0  0  0  0  0
    7.4150    4.9413    3.2710 H   0  0  0  0  0  0  0  0  0  0  0  0
    6.8620    5.9998    4.5973 H   0  0  0  0  0  0  0  0  0  0  0  0
  1  2  1  0  0  0  0
  1 31  1  0  0  0  0
  1 32  1  0  0  0  0
  1 33  1  0  0  0  0
  2  3  1  0  0  0  0
  3  4  1  0  0  0  0
  3  8  2  0  0  0  0
  4  5  2  0  0  0  0
  4 34  1  0  0  0  0
  5  6  1  0  0  0  0
  5 35  1  0  0  0  0
  6  7  2  0  0  0  0
  6 23  1  0  0  0  0
  7  8  1  0  0  0  0
  7 36  1  0  0  0  0
  8  9  1  0  0  0  0
  9 10  2  0  0  0  0
  9 11  2  0  0  0  0
  9 12  1  0  0  0  0
 12 13  1  0  0  0  0
 12 37  1  0  0  0  0
 13 14  1  0  0  0  0
 13 18  2  0  0  0  0
 14 15  2  0  0  0  0
 14 38  1  0  0  0  0
 15 16  1  0  0  0  0
 15 39  1  0  0  0  0
 16 17  2  0  0  0  0
 16 40  1  0  0  0  0
 17 18  1  0  0  0  0
 17 22  1  0  0  0  0
 18 19  1  0  0  0  0
 19 20  2  0  0  0  0
 20 21  1  0  0  0  0
 20 41  1  0  0  0  0
 21 22  2  0  0  0  0
 21 42  1  0  0  0  0
 22 43  1  0  0  0  0
 23 24  1  0  0  0  0
 23 28  1  0  0  0  0
 24 25  2  0  0  0  0
 24 26  1  0  0  0  0
 26 27  1  0  0  0  0
 26 44  1  0  0  0  0
 26 45  1  0  0  0  0
 27 28  1  0  0  0  0
 27 46  1  0  0  0  0
 27 47  1  0  0  0  0
 28 29  2  0  0  0  0
 28 30  2  0  0  0  0
M  END
$$$$
