
 OpenBabel07202414193D

 48 51  0  0  1  0  0  0  0  0999 V2000
    1.1457   -0.7481    0.0943 O   0  0  0  0  0  0  0  0  0  0  0  0
    2.2523   -0.2103    0.1757 C   0  0  0  0  0  0  0  0  0  0  0  0
    2.9132    0.3833   -1.0631 C   0  0  0  0  0  0  0  0  0  0  0  0
    3.6894   -0.6346   -1.8758 C   0  0  0  0  0  0  0  0  0  0  0  0
    3.2745   -1.9703   -1.8972 C   0  0  0  0  0  0  0  0  0  0  0  0
    3.8815   -2.9593   -2.5844 N   0  0  0  0  0  0  0  0  0  0  0  0
    4.9501   -2.6029   -3.3220 C   0  0  0  0  0  0  0  0  0  0  0  0
    5.4480   -1.3057   -3.4201 C   0  0  0  0  0  0  0  0  0  0  0  0
    6.5593   -1.0181   -4.2324 C   0  0  0  0  0  0  0  0  0  0  0  0
    7.0437    0.2826   -4.3367 C   0  0  0  0  0  0  0  0  0  0  0  0
    6.4209    1.3064   -3.6347 C   0  0  0  0  0  0  0  0  0  0  0  0
    5.3159    1.0304   -2.8236 C   0  0  0  0  0  0  0  0  0  0  0  0
    4.8013   -0.2829   -2.6870 C   0  0  0  0  0  0  0  0  0  0  0  0
    2.9664   -0.1916    1.3533 N   0  0  0  0  0  0  0  0  0  0  0  0
    2.5136   -0.9216    2.5202 C   0  0  0  0  0  0  0  0  0  0  0  0
    2.9765   -0.0590    3.6801 C   0  0  0  0  0  0  0  0  0  0  0  0
    4.2958    0.5436    3.1860 C   0  0  1  0  0  0  0  0  0  0  0  0
    5.5020   -0.3259    3.5426 C   0  0  0  0  0  0  0  0  0  0  0  0
    6.6820    0.3473    3.0993 O   0  0  0  0  0  0  0  0  0  0  0  0
    7.8709   -0.2967    3.3064 C   0  0  0  0  0  0  0  0  0  0  0  0
    8.0427   -1.4944    4.0024 C   0  0  0  0  0  0  0  0  0  0  0  0
    9.3170   -2.0521    4.1389 C   0  0  0  0  0  0  0  0  0  0  0  0
   10.4251   -1.4151    3.5840 C   0  0  0  0  0  0  0  0  0  0  0  0
   10.2613   -0.2163    2.8941 C   0  0  0  0  0  0  0  0  0  0  0  0
    8.9879    0.3405    2.7591 C   0  0  0  0  0  0  0  0  0  0  0  0
    4.0964    0.6717    1.6703 C   0  0  0  0  0  0  0  0  0  0  0  0
    3.5493    1.2159   -0.7572 H   0  0  0  0  0  0  0  0  0  0  0  0
    2.1249    0.8144   -1.6924 H   0  0  0  0  0  0  0  0  0  0  0  0
    2.4032   -2.3126   -1.3415 H   0  0  0  0  0  0  0  0  0  0  0  0
    5.4115   -3.4259   -3.8613 H   0  0  0  0  0  0  0  0  0  0  0  0
    7.0502   -1.8102   -4.7936 H   0  0  0  0  0  0  0  0  0  0  0  0
    7.9014    0.4948   -4.9691 H   0  0  0  0  0  0  0  0  0  0  0  0
    6.7919    2.3246   -3.7178 H   0  0  0  0  0  0  0  0  0  0  0  0
    4.8583    1.8681   -2.3056 H   0  0  0  0  0  0  0  0  0  0  0  0
    3.0291   -1.8904    2.5193 H   0  0  0  0  0  0  0  0  0  0  0  0
    1.4374   -1.0992    2.5174 H   0  0  0  0  0  0  0  0  0  0  0  0
    3.0661   -0.6236    4.6138 H   0  0  0  0  0  0  0  0  0  0  0  0
    2.2483    0.7452    3.8384 H   0  0  0  0  0  0  0  0  0  0  0  0
    4.4533    1.5385    3.6191 H   0  0  0  0  0  0  0  0  0  0  0  0
    5.4229   -1.3088    3.0628 H   0  0  0  0  0  0  0  0  0  0  0  0
    5.5380   -0.4463    4.6327 H   0  0  0  0  0  0  0  0  0  0  0  0
    7.2084   -2.0211    4.4530 H   0  0  0  0  0  0  0  0  0  0  0  0
    9.4431   -2.9862    4.6807 H   0  0  0  0  0  0  0  0  0  0  0  0
   11.4143   -1.8529    3.6894 H   0  0  0  0  0  0  0  0  0  0  0  0
   11.1221    0.2846    2.4597 H   0  0  0  0  0  0  0  0  0  0  0  0
    8.8656    1.2759    2.2192 H   0  0  0  0  0  0  0  0  0  0  0  0
    4.9665    0.3723    1.0780 H   0  0  0  0  0  0  0  0  0  0  0  0
    3.8231    1.6985    1.4054 H   0  0  0  0  0  0  0  0  0  0  0  0
  1  2  2  0  0  0  0
  2  3  1  0  0  0  0
  2 14  1  0  0  0  0
  3  4  1  0  0  0  0
  3 27  1  0  0  0  0
  3 28  1  0  0  0  0
  4  5  1  0  0  0  0
  4 13  2  0  0  0  0
  5  6  2  0  0  0  0
  5 29  1  0  0  0  0
  6  7  1  0  0  0  0
  7  8  2  0  0  0  0
  7 30  1  0  0  0  0
  8  9  1  0  0  0  0
  8 13  1  0  0  0  0
  9 10  2  0  0  0  0
  9 31  1  0  0  0  0
 10 11  1  0  0  0  0
 10 32  1  0  0  0  0
 11 12  2  0  0  0  0
 11 33  1  0  0  0  0
 12 13  1  0  0  0  0
 12 34  1  0  0  0  0
 14 15  1  0  0  0  0
 14 26  1  0  0  0  0
 15 16  1  0  0  0  0
 15 35  1  0  0  0  0
 15 36  1  0  0  0  0
 16 17  1  0  0  0  0
 16 37  1  0  0  0  0
 16 38  1  0  0  0  0
 17 18  1  0  0  0  0
 17 26  1  0  0  0  0
 17 39  1  1  0  0  0
 18 19  1  0  0  0  0
 18 40  1  0  0  0  0
 18 41  1  0  0  0  0
 19 20  1  0  0  0  0
 20 21  1  0  0  0  0
 20 25  2  0  0  0  0
 21 22  2  0  0  0  0
 21 42  1  0  0  0  0
 22 23  1  0  0  0  0
 22 43  1  0  0  0  0
 23 24  2  0  0  0  0
 23 44  1  0  0  0  0
 24 25  1  0  0  0  0
 24 45  1  0  0  0  0
 25 46  1  0  0  0  0
 26 47  1  0  0  0  0
 26 48  1  0  0  0  0
M  END
$$$$
