
 OpenBabel07202414123D

 64 66  0  0  1  0  0  0  0  0999 V2000
    3.4212   -3.6407   -0.7073 C   0  0  0  0  0  0  0  0  0  0  0  0
    2.6082   -2.4028   -1.1098 C   0  0  0  0  0  0  0  0  0  0  0  0
    1.1533   -2.5909   -0.6682 C   0  0  0  0  0  0  0  0  0  0  0  0
    3.1877   -1.0662   -0.5698 C   0  0  0  0  0  0  0  0  0  0  0  0
    4.6649   -0.8052   -0.9622 C   0  0  2  0  0  0  0  0  0  0  0  0
    5.2651    0.4962   -0.3423 C   0  0  0  0  0  0  0  0  0  0  0  0
    6.7270    0.5107   -0.5459 N   0  0  0  0  0  0  0  0  0  0  0  0
    7.5965    0.7176    0.5193 C   0  0  0  0  0  0  0  0  0  0  0  0
    7.1755    0.9853    1.6501 O   0  0  0  0  0  0  0  0  0  0  0  0
    9.1063    0.5689    0.2820 C   0  0  0  0  0  0  0  0  0  0  0  0
    9.7400    1.7370   -0.1754 O   0  0  0  0  0  0  0  0  0  0  0  0
   11.3453    1.6265   -0.4578 S   0  0  0  0  0  0  0  0  0  0  0  0
   11.9623    1.1636    0.7704 O   0  0  0  0  0  0  0  0  0  0  0  0
   11.4891    0.8754   -1.6836 O   0  0  0  0  0  0  0  0  0  0  0  0
   11.8899    3.2024   -0.7392 N   0  0  0  0  0  0  0  0  0  0  0  0
   11.6853    4.1730    0.3717 C   0  0  0  0  0  0  0  0  0  0  0  0
   10.2228    4.6627    0.3980 C   0  0  0  0  0  0  0  0  0  0  0  0
    9.7807    5.2400   -0.8914 N   0  0  0  0  0  0  0  0  0  0  0  0
   10.0772    4.3272   -2.0166 C   0  0  0  0  0  0  0  0  0  0  0  0
   11.5304    3.8181   -2.0406 C   0  0  0  0  0  0  0  0  0  0  0  0
    7.1571    0.2591   -1.9303 C   0  0  0  0  0  0  0  0  0  0  0  0
    6.4518   -0.9653   -2.5446 C   0  0  0  0  0  0  0  0  0  0  0  0
    4.9718   -0.9343   -2.4268 N   0  0  0  0  0  0  0  0  0  0  0  0
    4.3990    0.1445   -3.2645 C   0  0  0  0  0  0  0  0  0  0  0  0
    4.6529   -0.0038   -4.7633 C   0  0  0  0  0  0  0  0  0  0  0  0
    5.2834    1.0249   -5.4911 C   0  0  0  0  0  0  0  0  0  0  0  0
    5.4172    0.9347   -6.8798 C   0  0  0  0  0  0  0  0  0  0  0  0
    6.1650    2.2174   -7.7555 Cl  0  0  0  0  0  0  0  0  0  0  0  0
    4.9435   -0.1780   -7.5678 C   0  0  0  0  0  0  0  0  0  0  0  0
    4.3618   -1.2262   -6.8532 C   0  0  0  0  0  0  0  0  0  0  0  0
    4.2185   -1.1381   -5.4640 C   0  0  0  0  0  0  0  0  0  0  0  0
    2.8259   -4.5567   -0.8044 H   0  0  0  0  0  0  0  0  0  0  0  0
    3.7739   -3.5840    0.3280 H   0  0  0  0  0  0  0  0  0  0  0  0
    4.2927   -3.7591   -1.3594 H   0  0  0  0  0  0  0  0  0  0  0  0
    2.6008   -2.3523   -2.2047 H   0  0  0  0  0  0  0  0  0  0  0  0
    1.0754   -2.7755    0.4086 H   0  0  0  0  0  0  0  0  0  0  0  0
    0.7107   -3.4509   -1.1863 H   0  0  0  0  0  0  0  0  0  0  0  0
    0.5488   -1.7136   -0.9153 H   0  0  0  0  0  0  0  0  0  0  0  0
    3.1192   -1.0813    0.5283 H   0  0  0  0  0  0  0  0  0  0  0  0
    2.5533   -0.2346   -0.8988 H   0  0  0  0  0  0  0  0  0  0  0  0
    5.2053   -1.6231   -0.4643 H   0  0  0  0  0  0  0  0  0  0  0  0
    5.0202    0.5730    0.7208 H   0  0  0  0  0  0  0  0  0  0  0  0
    4.8609    1.3957   -0.8236 H   0  0  0  0  0  0  0  0  0  0  0  0
    9.2928   -0.2604   -0.4094 H   0  0  0  0  0  0  0  0  0  0  0  0
    9.5488    0.2529    1.2417 H   0  0  0  0  0  0  0  0  0  0  0  0
   12.3521    5.0288    0.2051 H   0  0  0  0  0  0  0  0  0  0  0  0
   11.9821    3.7392    1.3332 H   0  0  0  0  0  0  0  0  0  0  0  0
   10.1106    5.4222    1.1788 H   0  0  0  0  0  0  0  0  0  0  0  0
    9.5441    3.8583    0.6823 H   0  0  0  0  0  0  0  0  0  0  0  0
   10.2898    6.1084   -1.0396 H   0  0  0  0  0  0  0  0  0  0  0  0
    9.8732    4.8572   -2.9538 H   0  0  0  0  0  0  0  0  0  0  0  0
    9.3863    3.4785   -1.9902 H   0  0  0  0  0  0  0  0  0  0  0  0
   12.2140    4.6572   -2.2234 H   0  0  0  0  0  0  0  0  0  0  0  0
   11.6937    3.1181   -2.8661 H   0  0  0  0  0  0  0  0  0  0  0  0
    8.2357    0.1149   -2.0191 H   0  0  0  0  0  0  0  0  0  0  0  0
    6.9352    1.1734   -2.4986 H   0  0  0  0  0  0  0  0  0  0  0  0
    6.8027   -1.8693   -2.0255 H   0  0  0  0  0  0  0  0  0  0  0  0
    6.7606   -1.0988   -3.5831 H   0  0  0  0  0  0  0  0  0  0  0  0
    4.7671    1.1292   -2.9587 H   0  0  0  0  0  0  0  0  0  0  0  0
    3.3107    0.1825   -3.1362 H   0  0  0  0  0  0  0  0  0  0  0  0
    5.6601    1.9077   -4.9813 H   0  0  0  0  0  0  0  0  0  0  0  0
    5.0239   -0.2363   -8.6504 H   0  0  0  0  0  0  0  0  0  0  0  0
    4.0125   -2.1091   -7.3830 H   0  0  0  0  0  0  0  0  0  0  0  0
    3.7557   -1.9643   -4.9235 H   0  0  0  0  0  0  0  0  0  0  0  0
  1  2  1  0  0  0  0
  1 32  1  0  0  0  0
  1 33  1  0  0  0  0
  1 34  1  0  0  0  0
  2  3  1  0  0  0  0
  2  4  1  0  0  0  0
  2 35  1  0  0  0  0
  3 36  1  0  0  0  0
  3 37  1  0  0  0  0
  3 38  1  0  0  0  0
  4  5  1  0  0  0  0
  4 39  1  0  0  0  0
  4 40  1  0  0  0  0
  5  6  1  0  0  0  0
  5 23  1  0  0  0  0
  5 41  1  1  0  0  0
  6  7  1  0  0  0  0
  6 42  1  0  0  0  0
  6 43  1  0  0  0  0
  7  8  1  0  0  0  0
  7 21  1  0  0  0  0
  8  9  2  0  0  0  0
  8 10  1  0  0  0  0
 10 11  1  0  0  0  0
 10 44  1  0  0  0  0
 10 45  1  0  0  0  0
 11 12  1  0  0  0  0
 12 13  2  0  0  0  0
 12 14  2  0  0  0  0
 12 15  1  0  0  0  0
 15 16  1  0  0  0  0
 15 20  1  0  0  0  0
 16 17  1  0  0  0  0
 16 46  1  0  0  0  0
 16 47  1  0  0  0  0
 17 18  1  0  0  0  0
 17 48  1  0  0  0  0
 17 49  1  0  0  0  0
 18 19  1  0  0  0  0
 18 50  1  0  0  0  0
 19 20  1  0  0  0  0
 19 51  1  0  0  0  0
 19 52  1  0  0  0  0
 20 53  1  0  0  0  0
 20 54  1  0  0  0  0
 21 22  1  0  0  0  0
 21 55  1  0  0  0  0
 21 56  1  0  0  0  0
 22 23  1  0  0  0  0
 22 57  1  0  0  0  0
 22 58  1  0  0  0  0
 23 24  1  0  0  0  0
 24 25  1  0  0  0  0
 24 59  1  0  0  0  0
 24 60  1  0  0  0  0
 25 26  2  0  0  0  0
 25 31  1  0  0  0  0
 26 27  1  0  0  0  0
 26 61  1  0  0  0  0
 27 28  1  0  0  0  0
 27 29  2  0  0  0  0
 29 30  1  0  0  0  0
 29 62  1  0  0  0  0
 30 31  2  0  0  0  0
 30 63  1  0  0  0  0
 31 64  1  0  0  0  0
M  END
$$$$
