
 OpenBabel07202414153D

 48 51  0  0  0  0  0  0  0  0999 V2000
    0.1532    1.4423    0.1135 C   0  0  0  0  0  0  0  0  0  0  0  0
    1.2764    1.0258    0.8853 O   0  0  0  0  0  0  0  0  0  0  0  0
    2.2270    1.9758    1.1500 C   0  0  0  0  0  0  0  0  0  0  0  0
    2.3116    3.2283    0.5448 C   0  0  0  0  0  0  0  0  0  0  0  0
    3.2933    4.1412    0.9478 C   0  0  0  0  0  0  0  0  0  0  0  0
    4.2112    3.8045    1.9448 C   0  0  0  0  0  0  0  0  0  0  0  0
    4.1628    2.5324    2.5229 C   0  0  0  0  0  0  0  0  0  0  0  0
    3.1727    1.6241    2.1204 C   0  0  0  0  0  0  0  0  0  0  0  0
    5.1080    4.8053    2.4207 N   0  0  0  0  0  0  0  0  0  0  0  0
    6.4835    4.8369    1.8867 C   0  0  0  0  0  0  0  0  0  0  0  0
    6.8250    3.9597    0.6989 C   0  0  0  0  0  0  0  0  0  0  0  0
    6.6435    4.4320   -0.6114 C   0  0  0  0  0  0  0  0  0  0  0  0
    6.9480    3.6280   -1.7146 C   0  0  0  0  0  0  0  0  0  0  0  0
    7.4398    2.3375   -1.5257 C   0  0  0  0  0  0  0  0  0  0  0  0
    7.6421    1.8694   -0.2337 C   0  0  0  0  0  0  0  0  0  0  0  0
    7.3502    2.6688    0.8759 C   0  0  0  0  0  0  0  0  0  0  0  0
    8.2567    0.2734    0.0056 Cl  0  0  0  0  0  0  0  0  0  0  0  0
    4.6130    5.6872    3.4069 C   0  0  0  0  0  0  0  0  0  0  0  0
    3.4762    5.5636    3.8744 O   0  0  0  0  0  0  0  0  0  0  0  0
    5.5438    6.7281    3.9913 C   0  0  0  0  0  0  0  0  0  0  0  0
    5.1274    8.1288    4.0445 N   0  0  0  0  0  0  0  0  0  0  0  0
    3.9631    8.8191    3.7931 C   0  0  0  0  0  0  0  0  0  0  0  0
    2.6445    8.4937    3.4482 C   0  0  0  0  0  0  0  0  0  0  0  0
    1.7363    9.5496    3.2518 C   0  0  0  0  0  0  0  0  0  0  0  0
    2.1166   10.8829    3.3917 C   0  0  0  0  0  0  0  0  0  0  0  0
    3.4268   11.1996    3.7604 C   0  0  0  0  0  0  0  0  0  0  0  0
    4.3443   10.1550    3.9662 C   0  0  0  0  0  0  0  0  0  0  0  0
    5.6530   10.2213    4.3382 N   0  0  0  0  0  0  0  0  0  0  0  0
    6.1209    8.9871    4.3979 N   0  0  0  0  0  0  0  0  0  0  0  0
   -0.5908    0.6389    0.1368 H   0  0  0  0  0  0  0  0  0  0  0  0
    0.4390    1.6016   -0.9310 H   0  0  0  0  0  0  0  0  0  0  0  0
   -0.3198    2.3378    0.5328 H   0  0  0  0  0  0  0  0  0  0  0  0
    1.6198    3.5340   -0.2322 H   0  0  0  0  0  0  0  0  0  0  0  0
    3.3236    5.1246    0.4903 H   0  0  0  0  0  0  0  0  0  0  0  0
    4.8564    2.2440    3.3069 H   0  0  0  0  0  0  0  0  0  0  0  0
    3.1155    0.6431    2.5876 H   0  0  0  0  0  0  0  0  0  0  0  0
    7.1696    4.6178    2.7156 H   0  0  0  0  0  0  0  0  0  0  0  0
    6.6903    5.8734    1.5923 H   0  0  0  0  0  0  0  0  0  0  0  0
    6.2657    5.4374   -0.7844 H   0  0  0  0  0  0  0  0  0  0  0  0
    6.7969    4.0075   -2.7228 H   0  0  0  0  0  0  0  0  0  0  0  0
    7.6645    1.7110   -2.3855 H   0  0  0  0  0  0  0  0  0  0  0  0
    7.5182    2.2757    1.8742 H   0  0  0  0  0  0  0  0  0  0  0  0
    6.5072    6.7410    3.4789 H   0  0  0  0  0  0  0  0  0  0  0  0
    5.7429    6.4362    5.0301 H   0  0  0  0  0  0  0  0  0  0  0  0
    2.2973    7.4725    3.3450 H   0  0  0  0  0  0  0  0  0  0  0  0
    0.7066    9.3220    2.9826 H   0  0  0  0  0  0  0  0  0  0  0  0
    1.3968   11.6808    3.2205 H   0  0  0  0  0  0  0  0  0  0  0  0
    3.7374   12.2306    3.8862 H   0  0  0  0  0  0  0  0  0  0  0  0
  1  2  1  0  0  0  0
  1 30  1  0  0  0  0
  1 31  1  0  0  0  0
  1 32  1  0  0  0  0
  2  3  1  0  0  0  0
  3  4  1  0  0  0  0
  3  8  2  0  0  0  0
  4  5  2  0  0  0  0
  4 33  1  0  0  0  0
  5  6  1  0  0  0  0
  5 34  1  0  0  0  0
  6  7  2  0  0  0  0
  6  9  1  0  0  0  0
  7  8  1  0  0  0  0
  7 35  1  0  0  0  0
  8 36  1  0  0  0  0
  9 10  1  0  0  0  0
  9 18  1  0  0  0  0
 10 11  1  0  0  0  0
 10 37  1  0  0  0  0
 10 38  1  0  0  0  0
 11 12  1  0  0  0  0
 11 16  2  0  0  0  0
 12 13  2  0  0  0  0
 12 39  1  0  0  0  0
 13 14  1  0  0  0  0
 13 40  1  0  0  0  0
 14 15  2  0  0  0  0
 14 41  1  0  0  0  0
 15 16  1  0  0  0  0
 15 17  1  0  0  0  0
 16 42  1  0  0  0  0
 18 19  2  0  0  0  0
 18 20  1  0  0  0  0
 20 21  1  0  0  0  0
 20 43  1  0  0  0  0
 20 44  1  0  0  0  0
 21 22  1  0  0  0  0
 21 29  1  0  0  0  0
 22 23  1  0  0  0  0
 22 27  2  0  0  0  0
 23 24  2  0  0  0  0
 23 45  1  0  0  0  0
 24 25  1  0  0  0  0
 24 46  1  0  0  0  0
 25 26  2  0  0  0  0
 25 47  1  0  0  0  0
 26 27  1  0  0  0  0
 26 48  1  0  0  0  0
 27 28  1  0  0  0  0
 28 29  2  0  0  0  0
M  END
$$$$
