
 OpenBabel07202414203D

 57 60  0  0  1  0  0  0  0  0999 V2000
    5.2688    1.6286    3.8016 O   0  0  0  0  0  0  0  0  0  0  0  0
    4.9792    0.3960    3.1438 C   0  0  0  0  0  0  0  0  0  0  0  0
    5.0465    0.5579    1.6173 C   0  0  1  0  0  0  0  0  0  0  0  0
    4.0403    1.4959    1.2135 O   0  0  0  0  0  0  0  0  0  0  0  0
    3.9686    1.6933   -0.1941 C   0  0  3  0  0  0  0  0  0  0  0  0
    2.8898    2.5890   -0.4101 O   0  0  0  0  0  0  0  0  0  0  0  0
    5.3090    2.2345   -0.7697 C   0  0  2  0  0  0  0  0  0  0  0  0
    5.2751    2.3379   -2.2503 N   0  0  0  0  0  0  0  0  0  0  0  0
    5.4449    3.5560   -2.9142 C   0  0  0  0  0  0  0  0  0  0  0  0
    5.0079    4.7824   -2.4115 C   0  0  0  0  0  0  0  0  0  0  0  0
    5.0949    5.9426   -3.1889 C   0  0  0  0  0  0  0  0  0  0  0  0
    4.5249    7.4401   -2.5563 Cl  0  0  0  0  0  0  0  0  0  0  0  0
    5.6254    5.9052   -4.4760 C   0  0  0  0  0  0  0  0  0  0  0  0
    6.0812    4.6951   -5.0052 C   0  0  0  0  0  0  0  0  0  0  0  0
    6.6671    4.6404   -6.3975 C   0  0  0  0  0  0  0  0  0  0  0  0
    8.1066    4.1613   -6.4846 C   0  0  0  0  0  0  0  0  0  0  0  0
    8.4471    3.3381   -7.3311 O   0  0  0  0  0  0  0  0  0  0  0  0
    8.9672    4.7427   -5.5698 N   0  0  0  0  0  0  0  0  0  0  0  0
   10.3503    4.4375   -5.5261 C   0  0  0  0  0  0  0  0  0  0  0  0
   11.1112    4.3815   -6.6940 C   0  0  0  0  0  0  0  0  0  0  0  0
   12.4424    4.1394   -6.7305 N   0  0  0  0  0  0  0  0  0  0  0  0
   13.0342    3.9065   -5.5420 C   0  0  0  0  0  0  0  0  0  0  0  0
   12.3824    3.9130   -4.3097 C   0  0  0  0  0  0  0  0  0  0  0  0
   10.9984    4.1996   -4.2889 C   0  0  0  0  0  0  0  0  0  0  0  0
   10.3410    4.1583   -3.0341 C   0  0  0  0  0  0  0  0  0  0  0  0
   11.0276    3.8525   -1.8577 C   0  0  0  0  0  0  0  0  0  0  0  0
   12.3911    3.5843   -1.8977 C   0  0  0  0  0  0  0  0  0  0  0  0
   13.0651    3.6155   -3.1184 C   0  0  0  0  0  0  0  0  0  0  0  0
    5.9535    3.5306   -4.2276 C   0  0  0  0  0  0  0  0  0  0  0  0
    6.4190    1.2318   -0.3688 C   0  0  1  0  0  0  0  0  0  0  0  0
    7.6987    1.6657   -0.8506 O   0  0  0  0  0  0  0  0  0  0  0  0
    6.4387    1.0122    1.1528 C   0  0  2  0  0  0  0  0  0  0  0  0
    7.4361    0.0485    1.5077 O   0  0  0  0  0  0  0  0  0  0  0  0
    5.0631    1.4986    4.7439 H   0  0  0  0  0  0  0  0  0  0  0  0
    3.9679    0.0929    3.4388 H   0  0  0  0  0  0  0  0  0  0  0  0
    5.6900   -0.3580    3.4932 H   0  0  0  0  0  0  0  0  0  0  0  0
    4.8087   -0.4200    1.1780 H   0  0  0  0  0  0  0  0  0  0  0  0
    3.6990    0.7454   -0.6753 H   0  0  0  0  0  0  0  0  0  0  0  0
    3.0595    3.3380    0.1828 H   0  0  0  0  0  0  0  0  0  0  0  0
    5.5451    3.2037   -0.3141 H   0  0  0  0  0  0  0  0  0  0  0  0
    5.8381    1.6077   -2.6864 H   0  0  0  0  0  0  0  0  0  0  0  0
    4.5609    4.8534   -1.4257 H   0  0  0  0  0  0  0  0  0  0  0  0
    5.6615    6.8156   -5.0714 H   0  0  0  0  0  0  0  0  0  0  0  0
    6.6386    5.6302   -6.8691 H   0  0  0  0  0  0  0  0  0  0  0  0
    6.0440    3.9778   -7.0106 H   0  0  0  0  0  0  0  0  0  0  0  0
    8.5503    5.1069   -4.7246 H   0  0  0  0  0  0  0  0  0  0  0  0
   10.6693    4.5785   -7.6678 H   0  0  0  0  0  0  0  0  0  0  0  0
   14.1031    3.6891   -5.6131 H   0  0  0  0  0  0  0  0  0  0  0  0
    9.2702    4.3227   -2.9552 H   0  0  0  0  0  0  0  0  0  0  0  0
   10.4914    3.8039   -0.9136 H   0  0  0  0  0  0  0  0  0  0  0  0
   12.9233    3.3343   -0.9834 H   0  0  0  0  0  0  0  0  0  0  0  0
   14.1299    3.3823   -3.1322 H   0  0  0  0  0  0  0  0  0  0  0  0
    6.2564    2.5762   -4.6592 H   0  0  0  0  0  0  0  0  0  0  0  0
    6.2413    0.2685   -0.8653 H   0  0  0  0  0  0  0  0  0  0  0  0
    8.0262    2.3625   -0.2564 H   0  0  0  0  0  0  0  0  0  0  0  0
    6.7223    1.9543    1.6367 H   0  0  0  0  0  0  0  0  0  0  0  0
    7.3254   -0.7435    0.9535 H   0  0  0  0  0  0  0  0  0  0  0  0
  1  2  1  0  0  0  0
  1 34  1  0  0  0  0
  2 35  1  0  0  0  0
  2 36  1  0  0  0  0
  3  4  1  0  0  0  0
  3 32  1  0  0  0  0
  3  2  1  0  0  0  0
  3 37  1  6  0  0  0
  4  5  1  0  0  0  0
  5  6  1  0  0  0  0
  5  7  1  0  0  0  0
  5 38  1  0  0  0  0
  6 39  1  0  0  0  0
  7 30  1  0  0  0  0
  7  8  1  0  0  0  0
  7 40  1  1  0  0  0
  8  9  1  0  0  0  0
  8 41  1  0  0  0  0
  9 10  2  0  0  0  0
  9 29  1  0  0  0  0
 10 11  1  0  0  0  0
 10 42  1  0  0  0  0
 11 12  1  0  0  0  0
 11 13  2  0  0  0  0
 13 14  1  0  0  0  0
 13 43  1  0  0  0  0
 14 15  1  0  0  0  0
 14 29  2  0  0  0  0
 15 16  1  0  0  0  0
 15 44  1  0  0  0  0
 15 45  1  0  0  0  0
 16 17  2  0  0  0  0
 16 18  1  0  0  0  0
 18 19  1  0  0  0  0
 18 46  1  0  0  0  0
 19 20  2  0  0  0  0
 19 24  1  0  0  0  0
 20 21  1  0  0  0  0
 20 47  1  0  0  0  0
 21 22  2  0  0  0  0
 22 23  1  0  0  0  0
 22 48  1  0  0  0  0
 23 24  2  0  0  0  0
 23 28  1  0  0  0  0
 24 25  1  0  0  0  0
 25 26  2  0  0  0  0
 25 49  1  0  0  0  0
 26 27  1  0  0  0  0
 26 50  1  0  0  0  0
 27 28  2  0  0  0  0
 27 51  1  0  0  0  0
 28 52  1  0  0  0  0
 29 53  1  0  0  0  0
 30 31  1  0  0  0  0
 30 32  1  0  0  0  0
 30 54  1  6  0  0  0
 31 55  1  0  0  0  0
 32 33  1  0  0  0  0
 32 56  1  1  0  0  0
 33 57  1  0  0  0  0
M  END
$$$$
