
 OpenBabel07202414133D

 55 58  0  0  0  0  0  0  0  0999 V2000
    1.7249   -2.8681   -0.6859 C   0  0  0  0  0  0  0  0  0  0  0  0
    2.5724   -1.7436   -0.1091 C   0  0  0  0  0  0  0  0  0  0  0  0
    3.0858   -0.8374   -1.1588 N   0  0  0  0  0  0  0  0  0  0  0  0
    2.3520    0.4340   -1.3675 C   0  0  0  0  0  0  0  0  0  0  0  0
    1.2931    0.4051   -2.4599 C   0  0  0  0  0  0  0  0  0  0  0  0
    1.0283   -0.7230   -3.2499 C   0  0  0  0  0  0  0  0  0  0  0  0
   -0.0339   -0.7312   -4.1581 C   0  0  0  0  0  0  0  0  0  0  0  0
   -0.8159    0.4048   -4.3128 C   0  0  0  0  0  0  0  0  0  0  0  0
   -1.8535    0.3850   -5.1598 F   0  0  0  0  0  0  0  0  0  0  0  0
   -0.5352    1.5612   -3.5996 C   0  0  0  0  0  0  0  0  0  0  0  0
    0.5169    1.5621   -2.6775 C   0  0  0  0  0  0  0  0  0  0  0  0
    4.4673   -0.7758   -1.4058 C   0  0  0  0  0  0  0  0  0  0  0  0
    5.4385   -1.2092   -0.4823 C   0  0  0  0  0  0  0  0  0  0  0  0
    6.8144   -1.2220   -0.7725 C   0  0  0  0  0  0  0  0  0  0  0  0
    7.7927   -1.8490    0.1968 C   0  0  0  0  0  0  0  0  0  0  0  0
    7.7999   -1.2808    1.6048 C   0  0  0  0  0  0  0  0  0  0  0  0
    7.7514   -2.0201    2.5858 O   0  0  0  0  0  0  0  0  0  0  0  0
    7.8989    0.0966    1.6676 N   0  0  0  0  0  0  0  0  0  0  0  0
    7.9703    0.7969    2.8972 C   0  0  0  0  0  0  0  0  0  0  0  0
    8.8212    0.3737    3.9172 C   0  0  0  0  0  0  0  0  0  0  0  0
    8.9938    1.0285    5.0896 N   0  0  0  0  0  0  0  0  0  0  0  0
    8.2515    2.1454    5.2629 C   0  0  0  0  0  0  0  0  0  0  0  0
    7.3429    2.6493    4.3342 C   0  0  0  0  0  0  0  0  0  0  0  0
    6.5675    3.7868    4.6038 C   0  0  0  0  0  0  0  0  0  0  0  0
    5.6218    4.2481    3.6809 C   0  0  0  0  0  0  0  0  0  0  0  0
    5.4604    3.5748    2.4744 C   0  0  0  0  0  0  0  0  0  0  0  0
    6.2384    2.4537    2.1863 C   0  0  0  0  0  0  0  0  0  0  0  0
    7.1991    1.9638    3.1025 C   0  0  0  0  0  0  0  0  0  0  0  0
    7.2435   -0.7388   -2.0096 C   0  0  0  0  0  0  0  0  0  0  0  0
    6.3086   -0.2689   -2.9286 C   0  0  0  0  0  0  0  0  0  0  0  0
    6.8462    0.3222   -4.4537 Cl  0  0  0  0  0  0  0  0  0  0  0  0
    4.9422   -0.2952   -2.6370 C   0  0  0  0  0  0  0  0  0  0  0  0
    1.6425   -3.6798    0.0459 H   0  0  0  0  0  0  0  0  0  0  0  0
    2.1676   -3.2888   -1.5942 H   0  0  0  0  0  0  0  0  0  0  0  0
    0.7107   -2.5263   -0.9105 H   0  0  0  0  0  0  0  0  0  0  0  0
    3.3665   -2.2502    0.4410 H   0  0  0  0  0  0  0  0  0  0  0  0
    2.0029   -1.1913    0.6456 H   0  0  0  0  0  0  0  0  0  0  0  0
    3.0401    1.2622   -1.5891 H   0  0  0  0  0  0  0  0  0  0  0  0
    1.8521    0.7146   -0.4314 H   0  0  0  0  0  0  0  0  0  0  0  0
    1.6386   -1.6163   -3.1543 H   0  0  0  0  0  0  0  0  0  0  0  0
   -0.2589   -1.6215   -4.7360 H   0  0  0  0  0  0  0  0  0  0  0  0
   -1.1439    2.4466   -3.7537 H   0  0  0  0  0  0  0  0  0  0  0  0
    0.7201    2.4747   -2.1191 H   0  0  0  0  0  0  0  0  0  0  0  0
    5.1482   -1.5549    0.5060 H   0  0  0  0  0  0  0  0  0  0  0  0
    8.8170   -1.7843   -0.1835 H   0  0  0  0  0  0  0  0  0  0  0  0
    7.5456   -2.9163    0.2693 H   0  0  0  0  0  0  0  0  0  0  0  0
    7.5764    0.6094    0.8577 H   0  0  0  0  0  0  0  0  0  0  0  0
    9.4435   -0.5099    3.8070 H   0  0  0  0  0  0  0  0  0  0  0  0
    8.4033    2.6317    6.2246 H   0  0  0  0  0  0  0  0  0  0  0  0
    6.6714    4.3158    5.5497 H   0  0  0  0  0  0  0  0  0  0  0  0
    5.0215    5.1172    3.9068 H   0  0  0  0  0  0  0  0  0  0  0  0
    4.7134    3.9180    1.7598 H   0  0  0  0  0  0  0  0  0  0  0  0
    6.0438    1.9419    1.2456 H   0  0  0  0  0  0  0  0  0  0  0  0
    8.2989   -0.7494   -2.2715 H   0  0  0  0  0  0  0  0  0  0  0  0
    4.2377    0.0330   -3.3984 H   0  0  0  0  0  0  0  0  0  0  0  0
  1  2  1  0  0  0  0
  1 33  1  0  0  0  0
  1 34  1  0  0  0  0
  1 35  1  0  0  0  0
  2  3  1  0  0  0  0
  2 36  1  0  0  0  0
  2 37  1  0  0  0  0
  3  4  1  0  0  0  0
  3 12  1  0  0  0  0
  4  5  1  0  0  0  0
  4 38  1  0  0  0  0
  4 39  1  0  0  0  0
  5  6  2  0  0  0  0
  5 11  1  0  0  0  0
  6  7  1  0  0  0  0
  6 40  1  0  0  0  0
  7  8  2  0  0  0  0
  7 41  1  0  0  0  0
  8  9  1  0  0  0  0
  8 10  1  0  0  0  0
 10 11  2  0  0  0  0
 10 42  1  0  0  0  0
 11 43  1  0  0  0  0
 12 13  2  0  0  0  0
 12 32  1  0  0  0  0
 13 14  1  0  0  0  0
 13 44  1  0  0  0  0
 14 15  1  0  0  0  0
 14 29  2  0  0  0  0
 15 16  1  0  0  0  0
 15 45  1  0  0  0  0
 15 46  1  0  0  0  0
 16 17  2  0  0  0  0
 16 18  1  0  0  0  0
 18 19  1  0  0  0  0
 18 47  1  0  0  0  0
 19 20  2  0  0  0  0
 19 28  1  0  0  0  0
 20 21  1  0  0  0  0
 20 48  1  0  0  0  0
 21 22  2  0  0  0  0
 22 23  1  0  0  0  0
 22 49  1  0  0  0  0
 23 24  2  0  0  0  0
 23 28  1  0  0  0  0
 24 25  1  0  0  0  0
 24 50  1  0  0  0  0
 25 26  2  0  0  0  0
 25 51  1  0  0  0  0
 26 27  1  0  0  0  0
 26 52  1  0  0  0  0
 27 28  2  0  0  0  0
 27 53  1  0  0  0  0
 29 30  1  0  0  0  0
 29 54  1  0  0  0  0
 30 31  1  0  0  0  0
 30 32  2  0  0  0  0
 32 55  1  0  0  0  0
M  END
$$$$
