
 OpenBabel07202414203D

 40 42  0  0  0  0  0  0  0  0999 V2000
   -0.8772   -0.8522   -1.0634 C   0  0  0  0  0  0  0  0  0  0  0  0
    0.4275   -1.1585   -0.6929 C   0  0  0  0  0  0  0  0  0  0  0  0
    1.1616   -0.2553    0.0794 C   0  0  0  0  0  0  0  0  0  0  0  0
    0.6060    0.9735    0.4775 C   0  0  0  0  0  0  0  0  0  0  0  0
   -0.6910    1.3060    0.0457 C   0  0  0  0  0  0  0  0  0  0  0  0
   -1.4283    0.3792   -0.7085 C   0  0  0  0  0  0  0  0  0  0  0  0
   -1.2573    2.5665    0.3552 N   0  0  0  0  0  0  0  0  0  0  0  0
   -2.5363    2.6799    0.8639 C   0  0  0  0  0  0  0  0  0  0  0  0
   -3.2299    1.7155    1.1664 O   0  0  0  0  0  0  0  0  0  0  0  0
   -2.9236    4.0081    0.9848 N   0  0  0  0  0  0  0  0  0  0  0  0
   -4.1188    4.4249    1.6061 C   0  0  0  0  0  0  0  0  0  0  0  0
   -4.7565    3.6508    2.5801 C   0  0  0  0  0  0  0  0  0  0  0  0
   -5.9689    4.0539    3.1358 C   0  0  0  0  0  0  0  0  0  0  0  0
   -6.5498    5.2524    2.7373 C   0  0  0  0  0  0  0  0  0  0  0  0
   -5.9072    6.0724    1.7981 C   0  0  0  0  0  0  0  0  0  0  0  0
   -4.6802    5.6538    1.2437 C   0  0  0  0  0  0  0  0  0  0  0  0
   -6.5249    7.3832    1.3803 C   0  0  0  0  0  0  0  0  0  0  0  0
   -7.7137    7.6475    1.9922 F   0  0  0  0  0  0  0  0  0  0  0  0
   -5.7204    8.4467    1.6571 F   0  0  0  0  0  0  0  0  0  0  0  0
   -6.7738    7.4415    0.0429 F   0  0  0  0  0  0  0  0  0  0  0  0
    1.4266    1.8086    1.8386 S   0  0  0  0  0  0  0  0  0  0  0  0
    1.9321    3.3072    1.1125 C   0  0  0  0  0  0  0  0  0  0  0  0
    1.0749    4.1739    0.6073 N   0  0  0  0  0  0  0  0  0  0  0  0
    1.7613    5.3279    0.2493 C   0  0  0  0  0  0  0  0  0  0  0  0
    3.1112    5.3006    0.5100 C   0  0  0  0  0  0  0  0  0  0  0  0
    3.5675    3.8214    1.2007 S   0  0  0  0  0  0  0  0  0  0  0  0
    4.0608    6.3391    0.2696 N   0  3  0  0  0  0  0  0  0  0  0  0
    3.6220    7.3670   -0.2617 O   0  0  0  0  0  0  0  0  0  0  0  0
    5.2364    6.1467    0.6058 O   0  5  0  0  0  0  0  0  0  0  0  0
   -1.4741   -1.5735   -1.6168 H   0  0  0  0  0  0  0  0  0  0  0  0
    0.8560   -2.1211   -0.9616 H   0  0  0  0  0  0  0  0  0  0  0  0
    2.1510   -0.5517    0.4216 H   0  0  0  0  0  0  0  0  0  0  0  0
   -2.4488    0.6022   -1.0138 H   0  0  0  0  0  0  0  0  0  0  0  0
   -0.6069    3.2793    0.6743 H   0  0  0  0  0  0  0  0  0  0  0  0
   -2.4804    4.6381    0.3309 H   0  0  0  0  0  0  0  0  0  0  0  0
   -4.3235    2.7164    2.9292 H   0  0  0  0  0  0  0  0  0  0  0  0
   -6.4569    3.4221    3.8737 H   0  0  0  0  0  0  0  0  0  0  0  0
   -7.5063    5.5446    3.1674 H   0  0  0  0  0  0  0  0  0  0  0  0
   -4.1931    6.2843    0.5024 H   0  0  0  0  0  0  0  0  0  0  0  0
    1.2165    6.1588   -0.1861 H   0  0  0  0  0  0  0  0  0  0  0  0
  1  2  1  0  0  0  0
  1  6  2  0  0  0  0
  1 30  1  0  0  0  0
  2  3  2  0  0  0  0
  2 31  1  0  0  0  0
  3  4  1  0  0  0  0
  3 32  1  0  0  0  0
  4  5  2  0  0  0  0
  4 21  1  0  0  0  0
  5  6  1  0  0  0  0
  5  7  1  0  0  0  0
  6 33  1  0  0  0  0
  7  8  1  0  0  0  0
  7 34  1  0  0  0  0
  8  9  2  0  0  0  0
  8 10  1  0  0  0  0
 10 11  1  0  0  0  0
 10 35  1  0  0  0  0
 11 12  1  0  0  0  0
 11 16  2  0  0  0  0
 12 13  2  0  0  0  0
 12 36  1  0  0  0  0
 13 14  1  0  0  0  0
 13 37  1  0  0  0  0
 14 15  2  0  0  0  0
 14 38  1  0  0  0  0
 15 16  1  0  0  0  0
 15 17  1  0  0  0  0
 16 39  1  0  0  0  0
 17 18  1  0  0  0  0
 17 19  1  0  0  0  0
 17 20  1  0  0  0  0
 21 22  1  0  0  0  0
 22 23  2  0  0  0  0
 22 26  1  0  0  0  0
 23 24  1  0  0  0  0
 24 25  2  0  0  0  0
 24 40  1  0  0  0  0
 25 26  1  0  0  0  0
 25 27  1  0  0  0  0
 27 28  2  0  0  0  0
 27 29  1  0  0  0  0
M  CHG  2  27   1  29  -1
M  END
$$$$
