
 OpenBabel07202414183D

 56 60  0  0  1  0  0  0  0  0999 V2000
    9.9950   -1.0952    5.5727 C   0  0  0  0  0  0  0  0  0  0  0  0
   10.1085   -1.7713    4.3058 N   0  0  0  0  0  0  0  0  0  0  0  0
    9.0968   -2.2202    3.4953 C   0  0  0  0  0  0  0  0  0  0  0  0
    9.7025   -2.8860    2.4700 C   0  0  0  0  0  0  0  0  0  0  0  0
   11.0793   -2.7299    2.6795 C   0  0  0  0  0  0  0  0  0  0  0  0
   11.3388   -2.0531    3.8073 N   0  0  0  0  0  0  0  0  0  0  0  0
    8.8946   -3.5235    1.4655 C   0  0  0  0  0  0  0  0  0  0  0  0
    9.3592   -4.0556    0.4704 O   0  0  0  0  0  0  0  0  0  0  0  0
    7.5130   -3.4290    1.7215 N   0  0  0  0  0  0  0  0  0  0  0  0
    7.0414   -2.6315    2.7621 C   0  0  0  0  0  0  0  0  0  0  0  0
    7.7643   -2.0293    3.6678 N   0  0  0  0  0  0  0  0  0  0  0  0
    6.6180   -3.9820    0.6909 C   0  0  0  0  0  0  0  0  0  0  0  0
    6.1822   -5.4740    0.7562 C   0  0  0  0  0  0  0  0  0  0  0  0
    5.1827   -5.8416    1.3898 O   0  0  0  0  0  0  0  0  0  0  0  0
    6.9501   -6.3684    0.0299 N   0  0  0  0  0  0  0  0  0  0  0  0
    6.6337   -7.8108   -0.0964 C   0  0  3  0  0  0  0  0  0  0  0  0
    5.7258   -8.0684   -1.3249 C   0  0  0  0  0  0  0  0  0  0  0  0
    4.3166   -8.0611   -1.2181 C   0  0  0  0  0  0  0  0  0  0  0  0
    3.4852   -8.1563   -2.3534 C   0  0  0  0  0  0  0  0  0  0  0  0
    4.0329   -8.2992   -3.6213 C   0  0  0  0  0  0  0  0  0  0  0  0
    5.4162   -8.3433   -3.7478 C   0  0  0  0  0  0  0  0  0  0  0  0
    6.2480   -8.2214   -2.6233 C   0  0  0  0  0  0  0  0  0  0  0  0
    6.1210   -8.5430   -5.3069 Cl  0  0  0  0  0  0  0  0  0  0  0  0
    7.9997   -8.6433   -0.0816 C   0  0  0  0  0  0  0  0  0  0  0  0
    9.0392   -8.1657   -0.5154 O   0  0  0  0  0  0  0  0  0  0  0  0
    7.8794   -9.9201    0.4673 N   0  0  0  0  0  0  0  0  0  0  0  0
    8.8790  -10.9340    0.6734 C   0  0  0  0  0  0  0  0  0  0  0  0
   10.2234  -10.7914    0.3261 C   0  0  0  0  0  0  0  0  0  0  0  0
   11.1765  -11.7401    0.5243 N   0  0  0  0  0  0  0  0  0  0  0  0
   10.7922  -12.8854    1.1331 C   0  0  0  0  0  0  0  0  0  0  0  0
    9.4923  -13.1489    1.5570 C   0  0  0  0  0  0  0  0  0  0  0  0
    8.5015  -12.1671    1.3001 C   0  0  0  0  0  0  0  0  0  0  0  0
    7.1874  -12.4889    1.6996 C   0  0  0  0  0  0  0  0  0  0  0  0
    6.8784  -13.6738    2.3904 C   0  0  0  0  0  0  0  0  0  0  0  0
    7.8761  -14.5918    2.6730 C   0  0  0  0  0  0  0  0  0  0  0  0
    9.1740  -14.3488    2.2295 C   0  0  0  0  0  0  0  0  0  0  0  0
    8.9430   -0.9707    5.8380 H   0  0  0  0  0  0  0  0  0  0  0  0
   10.4772   -0.1166    5.4917 H   0  0  0  0  0  0  0  0  0  0  0  0
   10.4955   -1.7025    6.3315 H   0  0  0  0  0  0  0  0  0  0  0  0
   11.9054   -3.0745    2.0713 H   0  0  0  0  0  0  0  0  0  0  0  0
    5.9480   -2.4985    2.7952 H   0  0  0  0  0  0  0  0  0  0  0  0
    7.1049   -3.8602   -0.2814 H   0  0  0  0  0  0  0  0  0  0  0  0
    5.7073   -3.3685    0.6587 H   0  0  0  0  0  0  0  0  0  0  0  0
    7.8163   -6.0536   -0.4091 H   0  0  0  0  0  0  0  0  0  0  0  0
    6.0764   -8.0951    0.8072 H   0  0  0  0  0  0  0  0  0  0  0  0
    3.8143   -7.9584   -0.2559 H   0  0  0  0  0  0  0  0  0  0  0  0
    2.4023   -8.1123   -2.2412 H   0  0  0  0  0  0  0  0  0  0  0  0
    3.3907   -8.3672   -4.4974 H   0  0  0  0  0  0  0  0  0  0  0  0
    7.3231   -8.2298   -2.7954 H   0  0  0  0  0  0  0  0  0  0  0  0
    6.9563  -10.1675    0.7811 H   0  0  0  0  0  0  0  0  0  0  0  0
   10.6178   -9.8865   -0.1276 H   0  0  0  0  0  0  0  0  0  0  0  0
   11.5905  -13.6079    1.2841 H   0  0  0  0  0  0  0  0  0  0  0  0
    6.3433  -11.8422    1.4860 H   0  0  0  0  0  0  0  0  0  0  0  0
    5.8552  -13.8659    2.7042 H   0  0  0  0  0  0  0  0  0  0  0  0
    7.6441  -15.4979    3.2283 H   0  0  0  0  0  0  0  0  0  0  0  0
    9.9397  -15.0967    2.4254 H   0  0  0  0  0  0  0  0  0  0  0  0
  1  2  1  0  0  0  0
  1 37  1  0  0  0  0
  1 38  1  0  0  0  0
  1 39  1  0  0  0  0
  2  3  1  0  0  0  0
  2  6  1  0  0  0  0
  3  4  2  0  0  0  0
  3 11  1  0  0  0  0
  4  5  1  0  0  0  0
  4  7  1  0  0  0  0
  5  6  2  0  0  0  0
  5 40  1  0  0  0  0
  7  8  2  0  0  0  0
  7  9  1  0  0  0  0
  9 10  1  0  0  0  0
  9 12  1  0  0  0  0
 10 11  2  0  0  0  0
 10 41  1  0  0  0  0
 12 13  1  0  0  0  0
 12 42  1  0  0  0  0
 12 43  1  0  0  0  0
 13 14  2  0  0  0  0
 13 15  1  0  0  0  0
 15 16  1  0  0  0  0
 15 44  1  0  0  0  0
 16 17  1  0  0  0  0
 16 24  1  0  0  0  0
 16 45  1  0  0  0  0
 17 18  1  0  0  0  0
 17 22  2  0  0  0  0
 18 19  2  0  0  0  0
 18 46  1  0  0  0  0
 19 20  1  0  0  0  0
 19 47  1  0  0  0  0
 20 21  2  0  0  0  0
 20 48  1  0  0  0  0
 21 22  1  0  0  0  0
 21 23  1  0  0  0  0
 22 49  1  0  0  0  0
 24 25  2  0  0  0  0
 24 26  1  0  0  0  0
 26 27  1  0  0  0  0
 26 50  1  0  0  0  0
 27 28  1  0  0  0  0
 27 32  2  0  0  0  0
 28 29  2  0  0  0  0
 28 51  1  0  0  0  0
 29 30  1  0  0  0  0
 30 31  2  0  0  0  0
 30 52  1  0  0  0  0
 31 32  1  0  0  0  0
 31 36  1  0  0  0  0
 32 33  1  0  0  0  0
 33 34  2  0  0  0  0
 33 53  1  0  0  0  0
 34 35  1  0  0  0  0
 34 54  1  0  0  0  0
 35 36  2  0  0  0  0
 35 55  1  0  0  0  0
 36 56  1  0  0  0  0
M  END
$$$$
