
 OpenBabel07202414123D

 60 63  0  0  1  0  0  0  0  0999 V2000
    1.1567    1.0829    0.4214 C   0  0  0  0  0  0  0  0  0  0  0  0
    2.4800    0.3019    0.1957 C   0  0  0  0  0  0  0  0  0  0  0  0
    3.4593    0.6542    1.3287 C   0  0  0  0  0  0  0  0  0  0  0  0
    2.1069   -1.1941    0.3130 C   0  0  0  0  0  0  0  0  0  0  0  0
    3.1416    0.6390   -1.1544 C   0  0  0  0  0  0  0  0  0  0  0  0
    2.9733    1.8913   -1.7414 C   0  0  0  0  0  0  0  0  0  0  0  0
    3.4759    2.1738   -3.0228 C   0  0  0  0  0  0  0  0  0  0  0  0
    4.2128    1.2522   -3.7879 C   0  0  0  0  0  0  0  0  0  0  0  0
    4.5757    1.5032   -5.1952 N   0  0  0  0  0  0  0  0  0  0  0  0
    4.9782    0.3367   -6.0796 C   0  0  3  0  0  0  0  0  0  0  0  0
    3.8465    0.0077   -7.1174 C   0  0  0  0  0  0  0  0  0  0  0  0
    4.0136   -0.6295   -8.1550 O   0  0  0  0  0  0  0  0  0  0  0  0
    2.5722    0.3666   -6.6863 N   0  0  0  0  0  0  0  0  0  0  0  0
    1.3647    0.1981   -7.4985 C   0  0  0  0  0  0  0  0  0  0  0  0
    1.2719    1.0360   -8.8020 C   0  0  0  0  0  0  0  0  0  0  0  0
   -0.2221    1.2532   -8.4693 C   0  0  0  0  0  0  0  0  0  0  0  0
   -0.7274    2.4689   -8.7708 F   0  0  0  0  0  0  0  0  0  0  0  0
   -1.0674    0.3343   -8.9887 F   0  0  0  0  0  0  0  0  0  0  0  0
    0.1634    1.0329   -6.9876 C   0  0  0  0  0  0  0  0  0  0  0  0
    6.4263    0.3262   -6.5950 C   0  0  0  0  0  0  0  0  0  0  0  0
    6.9529   -0.7795   -7.2843 C   0  0  0  0  0  0  0  0  0  0  0  0
    8.3257   -0.8675   -7.5488 C   0  0  0  0  0  0  0  0  0  0  0  0
    9.1383    0.1749   -7.1441 C   0  0  0  0  0  0  0  0  0  0  0  0
    8.6706    1.2919   -6.5614 N   0  0  0  0  0  0  0  0  0  0  0  0
    7.3408    1.3369   -6.2997 C   0  0  0  0  0  0  0  0  0  0  0  0
    4.4472    2.8194   -5.7396 C   0  0  0  0  0  0  0  0  0  0  0  0
    4.1192    3.8033   -5.0779 O   0  0  0  0  0  0  0  0  0  0  0  0
    4.7747    3.0829   -7.1428 C   0  0  0  0  0  0  0  0  0  0  0  0
    5.1710    4.3388   -7.5887 C   0  0  0  0  0  0  0  0  0  0  0  0
    5.4360    4.2694   -8.9105 O   0  0  0  0  0  0  0  0  0  0  0  0
    5.1786    2.9710   -9.2209 C   0  0  0  0  0  0  0  0  0  0  0  0
    4.7684    2.2316   -8.2127 N   0  0  0  0  0  0  0  0  0  0  0  0
    4.5307    0.0662   -3.1104 C   0  0  0  0  0  0  0  0  0  0  0  0
    3.9846   -0.2431   -1.8390 C   0  0  0  0  0  0  0  0  0  0  0  0
    0.6972    0.8189    1.3819 H   0  0  0  0  0  0  0  0  0  0  0  0
    0.4275    0.8582   -0.3666 H   0  0  0  0  0  0  0  0  0  0  0  0
    1.3013    2.1675    0.4422 H   0  0  0  0  0  0  0  0  0  0  0  0
    3.0512    0.3746    2.3074 H   0  0  0  0  0  0  0  0  0  0  0  0
    3.6716    1.7294    1.3545 H   0  0  0  0  0  0  0  0  0  0  0  0
    4.4144    0.1310    1.2072 H   0  0  0  0  0  0  0  0  0  0  0  0
    1.6552   -1.4097    1.2878 H   0  0  0  0  0  0  0  0  0  0  0  0
    2.9749   -1.8529    0.2209 H   0  0  0  0  0  0  0  0  0  0  0  0
    1.3812   -1.4831   -0.4565 H   0  0  0  0  0  0  0  0  0  0  0  0
    2.4313    2.6880   -1.2418 H   0  0  0  0  0  0  0  0  0  0  0  0
    3.2091    3.1645   -3.3703 H   0  0  0  0  0  0  0  0  0  0  0  0
    4.9472   -0.5660   -5.4615 H   0  0  0  0  0  0  0  0  0  0  0  0
    2.4902    0.6177   -5.7053 H   0  0  0  0  0  0  0  0  0  0  0  0
    1.1155   -0.8586   -7.6482 H   0  0  0  0  0  0  0  0  0  0  0  0
    1.4567    0.4821   -9.7256 H   0  0  0  0  0  0  0  0  0  0  0  0
    1.8504    1.9673   -8.8184 H   0  0  0  0  0  0  0  0  0  0  0  0
   -0.5675    0.4780   -6.3938 H   0  0  0  0  0  0  0  0  0  0  0  0
    0.4253    1.9598   -6.4591 H   0  0  0  0  0  0  0  0  0  0  0  0
    6.3141   -1.5956   -7.6165 H   0  0  0  0  0  0  0  0  0  0  0  0
    8.7513   -1.7393   -8.0310 H   0  0  0  0  0  0  0  0  0  0  0  0
   10.2162    0.1322   -7.2655 H   0  0  0  0  0  0  0  0  0  0  0  0
    7.0506    2.2568   -5.8077 H   0  0  0  0  0  0  0  0  0  0  0  0
    5.3248    5.2831   -7.0839 H   0  0  0  0  0  0  0  0  0  0  0  0
    5.3307    2.6804  -10.2511 H   0  0  0  0  0  0  0  0  0  0  0  0
    5.2334   -0.6587   -3.5129 H   0  0  0  0  0  0  0  0  0  0  0  0
    4.2520   -1.2031   -1.3995 H   0  0  0  0  0  0  0  0  0  0  0  0
  1  2  1  0  0  0  0
  1 35  1  0  0  0  0
  1 36  1  0  0  0  0
  1 37  1  0  0  0  0
  2  3  1  0  0  0  0
  2  4  1  0  0  0  0
  2  5  1  0  0  0  0
  3 38  1  0  0  0  0
  3 39  1  0  0  0  0
  3 40  1  0  0  0  0
  4 41  1  0  0  0  0
  4 42  1  0  0  0  0
  4 43  1  0  0  0  0
  5  6  1  0  0  0  0
  5 34  2  0  0  0  0
  6  7  2  0  0  0  0
  6 44  1  0  0  0  0
  7  8  1  0  0  0  0
  7 45  1  0  0  0  0
  8  9  1  0  0  0  0
  8 33  2  0  0  0  0
  9 10  1  0  0  0  0
  9 26  1  0  0  0  0
 10 11  1  0  0  0  0
 10 20  1  0  0  0  0
 10 46  1  0  0  0  0
 11 12  2  0  0  0  0
 11 13  1  0  0  0  0
 13 14  1  0  0  0  0
 13 47  1  0  0  0  0
 14 15  1  0  0  0  0
 14 19  1  0  0  0  0
 14 48  1  0  0  0  0
 15 16  1  0  0  0  0
 15 49  1  0  0  0  0
 15 50  1  0  0  0  0
 16 17  1  0  0  0  0
 16 18  1  0  0  0  0
 16 19  1  0  0  0  0
 19 51  1  0  0  0  0
 19 52  1  0  0  0  0
 20 21  1  0  0  0  0
 20 25  2  0  0  0  0
 21 22  2  0  0  0  0
 21 53  1  0  0  0  0
 22 23  1  0  0  0  0
 22 54  1  0  0  0  0
 23 24  2  0  0  0  0
 23 55  1  0  0  0  0
 24 25  1  0  0  0  0
 25 56  1  0  0  0  0
 26 27  2  0  0  0  0
 26 28  1  0  0  0  0
 28 29  2  0  0  0  0
 28 32  1  0  0  0  0
 29 30  1  0  0  0  0
 29 57  1  0  0  0  0
 30 31  1  0  0  0  0
 31 32  2  0  0  0  0
 31 58  1  0  0  0  0
 33 34  1  0  0  0  0
 33 59  1  0  0  0  0
 34 60  1  0  0  0  0
M  END
$$$$
