
 OpenBabel07202414123D

 74 78  0  0  1  0  0  0  0  0999 V2000
    5.5062    1.4814   -0.3702 C   0  0  0  0  0  0  0  0  0  0  0  0
    5.2832    0.0141    0.0758 C   0  0  0  0  0  0  0  0  0  0  0  0
    6.5297   -0.4030    0.8818 C   0  0  0  0  0  0  0  0  0  0  0  0
    4.0564    0.0086    1.0121 C   0  0  0  0  0  0  0  0  0  0  0  0
    5.0378   -0.9490   -1.0970 C   0  0  0  0  0  0  0  0  0  0  0  0
    4.9733   -0.5112   -2.4129 C   0  0  0  0  0  0  0  0  0  0  0  0
    4.6384   -1.3789   -3.4718 C   0  0  0  0  0  0  0  0  0  0  0  0
    4.3896   -2.7546   -3.3253 C   0  0  0  0  0  0  0  0  0  0  0  0
    3.9475   -3.6218   -4.4602 N   0  0  0  0  0  0  0  0  0  0  0  0
    4.1137   -5.1235   -4.4157 C   0  0  3  0  0  0  0  0  0  0  0  0
    5.6001   -5.4663   -4.3216 C   0  0  0  0  0  0  0  0  0  0  0  0
    6.2017   -5.7281   -3.2742 O   0  0  0  0  0  0  0  0  0  0  0  0
    6.1812   -5.5257   -5.5672 N   0  0  0  0  0  0  0  0  0  0  0  0
    7.4976   -6.0401   -5.7454 C   0  0  0  0  0  0  0  0  0  0  0  0
    7.7689   -6.2279   -7.2310 C   0  0  0  0  0  0  0  0  0  0  0  0
    9.1591   -6.7420   -7.4176 C   0  0  0  0  0  0  0  0  0  0  0  0
   10.2247   -5.8324   -7.5368 C   0  0  0  0  0  0  0  0  0  0  0  0
   11.5362   -6.3110   -7.5910 C   0  0  0  0  0  0  0  0  0  0  0  0
   11.7854   -7.6791   -7.5396 C   0  0  0  0  0  0  0  0  0  0  0  0
   10.7307   -8.5670   -7.4165 C   0  0  0  0  0  0  0  0  0  0  0  0
   10.9639   -9.8846   -7.3348 F   0  0  0  0  0  0  0  0  0  0  0  0
    9.4135   -8.1163   -7.3586 C   0  0  0  0  0  0  0  0  0  0  0  0
    3.2668   -6.0150   -3.5540 C   0  0  0  0  0  0  0  0  0  0  0  0
    2.9087   -5.6950   -2.2890 C   0  0  0  0  0  0  0  0  0  0  0  0
    1.4453   -5.9863   -2.1352 C   0  0  0  0  0  0  0  0  0  0  0  0
    0.6871   -5.1491   -1.6911 O   0  0  0  0  0  0  0  0  0  0  0  0
    1.0778   -7.2425   -2.5284 N   0  0  0  0  0  0  0  0  0  0  0  0
    2.0637   -8.0938   -3.0463 C   0  0  0  0  0  0  0  0  0  0  0  0
    2.1194   -9.4057   -2.5793 C   0  0  0  0  0  0  0  0  0  0  0  0
    3.2110  -10.1940   -2.9197 C   0  0  0  0  0  0  0  0  0  0  0  0
    4.1536   -9.7097   -3.8319 C   0  0  0  0  0  0  0  0  0  0  0  0
    4.1124   -8.3747   -4.2721 C   0  0  0  0  0  0  0  0  0  0  0  0
    3.1438   -7.5160   -3.7493 C   0  0  0  0  0  0  0  0  0  0  0  0
    3.7790   -3.0161   -5.7632 C   0  0  0  0  0  0  0  0  0  0  0  0
    4.1437   -1.8775   -6.0443 O   0  0  0  0  0  0  0  0  0  0  0  0
    3.2386   -3.7766   -6.8857 C   0  0  0  0  0  0  0  0  0  0  0  0
    3.4912   -3.5984   -8.2370 C   0  0  0  0  0  0  0  0  0  0  0  0
    2.6783   -4.5235   -8.9243 C   0  0  0  0  0  0  0  0  0  0  0  0
    1.9647   -5.1935   -7.9591 C   0  0  0  0  0  0  0  0  0  0  0  0
    2.2924   -4.7484   -6.7192 O   0  0  0  0  0  0  0  0  0  0  0  0
    4.5710   -3.1952   -2.0096 C   0  0  0  0  0  0  0  0  0  0  0  0
    4.8414   -2.3215   -0.9197 C   0  0  0  0  0  0  0  0  0  0  0  0
    5.6687    2.1413    0.4901 H   0  0  0  0  0  0  0  0  0  0  0  0
    4.6393    1.8748   -0.9147 H   0  0  0  0  0  0  0  0  0  0  0  0
    6.3862    1.5748   -1.0181 H   0  0  0  0  0  0  0  0  0  0  0  0
    6.7115    0.2955    1.7088 H   0  0  0  0  0  0  0  0  0  0  0  0
    7.4265   -0.4076    0.2517 H   0  0  0  0  0  0  0  0  0  0  0  0
    6.4248   -1.4001    1.3216 H   0  0  0  0  0  0  0  0  0  0  0  0
    4.1891    0.7144    1.8410 H   0  0  0  0  0  0  0  0  0  0  0  0
    3.8804   -0.9785    1.4534 H   0  0  0  0  0  0  0  0  0  0  0  0
    3.1460    0.2980    0.4737 H   0  0  0  0  0  0  0  0  0  0  0  0
    5.1597    0.5259   -2.6789 H   0  0  0  0  0  0  0  0  0  0  0  0
    4.6177   -0.8595   -4.4188 H   0  0  0  0  0  0  0  0  0  0  0  0
    3.8504   -5.5022   -5.4039 H   0  0  0  0  0  0  0  0  0  0  0  0
    5.6902   -5.1450   -6.3662 H   0  0  0  0  0  0  0  0  0  0  0  0
    7.5692   -6.9956   -5.2064 H   0  0  0  0  0  0  0  0  0  0  0  0
    8.2019   -5.3448   -5.2762 H   0  0  0  0  0  0  0  0  0  0  0  0
    7.6345   -5.2788   -7.7658 H   0  0  0  0  0  0  0  0  0  0  0  0
    7.0403   -6.9217   -7.6720 H   0  0  0  0  0  0  0  0  0  0  0  0
   10.0353   -4.7660   -7.5474 H   0  0  0  0  0  0  0  0  0  0  0  0
   12.3556   -5.6042   -7.6609 H   0  0  0  0  0  0  0  0  0  0  0  0
   12.8086   -8.0614   -7.5584 H   0  0  0  0  0  0  0  0  0  0  0  0
    8.6061   -8.8342   -7.2380 H   0  0  0  0  0  0  0  0  0  0  0  0
    3.3736   -6.3157   -1.4986 H   0  0  0  0  0  0  0  0  0  0  0  0
    0.2351   -7.1593   -3.0838 H   0  0  0  0  0  0  0  0  0  0  0  0
    1.3998   -9.7521   -1.8422 H   0  0  0  0  0  0  0  0  0  0  0  0
    3.3440  -11.1660   -2.4490 H   0  0  0  0  0  0  0  0  0  0  0  0
    4.9786  -10.3564   -4.1268 H   0  0  0  0  0  0  0  0  0  0  0  0
    4.9178   -8.0290   -4.9106 H   0  0  0  0  0  0  0  0  0  0  0  0
    4.1694   -2.8635   -8.6603 H   0  0  0  0  0  0  0  0  0  0  0  0
    2.6106   -4.6791   -9.9963 H   0  0  0  0  0  0  0  0  0  0  0  0
    1.2111   -5.9690   -7.9859 H   0  0  0  0  0  0  0  0  0  0  0  0
    4.5146   -4.2327   -1.7319 H   0  0  0  0  0  0  0  0  0  0  0  0
    4.8852   -2.7555    0.0782 H   0  0  0  0  0  0  0  0  0  0  0  0
  1  2  1  0  0  0  0
  1 43  1  0  0  0  0
  1 44  1  0  0  0  0
  1 45  1  0  0  0  0
  2  3  1  0  0  0  0
  2  4  1  0  0  0  0
  2  5  1  0  0  0  0
  3 46  1  0  0  0  0
  3 47  1  0  0  0  0
  3 48  1  0  0  0  0
  4 49  1  0  0  0  0
  4 50  1  0  0  0  0
  4 51  1  0  0  0  0
  5  6  1  0  0  0  0
  5 42  2  0  0  0  0
  6  7  2  0  0  0  0
  6 52  1  0  0  0  0
  7  8  1  0  0  0  0
  7 53  1  0  0  0  0
  8  9  1  0  0  0  0
  8 41  2  0  0  0  0
  9 10  1  0  0  0  0
  9 34  1  0  0  0  0
 10 11  1  0  0  0  0
 10 23  1  0  0  0  0
 10 54  1  0  0  0  0
 11 12  2  0  0  0  0
 11 13  1  0  0  0  0
 13 14  1  0  0  0  0
 13 55  1  0  0  0  0
 14 15  1  0  0  0  0
 14 56  1  0  0  0  0
 14 57  1  0  0  0  0
 15 16  1  0  0  0  0
 15 58  1  0  0  0  0
 15 59  1  0  0  0  0
 16 17  1  0  0  0  0
 16 22  2  0  0  0  0
 17 18  2  0  0  0  0
 17 60  1  0  0  0  0
 18 19  1  0  0  0  0
 18 61  1  0  0  0  0
 19 20  2  0  0  0  0
 19 62  1  0  0  0  0
 20 21  1  0  0  0  0
 20 22  1  0  0  0  0
 22 63  1  0  0  0  0
 23 24  2  0  0  0  0
 23 33  1  0  0  0  0
 24 25  1  0  0  0  0
 24 64  1  0  0  0  0
 25 26  2  0  0  0  0
 25 27  1  0  0  0  0
 27 28  1  0  0  0  0
 27 65  1  0  0  0  0
 28 29  1  0  0  0  0
 28 33  2  0  0  0  0
 29 30  2  0  0  0  0
 29 66  1  0  0  0  0
 30 31  1  0  0  0  0
 30 67  1  0  0  0  0
 31 32  2  0  0  0  0
 31 68  1  0  0  0  0
 32 33  1  0  0  0  0
 32 69  1  0  0  0  0
 34 35  2  0  0  0  0
 34 36  1  0  0  0  0
 36 37  2  0  0  0  0
 36 40  1  0  0  0  0
 37 38  1  0  0  0  0
 37 70  1  0  0  0  0
 38 39  2  0  0  0  0
 38 71  1  0  0  0  0
 39 40  1  0  0  0  0
 39 72  1  0  0  0  0
 41 42  1  0  0  0  0
 41 73  1  0  0  0  0
 42 74  1  0  0  0  0
M  END
$$$$
