
 OpenBabel07202414153D

 47 49  0  0  0  0  0  0  0  0999 V2000
   -0.6829    4.9999    4.1784 C   0  0  0  0  0  0  0  0  0  0  0  0
   -0.2495    4.1978    3.0797 O   0  0  0  0  0  0  0  0  0  0  0  0
    0.0303    4.8603    1.9116 C   0  0  0  0  0  0  0  0  0  0  0  0
   -0.6028    6.0731    1.5943 C   0  0  0  0  0  0  0  0  0  0  0  0
   -0.2580    6.7818    0.4477 C   0  0  0  0  0  0  0  0  0  0  0  0
    0.7488    6.3011   -0.3759 C   0  0  0  0  0  0  0  0  0  0  0  0
    1.3557    5.0760   -0.0856 C   0  0  0  0  0  0  0  0  0  0  0  0
    0.9610    4.2860    1.0162 C   0  0  0  0  0  0  0  0  0  0  0  0
    1.5935    2.9382    1.1351 C   0  0  0  0  0  0  0  0  0  0  0  0
    2.6310    2.6182    0.3382 C   0  0  0  0  0  0  0  0  0  0  0  0
    3.1362    3.5324   -0.7027 C   0  0  0  0  0  0  0  0  0  0  0  0
    4.1174    3.2507   -1.3791 O   0  0  0  0  0  0  0  0  0  0  0  0
    2.4175    4.6716   -0.9025 N   0  0  0  0  0  0  0  0  0  0  0  0
    1.1409    1.7710    1.9688 C   0  0  0  0  0  0  0  0  0  0  0  0
    1.9191    0.8826    2.3122 O   0  0  0  0  0  0  0  0  0  0  0  0
   -0.1976    1.7161    2.2452 N   0  0  0  0  0  0  0  0  0  0  0  0
   -0.8002    0.6855    3.0711 C   0  0  0  0  0  0  0  0  0  0  0  0
   -1.8427    1.2679    4.0286 C   0  0  0  0  0  0  0  0  0  0  0  0
   -2.4604    0.2067    4.7605 O   0  0  0  0  0  0  0  0  0  0  0  0
   -3.4339    0.5483    5.6645 C   0  0  0  0  0  0  0  0  0  0  0  0
   -4.2313    1.6940    5.5058 C   0  0  0  0  0  0  0  0  0  0  0  0
   -5.2560    1.9848    6.4078 C   0  0  0  0  0  0  0  0  0  0  0  0
   -5.5101    1.1438    7.4803 C   0  0  0  0  0  0  0  0  0  0  0  0
   -4.7290    0.0023    7.6455 C   0  0  0  0  0  0  0  0  0  0  0  0
   -3.6935   -0.3120    6.7480 C   0  0  0  0  0  0  0  0  0  0  0  0
   -3.0602   -1.4750    7.0966 O   0  0  0  0  0  0  0  0  0  0  0  0
   -1.9712   -1.9351    6.3128 C   0  0  0  0  0  0  0  0  0  0  0  0
   -6.2202    3.3919    6.1755 Cl  0  0  0  0  0  0  0  0  0  0  0  0
   -0.6265    4.3901    5.0848 H   0  0  0  0  0  0  0  0  0  0  0  0
   -1.7284    5.2972    4.0489 H   0  0  0  0  0  0  0  0  0  0  0  0
   -0.0374    5.8734    4.3218 H   0  0  0  0  0  0  0  0  0  0  0  0
   -1.3819    6.4898    2.2253 H   0  0  0  0  0  0  0  0  0  0  0  0
   -0.7558    7.7197    0.2159 H   0  0  0  0  0  0  0  0  0  0  0  0
    1.0515    6.8834   -1.2420 H   0  0  0  0  0  0  0  0  0  0  0  0
    3.1263    1.6517    0.3598 H   0  0  0  0  0  0  0  0  0  0  0  0
    2.7540    5.2715   -1.6437 H   0  0  0  0  0  0  0  0  0  0  0  0
   -0.7824    2.4788    1.9292 H   0  0  0  0  0  0  0  0  0  0  0  0
   -0.0352    0.1359    3.6300 H   0  0  0  0  0  0  0  0  0  0  0  0
   -1.2793   -0.0312    2.3952 H   0  0  0  0  0  0  0  0  0  0  0  0
   -2.5790    1.8068    3.4229 H   0  0  0  0  0  0  0  0  0  0  0  0
   -1.3633    1.9670    4.7246 H   0  0  0  0  0  0  0  0  0  0  0  0
   -4.0983    2.3690    4.6686 H   0  0  0  0  0  0  0  0  0  0  0  0
   -6.3099    1.3606    8.1826 H   0  0  0  0  0  0  0  0  0  0  0  0
   -4.9291   -0.6634    8.4835 H   0  0  0  0  0  0  0  0  0  0  0  0
   -1.5935   -2.8494    6.7822 H   0  0  0  0  0  0  0  0  0  0  0  0
   -1.1491   -1.2130    6.3060 H   0  0  0  0  0  0  0  0  0  0  0  0
   -2.2966   -2.2011    5.3026 H   0  0  0  0  0  0  0  0  0  0  0  0
  1  2  1  0  0  0  0
  1 29  1  0  0  0  0
  1 30  1  0  0  0  0
  1 31  1  0  0  0  0
  2  3  1  0  0  0  0
  3  4  1  0  0  0  0
  3  8  2  0  0  0  0
  4  5  2  0  0  0  0
  4 32  1  0  0  0  0
  5  6  1  0  0  0  0
  5 33  1  0  0  0  0
  6  7  2  0  0  0  0
  6 34  1  0  0  0  0
  7  8  1  0  0  0  0
  7 13  1  0  0  0  0
  8  9  1  0  0  0  0
  9 10  2  0  0  0  0
  9 14  1  0  0  0  0
 10 11  1  0  0  0  0
 10 35  1  0  0  0  0
 11 12  2  0  0  0  0
 11 13  1  0  0  0  0
 13 36  1  0  0  0  0
 14 15  2  0  0  0  0
 14 16  1  0  0  0  0
 16 17  1  0  0  0  0
 16 37  1  0  0  0  0
 17 18  1  0  0  0  0
 17 38  1  0  0  0  0
 17 39  1  0  0  0  0
 18 19  1  0  0  0  0
 18 40  1  0  0  0  0
 18 41  1  0  0  0  0
 19 20  1  0  0  0  0
 20 21  1  0  0  0  0
 20 25  2  0  0  0  0
 21 22  2  0  0  0  0
 21 42  1  0  0  0  0
 22 23  1  0  0  0  0
 22 28  1  0  0  0  0
 23 24  2  0  0  0  0
 23 43  1  0  0  0  0
 24 25  1  0  0  0  0
 24 44  1  0  0  0  0
 25 26  1  0  0  0  0
 26 27  1  0  0  0  0
 27 45  1  0  0  0  0
 27 46  1  0  0  0  0
 27 47  1  0  0  0  0
M  END
$$$$
