
 OpenBabel07202414193D

 50 54  0  0  0  0  0  0  0  0999 V2000
    3.0961   -2.6285   -1.2419 N   0  0  0  0  0  0  0  0  0  0  0  0
    3.5555   -1.3530   -0.8976 C   0  0  0  0  0  0  0  0  0  0  0  0
    4.8934   -1.0140   -1.1205 C   0  0  0  0  0  0  0  0  0  0  0  0
    5.3485    0.1947   -0.6218 C   0  0  0  0  0  0  0  0  0  0  0  0
    4.5431    1.0278    0.1243 C   0  0  0  0  0  0  0  0  0  0  0  0
    3.2259    0.7162    0.3851 C   0  0  0  0  0  0  0  0  0  0  0  0
    2.7417   -0.4986   -0.1201 C   0  0  0  0  0  0  0  0  0  0  0  0
    5.3472    2.1780    0.5239 C   0  0  0  0  0  0  0  0  0  0  0  0
    4.8770    3.0852    1.2005 O   0  0  0  0  0  0  0  0  0  0  0  0
    6.5949    2.0110   -0.0360 N   0  0  0  0  0  0  0  0  0  0  0  0
    7.6639    2.9551    0.0596 C   0  0  0  0  0  0  0  0  0  0  0  0
    7.7065    3.9045    1.0939 C   0  0  0  0  0  0  0  0  0  0  0  0
    8.7278    4.8764    1.1825 C   0  0  0  0  0  0  0  0  0  0  0  0
    8.6835    5.9184    2.2832 C   0  0  0  0  0  0  0  0  0  0  0  0
    9.9112    6.0285    3.1720 C   0  0  0  0  0  0  0  0  0  0  0  0
   10.3564    7.1320    3.4855 O   0  0  0  0  0  0  0  0  0  0  0  0
   10.4126    4.8342    3.6551 N   0  0  0  0  0  0  0  0  0  0  0  0
   11.7917    4.6169    3.9313 C   0  0  0  0  0  0  0  0  0  0  0  0
   12.7499    5.4741    3.4019 C   0  0  0  0  0  0  0  0  0  0  0  0
   13.8965    5.0237    2.8575 N   0  0  0  0  0  0  0  0  0  0  0  0
   14.1497    3.7059    2.9999 C   0  0  0  0  0  0  0  0  0  0  0  0
   13.4324    2.8612    3.8450 C   0  0  0  0  0  0  0  0  0  0  0  0
   13.9013    1.5862    4.1998 C   0  0  0  0  0  0  0  0  0  0  0  0
   13.2034    0.8078    5.1218 C   0  0  0  0  0  0  0  0  0  0  0  0
   11.9999    1.2678    5.6489 C   0  0  0  0  0  0  0  0  0  0  0  0
   11.4880    2.5059    5.2447 C   0  0  0  0  0  0  0  0  0  0  0  0
   12.2076    3.3335    4.3471 C   0  0  0  0  0  0  0  0  0  0  0  0
    9.7075    4.9076    0.1835 C   0  0  0  0  0  0  0  0  0  0  0  0
    9.6788    3.9698   -0.8485 C   0  0  0  0  0  0  0  0  0  0  0  0
   10.8577    4.0417   -2.1028 Cl  0  0  0  0  0  0  0  0  0  0  0  0
    8.6791    2.9911   -0.9024 C   0  0  0  0  0  0  0  0  0  0  0  0
    6.6594    0.8221   -0.7375 C   0  0  0  0  0  0  0  0  0  0  0  0
    7.5805    0.2911   -1.3333 O   0  0  0  0  0  0  0  0  0  0  0  0
    3.5981   -3.0683   -2.0081 H   0  0  0  0  0  0  0  0  0  0  0  0
    2.0889   -2.7034   -1.3495 H   0  0  0  0  0  0  0  0  0  0  0  0
    5.5636   -1.6693   -1.6662 H   0  0  0  0  0  0  0  0  0  0  0  0
    2.5939    1.3784    0.9686 H   0  0  0  0  0  0  0  0  0  0  0  0
    1.7154   -0.7866    0.1006 H   0  0  0  0  0  0  0  0  0  0  0  0
    6.9408    3.9070    1.8685 H   0  0  0  0  0  0  0  0  0  0  0  0
    7.8246    5.7523    2.9419 H   0  0  0  0  0  0  0  0  0  0  0  0
    8.5344    6.8926    1.7996 H   0  0  0  0  0  0  0  0  0  0  0  0
    9.9244    3.9818    3.3978 H   0  0  0  0  0  0  0  0  0  0  0  0
   12.5817    6.5386    3.2774 H   0  0  0  0  0  0  0  0  0  0  0  0
   14.9826    3.3402    2.4073 H   0  0  0  0  0  0  0  0  0  0  0  0
   14.8454    1.2215    3.8019 H   0  0  0  0  0  0  0  0  0  0  0  0
   13.6134   -0.1466    5.4434 H   0  0  0  0  0  0  0  0  0  0  0  0
   11.4719    0.6700    6.3891 H   0  0  0  0  0  0  0  0  0  0  0  0
   10.5665    2.8614    5.7036 H   0  0  0  0  0  0  0  0  0  0  0  0
   10.4812    5.6739    0.1873 H   0  0  0  0  0  0  0  0  0  0  0  0
    8.6879    2.3033   -1.7438 H   0  0  0  0  0  0  0  0  0  0  0  0
  1  2  1  0  0  0  0
  1 34  1  0  0  0  0
  1 35  1  0  0  0  0
  2  3  2  0  0  0  0
  2  7  1  0  0  0  0
  3  4  1  0  0  0  0
  3 36  1  0  0  0  0
  4  5  2  0  0  0  0
  4 32  1  0  0  0  0
  5  6  1  0  0  0  0
  5  8  1  0  0  0  0
  6  7  2  0  0  0  0
  6 37  1  0  0  0  0
  7 38  1  0  0  0  0
  8  9  2  0  0  0  0
  8 10  1  0  0  0  0
 10 11  1  0  0  0  0
 10 32  1  0  0  0  0
 11 12  2  0  0  0  0
 11 31  1  0  0  0  0
 12 13  1  0  0  0  0
 12 39  1  0  0  0  0
 13 14  1  0  0  0  0
 13 28  2  0  0  0  0
 14 15  1  0  0  0  0
 14 40  1  0  0  0  0
 14 41  1  0  0  0  0
 15 16  2  0  0  0  0
 15 17  1  0  0  0  0
 17 18  1  0  0  0  0
 17 42  1  0  0  0  0
 18 19  2  0  0  0  0
 18 27  1  0  0  0  0
 19 20  1  0  0  0  0
 19 43  1  0  0  0  0
 20 21  2  0  0  0  0
 21 22  1  0  0  0  0
 21 44  1  0  0  0  0
 22 23  2  0  0  0  0
 22 27  1  0  0  0  0
 23 24  1  0  0  0  0
 23 45  1  0  0  0  0
 24 25  2  0  0  0  0
 24 46  1  0  0  0  0
 25 26  1  0  0  0  0
 25 47  1  0  0  0  0
 26 27  2  0  0  0  0
 26 48  1  0  0  0  0
 28 29  1  0  0  0  0
 28 49  1  0  0  0  0
 29 30  1  0  0  0  0
 29 31  2  0  0  0  0
 31 50  1  0  0  0  0
 32 33  2  0  0  0  0
M  END
$$$$
