
 OpenBabel07202414193D

 48 52  0  0  1  0  0  0  0  0999 V2000
    1.3330    0.5152   -1.1121 O   0  0  0  0  0  0  0  0  0  0  0  0
    2.3874    0.4005   -0.4994 C   0  0  0  0  0  0  0  0  0  0  0  0
    3.1457   -0.9252   -0.2971 C   0  0  2  0  0  0  0  0  0  0  0  0
    2.4417   -2.1962    0.1978 C   0  0  0  0  0  0  0  0  0  0  0  0
    3.4624   -3.2774    0.3461 N   0  0  0  0  0  0  0  0  0  0  0  0
    2.9205   -4.5507    0.8631 C   0  0  0  0  0  0  0  0  0  0  0  0
    1.8768   -5.2462    0.0259 C   0  0  0  0  0  0  0  0  0  0  0  0
    2.1203   -5.6099   -1.3049 C   0  0  0  0  0  0  0  0  0  0  0  0
    1.1645   -6.3340   -2.0236 C   0  0  0  0  0  0  0  0  0  0  0  0
   -0.0351   -6.7075   -1.4185 C   0  0  0  0  0  0  0  0  0  0  0  0
   -0.2797   -6.3670   -0.0911 C   0  0  0  0  0  0  0  0  0  0  0  0
    0.6721   -5.6442    0.6270 C   0  0  0  0  0  0  0  0  0  0  0  0
    4.5722   -2.8827    1.2592 C   0  0  0  0  0  0  0  0  0  0  0  0
    5.0229   -1.4138    1.3008 C   0  0  0  0  0  0  0  0  0  0  0  0
    4.0927   -0.4960    0.6986 N   0  0  0  0  0  0  0  0  0  0  0  0
    4.0795    0.8552    0.8933 C   0  0  0  0  0  0  0  0  0  0  0  0
    4.7214    1.4066    1.7871 O   0  0  0  0  0  0  0  0  0  0  0  0
    3.1993    1.4167    0.0017 N   0  0  0  0  0  0  0  0  0  0  0  0
    3.0936    2.8198   -0.1961 C   0  0  0  0  0  0  0  0  0  0  0  0
    1.8532    3.4179   -0.4012 C   0  0  0  0  0  0  0  0  0  0  0  0
    1.6452    4.7558   -0.4503 N   0  0  0  0  0  0  0  0  0  0  0  0
    2.7390    5.5438   -0.3657 C   0  0  0  0  0  0  0  0  0  0  0  0
    4.0485    5.0777   -0.3110 C   0  0  0  0  0  0  0  0  0  0  0  0
    5.1349    5.9747   -0.3903 C   0  0  0  0  0  0  0  0  0  0  0  0
    6.4486    5.5152   -0.4017 C   0  0  0  0  0  0  0  0  0  0  0  0
    6.6899    4.1561   -0.3031 C   0  0  0  0  0  0  0  0  0  0  0  0
    5.6153    3.2629   -0.2211 C   0  0  0  0  0  0  0  0  0  0  0  0
    4.2525    3.6804   -0.2160 C   0  0  0  0  0  0  0  0  0  0  0  0
    3.6894   -1.1264   -1.2292 H   0  0  0  0  0  0  0  0  0  0  0  0
    1.6748   -2.4889   -0.5263 H   0  0  0  0  0  0  0  0  0  0  0  0
    1.9407   -2.0103    1.1569 H   0  0  0  0  0  0  0  0  0  0  0  0
    2.5278   -4.3969    1.8770 H   0  0  0  0  0  0  0  0  0  0  0  0
    3.7478   -5.2688    0.9637 H   0  0  0  0  0  0  0  0  0  0  0  0
    3.0624   -5.3473   -1.7803 H   0  0  0  0  0  0  0  0  0  0  0  0
    1.3597   -6.6174   -3.0546 H   0  0  0  0  0  0  0  0  0  0  0  0
   -0.7765   -7.2721   -1.9776 H   0  0  0  0  0  0  0  0  0  0  0  0
   -1.2044   -6.6722    0.3905 H   0  0  0  0  0  0  0  0  0  0  0  0
    0.4757   -5.4100    1.6710 H   0  0  0  0  0  0  0  0  0  0  0  0
    5.4502   -3.4909    1.0044 H   0  0  0  0  0  0  0  0  0  0  0  0
    4.3170   -3.1494    2.2939 H   0  0  0  0  0  0  0  0  0  0  0  0
    5.9812   -1.2860    0.7864 H   0  0  0  0  0  0  0  0  0  0  0  0
    5.1722   -1.1018    2.3417 H   0  0  0  0  0  0  0  0  0  0  0  0
    0.9381    2.8382   -0.4928 H   0  0  0  0  0  0  0  0  0  0  0  0
    2.5249    6.6107   -0.3709 H   0  0  0  0  0  0  0  0  0  0  0  0
    4.9608    7.0455   -0.4821 H   0  0  0  0  0  0  0  0  0  0  0  0
    7.2769    6.2115   -0.5015 H   0  0  0  0  0  0  0  0  0  0  0  0
    7.7095    3.7781   -0.3012 H   0  0  0  0  0  0  0  0  0  0  0  0
    5.8807    2.2101   -0.1787 H   0  0  0  0  0  0  0  0  0  0  0  0
  1  2  2  0  0  0  0
  2  3  1  0  0  0  0
  2 18  1  0  0  0  0
  3  4  1  0  0  0  0
  3 15  1  0  0  0  0
  3 29  1  6  0  0  0
  4  5  1  0  0  0  0
  4 30  1  0  0  0  0
  4 31  1  0  0  0  0
  5  6  1  0  0  0  0
  5 13  1  0  0  0  0
  6  7  1  0  0  0  0
  6 32  1  0  0  0  0
  6 33  1  0  0  0  0
  7  8  1  0  0  0  0
  7 12  2  0  0  0  0
  8  9  2  0  0  0  0
  8 34  1  0  0  0  0
  9 10  1  0  0  0  0
  9 35  1  0  0  0  0
 10 11  2  0  0  0  0
 10 36  1  0  0  0  0
 11 12  1  0  0  0  0
 11 37  1  0  0  0  0
 12 38  1  0  0  0  0
 13 14  1  0  0  0  0
 13 39  1  0  0  0  0
 13 40  1  0  0  0  0
 14 15  1  0  0  0  0
 14 41  1  0  0  0  0
 14 42  1  0  0  0  0
 15 16  1  0  0  0  0
 16 17  2  0  0  0  0
 16 18  1  0  0  0  0
 18 19  1  0  0  0  0
 19 20  1  0  0  0  0
 19 28  2  0  0  0  0
 20 21  2  0  0  0  0
 20 43  1  0  0  0  0
 21 22  1  0  0  0  0
 22 23  2  0  0  0  0
 22 44  1  0  0  0  0
 23 24  1  0  0  0  0
 23 28  1  0  0  0  0
 24 25  2  0  0  0  0
 24 45  1  0  0  0  0
 25 26  1  0  0  0  0
 25 46  1  0  0  0  0
 26 27  2  0  0  0  0
 26 47  1  0  0  0  0
 27 28  1  0  0  0  0
 27 48  1  0  0  0  0
M  END
$$$$
