
 OpenBabel07202414123D

 43 45  0  0  1  0  0  0  0  0999 V2000
    1.0693   -0.1613   -0.1469 C   0  0  0  0  0  0  0  0  0  0  0  0
    2.6051   -0.0841   -0.1038 C   0  0  3  0  0  0  0  0  0  0  0  0
    3.1075    1.0013   -1.0623 C   0  0  0  0  0  0  0  0  0  0  0  0
    2.3095    1.7283   -1.6497 O   0  0  0  0  0  0  0  0  0  0  0  0
    4.4842    1.0335   -1.2407 N   0  0  0  0  0  0  0  0  0  0  0  0
    5.1722    1.9818   -2.0490 C   0  0  0  0  0  0  0  0  0  0  0  0
    4.5667    3.1593   -2.5050 C   0  0  0  0  0  0  0  0  0  0  0  0
    5.1590    4.1063   -3.2782 N   0  0  0  0  0  0  0  0  0  0  0  0
    6.4353    3.8849   -3.6204 C   0  0  0  0  0  0  0  0  0  0  0  0
    7.1467    2.7683   -3.2162 C   0  0  0  0  0  0  0  0  0  0  0  0
    6.5162    1.7862   -2.4248 C   0  0  0  0  0  0  0  0  0  0  0  0
    7.3423    0.5989   -2.0158 C   0  0  0  0  0  0  0  0  0  0  0  0
    3.0572    0.1151    1.3347 C   0  0  0  0  0  0  0  0  0  0  0  0
    2.7398    1.2791    2.0527 C   0  0  0  0  0  0  0  0  0  0  0  0
    3.0747    1.3844    3.4045 C   0  0  0  0  0  0  0  0  0  0  0  0
    2.6587    2.8087    4.2767 Cl  0  0  0  0  0  0  0  0  0  0  0  0
    3.7149    0.3353    4.0634 C   0  0  0  0  0  0  0  0  0  0  0  0
    4.0194   -0.8322    3.3631 C   0  0  0  0  0  0  0  0  0  0  0  0
    4.5997   -1.8408    4.0969 O   0  0  0  0  0  0  0  0  0  0  0  0
    4.4892   -3.1873    3.5947 C   0  0  3  0  0  0  0  0  0  0  0  0
    3.0909   -3.8433    3.6002 C   0  0  0  0  0  0  0  0  0  0  0  0
    3.6740   -4.7571    4.6763 C   0  0  0  0  0  0  0  0  0  0  0  0
    3.2614   -5.5693    5.4666 O   0  0  0  0  0  0  0  0  0  0  0  0
    4.9180   -4.2394    4.5169 N   0  0  0  0  0  0  0  0  0  0  0  0
    3.7186   -0.9289    2.0014 C   0  0  0  0  0  0  0  0  0  0  0  0
    0.7243   -0.4314   -1.1512 H   0  0  0  0  0  0  0  0  0  0  0  0
    0.6060    0.8015    0.1035 H   0  0  0  0  0  0  0  0  0  0  0  0
    0.6824   -0.9065    0.5565 H   0  0  0  0  0  0  0  0  0  0  0  0
    2.9898   -1.0409   -0.4821 H   0  0  0  0  0  0  0  0  0  0  0  0
    5.0335    0.2874   -0.8323 H   0  0  0  0  0  0  0  0  0  0  0  0
    3.5502    3.4295   -2.2401 H   0  0  0  0  0  0  0  0  0  0  0  0
    6.8875    4.6500   -4.2441 H   0  0  0  0  0  0  0  0  0  0  0  0
    8.1812    2.6641   -3.5286 H   0  0  0  0  0  0  0  0  0  0  0  0
    8.2012    0.4720   -2.6868 H   0  0  0  0  0  0  0  0  0  0  0  0
    6.7661   -0.3279   -2.0752 H   0  0  0  0  0  0  0  0  0  0  0  0
    7.7251    0.7346   -1.0002 H   0  0  0  0  0  0  0  0  0  0  0  0
    2.2036    2.0951    1.5709 H   0  0  0  0  0  0  0  0  0  0  0  0
    3.9517    0.4137    5.1188 H   0  0  0  0  0  0  0  0  0  0  0  0
    5.0380   -3.3087    2.6514 H   0  0  0  0  0  0  0  0  0  0  0  0
    2.8032   -4.3521    2.6773 H   0  0  0  0  0  0  0  0  0  0  0  0
    2.2674   -3.2232    3.9651 H   0  0  0  0  0  0  0  0  0  0  0  0
    5.4989   -4.1517    5.3386 H   0  0  0  0  0  0  0  0  0  0  0  0
    3.9658   -1.8260    1.4414 H   0  0  0  0  0  0  0  0  0  0  0  0
  1  2  1  0  0  0  0
  1 26  1  0  0  0  0
  1 27  1  0  0  0  0
  1 28  1  0  0  0  0
  2  3  1  0  0  0  0
  2 13  1  0  0  0  0
  2 29  1  0  0  0  0
  3  4  2  0  0  0  0
  3  5  1  0  0  0  0
  5  6  1  0  0  0  0
  5 30  1  0  0  0  0
  6  7  1  0  0  0  0
  6 11  2  0  0  0  0
  7  8  2  0  0  0  0
  7 31  1  0  0  0  0
  8  9  1  0  0  0  0
  9 10  2  0  0  0  0
  9 32  1  0  0  0  0
 10 11  1  0  0  0  0
 10 33  1  0  0  0  0
 11 12  1  0  0  0  0
 12 34  1  0  0  0  0
 12 35  1  0  0  0  0
 12 36  1  0  0  0  0
 13 14  1  0  0  0  0
 13 25  2  0  0  0  0
 14 15  2  0  0  0  0
 14 37  1  0  0  0  0
 15 16  1  0  0  0  0
 15 17  1  0  0  0  0
 17 18  2  0  0  0  0
 17 38  1  0  0  0  0
 18 19  1  0  0  0  0
 18 25  1  0  0  0  0
 19 20  1  0  0  0  0
 20 21  1  0  0  0  0
 20 24  1  0  0  0  0
 20 39  1  0  0  0  0
 21 22  1  0  0  0  0
 21 40  1  0  0  0  0
 21 41  1  0  0  0  0
 22 23  2  0  0  0  0
 22 24  1  0  0  0  0
 24 42  1  0  0  0  0
 25 43  1  0  0  0  0
M  END
$$$$
