
 OpenBabel07202414153D

 42 45  0  0  1  0  0  0  0  0999 V2000
    2.9393   -0.4093   -1.4609 C   0  0  0  0  0  0  0  0  0  0  0  0
    2.5723   -0.1132    0.0047 C   0  0  1  0  0  0  0  0  0  0  0  0
    3.0853   -1.2139    0.9305 C   0  0  0  0  0  0  0  0  0  0  0  0
    4.5057   -1.3381    0.9459 O   0  0  0  0  0  0  0  0  0  0  0  0
    5.2142   -0.1669    0.9588 C   0  0  0  0  0  0  0  0  0  0  0  0
    6.5848   -0.3156    1.1979 C   0  0  0  0  0  0  0  0  0  0  0  0
    7.4247    0.7949    1.1894 C   0  0  0  0  0  0  0  0  0  0  0  0
    6.8901    2.0496    0.9206 C   0  0  0  0  0  0  0  0  0  0  0  0
    5.5185    2.2058    0.6892 C   0  0  0  0  0  0  0  0  0  0  0  0
    4.6526    1.0954    0.7060 C   0  0  0  0  0  0  0  0  0  0  0  0
    3.1423    1.2173    0.5354 C   0  0  1  0  0  0  0  0  0  0  0  0
    2.6229    2.3873   -0.3033 C   0  0  0  0  0  0  0  0  0  0  0  0
    3.3363    2.8903   -1.1646 O   0  0  0  0  0  0  0  0  0  0  0  0
    1.2965    2.7594   -0.0642 N   0  0  0  0  0  0  0  0  0  0  0  0
    0.5928    3.6883   -0.8979 C   0  0  0  0  0  0  0  0  0  0  0  0
    1.2802    4.6018   -1.7008 C   0  0  0  0  0  0  0  0  0  0  0  0
    0.7462    5.2656   -2.7470 N   0  0  0  0  0  0  0  0  0  0  0  0
   -0.5479    5.0117   -3.0070 C   0  0  0  0  0  0  0  0  0  0  0  0
   -1.3805    4.2564   -2.1864 C   0  0  0  0  0  0  0  0  0  0  0  0
   -0.8222    3.6352   -1.0410 C   0  0  0  0  0  0  0  0  0  0  0  0
   -1.7369    3.0151   -0.1483 C   0  0  0  0  0  0  0  0  0  0  0  0
   -3.1138    2.9756   -0.4162 C   0  0  0  0  0  0  0  0  0  0  0  0
   -3.6095    3.4970   -1.6038 C   0  0  0  0  0  0  0  0  0  0  0  0
   -2.7462    4.1310   -2.4897 C   0  0  0  0  0  0  0  0  0  0  0  0
    7.9282    3.4229    0.8876 Cl  0  0  0  0  0  0  0  0  0  0  0  0
    2.5322   -1.3803   -1.7646 H   0  0  0  0  0  0  0  0  0  0  0  0
    4.0205   -0.4415   -1.6308 H   0  0  0  0  0  0  0  0  0  0  0  0
    2.5192    0.3431   -2.1360 H   0  0  0  0  0  0  0  0  0  0  0  0
    1.4778   -0.0889    0.0640 H   0  0  0  0  0  0  0  0  0  0  0  0
    2.6805   -2.1829    0.6189 H   0  0  0  0  0  0  0  0  0  0  0  0
    2.7451   -1.0461    1.9596 H   0  0  0  0  0  0  0  0  0  0  0  0
    6.9959   -1.3031    1.3943 H   0  0  0  0  0  0  0  0  0  0  0  0
    8.4865    0.6729    1.3871 H   0  0  0  0  0  0  0  0  0  0  0  0
    5.1431    3.2041    0.4756 H   0  0  0  0  0  0  0  0  0  0  0  0
    2.7555    1.3843    1.5506 H   0  0  0  0  0  0  0  0  0  0  0  0
    0.7300    2.1286    0.4882 H   0  0  0  0  0  0  0  0  0  0  0  0
    2.3263    4.8398   -1.5331 H   0  0  0  0  0  0  0  0  0  0  0  0
   -0.9161    5.4800   -3.9155 H   0  0  0  0  0  0  0  0  0  0  0  0
   -1.3977    2.6136    0.8029 H   0  0  0  0  0  0  0  0  0  0  0  0
   -3.8033    2.5419    0.3048 H   0  0  0  0  0  0  0  0  0  0  0  0
   -4.6726    3.4386   -1.8345 H   0  0  0  0  0  0  0  0  0  0  0  0
   -3.1459    4.5519   -3.4106 H   0  0  0  0  0  0  0  0  0  0  0  0
  1 26  1  0  0  0  0
  1 27  1  0  0  0  0
  1 28  1  0  0  0  0
  2  3  1  0  0  0  0
  2 11  1  0  0  0  0
  2  1  1  0  0  0  0
  2 29  1  1  0  0  0
  3  4  1  0  0  0  0
  3 30  1  0  0  0  0
  3 31  1  0  0  0  0
  4  5  1  0  0  0  0
  5  6  1  0  0  0  0
  5 10  2  0  0  0  0
  6  7  2  0  0  0  0
  6 32  1  0  0  0  0
  7  8  1  0  0  0  0
  7 33  1  0  0  0  0
  8  9  2  0  0  0  0
  8 25  1  0  0  0  0
  9 10  1  0  0  0  0
  9 34  1  0  0  0  0
 10 11  1  0  0  0  0
 11 12  1  0  0  0  0
 11 35  1  1  0  0  0
 12 13  2  0  0  0  0
 12 14  1  0  0  0  0
 14 15  1  0  0  0  0
 14 36  1  0  0  0  0
 15 16  1  0  0  0  0
 15 20  2  0  0  0  0
 16 17  2  0  0  0  0
 16 37  1  0  0  0  0
 17 18  1  0  0  0  0
 18 19  2  0  0  0  0
 18 38  1  0  0  0  0
 19 20  1  0  0  0  0
 19 24  1  0  0  0  0
 20 21  1  0  0  0  0
 21 22  2  0  0  0  0
 21 39  1  0  0  0  0
 22 23  1  0  0  0  0
 22 40  1  0  0  0  0
 23 24  2  0  0  0  0
 23 41  1  0  0  0  0
 24 42  1  0  0  0  0
M  END
$$$$
