
 OpenBabel07202414173D

 52 56  0  0  1  0  0  0  0  0999 V2000
    1.1046    0.1611   -0.0326 Cl  0  0  0  0  0  0  0  0  0  0  0  0
    2.8201    0.0590    0.0320 C   0  0  0  0  0  0  0  0  0  0  0  0
    3.5889    1.2058   -0.1195 C   0  0  0  0  0  0  0  0  0  0  0  0
    4.9815    1.1130   -0.0594 C   0  0  0  0  0  0  0  0  0  0  0  0
    5.6052   -0.1219    0.1410 C   0  0  0  0  0  0  0  0  0  0  0  0
    4.8430   -1.2878    0.2515 C   0  0  0  0  0  0  0  0  0  0  0  0
    3.4351   -1.1773    0.2270 C   0  0  0  0  0  0  0  0  0  0  0  0
    5.5114   -2.6487    0.4217 C   0  0  3  0  0  0  0  0  0  0  0  0
    4.9366   -3.6830   -0.6229 C   0  0  0  0  0  0  0  0  0  0  0  0
    5.1198   -3.2831   -2.1076 C   0  0  0  0  0  0  0  0  0  0  0  0
    4.5216   -4.2618   -3.0786 C   0  0  0  0  0  0  0  0  0  0  0  0
    5.0101   -5.6835   -3.1792 C   0  0  0  0  0  0  0  0  0  0  0  0
    5.3463   -4.7060   -4.2679 C   0  0  0  0  0  0  0  0  0  0  0  0
    5.2540   -3.1590    1.9042 C   0  0  0  0  0  0  0  0  0  0  0  0
    4.8028   -4.2731    2.1363 O   0  0  0  0  0  0  0  0  0  0  0  0
    5.6324   -2.2397    2.8790 N   0  0  0  0  0  0  0  0  0  0  0  0
    5.4722   -2.2895    4.2916 C   0  0  0  0  0  0  0  0  0  0  0  0
    4.7676   -3.2976    4.9453 C   0  0  0  0  0  0  0  0  0  0  0  0
    4.4329   -3.2641    6.2628 N   0  0  0  0  0  0  0  0  0  0  0  0
    4.8632   -2.2000    6.9716 C   0  0  0  0  0  0  0  0  0  0  0  0
    5.6799   -1.1901    6.4679 C   0  0  0  0  0  0  0  0  0  0  0  0
    6.1830   -0.1724    7.3071 C   0  0  0  0  0  0  0  0  0  0  0  0
    7.0341    0.8102    6.8073 C   0  0  0  0  0  0  0  0  0  0  0  0
    7.3687    0.8013    5.4627 C   0  0  0  0  0  0  0  0  0  0  0  0
    6.8526   -0.1892    4.6193 C   0  0  0  0  0  0  0  0  0  0  0  0
    5.9985   -1.2235    5.0905 C   0  0  0  0  0  0  0  0  0  0  0  0
    7.0379   -2.5389    0.1852 C   0  0  0  0  0  0  0  0  0  0  0  0
    7.6469   -1.2386    0.6682 C   0  0  0  0  0  0  0  0  0  0  0  0
    6.9683   -0.0794    0.1954 O   0  0  0  0  0  0  0  0  0  0  0  0
    3.1162    2.1705   -0.2823 H   0  0  0  0  0  0  0  0  0  0  0  0
    5.5821    2.0117   -0.1704 H   0  0  0  0  0  0  0  0  0  0  0  0
    2.8080   -2.0596    0.3502 H   0  0  0  0  0  0  0  0  0  0  0  0
    3.8696   -3.8654   -0.4388 H   0  0  0  0  0  0  0  0  0  0  0  0
    5.4212   -4.6550   -0.4588 H   0  0  0  0  0  0  0  0  0  0  0  0
    6.1794   -3.1825   -2.3520 H   0  0  0  0  0  0  0  0  0  0  0  0
    4.6658   -2.3043   -2.2979 H   0  0  0  0  0  0  0  0  0  0  0  0
    3.4664   -4.0751   -3.2480 H   0  0  0  0  0  0  0  0  0  0  0  0
    4.2795   -6.4529   -3.4038 H   0  0  0  0  0  0  0  0  0  0  0  0
    5.8104   -6.0106   -2.5264 H   0  0  0  0  0  0  0  0  0  0  0  0
    4.8516   -4.8200   -5.2259 H   0  0  0  0  0  0  0  0  0  0  0  0
    6.3806   -4.3890   -4.3495 H   0  0  0  0  0  0  0  0  0  0  0  0
    5.9037   -1.3272    2.5415 H   0  0  0  0  0  0  0  0  0  0  0  0
    4.4006   -4.1799    4.4289 H   0  0  0  0  0  0  0  0  0  0  0  0
    4.5287   -2.1875    8.0048 H   0  0  0  0  0  0  0  0  0  0  0  0
    5.9337   -0.1568    8.3660 H   0  0  0  0  0  0  0  0  0  0  0  0
    7.4438    1.5700    7.4679 H   0  0  0  0  0  0  0  0  0  0  0  0
    8.0402    1.5577    5.0630 H   0  0  0  0  0  0  0  0  0  0  0  0
    7.1707   -0.1486    3.5844 H   0  0  0  0  0  0  0  0  0  0  0  0
    7.2685   -2.5639   -0.8811 H   0  0  0  0  0  0  0  0  0  0  0  0
    7.5639   -3.3934    0.6285 H   0  0  0  0  0  0  0  0  0  0  0  0
    8.6751   -1.1738    0.2982 H   0  0  0  0  0  0  0  0  0  0  0  0
    7.7344   -1.1999    1.7534 H   0  0  0  0  0  0  0  0  0  0  0  0
  1  2  1  0  0  0  0
  2  3  1  0  0  0  0
  2  7  2  0  0  0  0
  3  4  2  0  0  0  0
  3 30  1  0  0  0  0
  4  5  1  0  0  0  0
  4 31  1  0  0  0  0
  5  6  2  0  0  0  0
  5 29  1  0  0  0  0
  6  7  1  0  0  0  0
  6  8  1  0  0  0  0
  7 32  1  0  0  0  0
  8  9  1  0  0  0  0
  8 14  1  0  0  0  0
  8 27  1  0  0  0  0
  9 10  1  0  0  0  0
  9 33  1  0  0  0  0
  9 34  1  0  0  0  0
 10 11  1  0  0  0  0
 10 35  1  0  0  0  0
 10 36  1  0  0  0  0
 11 12  1  0  0  0  0
 11 13  1  0  0  0  0
 11 37  1  0  0  0  0
 12 13  1  0  0  0  0
 12 38  1  0  0  0  0
 12 39  1  0  0  0  0
 13 40  1  0  0  0  0
 13 41  1  0  0  0  0
 14 15  2  0  0  0  0
 14 16  1  0  0  0  0
 16 17  1  0  0  0  0
 16 42  1  0  0  0  0
 17 18  1  0  0  0  0
 17 26  2  0  0  0  0
 18 19  2  0  0  0  0
 18 43  1  0  0  0  0
 19 20  1  0  0  0  0
 20 21  2  0  0  0  0
 20 44  1  0  0  0  0
 21 22  1  0  0  0  0
 21 26  1  0  0  0  0
 22 23  2  0  0  0  0
 22 45  1  0  0  0  0
 23 24  1  0  0  0  0
 23 46  1  0  0  0  0
 24 25  2  0  0  0  0
 24 47  1  0  0  0  0
 25 26  1  0  0  0  0
 25 48  1  0  0  0  0
 27 28  1  0  0  0  0
 27 49  1  0  0  0  0
 27 50  1  0  0  0  0
 28 29  1  0  0  0  0
 28 51  1  0  0  0  0
 28 52  1  0  0  0  0
M  END
$$$$
