
 OpenBabel07202414143D

 57 62  0  0  1  0  0  0  0  0999 V2000
    6.2349    0.2045    2.5222 C   0  0  0  0  0  0  0  0  0  0  0  0
    5.4312   -0.5417    1.5929 N   0  0  0  0  0  0  0  0  0  0  0  0
    5.3711   -0.2136    0.2607 C   0  0  0  0  0  0  0  0  0  0  0  0
    5.9191    0.7563   -0.2421 O   0  0  0  0  0  0  0  0  0  0  0  0
    4.5361   -1.1553   -0.5870 C   0  0  0  0  0  0  0  0  0  0  0  0
    5.0745   -2.5276   -0.6752 N   0  0  0  0  0  0  0  0  0  0  0  0
    5.5601   -2.9762   -1.9705 C   0  0  0  0  0  0  0  0  0  0  0  0
    6.6269   -4.0758   -1.9582 C   0  0  3  0  0  0  0  0  0  0  0  0
    6.5591   -4.7571   -3.3404 C   0  0  0  0  0  0  0  0  0  0  0  0
    7.9505   -4.7203   -3.9204 C   0  0  0  0  0  0  0  0  0  0  0  0
    8.8060   -4.0518   -2.9696 N   0  0  0  0  0  0  0  0  0  0  0  0
   10.2087   -4.4013   -2.9271 C   0  0  0  0  0  0  0  0  0  0  0  0
   10.8645   -4.5463   -1.7052 C   0  0  0  0  0  0  0  0  0  0  0  0
   11.9893   -5.2847   -1.5283 N   0  0  0  0  0  0  0  0  0  0  0  0
   12.5464   -5.8270   -2.6277 C   0  0  0  0  0  0  0  0  0  0  0  0
   12.1225   -5.5633   -3.9267 C   0  0  0  0  0  0  0  0  0  0  0  0
   12.8641   -6.0165   -5.0371 C   0  0  0  0  0  0  0  0  0  0  0  0
   12.4664   -5.7024   -6.3362 C   0  0  0  0  0  0  0  0  0  0  0  0
   11.3220   -4.9429   -6.5241 C   0  0  0  0  0  0  0  0  0  0  0  0
   10.8068   -4.5435   -8.1169 Cl  0  0  0  0  0  0  0  0  0  0  0  0
   10.5845   -4.4900   -5.4287 C   0  0  0  0  0  0  0  0  0  0  0  0
   10.9377   -4.8108   -4.0925 C   0  0  0  0  0  0  0  0  0  0  0  0
    8.0732   -3.5414   -1.8831 C   0  0  0  0  0  0  0  0  0  0  0  0
    8.5078   -2.8742   -0.9607 O   0  0  0  0  0  0  0  0  0  0  0  0
    6.3843   -5.0665   -0.8242 C   0  0  0  0  0  0  0  0  0  0  0  0
    7.0942   -6.2824   -0.7701 C   0  0  0  0  0  0  0  0  0  0  0  0
    6.8841   -7.1885    0.2668 C   0  0  0  0  0  0  0  0  0  0  0  0
    7.7769   -8.6567    0.3018 Cl  0  0  0  0  0  0  0  0  0  0  0  0
    5.9619   -6.9107    1.2680 C   0  0  0  0  0  0  0  0  0  0  0  0
    5.2682   -5.6992    1.2472 C   0  0  0  0  0  0  0  0  0  0  0  0
    5.4878   -4.7672    0.2226 C   0  0  0  0  0  0  0  0  0  0  0  0
    4.8257   -3.4361    0.3355 C   0  0  0  0  0  0  0  0  0  0  0  0
    4.1348   -3.1730    1.3218 O   0  0  0  0  0  0  0  0  0  0  0  0
    3.8071   -0.5885   -1.8082 C   0  0  0  0  0  0  0  0  0  0  0  0
    3.0317   -0.9261   -0.5811 C   0  0  0  0  0  0  0  0  0  0  0  0
    6.2895   -0.3377    3.4711 H   0  0  0  0  0  0  0  0  0  0  0  0
    5.7700    1.1790    2.6767 H   0  0  0  0  0  0  0  0  0  0  0  0
    7.2427    0.3460    2.1171 H   0  0  0  0  0  0  0  0  0  0  0  0
    4.9264   -1.3740    1.9047 H   0  0  0  0  0  0  0  0  0  0  0  0
    5.8994   -2.1157   -2.5595 H   0  0  0  0  0  0  0  0  0  0  0  0
    4.6566   -3.3763   -2.4553 H   0  0  0  0  0  0  0  0  0  0  0  0
    5.8926   -4.2279   -4.0337 H   0  0  0  0  0  0  0  0  0  0  0  0
    6.1739   -5.7816   -3.3014 H   0  0  0  0  0  0  0  0  0  0  0  0
    7.9221   -4.1389   -4.8452 H   0  0  0  0  0  0  0  0  0  0  0  0
    8.3029   -5.7372   -4.1226 H   0  0  0  0  0  0  0  0  0  0  0  0
   10.4760   -4.1379   -0.7792 H   0  0  0  0  0  0  0  0  0  0  0  0
   13.3869   -6.4894   -2.4276 H   0  0  0  0  0  0  0  0  0  0  0  0
   13.7814   -6.5879   -4.8979 H   0  0  0  0  0  0  0  0  0  0  0  0
   13.0608   -6.0276   -7.1845 H   0  0  0  0  0  0  0  0  0  0  0  0
    9.7540   -3.8227   -5.6291 H   0  0  0  0  0  0  0  0  0  0  0  0
    7.8355   -6.5268   -1.5304 H   0  0  0  0  0  0  0  0  0  0  0  0
    5.7955   -7.6135    2.0799 H   0  0  0  0  0  0  0  0  0  0  0  0
    4.5680   -5.4755    2.0534 H   0  0  0  0  0  0  0  0  0  0  0  0
    3.6320   -1.2081   -2.6797 H   0  0  0  0  0  0  0  0  0  0  0  0
    3.9808    0.4535   -2.0531 H   0  0  0  0  0  0  0  0  0  0  0  0
    2.3797   -1.7891   -0.5995 H   0  0  0  0  0  0  0  0  0  0  0  0
    2.6436   -0.0930   -0.0044 H   0  0  0  0  0  0  0  0  0  0  0  0
  1  2  1  0  0  0  0
  1 36  1  0  0  0  0
  1 37  1  0  0  0  0
  1 38  1  0  0  0  0
  2  3  1  0  0  0  0
  2 39  1  0  0  0  0
  3  4  2  0  0  0  0
  3  5  1  0  0  0  0
  5  6  1  0  0  0  0
  5 34  1  0  0  0  0
  5 35  1  0  0  0  0
  6  7  1  0  0  0  0
  6 32  1  0  0  0  0
  7  8  1  0  0  0  0
  7 40  1  0  0  0  0
  7 41  1  0  0  0  0
  8  9  1  0  0  0  0
  8 23  1  0  0  0  0
  8 25  1  0  0  0  0
  9 10  1  0  0  0  0
  9 42  1  0  0  0  0
  9 43  1  0  0  0  0
 10 11  1  0  0  0  0
 10 44  1  0  0  0  0
 10 45  1  0  0  0  0
 11 12  1  0  0  0  0
 11 23  1  0  0  0  0
 12 13  1  0  0  0  0
 12 22  2  0  0  0  0
 13 14  2  0  0  0  0
 13 46  1  0  0  0  0
 14 15  1  0  0  0  0
 15 16  2  0  0  0  0
 15 47  1  0  0  0  0
 16 17  1  0  0  0  0
 16 22  1  0  0  0  0
 17 18  2  0  0  0  0
 17 48  1  0  0  0  0
 18 19  1  0  0  0  0
 18 49  1  0  0  0  0
 19 20  1  0  0  0  0
 19 21  2  0  0  0  0
 21 22  1  0  0  0  0
 21 50  1  0  0  0  0
 23 24  2  0  0  0  0
 25 26  1  0  0  0  0
 25 31  2  0  0  0  0
 26 27  2  0  0  0  0
 26 51  1  0  0  0  0
 27 28  1  0  0  0  0
 27 29  1  0  0  0  0
 29 30  2  0  0  0  0
 29 52  1  0  0  0  0
 30 31  1  0  0  0  0
 30 53  1  0  0  0  0
 31 32  1  0  0  0  0
 32 33  2  0  0  0  0
 34 35  1  0  0  0  0
 34 54  1  0  0  0  0
 34 55  1  0  0  0  0
 35 56  1  0  0  0  0
 35 57  1  0  0  0  0
M  END
$$$$
