REMARK  7 active torsions:
REMARK  status: ('A' for Active; 'I' for Inactive)
REMARK    1  A    between atoms: C_2  and  N_4 
REMARK    2  A    between atoms: N_6  and  C_8 
REMARK    3  A    between atoms: C_8  and  C_12 
REMARK    4  A    between atoms: C_9  and  C_13 
REMARK    5  A    between atoms: C_9  and  C_12 
REMARK    6  A    between atoms: C_10  and  C_12 
REMARK       I    between atoms: C_13  and  N_15 
REMARK    7  A    between atoms: N_15  and  C_17 
ROOT
HETATM    1  C   UNL     1      10.159  -1.083  23.310  1.00  0.00     0.078 C 
ENDROOT
BRANCH   1   2
HETATM    2  C   UNL     1       9.677  -2.204  23.869  1.00  0.00    -0.005 C 
BRANCH   2   3
HETATM    3  N   UNL     1       9.425  -3.147  24.514  1.00  0.00    -0.264 N 
HETATM    4  N   UNL     1       8.320  -3.558  25.021  1.00  0.00    -0.271 N 
ATOM      5  HN  UNL     1       7.447  -3.450  24.505  1.00  0.00     0.186 HD
ATOM      6  HN  UNL     1      10.225  -3.749  24.708  1.00  0.00     0.196 HD
BRANCH   4   7
HETATM    7  C   UNL     1       8.321  -4.155  26.285  1.00  0.00     0.473 C 
HETATM    8  F   UNL     1       7.034  -4.655  26.586  1.00  0.00    -0.190 F 
HETATM    9  F   UNL     1       9.090  -5.218  26.355  1.00  0.00    -0.190 F 
ENDBRANCH   4   7
ENDBRANCH   2   3
ENDBRANCH   1   2
BRANCH   1  10
HETATM   10  C   UNL     1       9.598  -0.637  22.390  1.00  0.00    -0.034 C 
BRANCH  10  11
HETATM   11  C   UNL     1       8.956   0.043  21.266  1.00  0.00     0.294 C 
HETATM   12  O   UNL     1       9.616   0.964  20.823  1.00  0.00    -0.258 OA
HETATM   13  N   UNL     1       7.798  -0.522  20.953  1.00  0.00    -0.317 N 
ATOM     14  HN  UNL     1       7.518  -1.404  21.382  1.00  0.00     0.170 HD
BRANCH  13  15
HETATM   15  C   UNL     1       7.178  -0.048  20.260  1.00  0.00     0.035 A 
HETATM   16  C   UNL     1       6.584  -0.035  18.563  1.00  0.00     0.029 A 
HETATM   17  C   UNL     1       5.500   0.667  19.066  1.00  0.00     0.004 A 
HETATM   18  C   UNL     1       5.723   0.652  20.324  1.00  0.00     0.029 A 
ENDBRANCH  13  15
ENDBRANCH  10  11
ENDBRANCH   1  10
BRANCH   1  19
HETATM   19  C   UNL     1      11.402  -0.500  23.867  1.00  0.00     0.020 C 
HETATM   20  C   UNL     1      12.449  -0.673  23.107  1.00  0.00     0.013 C 
ENDBRANCH   1  19
TORSDOF 7
