MODEL 1
REMARK VINA RESULT:    -5.542      0.000      0.000
REMARK INTER + INTRA:          -8.412
REMARK INTER:                  -7.811
REMARK INTRA:                  -0.601
REMARK UNBOUND:                -0.601
REMARK  7 active torsions:
REMARK  status: ('A' for Active; 'I' for Inactive)
REMARK    1  A    between atoms: C_2  and  N_4 
REMARK    2  A    between atoms: N_6  and  C_8 
REMARK    3  A    between atoms: C_8  and  C_12 
REMARK    4  A    between atoms: C_9  and  C_13 
REMARK    5  A    between atoms: C_9  and  C_12 
REMARK    6  A    between atoms: C_10  and  C_12 
REMARK       I    between atoms: C_13  and  N_15 
REMARK    7  A    between atoms: N_15  and  C_17 
ROOT
HETATM    1  C   UNL     1       8.973  -1.936  22.589  1.00  0.00     0.078 C 
ENDROOT
BRANCH   1   2
HETATM    2  C   UNL     1       8.271  -3.061  22.796  1.00  0.00    -0.005 C 
BRANCH   2   3
HETATM    3  N   UNL     1       7.836  -4.145  22.865  1.00  0.00    -0.264 N 
HETATM    4  N   UNL     1       7.749  -5.082  21.992  1.00  0.00    -0.271 N 
ATOM      5  HN  UNL     1       8.502  -5.229  21.320  1.00  0.00     0.186 HD
ATOM      6  HN  UNL     1       7.459  -4.388  23.781  1.00  0.00     0.196 HD
BRANCH   4   7
HETATM    7  C   UNL     1       6.616  -5.900  21.969  1.00  0.00     0.473 C 
HETATM    8  F   UNL     1       5.991  -5.827  20.704  1.00  0.00    -0.190 F 
HETATM    9  F   UNL     1       6.896  -7.177  22.103  1.00  0.00    -0.190 F 
ENDBRANCH   4   7
ENDBRANCH   2   3
ENDBRANCH   1   2
BRANCH   1  10
HETATM   10  C   UNL     1       8.580  -1.174  21.799  1.00  0.00    -0.034 C 
BRANCH  10  11
HETATM   11  C   UNL     1       8.172  -0.126  20.865  1.00  0.00     0.294 C 
HETATM   12  O   UNL     1       8.991   0.769  20.761  1.00  0.00    -0.258 OA
HETATM   13  N   UNL     1       7.002  -0.401  20.305  1.00  0.00    -0.317 N 
ATOM     14  HN  UNL     1       6.564  -1.312  20.439  1.00  0.00     0.170 HD
BRANCH  13  15
HETATM   15  C   UNL     1       6.537   0.332  19.725  1.00  0.00     0.035 A 
HETATM   16  C   UNL     1       5.878   0.747  18.105  1.00  0.00     0.029 A 
HETATM   17  C   UNL     1       5.128   1.699  18.777  1.00  0.00     0.004 A 
HETATM   18  C   UNL     1       5.410   1.457  20.000  1.00  0.00     0.029 A 
ENDBRANCH  13  15
ENDBRANCH  10  11
ENDBRANCH   1  10
BRANCH   1  19
HETATM   19  C   UNL     1      10.232  -1.746  23.347  1.00  0.00     0.020 C 
HETATM   20  C   UNL     1      11.251  -1.423  22.599  1.00  0.00     0.013 C 
ENDBRANCH   1  19
TORSDOF 7
ENDMDL
MODEL 2
REMARK VINA RESULT:    -5.265      3.822      4.876
REMARK INTER + INTRA:          -8.022
REMARK INTER:                  -7.526
REMARK INTRA:                  -0.496
REMARK UNBOUND:                -0.601
REMARK  7 active torsions:
REMARK  status: ('A' for Active; 'I' for Inactive)
REMARK    1  A    between atoms: C_2  and  N_4 
REMARK    2  A    between atoms: N_6  and  C_8 
REMARK    3  A    between atoms: C_8  and  C_12 
REMARK    4  A    between atoms: C_9  and  C_13 
REMARK    5  A    between atoms: C_9  and  C_12 
REMARK    6  A    between atoms: C_10  and  C_12 
REMARK       I    between atoms: C_13  and  N_15 
REMARK    7  A    between atoms: N_15  and  C_17 
ROOT
HETATM    1  C   UNL     1      11.171  -0.907  23.062  1.00  0.00     0.078 C 
ENDROOT
BRANCH   1   2
HETATM    2  C   UNL     1      10.157  -1.785  23.005  1.00  0.00    -0.005 C 
BRANCH   2   3
HETATM    3  N   UNL     1       9.435  -2.705  23.022  1.00  0.00    -0.264 N 
HETATM    4  N   UNL     1       8.499  -3.035  23.836  1.00  0.00    -0.271 N 
ATOM      5  HN  UNL     1       7.895  -2.320  24.240  1.00  0.00     0.186 HD
ATOM      6  HN  UNL     1       9.573  -3.361  22.253  1.00  0.00     0.196 HD
BRANCH   4   7
HETATM    7  C   UNL     1       8.314  -4.381  24.164  1.00  0.00     0.473 C 
HETATM    8  F   UNL     1       7.439  -4.495  25.268  1.00  0.00    -0.190 F 
HETATM    9  F   UNL     1       7.711  -5.066  23.219  1.00  0.00    -0.190 F 
ENDBRANCH   4   7
ENDBRANCH   2   3
ENDBRANCH   1   2
BRANCH   1  10
HETATM   10  C   UNL     1      10.931   0.226  22.918  1.00  0.00    -0.034 C 
BRANCH  10  11
HETATM   11  C   UNL     1      10.736   1.649  22.647  1.00  0.00     0.294 C 
HETATM   12  O   UNL     1      10.323   1.870  21.524  1.00  0.00    -0.258 OA
HETATM   13  N   UNL     1      11.023   2.391  23.707  1.00  0.00    -0.317 N 
ATOM     14  HN  UNL     1      11.208   1.955  24.611  1.00  0.00     0.170 HD
BRANCH  13  15
HETATM   15  C   UNL     1      11.056   3.429  23.602  1.00  0.00     0.035 A 
HETATM   16  C   UNL     1      10.262   4.990  24.008  1.00  0.00     0.029 A 
HETATM   17  C   UNL     1      11.502   5.557  23.760  1.00  0.00     0.004 A 
HETATM   18  C   UNL     1      12.236   4.532  23.552  1.00  0.00     0.029 A 
ENDBRANCH  13  15
ENDBRANCH  10  11
ENDBRANCH   1  10
BRANCH   1  19
HETATM   19  C   UNL     1      12.542  -1.431  23.260  1.00  0.00     0.020 C 
HETATM   20  C   UNL     1      13.281  -0.685  24.036  1.00  0.00     0.013 C 
ENDBRANCH   1  19
TORSDOF 7
ENDMDL
MODEL 3
REMARK VINA RESULT:    -5.186      4.647      5.847
REMARK INTER + INTRA:          -7.909
REMARK INTER:                  -7.355
REMARK INTRA:                  -0.554
REMARK UNBOUND:                -0.601
REMARK  7 active torsions:
REMARK  status: ('A' for Active; 'I' for Inactive)
REMARK    1  A    between atoms: C_2  and  N_4 
REMARK    2  A    between atoms: N_6  and  C_8 
REMARK    3  A    between atoms: C_8  and  C_12 
REMARK    4  A    between atoms: C_9  and  C_13 
REMARK    5  A    between atoms: C_9  and  C_12 
REMARK    6  A    between atoms: C_10  and  C_12 
REMARK       I    between atoms: C_13  and  N_15 
REMARK    7  A    between atoms: N_15  and  C_17 
ROOT
HETATM    1  C   UNL     1       8.129  -4.432  24.331  1.00  0.00     0.078 C 
ENDROOT
BRANCH   1   2
HETATM    2  C   UNL     1       8.011  -4.745  25.630  1.00  0.00    -0.005 C 
BRANCH   2   3
HETATM    3  N   UNL     1       7.697  -4.924  26.743  1.00  0.00    -0.264 N 
HETATM    4  N   UNL     1       7.619  -5.999  27.441  1.00  0.00    -0.271 N 
ATOM      5  HN  UNL     1       8.313  -6.737  27.325  1.00  0.00     0.186 HD
ATOM      6  HN  UNL     1       7.438  -4.077  27.248  1.00  0.00     0.196 HD
BRANCH   4   7
HETATM    7  C   UNL     1       6.577  -6.150  28.360  1.00  0.00     0.473 C 
HETATM    8  F   UNL     1       5.550  -6.944  27.803  1.00  0.00    -0.190 F 
HETATM    9  F   UNL     1       6.930  -6.812  29.439  1.00  0.00    -0.190 F 
ENDBRANCH   4   7
ENDBRANCH   2   3
ENDBRANCH   1   2
BRANCH   1  10
HETATM   10  C   UNL     1       8.715  -3.466  24.044  1.00  0.00    -0.034 C 
BRANCH  10  11
HETATM   11  C   UNL     1       9.409  -2.275  23.555  1.00  0.00     0.294 C 
HETATM   12  O   UNL     1       9.346  -2.147  22.346  1.00  0.00    -0.258 OA
HETATM   13  N   UNL     1       9.932  -1.573  24.550  1.00  0.00    -0.317 N 
ATOM     14  HN  UNL     1       9.716  -1.807  25.520  1.00  0.00     0.170 HD
BRANCH  13  15
HETATM   15  C   UNL     1      10.569  -0.778  24.325  1.00  0.00     0.035 A 
HETATM   16  C   UNL     1      10.947   0.954  24.627  1.00  0.00     0.029 A 
HETATM   17  C   UNL     1      12.225   0.634  24.196  1.00  0.00     0.004 A 
HETATM   18  C   UNL     1      12.152  -0.631  24.035  1.00  0.00     0.029 A 
ENDBRANCH  13  15
ENDBRANCH  10  11
ENDBRANCH   1  10
BRANCH   1  19
HETATM   19  C   UNL     1       7.470  -5.310  23.335  1.00  0.00     0.020 C 
HETATM   20  C   UNL     1       6.797  -4.658  22.425  1.00  0.00     0.013 C 
ENDBRANCH   1  19
TORSDOF 7
ENDMDL
MODEL 4
REMARK VINA RESULT:    -5.044      3.783      4.554
REMARK INTER + INTRA:          -7.710
REMARK INTER:                  -7.160
REMARK INTRA:                  -0.550
REMARK UNBOUND:                -0.601
REMARK  7 active torsions:
REMARK  status: ('A' for Active; 'I' for Inactive)
REMARK    1  A    between atoms: C_2  and  N_4 
REMARK    2  A    between atoms: N_6  and  C_8 
REMARK    3  A    between atoms: C_8  and  C_12 
REMARK    4  A    between atoms: C_9  and  C_13 
REMARK    5  A    between atoms: C_9  and  C_12 
REMARK    6  A    between atoms: C_10  and  C_12 
REMARK       I    between atoms: C_13  and  N_15 
REMARK    7  A    between atoms: N_15  and  C_17 
ROOT
HETATM    1  C   UNL     1       8.325  -2.630  22.956  1.00  0.00     0.078 C 
ENDROOT
BRANCH   1   2
HETATM    2  C   UNL     1       9.457  -1.911  23.009  1.00  0.00    -0.005 C 
BRANCH   2   3
HETATM    3  N   UNL     1      10.503  -1.433  23.223  1.00  0.00    -0.264 N 
HETATM    4  N   UNL     1      11.622  -1.527  22.602  1.00  0.00    -0.271 N 
ATOM      5  HN  UNL     1      11.642  -1.563  21.583  1.00  0.00     0.186 HD
ATOM      6  HN  UNL     1      10.531  -0.837  24.050  1.00  0.00     0.196 HD
BRANCH   4   7
HETATM    7  C   UNL     1      12.813  -1.579  23.332  1.00  0.00     0.473 C 
HETATM    8  F   UNL     1      13.871  -2.014  22.502  1.00  0.00    -0.190 F 
HETATM    9  F   UNL     1      13.215  -0.401  23.752  1.00  0.00    -0.190 F 
ENDBRANCH   4   7
ENDBRANCH   2   3
ENDBRANCH   1   2
BRANCH   1  10
HETATM   10  C   UNL     1       7.462  -2.257  22.266  1.00  0.00    -0.034 C 
BRANCH  10  11
HETATM   11  C   UNL     1       6.436  -1.867  21.300  1.00  0.00     0.294 C 
HETATM   12  O   UNL     1       5.627  -2.748  21.078  1.00  0.00    -0.258 OA
HETATM   13  N   UNL     1       6.597  -0.613  20.899  1.00  0.00    -0.317 N 
ATOM     14  HN  UNL     1       7.278  -0.006  21.354  1.00  0.00     0.170 HD
BRANCH  13  15
HETATM   15  C   UNL     1       6.014  -0.259  20.109  1.00  0.00     0.035 A 
HETATM   16  C   UNL     1       5.015   1.103  19.494  1.00  0.00     0.029 A 
HETATM   17  C   UNL     1       5.274   0.579  18.237  1.00  0.00     0.004 A 
HETATM   18  C   UNL     1       6.089  -0.369  18.498  1.00  0.00     0.029 A 
ENDBRANCH  13  15
ENDBRANCH  10  11
ENDBRANCH   1  10
BRANCH   1  19
HETATM   19  C   UNL     1       8.219  -3.835  23.813  1.00  0.00     0.020 C 
HETATM   20  C   UNL     1       7.514  -4.796  23.281  1.00  0.00     0.013 C 
ENDBRANCH   1  19
TORSDOF 7
ENDMDL
MODEL 5
REMARK VINA RESULT:    -4.978      2.175      5.053
REMARK INTER + INTRA:          -7.616
REMARK INTER:                  -7.169
REMARK INTRA:                  -0.448
REMARK UNBOUND:                -0.601
REMARK  7 active torsions:
REMARK  status: ('A' for Active; 'I' for Inactive)
REMARK    1  A    between atoms: C_2  and  N_4 
REMARK    2  A    between atoms: N_6  and  C_8 
REMARK    3  A    between atoms: C_8  and  C_12 
REMARK    4  A    between atoms: C_9  and  C_13 
REMARK    5  A    between atoms: C_9  and  C_12 
REMARK    6  A    between atoms: C_10  and  C_12 
REMARK       I    between atoms: C_13  and  N_15 
REMARK    7  A    between atoms: N_15  and  C_17 
ROOT
HETATM    1  C   UNL     1       7.323   0.047  20.613  1.00  0.00     0.078 C 
ENDROOT
BRANCH   1   2
HETATM    2  C   UNL     1       6.684  -0.986  21.183  1.00  0.00    -0.005 C 
BRANCH   2   3
HETATM    3  N   UNL     1       6.056  -1.932  21.464  1.00  0.00    -0.264 N 
HETATM    4  N   UNL     1       5.774  -2.458  22.600  1.00  0.00    -0.271 N 
ATOM      5  HN  UNL     1       5.581  -1.864  23.406  1.00  0.00     0.186 HD
ATOM      6  HN  UNL     1       5.664  -2.428  20.664  1.00  0.00     0.196 HD
BRANCH   4   7
HETATM    7  C   UNL     1       5.734  -3.849  22.726  1.00  0.00     0.473 C 
HETATM    8  F   UNL     1       6.113  -4.230  24.033  1.00  0.00    -0.190 F 
HETATM    9  F   UNL     1       4.524  -4.346  22.597  1.00  0.00    -0.190 F 
ENDBRANCH   4   7
ENDBRANCH   2   3
ENDBRANCH   1   2
BRANCH   1  10
HETATM   10  C   UNL     1       8.361   0.363  21.042  1.00  0.00    -0.034 C 
BRANCH  10  11
HETATM   11  C   UNL     1       9.640   0.666  21.682  1.00  0.00     0.294 C 
HETATM   12  O   UNL     1      10.101   1.741  21.346  1.00  0.00    -0.258 OA
HETATM   13  N   UNL     1      10.003  -0.293  22.522  1.00  0.00    -0.317 N 
ATOM     14  HN  UNL     1       9.359  -1.048  22.759  1.00  0.00     0.170 HD
BRANCH  13  15
HETATM   15  C   UNL     1      10.960  -0.263  22.938  1.00  0.00     0.035 A 
HETATM   16  C   UNL     1      11.989   0.409  24.250  1.00  0.00     0.029 A 
HETATM   17  C   UNL     1      12.816  -0.675  24.004  1.00  0.00     0.004 A 
HETATM   18  C   UNL     1      12.151  -1.336  23.136  1.00  0.00     0.029 A 
ENDBRANCH  13  15
ENDBRANCH  10  11
ENDBRANCH   1  10
BRANCH   1  19
HETATM   19  C   UNL     1       6.654   0.756  19.497  1.00  0.00     0.020 C 
HETATM   20  C   UNL     1       6.436   0.003  18.453  1.00  0.00     0.013 C 
ENDBRANCH   1  19
TORSDOF 7
ENDMDL
MODEL 6
REMARK VINA RESULT:    -4.959     18.811     21.595
REMARK INTER + INTRA:          -7.589
REMARK INTER:                  -7.093
REMARK INTRA:                  -0.496
REMARK UNBOUND:                -0.601
REMARK  7 active torsions:
REMARK  status: ('A' for Active; 'I' for Inactive)
REMARK    1  A    between atoms: C_2  and  N_4 
REMARK    2  A    between atoms: N_6  and  C_8 
REMARK    3  A    between atoms: C_8  and  C_12 
REMARK    4  A    between atoms: C_9  and  C_13 
REMARK    5  A    between atoms: C_9  and  C_12 
REMARK    6  A    between atoms: C_10  and  C_12 
REMARK       I    between atoms: C_13  and  N_15 
REMARK    7  A    between atoms: N_15  and  C_17 
ROOT
HETATM    1  C   UNL     1      -1.110 -16.676   9.378  1.00  0.00     0.078 C 
ENDROOT
BRANCH   1   2
HETATM    2  C   UNL     1      -1.027 -16.345  10.676  1.00  0.00    -0.005 C 
BRANCH   2   3
HETATM    3  N   UNL     1      -0.736 -15.995  11.754  1.00  0.00    -0.264 N 
HETATM    4  N   UNL     1       0.093 -16.476  12.607  1.00  0.00    -0.271 N 
ATOM      5  HN  UNL     1       0.982 -16.868  12.296  1.00  0.00     0.186 HD
ATOM      6  HN  UNL     1      -1.228 -15.161  12.071  1.00  0.00     0.196 HD
BRANCH   4   7
HETATM    7  C   UNL     1      -0.229 -16.459  13.967  1.00  0.00     0.473 C 
HETATM    8  F   UNL     1      -1.509 -17.023  14.169  1.00  0.00    -0.190 F 
HETATM    9  F   UNL     1       0.560 -17.214  14.697  1.00  0.00    -0.190 F 
ENDBRANCH   4   7
ENDBRANCH   2   3
ENDBRANCH   1   2
BRANCH   1  10
HETATM   10  C   UNL     1      -0.545 -17.627   9.010  1.00  0.00    -0.034 C 
BRANCH  10  11
HETATM   11  C   UNL     1       0.282 -18.755   8.582  1.00  0.00     0.294 C 
HETATM   12  O   UNL     1      -0.071 -19.232   7.520  1.00  0.00    -0.258 OA
HETATM   13  N   UNL     1       1.265 -18.990   9.440  1.00  0.00    -0.317 N 
ATOM     14  HN  UNL     1       1.455 -18.341  10.203  1.00  0.00     0.170 HD
BRANCH  13  15
HETATM   15  C   UNL     1       1.841 -19.853   9.321  1.00  0.00     0.035 A 
HETATM   16  C   UNL     1       1.851 -21.650   9.363  1.00  0.00     0.029 A 
HETATM   17  C   UNL     1       2.970 -21.551   8.552  1.00  0.00     0.004 A 
HETATM   18  C   UNL     1       3.040 -20.295   8.332  1.00  0.00     0.029 A 
ENDBRANCH  13  15
ENDBRANCH  10  11
ENDBRANCH   1  10
BRANCH   1  19
HETATM   19  C   UNL     1      -1.881 -15.788   8.476  1.00  0.00     0.020 C 
HETATM   20  C   UNL     1      -1.172 -15.288   7.501  1.00  0.00     0.013 C 
ENDBRANCH   1  19
TORSDOF 7
ENDMDL
MODEL 7
REMARK VINA RESULT:    -4.920      3.287      6.218
REMARK INTER + INTRA:          -7.534
REMARK INTER:                  -7.012
REMARK INTRA:                  -0.522
REMARK UNBOUND:                -0.601
REMARK  7 active torsions:
REMARK  status: ('A' for Active; 'I' for Inactive)
REMARK    1  A    between atoms: C_2  and  N_4 
REMARK    2  A    between atoms: N_6  and  C_8 
REMARK    3  A    between atoms: C_8  and  C_12 
REMARK    4  A    between atoms: C_9  and  C_13 
REMARK    5  A    between atoms: C_9  and  C_12 
REMARK    6  A    between atoms: C_10  and  C_12 
REMARK       I    between atoms: C_13  and  N_15 
REMARK    7  A    between atoms: N_15  and  C_17 
ROOT
HETATM    1  C   UNL     1       8.925   0.154  21.515  1.00  0.00     0.078 C 
ENDROOT
BRANCH   1   2
HETATM    2  C   UNL     1       7.968   0.120  20.575  1.00  0.00    -0.005 C 
BRANCH   2   3
HETATM    3  N   UNL     1       7.239  -0.107  19.689  1.00  0.00    -0.264 N 
HETATM    4  N   UNL     1       7.212   0.323  18.480  1.00  0.00    -0.271 N 
ATOM      5  HN  UNL     1       8.082   0.470  17.968  1.00  0.00     0.186 HD
ATOM      6  HN  UNL     1       6.491  -0.762  19.917  1.00  0.00     0.196 HD
BRANCH   4   7
HETATM    7  C   UNL     1       5.983   0.587  17.868  1.00  0.00     0.473 C 
HETATM    8  F   UNL     1       4.959   0.638  18.841  1.00  0.00    -0.190 F 
HETATM    9  F   UNL     1       5.931   1.772  17.302  1.00  0.00    -0.190 F 
ENDBRANCH   4   7
ENDBRANCH   2   3
ENDBRANCH   1   2
BRANCH   1  10
HETATM   10  C   UNL     1       9.111  -0.805  22.152  1.00  0.00    -0.034 C 
BRANCH  10  11
HETATM   11  C   UNL     1       9.425  -1.930  23.032  1.00  0.00     0.294 C 
HETATM   12  O   UNL     1      10.613  -2.186  23.078  1.00  0.00    -0.258 OA
HETATM   13  N   UNL     1       8.335  -2.408  23.617  1.00  0.00    -0.317 N 
ATOM     14  HN  UNL     1       7.445  -1.916  23.538  1.00  0.00     0.170 HD
BRANCH  13  15
HETATM   15  C   UNL     1       8.404  -3.296  24.161  1.00  0.00     0.035 A 
HETATM   16  C   UNL     1       8.368  -4.044  25.796  1.00  0.00     0.029 A 
HETATM   17  C   UNL     1       8.045  -5.215  25.130  1.00  0.00     0.004 A 
HETATM   18  C   UNL     1       7.923  -4.820  23.921  1.00  0.00     0.029 A 
ENDBRANCH  13  15
ENDBRANCH  10  11
ENDBRANCH   1  10
BRANCH   1  19
HETATM   19  C   UNL     1       9.661   1.424  21.721  1.00  0.00     0.020 C 
HETATM   20  C   UNL     1       8.964   2.340  22.335  1.00  0.00     0.013 C 
ENDBRANCH   1  19
TORSDOF 7
ENDMDL
MODEL 8
REMARK VINA RESULT:    -4.779      4.215      5.740
REMARK INTER + INTRA:          -7.337
REMARK INTER:                  -6.773
REMARK INTRA:                  -0.564
REMARK UNBOUND:                -0.601
REMARK  7 active torsions:
REMARK  status: ('A' for Active; 'I' for Inactive)
REMARK    1  A    between atoms: C_2  and  N_4 
REMARK    2  A    between atoms: N_6  and  C_8 
REMARK    3  A    between atoms: C_8  and  C_12 
REMARK    4  A    between atoms: C_9  and  C_13 
REMARK    5  A    between atoms: C_9  and  C_12 
REMARK    6  A    between atoms: C_10  and  C_12 
REMARK       I    between atoms: C_13  and  N_15 
REMARK    7  A    between atoms: N_15  and  C_17 
ROOT
HETATM    1  C   UNL     1       9.537  -0.106  21.937  1.00  0.00     0.078 C 
ENDROOT
BRANCH   1   2
HETATM    2  C   UNL     1       8.668   0.238  20.974  1.00  0.00    -0.005 C 
BRANCH   2   3
HETATM    3  N   UNL     1       7.807   0.336  20.188  1.00  0.00    -0.264 N 
HETATM    4  N   UNL     1       6.561   0.612  20.325  1.00  0.00    -0.271 N 
ATOM      5  HN  UNL     1       6.260   1.301  21.014  1.00  0.00     0.186 HD
ATOM      6  HN  UNL     1       8.097   0.174  19.224  1.00  0.00     0.196 HD
BRANCH   4   7
HETATM    7  C   UNL     1       5.618  -0.038  19.523  1.00  0.00     0.473 C 
HETATM    8  F   UNL     1       5.946   0.130  18.158  1.00  0.00    -0.190 F 
HETATM    9  F   UNL     1       5.614  -1.342  19.682  1.00  0.00    -0.190 F 
ENDBRANCH   4   7
ENDBRANCH   2   3
ENDBRANCH   1   2
BRANCH   1  10
HETATM   10  C   UNL     1      10.075   0.744  22.528  1.00  0.00    -0.034 C 
BRANCH  10  11
HETATM   11  C   UNL     1      10.858   1.725  23.278  1.00  0.00     0.294 C 
HETATM   12  O   UNL     1      11.499   1.232  24.187  1.00  0.00    -0.258 OA
HETATM   13  N   UNL     1      10.720   2.944  22.775  1.00  0.00    -0.317 N 
ATOM     14  HN  UNL     1      10.235   3.089  21.890  1.00  0.00     0.170 HD
BRANCH  13  15
HETATM   15  C   UNL     1      11.117   3.753  23.301  1.00  0.00     0.035 A 
HETATM   16  C   UNL     1      12.460   4.945  23.402  1.00  0.00     0.029 A 
HETATM   17  C   UNL     1      11.571   5.716  24.135  1.00  0.00     0.004 A 
HETATM   18  C   UNL     1      10.493   5.033  24.065  1.00  0.00     0.029 A 
ENDBRANCH  13  15
ENDBRANCH  10  11
ENDBRANCH   1  10
BRANCH   1  19
HETATM   19  C   UNL     1       9.796  -1.547  22.166  1.00  0.00     0.020 C 
HETATM   20  C   UNL     1       9.779  -1.889  23.425  1.00  0.00     0.013 C 
ENDBRANCH   1  19
TORSDOF 7
ENDMDL
MODEL 9
REMARK VINA RESULT:    -4.738     16.815     18.949
REMARK INTER + INTRA:          -7.279
REMARK INTER:                  -6.810
REMARK INTRA:                  -0.469
REMARK UNBOUND:                -0.601
REMARK  7 active torsions:
REMARK  status: ('A' for Active; 'I' for Inactive)
REMARK    1  A    between atoms: C_2  and  N_4 
REMARK    2  A    between atoms: N_6  and  C_8 
REMARK    3  A    between atoms: C_8  and  C_12 
REMARK    4  A    between atoms: C_9  and  C_13 
REMARK    5  A    between atoms: C_9  and  C_12 
REMARK    6  A    between atoms: C_10  and  C_12 
REMARK       I    between atoms: C_13  and  N_15 
REMARK    7  A    between atoms: N_15  and  C_17 
ROOT
HETATM    1  C   UNL     1      25.034  -1.112  14.408  1.00  0.00     0.078 C 
ENDROOT
BRANCH   1   2
HETATM    2  C   UNL     1      24.559  -0.013  13.801  1.00  0.00    -0.005 C 
BRANCH   2   3
HETATM    3  N   UNL     1      24.360   1.028  13.306  1.00  0.00    -0.264 N 
HETATM    4  N   UNL     1      24.275   1.380  12.074  1.00  0.00    -0.271 N 
ATOM      5  HN  UNL     1      23.828   0.764  11.395  1.00  0.00     0.186 HD
ATOM      6  HN  UNL     1      24.231   1.791  13.970  1.00  0.00     0.196 HD
BRANCH   4   7
HETATM    7  C   UNL     1      24.798   2.612  11.671  1.00  0.00     0.473 C 
HETATM    8  F   UNL     1      26.044   2.423  11.031  1.00  0.00    -0.190 F 
HETATM    9  F   UNL     1      24.068   3.210  10.757  1.00  0.00    -0.190 F 
ENDBRANCH   4   7
ENDBRANCH   2   3
ENDBRANCH   1   2
BRANCH   1  10
HETATM   10  C   UNL     1      24.418  -1.571  15.285  1.00  0.00    -0.034 C 
BRANCH  10  11
HETATM   11  C   UNL     1      23.618  -2.017  16.425  1.00  0.00     0.294 C 
HETATM   12  O   UNL     1      22.578  -2.556  16.099  1.00  0.00    -0.258 OA
HETATM   13  N   UNL     1      24.227  -1.761  17.575  1.00  0.00    -0.317 N 
ATOM     14  HN  UNL     1      25.191  -1.430  17.590  1.00  0.00     0.170 HD
BRANCH  13  15
HETATM   15  C   UNL     1      23.701  -1.905  18.465  1.00  0.00     0.035 A 
HETATM   16  C   UNL     1      23.806  -2.409  20.188  1.00  0.00     0.029 A 
HETATM   17  C   UNL     1      22.644  -1.673  20.358  1.00  0.00     0.004 A 
HETATM   18  C   UNL     1      22.485  -1.142  19.207  1.00  0.00     0.029 A 
ENDBRANCH  13  15
ENDBRANCH  10  11
ENDBRANCH   1  10
BRANCH   1  19
HETATM   19  C   UNL     1      26.338  -1.653  13.958  1.00  0.00     0.020 C 
HETATM   20  C   UNL     1      26.509  -1.601  12.665  1.00  0.00     0.013 C 
ENDBRANCH   1  19
TORSDOF 7
ENDMDL
