REMARK  6 active torsions:
REMARK  status: ('A' for Active; 'I' for Inactive)
REMARK    1  A    between atoms: S_2  and  N_5 
REMARK    2  A    between atoms: N_5  and  C_7 
REMARK    3  A    between atoms: C_8  and  C_9 
REMARK    4  A    between atoms: C_9  and  C_15 
REMARK    5  A    between atoms: C_15  and  C_16 
REMARK       I    between atoms: C_16  and  N_18 
REMARK    6  A    between atoms: N_18  and  C_20 
ROOT
HETATM    1  C   UNL     1      10.365  -1.125  23.230  1.00  0.00     0.076 C 
HETATM    2  C   UNL     1      11.018  -0.044  24.287  1.00  0.00     0.003 C 
HETATM    3  C   UNL     1      12.113   0.266  24.287  1.00  0.00    -0.002 C 
HETATM    4  C   UNL     1      13.111  -0.265  23.471  1.00  0.00    -0.001 C 
HETATM    5  C   UNL     1      12.764  -1.233  22.724  1.00  0.00    -0.002 C 
HETATM    6  C   UNL     1      11.729  -1.726  22.572  1.00  0.00     0.003 C 
ENDROOT
BRANCH   1   7
HETATM    7  C   UNL     1       9.439  -1.984  23.505  1.00  0.00     0.021 C 
HETATM    8  C   UNL     1       8.930  -2.933  24.136  1.00  0.00     0.098 C 
BRANCH   8   9
HETATM    9  N   UNL     1       8.090  -3.587  24.642  1.00  0.00    -0.296 N 
ATOM     10  HN  UNL     1       7.215  -3.722  24.135  1.00  0.00     0.177 HD
BRANCH   9  11
HETATM   11  S   UNL     1       8.244  -4.284  26.096  1.00  0.00     0.226 S 
HETATM   12  C   UNL     1       6.547  -4.894  26.422  1.00  0.00     0.186 C 
HETATM   13  O   UNL     1       9.087  -5.439  26.060  1.00  0.00    -0.206 OA
HETATM   14  O   UNL     1       8.565  -3.398  27.169  1.00  0.00    -0.206 OA
ENDBRANCH   9  11
ENDBRANCH   8   9
ENDBRANCH   1   7
BRANCH   1  15
HETATM   15  C   UNL     1       9.711  -0.555  22.348  1.00  0.00    -0.061 C 
BRANCH  15  16
HETATM   16  C   UNL     1       9.053   0.061  21.387  1.00  0.00     0.290 C 
HETATM   17  O   UNL     1       9.519   1.004  20.958  1.00  0.00    -0.259 OA
HETATM   18  N   UNL     1       7.895  -0.585  21.125  1.00  0.00    -0.315 N 
ATOM     19  HN  UNL     1       7.613  -1.426  21.629  1.00  0.00     0.170 HD
BRANCH  18  20
HETATM   20  C   UNL     1       7.201  -0.085  20.231  1.00  0.00     0.060 A 
HETATM   21  C   UNL     1       7.217   0.013  18.940  1.00  0.00     0.117 A 
HETATM   22  N   UNL     1       6.763   0.351  17.810  1.00  0.00    -0.373 N 
HETATM   23  C   UNL     1       5.713   0.899  18.288  1.00  0.00     0.088 A 
ATOM     24  HN  UNL     1       7.110   0.230  16.859  1.00  0.00     0.164 HD
HETATM   25  C   UNL     1       5.258   0.991  19.439  1.00  0.00     0.030 A 
HETATM   26  C   UNL     1       5.800   0.576  20.589  1.00  0.00    -0.016 A 
HETATM   27  C   UNL     1       5.453   0.687  21.581  1.00  0.00     0.026 C 
ENDBRANCH  18  20
ENDBRANCH  15  16
ENDBRANCH   1  15
TORSDOF 6
