
 OpenBabel07202414173D

 50 52  0  0  1  0  0  0  0  0999 V2000
    0.9223   -0.2211   -0.1809 Cl  0  0  0  0  0  0  0  0  0  0  0  0
    2.6527   -0.2177   -0.5804 C   0  0  0  0  0  0  0  0  0  0  0  0
    3.2115    1.1938   -0.6733 C   0  0  0  0  0  0  0  0  0  0  0  0
    2.5046    2.1977   -0.5652 O   0  0  0  0  0  0  0  0  0  0  0  0
    4.5876    1.3035   -0.8503 N   0  0  0  0  0  0  0  0  0  0  0  0
    5.5202    0.2009   -1.1307 C   0  0  0  0  0  0  0  0  0  0  0  0
    6.6994    0.1905   -0.1350 C   0  0  0  0  0  0  0  0  0  0  0  0
    7.4022    1.4983    0.0246 N   0  0  0  0  0  0  0  0  0  0  0  0
    8.1961    1.9072   -1.1843 C   0  0  3  0  0  0  0  0  0  0  0  0
    9.0200    3.2601   -1.0880 C   0  0  0  0  0  0  0  0  0  0  0  0
    9.9643    3.2954    0.1272 C   0  0  0  0  0  0  0  0  0  0  0  0
   10.8187    4.5585    0.1383 C   0  0  0  0  0  0  0  0  0  0  0  0
    9.9447    5.8030    0.1572 C   0  0  0  0  0  0  0  0  0  0  0  0
    9.0305    5.8411   -1.0630 C   0  0  0  0  0  0  0  0  0  0  0  0
    8.1905    4.5669   -1.1915 C   0  0  0  0  0  0  0  0  0  0  0  0
    9.1766    0.8013   -1.6552 C   0  0  0  0  0  0  0  0  0  0  0  0
    9.4176    0.6205   -3.0300 C   0  0  0  0  0  0  0  0  0  0  0  0
   10.2958   -0.3729   -3.4831 C   0  0  0  0  0  0  0  0  0  0  0  0
   10.9441   -1.2005   -2.5698 C   0  0  0  0  0  0  0  0  0  0  0  0
   10.7308   -1.0275   -1.2065 C   0  0  0  0  0  0  0  0  0  0  0  0
    9.8684   -0.0251   -0.7520 C   0  0  0  0  0  0  0  0  0  0  0  0
    6.3381    2.4586    0.4140 C   0  0  0  0  0  0  0  0  0  0  0  0
    5.2250    2.6089   -0.6452 C   0  0  0  0  0  0  0  0  0  0  0  0
    2.7775   -0.7370   -1.5329 H   0  0  0  0  0  0  0  0  0  0  0  0
    3.1651   -0.7555    0.2224 H   0  0  0  0  0  0  0  0  0  0  0  0
    5.8874    0.3372   -2.1539 H   0  0  0  0  0  0  0  0  0  0  0  0
    5.0159   -0.7671   -1.0994 H   0  0  0  0  0  0  0  0  0  0  0  0
    7.3803   -0.6265   -0.3845 H   0  0  0  0  0  0  0  0  0  0  0  0
    6.3039   -0.0849    0.8543 H   0  0  0  0  0  0  0  0  0  0  0  0
    7.4990    2.0345   -2.0219 H   0  0  0  0  0  0  0  0  0  0  0  0
    9.6688    3.2893   -1.9778 H   0  0  0  0  0  0  0  0  0  0  0  0
   10.6437    2.4373    0.1107 H   0  0  0  0  0  0  0  0  0  0  0  0
    9.3885    3.2332    1.0581 H   0  0  0  0  0  0  0  0  0  0  0  0
   11.4634    4.5755   -0.7501 H   0  0  0  0  0  0  0  0  0  0  0  0
   11.4786    4.5490    1.0121 H   0  0  0  0  0  0  0  0  0  0  0  0
   10.5744    6.6991    0.1779 H   0  0  0  0  0  0  0  0  0  0  0  0
    9.3439    5.8122    1.0759 H   0  0  0  0  0  0  0  0  0  0  0  0
    9.6300    5.9788   -1.9707 H   0  0  0  0  0  0  0  0  0  0  0  0
    8.3622    6.7085   -0.9822 H   0  0  0  0  0  0  0  0  0  0  0  0
    7.6440    4.5857   -2.1416 H   0  0  0  0  0  0  0  0  0  0  0  0
    7.4396    4.6474   -0.4133 H   0  0  0  0  0  0  0  0  0  0  0  0
    8.9307    1.2588   -3.7611 H   0  0  0  0  0  0  0  0  0  0  0  0
   10.4745   -0.4939   -4.5485 H   0  0  0  0  0  0  0  0  0  0  0  0
   11.6206   -1.9763   -2.9230 H   0  0  0  0  0  0  0  0  0  0  0  0
   11.2364   -1.6719   -0.4902 H   0  0  0  0  0  0  0  0  0  0  0  0
    9.7205    0.0964    0.3193 H   0  0  0  0  0  0  0  0  0  0  0  0
    6.7498    3.4091    0.7391 H   0  0  0  0  0  0  0  0  0  0  0  0
    5.8681    2.0858    1.3364 H   0  0  0  0  0  0  0  0  0  0  0  0
    5.6080    2.9533   -1.6121 H   0  0  0  0  0  0  0  0  0  0  0  0
    4.5019    3.3571   -0.3087 H   0  0  0  0  0  0  0  0  0  0  0  0
  1  2  1  0  0  0  0
  2  3  1  0  0  0  0
  2 24  1  0  0  0  0
  2 25  1  0  0  0  0
  3  4  2  0  0  0  0
  3  5  1  0  0  0  0
  5  6  1  0  0  0  0
  5 23  1  0  0  0  0
  6  7  1  0  0  0  0
  6 26  1  0  0  0  0
  6 27  1  0  0  0  0
  7  8  1  0  0  0  0
  7 28  1  0  0  0  0
  7 29  1  0  0  0  0
  8  9  1  0  0  0  0
  8 22  1  0  0  0  0
  9 10  1  0  0  0  0
  9 16  1  0  0  0  0
  9 30  1  0  0  0  0
 10 11  1  0  0  0  0
 10 15  1  0  0  0  0
 10 31  1  0  0  0  0
 11 12  1  0  0  0  0
 11 32  1  0  0  0  0
 11 33  1  0  0  0  0
 12 13  1  0  0  0  0
 12 34  1  0  0  0  0
 12 35  1  0  0  0  0
 13 14  1  0  0  0  0
 13 36  1  0  0  0  0
 13 37  1  0  0  0  0
 14 15  1  0  0  0  0
 14 38  1  0  0  0  0
 14 39  1  0  0  0  0
 15 40  1  0  0  0  0
 15 41  1  0  0  0  0
 16 17  1  0  0  0  0
 16 21  2  0  0  0  0
 17 18  2  0  0  0  0
 17 42  1  0  0  0  0
 18 19  1  0  0  0  0
 18 43  1  0  0  0  0
 19 20  2  0  0  0  0
 19 44  1  0  0  0  0
 20 21  1  0  0  0  0
 20 45  1  0  0  0  0
 21 46  1  0  0  0  0
 22 23  1  0  0  0  0
 22 47  1  0  0  0  0
 22 48  1  0  0  0  0
 23 49  1  0  0  0  0
 23 50  1  0  0  0  0
M  END
$$$$
