stable:False satoms:14 tatoms:24 sratio:0.5833333333333334
  -OEChem-07092417383D

 24 23  0     1  0  0  0  0  0999 V2000
    7.1471   -4.8110   26.1633 H   0  0  0  0  0  0  0  0  0  0  0  0
    8.1328   -4.3199   26.0751 C   0  0  0  0  0  0  0  0  0  0  0  0
    8.8872   -5.1063   26.0939 H   0  0  0  0  0  0  0  0  0  0  0  0
    8.2817   -3.7003   26.9689 H   0  0  0  0  0  0  0  0  0  0  0  0
    8.1722   -3.5504   24.8673 N   0  5  0  0  0  0  0  0  0  0  0  0
    9.0114   -3.1241   24.5774 H   0  0  0  0  0  0  0  0  0  0  0  0
    8.9365   -1.7884   23.0527 C   0  0  0  0  0  0  0  0  0  0  0  0
   10.2558   -1.0145   23.2714 C   0  0  0  0  0  0  0  0  0  0  0  0
   11.3956   -0.6312   23.8068 C   0  0  0  0  0  0  0  0  0  0  0  0
   11.8774    0.0002   24.5835 O   0  0  0  0  0  0  0  0  0  0  0  0
   13.4343   -0.4172   23.2960 H   0  0  0  0  0  0  0  0  0  0  0  0
   13.2016   -1.1957   22.6901 N   0  5  0  0  0  0  0  0  0  0  0  0
   12.1648   -1.2522   22.9879 C   0  0  0  0  0  0  0  0  0  0  0  0
    9.3078   -0.8478   22.5432 C   0  0  3  0  0  0  0  0  0  0  0  0
    8.9698    0.1728   21.3687 C   0  0  0  0  0  0  0  0  0  0  0  0
    9.6558    1.0865   21.1452 O   0  0  0  0  0  0  0  0  0  0  0  0
    7.9174   -0.3282   20.7362 N   0  0  0  0  0  0  0  0  0  0  0  0
    6.7218    0.2346   20.7511 C   0  0  0  0  0  0  0  0  0  0  0  0
    7.1394   -0.2038   18.3632 H   0  0  0  0  0  0  0  0  0  0  0  0
    6.3592    0.4170   18.3767 N   0  0  0  0  0  0  0  0  0  0  0  0
    5.6870    0.7525   17.7449 H   0  0  0  0  0  0  0  0  0  0  0  0
    5.0377    1.1443   19.8332 H   0  0  0  0  0  0  0  0  0  0  0  0
    5.9881    0.6444   19.7257 C   0  0  0  0  0  0  0  0  0  0  0  0
    5.9016    0.5485   22.2744 Cl  0  0  0  0  0  0  0  0  0  0  0  0
 20 21  1  0  0  0  0
 19 20  1  0  0  0  0
 20 23  1  0  0  0  0
 22 23  1  0  0  0  0
 18 23  2  0  0  0  0
 17 18  1  0  0  0  0
 15 17  1  0  0  0  0
 18 24  1  0  0  0  0
 15 16  2  0  0  0  0
 14 15  1  0  0  0  0
  7 14  1  0  0  0  0
  8 14  1  0  0  0  0
 12 13  1  0  0  0  0
 11 12  1  0  0  0  0
  9 13  1  0  0  0  0
  7  8  1  0  0  0  0
  8  9  2  3  0  0  0
  9 10  1  0  0  0  0
  5  6  1  0  0  0  0
  2  5  1  0  0  0  0
  2  3  1  0  0  0  0
  1  2  1  0  0  0  0
  2  4  1  0  0  0  0
M  CHG  2   5  -1  12  -1
M  END
> <Shapegauss>
-185.100266

$$$$
