
 OpenBabel07202414163D

 44 47  0  0  0  0  0  0  0  0999 V2000
    0.8768   -1.7229    2.5072 Cl  0  0  0  0  0  0  0  0  0  0  0  0
    0.8857   -0.7535    1.0837 C   0  0  0  0  0  0  0  0  0  0  0  0
    1.5552    0.4714    1.0869 C   0  0  0  0  0  0  0  0  0  0  0  0
    1.5786    1.2643   -0.0677 C   0  0  0  0  0  0  0  0  0  0  0  0
    2.3301    2.5744   -0.0901 C   0  0  0  0  0  0  0  0  0  0  0  0
    1.4423    3.7987   -0.2532 C   0  0  0  0  0  0  0  0  0  0  0  0
    0.7102    4.1921    0.6507 O   0  0  0  0  0  0  0  0  0  0  0  0
    1.5238    4.3821   -1.5082 N   0  0  0  0  0  0  0  0  0  0  0  0
    0.8062    5.5528   -1.8609 C   0  0  0  0  0  0  0  0  0  0  0  0
    0.7356    6.6426   -0.9904 C   0  0  0  0  0  0  0  0  0  0  0  0
    0.1246    7.8146   -1.2818 N   0  0  0  0  0  0  0  0  0  0  0  0
   -0.4812    7.8906   -2.4855 C   0  0  0  0  0  0  0  0  0  0  0  0
   -0.5044    6.8621   -3.4304 C   0  0  0  0  0  0  0  0  0  0  0  0
   -1.2010    6.9963   -4.6450 C   0  0  0  0  0  0  0  0  0  0  0  0
   -1.2533    5.9425   -5.5555 C   0  0  0  0  0  0  0  0  0  0  0  0
   -0.6044    4.7486   -5.2689 C   0  0  0  0  0  0  0  0  0  0  0  0
    0.1027    4.6085   -4.0721 C   0  0  0  0  0  0  0  0  0  0  0  0
    0.1709    5.6582   -3.1227 C   0  0  0  0  0  0  0  0  0  0  0  0
    0.9352    0.7878   -1.2185 C   0  0  0  0  0  0  0  0  0  0  0  0
    0.2988   -0.4631   -1.2412 C   0  0  0  0  0  0  0  0  0  0  0  0
   -0.3774   -0.9341   -2.3969 N   0  0  0  0  0  0  0  0  0  0  0  0
    0.0906   -0.7367   -3.7182 C   0  0  0  0  0  0  0  0  0  0  0  0
   -0.7750   -0.8203   -4.8233 C   0  0  0  0  0  0  0  0  0  0  0  0
   -2.4772   -0.9923   -4.6350 Cl  0  0  0  0  0  0  0  0  0  0  0  0
   -0.3792   -0.7092   -6.1146 N   0  0  0  0  0  0  0  0  0  0  0  0
    0.9497   -0.5539   -6.2914 C   0  0  0  0  0  0  0  0  0  0  0  0
    1.6178   -0.4139   -8.0544 Br  0  0  0  0  0  0  0  0  0  0  0  0
    1.8306   -0.4873   -5.2229 C   0  0  0  0  0  0  0  0  0  0  0  0
    1.4224   -0.5648   -3.9326 N   0  0  0  0  0  0  0  0  0  0  0  0
    0.2393   -1.2116   -0.0631 C   0  0  0  0  0  0  0  0  0  0  0  0
    2.0630    0.8002    1.9912 H   0  0  0  0  0  0  0  0  0  0  0  0
    3.0844    2.5382   -0.8856 H   0  0  0  0  0  0  0  0  0  0  0  0
    2.8883    2.7167    0.8438 H   0  0  0  0  0  0  0  0  0  0  0  0
    1.8614    3.8026   -2.2636 H   0  0  0  0  0  0  0  0  0  0  0  0
    1.2230    6.6257   -0.0195 H   0  0  0  0  0  0  0  0  0  0  0  0
   -0.9837    8.8378   -2.6710 H   0  0  0  0  0  0  0  0  0  0  0  0
   -1.7291    7.9189   -4.8785 H   0  0  0  0  0  0  0  0  0  0  0  0
   -1.8147    6.0486   -6.4807 H   0  0  0  0  0  0  0  0  0  0  0  0
   -0.6640    3.9153   -5.9648 H   0  0  0  0  0  0  0  0  0  0  0  0
    0.5615    3.6450   -3.8754 H   0  0  0  0  0  0  0  0  0  0  0  0
    0.9440    1.3919   -2.1212 H   0  0  0  0  0  0  0  0  0  0  0  0
   -1.3674   -0.7122   -2.3252 H   0  0  0  0  0  0  0  0  0  0  0  0
    2.9006   -0.3746   -5.3632 H   0  0  0  0  0  0  0  0  0  0  0  0
   -0.2675   -2.1737   -0.0558 H   0  0  0  0  0  0  0  0  0  0  0  0
  1  2  1  0  0  0  0
  2  3  2  0  0  0  0
  2 30  1  0  0  0  0
  3  4  1  0  0  0  0
  3 31  1  0  0  0  0
  4  5  1  0  0  0  0
  4 19  2  0  0  0  0
  5  6  1  0  0  0  0
  5 32  1  0  0  0  0
  5 33  1  0  0  0  0
  6  7  2  0  0  0  0
  6  8  1  0  0  0  0
  8  9  1  0  0  0  0
  8 34  1  0  0  0  0
  9 10  2  0  0  0  0
  9 18  1  0  0  0  0
 10 11  1  0  0  0  0
 10 35  1  0  0  0  0
 11 12  2  0  0  0  0
 12 13  1  0  0  0  0
 12 36  1  0  0  0  0
 13 14  2  0  0  0  0
 13 18  1  0  0  0  0
 14 15  1  0  0  0  0
 14 37  1  0  0  0  0
 15 16  2  0  0  0  0
 15 38  1  0  0  0  0
 16 17  1  0  0  0  0
 16 39  1  0  0  0  0
 17 18  2  0  0  0  0
 17 40  1  0  0  0  0
 19 20  1  0  0  0  0
 19 41  1  0  0  0  0
 20 21  1  0  0  0  0
 20 30  2  0  0  0  0
 21 22  1  0  0  0  0
 21 42  1  0  0  0  0
 22 23  2  0  0  0  0
 22 29  1  0  0  0  0
 23 24  1  0  0  0  0
 23 25  1  0  0  0  0
 25 26  2  0  0  0  0
 26 27  1  0  0  0  0
 26 28  1  0  0  0  0
 28 29  2  0  0  0  0
 28 43  1  0  0  0  0
 30 44  1  0  0  0  0
M  END
$$$$
