stable:False satoms:7 tatoms:24 sratio:0.2916666666666667
  -OEChem-07092417483D

 24 26  0     1  0  0  0  0  0999 V2000
    6.5486   -4.8725   26.4753 C   0  0  0  0  0  0  0  0  0  0  0  0
    8.2233   -4.3010   26.1119 S   0  0  0  0  0  0  0  0  0  0  0  0
    9.0385   -5.4859   26.0617 O   0  0  0  0  0  0  0  0  0  0  0  0
    8.5859   -3.4229   27.1849 O   0  0  0  0  0  0  0  0  0  0  0  0
    8.1584   -3.5559   24.6769 N   0  0  0  0  0  0  0  0  0  0  0  0
    8.9778   -2.9090   24.1168 C   0  0  0  0  0  0  0  0  0  0  0  0
    9.4541   -1.9456   23.4534 C   0  0  0  0  0  0  0  0  0  0  0  0
   10.3622   -1.1004   23.2404 C   0  0  1  0  0  0  0  0  0  0  0  0
   11.0557    0.0183   24.3497 C   0  0  0  0  0  0  0  0  0  0  0  0
   12.0047    0.3172   24.3030 C   0  0  0  0  0  0  0  0  0  0  0  0
   13.1845   -0.2317   23.3755 C   0  0  0  0  0  0  0  0  0  0  0  0
   12.7457   -1.2278   22.7031 C   0  0  0  0  0  0  0  0  0  0  0  0
   11.7932   -1.7326   22.5591 C   0  0  0  0  0  0  0  0  0  0  0  0
    9.7266   -0.6014   22.3578 C   0  0  3  0  0  0  0  0  0  0  0  0
    9.0677    0.0387   21.3616 C   0  0  0  0  0  0  0  0  0  0  0  0
    9.5534    0.9783   20.9224 O   0  0  0  0  0  0  0  0  0  0  0  0
    7.9109   -0.5528   21.0812 N   0  0  0  0  0  0  0  0  0  0  0  0
    7.1819   -0.0960   20.1443 C   0  0  0  0  0  0  0  0  0  0  0  0
    7.2469   -0.0330   18.8529 C   0  0  0  0  0  0  0  0  0  0  0  0
    6.7521    0.2910   17.7766 N   0  0  0  0  0  0  0  0  0  0  0  0
    5.6379    0.8886   18.1904 C   0  0  0  0  0  0  0  0  0  0  0  0
    5.2460    0.9802   19.4463 C   0  0  0  0  0  0  0  0  0  0  0  0
    5.8016    0.5824   20.5357 C   0  0  0  0  0  0  0  0  0  0  0  0
    5.3266    0.6836   22.0160 C   0  0  0  0  0  0  0  0  0  0  0  0
 20 21  2  0  0  0  0
 19 20  1  0  0  0  0
 21 22  1  0  0  0  0
 18 19  2  0  0  0  0
 22 23  2  0  0  0  0
 18 23  1  0  0  0  0
 17 18  1  0  0  0  0
 23 24  1  0  0  0  0
 15 16  2  0  0  0  0
 15 17  1  0  0  0  0
 14 15  1  0  0  0  0
  8 14  1  0  0  0  0
  7 14  1  0  0  0  0
 12 13  1  0  0  0  0
  8 13  1  0  0  0  0
 11 12  2  0  0  0  0
  7  8  1  0  0  0  0
  8  9  1  0  0  0  0
 10 11  1  0  0  0  0
  6  7  2  3  0  0  0
  5  6  1  0  0  0  0
  9 10  2  0  0  0  0
  2  5  1  0  0  0  0
  2  3  2  0  0  0  0
  1  2  1  0  0  0  0
  2  4  2  0  0  0  0
M  END
> <Shapegauss>
-285.918488

$$$$
