stable:False satoms:7 tatoms:24 sratio:0.2916666666666667
  -OEChem-08062418123D

 43 45  0     1  0  0  0  0  0999 V2000
   -6.3510   -5.1549  -26.2657 C   0  0  0  0  0  0  0  0  0  0  0  0
   -8.0330   -4.5350  -26.0421 S   0  0  0  0  0  0  0  0  0  0  0  0
   -8.8761   -5.7004  -25.9948 O   0  0  0  0  0  0  0  0  0  0  0  0
   -8.3034   -3.7000  -27.1750 O   0  0  0  0  0  0  0  0  0  0  0  0
   -8.0473   -3.7266  -24.6404 N   0  0  0  0  0  0  0  0  0  0  0  0
   -8.8875   -3.0390  -24.1663 C   0  0  0  0  0  0  0  0  0  0  0  0
   -9.3853   -2.0372  -23.5799 C   0  0  0  0  0  0  0  0  0  0  0  0
  -10.2864   -1.1657  -23.4665 C   0  0  1  0  0  0  0  0  0  0  0  0
  -10.8790   -0.0856  -24.6686 C   0  0  0  0  0  0  0  0  0  0  0  0
  -11.8221    0.2335  -24.6995 C   0  0  0  0  0  0  0  0  0  0  0  0
  -13.0732   -0.2495  -23.8305 C   0  0  0  0  0  0  0  0  0  0  0  0
  -12.7027   -1.2222  -23.0866 C   0  0  0  0  0  0  0  0  0  0  0  0
  -11.7735   -1.7382  -22.8562 C   0  0  0  0  0  0  0  0  0  0  0  0
   -9.7000   -0.6394  -22.5658 C   0  0  3  0  0  0  0  0  0  0  0  0
   -9.0949    0.0327  -21.5566 C   0  0  0  0  0  0  0  0  0  0  0  0
   -9.5876    1.0006  -21.1933 O   0  0  0  0  0  0  0  0  0  0  0  0
   -7.9729   -0.5678  -21.1727 N   0  0  0  0  0  0  0  0  0  0  0  0
   -7.2980   -0.0829  -20.2098 C   0  0  0  0  0  0  0  0  0  0  0  0
   -7.4476    0.0403  -18.9298 C   0  0  0  0  0  0  0  0  0  0  0  0
   -7.0186    0.4035  -17.8379 N   0  0  0  0  0  0  0  0  0  0  0  0
   -5.8661    0.9598  -18.2014 C   0  0  0  0  0  0  0  0  0  0  0  0
   -5.3893    0.9863  -19.4307 C   0  0  0  0  0  0  0  0  0  0  0  0
   -5.8798    0.5500  -20.5365 C   0  0  0  0  0  0  0  0  0  0  0  0
   -5.3049    0.5743  -21.9843 C   0  0  0  0  0  0  0  0  0  0  0  0
   -6.2887   -5.7152  -27.2103 H   0  0  0  0  0  0  0  0  0  0  0  0
   -5.6492   -4.3084  -26.2947 H   0  0  0  0  0  0  0  0  0  0  0  0
   -6.0906   -5.8187  -25.4281 H   0  0  0  0  0  0  0  0  0  0  0  0
   -7.2460   -3.1307  -24.6943 H   0  0  0  0  0  0  0  0  0  0  0  0
   -9.7701   -3.6351  -24.3456 H   0  0  0  0  0  0  0  0  0  0  0  0
  -10.1942    0.2635  -25.4272 H   0  0  0  0  0  0  0  0  0  0  0  0
  -12.0271    1.0126  -25.4188 H   0  0  0  0  0  0  0  0  0  0  0  0
  -14.0659    0.1745  -23.8655 H   0  0  0  0  0  0  0  0  0  0  0  0
  -13.5348   -1.6431  -22.5418 H   0  0  0  0  0  0  0  0  0  0  0  0
  -11.6815   -1.7461  -21.7601 H   0  0  0  0  0  0  0  0  0  0  0  0
  -11.8874   -2.7694  -23.2220 H   0  0  0  0  0  0  0  0  0  0  0  0
  -10.2247   -1.2765  -21.8387 H   0  0  0  0  0  0  0  0  0  0  0  0
   -7.6612   -1.3960  -21.6383 H   0  0  0  0  0  0  0  0  0  0  0  0
   -8.4206   -0.3795  -18.7213 H   0  0  0  0  0  0  0  0  0  0  0  0
   -5.2739    1.4268  -17.4283 H   0  0  0  0  0  0  0  0  0  0  0  0
   -4.4208    1.4548  -19.5249 H   0  0  0  0  0  0  0  0  0  0  0  0
   -4.7204   -0.3403  -22.1626 H   0  0  0  0  0  0  0  0  0  0  0  0
   -6.1329    0.6268  -22.7066 H   0  0  0  0  0  0  0  0  0  0  0  0
   -4.6557    1.4538  -22.1062 H   0  0  0  0  0  0  0  0  0  0  0  0
 20 21  2  0  0  0  0
 19 20  1  0  0  0  0
 21 22  1  0  0  0  0
 18 19  2  0  0  0  0
 22 23  2  0  0  0  0
 18 23  1  0  0  0  0
 17 18  1  0  0  0  0
 23 24  1  0  0  0  0
 15 16  2  0  0  0  0
 15 17  1  0  0  0  0
 14 15  1  0  0  0  0
  8 14  1  0  0  0  0
  7 14  1  0  0  0  0
 12 13  1  0  0  0  0
  8 13  1  0  0  0  0
 11 12  2  0  0  0  0
  7  8  1  0  0  0  0
  8  9  1  0  0  0  0
 10 11  1  0  0  0  0
  6  7  2  3  0  0  0
  5  6  1  0  0  0  0
  9 10  2  0  0  0  0
  2  5  1  0  0  0  0
  2  3  2  0  0  0  0
  1  2  1  0  0  0  0
  2  4  2  0  0  0  0
  1 25  1  0  0  0  0
  1 26  1  0  0  0  0
  1 27  1  0  0  0  0
  5 28  1  0  0  0  0
  6 29  1  0  0  0  0
  9 30  1  0  0  0  0
 10 31  1  0  0  0  0
 11 32  1  0  0  0  0
 12 33  1  0  0  0  0
 13 34  1  0  0  0  0
 13 35  1  0  0  0  0
 14 36  1  0  0  0  0
 17 37  1  0  0  0  0
 19 38  1  0  0  0  0
 21 39  1  0  0  0  0
 22 40  1  0  0  0  0
 24 41  1  0  0  0  0
 24 42  1  0  0  0  0
 24 43  1  0  0  0  0
M  END
> <Chemgauss4>
-13.310194

$$$$
