stable:False satoms:17 tatoms:24 sratio:0.7083333333333334
  -OEChem-08062405233D

 30 30  0     0  0  0  0  0  0999 V2000
    5.5735    5.2154   23.1967 H   0  0  0  0  0  0  0  0  0  0  0  0
    5.3994    4.5182   22.3280 C   0  0  0  0  0  0  0  0  0  0  0  0
    5.4987    5.1087   21.3786 H   0  0  0  0  0  0  0  0  0  0  0  0
    4.3484    4.1473   22.3803 H   0  0  0  0  0  0  0  0  0  0  0  0
    6.3417    3.4581   22.3978 N   0  0  0  0  0  0  0  0  0  0  0  0
    6.7968    2.6836   21.5298 N   0  0  0  0  0  0  0  0  0  0  0  0
    7.4482    1.6007   21.5834 C   0  0  0  0  0  0  0  0  0  0  0  0
    7.3418    0.1418   20.2088 C   0  0  0  0  0  0  0  0  0  0  0  0
    6.2083   -0.6324   19.9328 C   0  0  0  0  0  0  0  0  0  0  0  0
    5.5754   -1.1677   19.1879 N   0  0  0  0  0  0  0  0  0  0  0  0
    6.1209   -0.8652   18.0246 N   0  0  0  0  0  0  0  0  0  0  0  0
    7.1625   -0.1570   17.9554 N   0  0  0  0  0  0  0  0  0  0  0  0
    7.7800    0.3190   18.9448 N   0  0  0  0  0  0  0  0  0  0  0  0
    7.9608    0.4795   21.3352 C   0  0  0  0  0  0  0  0  0  0  0  0
    9.0497   -0.4362   21.9767 C   0  0  0  0  0  0  0  0  0  0  0  0
    9.1753   -1.5586   21.5659 O   0  0  0  0  0  0  0  0  0  0  0  0
    9.7727    0.1140   22.9588 N   0  0  0  0  0  0  0  0  0  0  0  0
   10.8348   -0.4177   23.6647 C   0  0  0  0  0  0  0  0  0  0  0  0
   12.0009   -0.7088   23.0752 N   0  0  0  0  0  0  0  0  0  0  0  0
   13.1337   -0.9389   23.5940 N   0  3  0  0  0  0  0  0  0  0  0  0
   13.7999   -1.1240   22.8715 H   0  0  0  0  0  0  0  0  0  0  0  0
    9.6968   -0.2797   25.3446 H   0  0  0  0  0  0  0  0  0  0  0  0
   10.7141   -0.5607   25.0344 C   0  0  0  0  0  0  0  0  0  0  0  0
   11.4437    0.0914   25.5367 H   0  0  0  0  0  0  0  0  0  0  0  0
    7.8858    1.7451   22.5602 H   0  0  0  0  0  0  0  0  0  0  0  0
    5.7200   -0.7791   20.8849 H   0  0  0  0  0  0  0  0  0  0  0  0
    9.5064    1.0421   23.2190 H   0  0  0  0  0  0  0  0  0  0  0  0
   13.0685   -1.7329   24.1985 H   0  0  0  0  0  0  0  0  0  0  0  0
   10.9059   -1.6076   25.3120 H   0  0  0  0  0  0  0  0  0  0  0  0
   13.4269   -0.1416   24.1215 H   0  0  0  0  0  0  0  0  0  0  0  0
 20 21  1  0  0  0  0
 19 20  1  0  0  0  0
 18 19  2  0  0  0  0
 22 23  1  0  0  0  0
 18 23  1  0  0  0  0
 17 18  1  0  0  0  0
 23 24  1  0  0  0  0
 15 16  2  0  0  0  0
 15 17  1  0  0  0  0
 14 15  1  0  0  0  0
 12 13  2  0  0  0  0
  8 13  1  0  0  0  0
  8 14  1  0  0  0  0
  7 14  2  0  0  0  0
 11 12  1  0  0  0  0
  8  9  2  0  0  0  0
  6  7  1  0  0  0  0
 10 11  2  0  0  0  0
  9 10  1  0  0  0  0
  5  6  2  0  0  0  0
  2  5  1  0  0  0  0
  2  3  1  0  0  0  0
  1  2  1  0  0  0  0
  2  4  1  0  0  0  0
  7 25  1  0  0  0  0
  9 26  1  0  0  0  0
 17 27  1  0  0  0  0
 20 28  1  0  0  0  0
 23 29  1  0  0  0  0
 20 30  1  0  0  0  0
M  CHG  1  20   1
M  END
> <Chemgauss4>
-6.936264

$$$$
