stable:False satoms:17 tatoms:24 sratio:0.7083333333333334
  -OEChem-08062405233D

 30 30  0     0  0  0  0  0  0999 V2000
   -7.0842   -5.2856  -22.7940 H   0  0  0  0  0  0  0  0  0  0  0  0
   -6.7223   -4.5871  -21.9863 C   0  0  0  0  0  0  0  0  0  0  0  0
   -5.6138   -4.4573  -22.1051 H   0  0  0  0  0  0  0  0  0  0  0  0
   -6.8959   -5.0737  -20.9973 H   0  0  0  0  0  0  0  0  0  0  0  0
   -7.4191   -3.3553  -22.1026 N   0  0  0  0  0  0  0  0  0  0  0  0
   -7.1425   -2.1975  -21.7235 N   0  0  0  0  0  0  0  0  0  0  0  0
   -7.8184   -1.1352  -21.6028 C   0  0  0  0  0  0  0  0  0  0  0  0
   -7.4501    0.2973  -20.2459 C   0  0  0  0  0  0  0  0  0  0  0  0
   -7.5616    0.1489  -18.8580 C   0  0  0  0  0  0  0  0  0  0  0  0
   -7.1846    0.3927  -17.8380 N   0  0  0  0  0  0  0  0  0  0  0  0
   -6.0832    1.0859  -18.0583 N   0  0  0  0  0  0  0  0  0  0  0  0
   -5.7120    1.3686  -19.2304 N   0  0  0  0  0  0  0  0  0  0  0  0
   -6.3248    1.0415  -20.2813 N   0  0  0  0  0  0  0  0  0  0  0  0
   -8.2527   -0.0057  -21.2607 C   0  0  0  0  0  0  0  0  0  0  0  0
   -9.3601    0.9789  -21.7504 C   0  0  0  0  0  0  0  0  0  0  0  0
   -9.6327    1.9281  -21.0654 O   0  0  0  0  0  0  0  0  0  0  0  0
   -9.9338    0.6791  -22.9212 N   0  0  0  0  0  0  0  0  0  0  0  0
  -10.8853    1.3837  -23.6336 C   0  0  0  0  0  0  0  0  0  0  0  0
  -10.6282    2.5887  -24.1568 N   0  0  0  0  0  0  0  0  0  0  0  0
  -11.2643    3.2397  -25.0384 N   0  3  0  0  0  0  0  0  0  0  0  0
  -10.8045    4.1118  -25.2053 H   0  0  0  0  0  0  0  0  0  0  0  0
  -12.1406   -0.1970  -23.3851 H   0  0  0  0  0  0  0  0  0  0  0  0
  -12.1020    0.7796  -23.8899 C   0  0  0  0  0  0  0  0  0  0  0  0
  -12.2189    0.6365  -24.9743 H   0  0  0  0  0  0  0  0  0  0  0  0
   -8.5881   -1.3727  -22.3222 H   0  0  0  0  0  0  0  0  0  0  0  0
   -8.4056   -0.5073  -18.7047 H   0  0  0  0  0  0  0  0  0  0  0  0
   -9.6308   -0.1767  -23.3405 H   0  0  0  0  0  0  0  0  0  0  0  0
  -12.1965    3.4101  -24.7190 H   0  0  0  0  0  0  0  0  0  0  0  0
  -12.9148    1.4186  -23.5147 H   0  0  0  0  0  0  0  0  0  0  0  0
  -11.2940    2.7108  -25.8865 H   0  0  0  0  0  0  0  0  0  0  0  0
 20 21  1  0  0  0  0
 19 20  1  0  0  0  0
 18 19  2  0  0  0  0
 22 23  1  0  0  0  0
 18 23  1  0  0  0  0
 17 18  1  0  0  0  0
 23 24  1  0  0  0  0
 15 16  2  0  0  0  0
 15 17  1  0  0  0  0
 14 15  1  0  0  0  0
 12 13  2  0  0  0  0
  8 13  1  0  0  0  0
  8 14  1  0  0  0  0
  7 14  2  0  0  0  0
 11 12  1  0  0  0  0
  8  9  2  0  0  0  0
  6  7  1  0  0  0  0
 10 11  2  0  0  0  0
  9 10  1  0  0  0  0
  5  6  2  0  0  0  0
  2  5  1  0  0  0  0
  2  3  1  0  0  0  0
  1  2  1  0  0  0  0
  2  4  1  0  0  0  0
  7 25  1  0  0  0  0
  9 26  1  0  0  0  0
 17 27  1  0  0  0  0
 20 28  1  0  0  0  0
 23 29  1  0  0  0  0
 20 30  1  0  0  0  0
M  CHG  1  20   1
M  END
> <Chemgauss4>
-7.227646

$$$$
