stable:False satoms:16 tatoms:24 sratio:0.6666666666666666
  -OEChem-07092417323D

 24 25  0     1  0  0  0  0  0999 V2000
    7.2835   -1.6527   25.2857 H   0  0  0  0  0  0  0  0  0  0  0  0
    8.3678   -3.9994   22.1658 Cl  0  0  0  0  0  0  0  0  0  0  0  0
    8.1191   -1.2367   26.8514 H   0  0  0  0  0  0  0  0  0  0  0  0
    7.7129   -0.9431   25.9449 C   0  3  0  0  0  0  0  0  0  0  0  0
    9.4328   -0.8812   23.5290 C   0  0  3  0  0  0  0  0  0  0  0  0
    7.7117    0.6689   25.5242 S   0  0  0  0  0  0  0  0  0  0  0  0
    8.1168    0.8946   23.9409 C   0  0  3  0  0  0  0  0  0  0  0  0
    9.7745   -0.9064   24.5811 N   0  0  0  0  0  0  0  0  0  0  0  0
   10.6893   -1.5996   21.4642 C   0  0  0  0  0  0  0  0  0  0  0  0
   11.0460   -2.5223   21.0994 H   0  0  0  0  0  0  0  0  0  0  0  0
   11.3692   -1.6435   23.4809 H   0  0  0  0  0  0  0  0  0  0  0  0
    9.1876    0.1340   23.7046 N   0  0  1  0  0  0  0  0  0  0  0  0
    9.2852   -1.5013   21.9475 C   0  0  2  0  0  0  0  0  0  0  0  0
   11.5097   -1.4815   22.5764 O   0  0  0  0  0  0  0  0  0  0  0  0
    8.0806   -1.0705   21.5494 C   0  0  0  0  0  0  0  0  0  0  0  0
    8.4078   -2.7251   19.8944 C   0  5  0  0  0  0  0  0  0  0  0  0
    6.1223   -0.4049   21.7559 H   0  0  0  0  0  0  0  0  0  0  0  0
    7.0760   -0.1979   21.3983 C   0  0  0  0  0  0  0  0  0  0  0  0
    9.3072   -2.8439   19.3788 H   0  0  0  0  0  0  0  0  0  0  0  0
   10.6662   -0.9423   20.5541 H   0  0  0  0  0  0  0  0  0  0  0  0
    7.1992    2.1042   23.0019 Cl  0  0  0  0  0  0  0  0  0  0  0  0
    7.4805   -2.8317   19.4226 H   0  0  0  0  0  0  0  0  0  0  0  0
    8.4364   -2.4506   21.2776 C   0  0  2  0  0  0  0  0  0  0  0  0
    7.2019    0.7429   20.9677 H   0  0  0  0  0  0  0  0  0  0  0  0
 16 19  1  0  0  0  0
 16 22  1  0  0  0  0
 16 23  1  0  0  0  0
  9 20  1  0  0  0  0
 18 24  1  0  0  0  0
  9 10  1  0  0  0  0
 15 23  1  0  0  0  0
 13 23  1  0  0  0  0
  2 23  1  0  0  0  0
 15 18  2  0  0  0  0
 17 18  1  0  0  0  0
  9 13  1  0  0  0  0
  9 14  1  0  0  0  0
 13 15  1  0  0  0  0
  5 13  1  0  0  0  0
 11 14  1  0  0  0  0
  7 21  1  0  0  0  0
  5 12  1  0  0  0  0
  5  8  1  0  0  0  0
  7 12  1  0  0  0  0
  8 12  1  0  0  0  0
  6  7  1  0  0  0  0
  1  4  1  0  0  0  0
  4  6  1  0  0  0  0
  3  4  1  0  0  0  0
M  CHG  2   4   1  16  -1
M  END
> <Shapegauss>
-112.311028

$$$$
