stable:False satoms:16 tatoms:24 sratio:0.6666666666666666
  -OEChem-08052422583D

 27 28  0     1  0  0  0  0  0999 V2000
    7.0383   -1.3031   23.1522 Cl  0  0  0  0  0  0  0  0  0  0  0  0
   10.2028    2.4431   23.0933 H   0  0  0  0  0  0  0  0  0  0  0  0
   10.2028    2.4431   23.0933 C   0  0  0  0  0  2  0  0  0  0  0  0
    9.5984    0.2971   25.0498 C   0  0  3  0  0  0  0  0  0  0  0  0
   11.7003    2.0790   23.7260 S   0  0  0  0  0  0  0  0  0  0  0  0
   11.7347    0.5768   24.4072 C   0  0  3  0  0  0  0  0  0  0  0  0
    9.4742    1.3855   25.2057 N   0  0  0  0  0  0  0  0  0  0  0  0
    8.4375   -1.5921   26.2505 C   0  0  0  0  0  0  0  0  0  0  0  0
    7.4411   -1.9327   26.3039 H   0  0  0  0  0  0  0  0  0  0  0  0
    8.1947    0.4978   26.5738 H   0  0  0  0  0  0  0  0  0  0  0  0
   10.6376    0.4693   25.1594 N   0  0  1  0  0  0  0  0  0  0  0  0
    9.0399   -1.3087   24.9195 C   0  0  2  0  0  0  0  0  0  0  0  0
    8.2777   -0.3721   26.8908 O   0  0  0  0  0  0  0  0  0  0  0  0
    9.8639   -1.8585   24.0173 C   0  0  0  0  0  0  0  0  0  0  0  0
    8.1684   -3.5036   23.9680 C   0  0  0  0  0  0  0  0  0  0  0  0
   11.1883   -1.9087   22.4160 H   0  0  0  0  0  0  0  0  0  0  0  0
   11.0342   -2.1213   23.4217 C   0  0  0  0  0  0  0  0  0  0  0  0
    7.0852   -3.6688   23.8713 H   0  0  0  0  0  0  0  0  0  0  0  0
    9.0413   -2.4745   26.5934 H   0  0  0  0  0  0  0  0  0  0  0  0
   13.1728   -0.4425   24.1247 Cl  0  0  0  0  0  0  0  0  0  0  0  0
    8.5137   -3.8944   24.9365 H   0  0  0  0  0  0  0  0  0  0  0  0
    8.4425   -2.1220   23.8939 C   0  0  2  0  0  0  0  0  0  0  0  0
   11.8593   -2.4991   23.9343 H   0  0  0  0  0  0  0  0  0  0  0  0
    9.6410    0.4064   23.9561 H   0  0  0  0  0  0  0  0  0  0  0  0
   11.2226    0.1401   23.5372 H   0  0  0  0  0  0  0  0  0  0  0  0
    9.2578    2.0096   24.4549 H   0  0  0  0  0  0  0  0  0  0  0  0
    8.6929   -4.0255   23.1540 H   0  0  0  0  0  0  0  0  0  0  0  0
 15 18  1  0  0  0  0
 15 21  1  0  0  0  0
 15 22  1  0  0  0  0
  8 19  1  0  0  0  0
 17 23  1  0  0  0  0
  8  9  1  0  0  0  0
 14 22  1  0  0  0  0
 12 22  1  0  0  0  0
  1 22  1  0  0  0  0
 14 17  2  0  0  0  0
 16 17  1  0  0  0  0
  8 12  1  0  0  0  0
  8 13  1  0  0  0  0
 12 14  1  0  0  0  0
  4 12  1  0  0  0  0
 10 13  1  0  0  0  0
  6 20  1  0  0  0  0
  4 11  1  0  0  0  0
  4  7  1  0  0  0  0
  6 11  1  0  0  0  0
  7 11  1  0  0  0  0
  5  6  1  0  0  0  0
  3  5  1  0  0  0  0
  2  3  1  0  0  0  0
  4 24  1  0  0  0  0
  6 25  1  0  0  0  0
  7 26  1  0  0  0  0
 15 27  1  0  0  0  0
M  END
> <Chemgauss4>
-6.572598

$$$$
