MODEL 1
REMARK VINA RESULT:    -4.441      0.000      0.000
REMARK INTER + INTRA:          -6.446
REMARK INTER:                  -5.999
REMARK INTRA:                  -0.447
REMARK UNBOUND:                -0.447
REMARK  6 active torsions:
REMARK  status: ('A' for Active; 'I' for Inactive)
REMARK    1  A    between atoms: N_1  and  O_3 
REMARK    2  A    between atoms: C_2  and  N_14 
REMARK    3  A    between atoms: O_3  and  C_12 
REMARK    4  A    between atoms: C_6  and  C_12 
REMARK    5  A    between atoms: C_6  and  S_9 
REMARK    6  A    between atoms: S_9  and  N_14 
ROOT
HETATM    1  C   UNL     1       8.748  15.582   3.854  1.00  0.00     0.192 C 
ENDROOT
BRANCH   1   2
HETATM    2  C   UNL     1       9.179  17.053   3.799  1.00  0.00     0.218 C 
BRANCH   2   3
HETATM    3  O   UNL     1       8.139  17.690   3.135  1.00  0.00    -0.273 OA
BRANCH   3   4
HETATM    4  N   UNL     1       8.466  18.077   1.883  1.00  0.00    -0.245 N 
HETATM    5  C   UNL     1       7.638  17.853   0.967  1.00  0.00     0.124 A 
HETATM    6  C   UNL     1       8.596  18.387   0.075  1.00  0.00     0.039 A 
HETATM    7  C   UNL     1       9.427  18.651   0.996  1.00  0.00     0.124 A 
ENDBRANCH   3   4
ENDBRANCH   2   3
ENDBRANCH   1   2
BRANCH   1   8
HETATM    8  S   UNL     1      10.048  14.770   2.924  1.00  0.00     0.232 S 
HETATM    9  O   UNL     1      11.287  14.895   3.590  1.00  0.00    -0.206 OA
HETATM   10  O   UNL     1       9.940  15.098   1.547  1.00  0.00    -0.206 OA
BRANCH   8  11
HETATM   11  N   UNL     1       9.545  13.231   3.144  1.00  0.00    -0.296 N 
HETATM   12  H   UNL     1      10.047  12.384   2.942  1.00  0.00     0.177 HD
BRANCH  11  13
HETATM   13  C   UNL     1       8.312  13.003   3.699  1.00  0.00     0.089 C 
HETATM   14  C   UNL     1       7.868  11.759   3.752  1.00  0.00     0.030 C 
ENDBRANCH  11  13
ENDBRANCH   8  11
ENDBRANCH   1   8
TORSDOF 6
ENDMDL
MODEL 2
REMARK VINA RESULT:    -4.210      1.607      2.036
REMARK INTER + INTRA:          -6.133
REMARK INTER:                  -5.416
REMARK INTRA:                  -0.717
REMARK UNBOUND:                -0.447
REMARK  6 active torsions:
REMARK  status: ('A' for Active; 'I' for Inactive)
REMARK    1  A    between atoms: N_1  and  O_3 
REMARK    2  A    between atoms: C_2  and  N_14 
REMARK    3  A    between atoms: O_3  and  C_12 
REMARK    4  A    between atoms: C_6  and  C_12 
REMARK    5  A    between atoms: C_6  and  S_9 
REMARK    6  A    between atoms: S_9  and  N_14 
ROOT
HETATM    1  C   UNL     1      10.728  17.131   4.708  1.00  0.00     0.192 C 
ENDROOT
BRANCH   1   2
HETATM    2  C   UNL     1       9.482  17.617   3.958  1.00  0.00     0.218 C 
BRANCH   2   3
HETATM    3  O   UNL     1       9.964  18.037   2.725  1.00  0.00    -0.273 OA
BRANCH   3   4
HETATM    4  N   UNL     1       9.001  18.139   1.784  1.00  0.00    -0.245 N 
HETATM    5  C   UNL     1       9.359  18.174   0.582  1.00  0.00     0.124 A 
HETATM    6  C   UNL     1       7.993  18.348   0.260  1.00  0.00     0.039 A 
HETATM    7  C   UNL     1       7.614  18.277   1.469  1.00  0.00     0.124 A 
ENDBRANCH   3   4
ENDBRANCH   2   3
ENDBRANCH   1   2
BRANCH   1   8
HETATM    8  S   UNL     1      10.644  15.356   4.476  1.00  0.00     0.232 S 
HETATM    9  O   UNL     1      10.550  14.697   5.722  1.00  0.00    -0.206 OA
HETATM   10  O   UNL     1      11.607  14.942   3.519  1.00  0.00    -0.206 OA
BRANCH   8  11
HETATM   11  N   UNL     1       9.160  15.295   3.795  1.00  0.00    -0.296 N 
HETATM   12  H   UNL     1       8.399  15.941   3.916  1.00  0.00     0.177 HD
BRANCH  11  13
HETATM   13  C   UNL     1       8.869  14.285   2.915  1.00  0.00     0.089 C 
HETATM   14  C   UNL     1       8.554  14.607   1.672  1.00  0.00     0.030 C 
ENDBRANCH  11  13
ENDBRANCH   8  11
ENDBRANCH   1   8
TORSDOF 6
ENDMDL
MODEL 3
REMARK VINA RESULT:    -4.075      2.167      3.469
REMARK INTER + INTRA:          -5.951
REMARK INTER:                  -5.667
REMARK INTRA:                  -0.285
REMARK UNBOUND:                -0.447
REMARK  6 active torsions:
REMARK  status: ('A' for Active; 'I' for Inactive)
REMARK    1  A    between atoms: N_1  and  O_3 
REMARK    2  A    between atoms: C_2  and  N_14 
REMARK    3  A    between atoms: O_3  and  C_12 
REMARK    4  A    between atoms: C_6  and  C_12 
REMARK    5  A    between atoms: C_6  and  S_9 
REMARK    6  A    between atoms: S_9  and  N_14 
ROOT
HETATM    1  C   UNL     1       9.349  16.376   3.843  1.00  0.00     0.192 C 
ENDROOT
BRANCH   1   2
HETATM    2  C   UNL     1       8.964  15.633   2.558  1.00  0.00     0.218 C 
BRANCH   2   3
HETATM    3  O   UNL     1       7.915  16.375   2.033  1.00  0.00    -0.273 OA
BRANCH   3   4
HETATM    4  N   UNL     1       8.319  17.333   1.172  1.00  0.00    -0.245 N 
HETATM    5  C   UNL     1       7.491  18.221   0.853  1.00  0.00     0.124 A 
HETATM    6  C   UNL     1       8.486  18.729  -0.015  1.00  0.00     0.039 A 
HETATM    7  C   UNL     1       9.344  17.859   0.327  1.00  0.00     0.124 A 
ENDBRANCH   3   4
ENDBRANCH   2   3
ENDBRANCH   1   2
BRANCH   1   8
HETATM    8  S   UNL     1      10.784  15.457   4.398  1.00  0.00     0.232 S 
HETATM    9  O   UNL     1      11.266  14.620   3.369  1.00  0.00    -0.206 OA
HETATM   10  O   UNL     1      10.555  14.934   5.698  1.00  0.00    -0.206 OA
BRANCH   8  11
HETATM   11  N   UNL     1      11.820  16.716   4.510  1.00  0.00    -0.296 N 
HETATM   12  H   UNL     1      12.807  16.720   4.322  1.00  0.00     0.177 HD
BRANCH  11  13
HETATM   13  C   UNL     1      11.337  17.950   4.861  1.00  0.00     0.089 C 
HETATM   14  C   UNL     1      12.102  19.007   4.648  1.00  0.00     0.030 C 
ENDBRANCH  11  13
ENDBRANCH   8  11
ENDBRANCH   1   8
TORSDOF 6
ENDMDL
MODEL 4
REMARK VINA RESULT:    -4.055     22.421     24.324
REMARK INTER + INTRA:          -5.924
REMARK INTER:                  -5.685
REMARK INTRA:                  -0.239
REMARK UNBOUND:                -0.447
REMARK  6 active torsions:
REMARK  status: ('A' for Active; 'I' for Inactive)
REMARK    1  A    between atoms: N_1  and  O_3 
REMARK    2  A    between atoms: C_2  and  N_14 
REMARK    3  A    between atoms: O_3  and  C_12 
REMARK    4  A    between atoms: C_6  and  C_12 
REMARK    5  A    between atoms: C_6  and  S_9 
REMARK    6  A    between atoms: S_9  and  N_14 
ROOT
HETATM    1  C   UNL     1       8.269   1.365  22.166  1.00  0.00     0.192 C 
ENDROOT
BRANCH   1   2
HETATM    2  C   UNL     1       7.686   0.303  21.226  1.00  0.00     0.218 C 
BRANCH   2   3
HETATM    3  O   UNL     1       7.944   0.792  19.953  1.00  0.00    -0.273 OA
BRANCH   3   4
HETATM    4  N   UNL     1       6.911   0.624  19.100  1.00  0.00    -0.245 N 
HETATM    5  C   UNL     1       6.274  -0.456  19.158  1.00  0.00     0.124 A 
HETATM    6  C   UNL     1       5.518   0.020  18.062  1.00  0.00     0.039 A 
HETATM    7  C   UNL     1       6.129   1.131  18.017  1.00  0.00     0.124 A 
ENDBRANCH   3   4
ENDBRANCH   2   3
ENDBRANCH   1   2
BRANCH   1   8
HETATM    8  S   UNL     1      10.017   0.966  22.155  1.00  0.00     0.232 S 
HETATM    9  O   UNL     1      10.752   1.976  21.497  1.00  0.00    -0.206 OA
HETATM   10  O   UNL     1      10.203  -0.398  21.805  1.00  0.00    -0.206 OA
BRANCH   8  11
HETATM   11  N   UNL     1      10.292   1.145  23.755  1.00  0.00    -0.296 N 
HETATM   12  H   UNL     1       9.964   1.878  24.358  1.00  0.00     0.177 HD
BRANCH  11  13
HETATM   13  C   UNL     1      11.023   0.193  24.418  1.00  0.00     0.089 C 
HETATM   14  C   UNL     1      12.340   0.303  24.421  1.00  0.00     0.030 C 
ENDBRANCH  11  13
ENDBRANCH   8  11
ENDBRANCH   1   8
TORSDOF 6
ENDMDL
MODEL 5
REMARK VINA RESULT:    -4.050     31.274     32.677
REMARK INTER + INTRA:          -5.917
REMARK INTER:                  -5.201
REMARK INTRA:                  -0.715
REMARK UNBOUND:                -0.447
REMARK  6 active torsions:
REMARK  status: ('A' for Active; 'I' for Inactive)
REMARK    1  A    between atoms: N_1  and  O_3 
REMARK    2  A    between atoms: C_2  and  N_14 
REMARK    3  A    between atoms: O_3  and  C_12 
REMARK    4  A    between atoms: C_6  and  C_12 
REMARK    5  A    between atoms: C_6  and  S_9 
REMARK    6  A    between atoms: S_9  and  N_14 
ROOT
HETATM    1  C   UNL     1       5.059  -5.407  27.620  1.00  0.00     0.192 C 
ENDROOT
BRANCH   1   2
HETATM    2  C   UNL     1       4.388  -6.614  26.954  1.00  0.00     0.218 C 
BRANCH   2   3
HETATM    3  O   UNL     1       5.127  -6.823  25.798  1.00  0.00    -0.273 OA
BRANCH   3   4
HETATM    4  N   UNL     1       4.784  -5.992  24.790  1.00  0.00    -0.245 N 
HETATM    5  C   UNL     1       3.725  -6.237  24.164  1.00  0.00     0.124 A 
HETATM    6  C   UNL     1       4.051  -5.139  23.335  1.00  0.00     0.039 A 
HETATM    7  C   UNL     1       5.105  -4.859  23.982  1.00  0.00     0.124 A 
ENDBRANCH   3   4
ENDBRANCH   2   3
ENDBRANCH   1   2
BRANCH   1   8
HETATM    8  S   UNL     1       6.229  -6.186  28.733  1.00  0.00     0.232 S 
HETATM    9  O   UNL     1       5.894  -7.544  28.932  1.00  0.00    -0.206 OA
HETATM   10  O   UNL     1       6.481  -5.341  29.846  1.00  0.00    -0.206 OA
BRANCH   8  11
HETATM   11  N   UNL     1       7.526  -6.158  27.740  1.00  0.00    -0.296 N 
HETATM   12  H   UNL     1       8.176  -6.902  27.555  1.00  0.00     0.177 HD
BRANCH  11  13
HETATM   13  C   UNL     1       7.791  -5.023  27.018  1.00  0.00     0.089 C 
HETATM   14  C   UNL     1       8.372  -5.153  25.838  1.00  0.00     0.030 C 
ENDBRANCH  11  13
ENDBRANCH   8  11
ENDBRANCH   1   8
TORSDOF 6
ENDMDL
MODEL 6
REMARK VINA RESULT:    -3.997     27.003     28.158
REMARK INTER + INTRA:          -5.846
REMARK INTER:                  -5.366
REMARK INTRA:                  -0.480
REMARK UNBOUND:                -0.447
REMARK  6 active torsions:
REMARK  status: ('A' for Active; 'I' for Inactive)
REMARK    1  A    between atoms: N_1  and  O_3 
REMARK    2  A    between atoms: C_2  and  N_14 
REMARK    3  A    between atoms: O_3  and  C_12 
REMARK    4  A    between atoms: C_6  and  C_12 
REMARK    5  A    between atoms: C_6  and  S_9 
REMARK    6  A    between atoms: S_9  and  N_14 
ROOT
HETATM    1  C   UNL     1       8.562  -2.340  24.410  1.00  0.00     0.192 C 
ENDROOT
BRANCH   1   2
HETATM    2  C   UNL     1       9.038  -2.038  22.983  1.00  0.00     0.218 C 
BRANCH   2   3
HETATM    3  O   UNL     1      10.421  -2.128  23.056  1.00  0.00    -0.273 OA
BRANCH   3   4
HETATM    4  N   UNL     1      11.009  -0.974  23.439  1.00  0.00    -0.245 N 
HETATM    5  C   UNL     1      12.240  -0.997  23.681  1.00  0.00     0.124 A 
HETATM    6  C   UNL     1      12.115   0.363  24.049  1.00  0.00     0.039 A 
HETATM    7  C   UNL     1      10.878   0.409  23.773  1.00  0.00     0.124 A 
ENDBRANCH   3   4
ENDBRANCH   2   3
ENDBRANCH   1   2
BRANCH   1   8
HETATM    8  S   UNL     1       7.819  -3.960  24.229  1.00  0.00     0.232 S 
HETATM    9  O   UNL     1       6.462  -3.930  24.620  1.00  0.00    -0.206 OA
HETATM   10  O   UNL     1       8.690  -4.957  24.745  1.00  0.00    -0.206 OA
BRANCH   8  11
HETATM   11  N   UNL     1       7.841  -4.030  22.597  1.00  0.00    -0.296 N 
HETATM   12  H   UNL     1       8.523  -3.637  21.973  1.00  0.00     0.177 HD
BRANCH  11  13
HETATM   13  C   UNL     1       6.857  -4.726  21.944  1.00  0.00     0.089 C 
HETATM   14  C   UNL     1       6.990  -6.036  21.823  1.00  0.00     0.030 C 
ENDBRANCH  11  13
ENDBRANCH   8  11
ENDBRANCH   1   8
TORSDOF 6
ENDMDL
MODEL 7
REMARK VINA RESULT:    -3.918     29.932     31.108
REMARK INTER + INTRA:          -5.739
REMARK INTER:                  -5.036
REMARK INTRA:                  -0.703
REMARK UNBOUND:                -0.447
REMARK  6 active torsions:
REMARK  status: ('A' for Active; 'I' for Inactive)
REMARK    1  A    between atoms: N_1  and  O_3 
REMARK    2  A    between atoms: C_2  and  N_14 
REMARK    3  A    between atoms: O_3  and  C_12 
REMARK    4  A    between atoms: C_6  and  C_12 
REMARK    5  A    between atoms: C_6  and  S_9 
REMARK    6  A    between atoms: S_9  and  N_14 
ROOT
HETATM    1  C   UNL     1       5.421  -6.339  26.466  1.00  0.00     0.192 C 
ENDROOT
BRANCH   1   2
HETATM    2  C   UNL     1       5.119  -5.629  25.140  1.00  0.00     0.218 C 
BRANCH   2   3
HETATM    3  O   UNL     1       5.268  -6.619  24.178  1.00  0.00    -0.273 OA
BRANCH   3   4
HETATM    4  N   UNL     1       5.872  -6.180  23.053  1.00  0.00    -0.245 N 
HETATM    5  C   UNL     1       5.301  -5.275  22.398  1.00  0.00     0.124 A 
HETATM    6  C   UNL     1       6.350  -5.401  21.458  1.00  0.00     0.039 A 
HETATM    7  C   UNL     1       6.956  -6.290  22.129  1.00  0.00     0.124 A 
ENDBRANCH   3   4
ENDBRANCH   2   3
ENDBRANCH   1   2
BRANCH   1   8
HETATM    8  S   UNL     1       6.744  -5.337  27.142  1.00  0.00     0.232 S 
HETATM    9  O   UNL     1       7.416  -6.032  28.171  1.00  0.00    -0.206 OA
HETATM   10  O   UNL     1       6.291  -4.008  27.353  1.00  0.00    -0.206 OA
BRANCH   8  11
HETATM   11  N   UNL     1       7.725  -5.361  25.835  1.00  0.00    -0.296 N 
HETATM   12  H   UNL     1       7.857  -6.109  25.178  1.00  0.00     0.177 HD
BRANCH  11  13
HETATM   13  C   UNL     1       8.453  -4.241  25.526  1.00  0.00     0.089 C 
HETATM   14  C   UNL     1       8.232  -3.651  24.364  1.00  0.00     0.030 C 
ENDBRANCH  11  13
ENDBRANCH   8  11
ENDBRANCH   1   8
TORSDOF 6
ENDMDL
MODEL 8
REMARK VINA RESULT:    -3.911     23.207     25.306
REMARK INTER + INTRA:          -5.729
REMARK INTER:                  -5.460
REMARK INTRA:                  -0.269
REMARK UNBOUND:                -0.447
REMARK  6 active torsions:
REMARK  status: ('A' for Active; 'I' for Inactive)
REMARK    1  A    between atoms: N_1  and  O_3 
REMARK    2  A    between atoms: C_2  and  N_14 
REMARK    3  A    between atoms: O_3  and  C_12 
REMARK    4  A    between atoms: C_6  and  C_12 
REMARK    5  A    between atoms: C_6  and  S_9 
REMARK    6  A    between atoms: S_9  and  N_14 
ROOT
HETATM    1  C   UNL     1       8.054  -0.967  21.757  1.00  0.00     0.192 C 
ENDROOT
BRANCH   1   2
HETATM    2  C   UNL     1       8.701   0.217  21.027  1.00  0.00     0.218 C 
BRANCH   2   3
HETATM    3  O   UNL     1       8.280   0.082  19.711  1.00  0.00    -0.273 OA
BRANCH   3   4
HETATM    4  N   UNL     1       7.001   0.472  19.519  1.00  0.00    -0.245 N 
HETATM    5  C   UNL     1       6.408   0.050  18.496  1.00  0.00     0.124 A 
HETATM    6  C   UNL     1       5.311   0.846  18.898  1.00  0.00     0.039 A 
HETATM    7  C   UNL     1       5.886   1.251  19.954  1.00  0.00     0.124 A 
ENDBRANCH   3   4
ENDBRANCH   2   3
ENDBRANCH   1   2
BRANCH   1   8
HETATM    8  S   UNL     1       9.371  -1.509  22.844  1.00  0.00     0.232 S 
HETATM    9  O   UNL     1       9.205  -0.962  24.135  1.00  0.00    -0.206 OA
HETATM   10  O   UNL     1      10.623  -1.411  22.181  1.00  0.00    -0.206 OA
BRANCH   8  11
HETATM   11  N   UNL     1       8.943  -3.083  22.937  1.00  0.00    -0.296 N 
HETATM   12  H   UNL     1       9.542  -3.878  23.074  1.00  0.00     0.177 HD
BRANCH  11  13
HETATM   13  C   UNL     1       7.616  -3.420  22.864  1.00  0.00     0.089 C 
HETATM   14  C   UNL     1       7.297  -4.702  22.802  1.00  0.00     0.030 C 
ENDBRANCH  11  13
ENDBRANCH   8  11
ENDBRANCH   1   8
TORSDOF 6
ENDMDL
MODEL 9
REMARK VINA RESULT:    -3.909     24.003     26.377
REMARK INTER + INTRA:          -5.726
REMARK INTER:                  -5.184
REMARK INTRA:                  -0.542
REMARK UNBOUND:                -0.447
REMARK  6 active torsions:
REMARK  status: ('A' for Active; 'I' for Inactive)
REMARK    1  A    between atoms: N_1  and  O_3 
REMARK    2  A    between atoms: C_2  and  N_14 
REMARK    3  A    between atoms: O_3  and  C_12 
REMARK    4  A    between atoms: C_6  and  C_12 
REMARK    5  A    between atoms: C_6  and  S_9 
REMARK    6  A    between atoms: S_9  and  N_14 
ROOT
HETATM    1  C   UNL     1       6.777  -1.931  23.276  1.00  0.00     0.192 C 
ENDROOT
BRANCH   1   2
HETATM    2  C   UNL     1       7.136  -1.053  22.071  1.00  0.00     0.218 C 
BRANCH   2   3
HETATM    3  O   UNL     1       6.315  -1.516  21.052  1.00  0.00    -0.273 OA
BRANCH   3   4
HETATM    4  N   UNL     1       6.260  -0.681  19.992  1.00  0.00    -0.245 N 
HETATM    5  C   UNL     1       6.625   0.507  20.165  1.00  0.00     0.124 A 
HETATM    6  C   UNL     1       6.251   0.737  18.820  1.00  0.00     0.039 A 
HETATM    7  C   UNL     1       5.914  -0.470  18.623  1.00  0.00     0.124 A 
ENDBRANCH   3   4
ENDBRANCH   2   3
ENDBRANCH   1   2
BRANCH   1   8
HETATM    8  S   UNL     1       8.211  -2.997  23.411  1.00  0.00     0.232 S 
HETATM    9  O   UNL     1       8.129  -3.794  24.574  1.00  0.00    -0.206 OA
HETATM   10  O   UNL     1       9.393  -2.263  23.128  1.00  0.00    -0.206 OA
BRANCH   8  11
HETATM   11  N   UNL     1       7.878  -3.973  22.143  1.00  0.00    -0.296 N 
HETATM   12  H   UNL     1       8.381  -4.051  21.277  1.00  0.00     0.177 HD
BRANCH  11  13
HETATM   13  C   UNL     1       6.817  -4.838  22.227  1.00  0.00     0.089 C 
HETATM   14  C   UNL     1       7.048  -6.130  22.070  1.00  0.00     0.030 C 
ENDBRANCH  11  13
ENDBRANCH   8  11
ENDBRANCH   1   8
TORSDOF 6
ENDMDL
