REMARK  6 active torsions:
REMARK  status: ('A' for Active; 'I' for Inactive)
REMARK    1  A    between atoms: N_1  and  O_3 
REMARK    2  A    between atoms: C_2  and  N_14 
REMARK    3  A    between atoms: O_3  and  C_12 
REMARK    4  A    between atoms: C_6  and  C_12 
REMARK    5  A    between atoms: C_6  and  S_9 
REMARK    6  A    between atoms: S_9  and  N_14 
ROOT
HETATM    1  C   UNL     1       7.364  -1.310  23.253  1.00  0.00     0.192 C 
ENDROOT
BRANCH   1   2
HETATM    2  C   UNL     1       7.764  -0.034  22.502  1.00  0.00     0.218 C 
BRANCH   2   3
HETATM    3  O   UNL     1       7.041  -0.091  21.318  1.00  0.00    -0.273 OA
BRANCH   3   4
HETATM    4  N   UNL     1       7.436  -1.092  20.502  1.00  0.00    -0.245 N 
HETATM    5  C   UNL     1       7.344  -0.908  19.264  1.00  0.00     0.124 A 
HETATM    6  C   UNL     1       7.799  -2.238  19.110  1.00  0.00     0.039 A 
HETATM    7  C   UNL     1       7.931  -2.424  20.358  1.00  0.00     0.124 A 
ENDBRANCH   3   4
ENDBRANCH   2   3
ENDBRANCH   1   2
BRANCH   1   8
HETATM    8  S   UNL     1       8.354  -1.201  24.743  1.00  0.00     0.232 S 
HETATM    9  O   UNL     1       8.275  -2.403  25.480  1.00  0.00    -0.206 OA
HETATM   10  O   UNL     1       8.135   0.047  25.384  1.00  0.00    -0.206 OA
BRANCH   8  11
HETATM   11  N   UNL     1       9.823  -1.179  24.028  1.00  0.00    -0.296 N 
HETATM   12  H   UNL     1      10.041  -1.355  23.063  1.00  0.00     0.177 HD
BRANCH  11  13
HETATM   13  C   UNL     1      10.925  -0.852  24.775  1.00  0.00     0.089 C 
HETATM   14  C   UNL     1      12.116  -0.945  24.209  1.00  0.00     0.030 C 
ENDBRANCH  11  13
ENDBRANCH   8  11
ENDBRANCH   1   8
TORSDOF 6
