stable:False satoms:7 tatoms:24 sratio:0.2916666666666667
  -OEChem-07092417453D

 24 24  0     0  0  0  0  0  0999 V2000
    6.6050   -4.8861   26.4256 C   0  0  0  0  0  0  0  0  0  0  0  0
    8.2637   -4.3285   26.1073 S   0  0  0  0  0  0  0  0  0  0  0  0
    9.0968   -5.5107   26.0412 O   0  0  0  0  0  0  0  0  0  0  0  0
    8.6470   -3.4750   27.1973 O   0  0  0  0  0  0  0  0  0  0  0  0
    8.1645   -3.5854   24.6893 N   0  0  0  0  0  0  0  0  0  0  0  0
    8.9638   -2.8941   24.1665 C   0  0  0  0  0  0  0  0  0  0  0  0
    9.4212   -1.9336   23.5884 C   0  0  0  0  0  0  0  0  0  0  0  0
   10.1099   -0.9186   23.3962 C   0  0  0  0  0  0  0  0  0  0  0  0
   11.0707   -0.0240   24.2498 C   0  0  0  0  0  0  0  0  0  0  0  0
   12.0529    0.2537   24.2581 C   0  0  0  0  0  0  0  0  0  0  0  0
   13.1695   -0.4030   23.3412 C   0  0  0  0  0  0  0  0  0  0  0  0
   12.7244   -1.2841   22.6880 C   0  0  0  0  0  0  0  0  0  0  0  0
   12.0193   -1.8758   22.3540 C   0  0  0  0  0  0  0  0  0  0  0  0
    9.6629   -0.5438   22.3783 C   0  0  0  0  0  0  0  0  0  0  0  0
    9.0468    0.0770   21.3820 C   0  0  0  0  0  0  0  0  0  0  0  0
    9.6104    0.9882   20.9930 O   0  0  0  0  0  0  0  0  0  0  0  0
    7.9072   -0.5260   21.0957 N   0  0  0  0  0  0  0  0  0  0  0  0
    7.1643   -0.0418   20.2050 C   0  0  0  0  0  0  0  0  0  0  0  0
    7.1836    0.0397   18.8819 C   0  0  0  0  0  0  0  0  0  0  0  0
    6.7864    0.3106   17.8105 N   0  0  0  0  0  0  0  0  0  0  0  0
    5.6311    0.9268   18.2347 C   0  0  0  0  0  0  0  0  0  0  0  0
    5.2653    1.0305   19.3496 C   0  0  0  0  0  0  0  0  0  0  0  0
    5.8120    0.5982   20.5275 C   0  0  0  0  0  0  0  0  0  0  0  0
    5.2053    0.7158   21.9356 Cl  0  0  0  0  0  0  0  0  0  0  0  0
 20 21  2  0  0  0  0
 19 20  1  0  0  0  0
 21 22  1  0  0  0  0
 18 19  2  0  0  0  0
 22 23  2  0  0  0  0
 18 23  1  0  0  0  0
 17 18  1  0  0  0  0
 23 24  1  0  0  0  0
 15 16  2  0  0  0  0
 15 17  1  0  0  0  0
 14 15  1  0  0  0  0
 12 13  3  0  0  0  0
  8 14  2  3  0  0  0
 11 12  1  0  0  0  0
 10 11  1  0  0  0  0
  7  8  1  0  0  0  0
  8  9  1  0  0  0  0
  6  7  3  0  0  0  0
  5  6  1  0  0  0  0
  9 10  2  0  0  0  0
  2  5  1  0  0  0  0
  2  3  2  0  0  0  0
  1  2  1  0  0  0  0
  2  4  2  0  0  0  0
M  END
> <Shapegauss>
-284.251190

$$$$
