MODEL 1
REMARK VINA RESULT:    -6.545      0.000      0.000
REMARK INTER + INTRA:         -11.110
REMARK INTER:                  -9.989
REMARK INTRA:                  -1.121
REMARK UNBOUND:                -1.121
REMARK  9 active torsions:
REMARK  status: ('A' for Active; 'I' for Inactive)
REMARK    1  A    between atoms: S_2  and  N_5 
REMARK    2  A    between atoms: C_7  and  C_8 
REMARK    3  A    between atoms: C_9  and  C_15 
REMARK    4  A    between atoms: C_9  and  C_10 
REMARK    5  A    between atoms: C_10  and  C_11 
REMARK    6  A    between atoms: C_11  and  C_12 
REMARK    7  A    between atoms: C_12  and  C_13 
REMARK    8  A    between atoms: C_15  and  C_16 
REMARK       I    between atoms: C_16  and  N_18 
REMARK    9  A    between atoms: N_18  and  C_20 
ROOT
HETATM    1  C   UNL     1       7.361  -1.760  21.893  1.00  0.00     0.038 C 
HETATM    2  C   UNL     1       8.358  -2.163  22.514  1.00  0.00     0.016 C 
ENDROOT
BRANCH   2   3
HETATM    3  C   UNL     1       7.929  -3.141  23.001  1.00  0.00    -0.044 C 
BRANCH   3   4
HETATM    4  C   UNL     1       7.592  -4.168  23.767  1.00  0.00     0.294 C 
HETATM    5  O   UNL     1       7.598  -5.168  23.221  1.00  0.00    -0.258 OA
HETATM    6  N   UNL     1       7.320  -3.760  24.994  1.00  0.00    -0.314 N 
ATOM      7  HN  UNL     1       7.422  -2.777  25.245  1.00  0.00     0.170 HD
BRANCH   6   8
HETATM    8  C   UNL     1       6.934  -4.598  25.848  1.00  0.00     0.072 A 
HETATM    9  C   UNL     1       7.493  -5.291  26.830  1.00  0.00     0.119 A 
HETATM   10  N   UNL     1       7.535  -6.029  27.742  1.00  0.00    -0.373 N 
HETATM   11  C   UNL     1       6.200  -6.363  27.723  1.00  0.00     0.089 A 
ATOM     12  HN  UNL     1       8.303  -6.323  28.346  1.00  0.00     0.164 HD
HETATM   13  C   UNL     1       5.384  -5.927  26.994  1.00  0.00     0.043 A 
HETATM   14  C   UNL     1       5.465  -4.999  25.993  1.00  0.00     0.063 A 
HETATM   15 CL   UNL     1       4.309  -4.437  25.147  1.00  0.00    -0.082 Cl
ENDBRANCH   6   8
ENDBRANCH   3   4
ENDBRANCH   2   3
BRANCH   2  16
HETATM   16  C   UNL     1       9.892  -1.849  22.519  1.00  0.00     0.016 C 
BRANCH  16  17
HETATM   17  C   UNL     1      10.518  -1.093  22.800  1.00  0.00    -0.021 C 
BRANCH  17  18
HETATM   18  C   UNL     1      10.571  -0.483  24.264  1.00  0.00     0.053 C 
BRANCH  18  19
HETATM   19  C   UNL     1      11.662  -0.116  24.537  1.00  0.00    -0.033 C 
HETATM   20  C   UNL     1      12.586   0.149  24.347  1.00  0.00     0.007 C 
ENDBRANCH  18  19
ENDBRANCH  17  18
ENDBRANCH  16  17
ENDBRANCH   2  16
BRANCH   1  21
HETATM   21  C   UNL     1       6.701  -1.088  21.133  1.00  0.00     0.101 C 
HETATM   22  N   UNL     1       5.910  -0.827  20.299  1.00  0.00    -0.295 N 
ATOM     23  HN  UNL     1       4.989  -1.250  20.414  1.00  0.00     0.177 HD
BRANCH  22  24
HETATM   24  S   UNL     1       6.093   0.105  19.006  1.00  0.00     0.226 S 
HETATM   25  C   UNL     1       5.010   1.485  19.305  1.00  0.00     0.186 C 
HETATM   26  O   UNL     1       7.435   0.639  18.910  1.00  0.00    -0.206 OA
HETATM   27  O   UNL     1       5.679  -0.506  17.774  1.00  0.00    -0.206 OA
ENDBRANCH  22  24
ENDBRANCH   1  21
TORSDOF 9
ENDMDL
MODEL 2
REMARK VINA RESULT:    -6.483      4.071      8.027
REMARK INTER + INTRA:         -11.015
REMARK INTER:                  -9.777
REMARK INTRA:                  -1.238
REMARK UNBOUND:                -1.121
REMARK  9 active torsions:
REMARK  status: ('A' for Active; 'I' for Inactive)
REMARK    1  A    between atoms: S_2  and  N_5 
REMARK    2  A    between atoms: C_7  and  C_8 
REMARK    3  A    between atoms: C_9  and  C_15 
REMARK    4  A    between atoms: C_9  and  C_10 
REMARK    5  A    between atoms: C_10  and  C_11 
REMARK    6  A    between atoms: C_11  and  C_12 
REMARK    7  A    between atoms: C_12  and  C_13 
REMARK    8  A    between atoms: C_15  and  C_16 
REMARK       I    between atoms: C_16  and  N_18 
REMARK    9  A    between atoms: N_18  and  C_20 
ROOT
HETATM    1  C   UNL     1       7.898  -4.692  25.302  1.00  0.00     0.038 C 
HETATM    2  C   UNL     1       7.868  -4.566  24.067  1.00  0.00     0.016 C 
ENDROOT
BRANCH   2   3
HETATM    3  C   UNL     1       8.423  -3.539  23.942  1.00  0.00    -0.044 C 
BRANCH   3   4
HETATM    4  C   UNL     1       8.858  -2.332  23.611  1.00  0.00     0.294 C 
HETATM    5  O   UNL     1       8.530  -1.996  22.573  1.00  0.00    -0.258 OA
HETATM    6  N   UNL     1       9.586  -1.819  24.587  1.00  0.00    -0.314 N 
ATOM      7  HN  UNL     1       9.711  -2.330  25.461  1.00  0.00     0.170 HD
BRANCH   6   8
HETATM    8  C   UNL     1      10.122  -0.694  24.426  1.00  0.00     0.072 A 
HETATM    9  C   UNL     1       9.853   0.555  24.781  1.00  0.00     0.119 A 
HETATM   10  N   UNL     1      10.030   1.712  24.878  1.00  0.00    -0.373 N 
HETATM   11  C   UNL     1      11.207   1.740  24.165  1.00  0.00     0.089 A 
ATOM     12  HN  UNL     1       9.493   2.447  25.336  1.00  0.00     0.164 HD
HETATM   13  C   UNL     1      11.766   0.811  23.706  1.00  0.00     0.043 A 
HETATM   14  C   UNL     1      11.472  -0.525  23.726  1.00  0.00     0.063 A 
HETATM   15 CL   UNL     1      12.321  -1.675  23.158  1.00  0.00    -0.082 Cl
ENDBRANCH   6   8
ENDBRANCH   3   4
ENDBRANCH   2   3
BRANCH   2  16
HETATM   16  C   UNL     1       7.570  -5.493  22.840  1.00  0.00     0.016 C 
BRANCH  16  17
HETATM   17  C   UNL     1       6.767  -5.806  22.294  1.00  0.00    -0.021 C 
BRANCH  17  18
HETATM   18  C   UNL     1       5.310  -5.191  22.426  1.00  0.00     0.053 C 
BRANCH  18  19
HETATM   19  C   UNL     1       4.622  -5.862  23.116  1.00  0.00    -0.033 C 
HETATM   20  C   UNL     1       4.328  -6.264  23.960  1.00  0.00     0.007 C 
ENDBRANCH  18  19
ENDBRANCH  17  18
ENDBRANCH  16  17
ENDBRANCH   2  16
BRANCH   1  21
HETATM   21  C   UNL     1       7.772  -5.217  26.385  1.00  0.00     0.101 C 
HETATM   22  N   UNL     1       7.658  -6.076  27.184  1.00  0.00    -0.295 N 
ATOM     23  HN  UNL     1       8.325  -6.843  27.109  1.00  0.00     0.177 HD
BRANCH  22  24
HETATM   24  S   UNL     1       6.591  -6.195  28.377  1.00  0.00     0.226 S 
HETATM   25  C   UNL     1       5.102  -6.749  27.577  1.00  0.00     0.186 C 
HETATM   26  O   UNL     1       6.959  -7.219  29.332  1.00  0.00    -0.206 OA
HETATM   27  O   UNL     1       6.291  -4.950  29.028  1.00  0.00    -0.206 OA
ENDBRANCH  22  24
ENDBRANCH   1  21
TORSDOF 9
ENDMDL
MODEL 3
REMARK VINA RESULT:    -6.359      2.600      5.776
REMARK INTER + INTRA:         -10.826
REMARK INTER:                 -10.070
REMARK INTRA:                  -0.756
REMARK UNBOUND:                -1.121
REMARK  9 active torsions:
REMARK  status: ('A' for Active; 'I' for Inactive)
REMARK    1  A    between atoms: S_2  and  N_5 
REMARK    2  A    between atoms: C_7  and  C_8 
REMARK    3  A    between atoms: C_9  and  C_15 
REMARK    4  A    between atoms: C_9  and  C_10 
REMARK    5  A    between atoms: C_10  and  C_11 
REMARK    6  A    between atoms: C_11  and  C_12 
REMARK    7  A    between atoms: C_12  and  C_13 
REMARK    8  A    between atoms: C_15  and  C_16 
REMARK       I    between atoms: C_16  and  N_18 
REMARK    9  A    between atoms: N_18  and  C_20 
ROOT
HETATM    1  C   UNL     1       6.845  -1.934  21.841  1.00  0.00     0.038 C 
HETATM    2  C   UNL     1       6.930  -2.988  22.491  1.00  0.00     0.016 C 
ENDROOT
BRANCH   2   3
HETATM    3  C   UNL     1       7.837  -2.736  23.192  1.00  0.00    -0.044 C 
BRANCH   3   4
HETATM    4  C   UNL     1       9.008  -2.471  23.754  1.00  0.00     0.294 C 
HETATM    5  O   UNL     1       9.127  -2.917  24.796  1.00  0.00    -0.258 OA
HETATM    6  N   UNL     1       9.750  -1.732  22.949  1.00  0.00    -0.314 N 
ATOM      7  HN  UNL     1       9.411  -1.480  22.021  1.00  0.00     0.170 HD
BRANCH   6   8
HETATM    8  C   UNL     1      10.880  -1.344  23.341  1.00  0.00     0.072 A 
HETATM    9  C   UNL     1      12.140  -1.694  23.128  1.00  0.00     0.119 A 
HETATM   10  N   UNL     1      13.309  -1.629  23.219  1.00  0.00    -0.373 N 
HETATM   11  C   UNL     1      13.329  -0.567  24.093  1.00  0.00     0.089 A 
ATOM     12  HN  UNL     1      14.057  -2.177  22.793  1.00  0.00     0.164 HD
HETATM   13  C   UNL     1      12.392   0.023  24.495  1.00  0.00     0.043 A 
HETATM   14  C   UNL     1      11.055  -0.124  24.248  1.00  0.00     0.063 A 
HETATM   15 CL   UNL     1       9.908   0.761  24.769  1.00  0.00    -0.082 Cl
ENDBRANCH   6   8
ENDBRANCH   3   4
ENDBRANCH   2   3
BRANCH   2  16
HETATM   16  C   UNL     1       6.027  -4.244  22.736  1.00  0.00     0.016 C 
BRANCH  16  17
HETATM   17  C   UNL     1       5.433  -4.629  23.472  1.00  0.00    -0.021 C 
BRANCH  17  18
HETATM   18  C   UNL     1       5.077  -6.169  23.611  1.00  0.00     0.053 C 
BRANCH  18  19
HETATM   19  C   UNL     1       5.069  -6.506  24.745  1.00  0.00    -0.033 C 
HETATM   20  C   UNL     1       4.966  -6.379  25.711  1.00  0.00     0.007 C 
ENDBRANCH  18  19
ENDBRANCH  17  18
ENDBRANCH  16  17
ENDBRANCH   2  16
BRANCH   1  21
HETATM   21  C   UNL     1       6.390  -1.116  21.074  1.00  0.00     0.101 C 
HETATM   22  N   UNL     1       5.682  -0.652  20.254  1.00  0.00    -0.295 N 
ATOM     23  HN  UNL     1       4.682  -0.770  20.412  1.00  0.00     0.177 HD
BRANCH  22  24
HETATM   24  S   UNL     1       6.087   0.142  18.919  1.00  0.00     0.226 S 
HETATM   25  C   UNL     1       5.148   1.651  19.006  1.00  0.00     0.186 C 
HETATM   26  O   UNL     1       7.485   0.518  18.916  1.00  0.00    -0.206 OA
HETATM   27  O   UNL     1       5.718  -0.524  17.701  1.00  0.00    -0.206 OA
ENDBRANCH  22  24
ENDBRANCH   1  21
TORSDOF 9
ENDMDL
MODEL 4
REMARK VINA RESULT:    -6.218      4.278      8.091
REMARK INTER + INTRA:         -10.611
REMARK INTER:                  -9.289
REMARK INTRA:                  -1.322
REMARK UNBOUND:                -1.121
REMARK  9 active torsions:
REMARK  status: ('A' for Active; 'I' for Inactive)
REMARK    1  A    between atoms: S_2  and  N_5 
REMARK    2  A    between atoms: C_7  and  C_8 
REMARK    3  A    between atoms: C_9  and  C_15 
REMARK    4  A    between atoms: C_9  and  C_10 
REMARK    5  A    between atoms: C_10  and  C_11 
REMARK    6  A    between atoms: C_11  and  C_12 
REMARK    7  A    between atoms: C_12  and  C_13 
REMARK    8  A    between atoms: C_15  and  C_16 
REMARK       I    between atoms: C_16  and  N_18 
REMARK    9  A    between atoms: N_18  and  C_20 
ROOT
HETATM    1  C   UNL     1       7.892  -4.593  25.990  1.00  0.00     0.038 C 
HETATM    2  C   UNL     1       7.921  -4.398  24.764  1.00  0.00     0.016 C 
ENDROOT
BRANCH   2   3
HETATM    3  C   UNL     1       8.436  -3.345  24.724  1.00  0.00    -0.044 C 
BRANCH   3   4
HETATM    4  C   UNL     1       8.844  -2.109  24.473  1.00  0.00     0.294 C 
HETATM    5  O   UNL     1       8.981  -1.474  25.409  1.00  0.00    -0.258 OA
HETATM    6  N   UNL     1       8.981  -1.922  23.173  1.00  0.00    -0.314 N 
ATOM      7  HN  UNL     1       8.817  -2.689  22.521  1.00  0.00     0.170 HD
BRANCH   6   8
HETATM    8  C   UNL     1       9.315  -0.787  22.748  1.00  0.00     0.072 A 
HETATM    9  C   UNL     1       8.687   0.284  22.282  1.00  0.00     0.119 A 
HETATM   10  N   UNL     1       8.580   1.379  21.871  1.00  0.00    -0.373 N 
HETATM   11  C   UNL     1       9.926   1.664  21.860  1.00  0.00     0.089 A 
ATOM     12  HN  UNL     1       7.764   1.932  21.611  1.00  0.00     0.164 HD
HETATM   13  C   UNL     1      10.792   0.953  22.224  1.00  0.00     0.043 A 
HETATM   14  C   UNL     1      10.768  -0.307  22.756  1.00  0.00     0.063 A 
HETATM   15 CL   UNL     1      11.963  -1.122  23.278  1.00  0.00    -0.082 Cl
ENDBRANCH   6   8
ENDBRANCH   3   4
ENDBRANCH   2   3
BRANCH   2  16
HETATM   16  C   UNL     1       7.727  -5.267  23.474  1.00  0.00     0.016 C 
BRANCH  16  17
HETATM   17  C   UNL     1       7.036  -5.395  22.735  1.00  0.00    -0.021 C 
BRANCH  17  18
HETATM   18  C   UNL     1       5.600  -4.719  22.734  1.00  0.00     0.053 C 
BRANCH  18  19
HETATM   19  C   UNL     1       5.580  -3.757  22.044  1.00  0.00    -0.033 C 
HETATM   20  C   UNL     1       5.864  -2.868  21.748  1.00  0.00     0.007 C 
ENDBRANCH  18  19
ENDBRANCH  17  18
ENDBRANCH  16  17
ENDBRANCH   2  16
BRANCH   1  21
HETATM   21  C   UNL     1       7.733  -5.182  27.035  1.00  0.00     0.101 C 
HETATM   22  N   UNL     1       7.638  -6.088  27.783  1.00  0.00    -0.295 N 
ATOM     23  HN  UNL     1       8.375  -6.790  27.725  1.00  0.00     0.177 HD
BRANCH  22  24
HETATM   24  S   UNL     1       6.500  -6.361  28.880  1.00  0.00     0.226 S 
HETATM   25  C   UNL     1       4.984  -6.362  27.949  1.00  0.00     0.186 C 
HETATM   26  O   UNL     1       6.627  -7.674  29.476  1.00  0.00    -0.206 OA
HETATM   27  O   UNL     1       6.387  -5.337  29.882  1.00  0.00    -0.206 OA
ENDBRANCH  22  24
ENDBRANCH   1  21
TORSDOF 9
ENDMDL
MODEL 5
REMARK VINA RESULT:    -6.103      3.188      6.929
REMARK INTER + INTRA:         -10.435
REMARK INTER:                  -9.079
REMARK INTRA:                  -1.356
REMARK UNBOUND:                -1.121
REMARK  9 active torsions:
REMARK  status: ('A' for Active; 'I' for Inactive)
REMARK    1  A    between atoms: S_2  and  N_5 
REMARK    2  A    between atoms: C_7  and  C_8 
REMARK    3  A    between atoms: C_9  and  C_15 
REMARK    4  A    between atoms: C_9  and  C_10 
REMARK    5  A    between atoms: C_10  and  C_11 
REMARK    6  A    between atoms: C_11  and  C_12 
REMARK    7  A    between atoms: C_12  and  C_13 
REMARK    8  A    between atoms: C_15  and  C_16 
REMARK       I    between atoms: C_16  and  N_18 
REMARK    9  A    between atoms: N_18  and  C_20 
ROOT
HETATM    1  C   UNL     1       8.070  -2.996  23.937  1.00  0.00     0.038 C 
HETATM    2  C   UNL     1       8.770  -1.983  23.774  1.00  0.00     0.016 C 
ENDROOT
BRANCH   2   3
HETATM    3  C   UNL     1       8.311  -1.561  22.780  1.00  0.00    -0.044 C 
BRANCH   3   4
HETATM    4  C   UNL     1       8.047  -0.993  21.612  1.00  0.00     0.294 C 
HETATM    5  O   UNL     1       8.975  -0.627  21.061  1.00  0.00    -0.258 OA
HETATM    6  N   UNL     1       6.746  -0.986  21.385  1.00  0.00    -0.314 N 
ATOM      7  HN  UNL     1       6.104  -1.419  22.049  1.00  0.00     0.170 HD
BRANCH   6   8
HETATM    8  C   UNL     1       6.308  -0.440  20.341  1.00  0.00     0.072 A 
HETATM    9  C   UNL     1       5.943  -0.841  19.131  1.00  0.00     0.119 A 
HETATM   10  N   UNL     1       5.522  -0.735  18.040  1.00  0.00    -0.373 N 
HETATM   11  C   UNL     1       5.342   0.628  18.083  1.00  0.00     0.089 A 
ATOM     12  HN  UNL     1       5.347  -1.423  17.307  1.00  0.00     0.164 HD
HETATM   13  C   UNL     1       5.543   1.329  19.009  1.00  0.00     0.043 A 
HETATM   14  C   UNL     1       5.985   1.054  20.274  1.00  0.00     0.063 A 
HETATM   15 CL   UNL     1       6.138   2.043  21.443  1.00  0.00    -0.082 Cl
ENDBRANCH   6   8
ENDBRANCH   3   4
ENDBRANCH   2   3
BRANCH   2  16
HETATM   16  C   UNL     1       9.758  -1.136  24.646  1.00  0.00     0.016 C 
BRANCH  16  17
HETATM   17  C   UNL     1      10.533  -0.485  24.512  1.00  0.00    -0.021 C 
BRANCH  17  18
HETATM   18  C   UNL     1      10.425   1.082  24.739  1.00  0.00     0.053 C 
BRANCH  18  19
HETATM   19  C   UNL     1      10.712   1.678  23.757  1.00  0.00    -0.033 C 
HETATM   20  C   UNL     1      10.656   1.907  22.807  1.00  0.00     0.007 C 
ENDBRANCH  18  19
ENDBRANCH  17  18
ENDBRANCH  16  17
ENDBRANCH   2  16
BRANCH   1  21
HETATM   21  C   UNL     1       7.610  -3.972  24.484  1.00  0.00     0.101 C 
HETATM   22  N   UNL     1       7.142  -5.047  24.603  1.00  0.00    -0.295 N 
ATOM     23  HN  UNL     1       7.614  -5.796  24.096  1.00  0.00     0.177 HD
BRANCH  22  24
HETATM   24  S   UNL     1       5.858  -5.487  25.458  1.00  0.00     0.226 S 
HETATM   25  C   UNL     1       4.908  -6.491  24.338  1.00  0.00     0.186 C 
HETATM   26  O   UNL     1       6.216  -6.333  26.577  1.00  0.00    -0.206 OA
HETATM   27  O   UNL     1       5.020  -4.395  25.871  1.00  0.00    -0.206 OA
ENDBRANCH  22  24
ENDBRANCH   1  21
TORSDOF 9
ENDMDL
MODEL 6
REMARK VINA RESULT:    -6.044     14.588     17.718
REMARK INTER + INTRA:         -10.345
REMARK INTER:                  -9.067
REMARK INTRA:                  -1.278
REMARK UNBOUND:                -1.121
REMARK  9 active torsions:
REMARK  status: ('A' for Active; 'I' for Inactive)
REMARK    1  A    between atoms: S_2  and  N_5 
REMARK    2  A    between atoms: C_7  and  C_8 
REMARK    3  A    between atoms: C_9  and  C_15 
REMARK    4  A    between atoms: C_9  and  C_10 
REMARK    5  A    between atoms: C_10  and  C_11 
REMARK    6  A    between atoms: C_11  and  C_12 
REMARK    7  A    between atoms: C_12  and  C_13 
REMARK    8  A    between atoms: C_15  and  C_16 
REMARK       I    between atoms: C_16  and  N_18 
REMARK    9  A    between atoms: N_18  and  C_20 
ROOT
HETATM    1  C   UNL     1      23.871  -3.140  23.699  1.00  0.00     0.038 C 
HETATM    2  C   UNL     1      23.816  -1.912  23.530  1.00  0.00     0.016 C 
ENDROOT
BRANCH   2   3
HETATM    3  C   UNL     1      23.618  -1.862  22.374  1.00  0.00    -0.044 C 
BRANCH   3   4
HETATM    4  C   UNL     1      23.144  -1.720  21.144  1.00  0.00     0.294 C 
HETATM    5  O   UNL     1      22.012  -1.825  21.075  1.00  0.00    -0.258 OA
HETATM    6  N   UNL     1      24.129  -1.499  20.293  1.00  0.00    -0.314 N 
ATOM      7  HN  UNL     1      25.090  -1.419  20.624  1.00  0.00     0.170 HD
BRANCH   6   8
HETATM    8  C   UNL     1      23.868  -1.388  19.068  1.00  0.00     0.072 A 
HETATM    9  C   UNL     1      23.519  -0.407  18.248  1.00  0.00     0.119 A 
HETATM   10  N   UNL     1      23.248   0.100  17.224  1.00  0.00    -0.373 N 
HETATM   11  C   UNL     1      23.327  -1.047  16.468  1.00  0.00     0.089 A 
ATOM     12  HN  UNL     1      23.029   1.065  16.978  1.00  0.00     0.164 HD
HETATM   13  C   UNL     1      23.631  -2.117  16.855  1.00  0.00     0.043 A 
HETATM   14  C   UNL     1      23.995  -2.563  18.096  1.00  0.00     0.063 A 
HETATM   15 CL   UNL     1      24.455  -3.980  18.479  1.00  0.00    -0.082 Cl
ENDBRANCH   6   8
ENDBRANCH   3   4
ENDBRANCH   2   3
BRANCH   2  16
HETATM   16  C   UNL     1      23.670  -0.647  24.443  1.00  0.00     0.016 C 
BRANCH  16  17
HETATM   17  C   UNL     1      22.936  -0.143  24.941  1.00  0.00    -0.021 C 
BRANCH  17  18
HETATM   18  C   UNL     1      22.002  -0.798  26.045  1.00  0.00     0.053 C 
BRANCH  18  19
HETATM   19  C   UNL     1      21.081  -1.355  25.552  1.00  0.00    -0.033 C 
HETATM   20  C   UNL     1      20.297  -1.437  24.972  1.00  0.00     0.007 C 
ENDBRANCH  18  19
ENDBRANCH  17  18
ENDBRANCH  16  17
ENDBRANCH   2  16
BRANCH   1  21
HETATM   21  C   UNL     1      23.927  -4.196  24.288  1.00  0.00     0.101 C 
HETATM   22  N   UNL     1      23.605  -5.072  25.009  1.00  0.00    -0.295 N 
ATOM     23  HN  UNL     1      22.648  -5.406  24.901  1.00  0.00     0.177 HD
BRANCH  22  24
HETATM   24  S   UNL     1      24.476  -5.805  26.139  1.00  0.00     0.226 S 
HETATM   25  C   UNL     1      26.136  -5.777  25.499  1.00  0.00     0.186 C 
HETATM   26  O   UNL     1      24.493  -5.059  27.379  1.00  0.00    -0.206 OA
HETATM   27  O   UNL     1      24.124  -7.181  26.357  1.00  0.00    -0.206 OA
ENDBRANCH  22  24
ENDBRANCH   1  21
TORSDOF 9
ENDMDL
MODEL 7
REMARK VINA RESULT:    -5.976      1.802      2.034
REMARK INTER + INTRA:         -10.241
REMARK INTER:                  -9.289
REMARK INTRA:                  -0.953
REMARK UNBOUND:                -1.121
REMARK  9 active torsions:
REMARK  status: ('A' for Active; 'I' for Inactive)
REMARK    1  A    between atoms: S_2  and  N_5 
REMARK    2  A    between atoms: C_7  and  C_8 
REMARK    3  A    between atoms: C_9  and  C_15 
REMARK    4  A    between atoms: C_9  and  C_10 
REMARK    5  A    between atoms: C_10  and  C_11 
REMARK    6  A    between atoms: C_11  and  C_12 
REMARK    7  A    between atoms: C_12  and  C_13 
REMARK    8  A    between atoms: C_15  and  C_16 
REMARK       I    between atoms: C_16  and  N_18 
REMARK    9  A    between atoms: N_18  and  C_20 
ROOT
HETATM    1  C   UNL     1       7.118  -0.779  22.359  1.00  0.00     0.038 C 
HETATM    2  C   UNL     1       7.896  -1.133  23.260  1.00  0.00     0.016 C 
ENDROOT
BRANCH   2   3
HETATM    3  C   UNL     1       7.187  -1.812  23.903  1.00  0.00    -0.044 C 
BRANCH   3   4
HETATM    4  C   UNL     1       6.327  -2.696  24.389  1.00  0.00     0.294 C 
HETATM    5  O   UNL     1       5.461  -2.225  24.961  1.00  0.00    -0.258 OA
HETATM    6  N   UNL     1       6.708  -3.925  24.090  1.00  0.00    -0.314 N 
ATOM      7  HN  UNL     1       7.540  -4.083  23.520  1.00  0.00     0.170 HD
BRANCH   6   8
HETATM    8  C   UNL     1       6.034  -4.897  24.515  1.00  0.00     0.072 A 
HETATM    9  C   UNL     1       5.186  -5.774  23.996  1.00  0.00     0.119 A 
HETATM   10  N   UNL     1       4.466  -6.701  23.982  1.00  0.00    -0.373 N 
HETATM   11  C   UNL     1       4.588  -7.002  25.319  1.00  0.00     0.089 A 
ATOM     12  HN  UNL     1       3.931  -7.137  23.231  1.00  0.00     0.164 HD
HETATM   13  C   UNL     1       5.274  -6.446  26.098  1.00  0.00     0.043 A 
HETATM   14  C   UNL     1       6.135  -5.392  25.959  1.00  0.00     0.063 A 
HETATM   15 CL   UNL     1       7.053  -4.789  27.036  1.00  0.00    -0.082 Cl
ENDBRANCH   6   8
ENDBRANCH   3   4
ENDBRANCH   2   3
BRANCH   2  16
HETATM   16  C   UNL     1       9.445  -1.113  23.491  1.00  0.00     0.016 C 
BRANCH  16  17
HETATM   17  C   UNL     1      10.102  -1.004  24.264  1.00  0.00    -0.021 C 
BRANCH  17  18
HETATM   18  C   UNL     1      10.879   0.342  24.586  1.00  0.00     0.053 C 
BRANCH  18  19
HETATM   19  C   UNL     1      12.045   0.211  24.434  1.00  0.00    -0.033 C 
HETATM   20  C   UNL     1      12.879  -0.293  24.339  1.00  0.00     0.007 C 
ENDBRANCH  18  19
ENDBRANCH  17  18
ENDBRANCH  16  17
ENDBRANCH   2  16
BRANCH   1  21
HETATM   21  C   UNL     1       6.746  -0.277  21.322  1.00  0.00     0.101 C 
HETATM   22  N   UNL     1       6.050  -0.047  20.400  1.00  0.00    -0.295 N 
ATOM     23  HN  UNL     1       5.075   0.158  20.620  1.00  0.00     0.177 HD
BRANCH  22  24
HETATM   24  S   UNL     1       6.434  -0.014  18.842  1.00  0.00     0.226 S 
HETATM   25  C   UNL     1       5.623   1.442  18.222  1.00  0.00     0.186 C 
HETATM   26  O   UNL     1       7.854   0.179  18.640  1.00  0.00    -0.206 OA
HETATM   27  O   UNL     1       5.942  -1.134  18.089  1.00  0.00    -0.206 OA
ENDBRANCH  22  24
ENDBRANCH   1  21
TORSDOF 9
ENDMDL
MODEL 8
REMARK VINA RESULT:    -5.908     24.598     28.374
REMARK INTER + INTRA:         -10.138
REMARK INTER:                  -8.887
REMARK INTRA:                  -1.251
REMARK UNBOUND:                -1.121
REMARK  9 active torsions:
REMARK  status: ('A' for Active; 'I' for Inactive)
REMARK    1  A    between atoms: S_2  and  N_5 
REMARK    2  A    between atoms: C_7  and  C_8 
REMARK    3  A    between atoms: C_9  and  C_15 
REMARK    4  A    between atoms: C_9  and  C_10 
REMARK    5  A    between atoms: C_10  and  C_11 
REMARK    6  A    between atoms: C_11  and  C_12 
REMARK    7  A    between atoms: C_12  and  C_13 
REMARK    8  A    between atoms: C_15  and  C_16 
REMARK       I    between atoms: C_16  and  N_18 
REMARK    9  A    between atoms: N_18  and  C_20 
ROOT
HETATM    1  C   UNL     1       9.149  17.742   2.713  1.00  0.00     0.038 C 
HETATM    2  C   UNL     1       8.337  17.398   1.839  1.00  0.00     0.016 C 
ENDROOT
BRANCH   2   3
HETATM    3  C   UNL     1       7.861  16.453   2.346  1.00  0.00    -0.044 C 
BRANCH   3   4
HETATM    4  C   UNL     1       7.548  15.392   3.077  1.00  0.00     0.294 C 
HETATM    5  O   UNL     1       7.325  15.637   4.167  1.00  0.00    -0.258 OA
HETATM    6  N   UNL     1       7.585  14.296   2.340  1.00  0.00    -0.314 N 
ATOM      7  HN  UNL     1       7.793  14.351   1.343  1.00  0.00     0.170 HD
BRANCH   6   8
HETATM    8  C   UNL     1       7.361  13.185   2.883  1.00  0.00     0.072 A 
HETATM    9  C   UNL     1       8.091  12.224   3.433  1.00  0.00     0.119 A 
HETATM   10  N   UNL     1       8.299  11.212   3.992  1.00  0.00    -0.373 N 
HETATM   11  C   UNL     1       6.983  10.822   4.084  1.00  0.00     0.089 A 
ATOM     12  HN  UNL     1       9.164  10.772   4.305  1.00  0.00     0.164 HD
HETATM   13  C   UNL     1       6.046  11.435   3.717  1.00  0.00     0.043 A 
HETATM   14  C   UNL     1       5.943  12.664   3.124  1.00  0.00     0.063 A 
HETATM   15 CL   UNL     1       4.652  13.415   2.755  1.00  0.00    -0.082 Cl
ENDBRANCH   6   8
ENDBRANCH   3   4
ENDBRANCH   2   3
BRANCH   2  16
HETATM   16  C   UNL     1       7.710  18.045   0.557  1.00  0.00     0.016 C 
BRANCH  16  17
HETATM   17  C   UNL     1       7.977  18.700  -0.178  1.00  0.00    -0.021 C 
BRANCH  17  18
HETATM   18  C   UNL     1       8.140  20.263   0.042  1.00  0.00     0.053 C 
BRANCH  18  19
HETATM   19  C   UNL     1       9.281  20.573   0.100  1.00  0.00    -0.033 C 
HETATM   20  C   UNL     1      10.053  21.063   0.448  1.00  0.00     0.007 C 
ENDBRANCH  18  19
ENDBRANCH  17  18
ENDBRANCH  16  17
ENDBRANCH   2  16
BRANCH   1  21
HETATM   21  C   UNL     1       9.967  18.426   3.286  1.00  0.00     0.101 C 
HETATM   22  N   UNL     1      10.915  19.108   3.441  1.00  0.00    -0.295 N 
ATOM     23  HN  UNL     1      11.015  19.884   2.786  1.00  0.00     0.177 HD
BRANCH  22  24
HETATM   24  S   UNL     1      12.069  18.978   4.548  1.00  0.00     0.226 S 
HETATM   25  C   UNL     1      11.226  18.366   5.990  1.00  0.00     0.186 C 
HETATM   26  O   UNL     1      13.055  17.982   4.187  1.00  0.00    -0.206 OA
HETATM   27  O   UNL     1      12.687  20.224   4.908  1.00  0.00    -0.206 OA
ENDBRANCH  22  24
ENDBRANCH   1  21
TORSDOF 9
ENDMDL
MODEL 9
REMARK VINA RESULT:    -5.763      3.515      5.070
REMARK INTER + INTRA:          -9.917
REMARK INTER:                  -8.522
REMARK INTRA:                  -1.395
REMARK UNBOUND:                -1.121
REMARK  9 active torsions:
REMARK  status: ('A' for Active; 'I' for Inactive)
REMARK    1  A    between atoms: S_2  and  N_5 
REMARK    2  A    between atoms: C_7  and  C_8 
REMARK    3  A    between atoms: C_9  and  C_15 
REMARK    4  A    between atoms: C_9  and  C_10 
REMARK    5  A    between atoms: C_10  and  C_11 
REMARK    6  A    between atoms: C_11  and  C_12 
REMARK    7  A    between atoms: C_12  and  C_13 
REMARK    8  A    between atoms: C_15  and  C_16 
REMARK       I    between atoms: C_16  and  N_18 
REMARK    9  A    between atoms: N_18  and  C_20 
ROOT
HETATM    1  C   UNL     1       8.678  -3.402  24.367  1.00  0.00     0.038 C 
HETATM    2  C   UNL     1       8.118  -4.501  24.218  1.00  0.00     0.016 C 
ENDROOT
BRANCH   2   3
HETATM    3  C   UNL     1       7.895  -4.782  25.335  1.00  0.00    -0.044 C 
BRANCH   3   4
HETATM    4  C   UNL     1       7.382  -5.100  26.515  1.00  0.00     0.294 C 
HETATM    5  O   UNL     1       8.148  -5.119  27.357  1.00  0.00    -0.258 OA
HETATM    6  N   UNL     1       6.085  -5.331  26.408  1.00  0.00    -0.314 N 
ATOM      7  HN  UNL     1       5.613  -5.215  25.512  1.00  0.00     0.170 HD
BRANCH   6   8
HETATM    8  C   UNL     1       5.441  -5.695  27.424  1.00  0.00     0.072 A 
HETATM    9  C   UNL     1       5.190  -6.842  28.038  1.00  0.00     0.119 A 
HETATM   10  N   UNL     1       4.757  -7.550  28.869  1.00  0.00    -0.373 N 
HETATM   11  C   UNL     1       4.125  -6.562  29.589  1.00  0.00     0.089 A 
ATOM     12  HN  UNL     1       4.826  -8.558  29.010  1.00  0.00     0.164 HD
HETATM   13  C   UNL     1       4.142  -5.408  29.352  1.00  0.00     0.043 A 
HETATM   14  C   UNL     1       4.759  -4.695  28.360  1.00  0.00     0.063 A 
HETATM   15 CL   UNL     1       4.783  -3.166  28.188  1.00  0.00    -0.082 Cl
ENDBRANCH   6   8
ENDBRANCH   3   4
ENDBRANCH   2   3
BRANCH   2  16
HETATM   16  C   UNL     1       7.481  -5.295  23.028  1.00  0.00     0.016 C 
BRANCH  16  17
HETATM   17  C   UNL     1       6.617  -5.298  22.485  1.00  0.00    -0.021 C 
BRANCH  17  18
HETATM   18  C   UNL     1       5.374  -4.361  22.789  1.00  0.00     0.053 C 
BRANCH  18  19
HETATM   19  C   UNL     1       4.459  -4.984  23.210  1.00  0.00    -0.033 C 
HETATM   20  C   UNL     1       3.515  -5.228  23.300  1.00  0.00     0.007 C 
ENDBRANCH  18  19
ENDBRANCH  17  18
ENDBRANCH  16  17
ENDBRANCH   2  16
BRANCH   1  21
HETATM   21  C   UNL     1       9.175  -2.340  24.068  1.00  0.00     0.101 C 
HETATM   22  N   UNL     1       9.381  -1.357  23.450  1.00  0.00    -0.295 N 
ATOM     23  HN  UNL     1       8.555  -0.827  23.172  1.00  0.00     0.177 HD
BRANCH  22  24
HETATM   24  S   UNL     1      10.790  -0.745  22.989  1.00  0.00     0.226 S 
HETATM   25  C   UNL     1      10.357   0.499  21.794  1.00  0.00     0.186 C 
HETATM   26  O   UNL     1      11.466  -0.066  24.074  1.00  0.00    -0.206 OA
HETATM   27  O   UNL     1      11.658  -1.685  22.335  1.00  0.00    -0.206 OA
ENDBRANCH  22  24
ENDBRANCH   1  21
TORSDOF 9
ENDMDL
