REMARK  9 active torsions:
REMARK  status: ('A' for Active; 'I' for Inactive)
REMARK    1  A    between atoms: S_2  and  N_5 
REMARK    2  A    between atoms: C_7  and  C_8 
REMARK    3  A    between atoms: C_9  and  C_15 
REMARK    4  A    between atoms: C_9  and  C_10 
REMARK    5  A    between atoms: C_10  and  C_11 
REMARK    6  A    between atoms: C_11  and  C_12 
REMARK    7  A    between atoms: C_12  and  C_13 
REMARK    8  A    between atoms: C_15  and  C_16 
REMARK       I    between atoms: C_16  and  N_18 
REMARK    9  A    between atoms: N_18  and  C_20 
ROOT
HETATM    1  C   UNL     1       9.421  -1.934  23.588  1.00  0.00     0.038 C 
HETATM    2  C   UNL     1      10.110  -0.919  23.396  1.00  0.00     0.016 C 
ENDROOT
BRANCH   2   3
HETATM    3  C   UNL     1       9.663  -0.544  22.378  1.00  0.00    -0.044 C 
BRANCH   3   4
HETATM    4  C   UNL     1       9.047   0.077  21.382  1.00  0.00     0.294 C 
HETATM    5  O   UNL     1       9.610   0.988  20.993  1.00  0.00    -0.258 OA
HETATM    6  N   UNL     1       7.907  -0.526  21.096  1.00  0.00    -0.314 N 
ATOM      7  HN  UNL     1       7.633  -1.374  21.592  1.00  0.00     0.170 HD
BRANCH   6   8
HETATM    8  C   UNL     1       7.164  -0.042  20.205  1.00  0.00     0.072 A 
HETATM    9  C   UNL     1       7.184   0.040  18.882  1.00  0.00     0.119 A 
HETATM   10  N   UNL     1       6.786   0.311  17.811  1.00  0.00    -0.373 N 
HETATM   11  C   UNL     1       5.631   0.927  18.235  1.00  0.00     0.089 A 
ATOM     12  HN  UNL     1       7.168   0.145  16.880  1.00  0.00     0.164 HD
HETATM   13  C   UNL     1       5.265   1.030  19.350  1.00  0.00     0.043 A 
HETATM   14  C   UNL     1       5.812   0.598  20.527  1.00  0.00     0.063 A 
HETATM   15 CL   UNL     1       5.205   0.716  21.936  1.00  0.00    -0.082 Cl
ENDBRANCH   6   8
ENDBRANCH   3   4
ENDBRANCH   2   3
BRANCH   2  16
HETATM   16  C   UNL     1      11.071  -0.024  24.250  1.00  0.00     0.016 C 
BRANCH  16  17
HETATM   17  C   UNL     1      12.053   0.254  24.258  1.00  0.00    -0.021 C 
BRANCH  17  18
HETATM   18  C   UNL     1      13.169  -0.403  23.341  1.00  0.00     0.053 C 
BRANCH  18  19
HETATM   19  C   UNL     1      12.724  -1.284  22.688  1.00  0.00    -0.033 C 
HETATM   20  C   UNL     1      12.019  -1.876  22.354  1.00  0.00     0.007 C 
ENDBRANCH  18  19
ENDBRANCH  17  18
ENDBRANCH  16  17
ENDBRANCH   2  16
BRANCH   1  21
HETATM   21  C   UNL     1       8.964  -2.894  24.166  1.00  0.00     0.101 C 
HETATM   22  N   UNL     1       8.165  -3.585  24.689  1.00  0.00    -0.295 N 
ATOM     23  HN  UNL     1       7.297  -3.729  24.173  1.00  0.00     0.177 HD
BRANCH  22  24
HETATM   24  S   UNL     1       8.264  -4.329  26.107  1.00  0.00     0.226 S 
HETATM   25  C   UNL     1       6.605  -4.886  26.426  1.00  0.00     0.186 C 
HETATM   26  O   UNL     1       9.097  -5.511  26.041  1.00  0.00    -0.206 OA
HETATM   27  O   UNL     1       8.647  -3.475  27.197  1.00  0.00    -0.206 OA
ENDBRANCH  22  24
ENDBRANCH   1  21
TORSDOF 9
