MODEL 1
REMARK VINA RESULT:    -6.108      0.000      0.000
REMARK INTER + INTRA:          -9.205
REMARK INTER:                  -8.251
REMARK INTRA:                  -0.954
REMARK UNBOUND:                -0.954
REMARK  6 active torsions:
REMARK  status: ('A' for Active; 'I' for Inactive)
REMARK    1  A    between atoms: S_2  and  N_5 
REMARK    2  A    between atoms: N_5  and  C_7 
REMARK    3  A    between atoms: C_7  and  N_8 
REMARK    4  A    between atoms: C_10  and  C_12 
REMARK    5  A    between atoms: C_12  and  N_13 
REMARK       I    between atoms: N_13  and  C_15 
REMARK       I    between atoms: C_15  and  N_17 
REMARK    6  A    between atoms: N_17  and  C_19 
ROOT
HETATM    1  N   UNL     1       9.090  17.250   0.834  1.00  0.00    -0.308 N 
ATOM      2  HN  UNL     1       9.333  16.758  -0.025  1.00  0.00     0.170 HD
HETATM    3  C   UNL     1       9.093  16.298   1.721  1.00  0.00     0.326 C 
HETATM    4  O   UNL     1       9.673  16.398   2.799  1.00  0.00    -0.247 OA
HETATM    5  N   UNL     1       8.446  15.151   1.321  1.00  0.00    -0.293 N 
ATOM      6  HN  UNL     1       7.998  15.090   0.406  1.00  0.00     0.172 HD
ENDROOT
BRANCH   1   7
HETATM    7  C   UNL     1       8.947  18.515   0.420  1.00  0.00     0.043 C 
HETATM    8  C   UNL     1       7.799  19.108  -0.131  1.00  0.00     0.044 C 
BRANCH   7   9
HETATM    9  C   UNL     1       9.927  19.375   0.758  1.00  0.00     0.127 C 
HETATM   10  N   UNL     1      10.463  19.135   1.912  1.00  0.00    -0.316 N 
ATOM     11  HN  UNL     1      10.596  18.126   1.970  1.00  0.00     0.176 HD
BRANCH  10  12
HETATM   12  C   UNL     1      10.879  19.609   2.966  1.00  0.00     0.062 C 
BRANCH  12  13
HETATM   13  N   UNL     1      11.221  19.729   4.006  1.00  0.00    -0.222 N 
ATOM     14  HN  UNL     1      11.034  20.623   4.461  1.00  0.00     0.191 HD
BRANCH  13  15
HETATM   15  S   UNL     1      11.964  18.647   4.837  1.00  0.00     0.328 S 
HETATM   16 CL   UNL     1      12.871  19.721   6.063  1.00  0.00     0.042 Cl
HETATM   17  O   UNL     1      11.069  17.893   5.557  1.00  0.00    -0.188 OA
HETATM   18  O   UNL     1      12.862  17.979   4.075  1.00  0.00    -0.188 OA
ENDBRANCH  13  15
ENDBRANCH  12  13
ENDBRANCH  10  12
ENDBRANCH   7   9
ENDBRANCH   1   7
BRANCH   5  19
HETATM   19  C   UNL     1       8.423  14.124   2.166  1.00  0.00     0.125 C 
HETATM   20  N   UNL     1       9.522  13.602   2.798  1.00  0.00    -0.286 N 
HETATM   21  N   UNL     1       9.201  12.613   3.557  1.00  0.00    -0.310 N 
ATOM     22  HN  UNL     1      10.473  13.952   2.681  1.00  0.00     0.188 HD
HETATM   23  C   UNL     1       7.905  12.415   3.462  1.00  0.00     0.111 C 
ATOM     24  HN  UNL     1       9.844  12.073   4.135  1.00  0.00     0.186 HD
HETATM   25  C   UNL     1       7.278  13.471   2.639  1.00  0.00     0.068 C 
ENDBRANCH   5  19
TORSDOF 6
ENDMDL
MODEL 2
REMARK VINA RESULT:    -6.108      5.623      7.838
REMARK INTER + INTRA:          -9.204
REMARK INTER:                  -8.408
REMARK INTRA:                  -0.796
REMARK UNBOUND:                -0.954
REMARK  6 active torsions:
REMARK  status: ('A' for Active; 'I' for Inactive)
REMARK    1  A    between atoms: S_2  and  N_5 
REMARK    2  A    between atoms: N_5  and  C_7 
REMARK    3  A    between atoms: C_7  and  N_8 
REMARK    4  A    between atoms: C_10  and  C_12 
REMARK    5  A    between atoms: C_12  and  N_13 
REMARK       I    between atoms: N_13  and  C_15 
REMARK       I    between atoms: C_15  and  N_17 
REMARK    6  A    between atoms: N_17  and  C_19 
ROOT
HETATM    1  N   UNL     1       5.571   9.918   3.491  1.00  0.00    -0.308 N 
ATOM      2  HN  UNL     1       6.109   9.532   2.716  1.00  0.00     0.170 HD
HETATM    3  C   UNL     1       5.291   8.864   4.200  1.00  0.00     0.326 C 
HETATM    4  O   UNL     1       5.458   8.819   5.416  1.00  0.00    -0.247 OA
HETATM    5  N   UNL     1       4.852   7.787   3.463  1.00  0.00    -0.293 N 
ATOM      6  HN  UNL     1       4.751   7.849   2.449  1.00  0.00     0.172 HD
ENDROOT
BRANCH   1   7
HETATM    7  C   UNL     1       5.548  11.227   3.211  1.00  0.00     0.043 C 
HETATM    8  C   UNL     1       4.637  11.907   2.387  1.00  0.00     0.044 C 
BRANCH   7   9
HETATM    9  C   UNL     1       6.342  12.018   3.959  1.00  0.00     0.127 C 
HETATM   10  N   UNL     1       7.398  12.441   3.341  1.00  0.00    -0.316 N 
ATOM     11  HN  UNL     1       7.099  12.717   2.406  1.00  0.00     0.176 HD
BRANCH  10  12
HETATM   12  C   UNL     1       8.606  12.650   3.404  1.00  0.00     0.062 C 
BRANCH  12  13
HETATM   13  N   UNL     1       9.600  13.120   3.341  1.00  0.00    -0.222 N 
ATOM     14  HN  UNL     1      10.413  12.503   3.328  1.00  0.00     0.191 HD
BRANCH  13  15
HETATM   15  S   UNL     1       9.865  14.650   3.272  1.00  0.00     0.328 S 
HETATM   16 CL   UNL     1       9.334  15.009   1.520  1.00  0.00     0.042 Cl
HETATM   17  O   UNL     1       8.997  15.327   4.095  1.00  0.00    -0.188 OA
HETATM   18  O   UNL     1      11.184  14.924   3.407  1.00  0.00    -0.188 OA
ENDBRANCH  13  15
ENDBRANCH  12  13
ENDBRANCH  10  12
ENDBRANCH   7   9
ENDBRANCH   1   7
BRANCH   5  19
HETATM   19  C   UNL     1       4.564   6.665   4.114  1.00  0.00     0.125 C 
HETATM   20  N   UNL     1       5.491   5.786   4.613  1.00  0.00    -0.286 N 
HETATM   21  N   UNL     1       4.924   4.787   5.195  1.00  0.00    -0.310 N 
ATOM     22  HN  UNL     1       6.501   5.907   4.533  1.00  0.00     0.188 HD
HETATM   23  C   UNL     1       3.622   4.932   5.104  1.00  0.00     0.111 C 
ATOM     24  HN  UNL     1       5.405   4.012   5.651  1.00  0.00     0.186 HD
HETATM   25  C   UNL     1       3.287   6.238   4.497  1.00  0.00     0.068 C 
ENDBRANCH   5  19
TORSDOF 6
ENDMDL
MODEL 3
REMARK VINA RESULT:    -6.095     25.062     27.168
REMARK INTER + INTRA:          -9.187
REMARK INTER:                  -8.280
REMARK INTRA:                  -0.908
REMARK UNBOUND:                -0.954
REMARK  6 active torsions:
REMARK  status: ('A' for Active; 'I' for Inactive)
REMARK    1  A    between atoms: S_2  and  N_5 
REMARK    2  A    between atoms: N_5  and  C_7 
REMARK    3  A    between atoms: C_7  and  N_8 
REMARK    4  A    between atoms: C_10  and  C_12 
REMARK    5  A    between atoms: C_12  and  N_13 
REMARK       I    between atoms: N_13  and  C_15 
REMARK       I    between atoms: C_15  and  N_17 
REMARK    6  A    between atoms: N_17  and  C_19 
ROOT
HETATM    1  N   UNL     1       8.193  -3.156  22.322  1.00  0.00    -0.308 N 
ATOM      2  HN  UNL     1       8.890  -3.623  21.742  1.00  0.00     0.170 HD
HETATM    3  C   UNL     1       8.848  -2.134  22.791  1.00  0.00     0.326 C 
HETATM    4  O   UNL     1       8.398  -0.992  22.770  1.00  0.00    -0.247 OA
HETATM    5  N   UNL     1      10.110  -2.435  23.253  1.00  0.00    -0.293 N 
ATOM      6  HN  UNL     1      10.465  -3.391  23.230  1.00  0.00     0.172 HD
ENDROOT
BRANCH   1   7
HETATM    7  C   UNL     1       7.116  -3.937  22.175  1.00  0.00     0.043 C 
HETATM    8  C   UNL     1       7.007  -5.305  22.471  1.00  0.00     0.044 C 
BRANCH   7   9
HETATM    9  C   UNL     1       5.949  -3.312  21.923  1.00  0.00     0.127 C 
HETATM   10  N   UNL     1       6.018  -2.425  20.983  1.00  0.00    -0.316 N 
ATOM     11  HN  UNL     1       6.577  -2.834  20.234  1.00  0.00     0.176 HD
BRANCH  10  12
HETATM   12  C   UNL     1       5.697  -1.300  20.611  1.00  0.00     0.062 C 
BRANCH  12  13
HETATM   13  N   UNL     1       5.678  -0.321  20.106  1.00  0.00    -0.222 N 
ATOM     14  HN  UNL     1       5.228   0.452  20.598  1.00  0.00     0.191 HD
BRANCH  13  15
HETATM   15  S   UNL     1       6.280  -0.022  18.706  1.00  0.00     0.328 S 
HETATM   16 CL   UNL     1       5.419   1.583  18.299  1.00  0.00     0.042 Cl
HETATM   17  O   UNL     1       7.621   0.263  18.809  1.00  0.00    -0.188 OA
HETATM   18  O   UNL     1       5.917  -0.967  17.806  1.00  0.00    -0.188 OA
ENDBRANCH  13  15
ENDBRANCH  12  13
ENDBRANCH  10  12
ENDBRANCH   7   9
ENDBRANCH   1   7
BRANCH   5  19
HETATM   19  C   UNL     1      10.850  -1.438  23.730  1.00  0.00     0.125 C 
HETATM   20  N   UNL     1      10.459  -0.575  24.722  1.00  0.00    -0.286 N 
HETATM   21  N   UNL     1      11.378   0.289  24.979  1.00  0.00    -0.310 N 
ATOM     22  HN  UNL     1       9.556  -0.613  25.195  1.00  0.00     0.188 HD
HETATM   23  C   UNL     1      12.399   0.067  24.183  1.00  0.00     0.111 C 
ATOM     24  HN  UNL     1      11.324   1.024  25.684  1.00  0.00     0.186 HD
HETATM   25  C   UNL     1      12.179  -1.161  23.389  1.00  0.00     0.068 C 
ENDBRANCH   5  19
TORSDOF 6
ENDMDL
MODEL 4
REMARK VINA RESULT:    -6.073      2.787      4.978
REMARK INTER + INTRA:          -9.158
REMARK INTER:                  -7.961
REMARK INTRA:                  -1.197
REMARK UNBOUND:                -0.954
REMARK  6 active torsions:
REMARK  status: ('A' for Active; 'I' for Inactive)
REMARK    1  A    between atoms: S_2  and  N_5 
REMARK    2  A    between atoms: N_5  and  C_7 
REMARK    3  A    between atoms: C_7  and  N_8 
REMARK    4  A    between atoms: C_10  and  C_12 
REMARK    5  A    between atoms: C_12  and  N_13 
REMARK       I    between atoms: N_13  and  C_15 
REMARK       I    between atoms: C_15  and  N_17 
REMARK    6  A    between atoms: N_17  and  C_19 
ROOT
HETATM    1  N   UNL     1      10.097  18.979   1.958  1.00  0.00    -0.308 N 
ATOM      2  HN  UNL     1      11.041  19.116   1.599  1.00  0.00     0.170 HD
HETATM    3  C   UNL     1      10.263  19.077   3.245  1.00  0.00     0.326 C 
HETATM    4  O   UNL     1       9.547  19.778   3.954  1.00  0.00    -0.247 OA
HETATM    5  N   UNL     1      11.345  18.377   3.730  1.00  0.00    -0.293 N 
ATOM      6  HN  UNL     1      11.938  17.826   3.109  1.00  0.00     0.172 HD
ENDROOT
BRANCH   1   7
HETATM    7  C   UNL     1       9.379  18.799   0.842  1.00  0.00     0.043 C 
HETATM    8  C   UNL     1       8.738  19.782   0.073  1.00  0.00     0.044 C 
BRANCH   7   9
HETATM    9  C   UNL     1       9.452  17.582   0.269  1.00  0.00     0.127 C 
HETATM   10  N   UNL     1       9.103  16.610   1.049  1.00  0.00    -0.316 N 
ATOM     11  HN  UNL     1       8.265  16.917   1.543  1.00  0.00     0.176 HD
BRANCH  10  12
HETATM   12  C   UNL     1       9.352  15.475   1.446  1.00  0.00     0.062 C 
BRANCH  12  13
HETATM   13  N   UNL     1       9.750  14.620   2.016  1.00  0.00    -0.222 N 
ATOM     14  HN  UNL     1       9.924  13.755   1.504  1.00  0.00     0.191 HD
BRANCH  13  15
HETATM   15  S   UNL     1      10.067  14.626   3.537  1.00  0.00     0.328 S 
HETATM   16 CL   UNL     1       8.761  15.808   4.153  1.00  0.00     0.042 Cl
HETATM   17  O   UNL     1       9.785  13.401   4.093  1.00  0.00    -0.188 OA
HETATM   18  O   UNL     1      11.293  15.147   3.778  1.00  0.00    -0.188 OA
ENDBRANCH  13  15
ENDBRANCH  12  13
ENDBRANCH  10  12
ENDBRANCH   7   9
ENDBRANCH   1   7
BRANCH   5  19
HETATM   19  C   UNL     1      11.593  18.444   5.035  1.00  0.00     0.125 C 
HETATM   20  N   UNL     1      11.132  17.551   5.969  1.00  0.00    -0.286 N 
HETATM   21  N   UNL     1      11.528  17.866   7.153  1.00  0.00    -0.310 N 
ATOM     22  HN  UNL     1      10.551  16.741   5.753  1.00  0.00     0.188 HD
HETATM   23  C   UNL     1      12.240  18.967   7.079  1.00  0.00     0.111 C 
ATOM     24  HN  UNL     1      11.323  17.346   8.006  1.00  0.00     0.186 HD
HETATM   25  C   UNL     1      12.441  19.361   5.668  1.00  0.00     0.068 C 
ENDBRANCH   5  19
TORSDOF 6
ENDMDL
MODEL 5
REMARK VINA RESULT:    -5.909      2.129      2.186
REMARK INTER + INTRA:          -8.936
REMARK INTER:                  -7.320
REMARK INTRA:                  -1.616
REMARK UNBOUND:                -0.954
REMARK  6 active torsions:
REMARK  status: ('A' for Active; 'I' for Inactive)
REMARK    1  A    between atoms: S_2  and  N_5 
REMARK    2  A    between atoms: N_5  and  C_7 
REMARK    3  A    between atoms: C_7  and  N_8 
REMARK    4  A    between atoms: C_10  and  C_12 
REMARK    5  A    between atoms: C_12  and  N_13 
REMARK       I    between atoms: N_13  and  C_15 
REMARK       I    between atoms: C_15  and  N_17 
REMARK    6  A    between atoms: N_17  and  C_19 
ROOT
HETATM    1  N   UNL     1       8.398  16.718   1.242  1.00  0.00    -0.308 N 
ATOM      2  HN  UNL     1       7.563  16.611   0.667  1.00  0.00     0.170 HD
HETATM    3  C   UNL     1       8.634  15.500   1.634  1.00  0.00     0.326 C 
HETATM    4  O   UNL     1       9.747  14.986   1.565  1.00  0.00    -0.247 OA
HETATM    5  N   UNL     1       7.519  14.821   2.073  1.00  0.00    -0.293 N 
ATOM      6  HN  UNL     1       6.603  15.269   2.091  1.00  0.00     0.172 HD
ENDROOT
BRANCH   1   7
HETATM    7  C   UNL     1       8.639  18.033   1.171  1.00  0.00     0.043 C 
HETATM    8  C   UNL     1       8.353  18.896   0.101  1.00  0.00     0.044 C 
BRANCH   7   9
HETATM    9  C   UNL     1       8.994  18.643   2.318  1.00  0.00     0.127 C 
HETATM   10  N   UNL     1      10.018  18.109   2.904  1.00  0.00    -0.316 N 
ATOM     11  HN  UNL     1      10.701  17.906   2.174  1.00  0.00     0.176 HD
BRANCH  10  12
HETATM   12  C   UNL     1      10.514  17.743   3.966  1.00  0.00     0.062 C 
BRANCH  12  13
HETATM   13  N   UNL     1      10.747  17.178   4.883  1.00  0.00    -0.222 N 
ATOM     14  HN  UNL     1      11.369  17.619   5.561  1.00  0.00     0.191 HD
BRANCH  13  15
HETATM   15  S   UNL     1      10.204  15.764   5.226  1.00  0.00     0.328 S 
HETATM   16 CL   UNL     1      10.376  15.774   7.084  1.00  0.00     0.042 Cl
HETATM   17  O   UNL     1       8.860  15.684   4.953  1.00  0.00    -0.188 OA
HETATM   18  O   UNL     1      10.998  14.797   4.707  1.00  0.00    -0.188 OA
ENDBRANCH  13  15
ENDBRANCH  12  13
ENDBRANCH  10  12
ENDBRANCH   7   9
ENDBRANCH   1   7
BRANCH   5  19
HETATM   19  C   UNL     1       7.677  13.563   2.473  1.00  0.00     0.125 C 
HETATM   20  N   UNL     1       8.688  13.117   3.285  1.00  0.00    -0.286 N 
HETATM   21  N   UNL     1       8.589  11.852   3.506  1.00  0.00    -0.310 N 
ATOM     22  HN  UNL     1       9.424  13.711   3.666  1.00  0.00     0.188 HD
HETATM   23  C   UNL     1       7.544  11.393   2.855  1.00  0.00     0.111 C 
ATOM     24  HN  UNL     1       9.216  11.299   4.088  1.00  0.00     0.186 HD
HETATM   25  C   UNL     1       6.794  12.503   2.229  1.00  0.00     0.068 C 
ENDBRANCH   5  19
TORSDOF 6
ENDMDL
MODEL 6
REMARK VINA RESULT:    -5.877     23.602     26.634
REMARK INTER + INTRA:          -8.892
REMARK INTER:                  -8.112
REMARK INTRA:                  -0.780
REMARK UNBOUND:                -0.954
REMARK  6 active torsions:
REMARK  status: ('A' for Active; 'I' for Inactive)
REMARK    1  A    between atoms: S_2  and  N_5 
REMARK    2  A    between atoms: N_5  and  C_7 
REMARK    3  A    between atoms: C_7  and  N_8 
REMARK    4  A    between atoms: C_10  and  C_12 
REMARK    5  A    between atoms: C_12  and  N_13 
REMARK       I    between atoms: N_13  and  C_15 
REMARK       I    between atoms: C_15  and  N_17 
REMARK    6  A    between atoms: N_17  and  C_19 
ROOT
HETATM    1  N   UNL     1       6.639  -2.530  21.905  1.00  0.00    -0.308 N 
ATOM      2  HN  UNL     1       5.669  -2.521  22.219  1.00  0.00     0.170 HD
HETATM    3  C   UNL     1       6.691  -1.505  21.105  1.00  0.00     0.326 C 
HETATM    4  O   UNL     1       7.580  -0.660  21.168  1.00  0.00    -0.247 OA
HETATM    5  N   UNL     1       5.633  -1.417  20.228  1.00  0.00    -0.293 N 
ATOM      6  HN  UNL     1       4.895  -2.121  20.221  1.00  0.00     0.172 HD
ENDROOT
BRANCH   1   7
HETATM    7  C   UNL     1       7.147  -3.590  22.546  1.00  0.00     0.043 C 
HETATM    8  C   UNL     1       7.110  -4.932  22.137  1.00  0.00     0.044 C 
BRANCH   7   9
HETATM    9  C   UNL     1       7.967  -3.331  23.583  1.00  0.00     0.127 C 
HETATM   10  N   UNL     1       8.811  -2.375  23.361  1.00  0.00    -0.316 N 
ATOM     11  HN  UNL     1       8.296  -1.631  22.890  1.00  0.00     0.176 HD
BRANCH  10  12
HETATM   12  C   UNL     1       9.970  -1.985  23.477  1.00  0.00     0.062 C 
BRANCH  12  13
HETATM   13  N   UNL     1      10.952  -1.523  23.287  1.00  0.00    -0.222 N 
ATOM     14  HN  UNL     1      11.576  -1.997  22.634  1.00  0.00     0.191 HD
BRANCH  13  15
HETATM   15  S   UNL     1      11.462  -0.205  23.934  1.00  0.00     0.328 S 
HETATM   16 CL   UNL     1      13.272  -0.606  24.141  1.00  0.00     0.042 Cl
HETATM   17  O   UNL     1      11.387   0.833  23.036  1.00  0.00    -0.188 OA
HETATM   18  O   UNL     1      10.903  -0.010  25.151  1.00  0.00    -0.188 OA
ENDBRANCH  13  15
ENDBRANCH  12  13
ENDBRANCH  10  12
ENDBRANCH   7   9
ENDBRANCH   1   7
BRANCH   5  19
HETATM   19  C   UNL     1       5.606  -0.384  19.391  1.00  0.00     0.125 C 
HETATM   20  N   UNL     1       6.183  -0.366  18.147  1.00  0.00    -0.286 N 
HETATM   21  N   UNL     1       5.998   0.766  17.561  1.00  0.00    -0.310 N 
ATOM     22  HN  UNL     1       6.695  -1.148  17.738  1.00  0.00     0.188 HD
HETATM   23  C   UNL     1       5.319   1.550  18.368  1.00  0.00     0.111 C 
ATOM     24  HN  UNL     1       6.323   1.013  16.627  1.00  0.00     0.186 HD
HETATM   25  C   UNL     1       4.903   0.812  19.579  1.00  0.00     0.068 C 
ENDBRANCH   5  19
TORSDOF 6
ENDMDL
MODEL 7
REMARK VINA RESULT:    -5.838     24.594     26.200
REMARK INTER + INTRA:          -8.840
REMARK INTER:                  -7.320
REMARK INTRA:                  -1.519
REMARK UNBOUND:                -0.954
REMARK  6 active torsions:
REMARK  status: ('A' for Active; 'I' for Inactive)
REMARK    1  A    between atoms: S_2  and  N_5 
REMARK    2  A    between atoms: N_5  and  C_7 
REMARK    3  A    between atoms: C_7  and  N_8 
REMARK    4  A    between atoms: C_10  and  C_12 
REMARK    5  A    between atoms: C_12  and  N_13 
REMARK       I    between atoms: N_13  and  C_15 
REMARK       I    between atoms: C_15  and  N_17 
REMARK    6  A    between atoms: N_17  and  C_19 
ROOT
HETATM    1  N   UNL     1      11.449   0.591  24.088  1.00  0.00    -0.308 N 
ATOM      2  HN  UNL     1      10.999   0.274  24.946  1.00  0.00     0.170 HD
HETATM    3  C   UNL     1      10.993   1.803  23.957  1.00  0.00     0.326 C 
HETATM    4  O   UNL     1      11.722   2.763  23.721  1.00  0.00    -0.247 OA
HETATM    5  N   UNL     1       9.638   1.923  24.166  1.00  0.00    -0.293 N 
ATOM      6  HN  UNL     1       9.065   1.109  24.388  1.00  0.00     0.172 HD
ENDROOT
BRANCH   1   7
HETATM    7  C   UNL     1      12.179  -0.472  23.726  1.00  0.00     0.043 C 
HETATM    8  C   UNL     1      13.476  -0.801  24.151  1.00  0.00     0.044 C 
BRANCH   7   9
HETATM    9  C   UNL     1      11.533  -1.445  23.055  1.00  0.00     0.127 C 
HETATM   10  N   UNL     1      10.645  -1.009  22.221  1.00  0.00    -0.316 N 
ATOM     11  HN  UNL     1      11.060  -0.214  21.737  1.00  0.00     0.176 HD
BRANCH  10  12
HETATM   12  C   UNL     1       9.512  -1.148  21.765  1.00  0.00     0.062 C 
BRANCH  12  13
HETATM   13  N   UNL     1       8.530  -0.959  21.304  1.00  0.00    -0.222 N 
ATOM     14  HN  UNL     1       7.962  -1.770  21.058  1.00  0.00     0.191 HD
BRANCH  13  15
HETATM   15  S   UNL     1       7.939   0.445  20.997  1.00  0.00     0.328 S 
HETATM   16 CL   UNL     1       7.441   0.224  19.213  1.00  0.00     0.042 Cl
HETATM   17  O   UNL     1       6.781   0.647  21.709  1.00  0.00    -0.188 OA
HETATM   18  O   UNL     1       8.892   1.404  21.082  1.00  0.00    -0.188 OA
ENDBRANCH  13  15
ENDBRANCH  12  13
ENDBRANCH  10  12
ENDBRANCH   7   9
ENDBRANCH   1   7
BRANCH   5  19
HETATM   19  C   UNL     1       9.100   3.135  24.069  1.00  0.00     0.125 C 
HETATM   20  N   UNL     1       9.000   3.859  22.908  1.00  0.00    -0.286 N 
HETATM   21  N   UNL     1       8.436   4.998  23.114  1.00  0.00    -0.310 N 
ATOM     22  HN  UNL     1       9.330   3.537  21.999  1.00  0.00     0.188 HD
HETATM   23  C   UNL     1       8.152   5.101  24.393  1.00  0.00     0.111 C 
ATOM     24  HN  UNL     1       8.241   5.703  22.403  1.00  0.00     0.186 HD
HETATM   25  C   UNL     1       8.453   3.835  25.094  1.00  0.00     0.068 C 
ENDBRANCH   5  19
TORSDOF 6
ENDMDL
MODEL 8
REMARK VINA RESULT:    -5.797     25.107     27.333
REMARK INTER + INTRA:          -8.784
REMARK INTER:                  -7.409
REMARK INTRA:                  -1.375
REMARK UNBOUND:                -0.954
REMARK  6 active torsions:
REMARK  status: ('A' for Active; 'I' for Inactive)
REMARK    1  A    between atoms: S_2  and  N_5 
REMARK    2  A    between atoms: N_5  and  C_7 
REMARK    3  A    between atoms: C_7  and  N_8 
REMARK    4  A    between atoms: C_10  and  C_12 
REMARK    5  A    between atoms: C_12  and  N_13 
REMARK       I    between atoms: N_13  and  C_15 
REMARK       I    between atoms: C_15  and  N_17 
REMARK    6  A    between atoms: N_17  and  C_19 
ROOT
HETATM    1  N   UNL     1       5.901  -1.364  20.783  1.00  0.00    -0.308 N 
ATOM      2  HN  UNL     1       5.306  -0.751  21.339  1.00  0.00     0.170 HD
HETATM    3  C   UNL     1       5.778  -2.509  21.390  1.00  0.00     0.326 C 
HETATM    4  O   UNL     1       5.543  -3.554  20.790  1.00  0.00    -0.247 OA
HETATM    5  N   UNL     1       5.873  -2.435  22.762  1.00  0.00    -0.293 N 
ATOM      6  HN  UNL     1       6.040  -1.545  23.231  1.00  0.00     0.172 HD
ENDROOT
BRANCH   1   7
HETATM    7  C   UNL     1       6.371  -0.542  19.838  1.00  0.00     0.043 C 
HETATM    8  C   UNL     1       5.897  -0.391  18.525  1.00  0.00     0.044 C 
BRANCH   7   9
HETATM    9  C   UNL     1       7.251   0.397  20.239  1.00  0.00     0.127 C 
HETATM   10  N   UNL     1       8.467  -0.034  20.351  1.00  0.00    -0.316 N 
ATOM     11  HN  UNL     1       8.647  -0.620  19.536  1.00  0.00     0.176 HD
BRANCH  10  12
HETATM   12  C   UNL     1       9.495  -0.036  21.023  1.00  0.00     0.062 C 
BRANCH  12  13
HETATM   13  N   UNL     1      10.286  -0.307  21.740  1.00  0.00    -0.222 N 
ATOM     14  HN  UNL     1      11.134   0.261  21.741  1.00  0.00     0.191 HD
BRANCH  13  15
HETATM   15  S   UNL     1      10.215  -1.485  22.751  1.00  0.00     0.328 S 
HETATM   16 CL   UNL     1       9.823  -0.562  24.324  1.00  0.00     0.042 Cl
HETATM   17  O   UNL     1       9.131  -2.286  22.481  1.00  0.00    -0.188 OA
HETATM   18  O   UNL     1      11.418  -2.094  22.876  1.00  0.00    -0.188 OA
ENDBRANCH  13  15
ENDBRANCH  12  13
ENDBRANCH  10  12
ENDBRANCH   7   9
ENDBRANCH   1   7
BRANCH   5  19
HETATM   19  C   UNL     1       5.738  -3.562  23.454  1.00  0.00     0.125 C 
HETATM   20  N   UNL     1       4.602  -4.330  23.493  1.00  0.00    -0.286 N 
HETATM   21  N   UNL     1       4.760  -5.363  24.245  1.00  0.00    -0.310 N 
ATOM     22  HN  UNL     1       3.742  -4.110  22.990  1.00  0.00     0.188 HD
HETATM   23  C   UNL     1       5.972  -5.333  24.750  1.00  0.00     0.111 C 
ATOM     24  HN  UNL     1       4.061  -6.084  24.419  1.00  0.00     0.186 HD
HETATM   25  C   UNL     1       6.748  -4.215  24.171  1.00  0.00     0.068 C 
ENDBRANCH   5  19
TORSDOF 6
ENDMDL
MODEL 9
REMARK VINA RESULT:    -5.784     24.437     27.421
REMARK INTER + INTRA:          -8.767
REMARK INTER:                  -7.398
REMARK INTRA:                  -1.369
REMARK UNBOUND:                -0.954
REMARK  6 active torsions:
REMARK  status: ('A' for Active; 'I' for Inactive)
REMARK    1  A    between atoms: S_2  and  N_5 
REMARK    2  A    between atoms: N_5  and  C_7 
REMARK    3  A    between atoms: C_7  and  N_8 
REMARK    4  A    between atoms: C_10  and  C_12 
REMARK    5  A    between atoms: C_12  and  N_13 
REMARK       I    between atoms: N_13  and  C_15 
REMARK       I    between atoms: C_15  and  N_17 
REMARK    6  A    between atoms: N_17  and  C_19 
ROOT
HETATM    1  N   UNL     1       8.091  -0.896  22.826  1.00  0.00    -0.308 N 
ATOM      2  HN  UNL     1       7.403  -1.639  22.945  1.00  0.00     0.170 HD
HETATM    3  C   UNL     1       7.536  -0.132  21.931  1.00  0.00     0.326 C 
HETATM    4  O   UNL     1       7.456   1.086  22.058  1.00  0.00    -0.247 OA
HETATM    5  N   UNL     1       6.995  -0.813  20.864  1.00  0.00    -0.293 N 
ATOM      6  HN  UNL     1       7.054  -1.829  20.802  1.00  0.00     0.172 HD
ENDROOT
BRANCH   1   7
HETATM    7  C   UNL     1       9.061  -1.252  23.678  1.00  0.00     0.043 C 
HETATM    8  C   UNL     1      10.047  -0.426  24.241  1.00  0.00     0.044 C 
BRANCH   7   9
HETATM    9  C   UNL     1       8.960  -2.478  24.227  1.00  0.00     0.127 C 
HETATM   10  N   UNL     1       8.538  -3.388  23.410  1.00  0.00    -0.316 N 
ATOM     11  HN  UNL     1       9.026  -3.239  22.527  1.00  0.00     0.176 HD
BRANCH  10  12
HETATM   12  C   UNL     1       7.800  -4.356  23.247  1.00  0.00     0.062 C 
BRANCH  12  13
HETATM   13  N   UNL     1       6.987  -5.018  22.909  1.00  0.00    -0.222 N 
ATOM     14  HN  UNL     1       7.008  -5.988  23.225  1.00  0.00     0.191 HD
BRANCH  13  15
HETATM   15  S   UNL     1       5.810  -4.594  21.988  1.00  0.00     0.328 S 
HETATM   16 CL   UNL     1       4.356  -5.165  23.007  1.00  0.00     0.042 Cl
HETATM   17  O   UNL     1       5.728  -3.224  21.912  1.00  0.00    -0.188 OA
HETATM   18  O   UNL     1       5.835  -5.276  20.818  1.00  0.00    -0.188 OA
ENDBRANCH  13  15
ENDBRANCH  12  13
ENDBRANCH  10  12
ENDBRANCH   7   9
ENDBRANCH   1   7
BRANCH   5  19
HETATM   19  C   UNL     1       6.392  -0.102  19.916  1.00  0.00     0.125 C 
HETATM   20  N   UNL     1       5.107   0.374  19.987  1.00  0.00    -0.286 N 
HETATM   21  N   UNL     1       4.790   1.028  18.924  1.00  0.00    -0.310 N 
ATOM     22  HN  UNL     1       4.483   0.228  20.781  1.00  0.00     0.188 HD
HETATM   23  C   UNL     1       5.812   1.010  18.099  1.00  0.00     0.111 C 
ATOM     24  HN  UNL     1       3.894   1.483  18.751  1.00  0.00     0.186 HD
HETATM   25  C   UNL     1       6.984   0.374  18.739  1.00  0.00     0.068 C 
ENDBRANCH   5  19
TORSDOF 6
ENDMDL
