REMARK  6 active torsions:
REMARK  status: ('A' for Active; 'I' for Inactive)
REMARK    1  A    between atoms: S_2  and  N_5 
REMARK    2  A    between atoms: N_5  and  C_7 
REMARK    3  A    between atoms: C_7  and  N_8 
REMARK    4  A    between atoms: C_10  and  C_12 
REMARK    5  A    between atoms: C_12  and  N_13 
REMARK       I    between atoms: N_13  and  C_15 
REMARK       I    between atoms: C_15  and  N_17 
REMARK    6  A    between atoms: N_17  and  C_19 
ROOT
HETATM    1  N   UNL     1       9.818  -0.208  22.435  1.00  0.00    -0.308 N 
ATOM      2  HN  UNL     1       9.096  -0.262  23.153  1.00  0.00     0.170 HD
HETATM    3  C   UNL     1       9.167   0.255  21.408  1.00  0.00     0.326 C 
HETATM    4  O   UNL     1       9.579   1.192  20.730  1.00  0.00    -0.247 OA
HETATM    5  N   UNL     1       7.952  -0.354  21.187  1.00  0.00    -0.293 N 
ATOM      6  HN  UNL     1       7.626  -1.112  21.787  1.00  0.00     0.172 HD
ENDROOT
BRANCH   1   7
HETATM    7  C   UNL     1      10.906  -0.653  23.076  1.00  0.00     0.043 C 
HETATM    8  C   UNL     1      11.920   0.115  23.670  1.00  0.00     0.044 C 
BRANCH   7   9
HETATM    9  C   UNL     1      10.933  -1.966  23.377  1.00  0.00     0.127 C 
HETATM   10  N   UNL     1       9.768  -2.475  23.620  1.00  0.00    -0.316 N 
ATOM     11  HN  UNL     1       9.132  -2.103  22.915  1.00  0.00     0.176 HD
BRANCH  10  12
HETATM   12  C   UNL     1       9.104  -3.216  24.340  1.00  0.00     0.062 C 
BRANCH  12  13
HETATM   13  N   UNL     1       8.280  -3.803  24.776  1.00  0.00    -0.222 N 
ATOM     14  HN  UNL     1       7.439  -3.924  24.211  1.00  0.00     0.191 HD
BRANCH  13  15
HETATM   15  S   UNL     1       8.296  -4.462  26.183  1.00  0.00     0.328 S 
HETATM   16 CL   UNL     1       6.506  -4.962  26.346  1.00  0.00     0.042 Cl
HETATM   17  O   UNL     1       9.031  -5.623  26.163  1.00  0.00    -0.188 OA
HETATM   18  O   UNL     1       8.598  -3.556  27.143  1.00  0.00    -0.188 OA
ENDBRANCH  13  15
ENDBRANCH  12  13
ENDBRANCH  10  12
ENDBRANCH   7   9
ENDBRANCH   1   7
BRANCH   5  19
HETATM   19  C   UNL     1       7.218   0.078  20.166  1.00  0.00     0.125 C 
HETATM   20  N   UNL     1       7.602   0.038  18.850  1.00  0.00    -0.286 N 
HETATM   21  N   UNL     1       6.691   0.525  18.081  1.00  0.00    -0.310 N 
ATOM     22  HN  UNL     1       8.495  -0.330  18.522  1.00  0.00     0.188 HD
HETATM   23  C   UNL     1       5.683   0.922  18.824  1.00  0.00     0.111 C 
ATOM     24  HN  UNL     1       6.743   0.591  17.065  1.00  0.00     0.186 HD
HETATM   25  C   UNL     1       5.900   0.545  20.237  1.00  0.00     0.068 C 
ENDBRANCH   5  19
TORSDOF 6
