stable:False satoms:9 tatoms:24 sratio:0.375
  -OEChem-07092417493D

 24 25  0     1  0  0  0  0  0999 V2000
    6.5828   -4.8852   26.4715 C   0  0  0  0  0  0  0  0  0  0  0  0
    8.2030   -4.3241   26.1081 S   0  0  0  0  0  0  0  0  0  0  0  0
    9.0381   -5.4898   26.0393 O   0  0  0  0  0  0  0  0  0  0  0  0
    8.5793   -3.4366   27.1574 O   0  0  0  0  0  0  0  0  0  0  0  0
    8.0885   -3.6106   24.6750 N   0  0  0  0  0  0  0  0  0  0  0  0
    8.9738   -2.9465   24.1374 C   0  0  0  0  0  0  0  0  0  0  0  0
    9.4067   -1.9712   23.5124 C   0  0  0  0  0  0  0  0  0  0  0  0
   10.3059   -1.1472   23.2678 C   0  0  1  0  0  0  0  0  0  0  0  0
   11.0454    0.0030   24.3323 C   0  0  0  0  0  0  0  0  0  0  0  0
   12.0103    0.3217   24.3196 C   0  0  0  0  0  0  0  0  0  0  0  0
   13.1647   -0.2135   23.4121 C   0  0  0  0  0  0  0  0  0  0  0  0
   12.7492   -1.1914   22.6919 C   0  0  0  0  0  0  0  0  0  0  0  0
   11.7785   -1.7117   22.4850 C   0  0  0  0  0  0  0  0  0  0  0  0
    9.7609   -0.5909   22.3741 C   0  0  0  0  0  0  0  0  0  0  0  0
    9.0678    0.0378   21.3909 C   0  0  0  0  0  0  0  0  0  0  0  0
    9.5392    0.9897   20.9541 O   0  0  0  0  0  0  0  0  0  0  0  0
    7.9336   -0.5465   21.1010 N   0  0  0  0  0  0  0  0  0  0  0  0
    7.2608   -0.0998   20.1489 C   0  0  0  0  0  0  0  0  0  0  0  0
    7.2925   -0.0261   18.8691 C   0  0  0  0  0  0  0  0  0  0  0  0
    6.7297    0.3316   17.7565 N   0  0  0  0  0  0  0  0  0  0  0  0
    5.6666    0.8773   18.2268 C   0  0  0  0  0  0  0  0  0  0  0  0
    5.2629    0.9936   19.4436 C   0  0  0  0  0  0  0  0  0  0  0  0
    5.8108    0.5985   20.5551 C   0  0  0  0  0  0  0  0  0  0  0  0
    5.3332    0.7476   21.8669 C   0  0  0  0  0  0  0  0  0  0  0  0
 20 21  2  0  0  0  0
 19 20  1  0  0  0  0
 21 22  1  0  0  0  0
 18 19  2  0  0  0  0
 22 23  2  0  0  0  0
 18 23  1  0  0  0  0
 17 18  1  0  0  0  0
 23 24  1  0  0  0  0
 15 16  2  0  0  0  0
 15 17  1  0  0  0  0
 14 15  1  0  0  0  0
  8 14  1  0  0  0  0
 12 13  1  0  0  0  0
  8 13  1  0  0  0  0
 11 12  2  0  0  0  0
  7  8  1  0  0  0  0
  8  9  1  0  0  0  0
 10 11  1  0  0  0  0
  6  7  2  3  0  0  0
  5  6  1  0  0  0  0
  9 10  2  0  0  0  0
  2  5  1  0  0  0  0
  2  3  2  0  0  0  0
  1  2  1  0  0  0  0
  2  4  2  0  0  0  0
M  END
> <Shapegauss>
-286.966888

$$$$
