stable:False satoms:9 tatoms:24 sratio:0.375
  -OEChem-08062416543D

 45 46  0     1  0  0  0  0  0999 V2000
   -6.3109   -5.2093  -26.2945 C   0  0  0  0  0  0  0  0  0  0  0  0
   -7.9398   -4.6052  -26.0631 S   0  0  0  0  0  0  0  0  0  0  0  0
   -8.8008   -5.7523  -26.0005 O   0  0  0  0  0  0  0  0  0  0  0  0
   -8.2290   -3.7579  -27.1716 O   0  0  0  0  0  0  0  0  0  0  0  0
   -7.9050   -3.8321  -24.6571 N   0  0  0  0  0  0  0  0  0  0  0  0
   -8.8101   -3.1302  -24.2078 C   0  0  0  0  0  0  0  0  0  0  0  0
   -9.2633   -2.1213  -23.6546 C   0  0  0  0  0  0  0  0  0  0  0  0
  -10.1599   -1.2721  -23.5050 C   0  0  1  0  0  0  0  0  0  0  0  0
  -10.8052   -0.1568  -24.6638 C   0  0  0  0  0  0  0  0  0  0  0  0
  -11.7623    0.1786  -24.7285 C   0  0  0  0  0  0  0  0  0  0  0  0
  -12.9840   -0.2967  -23.8775 C   0  0  0  0  0  0  0  0  0  0  0  0
  -12.6360   -1.2493  -23.0907 C   0  0  0  0  0  0  0  0  0  0  0  0
  -11.6915   -1.7767  -22.7982 C   0  0  0  0  0  0  0  0  0  0  0  0
   -9.6635   -0.6869  -22.6016 C   0  0  0  0  0  0  0  0  0  0  0  0
   -9.0237   -0.0280  -21.6022 C   0  0  0  0  0  0  0  0  0  0  0  0
   -9.5035    0.9500  -21.2382 O   0  0  0  0  0  0  0  0  0  0  0  0
   -7.9228   -0.6185  -21.2134 N   0  0  0  0  0  0  0  0  0  0  0  0
   -7.3048   -0.1424  -20.2387 C   0  0  0  0  0  0  0  0  0  0  0  0
   -7.4186   -0.0125  -18.9680 C   0  0  0  0  0  0  0  0  0  0  0  0
   -6.9227    0.3835  -17.8368 N   0  0  0  0  0  0  0  0  0  0  0  0
   -5.8204    0.8899  -18.2584 C   0  0  0  0  0  0  0  0  0  0  0  0
   -5.3358    0.9462  -19.4496 C   0  0  0  0  0  0  0  0  0  0  0  0
   -5.8177    0.5126  -20.5772 C   0  0  0  0  0  0  0  0  0  0  0  0
   -5.2526    0.5963  -21.8597 C   0  0  0  0  0  0  0  0  0  0  0  0
   -6.2540   -5.7565  -27.2471 H   0  0  0  0  0  0  0  0  0  0  0  0
   -5.6062   -4.3649  -26.3143 H   0  0  0  0  0  0  0  0  0  0  0  0
   -6.0498   -5.8856  -25.4672 H   0  0  0  0  0  0  0  0  0  0  0  0
   -7.1043   -3.2348  -24.7029 H   0  0  0  0  0  0  0  0  0  0  0  0
   -9.6945   -3.7179  -24.4046 H   0  0  0  0  0  0  0  0  0  0  0  0
   -8.4985   -1.8338  -22.9483 H   0  0  0  0  0  0  0  0  0  0  0  0
  -10.1127    0.2244  -25.3997 H   0  0  0  0  0  0  0  0  0  0  0  0
  -11.9559    0.9455  -25.4638 H   0  0  0  0  0  0  0  0  0  0  0  0
  -13.9793    0.1174  -23.9422 H   0  0  0  0  0  0  0  0  0  0  0  0
  -13.4887   -1.6542  -22.5658 H   0  0  0  0  0  0  0  0  0  0  0  0
  -11.5907   -1.6706  -21.7080 H   0  0  0  0  0  0  0  0  0  0  0  0
  -11.8265   -2.8384  -23.0524 H   0  0  0  0  0  0  0  0  0  0  0  0
  -10.1297   -1.3713  -21.8775 H   0  0  0  0  0  0  0  0  0  0  0  0
  -10.3261    0.1746  -22.7709 H   0  0  0  0  0  0  0  0  0  0  0  0
   -7.5842   -1.4321  -21.6860 H   0  0  0  0  0  0  0  0  0  0  0  0
   -8.3841   -0.4308  -18.7246 H   0  0  0  0  0  0  0  0  0  0  0  0
   -5.2035    1.3388  -17.4940 H   0  0  0  0  0  0  0  0  0  0  0  0
   -4.3741    1.4318  -19.5249 H   0  0  0  0  0  0  0  0  0  0  0  0
   -4.6498   -0.3030  -22.0547 H   0  0  0  0  0  0  0  0  0  0  0  0
   -6.0541    0.6700  -22.6094 H   0  0  0  0  0  0  0  0  0  0  0  0
   -4.6110    1.4877  -21.9201 H   0  0  0  0  0  0  0  0  0  0  0  0
 20 21  2  0  0  0  0
 19 20  1  0  0  0  0
 21 22  1  0  0  0  0
 18 19  2  0  0  0  0
 22 23  2  0  0  0  0
 18 23  1  0  0  0  0
 17 18  1  0  0  0  0
 23 24  1  0  0  0  0
 15 16  2  0  0  0  0
 15 17  1  0  0  0  0
 14 15  1  0  0  0  0
  8 14  1  0  0  0  0
 12 13  1  0  0  0  0
  8 13  1  0  0  0  0
 11 12  2  0  0  0  0
  7  8  1  0  0  0  0
  8  9  1  0  0  0  0
 10 11  1  0  0  0  0
  6  7  2  3  0  0  0
  5  6  1  0  0  0  0
  9 10  2  0  0  0  0
  2  5  1  0  0  0  0
  2  3  2  0  0  0  0
  1  2  1  0  0  0  0
  2  4  2  0  0  0  0
  1 25  1  0  0  0  0
  1 26  1  0  0  0  0
  1 27  1  0  0  0  0
  5 28  1  0  0  0  0
  6 29  1  0  0  0  0
  7 30  1  0  0  0  0
  9 31  1  0  0  0  0
 10 32  1  0  0  0  0
 11 33  1  0  0  0  0
 12 34  1  0  0  0  0
 13 35  1  0  0  0  0
 13 36  1  0  0  0  0
 14 37  1  0  0  0  0
 14 38  1  0  0  0  0
 17 39  1  0  0  0  0
 19 40  1  0  0  0  0
 21 41  1  0  0  0  0
 22 42  1  0  0  0  0
 24 43  1  0  0  0  0
 24 44  1  0  0  0  0
 24 45  1  0  0  0  0
M  END
> <Chemgauss4>
-13.211214

$$$$
