stable:False satoms:6 tatoms:24 sratio:0.25
  -OEChem-08062414273D

 45 46  0     1  0  0  0  0  0999 V2000
   -6.3553   -5.1153  -26.2587 C   0  0  0  0  0  0  0  0  0  0  0  0
   -7.9991   -4.5193  -26.0568 S   0  0  0  0  0  0  0  0  0  0  0  0
   -8.9009   -5.6477  -26.0008 O   0  0  0  0  0  0  0  0  0  0  0  0
   -8.2970   -3.6914  -27.2047 O   0  0  0  0  0  0  0  0  0  0  0  0
   -7.9653   -3.6994  -24.6517 N   0  0  0  0  0  0  0  0  0  0  0  0
   -8.8144   -2.9897  -24.2370 C   0  0  0  0  0  0  0  0  0  0  0  0
   -9.3304   -2.0513  -23.7239 C   0  0  0  0  0  0  0  0  0  0  0  0
  -10.1889   -1.1316  -23.5891 C   0  0  2  0  0  0  0  0  0  0  0  0
  -10.8670   -0.1199  -24.6690 C   0  0  0  0  0  0  0  0  0  0  0  0
  -11.9139    0.1877  -24.6528 C   0  0  0  0  0  0  0  0  0  0  0  0
  -12.9848   -0.2220  -23.9210 C   0  0  0  0  0  0  0  0  0  0  0  0
  -12.6565   -1.2395  -23.0252 C   0  0  0  0  0  0  0  0  0  0  0  0
  -11.8235   -1.7199  -22.7905 C   0  0  0  0  0  0  0  0  0  0  0  0
   -9.6094   -0.6708  -22.6330 C   0  0  2  0  0  0  0  0  0  0  0  0
   -9.0860    0.0262  -21.6068 C   0  0  0  0  0  0  0  0  0  0  0  0
   -9.6252    0.9777  -21.2647 O   0  0  0  0  0  0  0  0  0  0  0  0
   -7.9414   -0.5622  -21.2432 N   0  0  0  0  0  0  0  0  0  0  0  0
   -7.2678   -0.0734  -20.3114 C   0  0  0  0  0  0  0  0  0  0  0  0
   -7.3955    0.0381  -18.9965 C   0  0  0  0  0  0  0  0  0  0  0  0
   -7.0069    0.3977  -17.9183 N   0  0  0  0  0  0  0  0  0  0  0  0
   -5.8811    0.9387  -18.3113 C   0  0  0  0  0  0  0  0  0  0  0  0
   -5.3968    0.9955  -19.4455 C   0  0  0  0  0  0  0  0  0  0  0  0
   -5.8673    0.5526  -20.6163 C   0  0  0  0  0  0  0  0  0  0  0  0
   -5.4241    0.6244  -21.6155 C   0  0  0  0  0  0  0  0  0  0  0  0
   -6.2849   -5.6885  -27.1949 H   0  0  0  0  0  0  0  0  0  0  0  0
   -5.6590   -4.2645  -26.2967 H   0  0  0  0  0  0  0  0  0  0  0  0
   -6.0942   -5.7652  -25.4105 H   0  0  0  0  0  0  0  0  0  0  0  0
   -7.1478   -3.1259  -24.7035 H   0  0  0  0  0  0  0  0  0  0  0  0
   -9.6881   -3.5735  -24.4867 H   0  0  0  0  0  0  0  0  0  0  0  0
  -11.0757   -1.6359  -23.1777 H   0  0  0  0  0  0  0  0  0  0  0  0
  -10.2386    0.2734  -25.4543 H   0  0  0  0  0  0  0  0  0  0  0  0
  -12.1456    0.9728  -25.3574 H   0  0  0  0  0  0  0  0  0  0  0  0
  -13.7613   -0.5916  -24.6069 H   0  0  0  0  0  0  0  0  0  0  0  0
  -13.3747    0.6362  -23.3540 H   0  0  0  0  0  0  0  0  0  0  0  0
  -13.5080   -1.5823  -22.4561 H   0  0  0  0  0  0  0  0  0  0  0  0
  -11.8400   -2.4927  -22.0363 H   0  0  0  0  0  0  0  0  0  0  0  0
  -10.8981   -1.4713  -23.2887 H   0  0  0  0  0  0  0  0  0  0  0  0
  -10.1825   -1.3070  -21.9426 H   0  0  0  0  0  0  0  0  0  0  0  0
   -7.6272   -1.3869  -21.7135 H   0  0  0  0  0  0  0  0  0  0  0  0
   -8.3379   -0.4453  -18.7850 H   0  0  0  0  0  0  0  0  0  0  0  0
   -5.2924    1.4008  -17.5326 H   0  0  0  0  0  0  0  0  0  0  0  0
   -4.4348    1.4831  -19.5013 H   0  0  0  0  0  0  0  0  0  0  0  0
   -4.8144   -0.2699  -21.8120 H   0  0  0  0  0  0  0  0  0  0  0  0
   -6.2242    0.6949  -22.3672 H   0  0  0  0  0  0  0  0  0  0  0  0
   -4.7888    1.5206  -21.6712 H   0  0  0  0  0  0  0  0  0  0  0  0
 20 21  2  0  0  0  0
 19 20  1  0  0  0  0
 21 22  1  0  0  0  0
 18 19  2  0  0  0  0
 22 23  2  0  0  0  0
 18 23  1  0  0  0  0
 17 18  1  0  0  0  0
 23 24  1  0  0  0  0
 15 16  2  0  0  0  0
 15 17  1  0  0  0  0
 14 15  1  0  0  0  0
  8 14  1  0  0  0  0
  7 14  1  0  0  0  0
 12 13  2  0  0  0  0
 11 12  1  0  0  0  0
  7  8  1  0  0  0  0
  8  9  1  0  0  0  0
 10 11  1  0  0  0  0
  6  7  2  3  0  0  0
  5  6  1  0  0  0  0
  9 10  2  0  0  0  0
  2  5  1  0  0  0  0
  2  3  2  0  0  0  0
  1  2  1  0  0  0  0
  2  4  2  0  0  0  0
  1 25  1  0  0  0  0
  1 26  1  0  0  0  0
  1 27  1  0  0  0  0
  5 28  1  0  0  0  0
  6 29  1  0  0  0  0
  8 30  1  0  0  0  0
  9 31  1  0  0  0  0
 10 32  1  0  0  0  0
 11 33  1  0  0  0  0
 11 34  1  0  0  0  0
 12 35  1  0  0  0  0
 13 36  1  0  0  0  0
 13 37  1  0  0  0  0
 14 38  1  0  0  0  0
 17 39  1  0  0  0  0
 19 40  1  0  0  0  0
 21 41  1  0  0  0  0
 22 42  1  0  0  0  0
 24 43  1  0  0  0  0
 24 44  1  0  0  0  0
 24 45  1  0  0  0  0
M  END
> <Chemgauss4>
-13.255623

$$$$
