REMARK  7 active torsions:
REMARK  status: ('A' for Active; 'I' for Inactive)
REMARK    1  A    between atoms: S_2  and  N_5 
REMARK    2  A    between atoms: N_5  and  C_7 
REMARK    3  A    between atoms: C_9  and  C_10 
REMARK    4  A    between atoms: C_10  and  C_11 
REMARK    5  A    between atoms: C_12  and  C_13 
REMARK    6  A    between atoms: C_15  and  C_16 
REMARK       I    between atoms: C_16  and  N_18 
REMARK    7  A    between atoms: N_18  and  C_20 
ROOT
HETATM    1  C   UNL     1       8.951  -2.920  24.161  1.00  0.00     0.108 C 
HETATM    2  C   UNL     1       9.408  -1.916  23.459  1.00  0.00    -0.017 A 
HETATM    3  C   UNL     1      10.318  -1.090  23.298  1.00  0.00     0.082 A 
HETATM    4  C   UNL     1       9.735  -0.553  22.337  1.00  0.00     0.031 A 
ENDROOT
BRANCH   4   5
HETATM    5  C   UNL     1       9.086   0.062  21.381  1.00  0.00     0.253 C 
HETATM    6  O   UNL     1       9.552   0.999  20.957  1.00  0.00    -0.268 OA
HETATM    7  N   UNL     1       7.933  -0.511  21.100  1.00  0.00    -0.321 N 
ATOM      8  HN  UNL     1       7.614  -1.296  21.668  1.00  0.00     0.169 HD
BRANCH   7   9
HETATM    9  C   UNL     1       7.232  -0.118  20.166  1.00  0.00     0.060 A 
HETATM   10  C   UNL     1       7.242  -0.024  18.887  1.00  0.00     0.117 A 
HETATM   11  N   UNL     1       6.751   0.326  17.806  1.00  0.00    -0.373 N 
HETATM   12  C   UNL     1       5.662   0.848  18.193  1.00  0.00     0.088 A 
ATOM     13  HN  UNL     1       7.121   0.223  16.861  1.00  0.00     0.164 HD
HETATM   14  C   UNL     1       5.215   0.950  19.468  1.00  0.00     0.030 A 
HETATM   15  C   UNL     1       5.758   0.572  20.575  1.00  0.00    -0.016 A 
HETATM   16  C   UNL     1       5.294   0.672  21.888  1.00  0.00     0.026 C 
ENDBRANCH   7   9
ENDBRANCH   4   5
BRANCH   3  17
HETATM   17  C   UNL     1      11.044  -0.016  24.265  1.00  0.00    -0.012 C 
BRANCH  17  18
HETATM   18  C   UNL     1      12.055   0.317  24.237  1.00  0.00    -0.003 C 
HETATM   19  C   UNL     1      13.164  -0.144  23.480  1.00  0.00    -0.001 C 
BRANCH  19  20
HETATM   20  C   UNL     1      12.710  -1.303  22.625  1.00  0.00    -0.010 C 
HETATM   21  C   UNL     1      11.845  -1.766  22.512  1.00  0.00     0.011 C 
ENDBRANCH  19  20
ENDBRANCH  17  18
ENDBRANCH   3  17
BRANCH   1  22
HETATM   22  N   UNL     1       8.100  -3.548  24.702  1.00  0.00    -0.295 N 
ATOM     23  HN  UNL     1       7.202  -3.606  24.222  1.00  0.00     0.177 HD
BRANCH  22  24
HETATM   24  S   UNL     1       8.212  -4.320  26.116  1.00  0.00     0.226 S 
HETATM   25  C   UNL     1       6.621  -4.901  26.463  1.00  0.00     0.186 C 
HETATM   26  O   UNL     1       9.079  -5.464  26.045  1.00  0.00    -0.206 OA
HETATM   27  O   UNL     1       8.616  -3.442  27.176  1.00  0.00    -0.206 OA
ENDBRANCH  22  24
ENDBRANCH   1  22
TORSDOF 7
