MODEL 1
REMARK VINA RESULT:    -7.049      0.000      0.000
REMARK INTER + INTRA:         -10.906
REMARK INTER:                  -9.934
REMARK INTRA:                  -0.971
REMARK UNBOUND:                -0.971
REMARK  7 active torsions:
REMARK  status: ('A' for Active; 'I' for Inactive)
REMARK    1  A    between atoms: S_2  and  N_5 
REMARK    2  A    between atoms: N_5  and  C_7 
REMARK    3  A    between atoms: C_9  and  C_10 
REMARK    4  A    between atoms: C_10  and  C_11 
REMARK    5  A    between atoms: C_12  and  C_13 
REMARK    6  A    between atoms: C_15  and  C_16 
REMARK       I    between atoms: C_16  and  N_18 
REMARK    7  A    between atoms: N_18  and  C_20 
ROOT
HETATM    1  C   UNL     1       7.762  -3.963  23.732  1.00  0.00     0.108 C 
HETATM    2  C   UNL     1       8.314  -2.882  23.246  1.00  0.00    -0.017 A 
HETATM    3  C   UNL     1       9.183  -2.008  23.381  1.00  0.00     0.082 A 
HETATM    4  C   UNL     1       8.821  -1.410  22.350  1.00  0.00     0.031 A 
ENDROOT
BRANCH   4   5
HETATM    5  C   UNL     1       8.389  -0.738  21.313  1.00  0.00     0.253 C 
HETATM    6  O   UNL     1       9.146  -0.132  20.736  1.00  0.00    -0.268 OA
HETATM    7  N   UNL     1       7.087  -0.850  21.143  1.00  0.00    -0.321 N 
ATOM      8  HN  UNL     1       6.534  -1.355  21.835  1.00  0.00     0.169 HD
BRANCH   7   9
HETATM    9  C   UNL     1       6.523  -0.356  20.164  1.00  0.00     0.060 A 
HETATM   10  C   UNL     1       6.197  -0.640  18.957  1.00  0.00     0.117 A 
HETATM   11  N   UNL     1       5.718  -0.356  17.852  1.00  0.00    -0.373 N 
HETATM   12  C   UNL     1       5.349   0.841  18.048  1.00  0.00     0.088 A 
ATOM     13  HN  UNL     1       5.640  -0.930  17.011  1.00  0.00     0.164 HD
HETATM   14  C   UNL     1       5.471   1.554  19.194  1.00  0.00     0.030 A 
HETATM   15  C   UNL     1       5.980   1.223  20.332  1.00  0.00    -0.016 A 
HETATM   16  C   UNL     1       6.099   1.956  21.514  1.00  0.00     0.026 C 
ENDBRANCH   7   9
ENDBRANCH   4   5
BRANCH   3  17
HETATM   17  C   UNL     1       9.582  -0.997  24.579  1.00  0.00    -0.012 C 
BRANCH  17  18
HETATM   18  C   UNL     1       9.818   0.039  24.515  1.00  0.00    -0.003 C 
HETATM   19  C   UNL     1      11.069   0.701  24.402  1.00  0.00    -0.001 C 
BRANCH  19  20
HETATM   20  C   UNL     1      12.162  -0.341  24.395  1.00  0.00    -0.010 C 
HETATM   21  C   UNL     1      13.125  -0.314  24.178  1.00  0.00     0.011 C 
ENDBRANCH  19  20
ENDBRANCH  17  18
ENDBRANCH   3  17
BRANCH   1  22
HETATM   22  N   UNL     1       6.845  -4.671  23.993  1.00  0.00    -0.295 N 
ATOM     23  HN  UNL     1       6.709  -4.896  24.979  1.00  0.00     0.177 HD
BRANCH  22  24
HETATM   24  S   UNL     1       5.789  -5.318  22.956  1.00  0.00     0.226 S 
HETATM   25  C   UNL     1       6.739  -6.006  21.685  1.00  0.00     0.186 C 
HETATM   26  O   UNL     1       5.028  -6.384  23.546  1.00  0.00    -0.206 OA
HETATM   27  O   UNL     1       4.920  -4.328  22.388  1.00  0.00    -0.206 OA
ENDBRANCH  22  24
ENDBRANCH   1  22
TORSDOF 7
ENDMDL
MODEL 2
REMARK VINA RESULT:    -6.947      2.023      2.268
REMARK INTER + INTRA:         -10.762
REMARK INTER:                  -9.746
REMARK INTRA:                  -1.015
REMARK UNBOUND:                -0.971
REMARK  7 active torsions:
REMARK  status: ('A' for Active; 'I' for Inactive)
REMARK    1  A    between atoms: S_2  and  N_5 
REMARK    2  A    between atoms: N_5  and  C_7 
REMARK    3  A    between atoms: C_9  and  C_10 
REMARK    4  A    between atoms: C_10  and  C_11 
REMARK    5  A    between atoms: C_12  and  C_13 
REMARK    6  A    between atoms: C_15  and  C_16 
REMARK       I    between atoms: C_16  and  N_18 
REMARK    7  A    between atoms: N_18  and  C_20 
ROOT
HETATM    1  C   UNL     1       8.603  -3.150  24.117  1.00  0.00     0.108 C 
HETATM    2  C   UNL     1       9.073  -2.355  23.191  1.00  0.00    -0.017 A 
HETATM    3  C   UNL     1      10.077  -1.888  22.634  1.00  0.00     0.082 A 
HETATM    4  C   UNL     1       9.392  -1.173  21.878  1.00  0.00     0.031 A 
ENDROOT
BRANCH   4   5
HETATM    5  C   UNL     1       8.677  -0.363  21.139  1.00  0.00     0.253 C 
HETATM    6  O   UNL     1       9.212   0.503  20.651  1.00  0.00    -0.268 OA
HETATM    7  N   UNL     1       7.397  -0.679  21.132  1.00  0.00    -0.321 N 
ATOM      8  HN  UNL     1       7.067  -1.437  21.730  1.00  0.00     0.169 HD
BRANCH   7   9
HETATM    9  C   UNL     1       6.592  -0.077  20.420  1.00  0.00     0.060 A 
HETATM   10  C   UNL     1       6.004  -0.174  19.284  1.00  0.00     0.117 A 
HETATM   11  N   UNL     1       5.262   0.252  18.390  1.00  0.00    -0.373 N 
HETATM   12  C   UNL     1       4.887   1.354  18.892  1.00  0.00     0.088 A 
ATOM     13  HN  UNL     1       5.017  -0.169  17.493  1.00  0.00     0.164 HD
HETATM   14  C   UNL     1       5.239   1.862  20.098  1.00  0.00     0.030 A 
HETATM   15  C   UNL     1       6.020   1.387  21.007  1.00  0.00    -0.016 A 
HETATM   16  C   UNL     1       6.377   1.908  22.252  1.00  0.00     0.026 C 
ENDBRANCH   7   9
ENDBRANCH   4   5
BRANCH   3  17
HETATM   17  C   UNL     1      11.408  -1.138  23.163  1.00  0.00    -0.012 C 
BRANCH  17  18
HETATM   18  C   UNL     1      11.630  -0.811  24.152  1.00  0.00    -0.003 C 
HETATM   19  C   UNL     1      11.638   0.491  24.719  1.00  0.00    -0.001 C 
BRANCH  19  20
HETATM   20  C   UNL     1      11.268   1.483  23.643  1.00  0.00    -0.010 C 
HETATM   21  C   UNL     1      10.781   2.343  23.650  1.00  0.00     0.011 C 
ENDBRANCH  19  20
ENDBRANCH  17  18
ENDBRANCH   3  17
BRANCH   1  22
HETATM   22  N   UNL     1       7.852  -3.455  24.985  1.00  0.00    -0.295 N 
ATOM     23  HN  UNL     1       7.094  -2.802  25.182  1.00  0.00     0.177 HD
BRANCH  22  24
HETATM   24  S   UNL     1       7.902  -4.794  25.887  1.00  0.00     0.226 S 
HETATM   25  C   UNL     1       6.357  -5.546  25.700  1.00  0.00     0.186 C 
HETATM   26  O   UNL     1       8.891  -5.727  25.423  1.00  0.00    -0.206 OA
HETATM   27  O   UNL     1       8.097  -4.497  27.277  1.00  0.00    -0.206 OA
ENDBRANCH  22  24
ENDBRANCH   1  22
TORSDOF 7
ENDMDL
MODEL 3
REMARK VINA RESULT:    -6.614      4.355      6.166
REMARK INTER + INTRA:         -10.293
REMARK INTER:                  -9.259
REMARK INTRA:                  -1.033
REMARK UNBOUND:                -0.971
REMARK  7 active torsions:
REMARK  status: ('A' for Active; 'I' for Inactive)
REMARK    1  A    between atoms: S_2  and  N_5 
REMARK    2  A    between atoms: N_5  and  C_7 
REMARK    3  A    between atoms: C_9  and  C_10 
REMARK    4  A    between atoms: C_10  and  C_11 
REMARK    5  A    between atoms: C_12  and  C_13 
REMARK    6  A    between atoms: C_15  and  C_16 
REMARK       I    between atoms: C_16  and  N_18 
REMARK    7  A    between atoms: N_18  and  C_20 
ROOT
HETATM    1  C   UNL     1       8.706   3.990  25.154  1.00  0.00     0.108 C 
HETATM    2  C   UNL     1       8.616   2.882  24.465  1.00  0.00    -0.017 A 
HETATM    3  C   UNL     1       8.726   1.647  24.465  1.00  0.00     0.082 A 
HETATM    4  C   UNL     1       8.440   1.568  23.255  1.00  0.00     0.031 A 
ENDROOT
BRANCH   4   5
HETATM    5  C   UNL     1       8.221   1.491  21.967  1.00  0.00     0.253 C 
HETATM    6  O   UNL     1       9.054   1.818  21.278  1.00  0.00    -0.268 OA
HETATM    7  N   UNL     1       7.003   1.076  21.683  1.00  0.00    -0.321 N 
ATOM      8  HN  UNL     1       6.336   0.930  22.441  1.00  0.00     0.169 HD
BRANCH   7   9
HETATM    9  C   UNL     1       6.653   0.860  20.522  1.00  0.00     0.060 A 
HETATM   10  C   UNL     1       7.005   0.190  19.486  1.00  0.00     0.117 A 
HETATM   11  N   UNL     1       6.883  -0.149  18.302  1.00  0.00    -0.373 N 
HETATM   12  C   UNL     1       5.856   0.515  17.965  1.00  0.00     0.088 A 
ATOM     13  HN  UNL     1       7.452  -0.789  17.747  1.00  0.00     0.164 HD
HETATM   14  C   UNL     1       5.130   1.347  18.750  1.00  0.00     0.030 A 
HETATM   15  C   UNL     1       5.290   1.678  19.986  1.00  0.00    -0.016 A 
HETATM   16  C   UNL     1       4.538   2.532  20.796  1.00  0.00     0.026 C 
ENDBRANCH   7   9
ENDBRANCH   4   5
BRANCH   3  17
HETATM   17  C   UNL     1       9.901   0.624  24.897  1.00  0.00    -0.012 C 
BRANCH  17  18
HETATM   18  C   UNL     1      10.943   0.821  24.993  1.00  0.00    -0.003 C 
HETATM   19  C   UNL     1      12.064   0.221  24.362  1.00  0.00    -0.001 C 
BRANCH  19  20
HETATM   20  C   UNL     1      11.567  -0.865  23.438  1.00  0.00    -0.010 C 
HETATM   21  C   UNL     1      12.017  -1.583  22.929  1.00  0.00     0.011 C 
ENDBRANCH  19  20
ENDBRANCH  17  18
ENDBRANCH   3  17
BRANCH   1  22
HETATM   22  N   UNL     1       8.990   5.133  25.310  1.00  0.00    -0.295 N 
ATOM     23  HN  UNL     1       9.029   5.465  26.274  1.00  0.00     0.177 HD
BRANCH  22  24
HETATM   24  S   UNL     1       9.321   6.218  24.161  1.00  0.00     0.226 S 
HETATM   25  C   UNL     1       8.039   6.089  23.008  1.00  0.00     0.186 C 
HETATM   26  O   UNL     1       9.311   7.564  24.663  1.00  0.00    -0.206 OA
HETATM   27  O   UNL     1      10.560   5.933  23.496  1.00  0.00    -0.206 OA
ENDBRANCH  22  24
ENDBRANCH   1  22
TORSDOF 7
ENDMDL
MODEL 4
REMARK VINA RESULT:    -6.596     14.349     16.372
REMARK INTER + INTRA:         -10.267
REMARK INTER:                  -9.069
REMARK INTRA:                  -1.199
REMARK UNBOUND:                -0.971
REMARK  7 active torsions:
REMARK  status: ('A' for Active; 'I' for Inactive)
REMARK    1  A    between atoms: S_2  and  N_5 
REMARK    2  A    between atoms: N_5  and  C_7 
REMARK    3  A    between atoms: C_9  and  C_10 
REMARK    4  A    between atoms: C_10  and  C_11 
REMARK    5  A    between atoms: C_12  and  C_13 
REMARK    6  A    between atoms: C_15  and  C_16 
REMARK       I    between atoms: C_16  and  N_18 
REMARK    7  A    between atoms: N_18  and  C_20 
ROOT
HETATM    1  C   UNL     1      24.800  -4.602  23.675  1.00  0.00     0.108 C 
HETATM    2  C   UNL     1      24.532  -3.428  23.164  1.00  0.00    -0.017 A 
HETATM    3  C   UNL     1      24.502  -2.202  23.338  1.00  0.00     0.082 A 
HETATM    4  C   UNL     1      24.045  -1.995  22.198  1.00  0.00     0.031 A 
ENDROOT
BRANCH   4   5
HETATM    5  C   UNL     1      23.489  -1.785  21.032  1.00  0.00     0.253 C 
HETATM    6  O   UNL     1      22.362  -1.827  20.979  1.00  0.00    -0.268 OA
HETATM    7  N   UNL     1      24.375  -1.602  20.073  1.00  0.00    -0.321 N 
ATOM      8  HN  UNL     1      25.367  -1.710  20.283  1.00  0.00     0.169 HD
BRANCH   7   9
HETATM    9  C   UNL     1      24.029  -1.302  18.929  1.00  0.00     0.060 A 
HETATM   10  C   UNL     1      23.620  -0.297  18.245  1.00  0.00     0.117 A 
HETATM   11  N   UNL     1      23.203   0.229  17.206  1.00  0.00    -0.373 N 
HETATM   12  C   UNL     1      23.208  -0.762  16.414  1.00  0.00     0.088 A 
ATOM     13  HN  UNL     1      22.930   1.197  17.032  1.00  0.00     0.164 HD
HETATM   14  C   UNL     1      23.591  -2.030  16.699  1.00  0.00     0.030 A 
HETATM   15  C   UNL     1      24.022  -2.544  17.800  1.00  0.00    -0.016 A 
HETATM   16  C   UNL     1      24.422  -3.849  18.091  1.00  0.00     0.026 C 
ENDBRANCH   7   9
ENDBRANCH   4   5
BRANCH   3  17
HETATM   17  C   UNL     1      23.837  -1.243  24.458  1.00  0.00    -0.012 C 
BRANCH  17  18
HETATM   18  C   UNL     1      23.286  -0.344  24.312  1.00  0.00    -0.003 C 
HETATM   19  C   UNL     1      21.928  -0.032  24.586  1.00  0.00    -0.001 C 
BRANCH  19  20
HETATM   20  C   UNL     1      21.264  -1.258  25.166  1.00  0.00    -0.010 C 
HETATM   21  C   UNL     1      20.322  -1.527  25.287  1.00  0.00     0.011 C 
ENDBRANCH  19  20
ENDBRANCH  17  18
ENDBRANCH   3  17
BRANCH   1  22
HETATM   22  N   UNL     1      24.603  -5.758  23.861  1.00  0.00    -0.295 N 
ATOM     23  HN  UNL     1      24.724  -6.376  23.059  1.00  0.00     0.177 HD
BRANCH  22  24
HETATM   24  S   UNL     1      24.162  -6.458  25.249  1.00  0.00     0.226 S 
HETATM   25  C   UNL     1      25.610  -6.609  26.181  1.00  0.00     0.186 C 
HETATM   26  O   UNL     1      23.250  -5.643  26.004  1.00  0.00    -0.206 OA
HETATM   27  O   UNL     1      23.618  -7.768  25.039  1.00  0.00    -0.206 OA
ENDBRANCH  22  24
ENDBRANCH   1  22
TORSDOF 7
ENDMDL
MODEL 5
REMARK VINA RESULT:    -6.513      2.926      6.411
REMARK INTER + INTRA:         -10.150
REMARK INTER:                  -9.196
REMARK INTRA:                  -0.953
REMARK UNBOUND:                -0.971
REMARK  7 active torsions:
REMARK  status: ('A' for Active; 'I' for Inactive)
REMARK    1  A    between atoms: S_2  and  N_5 
REMARK    2  A    between atoms: N_5  and  C_7 
REMARK    3  A    between atoms: C_9  and  C_10 
REMARK    4  A    between atoms: C_10  and  C_11 
REMARK    5  A    between atoms: C_12  and  C_13 
REMARK    6  A    between atoms: C_15  and  C_16 
REMARK       I    between atoms: C_16  and  N_18 
REMARK    7  A    between atoms: N_18  and  C_20 
ROOT
HETATM    1  C   UNL     1       6.743  -0.929  21.455  1.00  0.00     0.108 C 
HETATM    2  C   UNL     1       7.142  -1.332  22.633  1.00  0.00    -0.017 A 
HETATM    3  C   UNL     1       8.060  -1.361  23.465  1.00  0.00     0.082 A 
HETATM    4  C   UNL     1       7.393  -2.052  24.258  1.00  0.00     0.031 A 
ENDROOT
BRANCH   4   5
HETATM    5  C   UNL     1       6.723  -2.846  25.055  1.00  0.00     0.253 C 
HETATM    6  O   UNL     1       6.108  -2.364  25.870  1.00  0.00    -0.268 OA
HETATM    7  N   UNL     1       6.928  -4.121  24.792  1.00  0.00    -0.321 N 
ATOM      8  HN  UNL     1       7.613  -4.380  24.082  1.00  0.00     0.169 HD
BRANCH   7   9
HETATM    9  C   UNL     1       6.310  -5.006  25.385  1.00  0.00     0.060 A 
HETATM   10  C   UNL     1       6.355  -5.697  26.464  1.00  0.00     0.117 A 
HETATM   11  N   UNL     1       5.940  -6.586  27.219  1.00  0.00    -0.373 N 
HETATM   12  C   UNL     1       4.936  -7.006  26.569  1.00  0.00     0.088 A 
ATOM     13  HN  UNL     1       6.306  -6.897  28.119  1.00  0.00     0.164 HD
HETATM   14  C   UNL     1       4.488  -6.548  25.375  1.00  0.00     0.030 A 
HETATM   15  C   UNL     1       4.949  -5.615  24.614  1.00  0.00    -0.016 A 
HETATM   16  C   UNL     1       4.484  -5.139  23.387  1.00  0.00     0.026 C 
ENDBRANCH   7   9
ENDBRANCH   4   5
BRANCH   3  17
HETATM   17  C   UNL     1       9.614  -1.804  23.408  1.00  0.00    -0.012 C 
BRANCH  17  18
HETATM   18  C   UNL     1      10.292  -1.721  22.591  1.00  0.00    -0.003 C 
HETATM   19  C   UNL     1      11.640  -1.278  22.544  1.00  0.00    -0.001 C 
BRANCH  19  20
HETATM   20  C   UNL     1      12.059  -0.874  23.938  1.00  0.00    -0.010 C 
HETATM   21  C   UNL     1      12.469  -0.059  24.315  1.00  0.00     0.011 C 
ENDBRANCH  19  20
ENDBRANCH  17  18
ENDBRANCH   3  17
BRANCH   1  22
HETATM   22  N   UNL     1       6.175  -1.049  20.418  1.00  0.00    -0.295 N 
ATOM     23  HN  UNL     1       5.534  -1.838  20.339  1.00  0.00     0.177 HD
BRANCH  22  24
HETATM   24  S   UNL     1       6.310  -0.097  19.120  1.00  0.00     0.226 S 
HETATM   25  C   UNL     1       5.304   1.273  19.434  1.00  0.00     0.186 C 
HETATM   26  O   UNL     1       7.650   0.389  18.938  1.00  0.00    -0.206 OA
HETATM   27  O   UNL     1       5.839  -0.744  17.930  1.00  0.00    -0.206 OA
ENDBRANCH  22  24
ENDBRANCH   1  22
TORSDOF 7
ENDMDL
MODEL 6
REMARK VINA RESULT:    -6.326      2.847      4.970
REMARK INTER + INTRA:          -9.886
REMARK INTER:                  -8.490
REMARK INTRA:                  -1.395
REMARK UNBOUND:                -0.971
REMARK  7 active torsions:
REMARK  status: ('A' for Active; 'I' for Inactive)
REMARK    1  A    between atoms: S_2  and  N_5 
REMARK    2  A    between atoms: N_5  and  C_7 
REMARK    3  A    between atoms: C_9  and  C_10 
REMARK    4  A    between atoms: C_10  and  C_11 
REMARK    5  A    between atoms: C_12  and  C_13 
REMARK    6  A    between atoms: C_15  and  C_16 
REMARK       I    between atoms: C_16  and  N_18 
REMARK    7  A    between atoms: N_18  and  C_20 
ROOT
HETATM    1  C   UNL     1       5.936  -5.863  23.033  1.00  0.00     0.108 C 
HETATM    2  C   UNL     1       6.956  -5.188  23.497  1.00  0.00    -0.017 A 
HETATM    3  C   UNL     1       7.968  -5.196  24.211  1.00  0.00     0.082 A 
HETATM    4  C   UNL     1       8.210  -3.997  23.978  1.00  0.00     0.031 A 
ENDROOT
BRANCH   4   5
HETATM    5  C   UNL     1       8.418  -2.717  23.799  1.00  0.00     0.253 C 
HETATM    6  O   UNL     1       8.062  -2.015  24.608  1.00  0.00    -0.268 OA
HETATM    7  N   UNL     1       8.984  -2.452  22.639  1.00  0.00    -0.321 N 
ATOM      8  HN  UNL     1       9.136  -3.210  21.973  1.00  0.00     0.169 HD
BRANCH   7   9
HETATM    9  C   UNL     1       9.333  -1.309  22.341  1.00  0.00     0.060 A 
HETATM   10  C   UNL     1      10.327  -0.508  22.468  1.00  0.00     0.117 A 
HETATM   11  N   UNL     1      10.880   0.589  22.324  1.00  0.00    -0.373 N 
HETATM   12  C   UNL     1       9.975   1.239  21.718  1.00  0.00     0.088 A 
ATOM     13  HN  UNL     1      11.811   0.890  22.614  1.00  0.00     0.164 HD
HETATM   14  C   UNL     1       8.754   0.783  21.349  1.00  0.00     0.030 A 
HETATM   15  C   UNL     1       8.209  -0.373  21.517  1.00  0.00    -0.016 A 
HETATM   16  C   UNL     1       6.953  -0.844  21.131  1.00  0.00     0.026 C 
ENDBRANCH   7   9
ENDBRANCH   4   5
BRANCH   3  17
HETATM   17  C   UNL     1       8.253  -5.601  25.751  1.00  0.00    -0.012 C 
BRANCH  17  18
HETATM   18  C   UNL     1       8.033  -5.042  26.630  1.00  0.00    -0.003 C 
HETATM   19  C   UNL     1       6.913  -5.085  27.502  1.00  0.00    -0.001 C 
BRANCH  19  20
HETATM   20  C   UNL     1       5.944  -6.122  26.985  1.00  0.00    -0.010 C 
HETATM   21  C   UNL     1       5.254  -6.681  27.415  1.00  0.00     0.011 C 
ENDBRANCH  19  20
ENDBRANCH  17  18
ENDBRANCH   3  17
BRANCH   1  22
HETATM   22  N   UNL     1       4.802  -5.998  22.707  1.00  0.00    -0.295 N 
ATOM     23  HN  UNL     1       4.637  -6.302  21.748  1.00  0.00     0.177 HD
BRANCH  22  24
HETATM   24  S   UNL     1       3.493  -5.753  23.620  1.00  0.00     0.226 S 
HETATM   25  C   UNL     1       3.201  -7.249  24.437  1.00  0.00     0.186 C 
HETATM   26  O   UNL     1       3.711  -4.752  24.627  1.00  0.00    -0.206 OA
HETATM   27  O   UNL     1       2.339  -5.435  22.829  1.00  0.00    -0.206 OA
ENDBRANCH  22  24
ENDBRANCH   1  22
TORSDOF 7
ENDMDL
MODEL 7
REMARK VINA RESULT:    -6.293      2.495      3.406
REMARK INTER + INTRA:          -9.840
REMARK INTER:                  -8.584
REMARK INTRA:                  -1.255
REMARK UNBOUND:                -0.971
REMARK  7 active torsions:
REMARK  status: ('A' for Active; 'I' for Inactive)
REMARK    1  A    between atoms: S_2  and  N_5 
REMARK    2  A    between atoms: N_5  and  C_7 
REMARK    3  A    between atoms: C_9  and  C_10 
REMARK    4  A    between atoms: C_10  and  C_11 
REMARK    5  A    between atoms: C_12  and  C_13 
REMARK    6  A    between atoms: C_15  and  C_16 
REMARK       I    between atoms: C_16  and  N_18 
REMARK    7  A    between atoms: N_18  and  C_20 
ROOT
HETATM    1  C   UNL     1       6.686  -2.477  22.456  1.00  0.00     0.108 C 
HETATM    2  C   UNL     1       7.601  -1.544  22.482  1.00  0.00    -0.017 A 
HETATM    3  C   UNL     1       8.753  -1.228  22.814  1.00  0.00     0.082 A 
HETATM    4  C   UNL     1       8.612  -0.063  22.396  1.00  0.00     0.031 A 
ENDROOT
BRANCH   4   5
HETATM    5  C   UNL     1       8.437   1.182  22.032  1.00  0.00     0.253 C 
HETATM    6  O   UNL     1       8.793   1.477  21.002  1.00  0.00    -0.268 OA
HETATM    7  N   UNL     1       7.900   1.919  22.984  1.00  0.00    -0.321 N 
ATOM      8  HN  UNL     1       7.744   1.508  23.905  1.00  0.00     0.169 HD
BRANCH   7   9
HETATM    9  C   UNL     1       7.582   3.093  22.785  1.00  0.00     0.060 A 
HETATM   10  C   UNL     1       6.671   3.793  22.217  1.00  0.00     0.117 A 
HETATM   11  N   UNL     1       6.173   4.869  21.860  1.00  0.00    -0.373 N 
HETATM   12  C   UNL     1       7.015   5.693  22.328  1.00  0.00     0.088 A 
ATOM     13  HN  UNL     1       5.317   5.045  21.333  1.00  0.00     0.164 HD
HETATM   14  C   UNL     1       8.136   5.401  23.032  1.00  0.00     0.030 A 
HETATM   15  C   UNL     1       8.626   4.262  23.386  1.00  0.00    -0.016 A 
HETATM   16  C   UNL     1       9.777   3.963  24.116  1.00  0.00     0.026 C 
ENDBRANCH   7   9
ENDBRANCH   4   5
BRANCH   3  17
HETATM   17  C   UNL     1       9.581  -1.296  24.201  1.00  0.00    -0.012 C 
BRANCH  17  18
HETATM   18  C   UNL     1       9.741  -0.519  24.911  1.00  0.00    -0.003 C 
HETATM   19  C   UNL     1      10.877   0.295  25.158  1.00  0.00    -0.001 C 
BRANCH  19  20
HETATM   20  C   UNL     1      11.973  -0.112  24.202  1.00  0.00    -0.010 C 
HETATM   21  C   UNL     1      12.959  -0.095  24.252  1.00  0.00     0.011 C 
ENDBRANCH  19  20
ENDBRANCH  17  18
ENDBRANCH   3  17
BRANCH   1  22
HETATM   22  N   UNL     1       5.575  -2.890  22.544  1.00  0.00    -0.295 N 
ATOM     23  HN  UNL     1       4.826  -2.219  22.377  1.00  0.00     0.177 HD
BRANCH  22  24
HETATM   24  S   UNL     1       5.125  -4.399  22.901  1.00  0.00     0.226 S 
HETATM   25  C   UNL     1       6.233  -4.948  24.109  1.00  0.00     0.186 C 
HETATM   26  O   UNL     1       3.807  -4.453  23.473  1.00  0.00    -0.206 OA
HETATM   27  O   UNL     1       5.222  -5.270  21.766  1.00  0.00    -0.206 OA
ENDBRANCH  22  24
ENDBRANCH   1  22
TORSDOF 7
ENDMDL
MODEL 8
REMARK VINA RESULT:    -6.272     21.900     25.507
REMARK INTER + INTRA:          -9.810
REMARK INTER:                  -8.835
REMARK INTRA:                  -0.975
REMARK UNBOUND:                -0.971
REMARK  7 active torsions:
REMARK  status: ('A' for Active; 'I' for Inactive)
REMARK    1  A    between atoms: S_2  and  N_5 
REMARK    2  A    between atoms: N_5  and  C_7 
REMARK    3  A    between atoms: C_9  and  C_10 
REMARK    4  A    between atoms: C_10  and  C_11 
REMARK    5  A    between atoms: C_12  and  C_13 
REMARK    6  A    between atoms: C_15  and  C_16 
REMARK       I    between atoms: C_16  and  N_18 
REMARK    7  A    between atoms: N_18  and  C_20 
ROOT
HETATM    1  C   UNL     1      11.007  16.102   4.514  1.00  0.00     0.108 C 
HETATM    2  C   UNL     1      10.248  15.274   3.844  1.00  0.00    -0.017 A 
HETATM    3  C   UNL     1       9.873  14.878   2.731  1.00  0.00     0.082 A 
HETATM    4  C   UNL     1       9.084  14.053   3.229  1.00  0.00     0.031 A 
ENDROOT
BRANCH   4   5
HETATM    5  C   UNL     1       8.197  13.245   3.751  1.00  0.00     0.253 C 
HETATM    6  O   UNL     1       7.558  13.648   4.590  1.00  0.00    -0.268 OA
HETATM    7  N   UNL     1       8.236  12.038   3.222  1.00  0.00    -0.321 N 
ATOM      8  HN  UNL     1       8.963  11.814   2.543  1.00  0.00     0.169 HD
BRANCH   7   9
HETATM    9  C   UNL     1       7.413  11.175   3.531  1.00  0.00     0.060 A 
HETATM   10  C   UNL     1       7.078  10.429   4.520  1.00  0.00     0.117 A 
HETATM   11  N   UNL     1       6.397   9.539   5.044  1.00  0.00    -0.373 N 
HETATM   12  C   UNL     1       5.623   9.232   4.088  1.00  0.00     0.088 A 
ATOM     13  HN  UNL     1       6.445   9.156   5.989  1.00  0.00     0.164 HD
HETATM   14  C   UNL     1       5.598   9.783   2.851  1.00  0.00     0.030 A 
HETATM   15  C   UNL     1       6.328  10.714   2.337  1.00  0.00    -0.016 A 
HETATM   16  C   UNL     1       6.297  11.285   1.064  1.00  0.00     0.026 C 
ENDBRANCH   7   9
ENDBRANCH   4   5
BRANCH   3  17
HETATM   17  C   UNL     1       9.265  15.611   1.424  1.00  0.00    -0.012 C 
BRANCH  17  18
HETATM   18  C   UNL     1       8.346  16.141   1.334  1.00  0.00    -0.003 C 
HETATM   19  C   UNL     1       8.085  17.503   1.029  1.00  0.00    -0.001 C 
BRANCH  19  20
HETATM   20  C   UNL     1       9.405  18.210   0.832  1.00  0.00    -0.010 C 
HETATM   21  C   UNL     1       9.679  19.158   0.865  1.00  0.00     0.011 C 
ENDBRANCH  19  20
ENDBRANCH  17  18
ENDBRANCH   3  17
BRANCH   1  22
HETATM   22  N   UNL     1      11.250  16.847   5.407  1.00  0.00    -0.295 N 
ATOM     23  HN  UNL     1      11.308  16.437   6.339  1.00  0.00     0.177 HD
BRANCH  22  24
HETATM   24  S   UNL     1      11.498  18.439   5.304  1.00  0.00     0.226 S 
HETATM   25  C   UNL     1      11.514  19.020   6.933  1.00  0.00     0.186 C 
HETATM   26  O   UNL     1      12.775  18.755   4.725  1.00  0.00    -0.206 OA
HETATM   27  O   UNL     1      10.442  19.102   4.596  1.00  0.00    -0.206 OA
ENDBRANCH  22  24
ENDBRANCH   1  22
TORSDOF 7
ENDMDL
MODEL 9
REMARK VINA RESULT:    -6.122     22.814     25.705
REMARK INTER + INTRA:          -9.599
REMARK INTER:                  -8.607
REMARK INTRA:                  -0.992
REMARK UNBOUND:                -0.971
REMARK  7 active torsions:
REMARK  status: ('A' for Active; 'I' for Inactive)
REMARK    1  A    between atoms: S_2  and  N_5 
REMARK    2  A    between atoms: N_5  and  C_7 
REMARK    3  A    between atoms: C_9  and  C_10 
REMARK    4  A    between atoms: C_10  and  C_11 
REMARK    5  A    between atoms: C_12  and  C_13 
REMARK    6  A    between atoms: C_15  and  C_16 
REMARK       I    between atoms: C_16  and  N_18 
REMARK    7  A    between atoms: N_18  and  C_20 
ROOT
HETATM    1  C   UNL     1      10.159  15.404   3.880  1.00  0.00     0.108 C 
HETATM    2  C   UNL     1       9.337  15.262   2.873  1.00  0.00    -0.017 A 
HETATM    3  C   UNL     1       8.812  15.784   1.880  1.00  0.00     0.082 A 
HETATM    4  C   UNL     1       8.138  14.765   1.633  1.00  0.00     0.031 A 
ENDROOT
BRANCH   4   5
HETATM    5  C   UNL     1       7.370  13.726   1.422  1.00  0.00     0.253 C 
HETATM    6  O   UNL     1       7.490  13.184   0.439  1.00  0.00    -0.268 OA
HETATM    7  N   UNL     1       6.523  13.512   2.408  1.00  0.00    -0.321 N 
ATOM      8  HN  UNL     1       6.476  14.178   3.179  1.00  0.00     0.169 HD
BRANCH   7   9
HETATM    9  C   UNL     1       5.786  12.525   2.418  1.00  0.00     0.060 A 
HETATM   10  C   UNL     1       4.658  12.122   1.960  1.00  0.00     0.117 A 
HETATM   11  N   UNL     1       3.748  11.290   1.853  1.00  0.00    -0.373 N 
HETATM   12  C   UNL     1       4.200  10.344   2.567  1.00  0.00     0.088 A 
ATOM     13  HN  UNL     1       2.872  11.348   1.333  1.00  0.00     0.164 HD
HETATM   14  C   UNL     1       5.381  10.318   3.232  1.00  0.00     0.030 A 
HETATM   15  C   UNL     1       6.308  11.210   3.321  1.00  0.00    -0.016 A 
HETATM   16  C   UNL     1       7.527  11.180   4.001  1.00  0.00     0.026 C 
ENDBRANCH   7   9
ENDBRANCH   4   5
BRANCH   3  17
HETATM   17  C   UNL     1       7.985  17.152   1.635  1.00  0.00    -0.012 C 
BRANCH  17  18
HETATM   18  C   UNL     1       7.796  17.651   0.713  1.00  0.00    -0.003 C 
HETATM   19  C   UNL     1       8.473  18.730   0.086  1.00  0.00    -0.001 C 
BRANCH  19  20
HETATM   20  C   UNL     1       9.618  19.156   0.974  1.00  0.00    -0.010 C 
HETATM   21  C   UNL     1      10.067  20.021   1.136  1.00  0.00     0.011 C 
ENDBRANCH  19  20
ENDBRANCH  17  18
ENDBRANCH   3  17
BRANCH   1  22
HETATM   22  N   UNL     1      10.509  15.255   5.005  1.00  0.00    -0.295 N 
ATOM     23  HN  UNL     1      11.204  14.528   5.174  1.00  0.00     0.177 HD
BRANCH  22  24
HETATM   24  S   UNL     1      10.003  16.080   6.298  1.00  0.00     0.226 S 
HETATM   25  C   UNL     1       8.308  16.329   6.064  1.00  0.00     0.186 C 
HETATM   26  O   UNL     1      10.162  15.335   7.517  1.00  0.00    -0.206 OA
HETATM   27  O   UNL     1      10.640  17.361   6.400  1.00  0.00    -0.206 OA
ENDBRANCH  22  24
ENDBRANCH   1  22
TORSDOF 7
ENDMDL
