MODEL 1
REMARK VINA RESULT:    -6.761      0.000      0.000
REMARK INTER + INTRA:          -6.761
REMARK INTER:                  -6.761
REMARK INTRA:                   0.000
REMARK UNBOUND:                 0.000
REMARK  0 active torsions:
REMARK  status: ('A' for Active; 'I' for Inactive)
ROOT
HETATM    1  N   UNL     1       9.555  -0.039  21.078  1.00  0.00    -0.351 N 
ATOM      2  HN  UNL     1       9.875  -0.375  20.171  1.00  0.00     0.166 HD
HETATM    3  H   UNL     1       5.810  -0.051  21.021  1.00  0.00     0.167 HD
HETATM    4  C   UNL     1      11.208  -1.419  23.300  1.00  0.00     0.017 C 
HETATM    5  C   UNL     1      11.619  -0.086  23.398  1.00  0.00     0.004 C 
HETATM    6  C   UNL     1      10.062  -1.824  22.911  1.00  0.00     0.088 C 
HETATM    7  C   UNL     1      10.879   0.896  22.935  1.00  0.00     0.032 C 
HETATM    8  N   UNL     1       6.555  -0.304  21.658  1.00  0.00    -0.348 N 
HETATM    9  N   UNL     1       5.735  -2.349  21.525  1.00  0.00    -0.349 N 
ATOM     10  HN  UNL     1       4.875  -1.864  21.270  1.00  0.00     0.167 HD
HETATM   11  C   UNL     1       6.536  -4.475  22.247  1.00  0.00     0.051 C 
HETATM   12  C   UNL     1       6.695  -1.709  21.893  1.00  0.00     0.132 C 
HETATM   13  C   UNL     1       7.244   0.638  22.075  1.00  0.00     0.121 C 
HETATM   14  C   UNL     1       8.573   0.284  21.866  1.00  0.00     0.075 A 
HETATM   15  C   UNL     1       7.945  -2.690  22.513  1.00  0.00     0.078 C 
HETATM   16  C   UNL     1       7.633  -3.890  22.901  1.00  0.00     0.058 C 
HETATM   17  C   UNL     1       5.786  -3.695  21.448  1.00  0.00     0.113 C 
HETATM   18  C   UNL     1       9.806   0.333  22.153  1.00  0.00     0.061 A 
HETATM   19  N   UNL     1       9.251  -2.608  22.642  1.00  0.00    -0.363 N 
ATOM     20  HN  UNL     1       9.683  -3.510  22.445  1.00  0.00     0.165 HD
HETATM   21 CL   UNL     1       6.397  -6.178  22.348  1.00  0.00    -0.083 Cl
ENDROOT
TORSDOF 0
ENDMDL
MODEL 2
REMARK VINA RESULT:    -6.585     25.561     27.242
REMARK INTER + INTRA:          -6.585
REMARK INTER:                  -6.585
REMARK INTRA:                   0.000
REMARK UNBOUND:                 0.000
REMARK  0 active torsions:
REMARK  status: ('A' for Active; 'I' for Inactive)
ROOT
HETATM    1  N   UNL     1      10.225  14.224   2.707  1.00  0.00    -0.351 N 
ATOM      2  HN  UNL     1      10.838  14.048   1.912  1.00  0.00     0.166 HD
HETATM    3  H   UNL     1      11.286  17.470   4.245  1.00  0.00     0.167 HD
HETATM    4  C   UNL     1       7.305  13.635   1.868  1.00  0.00     0.017 C 
HETATM    5  C   UNL     1       7.564  12.627   2.802  1.00  0.00     0.004 C 
HETATM    6  C   UNL     1       7.826  14.801   1.858  1.00  0.00     0.088 C 
HETATM    7  C   UNL     1       8.517  12.749   3.697  1.00  0.00     0.032 C 
HETATM    8  N   UNL     1      10.425  16.996   4.005  1.00  0.00    -0.348 N 
HETATM    9  N   UNL     1      10.064  18.707   2.659  1.00  0.00    -0.349 N 
ATOM     10  HN  UNL     1      10.693  19.194   3.298  1.00  0.00     0.167 HD
HETATM   11  C   UNL     1       8.468  19.117   0.936  1.00  0.00     0.051 C 
HETATM   12  C   UNL     1       9.693  17.586   2.925  1.00  0.00     0.132 C 
HETATM   13  C   UNL     1      10.186  15.963   4.647  1.00  0.00     0.121 C 
HETATM   14  C   UNL     1       9.893  14.972   3.716  1.00  0.00     0.075 A 
HETATM   15  C   UNL     1       8.460  17.033   1.885  1.00  0.00     0.078 C 
HETATM   16  C   UNL     1       7.784  17.925   1.224  1.00  0.00     0.058 C 
HETATM   17  C   UNL     1       9.658  19.323   1.529  1.00  0.00     0.113 C 
HETATM   18  C   UNL     1       9.317  13.900   3.361  1.00  0.00     0.061 A 
HETATM   19  N   UNL     1       8.019  15.871   1.457  1.00  0.00    -0.363 N 
ATOM     20  HN  UNL     1       7.769  15.929   0.470  1.00  0.00     0.165 HD
HETATM   21 CL   UNL     1       7.831  20.087  -0.322  1.00  0.00    -0.083 Cl
ENDROOT
TORSDOF 0
ENDMDL
MODEL 3
REMARK VINA RESULT:    -6.446      2.657      5.125
REMARK INTER + INTRA:          -6.446
REMARK INTER:                  -6.446
REMARK INTRA:                   0.000
REMARK UNBOUND:                 0.000
REMARK  0 active torsions:
REMARK  status: ('A' for Active; 'I' for Inactive)
ROOT
HETATM    1  N   UNL     1       7.864  -4.358  22.538  1.00  0.00    -0.351 N 
ATOM      2  HN  UNL     1       7.962  -4.971  21.729  1.00  0.00     0.166 HD
HETATM    3  H   UNL     1      10.318  -1.558  22.128  1.00  0.00     0.167 HD
HETATM    4  C   UNL     1       4.854  -3.891  23.082  1.00  0.00     0.017 C 
HETATM    5  C   UNL     1       5.253  -4.636  24.196  1.00  0.00     0.004 C 
HETATM    6  C   UNL     1       5.588  -3.089  22.412  1.00  0.00     0.088 C 
HETATM    7  C   UNL     1       6.511  -4.689  24.571  1.00  0.00     0.032 C 
HETATM    8  N   UNL     1       9.356  -1.681  22.418  1.00  0.00    -0.348 N 
HETATM    9  N   UNL     1       8.856  -0.387  20.702  1.00  0.00    -0.349 N 
ATOM     10  HN  UNL     1       9.813  -0.054  20.823  1.00  0.00     0.167 HD
HETATM   11  C   UNL     1       6.803   0.180  19.632  1.00  0.00     0.051 C 
HETATM   12  C   UNL     1       8.381  -1.144  21.517  1.00  0.00     0.132 C 
HETATM   13  C   UNL     1       9.192  -2.319  23.469  1.00  0.00     0.121 C 
HETATM   14  C   UNL     1       8.252  -3.307  23.194  1.00  0.00     0.075 A 
HETATM   15  C   UNL     1       6.709  -1.392  21.295  1.00  0.00     0.078 C 
HETATM   16  C   UNL     1       6.056  -0.506  20.603  1.00  0.00     0.058 C 
HETATM   17  C   UNL     1       8.139   0.025  19.636  1.00  0.00     0.113 C 
HETATM   18  C   UNL     1       7.324  -4.099  23.536  1.00  0.00     0.061 A 
HETATM   19  N   UNL     1       5.836  -2.337  21.566  1.00  0.00    -0.363 N 
ATOM     20  HN  UNL     1       5.175  -2.440  20.796  1.00  0.00     0.165 HD
HETATM   21 CL   UNL     1       5.921   0.963  18.392  1.00  0.00    -0.083 Cl
ENDROOT
TORSDOF 0
ENDMDL
MODEL 4
REMARK VINA RESULT:    -6.444      4.130      5.642
REMARK INTER + INTRA:          -6.444
REMARK INTER:                  -6.444
REMARK INTRA:                   0.000
REMARK UNBOUND:                 0.000
REMARK  0 active torsions:
REMARK  status: ('A' for Active; 'I' for Inactive)
ROOT
HETATM    1  N   UNL     1       9.014   3.749  23.085  1.00  0.00    -0.351 N 
ATOM      2  HN  UNL     1       8.903   3.617  22.080  1.00  0.00     0.166 HD
HETATM    3  H   UNL     1       7.767   0.645  24.769  1.00  0.00     0.167 HD
HETATM    4  C   UNL     1      11.810   4.954  23.635  1.00  0.00     0.017 C 
HETATM    5  C   UNL     1      10.952   5.998  23.995  1.00  0.00     0.004 C 
HETATM    6  C   UNL     1      11.547   3.707  23.706  1.00  0.00     0.088 C 
HETATM    7  C   UNL     1       9.696   5.776  24.310  1.00  0.00     0.032 C 
HETATM    8  N   UNL     1       8.546   1.286  24.852  1.00  0.00    -0.348 N 
HETATM    9  N   UNL     1       9.809  -0.466  24.400  1.00  0.00    -0.349 N 
ATOM     10  HN  UNL     1       9.012  -0.989  24.763  1.00  0.00     0.167 HD
HETATM   11  C   UNL     1      12.119  -0.714  23.862  1.00  0.00     0.051 C 
HETATM   12  C   UNL     1       9.817   0.742  24.481  1.00  0.00     0.132 C 
HETATM   13  C   UNL     1       8.254   2.438  25.204  1.00  0.00     0.121 C 
HETATM   14  C   UNL     1       8.856   3.300  24.293  1.00  0.00     0.075 A 
HETATM   15  C   UNL     1      11.322   1.424  24.058  1.00  0.00     0.078 C 
HETATM   16  C   UNL     1      12.364   0.649  24.093  1.00  0.00     0.058 C 
HETATM   17  C   UNL     1      10.839  -1.130  23.837  1.00  0.00     0.113 C 
HETATM   18  C   UNL     1       9.373   4.411  23.973  1.00  0.00     0.061 A 
HETATM   19  N   UNL     1      11.753   2.573  23.586  1.00  0.00    -0.363 N 
ATOM     20  HN  UNL     1      12.498   2.419  22.906  1.00  0.00     0.165 HD
HETATM   21 CL   UNL     1      13.460  -1.673  23.406  1.00  0.00    -0.083 Cl
ENDROOT
TORSDOF 0
ENDMDL
MODEL 5
REMARK VINA RESULT:    -6.283      4.401      6.073
REMARK INTER + INTRA:          -6.283
REMARK INTER:                  -6.283
REMARK INTRA:                   0.000
REMARK UNBOUND:                 0.000
REMARK  0 active torsions:
REMARK  status: ('A' for Active; 'I' for Inactive)
ROOT
HETATM    1  N   UNL     1       9.711  -0.492  23.728  1.00  0.00    -0.351 N 
ATOM      2  HN  UNL     1       9.266  -0.596  24.640  1.00  0.00     0.166 HD
HETATM    3  H   UNL     1       7.521   1.729  21.656  1.00  0.00     0.167 HD
HETATM    4  C   UNL     1      12.732   0.036  24.141  1.00  0.00     0.017 C 
HETATM    5  C   UNL     1      12.722  -1.231  23.548  1.00  0.00     0.004 C 
HETATM    6  C   UNL     1      11.868   0.957  23.958  1.00  0.00     0.088 C 
HETATM    7  C   UNL     1      11.698  -1.648  22.839  1.00  0.00     0.032 C 
HETATM    8  N   UNL     1       8.508   1.609  21.845  1.00  0.00    -0.348 N 
HETATM    9  N   UNL     1       8.428   3.666  22.639  1.00  0.00    -0.349 N 
ATOM     10  HN  UNL     1       7.618   3.748  22.025  1.00  0.00     0.167 HD
HETATM   11  C   UNL     1       9.966   4.992  23.888  1.00  0.00     0.051 C 
HETATM   12  C   UNL     1       9.112   2.669  22.594  1.00  0.00     0.132 C 
HETATM   13  C   UNL     1       9.002   0.544  21.445  1.00  0.00     0.121 C 
HETATM   14  C   UNL     1       9.687  -0.009  22.523  1.00  0.00     0.075 A 
HETATM   15  C   UNL     1      10.551   2.812  23.497  1.00  0.00     0.078 C 
HETATM   16  C   UNL     1      10.966   4.010  23.783  1.00  0.00     0.058 C 
HETATM   17  C   UNL     1       8.722   4.672  23.488  1.00  0.00     0.113 C 
HETATM   18  C   UNL     1      10.607  -0.723  23.020  1.00  0.00     0.061 A 
HETATM   19  N   UNL     1      11.381   1.998  24.111  1.00  0.00    -0.363 N 
ATOM     20  HN  UNL     1      11.693   2.409  24.991  1.00  0.00     0.165 HD
HETATM   21 CL   UNL     1      10.377   6.423  24.730  1.00  0.00    -0.083 Cl
ENDROOT
TORSDOF 0
ENDMDL
MODEL 6
REMARK VINA RESULT:    -6.283      2.325      4.871
REMARK INTER + INTRA:          -6.283
REMARK INTER:                  -6.283
REMARK INTRA:                   0.000
REMARK UNBOUND:                 0.000
REMARK  0 active torsions:
REMARK  status: ('A' for Active; 'I' for Inactive)
ROOT
HETATM    1  N   UNL     1       6.256  -1.591  22.831  1.00  0.00    -0.351 N 
ATOM      2  HN  UNL     1       6.035  -1.289  23.779  1.00  0.00     0.166 HD
HETATM    3  H   UNL     1       7.912   1.284  21.094  1.00  0.00     0.167 HD
HETATM    4  C   UNL     1       7.493  -4.426  22.945  1.00  0.00     0.017 C 
HETATM    5  C   UNL     1       6.270  -4.652  22.304  1.00  0.00     0.004 C 
HETATM    6  C   UNL     1       8.181  -3.352  22.892  1.00  0.00     0.088 C 
HETATM    7  C   UNL     1       5.628  -3.684  21.691  1.00  0.00     0.032 C 
HETATM    8  N   UNL     1       8.031   0.282  21.173  1.00  0.00    -0.348 N 
HETATM    9  N   UNL     1       9.996   0.761  22.055  1.00  0.00    -0.349 N 
ATOM     10  HN  UNL     1       9.889   1.632  21.534  1.00  0.00     0.167 HD
HETATM   11  C   UNL     1      11.636  -0.547  23.189  1.00  0.00     0.051 C 
HETATM   12  C   UNL     1       9.194  -0.132  21.898  1.00  0.00     0.132 C 
HETATM   13  C   UNL     1       7.123  -0.403  20.680  1.00  0.00     0.121 C 
HETATM   14  C   UNL     1       6.737  -1.317  21.656  1.00  0.00     0.075 A 
HETATM   15  C   UNL     1       9.669  -1.587  22.649  1.00  0.00     0.078 C 
HETATM   16  C   UNL     1      10.927  -1.733  22.938  1.00  0.00     0.058 C 
HETATM   17  C   UNL     1      11.031   0.622  22.910  1.00  0.00     0.113 C 
HETATM   18  C   UNL     1       6.259  -2.431  22.024  1.00  0.00     0.061 A 
HETATM   19  N   UNL     1       9.071  -2.651  23.137  1.00  0.00    -0.363 N 
ATOM     20  HN  UNL     1       9.531  -2.953  23.996  1.00  0.00     0.165 HD
HETATM   21 CL   UNL     1      13.112  -0.696  24.041  1.00  0.00    -0.083 Cl
ENDROOT
TORSDOF 0
ENDMDL
MODEL 7
REMARK VINA RESULT:    -6.169      2.635      3.610
REMARK INTER + INTRA:          -6.169
REMARK INTER:                  -6.169
REMARK INTRA:                   0.000
REMARK UNBOUND:                 0.000
REMARK  0 active torsions:
REMARK  status: ('A' for Active; 'I' for Inactive)
ROOT
HETATM    1  N   UNL     1       8.558  -0.151  24.240  1.00  0.00    -0.351 N 
ATOM      2  HN  UNL     1       7.979   0.598  24.618  1.00  0.00     0.166 HD
HETATM    3  H   UNL     1       6.256  -2.764  22.863  1.00  0.00     0.167 HD
HETATM    4  C   UNL     1      10.862   1.098  22.594  1.00  0.00     0.017 C 
HETATM    5  C   UNL     1      11.536   0.530  23.681  1.00  0.00     0.004 C 
HETATM    6  C   UNL     1       9.771   0.676  22.083  1.00  0.00     0.088 C 
HETATM    7  C   UNL     1      11.002  -0.438  24.389  1.00  0.00     0.032 C 
HETATM    8  N   UNL     1       7.118  -2.303  22.597  1.00  0.00    -0.348 N 
HETATM    9  N   UNL     1       5.983  -1.570  20.852  1.00  0.00    -0.349 N 
ATOM     10  HN  UNL     1       5.401  -2.389  21.032  1.00  0.00     0.167 HD
HETATM   11  C   UNL     1       6.447   0.059  19.175  1.00  0.00     0.051 C 
HETATM   12  C   UNL     1       7.007  -1.417  21.479  1.00  0.00     0.132 C 
HETATM   13  C   UNL     1       8.096  -2.544  23.320  1.00  0.00     0.121 C 
HETATM   14  C   UNL     1       8.646  -1.315  23.671  1.00  0.00     0.075 A 
HETATM   15  C   UNL     1       7.968  -0.144  20.874  1.00  0.00     0.078 C 
HETATM   16  C   UNL     1       7.754   0.243  19.652  1.00  0.00     0.058 C 
HETATM   17  C   UNL     1       5.599  -0.675  19.919  1.00  0.00     0.113 C 
HETATM   18  C   UNL     1       9.618  -0.575  24.008  1.00  0.00     0.061 A 
HETATM   19  N   UNL     1       8.873   0.681  21.351  1.00  0.00    -0.363 N 
ATOM     20  HN  UNL     1       8.746   1.613  20.955  1.00  0.00     0.165 HD
HETATM   21 CL   UNL     1       5.988   0.978  17.806  1.00  0.00    -0.083 Cl
ENDROOT
TORSDOF 0
ENDMDL
MODEL 8
REMARK VINA RESULT:    -6.162     25.411     27.182
REMARK INTER + INTRA:          -6.162
REMARK INTER:                  -6.162
REMARK INTRA:                   0.000
REMARK UNBOUND:                 0.000
REMARK  0 active torsions:
REMARK  status: ('A' for Active; 'I' for Inactive)
ROOT
HETATM    1  N   UNL     1      10.754  14.648   3.019  1.00  0.00    -0.351 N 
ATOM      2  HN  UNL     1      11.489  14.552   2.319  1.00  0.00     0.166 HD
HETATM    3  H   UNL     1      12.176  16.601   5.881  1.00  0.00     0.167 HD
HETATM    4  C   UNL     1       8.115  15.422   1.600  1.00  0.00     0.017 C 
HETATM    5  C   UNL     1       7.842  14.133   2.070  1.00  0.00     0.004 C 
HETATM    6  C   UNL     1       8.906  16.266   2.141  1.00  0.00     0.088 C 
HETATM    7  C   UNL     1       8.520  13.608   3.065  1.00  0.00     0.032 C 
HETATM    8  N   UNL     1      11.317  16.565   5.346  1.00  0.00    -0.348 N 
HETATM    9  N   UNL     1      11.789  18.644   4.776  1.00  0.00    -0.349 N 
ATOM     10  HN  UNL     1      12.329  18.636   5.642  1.00  0.00     0.167 HD
HETATM   11  C   UNL     1      10.875  20.137   3.158  1.00  0.00     0.051 C 
HETATM   12  C   UNL     1      11.081  17.700   4.507  1.00  0.00     0.132 C 
HETATM   13  C   UNL     1      10.655  15.524   5.471  1.00  0.00     0.121 C 
HETATM   14  C   UNL     1      10.372  15.074   4.185  1.00  0.00     0.075 A 
HETATM   15  C   UNL     1      10.070  17.993   3.165  1.00  0.00     0.078 C 
HETATM   16  C   UNL     1       9.852  19.230   2.834  1.00  0.00     0.058 C 
HETATM   17  C   UNL     1      11.874  19.706   3.949  1.00  0.00     0.113 C 
HETATM   18  C   UNL     1       9.653  14.454   3.346  1.00  0.00     0.061 A 
HETATM   19  N   UNL     1       9.471  17.273   2.243  1.00  0.00    -0.363 N 
ATOM     20  HN  UNL     1       9.518  17.745   1.339  1.00  0.00     0.165 HD
HETATM   21 CL   UNL     1      10.872  21.632   2.326  1.00  0.00    -0.083 Cl
ENDROOT
TORSDOF 0
ENDMDL
MODEL 9
REMARK VINA RESULT:    -5.761     24.120     25.130
REMARK INTER + INTRA:          -5.761
REMARK INTER:                  -5.761
REMARK INTRA:                   0.000
REMARK UNBOUND:                 0.000
REMARK  0 active torsions:
REMARK  status: ('A' for Active; 'I' for Inactive)
ROOT
HETATM    1  N   UNL     1      10.255  14.391   3.451  1.00  0.00    -0.351 N 
ATOM      2  HN  UNL     1      10.607  13.489   3.773  1.00  0.00     0.166 HD
HETATM    3  H   UNL     1       8.839  13.885   0.021  1.00  0.00     0.167 HD
HETATM    4  C   UNL     1       8.665  15.723   5.748  1.00  0.00     0.017 C 
HETATM    5  C   UNL     1       9.777  16.561   5.621  1.00  0.00     0.004 C 
HETATM    6  C   UNL     1       8.126  15.043   4.811  1.00  0.00     0.088 C 
HETATM    7  C   UNL     1      10.481  16.604   4.512  1.00  0.00     0.032 C 
HETATM    8  N   UNL     1       8.595  14.375   0.872  1.00  0.00    -0.348 N 
HETATM    9  N   UNL     1       6.808  13.081   0.897  1.00  0.00    -0.349 N 
ATOM     10  HN  UNL     1       6.980  13.020  -0.107  1.00  0.00     0.167 HD
HETATM   11  C   UNL     1       5.126  12.656   2.532  1.00  0.00     0.051 C 
HETATM   12  C   UNL     1       7.463  13.844   1.570  1.00  0.00     0.132 C 
HETATM   13  C   UNL     1       9.349  15.307   1.187  1.00  0.00     0.121 C 
HETATM   14  C   UNL     1       9.703  15.104   2.517  1.00  0.00     0.075 A 
HETATM   15  C   UNL     1       6.873  13.996   3.162  1.00  0.00     0.078 C 
HETATM   16  C   UNL     1       5.641  13.647   3.384  1.00  0.00     0.058 C 
HETATM   17  C   UNL     1       5.853  12.308   1.454  1.00  0.00     0.113 C 
HETATM   18  C   UNL     1      10.060  15.520   3.659  1.00  0.00     0.061 A 
HETATM   19  N   UNL     1       7.367  14.304   4.341  1.00  0.00    -0.363 N 
ATOM     20  HN  UNL     1       6.956  13.712   5.063  1.00  0.00     0.165 HD
HETATM   21 CL   UNL     1       3.734  11.821   3.073  1.00  0.00    -0.083 Cl
ENDROOT
TORSDOF 0
ENDMDL
