REMARK  0 active torsions:
REMARK  status: ('A' for Active; 'I' for Inactive)
ROOT
HETATM    1  N   UNL     1       8.053  -3.010  23.611  1.00  0.00    -0.351 N 
ATOM      2  HN  UNL     1       7.635  -3.738  23.032  1.00  0.00     0.166 HD
HETATM    3  H   UNL     1      11.650  -2.709  22.613  1.00  0.00     0.167 HD
HETATM    4  C   UNL     1       6.129  -0.589  23.720  1.00  0.00     0.017 C 
HETATM    5  C   UNL     1       6.099  -1.062  25.036  1.00  0.00     0.004 C 
HETATM    6  C   UNL     1       7.113  -0.679  22.912  1.00  0.00     0.088 C 
HETATM    7  C   UNL     1       7.070  -1.802  25.521  1.00  0.00     0.032 C 
HETATM    8  N   UNL     1      10.877  -2.096  22.839  1.00  0.00    -0.348 N 
HETATM    9  N   UNL     1      11.104  -1.338  20.779  1.00  0.00    -0.349 N 
ATOM     10  HN  UNL     1      12.059  -1.682  20.881  1.00  0.00     0.167 HD
HETATM   11  C   UNL     1       9.767   0.083  19.409  1.00  0.00     0.051 C 
HETATM   12  C   UNL     1      10.363  -1.342  21.736  1.00  0.00     0.132 C 
HETATM   13  C   UNL     1      10.479  -2.149  24.012  1.00  0.00     0.121 C 
HETATM   14  C   UNL     1       9.100  -2.325  23.959  1.00  0.00     0.075 A 
HETATM   15  C   UNL     1       8.905  -0.506  21.447  1.00  0.00     0.078 C 
HETATM   16  C   UNL     1       8.885   0.349  20.469  1.00  0.00     0.058 C 
HETATM   17  C   UNL     1      10.686  -0.885  19.579  1.00  0.00     0.113 C 
HETATM   18  C   UNL     1       7.933  -2.196  24.435  1.00  0.00     0.061 A 
HETATM   19  N   UNL     1       7.674  -0.542  21.907  1.00  0.00    -0.363 N 
ATOM     20  HN  UNL     1       7.008  -0.408  21.146  1.00  0.00     0.165 HD
HETATM   21 CL   UNL     1       9.438   0.857  17.919  1.00  0.00    -0.083 Cl
ENDROOT
TORSDOF 0
