stable:False satoms:15 tatoms:24 sratio:0.625
  -OEChem-08062407593D

 28 29  0     0  0  0  0  0  0999 V2000
   -6.9163    0.7076  -18.8488 H   0  0  0  0  0  0  0  0  0  0  0  0
   -7.4088   -0.1498  -19.3461 C   0  0  0  0  0  0  0  0  0  0  0  0
   -7.7458   -0.8345  -18.5484 H   0  0  0  0  0  0  0  0  0  0  0  0
   -6.6580   -0.6618  -19.9642 H   0  0  0  0  0  0  0  0  0  0  0  0
   -8.4937    0.1364  -20.1780 C   0  0  0  0  0  0  0  0  0  0  0  0
   -9.3562   -0.0467  -20.9803 N   0  0  0  0  0  0  0  0  0  0  0  0
   -9.7628   -0.1563  -22.2498 C   0  0  0  0  0  0  0  0  0  0  0  0
  -11.3801    0.6133  -23.2587 C   0  0  0  0  0  0  0  0  0  0  0  0
   -9.8632   -1.2840  -23.1787 N   0  0  0  0  0  0  0  0  0  0  0  0
  -11.0737   -1.6249  -23.5957 C   0  0  0  0  0  0  0  0  0  0  0  0
  -11.2901   -2.5551  -24.1067 H   0  0  0  0  0  0  0  0  0  0  0  0
  -13.0330   -1.0113  -23.1149 H   0  0  0  0  0  0  0  0  0  0  0  0
  -12.0133   -0.7382  -23.2726 C   0  0  0  0  0  0  0  0  0  0  0  0
  -10.2687    0.7804  -22.9207 N   0  0  0  0  0  0  0  0  0  0  0  0
  -11.6959    1.8824  -23.6698 N   0  0  0  0  0  0  0  0  0  0  0  0
  -13.1176    3.5864  -24.6807 H   0  0  0  0  0  0  0  0  0  0  0  0
  -11.0078    2.8707  -23.4811 N   0  0  0  0  0  0  0  0  0  0  0  0
  -11.2766    4.1093  -23.9150 C   0  0  0  0  0  0  0  0  0  0  0  0
  -12.5079    4.4510  -24.3214 C   0  0  0  0  0  0  0  0  0  0  0  0
  -12.6879    5.8035  -24.3769 N   0  0  0  0  0  0  0  0  0  0  0  0
  -11.4399    6.2589  -24.3041 C   0  0  0  0  0  0  0  0  0  0  0  0
  -11.1591    7.2745  -24.3992 H   0  0  0  0  0  0  0  0  0  0  0  0
  -10.4789    5.2393  -24.1212 C   0  0  0  0  0  0  0  0  0  0  0  0
   -9.4021    5.2539  -24.1799 H   0  0  0  0  0  0  0  0  0  0  0  0
   -8.0193    0.9773  -20.7050 H   0  0  0  0  0  0  0  0  0  0  0  0
   -9.1506    0.5242  -19.3854 H   0  0  0  0  0  0  0  0  0  0  0  0
   -9.9845    0.6737  -20.6869 H   0  0  0  0  0  0  0  0  0  0  0  0
  -13.5407    6.3202  -24.4530 H   0  0  0  0  0  0  0  0  0  0  0  0
 20 21  1  0  0  0  0
 19 20  1  0  0  0  0
 21 22  1  0  0  0  0
 21 23  2  0  0  0  0
 16 19  1  0  0  0  0
 18 19  2  0  0  0  0
 18 23  1  0  0  0  0
 17 18  1  0  0  0  0
 23 24  1  0  0  0  0
 15 17  2  0  0  0  0
  8 15  1  0  0  0  0
 12 13  1  0  0  0  0
  8 13  2  0  0  0  0
  8 14  1  0  0  0  0
 10 13  1  0  0  0  0
  7 14  2  0  0  0  0
 10 11  1  0  0  0  0
  9 10  2  0  0  0  0
  6  7  1  0  0  0  0
  7  9  1  0  0  0  0
  5  6  1  0  0  0  0
  2  5  1  0  0  0  0
  1  2  1  0  0  0  0
  2  3  1  0  0  0  0
  2  4  1  0  0  0  0
  5 25  1  0  0  0  0
  5 26  1  0  0  0  0
  6 27  1  0  0  0  0
 20 28  1  0  0  0  0
M  END
> <Chemgauss4>
-7.157792

$$$$
