stable:False satoms:15 tatoms:24 sratio:0.625
  -OEChem-08062407593D

 28 29  0     0  0  0  0  0  0999 V2000
    7.1720    0.5536   18.5569 H   0  0  0  0  0  0  0  0  0  0  0  0
    7.5310   -0.2558   19.2210 C   0  0  0  0  0  0  0  0  0  0  0  0
    7.8539   -1.0868   18.5701 H   0  0  0  0  0  0  0  0  0  0  0  0
    6.6847   -0.5911   19.8369 H   0  0  0  0  0  0  0  0  0  0  0  0
    8.5728    0.0572   20.0971 C   0  0  0  0  0  0  0  0  0  0  0  0
    9.3466   -0.0753   20.9942 N   0  0  0  0  0  0  0  0  0  0  0  0
    9.6403   -0.0189   22.2979 C   0  0  0  0  0  0  0  0  0  0  0  0
   11.2475    0.7480   23.3248 C   0  0  0  0  0  0  0  0  0  0  0  0
    9.5487   -0.9889   23.3912 N   0  0  0  0  0  0  0  0  0  0  0  0
   10.6805   -1.3700   23.9650 C   0  0  0  0  0  0  0  0  0  0  0  0
   10.7570   -2.2232   24.6279 H   0  0  0  0  0  0  0  0  0  0  0  0
   12.7250   -1.0251   23.5808 H   0  0  0  0  0  0  0  0  0  0  0  0
   11.7309   -0.6370   23.6005 C   0  0  0  0  0  0  0  0  0  0  0  0
   10.1895    0.9615   22.8641 N   0  0  0  0  0  0  0  0  0  0  0  0
   11.6636    2.0315   23.5678 N   0  0  0  0  0  0  0  0  0  0  0  0
   13.1757    3.7351   24.4380 H   0  0  0  0  0  0  0  0  0  0  0  0
   11.1007    3.0367   23.1696 N   0  0  0  0  0  0  0  0  0  0  0  0
   11.4650    4.2982   23.4352 C   0  0  0  0  0  0  0  0  0  0  0  0
   12.6907    4.5844   23.8978 C   0  0  0  0  0  0  0  0  0  0  0  0
   13.0083    5.9060   23.7656 N   0  0  0  0  0  0  0  0  0  0  0  0
   11.8249    6.4578   23.5098 C   0  0  0  0  0  0  0  0  0  0  0  0
   11.6469    7.4972   23.4246 H   0  0  0  0  0  0  0  0  0  0  0  0
   10.7782    5.5157   23.3942 C   0  0  0  0  0  0  0  0  0  0  0  0
    9.7077    5.6392   23.3502 H   0  0  0  0  0  0  0  0  0  0  0  0
    8.1511    1.0116   20.4454 H   0  0  0  0  0  0  0  0  0  0  0  0
    9.3262    0.2514   19.3195 H   0  0  0  0  0  0  0  0  0  0  0  0
   10.0686    0.5279   20.6552 H   0  0  0  0  0  0  0  0  0  0  0  0
   13.9027    6.3468   23.8416 H   0  0  0  0  0  0  0  0  0  0  0  0
 20 21  1  0  0  0  0
 19 20  1  0  0  0  0
 21 22  1  0  0  0  0
 21 23  2  0  0  0  0
 16 19  1  0  0  0  0
 18 19  2  0  0  0  0
 18 23  1  0  0  0  0
 17 18  1  0  0  0  0
 23 24  1  0  0  0  0
 15 17  2  0  0  0  0
  8 15  1  0  0  0  0
 12 13  1  0  0  0  0
  8 13  2  0  0  0  0
  8 14  1  0  0  0  0
 10 13  1  0  0  0  0
  7 14  2  0  0  0  0
 10 11  1  0  0  0  0
  9 10  2  0  0  0  0
  6  7  1  0  0  0  0
  7  9  1  0  0  0  0
  5  6  1  0  0  0  0
  2  5  1  0  0  0  0
  1  2  1  0  0  0  0
  2  3  1  0  0  0  0
  2  4  1  0  0  0  0
  5 25  1  0  0  0  0
  5 26  1  0  0  0  0
  6 27  1  0  0  0  0
 20 28  1  0  0  0  0
M  END
> <Chemgauss4>
-7.001348

$$$$
