
 OpenBabel07202414153D

 39 40  0  0  0  0  0  0  0  0999 V2000
    1.3088   -0.6354   -1.0552 C   0  0  0  0  0  0  0  0  0  0  0  0
    2.4978    0.0797    0.0877 S   0  0  0  0  0  0  0  0  0  0  0  0
    3.0128    1.4986   -0.8127 C   0  0  0  0  0  0  0  0  0  0  0  0
    3.0820    2.6947   -0.1755 C   0  0  0  0  0  0  0  0  0  0  0  0
    2.3566    2.9632    1.0506 C   0  0  0  0  0  0  0  0  0  0  0  0
    1.8144    3.2164    2.0287 N   0  0  0  0  0  0  0  0  0  0  0  0
    3.9802    3.7547   -0.8810 C   0  0  0  0  0  0  0  0  0  0  0  0
    4.1097    5.0845   -0.0047 C   0  0  0  0  0  0  0  0  0  0  0  0
    4.8864    4.9256    1.3692 C   0  0  0  0  0  0  0  0  0  0  0  0
    6.1988    4.1385    1.3017 C   0  0  0  0  0  0  0  0  0  0  0  0
    5.9938    2.8668    0.5113 C   0  0  0  0  0  0  0  0  0  0  0  0
    5.4872    3.2520   -0.8751 C   0  0  0  0  0  0  0  0  0  0  0  0
    3.5932    3.7275   -2.4830 C   0  0  0  0  0  0  0  0  0  0  0  0
    3.5132    5.0176   -3.2826 C   0  0  0  0  0  0  0  0  0  0  0  0
    3.4468    6.0880   -3.9460 N   0  0  0  0  0  0  0  0  0  0  0  0
    3.5301    2.4866   -3.0190 C   0  0  0  0  0  0  0  0  0  0  0  0
    3.6315    2.3252   -4.3798 N   0  0  0  0  0  0  0  0  0  0  0  0
    3.8164    1.1222   -5.0361 C   0  0  0  0  0  0  0  0  0  0  0  0
    3.7539    0.0262   -4.4766 O   0  0  0  0  0  0  0  0  0  0  0  0
    4.0299    1.2456   -6.5369 C   0  0  0  0  0  0  0  0  0  0  0  0
    4.9073    2.7409   -6.9486 Cl  0  0  0  0  0  0  0  0  0  0  0  0
    3.4498    1.4159   -2.1362 N   0  0  0  0  0  0  0  0  0  0  0  0
    0.9534   -1.5842   -0.6444 H   0  0  0  0  0  0  0  0  0  0  0  0
    1.7635   -0.8311   -2.0289 H   0  0  0  0  0  0  0  0  0  0  0  0
    0.4587    0.0403   -1.1745 H   0  0  0  0  0  0  0  0  0  0  0  0
    3.1246    5.5110    0.2233 H   0  0  0  0  0  0  0  0  0  0  0  0
    4.6500    5.8481   -0.5774 H   0  0  0  0  0  0  0  0  0  0  0  0
    5.1019    5.9126    1.7982 H   0  0  0  0  0  0  0  0  0  0  0  0
    4.2558    4.4292    2.1149 H   0  0  0  0  0  0  0  0  0  0  0  0
    6.5678    3.8930    2.3067 H   0  0  0  0  0  0  0  0  0  0  0  0
    6.9801    4.7456    0.8278 H   0  0  0  0  0  0  0  0  0  0  0  0
    5.2929    2.2084    1.0373 H   0  0  0  0  0  0  0  0  0  0  0  0
    6.9296    2.3051    0.4267 H   0  0  0  0  0  0  0  0  0  0  0  0
    5.6674    2.4072   -1.5426 H   0  0  0  0  0  0  0  0  0  0  0  0
    6.1186    4.0605   -1.2749 H   0  0  0  0  0  0  0  0  0  0  0  0
    3.7791    3.1536   -4.9525 H   0  0  0  0  0  0  0  0  0  0  0  0
    3.0606    1.2635   -7.0396 H   0  0  0  0  0  0  0  0  0  0  0  0
    4.6292    0.4054   -6.8947 H   0  0  0  0  0  0  0  0  0  0  0  0
    3.4723    0.4880   -2.5570 H   0  0  0  0  0  0  0  0  0  0  0  0
  1  2  1  0  0  0  0
  1 23  1  0  0  0  0
  1 24  1  0  0  0  0
  1 25  1  0  0  0  0
  2  3  1  0  0  0  0
  3  4  2  0  0  0  0
  3 22  1  0  0  0  0
  4  5  1  0  0  0  0
  4  7  1  0  0  0  0
  5  6  3  0  0  0  0
  7  8  1  0  0  0  0
  7 12  1  0  0  0  0
  7 13  1  0  0  0  0
  8  9  1  0  0  0  0
  8 26  1  0  0  0  0
  8 27  1  0  0  0  0
  9 10  1  0  0  0  0
  9 28  1  0  0  0  0
  9 29  1  0  0  0  0
 10 11  1  0  0  0  0
 10 30  1  0  0  0  0
 10 31  1  0  0  0  0
 11 12  1  0  0  0  0
 11 32  1  0  0  0  0
 11 33  1  0  0  0  0
 12 34  1  0  0  0  0
 12 35  1  0  0  0  0
 13 14  1  0  0  0  0
 13 16  2  0  0  0  0
 14 15  3  0  0  0  0
 16 17  1  0  0  0  0
 16 22  1  0  0  0  0
 17 18  1  0  0  0  0
 17 36  1  0  0  0  0
 18 19  2  0  0  0  0
 18 20  1  0  0  0  0
 20 21  1  0  0  0  0
 20 37  1  0  0  0  0
 20 38  1  0  0  0  0
 22 39  1  0  0  0  0
M  END
$$$$
