stable:False satoms:11 tatoms:24 sratio:0.4583333333333333
  -OEChem-08062410513D

 32 32  0     0  0  0  0  0  0999 V2000
   -6.6365   -5.7793  -25.8256 Cl  0  0  0  0  0  0  0  0  0  0  0  0
   -8.3647   -4.9771  -25.7404 S   0  0  0  0  0  0  0  0  0  0  0  0
   -9.3081   -6.0128  -25.5322 O   0  0  0  0  0  0  0  0  0  0  0  0
   -8.5211   -4.2388  -26.9546 O   0  0  0  0  0  0  0  0  0  0  0  0
   -8.2333   -4.0804  -24.4010 N   0  0  0  0  0  0  0  0  0  0  0  0
   -9.0270   -3.2262  -24.0159 C   0  0  0  0  0  0  0  0  0  0  0  0
   -9.5751   -2.2848  -23.6011 C   0  0  0  0  0  0  0  0  0  0  0  0
  -10.2698   -1.1853  -23.1929 C   0  0  0  0  0  0  0  0  0  0  0  0
  -11.3876   -0.5460  -23.9311 C   0  0  0  0  0  0  0  0  0  0  0  0
  -11.5676    0.1104  -24.7661 C   0  0  0  0  0  0  0  0  0  0  0  0
  -12.5247   -0.7064  -22.0952 H   0  0  0  0  0  0  0  0  0  0  0  0
  -12.6044   -1.0430  -23.1394 C   0  0  0  0  0  0  0  0  0  0  0  0
  -13.5240   -0.6371  -23.5862 H   0  0  0  0  0  0  0  0  0  0  0  0
   -9.8068   -0.6498  -22.1426 C   0  0  0  0  0  0  0  0  0  0  0  0
   -9.0172    0.0035  -21.2302 C   0  0  0  0  0  0  0  0  0  0  0  0
   -9.3935    1.0701  -20.7779 O   0  0  0  0  0  0  0  0  0  0  0  0
   -7.8426   -0.6570  -20.9816 N   0  0  0  0  0  0  0  0  0  0  0  0
   -7.0656   -0.1576  -20.0490 C   0  0  0  0  0  0  0  0  0  0  0  0
   -7.1022    0.0079  -18.7013 C   0  0  0  0  0  0  0  0  0  0  0  0
   -6.5908    0.3041  -17.6661 N   0  0  0  0  0  0  0  0  0  0  0  0
   -5.4504    0.6928  -18.0172 N   0  0  0  0  0  0  0  0  0  0  0  0
   -5.2543    0.6433  -19.1619 C   0  0  0  0  0  0  0  0  0  0  0  0
   -5.7313    0.2798  -20.3511 C   0  0  0  0  0  0  0  0  0  0  0  0
   -5.3310    0.2484  -21.3849 H   0  0  0  0  0  0  0  0  0  0  0  0
   -7.3599   -3.6021  -24.4924 H   0  0  0  0  0  0  0  0  0  0  0  0
  -10.7369    0.4997  -25.3359 H   0  0  0  0  0  0  0  0  0  0  0  0
  -12.5789    0.3791  -25.0333 H   0  0  0  0  0  0  0  0  0  0  0  0
  -12.6368   -2.1422  -23.1688 H   0  0  0  0  0  0  0  0  0  0  0  0
  -10.6407   -0.8619  -21.4899 H   0  0  0  0  0  0  0  0  0  0  0  0
   -7.5890   -1.4816  -21.4874 H   0  0  0  0  0  0  0  0  0  0  0  0
   -8.1089   -0.2717  -18.4281 H   0  0  0  0  0  0  0  0  0  0  0  0
   -4.2772    1.0705  -19.3323 H   0  0  0  0  0  0  0  0  0  0  0  0
 20 21  2  0  0  0  0
 19 20  1  0  0  0  0
 21 22  1  0  0  0  0
 18 19  2  0  0  0  0
 22 23  2  0  0  0  0
 18 23  1  0  0  0  0
 17 18  1  0  0  0  0
 23 24  1  0  0  0  0
 15 16  2  0  0  0  0
 15 17  1  0  0  0  0
 14 15  1  0  0  0  0
  8 14  2  3  0  0  0
 12 13  1  0  0  0  0
 11 12  1  0  0  0  0
  9 12  1  0  0  0  0
  7  8  1  0  0  0  0
  8  9  1  0  0  0  0
  6  7  3  0  0  0  0
  9 10  2  0  0  0  0
  5  6  1  0  0  0  0
  2  5  1  0  0  0  0
  2  3  2  0  0  0  0
  1  2  1  0  0  0  0
  2  4  2  0  0  0  0
  5 25  1  0  0  0  0
 10 26  1  0  0  0  0
 10 27  1  0  0  0  0
 12 28  1  0  0  0  0
 14 29  1  0  0  0  0
 17 30  1  0  0  0  0
 19 31  1  0  0  0  0
 22 32  1  0  0  0  0
M  END
> <Chemgauss4>
-10.797340

$$$$
