stable:False satoms:11 tatoms:24 sratio:0.4583333333333333
  -OEChem-08062410513D

 32 32  0     0  0  0  0  0  0999 V2000
    5.7441   -5.4069   25.7889 Cl  0  0  0  0  0  0  0  0  0  0  0  0
    7.5260   -4.7334   25.8813 S   0  0  0  0  0  0  0  0  0  0  0  0
    8.4069   -5.8396   25.8006 O   0  0  0  0  0  0  0  0  0  0  0  0
    7.6025   -3.9743   27.0902 O   0  0  0  0  0  0  0  0  0  0  0  0
    7.6099   -3.8677   24.5179 N   0  0  0  0  0  0  0  0  0  0  0  0
    8.5025   -3.0838   24.2068 C   0  0  0  0  0  0  0  0  0  0  0  0
    9.1614   -2.1962   23.8371 C   0  0  0  0  0  0  0  0  0  0  0  0
    9.9766   -1.1614   23.4871 C   0  0  0  0  0  0  0  0  0  0  0  0
   11.0509   -0.5834   24.3327 C   0  0  0  0  0  0  0  0  0  0  0  0
   11.1865    0.0816   25.1692 C   0  0  0  0  0  0  0  0  0  0  0  0
   12.3680   -0.8767   22.6389 H   0  0  0  0  0  0  0  0  0  0  0  0
   12.3071   -1.1886   23.6919 C   0  0  0  0  0  0  0  0  0  0  0  0
   13.1996   -0.8373   24.2305 H   0  0  0  0  0  0  0  0  0  0  0  0
    9.6731   -0.6239   22.3812 C   0  0  0  0  0  0  0  0  0  0  0  0
    9.0395    0.0585   21.3733 C   0  0  0  0  0  0  0  0  0  0  0  0
    9.5416    1.0821   20.9446 O   0  0  0  0  0  0  0  0  0  0  0  0
    7.8534   -0.5228   21.0083 N   0  0  0  0  0  0  0  0  0  0  0  0
    7.2231    0.0046   19.9849 C   0  0  0  0  0  0  0  0  0  0  0  0
    7.4198    0.1290   18.6467 C   0  0  0  0  0  0  0  0  0  0  0  0
    7.0489    0.4318   17.5551 N   0  0  0  0  0  0  0  0  0  0  0  0
    5.9089    0.9111   17.7687 N   0  0  0  0  0  0  0  0  0  0  0  0
    5.5850    0.9081   18.8851 C   0  0  0  0  0  0  0  0  0  0  0  0
    5.8999    0.5449   20.1272 C   0  0  0  0  0  0  0  0  0  0  0  0
    5.3872    0.5715   21.1102 H   0  0  0  0  0  0  0  0  0  0  0  0
    6.7697   -3.3256   24.5014 H   0  0  0  0  0  0  0  0  0  0  0  0
   10.3294    0.5454   25.6347 H   0  0  0  0  0  0  0  0  0  0  0  0
   12.1794    0.2845   25.5423 H   0  0  0  0  0  0  0  0  0  0  0  0
   12.2542   -2.2860   23.7468 H   0  0  0  0  0  0  0  0  0  0  0  0
   10.5556   -0.9136   21.8301 H   0  0  0  0  0  0  0  0  0  0  0  0
    7.4851   -1.3125   21.4990 H   0  0  0  0  0  0  0  0  0  0  0  0
    8.4269   -0.2297   18.4934 H   0  0  0  0  0  0  0  0  0  0  0  0
    4.6296    1.4090   18.9366 H   0  0  0  0  0  0  0  0  0  0  0  0
 20 21  2  0  0  0  0
 19 20  1  0  0  0  0
 21 22  1  0  0  0  0
 18 19  2  0  0  0  0
 22 23  2  0  0  0  0
 18 23  1  0  0  0  0
 17 18  1  0  0  0  0
 23 24  1  0  0  0  0
 15 16  2  0  0  0  0
 15 17  1  0  0  0  0
 14 15  1  0  0  0  0
  8 14  2  3  0  0  0
 12 13  1  0  0  0  0
 11 12  1  0  0  0  0
  9 12  1  0  0  0  0
  7  8  1  0  0  0  0
  8  9  1  0  0  0  0
  6  7  3  0  0  0  0
  9 10  2  0  0  0  0
  5  6  1  0  0  0  0
  2  5  1  0  0  0  0
  2  3  2  0  0  0  0
  1  2  1  0  0  0  0
  2  4  2  0  0  0  0
  5 25  1  0  0  0  0
 10 26  1  0  0  0  0
 10 27  1  0  0  0  0
 12 28  1  0  0  0  0
 14 29  1  0  0  0  0
 17 30  1  0  0  0  0
 19 31  1  0  0  0  0
 22 32  1  0  0  0  0
M  END
> <Chemgauss4>
-10.761272

$$$$
