MODEL 1
REMARK VINA RESULT:    -4.919      0.000      0.000
REMARK INTER + INTRA:          -5.789
REMARK INTER:                  -5.494
REMARK INTRA:                  -0.295
REMARK UNBOUND:                -0.295
REMARK  2 active torsions:
REMARK  status: ('A' for Active; 'I' for Inactive)
REMARK    1  A    between atoms: S_2  and  C_5 
REMARK    2  A    between atoms: C_9  and  C_11 
ROOT
HETATM    1  C   UNL     1       8.534   1.859  21.775  1.00  0.00     0.027 C 
HETATM    2  C   UNL     1       8.301  -0.553  21.280  1.00  0.00     0.078 A 
HETATM    3  C   UNL     1       9.442   1.732  22.504  1.00  0.00     0.000 C 
HETATM    4  C   UNL     1      10.197   0.505  22.346  1.00  0.00     0.015 C 
HETATM    5  C   UNL     1       9.606  -0.611  21.947  1.00  0.00    -0.011 C 
HETATM    6  C   UNL     1       7.910   0.981  20.954  1.00  0.00    -0.034 A 
HETATM    7  C   UNL     1       6.141  -0.147  19.757  1.00  0.00     0.132 C 
HETATM    8  C   UNL     1       7.246   0.169  20.365  1.00  0.00     0.001 A 
HETATM    9  F   UNL     1       5.594  -1.356  19.840  1.00  0.00    -0.205 F 
ENDROOT
BRANCH   7  10
HETATM   10  C   UNL     1       5.455   0.817  19.027  1.00  0.00    -0.016 C 
HETATM   11  C   UNL     1       5.884   1.230  17.764  1.00  0.00     0.025 C 
HETATM   12  C   UNL     1       4.419   1.531  19.559  1.00  0.00     0.025 C 
ENDBRANCH   7  10
BRANCH   3  13
HETATM   13  S   UNL     1       9.663   3.090  23.838  1.00  0.00    -0.134 SA
HETATM   14  C   UNL     1      11.410   3.354  23.621  1.00  0.00     0.095 C 
ENDBRANCH   3  13
TORSDOF 2
ENDMDL
MODEL 2
REMARK VINA RESULT:    -4.857     25.801     27.413
REMARK INTER + INTRA:          -5.720
REMARK INTER:                  -5.413
REMARK INTRA:                  -0.307
REMARK UNBOUND:                -0.295
REMARK  2 active torsions:
REMARK  status: ('A' for Active; 'I' for Inactive)
REMARK    1  A    between atoms: S_2  and  C_5 
REMARK    2  A    between atoms: C_9  and  C_11 
ROOT
HETATM    1  C   UNL     1       1.025 -23.493   9.837  1.00  0.00     0.027 C 
HETATM    2  C   UNL     1       3.071 -23.823   8.488  1.00  0.00     0.078 A 
HETATM    3  C   UNL     1       0.813 -24.633   9.991  1.00  0.00     0.000 C 
HETATM    4  C   UNL     1       1.958 -25.506   9.820  1.00  0.00     0.015 C 
HETATM    5  C   UNL     1       2.924 -25.200   8.968  1.00  0.00    -0.011 C 
HETATM    6  C   UNL     1       2.087 -22.838   9.310  1.00  0.00    -0.034 A 
HETATM    7  C   UNL     1       3.362 -21.196   8.081  1.00  0.00     0.132 C 
HETATM    8  C   UNL     1       2.941 -22.268   8.684  1.00  0.00     0.001 A 
HETATM    9  F   UNL     1       4.090 -21.234   6.969  1.00  0.00    -0.205 F 
ENDROOT
BRANCH   7  10
HETATM   10  C   UNL     1       3.003 -19.943   8.568  1.00  0.00    -0.016 C 
HETATM   11  C   UNL     1       1.870 -19.270   8.108  1.00  0.00     0.025 C 
HETATM   12  C   UNL     1       3.814 -19.229   9.403  1.00  0.00     0.025 C 
ENDBRANCH   7  10
BRANCH   3  13
HETATM   13  S   UNL     1      -1.012 -25.130  10.299  1.00  0.00    -0.134 SA
HETATM   14  C   UNL     1      -1.446 -23.784  11.380  1.00  0.00     0.095 C 
ENDBRANCH   3  13
TORSDOF 2
ENDMDL
MODEL 3
REMARK VINA RESULT:    -4.764      4.060      5.763
REMARK INTER + INTRA:          -5.616
REMARK INTER:                  -5.325
REMARK INTRA:                  -0.291
REMARK UNBOUND:                -0.295
REMARK  2 active torsions:
REMARK  status: ('A' for Active; 'I' for Inactive)
REMARK    1  A    between atoms: S_2  and  C_5 
REMARK    2  A    between atoms: C_9  and  C_11 
ROOT
HETATM    1  C   UNL     1       9.648  -1.291  24.506  1.00  0.00     0.027 C 
HETATM    2  C   UNL     1       8.786  -2.478  22.515  1.00  0.00     0.078 A 
HETATM    3  C   UNL     1      10.095  -0.389  23.908  1.00  0.00     0.000 C 
HETATM    4  C   UNL     1       9.531  -0.179  22.590  1.00  0.00     0.015 C 
HETATM    5  C   UNL     1       9.088  -1.198  21.869  1.00  0.00    -0.011 C 
HETATM    6  C   UNL     1       8.857  -2.321  24.123  1.00  0.00    -0.034 A 
HETATM    7  C   UNL     1       7.943  -4.552  23.978  1.00  0.00     0.132 C 
HETATM    8  C   UNL     1       8.309  -3.325  23.751  1.00  0.00     0.001 A 
HETATM    9  F   UNL     1       7.931  -5.486  23.032  1.00  0.00    -0.205 F 
ENDROOT
BRANCH   7  10
HETATM   10  C   UNL     1       7.596  -4.942  25.268  1.00  0.00    -0.016 C 
HETATM   11  C   UNL     1       6.287  -4.839  25.743  1.00  0.00     0.025 C 
HETATM   12  C   UNL     1       8.533  -5.297  26.195  1.00  0.00     0.025 C 
ENDBRANCH   7  10
BRANCH   3  13
HETATM   13  S   UNL     1      11.562   0.534  24.724  1.00  0.00    -0.134 SA
HETATM   14  C   UNL     1      12.876  -0.449  24.034  1.00  0.00     0.095 C 
ENDBRANCH   3  13
TORSDOF 2
ENDMDL
MODEL 4
REMARK VINA RESULT:    -4.730      4.626      6.756
REMARK INTER + INTRA:          -5.578
REMARK INTER:                  -5.290
REMARK INTRA:                  -0.287
REMARK UNBOUND:                -0.295
REMARK  2 active torsions:
REMARK  status: ('A' for Active; 'I' for Inactive)
REMARK    1  A    between atoms: S_2  and  C_5 
REMARK    2  A    between atoms: C_9  and  C_11 
ROOT
HETATM    1  C   UNL     1       8.653  -3.170  24.831  1.00  0.00     0.027 C 
HETATM    2  C   UNL     1       8.476  -2.456  22.470  1.00  0.00     0.078 A 
HETATM    3  C   UNL     1       7.638  -3.753  24.844  1.00  0.00     0.000 C 
HETATM    4  C   UNL     1       7.142  -4.163  23.544  1.00  0.00     0.015 C 
HETATM    5  C   UNL     1       7.389  -3.439  22.463  1.00  0.00    -0.011 C 
HETATM    6  C   UNL     1       9.354  -2.605  23.820  1.00  0.00    -0.034 A 
HETATM    7  C   UNL     1      10.736  -1.034  22.614  1.00  0.00     0.132 C 
HETATM    8  C   UNL     1       9.883  -1.952  22.959  1.00  0.00     0.001 A 
HETATM    9  F   UNL     1      10.514  -0.184  21.616  1.00  0.00    -0.205 F 
ENDROOT
BRANCH   7  10
HETATM   10  C   UNL     1      11.914  -0.880  23.337  1.00  0.00    -0.016 C 
HETATM   11  C   UNL     1      13.035  -1.679  23.101  1.00  0.00     0.025 C 
HETATM   12  C   UNL     1      11.999  -0.053  24.420  1.00  0.00     0.025 C 
ENDBRANCH   7  10
BRANCH   3  13
HETATM   13  S   UNL     1       6.772  -3.926  26.544  1.00  0.00    -0.134 SA
HETATM   14  C   UNL     1       6.092  -5.553  26.301  1.00  0.00     0.095 C 
ENDBRANCH   3  13
TORSDOF 2
ENDMDL
MODEL 5
REMARK VINA RESULT:    -4.646     15.120     17.435
REMARK INTER + INTRA:          -5.484
REMARK INTER:                  -5.290
REMARK INTRA:                  -0.194
REMARK UNBOUND:                -0.295
REMARK  2 active torsions:
REMARK  status: ('A' for Active; 'I' for Inactive)
REMARK    1  A    between atoms: S_2  and  C_5 
REMARK    2  A    between atoms: C_9  and  C_11 
ROOT
HETATM    1  C   UNL     1      24.322  -5.062  24.077  1.00  0.00     0.027 C 
HETATM    2  C   UNL     1      23.715  -4.418  26.386  1.00  0.00     0.078 A 
HETATM    3  C   UNL     1      24.938  -6.008  24.387  1.00  0.00     0.000 C 
HETATM    4  C   UNL     1      24.628  -6.549  25.696  1.00  0.00     0.015 C 
HETATM    5  C   UNL     1      24.230  -5.759  26.681  1.00  0.00    -0.011 C 
HETATM    6  C   UNL     1      23.524  -4.234  24.791  1.00  0.00    -0.034 A 
HETATM    7  C   UNL     1      22.463  -2.205  25.560  1.00  0.00     0.132 C 
HETATM    8  C   UNL     1      22.965  -3.399  25.453  1.00  0.00     0.001 A 
HETATM    9  F   UNL     1      22.534  -1.491  26.680  1.00  0.00    -0.205 F 
ENDROOT
BRANCH   7  10
HETATM   10  C   UNL     1      21.870  -1.603  24.454  1.00  0.00    -0.016 C 
HETATM   11  C   UNL     1      22.618  -1.191  23.350  1.00  0.00     0.025 C 
HETATM   12  C   UNL     1      20.555  -1.237  24.446  1.00  0.00     0.025 C 
ENDBRANCH   7  10
BRANCH   3  13
HETATM   13  S   UNL     1      26.318  -6.563  23.179  1.00  0.00    -0.134 SA
HETATM   14  C   UNL     1      25.866  -8.282  23.075  1.00  0.00     0.095 C 
ENDBRANCH   3  13
TORSDOF 2
ENDMDL
MODEL 6
REMARK VINA RESULT:    -4.637      3.994      5.406
REMARK INTER + INTRA:          -5.474
REMARK INTER:                  -5.189
REMARK INTRA:                  -0.285
REMARK UNBOUND:                -0.295
REMARK  2 active torsions:
REMARK  status: ('A' for Active; 'I' for Inactive)
REMARK    1  A    between atoms: S_2  and  C_5 
REMARK    2  A    between atoms: C_9  and  C_11 
ROOT
HETATM    1  C   UNL     1       7.986  -1.589  22.016  1.00  0.00     0.027 C 
HETATM    2  C   UNL     1       8.991  -2.666  24.003  1.00  0.00     0.078 A 
HETATM    3  C   UNL     1       8.618  -0.607  22.094  1.00  0.00     0.000 C 
HETATM    4  C   UNL     1       9.850  -0.721  22.849  1.00  0.00     0.015 C 
HETATM    5  C   UNL     1       9.949  -1.564  23.865  1.00  0.00    -0.011 C 
HETATM    6  C   UNL     1       8.065  -2.766  22.681  1.00  0.00    -0.034 A 
HETATM    7  C   UNL     1       7.382  -4.792  23.805  1.00  0.00     0.132 C 
HETATM    8  C   UNL     1       8.020  -3.738  23.389  1.00  0.00     0.001 A 
HETATM    9  F   UNL     1       7.429  -5.210  25.066  1.00  0.00    -0.205 F 
ENDROOT
BRANCH   7  10
HETATM   10  C   UNL     1       6.567  -5.498  22.926  1.00  0.00    -0.016 C 
HETATM   11  C   UNL     1       7.078  -6.123  21.786  1.00  0.00     0.025 C 
HETATM   12  C   UNL     1       5.206  -5.492  23.034  1.00  0.00     0.025 C 
ENDBRANCH   7  10
BRANCH   3  13
HETATM   13  S   UNL     1       7.841   0.972  21.337  1.00  0.00    -0.134 SA
HETATM   14  C   UNL     1       7.387   0.282  19.760  1.00  0.00     0.095 C 
ENDBRANCH   3  13
TORSDOF 2
ENDMDL
MODEL 7
REMARK VINA RESULT:    -4.603     22.414     24.617
REMARK INTER + INTRA:          -5.437
REMARK INTER:                  -5.331
REMARK INTRA:                  -0.105
REMARK UNBOUND:                -0.295
REMARK  2 active torsions:
REMARK  status: ('A' for Active; 'I' for Inactive)
REMARK    1  A    between atoms: S_2  and  C_5 
REMARK    2  A    between atoms: C_9  and  C_11 
ROOT
HETATM    1  C   UNL     1       7.021  14.868   2.554  1.00  0.00     0.027 C 
HETATM    2  C   UNL     1       9.403  15.393   2.150  1.00  0.00     0.078 A 
HETATM    3  C   UNL     1       7.220  13.807   3.006  1.00  0.00     0.000 C 
HETATM    4  C   UNL     1       8.556  13.595   3.527  1.00  0.00     0.015 C 
HETATM    5  C   UNL     1       9.599  14.209   2.991  1.00  0.00    -0.011 C 
HETATM    6  C   UNL     1       7.861  15.875   2.217  1.00  0.00    -0.034 A 
HETATM    7  C   UNL     1       8.808  17.732   0.998  1.00  0.00     0.132 C 
HETATM    8  C   UNL     1       8.612  16.693   1.754  1.00  0.00     0.001 A 
HETATM    9  F   UNL     1       9.909  17.895   0.271  1.00  0.00    -0.205 F 
ENDROOT
BRANCH   7  10
HETATM   10  C   UNL     1       7.818  18.702   0.887  1.00  0.00    -0.016 C 
HETATM   11  C   UNL     1       7.629  19.432  -0.289  1.00  0.00     0.025 C 
HETATM   12  C   UNL     1       7.078  19.112   1.959  1.00  0.00     0.025 C 
ENDBRANCH   7  10
BRANCH   3  13
HETATM   13  S   UNL     1       5.801  12.529   2.844  1.00  0.00    -0.134 SA
HETATM   14  C   UNL     1       6.714  11.268   1.981  1.00  0.00     0.095 C 
ENDBRANCH   3  13
TORSDOF 2
ENDMDL
MODEL 8
REMARK VINA RESULT:    -4.581      4.657      6.161
REMARK INTER + INTRA:          -5.412
REMARK INTER:                  -5.116
REMARK INTRA:                  -0.295
REMARK UNBOUND:                -0.295
REMARK  2 active torsions:
REMARK  status: ('A' for Active; 'I' for Inactive)
REMARK    1  A    between atoms: S_2  and  C_5 
REMARK    2  A    between atoms: C_9  and  C_11 
ROOT
HETATM    1  C   UNL     1       9.365   4.254  24.432  1.00  0.00     0.027 C 
HETATM    2  C   UNL     1      11.713   3.923  23.730  1.00  0.00     0.078 A 
HETATM    3  C   UNL     1       9.422   5.423  24.450  1.00  0.00     0.000 C 
HETATM    4  C   UNL     1      10.485   6.005  23.654  1.00  0.00     0.015 C 
HETATM    5  C   UNL     1      11.631   5.365  23.479  1.00  0.00    -0.011 C 
HETATM    6  C   UNL     1      10.237   3.317  23.988  1.00  0.00    -0.034 A 
HETATM    7  C   UNL     1      11.499   1.261  23.873  1.00  0.00     0.132 C 
HETATM    8  C   UNL     1      11.076   2.486  23.763  1.00  0.00     0.001 A 
HETATM    9  F   UNL     1      12.783   0.955  24.034  1.00  0.00    -0.205 F 
ENDROOT
BRANCH   7  10
HETATM   10  C   UNL     1      10.584   0.213  23.880  1.00  0.00    -0.016 C 
HETATM   11  C   UNL     1      10.011  -0.257  25.063  1.00  0.00     0.025 C 
HETATM   12  C   UNL     1      10.312  -0.521  22.761  1.00  0.00     0.025 C 
ENDBRANCH   7  10
BRANCH   3  13
HETATM   13  S   UNL     1       8.202   6.320  25.624  1.00  0.00    -0.134 SA
HETATM   14  C   UNL     1       9.409   7.023  26.729  1.00  0.00     0.095 C 
ENDBRANCH   3  13
TORSDOF 2
ENDMDL
MODEL 9
REMARK VINA RESULT:    -4.491      4.000      6.325
REMARK INTER + INTRA:          -5.312
REMARK INTER:                  -5.021
REMARK INTRA:                  -0.291
REMARK UNBOUND:                -0.295
REMARK  2 active torsions:
REMARK  status: ('A' for Active; 'I' for Inactive)
REMARK    1  A    between atoms: S_2  and  C_5 
REMARK    2  A    between atoms: C_9  and  C_11 
ROOT
HETATM    1  C   UNL     1       9.198   1.900  24.115  1.00  0.00     0.027 C 
HETATM    2  C   UNL     1      11.602   2.370  23.774  1.00  0.00     0.078 A 
HETATM    3  C   UNL     1       9.311   0.735  24.090  1.00  0.00     0.000 C 
HETATM    4  C   UNL     1      10.641   0.235  24.380  1.00  0.00     0.015 C 
HETATM    5  C   UNL     1      11.716   0.936  24.056  1.00  0.00    -0.011 C 
HETATM    6  C   UNL     1      10.117   2.894  24.144  1.00  0.00    -0.034 A 
HETATM    7  C   UNL     1      11.189   5.011  23.697  1.00  0.00     0.132 C 
HETATM    8  C   UNL     1      10.924   3.772  23.989  1.00  0.00     0.001 A 
HETATM    9  F   UNL     1      12.271   5.374  23.013  1.00  0.00    -0.205 F 
ENDROOT
BRANCH   7  10
HETATM   10  C   UNL     1      10.294   6.013  24.057  1.00  0.00    -0.016 C 
HETATM   11  C   UNL     1       9.229   6.381  23.232  1.00  0.00     0.025 C 
HETATM   12  C   UNL     1      10.488   6.801  25.155  1.00  0.00     0.025 C 
ENDBRANCH   7  10
BRANCH   3  13
HETATM   13  S   UNL     1       7.771  -0.263  23.541  1.00  0.00    -0.134 SA
HETATM   14  C   UNL     1       8.385  -0.797  21.958  1.00  0.00     0.095 C 
ENDBRANCH   3  13
TORSDOF 2
ENDMDL
