stable:False satoms:18 tatoms:24 sratio:0.75
  -OEChem-07092417343D

 24 25  0     1  0  0  0  0  0999 V2000
    7.8604   -3.3720   25.6669 C   0  0  0  0  0  0  0  0  0  0  0  0
    7.4910   -4.1014   26.3236 H   0  0  0  0  0  0  0  0  0  0  0  0
    9.6369   -3.4632   25.7190 S   0  0  0  0  0  0  0  0  0  0  0  0
    7.5891   -2.4041   25.9995 H   0  0  0  0  0  0  0  0  0  0  0  0
    7.5333   -3.5443   24.6638 H   0  0  0  0  0  0  0  0  0  0  0  0
    9.1406   -1.7184   23.7825 C   0  0  0  0  0  0  0  0  0  0  0  0
   10.6345   -0.7847   22.0450 C   0  0  3  0  0  0  0  0  0  0  0  0
   10.0031   -2.0181   24.5145 C   0  0  0  0  0  0  0  0  0  0  0  0
   11.2546   -1.3126   24.3216 C   0  0  0  0  0  0  0  0  0  0  0  0
   11.9057   -1.1535   25.1382 H   0  0  0  0  0  0  0  0  0  0  0  0
   12.6041   -0.5857   22.9287 H   0  0  0  0  0  0  0  0  0  0  0  0
   11.6253   -0.9019   23.1194 C   0  0  0  0  0  0  0  0  0  0  0  0
   11.1923   -0.6981   21.1389 H   0  0  0  0  0  0  0  0  0  0  0  0
    9.1444   -0.9950   22.6373 C   0  0  3  0  0  0  0  0  0  0  0  0
    8.5890   -0.2861   20.3957 C   0  0  0  0  0  0  0  0  0  0  0  0
    9.1721   -0.5110   21.5357 C   0  0  0  0  0  0  0  0  0  0  0  0
    5.6473    0.6564   21.3532 H   0  0  0  0  0  0  0  0  0  0  0  0
    7.2107   -0.1027   20.3485 C   0  0  0  0  0  0  0  0  0  0  0  0
    6.5414    0.1488   19.1496 C   0  5  0  0  0  0  0  0  0  0  0  0
    9.2484   -0.2718   19.2407 F   0  0  0  0  0  0  0  0  0  0  0  0
    5.5026    0.1078   19.0693 H   0  0  0  0  0  0  0  0  0  0  0  0
    7.0521    0.4544   18.2992 H   0  0  0  0  0  0  0  0  0  0  0  0
    6.4526   -0.0004   21.4803 C   0  0  0  0  0  0  0  0  0  0  0  0
    6.5526   -0.4327   22.4256 H   0  0  0  0  0  0  0  0  0  0  0  0
 19 22  1  0  0  0  0
 19 21  1  0  0  0  0
 18 19  1  0  0  0  0
 15 20  1  0  0  0  0
 15 18  1  0  0  0  0
 18 23  2  0  0  0  0
 15 16  2  0  0  0  0
  7 13  1  0  0  0  0
 17 23  1  0  0  0  0
 23 24  1  0  0  0  0
  7 16  1  0  0  0  0
 14 16  1  0  0  0  0
  7 14  1  0  0  0  0
  7 12  1  0  0  0  0
  6 14  1  0  0  0  0
 11 12  1  0  0  0  0
  9 12  2  0  0  0  0
  6  8  2  0  0  0  0
  8  9  1  0  0  0  0
  9 10  1  0  0  0  0
  3  8  1  0  0  0  0
  1  5  1  0  0  0  0
  1  3  1  0  0  0  0
  1  4  1  0  0  0  0
  1  2  1  0  0  0  0
M  CHG  1  19  -1
M  END
> <Shapegauss>
-146.193069

$$$$
