stable:False satoms:16 tatoms:24 sratio:0.6666666666666666
  -OEChem-07092417313D

 24 25  0     1  0  0  0  0  0999 V2000
    7.8124   -1.2834   23.8395 C   0  0  1  0  0  0  0  0  0  0  0  0
    9.4794   -2.3817   25.0515 N   0  0  0  0  0  0  0  0  0  0  0  0
    6.9766   -2.8335   23.4521 S   0  0  0  0  0  0  0  0  0  0  0  0
    6.4241   -3.1577   24.7792 O   0  0  0  0  0  0  0  0  0  0  0  0
    7.6187   -3.8608   22.7685 O   0  0  0  0  0  0  0  0  0  0  0  0
   10.0097   -1.2561   23.1740 N   0  0  0  0  0  0  0  0  0  0  0  0
    6.9806   -0.5986   23.9959 H   0  0  0  0  0  0  0  0  0  0  0  0
    8.4665   -1.5863   24.9901 O   0  0  0  0  0  0  0  0  0  0  0  0
   10.4228   -1.8262   24.3141 C   0  3  0  0  0  0  0  0  0  0  0  0
    9.5296    1.1051   22.1601 H   0  0  0  0  0  0  0  0  0  0  0  0
   11.4532   -1.8432   24.6271 H   0  0  0  0  0  0  0  0  0  0  0  0
   12.8165   -1.3804   23.0215 H   0  0  0  0  0  0  0  0  0  0  0  0
   12.6620   -0.3538   21.5417 H   0  0  0  0  0  0  0  0  0  0  0  0
   10.9339   -1.2057   22.1314 O   0  0  0  0  0  0  0  0  0  0  0  0
    6.4088   -2.2160   20.0410 H   0  0  0  0  0  0  0  0  0  0  0  0
    6.9194   -0.2448   20.3975 C   0  0  0  0  0  0  0  0  0  0  0  0
    6.4000   -1.9741   22.0168 O   0  0  0  0  0  0  0  0  0  0  0  0
    7.7938    0.6496   20.9917 C   0  0  0  0  0  0  0  0  0  0  0  0
    8.7995   -0.6987   22.8508 C   0  0  0  0  0  0  0  0  0  0  0  0
    6.4538    0.0784   19.4753 H   0  0  0  0  0  0  0  0  0  0  0  0
    7.7660    1.6573   20.5771 H   0  0  0  0  0  0  0  0  0  0  0  0
    8.7139    0.3904   22.0136 C   0  0  0  0  0  0  0  0  0  0  0  0
    6.5793   -1.5030   20.8230 C   0  3  0  0  0  0  0  0  0  0  0  0
   12.1636   -0.9669   22.2632 C   0  3  0  0  0  0  0  0  0  0  0  0
 16 20  1  0  0  0  0
 15 23  1  0  0  0  0
 16 23  1  0  0  0  0
 16 18  2  0  0  0  0
 18 21  1  0  0  0  0
 17 23  1  0  0  0  0
 18 22  1  0  0  0  0
 13 24  1  0  0  0  0
 10 22  1  0  0  0  0
 19 22  2  3  0  0  0
  3 17  1  0  0  0  0
 14 24  1  0  0  0  0
  6 14  1  0  0  0  0
 12 24  1  0  0  0  0
  3  5  2  0  0  0  0
  6 19  1  0  0  0  0
  1 19  1  0  0  0  0
  6  9  1  0  0  0  0
  1  3  1  0  0  0  0
  3  4  2  0  0  0  0
  1  7  1  0  0  0  0
  1  8  1  0  0  0  0
  9 11  1  0  0  0  0
  2  9  1  0  0  0  0
  2  8  1  0  0  0  0
M  CHG  3   9   1  23   1  24   1
M  END
> <Shapegauss>
-145.097366

$$$$
