MODEL 1
REMARK VINA RESULT:    -5.659      0.000      0.000
REMARK INTER + INTRA:          -6.086
REMARK INTER:                  -5.990
REMARK INTRA:                  -0.096
REMARK UNBOUND:                -0.096
REMARK  1 active torsions:
REMARK  status: ('A' for Active; 'I' for Inactive)
REMARK    1  A    between atoms: N_7  and  O_10 
ROOT
HETATM    1  C   UNL     1       9.747   1.179  21.821  1.00  0.00     0.354 C 
HETATM    2  N   UNL     1       7.642   2.181  21.973  1.00  0.00    -0.258 N 
ATOM      3  HN  UNL     1       6.737   2.032  21.527  1.00  0.00     0.195 HD
HETATM    4  S   UNL     1       9.037  -0.390  21.288  1.00  0.00     0.305 S 
HETATM    5  O   UNL     1       8.616  -0.024  19.924  1.00  0.00    -0.195 OA
HETATM    6  O   UNL     1       8.113  -1.080  22.068  1.00  0.00    -0.195 OA
HETATM    7  N   UNL     1       8.898   1.914  23.824  1.00  0.00    -0.217 N 
HETATM    8  O   UNL     1       8.805   2.072  21.425  1.00  0.00    -0.250 OA
HETATM    9  C   UNL     1       7.863   2.523  23.229  1.00  0.00     0.236 C 
HETATM   10  C   UNL     1      12.145  -0.867  23.766  1.00  0.00     0.025 C 
HETATM   11  O   UNL     1      10.481  -1.105  22.018  1.00  0.00    -0.243 OA
HETATM   12  C   UNL     1      12.240   0.477  24.087  1.00  0.00     0.004 C 
HETATM   13  C   UNL     1      10.050   1.402  23.288  1.00  0.00     0.090 C 
HETATM   14  C   UNL     1      11.243   1.453  23.973  1.00  0.00     0.032 C 
HETATM   15  C   UNL     1      11.161  -1.497  23.049  1.00  0.00     0.157 C 
ENDROOT
BRANCH   7  16
HETATM   16  O   UNL     1       8.821   1.763  25.208  1.00  0.00    -0.277 OA
HETATM   17  C   UNL     1       7.850   1.253  25.829  1.00  0.00     0.238 C 
ENDBRANCH   7  16
TORSDOF 1
ENDMDL
MODEL 2
REMARK VINA RESULT:    -5.551     23.303     24.794
REMARK INTER + INTRA:          -5.971
REMARK INTER:                  -5.879
REMARK INTRA:                  -0.092
REMARK UNBOUND:                -0.096
REMARK  1 active torsions:
REMARK  status: ('A' for Active; 'I' for Inactive)
REMARK    1  A    between atoms: N_7  and  O_10 
ROOT
HETATM    1  C   UNL     1       9.631  15.165   2.926  1.00  0.00     0.354 C 
HETATM    2  N   UNL     1       9.202  12.939   3.488  1.00  0.00    -0.258 N 
ATOM      3  HN  UNL     1       9.600  12.271   4.148  1.00  0.00     0.195 HD
HETATM    4  S   UNL     1      10.315  15.517   4.557  1.00  0.00     0.305 S 
HETATM    5  O   UNL     1      11.587  14.778   4.459  1.00  0.00    -0.195 OA
HETATM    6  O   UNL     1       9.571  15.338   5.719  1.00  0.00    -0.195 OA
HETATM    7  N   UNL     1       7.494  14.328   3.011  1.00  0.00    -0.217 N 
HETATM    8  O   UNL     1       9.839  13.830   2.806  1.00  0.00    -0.250 OA
HETATM    9  C   UNL     1       7.930  13.070   3.158  1.00  0.00     0.236 C 
HETATM   10  C   UNL     1       8.144  18.553   3.110  1.00  0.00     0.025 C 
HETATM   11  O   UNL     1       9.789  17.176   4.241  1.00  0.00    -0.243 OA
HETATM   12  C   UNL     1       7.656  17.838   2.029  1.00  0.00     0.004 C 
HETATM   13  C   UNL     1       8.172  15.463   2.649  1.00  0.00     0.090 C 
HETATM   14  C   UNL     1       7.571  16.447   1.897  1.00  0.00     0.032 C 
HETATM   15  C   UNL     1       8.868  18.085   4.176  1.00  0.00     0.157 C 
ENDROOT
BRANCH   7  16
HETATM   16  O   UNL     1       6.140  14.552   3.258  1.00  0.00    -0.277 OA
HETATM   17  C   UNL     1       5.271  13.652   3.402  1.00  0.00     0.238 C 
ENDBRANCH   7  16
TORSDOF 1
ENDMDL
MODEL 3
REMARK VINA RESULT:    -5.426      2.017      3.799
REMARK INTER + INTRA:          -5.840
REMARK INTER:                  -5.787
REMARK INTRA:                  -0.052
REMARK UNBOUND:                -0.096
REMARK  1 active torsions:
REMARK  status: ('A' for Active; 'I' for Inactive)
REMARK    1  A    between atoms: N_7  and  O_10 
ROOT
HETATM    1  C   UNL     1       8.162  -0.389  23.013  1.00  0.00     0.354 C 
HETATM    2  N   UNL     1       9.422  -2.243  22.357  1.00  0.00    -0.258 N 
ATOM      3  HN  UNL     1       9.419  -2.872  21.554  1.00  0.00     0.195 HD
HETATM    4  S   UNL     1       7.752   0.022  21.306  1.00  0.00     0.305 S 
HETATM    5  O   UNL     1       6.813  -1.072  21.004  1.00  0.00    -0.195 OA
HETATM    6  O   UNL     1       8.737   0.287  20.358  1.00  0.00    -0.195 OA
HETATM    7  N   UNL     1      10.425  -0.509  23.389  1.00  0.00    -0.217 N 
HETATM    8  O   UNL     1       8.397  -1.723  22.941  1.00  0.00    -0.250 OA
HETATM    9  C   UNL     1      10.479  -1.793  23.010  1.00  0.00     0.236 C 
HETATM   10  C   UNL     1       8.425   3.267  23.553  1.00  0.00     0.025 C 
HETATM   11  O   UNL     1       7.612   1.679  21.910  1.00  0.00    -0.243 OA
HETATM   12  C   UNL     1       8.891   2.553  24.645  1.00  0.00     0.004 C 
HETATM   13  C   UNL     1       9.345   0.284  23.679  1.00  0.00     0.090 C 
HETATM   14  C   UNL     1       9.410   1.253  24.654  1.00  0.00     0.032 C 
HETATM   15  C   UNL     1       8.138   2.799  22.297  1.00  0.00     0.157 C 
ENDROOT
BRANCH   7  16
HETATM   16  O   UNL     1      11.644   0.156  23.516  1.00  0.00    -0.277 OA
HETATM   17  C   UNL     1      12.646  -0.282  24.142  1.00  0.00     0.238 C 
ENDBRANCH   7  16
TORSDOF 1
ENDMDL
MODEL 4
REMARK VINA RESULT:    -5.363      6.245      7.140
REMARK INTER + INTRA:          -5.773
REMARK INTER:                  -5.686
REMARK INTRA:                  -0.087
REMARK UNBOUND:                -0.096
REMARK  1 active torsions:
REMARK  status: ('A' for Active; 'I' for Inactive)
REMARK    1  A    between atoms: N_7  and  O_10 
ROOT
HETATM    1  C   UNL     1       5.370  -4.391  23.003  1.00  0.00     0.354 C 
HETATM    2  N   UNL     1       4.179  -6.399  22.933  1.00  0.00    -0.258 N 
ATOM      3  HN  UNL     1       4.076  -7.155  22.257  1.00  0.00     0.195 HD
HETATM    4  S   UNL     1       6.622  -5.015  21.865  1.00  0.00     0.305 S 
HETATM    5  O   UNL     1       5.840  -5.027  20.616  1.00  0.00    -0.195 OA
HETATM    6  O   UNL     1       7.371  -6.152  22.151  1.00  0.00    -0.195 OA
HETATM    7  N   UNL     1       5.112  -5.710  24.865  1.00  0.00    -0.217 N 
HETATM    8  O   UNL     1       4.285  -5.139  22.679  1.00  0.00    -0.250 OA
HETATM    9  C   UNL     1       4.230  -6.509  24.249  1.00  0.00     0.236 C 
HETATM   10  C   UNL     1       8.175  -2.729  24.762  1.00  0.00     0.025 C 
HETATM   11  O   UNL     1       7.696  -3.865  22.674  1.00  0.00    -0.243 OA
HETATM   12  C   UNL     1       6.997  -2.650  25.487  1.00  0.00     0.004 C 
HETATM   13  C   UNL     1       5.605  -4.486  24.497  1.00  0.00     0.090 C 
HETATM   14  C   UNL     1       5.905  -3.523  25.434  1.00  0.00     0.032 C 
HETATM   15  C   UNL     1       8.445  -3.514  23.671  1.00  0.00     0.157 C 
ENDROOT
BRANCH   7  16
HETATM   16  O   UNL     1       5.629  -6.169  26.076  1.00  0.00    -0.277 OA
HETATM   17  C   UNL     1       4.994  -6.854  26.922  1.00  0.00     0.238 C 
ENDBRANCH   7  16
TORSDOF 1
ENDMDL
MODEL 5
REMARK VINA RESULT:    -5.301      2.482      4.347
REMARK INTER + INTRA:          -5.707
REMARK INTER:                  -5.616
REMARK INTRA:                  -0.092
REMARK UNBOUND:                -0.096
REMARK  1 active torsions:
REMARK  status: ('A' for Active; 'I' for Inactive)
REMARK    1  A    between atoms: N_7  and  O_10 
ROOT
HETATM    1  C   UNL     1      10.736   0.520  22.749  1.00  0.00     0.354 C 
HETATM    2  N   UNL     1      10.897  -1.802  22.950  1.00  0.00    -0.258 N 
ATOM      3  HN  UNL     1      11.438  -2.441  23.532  1.00  0.00     0.195 HD
HETATM    4  S   UNL     1      11.253   0.772  24.457  1.00  0.00     0.305 S 
HETATM    5  O   UNL     1      12.678   0.412  24.343  1.00  0.00    -0.195 OA
HETATM    6  O   UNL     1      10.549   0.225  25.526  1.00  0.00    -0.195 OA
HETATM    7  N   UNL     1       8.896  -0.843  22.560  1.00  0.00    -0.217 N 
HETATM    8  O   UNL     1      11.295  -0.681  22.451  1.00  0.00    -0.250 OA
HETATM    9  C   UNL     1       9.646  -1.952  22.553  1.00  0.00     0.236 C 
HETATM   10  C   UNL     1       8.397   3.336  23.318  1.00  0.00     0.025 C 
HETATM   11  O   UNL     1      10.314   2.268  24.350  1.00  0.00    -0.243 OA
HETATM   12  C   UNL     1       8.149   2.700  22.112  1.00  0.00     0.004 C 
HETATM   13  C   UNL     1       9.259   0.471  22.415  1.00  0.00     0.090 C 
HETATM   14  C   UNL     1       8.441   1.373  21.774  1.00  0.00     0.032 C 
HETATM   15  C   UNL     1       9.187   2.907  24.353  1.00  0.00     0.157 C 
ENDROOT
BRANCH   7  16
HETATM   16  O   UNL     1       7.525  -1.018  22.741  1.00  0.00    -0.277 OA
HETATM   17  C   UNL     1       6.893  -2.083  22.511  1.00  0.00     0.238 C 
ENDBRANCH   7  16
TORSDOF 1
ENDMDL
MODEL 6
REMARK VINA RESULT:    -5.276      6.970      8.724
REMARK INTER + INTRA:          -5.681
REMARK INTER:                  -5.595
REMARK INTRA:                  -0.086
REMARK UNBOUND:                -0.096
REMARK  1 active torsions:
REMARK  status: ('A' for Active; 'I' for Inactive)
REMARK    1  A    between atoms: N_7  and  O_10 
ROOT
HETATM    1  C   UNL     1       6.587  -4.461  27.344  1.00  0.00     0.354 C 
HETATM    2  N   UNL     1       8.495  -5.698  26.810  1.00  0.00    -0.258 N 
ATOM      3  HN  UNL     1       8.979  -6.495  27.223  1.00  0.00     0.195 HD
HETATM    4  S   UNL     1       5.848  -5.851  28.221  1.00  0.00     0.305 S 
HETATM    5  O   UNL     1       6.710  -5.880  29.416  1.00  0.00    -0.195 OA
HETATM    6  O   UNL     1       5.601  -7.068  27.592  1.00  0.00    -0.195 OA
HETATM    7  N   UNL     1       7.137  -4.960  25.170  1.00  0.00    -0.217 N 
HETATM    8  O   UNL     1       7.914  -4.732  27.436  1.00  0.00    -0.250 OA
HETATM    9  C   UNL     1       8.336  -5.444  25.523  1.00  0.00     0.236 C 
HETATM   10  C   UNL     1       3.159  -3.733  26.145  1.00  0.00     0.025 C 
HETATM   11  O   UNL     1       4.308  -5.093  27.790  1.00  0.00    -0.243 OA
HETATM   12  C   UNL     1       4.104  -2.959  25.492  1.00  0.00     0.004 C 
HETATM   13  C   UNL     1       6.234  -4.222  25.890  1.00  0.00     0.090 C 
HETATM   14  C   UNL     1       5.456  -3.259  25.289  1.00  0.00     0.032 C 
HETATM   15  C   UNL     1       3.367  -4.831  26.939  1.00  0.00     0.157 C 
ENDROOT
BRANCH   7  16
HETATM   16  O   UNL     1       6.712  -5.234  23.871  1.00  0.00    -0.277 OA
HETATM   17  C   UNL     1       7.461  -5.286  22.859  1.00  0.00     0.238 C 
ENDBRANCH   7  16
TORSDOF 1
ENDMDL
MODEL 7
REMARK VINA RESULT:    -5.069      2.416      3.179
REMARK INTER + INTRA:          -5.461
REMARK INTER:                  -5.378
REMARK INTRA:                  -0.083
REMARK UNBOUND:                -0.096
REMARK  1 active torsions:
REMARK  status: ('A' for Active; 'I' for Inactive)
REMARK    1  A    between atoms: N_7  and  O_10 
ROOT
HETATM    1  C   UNL     1       7.955   0.742  23.360  1.00  0.00     0.354 C 
HETATM    2  N   UNL     1       6.374  -0.721  22.455  1.00  0.00    -0.258 N 
ATOM      3  HN  UNL     1       5.826  -0.751  21.595  1.00  0.00     0.195 HD
HETATM    4  S   UNL     1       8.451   1.324  21.727  1.00  0.00     0.305 S 
HETATM    5  O   UNL     1       7.260   2.117  21.372  1.00  0.00    -0.195 OA
HETATM    6  O   UNL     1       8.943   0.456  20.757  1.00  0.00    -0.195 OA
HETATM    7  N   UNL     1       8.139  -1.536  23.595  1.00  0.00    -0.217 N 
HETATM    8  O   UNL     1       6.681   0.325  23.144  1.00  0.00    -0.250 OA
HETATM    9  C   UNL     1       6.916  -1.745  23.089  1.00  0.00     0.236 C 
HETATM   10  C   UNL     1      11.545   0.966  24.242  1.00  0.00     0.025 C 
HETATM   11  O   UNL     1      10.008   1.657  22.499  1.00  0.00    -0.243 OA
HETATM   12  C   UNL     1      10.814   0.328  25.231  1.00  0.00     0.004 C 
HETATM   13  C   UNL     1       8.733  -0.377  24.022  1.00  0.00     0.090 C 
HETATM   14  C   UNL     1       9.610  -0.371  25.082  1.00  0.00     0.032 C 
HETATM   15  C   UNL     1      11.154   1.270  22.964  1.00  0.00     0.157 C 
ENDROOT
BRANCH   7  16
HETATM   16  O   UNL     1       8.963  -2.654  23.719  1.00  0.00    -0.277 OA
HETATM   17  C   UNL     1       8.577  -3.804  24.059  1.00  0.00     0.238 C 
ENDBRANCH   7  16
TORSDOF 1
ENDMDL
MODEL 8
REMARK VINA RESULT:    -5.057      5.198      6.372
REMARK INTER + INTRA:          -5.449
REMARK INTER:                  -5.357
REMARK INTRA:                  -0.092
REMARK UNBOUND:                -0.096
REMARK  1 active torsions:
REMARK  status: ('A' for Active; 'I' for Inactive)
REMARK    1  A    between atoms: N_7  and  O_10 
ROOT
HETATM    1  C   UNL     1       7.080  -5.066  23.648  1.00  0.00     0.354 C 
HETATM    2  N   UNL     1       7.749  -3.492  22.057  1.00  0.00    -0.258 N 
ATOM      3  HN  UNL     1       7.306  -3.037  21.259  1.00  0.00     0.195 HD
HETATM    4  S   UNL     1       5.347  -4.596  23.484  1.00  0.00     0.305 S 
HETATM    5  O   UNL     1       5.061  -5.158  22.152  1.00  0.00    -0.195 OA
HETATM    6  O   UNL     1       4.913  -3.296  23.726  1.00  0.00    -0.195 OA
HETATM    7  N   UNL     1       8.442  -3.299  24.193  1.00  0.00    -0.217 N 
HETATM    8  O   UNL     1       7.591  -4.713  22.442  1.00  0.00    -0.250 OA
HETATM    9  C   UNL     1       8.602  -2.951  22.909  1.00  0.00     0.236 C 
HETATM   10  C   UNL     1       6.366  -5.428  27.265  1.00  0.00     0.025 C 
HETATM   11  O   UNL     1       5.204  -5.164  25.154  1.00  0.00    -0.243 OA
HETATM   12  C   UNL     1       7.723  -5.514  27.000  1.00  0.00     0.004 C 
HETATM   13  C   UNL     1       7.923  -4.442  24.742  1.00  0.00     0.090 C 
HETATM   14  C   UNL     1       8.416  -4.959  25.918  1.00  0.00     0.032 C 
HETATM   15  C   UNL     1       5.367  -5.002  26.429  1.00  0.00     0.157 C 
ENDROOT
BRANCH   7  16
HETATM   16  O   UNL     1       8.859  -2.371  25.147  1.00  0.00    -0.277 OA
HETATM   17  C   UNL     1       9.452  -1.289  24.894  1.00  0.00     0.238 C 
ENDBRANCH   7  16
TORSDOF 1
ENDMDL
MODEL 9
REMARK VINA RESULT:    -5.047      2.542      4.048
REMARK INTER + INTRA:          -5.438
REMARK INTER:                  -5.345
REMARK INTRA:                  -0.092
REMARK UNBOUND:                -0.096
REMARK  1 active torsions:
REMARK  status: ('A' for Active; 'I' for Inactive)
REMARK    1  A    between atoms: N_7  and  O_10 
ROOT
HETATM    1  C   UNL     1       8.677  -1.625  24.323  1.00  0.00     0.354 C 
HETATM    2  N   UNL     1       6.555  -1.432  23.366  1.00  0.00    -0.258 N 
ATOM      3  HN  UNL     1       5.648  -1.089  23.682  1.00  0.00     0.195 HD
HETATM    4  S   UNL     1       8.361  -0.266  25.464  1.00  0.00     0.305 S 
HETATM    5  O   UNL     1       7.401  -0.919  26.371  1.00  0.00    -0.195 OA
HETATM    6  O   UNL     1       8.035   1.010  25.013  1.00  0.00    -0.195 OA
HETATM    7  N   UNL     1       8.391  -1.035  22.122  1.00  0.00    -0.217 N 
HETATM    8  O   UNL     1       7.425  -2.081  24.062  1.00  0.00    -0.250 OA
HETATM    9  C   UNL     1       7.078  -1.302  22.160  1.00  0.00     0.236 C 
HETATM   10  C   UNL     1      12.116  -0.273  24.077  1.00  0.00     0.025 C 
HETATM   11  O   UNL     1      10.116  -0.043  25.427  1.00  0.00    -0.243 OA
HETATM   12  C   UNL     1      11.887  -1.263  23.136  1.00  0.00     0.004 C 
HETATM   13  C   UNL     1       9.384  -1.351  23.012  1.00  0.00     0.090 C 
HETATM   14  C   UNL     1      10.659  -1.648  22.586  1.00  0.00     0.032 C 
HETATM   15  C   UNL     1      11.198   0.383  24.855  1.00  0.00     0.157 C 
ENDROOT
BRANCH   7  16
HETATM   16  O   UNL     1       8.851  -0.325  21.014  1.00  0.00    -0.277 OA
HETATM   17  C   UNL     1       8.153  -0.012  20.012  1.00  0.00     0.238 C 
ENDBRANCH   7  16
TORSDOF 1
ENDMDL
