REMARK  1 active torsions:
REMARK  status: ('A' for Active; 'I' for Inactive)
REMARK    1  A    between atoms: N_7  and  O_10 
ROOT
HETATM    1  C   UNL     1       7.812  -1.283  23.840  1.00  0.00     0.354 C 
HETATM    2  N   UNL     1       9.479  -2.382  25.052  1.00  0.00    -0.258 N 
ATOM      3  HN  UNL     1       9.539  -3.261  25.566  1.00  0.00     0.195 HD
HETATM    4  S   UNL     1       6.977  -2.833  23.452  1.00  0.00     0.305 S 
HETATM    5  O   UNL     1       6.424  -3.158  24.779  1.00  0.00    -0.195 OA
HETATM    6  O   UNL     1       7.619  -3.861  22.768  1.00  0.00    -0.195 OA
HETATM    7  N   UNL     1      10.010  -1.256  23.174  1.00  0.00    -0.217 N 
HETATM    8  O   UNL     1       8.466  -1.586  24.990  1.00  0.00    -0.250 OA
HETATM    9  C   UNL     1      10.423  -1.826  24.314  1.00  0.00     0.236 C 
HETATM   10  C   UNL     1       6.919  -0.245  20.398  1.00  0.00     0.025 C 
HETATM   11  O   UNL     1       6.400  -1.974  22.017  1.00  0.00    -0.243 OA
HETATM   12  C   UNL     1       7.794   0.650  20.992  1.00  0.00     0.004 C 
HETATM   13  C   UNL     1       8.800  -0.699  22.851  1.00  0.00     0.090 C 
HETATM   14  C   UNL     1       8.714   0.390  22.014  1.00  0.00     0.032 C 
HETATM   15  C   UNL     1       6.579  -1.503  20.823  1.00  0.00     0.157 C 
ENDROOT
BRANCH   7  16
HETATM   16  O   UNL     1      10.934  -1.206  22.131  1.00  0.00    -0.277 OA
HETATM   17  C   UNL     1      12.164  -0.967  22.263  1.00  0.00     0.238 C 
ENDBRANCH   7  16
TORSDOF 1
