stable:False satoms:17 tatoms:24 sratio:0.7083333333333334
  -OEChem-08062405293D

 28 28  0     0  0  0  0  0  0999 V2000
   12.9050   -1.8191   22.8892 C   0  0  0  0  0  0  0  0  0  0  0  0
   13.5777   -1.1702   22.3732 H   0  0  0  0  0  0  0  0  0  0  0  0
   13.1431   -1.7453   23.9631 H   0  0  0  0  0  0  0  0  0  0  0  0
   13.0776   -2.8532   22.5739 H   0  0  0  0  0  0  0  0  0  0  0  0
   11.5514   -1.3930   22.6687 N   0  3  0  0  0  0  0  0  0  0  0  0
   10.4699   -2.2683   22.7121 C   0  0  0  0  0  2  0  0  0  0  0  0
    9.3051   -2.0957   22.5614 C   0  0  0  0  0  0  0  0  0  0  0  0
    7.9918   -3.8679   24.2100 C   0  0  0  0  0  0  0  0  0  0  0  0
    8.4116   -4.6029   23.5082 H   0  0  0  0  0  0  0  0  0  0  0  0
    7.1001   -4.3402   24.6313 H   0  0  0  0  0  0  0  0  0  0  0  0
    8.6308   -3.6836   25.0610 H   0  0  0  0  0  0  0  0  0  0  0  0
    7.6119   -2.5917   23.7535 O   0  0  0  0  0  0  0  0  0  0  0  0
    7.9861   -2.1206   22.6036 C   0  0  0  0  0  0  0  0  0  0  0  0
    7.0221   -1.7015   21.5423 C   0  0  0  0  0  0  0  0  0  0  0  0
    5.9960   -2.3321   21.3793 O   0  0  0  0  0  0  0  0  0  0  0  0
    7.3829   -0.6379   20.8094 N   0  0  0  0  0  0  0  0  0  0  0  0
    6.5906    0.1144   20.0231 C   0  0  0  0  0  0  0  0  0  0  0  0
    5.5964    0.9252   20.4352 N   0  0  0  0  0  0  0  0  0  0  0  0
    4.8680    1.5932   19.6004 N   0  0  0  0  0  0  0  0  0  0  0  0
    4.9952    1.5059   18.3643 N   0  0  0  0  0  0  0  0  0  0  0  0
    6.0441    0.8352   17.9107 O   0  0  0  0  0  0  0  0  0  0  0  0
    6.9167    0.1916   18.6515 C   0  0  0  0  0  0  0  0  0  0  0  0
    7.8199   -0.2303   18.2550 H   0  0  0  0  0  0  0  0  0  0  0  0
   11.5364   -0.9797   21.7582 H   0  0  0  0  0  0  0  0  0  0  0  0
    9.3904   -1.3220   21.8128 H   0  0  0  0  0  0  0  0  0  0  0  0
    8.3467   -0.3746   20.8517 H   0  0  0  0  0  0  0  0  0  0  0  0
    4.3342    1.9240   17.7412 H   0  0  0  0  0  0  0  0  0  0  0  0
   11.3669   -0.6910   23.3565 H   0  0  0  0  0  0  0  0  0  0  0  0
 19 20  1  0  0  0  0
 18 19  2  0  0  0  0
 20 21  1  0  0  0  0
 17 18  1  0  0  0  0
 21 22  1  0  0  0  0
 17 22  2  0  0  0  0
 16 17  1  0  0  0  0
 22 23  1  0  0  0  0
 14 16  1  0  0  0  0
 14 15  2  0  0  0  0
 13 14  1  0  0  0  0
 12 13  1  0  0  0  0
  8 12  1  0  0  0  0
  7 13  2  0  0  0  0
  8 10  1  0  0  0  0
  6  7  1  0  0  0  0
  8 11  1  0  0  0  0
  8  9  1  0  0  0  0
  5  6  1  0  0  0  0
  1  5  1  0  0  0  0
  1  3  1  0  0  0  0
  1  2  1  0  0  0  0
  1  4  1  0  0  0  0
  5 24  1  0  0  0  0
  7 25  1  0  0  0  0
 16 26  1  0  0  0  0
 20 27  1  0  0  0  0
  5 28  1  0  0  0  0
M  CHG  1   5   1
M  END
> <Chemgauss4>
-5.708490

$$$$
