stable:False satoms:17 tatoms:24 sratio:0.7083333333333334
  -OEChem-08062405293D

 28 28  0     0  0  0  0  0  0999 V2000
  -10.4502    6.9840  -23.6499 C   0  0  0  0  0  0  0  0  0  0  0  0
  -11.3985    7.4005  -23.3904 H   0  0  0  0  0  0  0  0  0  0  0  0
   -9.6980    7.4607  -23.0001 H   0  0  0  0  0  0  0  0  0  0  0  0
  -10.2101    7.2359  -24.6880 H   0  0  0  0  0  0  0  0  0  0  0  0
  -10.4588    5.5676  -23.4131 N   0  3  0  0  0  0  0  0  0  0  0  0
   -9.6520    4.6809  -24.1206 C   0  0  0  0  0  2  0  0  0  0  0  0
   -9.5262    3.5022  -24.0578 C   0  0  0  0  0  0  0  0  0  0  0  0
   -6.8966    2.9244  -24.6359 C   0  0  0  0  0  0  0  0  0  0  0  0
   -7.1943    3.2720  -25.6357 H   0  0  0  0  0  0  0  0  0  0  0  0
   -6.0536    2.2474  -24.7995 H   0  0  0  0  0  0  0  0  0  0  0  0
   -6.4968    3.7133  -24.0161 H   0  0  0  0  0  0  0  0  0  0  0  0
   -7.8218    2.2487  -23.8180 O   0  0  0  0  0  0  0  0  0  0  0  0
   -9.0979    2.2537  -24.0543 C   0  0  0  0  0  0  0  0  0  0  0  0
   -9.8886    1.0075  -24.2843 C   0  0  0  0  0  0  0  0  0  0  0  0
   -9.3915    0.0853  -24.9002 O   0  0  0  0  0  0  0  0  0  0  0  0
  -11.1379    1.0074  -23.7963 N   0  0  0  0  0  0  0  0  0  0  0  0
  -11.9330   -0.0604  -23.5971 C   0  0  0  0  0  0  0  0  0  0  0  0
  -11.7408   -1.0400  -22.6921 N   0  0  0  0  0  0  0  0  0  0  0  0
  -12.5490   -2.0452  -22.5901 N   0  0  0  0  0  0  0  0  0  0  0  0
  -13.5296   -2.2093  -23.3404 N   0  0  0  0  0  0  0  0  0  0  0  0
  -13.8444   -1.2094  -24.1509 O   0  0  0  0  0  0  0  0  0  0  0  0
  -13.1660   -0.0930  -24.2843 C   0  0  0  0  0  0  0  0  0  0  0  0
  -13.5233    0.7421  -24.8553 H   0  0  0  0  0  0  0  0  0  0  0  0
  -11.4003    5.2673  -23.5661 H   0  0  0  0  0  0  0  0  0  0  0  0
  -10.5562    3.2803  -23.8207 H   0  0  0  0  0  0  0  0  0  0  0  0
  -11.5209    1.8987  -23.5538 H   0  0  0  0  0  0  0  0  0  0  0  0
  -14.0567   -3.0591  -23.3315 H   0  0  0  0  0  0  0  0  0  0  0  0
  -10.2231    5.4470  -22.4488 H   0  0  0  0  0  0  0  0  0  0  0  0
 19 20  1  0  0  0  0
 18 19  2  0  0  0  0
 20 21  1  0  0  0  0
 17 18  1  0  0  0  0
 21 22  1  0  0  0  0
 17 22  2  0  0  0  0
 16 17  1  0  0  0  0
 22 23  1  0  0  0  0
 14 16  1  0  0  0  0
 14 15  2  0  0  0  0
 13 14  1  0  0  0  0
 12 13  1  0  0  0  0
  8 12  1  0  0  0  0
  7 13  2  0  0  0  0
  8 10  1  0  0  0  0
  6  7  1  0  0  0  0
  8 11  1  0  0  0  0
  8  9  1  0  0  0  0
  5  6  1  0  0  0  0
  1  5  1  0  0  0  0
  1  3  1  0  0  0  0
  1  2  1  0  0  0  0
  1  4  1  0  0  0  0
  5 24  1  0  0  0  0
  7 25  1  0  0  0  0
 16 26  1  0  0  0  0
 20 27  1  0  0  0  0
  5 28  1  0  0  0  0
M  CHG  1   5   1
M  END
> <Chemgauss4>
-5.825099

$$$$
