stable:False satoms:19 tatoms:24 sratio:0.7916666666666666
  -OEChem-07092417273D

 24 23  0     1  0  0  0  0  0999 V2000
    6.3830    0.5029   21.5802 N   0  0  0  0  0  0  0  0  0  0  0  0
    6.3610   -4.5099   21.7367 H   0  0  0  0  0  0  0  0  0  0  0  0
    5.4644   -2.4869   20.9960 H   0  0  0  0  0  0  0  0  0  0  0  0
    8.1790   -3.5953   24.3950 H   0  0  0  0  0  0  0  0  0  0  0  0
    8.3591    0.3274   24.8756 H   0  0  0  0  0  0  0  0  0  0  0  0
    9.6283   -2.6077   24.3151 H   0  0  0  0  0  0  0  0  0  0  0  0
   10.3078    0.0674   19.9297 H   0  0  0  0  0  0  0  0  0  0  0  0
   11.0954    0.1930   21.9400 C   0  0  0  0  0  0  0  0  0  0  0  0
   12.0744    0.0802   20.0399 H   0  0  0  0  0  0  0  0  0  0  0  0
   11.1632   -1.3757   20.4516 H   0  0  0  0  0  0  0  0  0  0  0  0
    8.8112    0.2928   23.8941 C   0  0  0  0  0  0  0  0  0  0  0  0
    6.6184   -3.7722   22.3400 N   0  0  0  0  0  0  0  0  0  0  0  0
    8.0199   -1.8779   23.2048 C   0  0  2  0  0  0  0  0  0  0  0  0
    8.5448   -2.5828   24.3395 C   0  0  0  0  0  0  0  0  0  0  0  0
    8.1210   -0.6070   22.9910 N   0  0  0  0  0  0  0  0  0  0  0  0
   11.9428   -0.1999   22.7353 O   0  5  0  0  0  0  0  0  0  0  0  0
    6.1374   -2.3915   21.6662 N   0  0  0  0  0  0  0  0  0  0  0  0
    8.2628   -2.0382   25.2359 H   0  0  0  0  0  0  0  0  0  0  0  0
    8.7360    1.2810   23.4497 H   0  0  0  0  0  0  0  0  0  0  0  0
    7.1714   -0.0298   22.1765 C   0  0  0  0  0  0  0  0  0  0  0  0
   10.2070    1.0092   22.1531 O   0  0  0  0  0  0  0  0  0  0  0  0
   11.1644   -0.3021   20.4730 C   0  0  0  0  0  0  0  0  0  0  0  0
    9.8461   -0.0081   24.0001 H   0  0  0  0  0  0  0  0  0  0  0  0
    6.9853   -2.6589   22.3777 C   0  0  0  0  0  0  0  0  0  0  0  0
  7 22  1  0  0  0  0
  9 22  1  0  0  0  0
 10 22  1  0  0  0  0
  8 22  1  0  0  0  0
  3 17  1  0  0  0  0
  1 20  2  0  0  0  0
 12 17  1  0  0  0  0
 17 24  1  0  0  0  0
  2 12  1  0  0  0  0
  8 21  2  0  0  0  0
  8 16  1  0  0  0  0
 15 20  1  0  0  0  0
 12 24  1  0  0  0  0
 13 24  1  0  0  0  0
 13 15  1  0  0  0  0
 11 15  1  0  0  0  0
 13 14  1  0  0  0  0
 11 19  1  0  0  0  0
 11 23  1  0  0  0  0
  5 11  1  0  0  0  0
  6 14  1  0  0  0  0
  4 14  1  0  0  0  0
 14 18  1  0  0  0  0
M  CHG  1  16  -1
M  END
> <Shapegauss>
-102.237358

$$$$
