stable:False satoms:22 tatoms:24 sratio:0.9166666666666666
  -OEChem-07092417353D

 24 24  0     1  0  0  0  0  0999 V2000
    7.4007   -3.8619   25.9972 H   0  0  0  0  0  0  0  0  0  0  0  0
    8.8530   -4.9873   26.0960 H   0  0  0  0  0  0  0  0  0  0  0  0
    8.3377   -4.2015   25.6312 C   0  0  0  0  0  0  0  0  0  0  0  0
    8.4360   -1.6569   25.2590 O   0  0  0  0  0  0  0  0  0  0  0  0
    8.7690   -2.3091   24.2815 C   0  0  0  0  0  0  0  0  0  0  0  0
    8.7219   -3.4938   24.6707 C   0  0  0  0  0  0  0  0  0  0  0  0
    9.3267   -1.7792   22.9058 C   0  0  2  0  0  0  0  0  0  0  0  0
   10.7025   -1.9658   23.0585 O   0  0  0  0  0  0  0  0  0  0  0  0
   11.4316   -0.8316   23.4476 C   0  0  0  0  0  0  0  0  0  0  0  0
   10.8181   -0.0392   23.8807 H   0  0  0  0  0  0  0  0  0  0  0  0
   11.9836   -0.4458   22.6067 H   0  0  0  0  0  0  0  0  0  0  0  0
   12.1330   -1.1959   24.1814 H   0  0  0  0  0  0  0  0  0  0  0  0
    9.1445   -0.7207   21.9148 C   0  0  2  0  0  0  0  0  0  0  0  0
    8.2194    0.4293   21.9780 O   0  0  0  0  0  0  0  0  0  0  0  0
    9.9699   -0.3007   21.3262 H   0  0  0  0  0  0  0  0  0  0  0  0
    7.0824    0.4341   21.1381 C   0  0  0  0  0  0  0  0  0  0  0  0
    7.7813   -2.2333   21.0944 H   0  0  0  0  0  0  0  0  0  0  0  0
    8.4879   -1.7467   21.7096 C   0  5  3  0  0  0  0  0  0  0  0  0
    7.9828    1.4146   19.4903 H   0  0  0  0  0  0  0  0  0  0  0  0
    7.5767   -0.2177   19.0996 H   0  0  0  0  0  0  0  0  0  0  0  0
    6.3100    0.9790   19.1713 H   0  0  0  0  0  0  0  0  0  0  0  0
    6.4410   -0.4368   21.1340 H   0  0  0  0  0  0  0  0  0  0  0  0
    7.2370    0.6628   19.6329 C   0  0  0  0  0  0  0  0  0  0  0  0
    6.4372    1.2138   21.5913 H   0  0  0  0  0  0  0  0  0  0  0  0
 20 23  1  0  0  0  0
 21 23  1  0  0  0  0
 19 23  1  0  0  0  0
 16 23  1  0  0  0  0
 17 18  1  0  0  0  0
 16 22  1  0  0  0  0
 16 24  1  0  0  0  0
 14 16  1  0  0  0  0
 13 15  1  0  0  0  0
 13 18  1  0  0  0  0
  7 18  1  0  0  0  0
 13 14  1  0  0  0  0
  7 13  1  0  0  0  0
  9 11  1  0  0  0  0
  7  8  1  0  0  0  0
  5  7  1  0  0  0  0
  8  9  1  0  0  0  0
  9 10  1  0  0  0  0
  9 12  1  0  0  0  0
  5  6  1  0  0  0  0
  4  5  2  0  0  0  0
  3  6  2  0  0  0  0
  1  3  1  0  0  0  0
  2  3  1  0  0  0  0
M  CHG  1  18  -1
M  END
> <Shapegauss>
-121.475243

$$$$
