stable:False satoms:22 tatoms:24 sratio:0.9166666666666666
  -OEChem-08062400093D

 26 26  0     1  0  0  0  0  0999 V2000
  -10.2282    3.4356  -23.2158 H   0  0  0  0  0  0  0  0  0  0  0  0
  -11.7622    3.8970  -24.1210 H   0  0  0  0  0  0  0  0  0  0  0  0
  -11.0742    3.1735  -23.8014 C   0  0  0  0  0  0  0  0  0  0  0  0
  -10.8296    1.1892  -22.1809 O   0  0  0  0  0  0  0  0  0  0  0  0
  -10.9725    0.8557  -23.3472 C   0  0  0  0  0  0  0  0  0  0  0  0
  -11.1384    1.9315  -23.9573 C   0  0  0  0  0  0  0  0  0  0  0  0
  -11.1188   -0.6021  -23.9284 C   0  0  2  0  0  0  0  0  0  0  0  0
  -12.5010   -0.7106  -24.0972 O   0  0  0  0  0  0  0  0  0  0  0  0
  -13.1899   -1.3747  -23.0706 C   0  0  0  0  0  0  0  0  0  0  0  0
  -12.6284   -1.4478  -22.1372 H   0  0  0  0  0  0  0  0  0  0  0  0
  -13.4768   -2.3594  -23.4006 H   0  0  0  0  0  0  0  0  0  0  0  0
  -14.0828   -0.7897  -22.9175 H   0  0  0  0  0  0  0  0  0  0  0  0
  -10.5953   -1.9597  -23.7909 C   0  0  2  0  0  0  0  0  0  0  0  0
   -9.6073   -2.4541  -22.8104 O   0  0  0  0  0  0  0  0  0  0  0  0
  -11.2048   -2.8575  -23.9536 H   0  0  0  0  0  0  0  0  0  0  0  0
   -8.3031   -2.7660  -23.2576 C   0  0  0  0  0  0  0  0  0  0  0  0
   -8.9818   -0.9279  -24.4165 H   0  0  0  0  0  0  0  0  0  0  0  0
  -10.0113   -1.2565  -24.6218 C   0  0  3  0  0  0  0  0  0  0  0  0
   -8.6687   -4.8005  -23.7209 H   0  0  0  0  0  0  0  0  0  0  0  0
   -8.3393   -3.8848  -25.1475 H   0  0  0  0  0  0  0  0  0  0  0  0
   -7.0194   -4.3200  -24.0937 H   0  0  0  0  0  0  0  0  0  0  0  0
   -7.7683   -2.0289  -23.8412 H   0  0  0  0  0  0  0  0  0  0  0  0
   -8.0579   -4.0140  -24.1086 C   0  0  0  0  0  0  0  0  0  0  0  0
   -7.7172   -2.8086  -22.3171 H   0  0  0  0  0  0  0  0  0  0  0  0
  -11.4430    1.7186  -24.9714 H   0  0  0  0  0  0  0  0  0  0  0  0
  -10.1142   -1.4936  -25.6911 H   0  0  0  0  0  0  0  0  0  0  0  0
 20 23  1  0  0  0  0
 21 23  1  0  0  0  0
 19 23  1  0  0  0  0
 16 23  1  0  0  0  0
 17 18  1  0  0  0  0
 16 22  1  0  0  0  0
 16 24  1  0  0  0  0
 14 16  1  0  0  0  0
 13 15  1  0  0  0  0
 13 18  1  0  0  0  0
  7 18  1  0  0  0  0
 13 14  1  0  0  0  0
  7 13  1  0  0  0  0
  9 11  1  0  0  0  0
  7  8  1  0  0  0  0
  5  7  1  0  0  0  0
  8  9  1  0  0  0  0
  9 10  1  0  0  0  0
  9 12  1  0  0  0  0
  5  6  1  0  0  0  0
  4  5  2  0  0  0  0
  3  6  2  0  0  0  0
  1  3  1  0  0  0  0
  2  3  1  0  0  0  0
  6 25  1  0  0  0  0
 18 26  1  0  0  0  0
M  END
> <Chemgauss4>
-5.708421

$$$$
