stable:False satoms:22 tatoms:24 sratio:0.9166666666666666
  -OEChem-08062400093D

 26 26  0     1  0  0  0  0  0999 V2000
    6.2125    0.3674   20.8989 H   0  0  0  0  0  0  0  0  0  0  0  0
    5.5364   -1.0738   19.9762 H   0  0  0  0  0  0  0  0  0  0  0  0
    6.2642   -0.6503   20.6007 C   0  0  0  0  0  0  0  0  0  0  0  0
    7.1228   -0.6926   23.0264 O   0  0  0  0  0  0  0  0  0  0  0  0
    7.8343   -1.3028   22.2433 C   0  0  0  0  0  0  0  0  0  0  0  0
    7.2301   -1.2264   21.1541 C   0  0  0  0  0  0  0  0  0  0  0  0
    9.1153   -2.1632   22.5644 C   0  0  2  0  0  0  0  0  0  0  0  0
    8.6017   -3.4621   22.5601 O   0  0  0  0  0  0  0  0  0  0  0  0
    8.2938   -3.9996   23.8193 C   0  0  0  0  0  0  0  0  0  0  0  0
    8.1951   -3.2504   24.6073 H   0  0  0  0  0  0  0  0  0  0  0  0
    9.0391   -4.7256   24.0989 H   0  0  0  0  0  0  0  0  0  0  0  0
    7.3540   -4.5091   23.6768 H   0  0  0  0  0  0  0  0  0  0  0  0
   10.3189   -2.1802   23.3931 C   0  0  2  0  0  0  0  0  0  0  0  0
   10.7200   -1.2046   24.4273 O   0  0  0  0  0  0  0  0  0  0  0  0
   10.7664   -3.1032   23.7829 H   0  0  0  0  0  0  0  0  0  0  0  0
   11.7901   -0.3231   24.1518 C   0  0  0  0  0  0  0  0  0  0  0  0
   10.6190   -0.5731   22.2157 H   0  0  0  0  0  0  0  0  0  0  0  0
   10.4575   -1.6592   22.2817 C   0  0  3  0  0  0  0  0  0  0  0  0
   13.3407   -1.5577   24.8992 H   0  0  0  0  0  0  0  0  0  0  0  0
   13.4691   -1.3612   23.1884 H   0  0  0  0  0  0  0  0  0  0  0  0
   13.9537   -0.0511   24.2327 H   0  0  0  0  0  0  0  0  0  0  0  0
   11.7667    0.2440   23.2310 H   0  0  0  0  0  0  0  0  0  0  0  0
   13.2279   -0.8453   24.1108 C   0  0  0  0  0  0  0  0  0  0  0  0
   11.6772    0.4611   24.9276 H   0  0  0  0  0  0  0  0  0  0  0  0
    7.7036   -1.8849   20.4410 H   0  0  0  0  0  0  0  0  0  0  0  0
   11.0722   -2.1679   21.5246 H   0  0  0  0  0  0  0  0  0  0  0  0
 20 23  1  0  0  0  0
 21 23  1  0  0  0  0
 19 23  1  0  0  0  0
 16 23  1  0  0  0  0
 17 18  1  0  0  0  0
 16 22  1  0  0  0  0
 16 24  1  0  0  0  0
 14 16  1  0  0  0  0
 13 15  1  0  0  0  0
 13 18  1  0  0  0  0
  7 18  1  0  0  0  0
 13 14  1  0  0  0  0
  7 13  1  0  0  0  0
  9 11  1  0  0  0  0
  7  8  1  0  0  0  0
  5  7  1  0  0  0  0
  8  9  1  0  0  0  0
  9 10  1  0  0  0  0
  9 12  1  0  0  0  0
  5  6  1  0  0  0  0
  4  5  2  0  0  0  0
  3  6  2  0  0  0  0
  1  3  1  0  0  0  0
  2  3  1  0  0  0  0
  6 25  1  0  0  0  0
 18 26  1  0  0  0  0
M  END
> <Chemgauss4>
-5.628484

$$$$
