stable:False satoms:9 tatoms:24 sratio:0.375
  -OEChem-08062412553D

 40 42  0     1  0  0  0  0  0999 V2000
    5.9126   -5.1267   25.9610 C   0  0  0  0  0  0  0  0  0  0  0  0
    7.3930   -4.6537   25.9115 S   0  0  0  0  0  0  0  0  0  0  0  0
    8.2935   -5.7926   25.8153 O   0  0  0  0  0  0  0  0  0  0  0  0
    7.7249   -3.8407   27.0378 O   0  0  0  0  0  0  0  0  0  0  0  0
    7.5491   -3.7992   24.5012 N   0  0  0  0  0  0  0  0  0  0  0  0
    8.4360   -3.1780   24.1584 C   0  0  0  0  0  0  0  0  0  0  0  0
    9.0140   -2.1649   23.6095 C   0  0  0  0  0  0  0  0  0  0  0  0
   10.0373   -1.3632   23.5423 C   0  0  1  0  0  0  0  0  0  0  0  0
   10.5551   -0.3998   24.6718 C   0  0  0  0  0  0  0  0  0  0  0  0
   11.5610   -0.0451   24.8186 C   0  0  0  0  0  0  0  0  0  0  0  0
   12.7176   -0.4754   24.1296 C   0  0  0  0  0  0  0  0  0  0  0  0
   12.5422   -1.4808   23.2378 C   0  0  0  0  0  0  0  0  0  0  0  0
   11.4042   -1.9226   23.0215 C   0  0  0  0  0  0  0  0  0  0  0  0
    9.3701   -0.8227   22.6614 C   0  0  3  0  0  0  0  0  0  0  0  0
    8.9148   -0.0374   21.6123 C   0  0  0  0  0  0  0  0  0  0  0  0
    9.4794    0.9463   21.3219 O   0  0  0  0  0  0  0  0  0  0  0  0
    7.8215   -0.5929   21.1877 N   0  0  0  0  0  0  0  0  0  0  0  0
    7.1650   -0.0482   20.2157 C   0  0  0  0  0  0  0  0  0  0  0  0
    7.3570    0.1037   18.9390 C   0  0  0  0  0  0  0  0  0  0  0  0
    7.0467    0.4659   17.8150 N   0  0  0  0  0  0  0  0  0  0  0  0
    5.9143    1.0342   18.1805 C   0  0  0  0  0  0  0  0  0  0  0  0
    5.4006    1.0406   19.2938 C   0  0  0  0  0  0  0  0  0  0  0  0
    5.7847    0.5779   20.4577 C   0  0  0  0  0  0  0  0  0  0  0  0
    5.0962    0.6567   21.8665 Cl  0  0  0  0  0  0  0  0  0  0  0  0
    5.7424   -5.7049   26.8813 H   0  0  0  0  0  0  0  0  0  0  0  0
    5.2474   -4.2507   25.9502 H   0  0  0  0  0  0  0  0  0  0  0  0
    5.7004   -5.7591   25.0864 H   0  0  0  0  0  0  0  0  0  0  0  0
    6.7784   -3.1620   24.5037 H   0  0  0  0  0  0  0  0  0  0  0  0
    9.2753   -3.7813   24.4711 H   0  0  0  0  0  0  0  0  0  0  0  0
    9.8177   -0.0544   25.3813 H   0  0  0  0  0  0  0  0  0  0  0  0
   11.7007    0.7181   25.5699 H   0  0  0  0  0  0  0  0  0  0  0  0
   13.6854   -0.0287   24.3037 H   0  0  0  0  0  0  0  0  0  0  0  0
   13.3921   -1.8963   22.7167 H   0  0  0  0  0  0  0  0  0  0  0  0
   11.3074   -1.9180   21.9257 H   0  0  0  0  0  0  0  0  0  0  0  0
   11.4356   -2.9612   23.3824 H   0  0  0  0  0  0  0  0  0  0  0  0
    8.8955   -0.1553   23.3959 H   0  0  0  0  0  0  0  0  0  0  0  0
    7.4889   -1.4365   21.6092 H   0  0  0  0  0  0  0  0  0  0  0  0
    8.3333   -0.3333   18.7895 H   0  0  0  0  0  0  0  0  0  0  0  0
    5.3739    1.5572   17.4054 H   0  0  0  0  0  0  0  0  0  0  0  0
    4.4362    1.5261   19.3204 H   0  0  0  0  0  0  0  0  0  0  0  0
 20 21  2  0  0  0  0
 19 20  1  0  0  0  0
 21 22  1  0  0  0  0
 18 19  2  0  0  0  0
 22 23  2  0  0  0  0
 18 23  1  0  0  0  0
 17 18  1  0  0  0  0
 23 24  1  0  0  0  0
 15 16  2  0  0  0  0
 15 17  1  0  0  0  0
 14 15  1  0  0  0  0
  8 14  1  0  0  0  0
  7 14  1  0  0  0  0
 12 13  1  0  0  0  0
  8 13  1  0  0  0  0
 11 12  2  0  0  0  0
  7  8  1  0  0  0  0
  8  9  1  0  0  0  0
 10 11  1  0  0  0  0
  6  7  2  0  0  0  0
  5  6  1  0  0  0  0
  9 10  2  0  0  0  0
  2  5  1  0  0  0  0
  2  3  2  0  0  0  0
  1  2  1  0  0  0  0
  2  4  2  0  0  0  0
  1 25  1  0  0  0  0
  1 26  1  0  0  0  0
  1 27  1  0  0  0  0
  5 28  1  0  0  0  0
  6 29  1  0  0  0  0
  9 30  1  0  0  0  0
 10 31  1  0  0  0  0
 11 32  1  0  0  0  0
 12 33  1  0  0  0  0
 13 34  1  0  0  0  0
 13 35  1  0  0  0  0
 14 36  1  0  0  0  0
 17 37  1  0  0  0  0
 19 38  1  0  0  0  0
 21 39  1  0  0  0  0
 22 40  1  0  0  0  0
M  END
> <Chemgauss4>
-12.910737

$$$$
