stable:False satoms:9 tatoms:24 sratio:0.375
  -OEChem-08062412543D

 40 42  0     1  0  0  0  0  0999 V2000
   -5.9878   -5.0659  -25.7013 C   0  0  0  0  0  0  0  0  0  0  0  0
   -7.4683   -4.5929  -25.6517 S   0  0  0  0  0  0  0  0  0  0  0  0
   -8.3688   -5.7318  -25.5555 O   0  0  0  0  0  0  0  0  0  0  0  0
   -7.8002   -3.7799  -26.7780 O   0  0  0  0  0  0  0  0  0  0  0  0
   -7.6244   -3.7384  -24.2415 N   0  0  0  0  0  0  0  0  0  0  0  0
   -8.5112   -3.1172  -23.8986 C   0  0  0  0  0  0  0  0  0  0  0  0
   -9.0893   -2.1040  -23.3497 C   0  0  0  0  0  0  0  0  0  0  0  0
  -10.1126   -1.3024  -23.2825 C   0  0  1  0  0  0  0  0  0  0  0  0
  -10.6303   -0.3390  -24.4120 C   0  0  0  0  0  0  0  0  0  0  0  0
  -11.6363    0.0157  -24.5589 C   0  0  0  0  0  0  0  0  0  0  0  0
  -12.7929   -0.4146  -23.8698 C   0  0  0  0  0  0  0  0  0  0  0  0
  -12.6175   -1.4200  -22.9780 C   0  0  0  0  0  0  0  0  0  0  0  0
  -11.4794   -1.8618  -22.7617 C   0  0  0  0  0  0  0  0  0  0  0  0
   -9.4454   -0.7619  -22.4016 C   0  0  3  0  0  0  0  0  0  0  0  0
   -8.9900    0.0234  -21.3526 C   0  0  0  0  0  0  0  0  0  0  0  0
   -9.5547    1.0071  -21.0622 O   0  0  0  0  0  0  0  0  0  0  0  0
   -7.8967   -0.5321  -20.9279 N   0  0  0  0  0  0  0  0  0  0  0  0
   -7.2403    0.0127  -19.9559 C   0  0  0  0  0  0  0  0  0  0  0  0
   -7.4323    0.1645  -18.6793 C   0  0  0  0  0  0  0  0  0  0  0  0
   -7.1219    0.5267  -17.5553 N   0  0  0  0  0  0  0  0  0  0  0  0
   -5.9896    1.0950  -17.9207 C   0  0  0  0  0  0  0  0  0  0  0  0
   -5.4759    1.1015  -19.0341 C   0  0  0  0  0  0  0  0  0  0  0  0
   -5.8600    0.6387  -20.1979 C   0  0  0  0  0  0  0  0  0  0  0  0
   -5.1714    0.7175  -21.6068 Cl  0  0  0  0  0  0  0  0  0  0  0  0
   -5.8177   -5.6440  -26.6215 H   0  0  0  0  0  0  0  0  0  0  0  0
   -5.3226   -4.1899  -25.6905 H   0  0  0  0  0  0  0  0  0  0  0  0
   -5.7756   -5.6983  -24.8266 H   0  0  0  0  0  0  0  0  0  0  0  0
   -6.8536   -3.1012  -24.2439 H   0  0  0  0  0  0  0  0  0  0  0  0
   -9.3506   -3.7205  -24.2114 H   0  0  0  0  0  0  0  0  0  0  0  0
   -9.8929    0.0064  -25.1215 H   0  0  0  0  0  0  0  0  0  0  0  0
  -11.7759    0.7789  -25.3101 H   0  0  0  0  0  0  0  0  0  0  0  0
  -13.7606    0.0321  -24.0439 H   0  0  0  0  0  0  0  0  0  0  0  0
  -13.4673   -1.8355  -22.4569 H   0  0  0  0  0  0  0  0  0  0  0  0
  -11.3827   -1.8572  -21.6660 H   0  0  0  0  0  0  0  0  0  0  0  0
  -11.5108   -2.9004  -23.1227 H   0  0  0  0  0  0  0  0  0  0  0  0
   -8.9708   -0.0945  -23.1361 H   0  0  0  0  0  0  0  0  0  0  0  0
   -7.5641   -1.3757  -21.3495 H   0  0  0  0  0  0  0  0  0  0  0  0
   -8.4085   -0.2725  -18.5297 H   0  0  0  0  0  0  0  0  0  0  0  0
   -5.4492    1.6180  -17.1456 H   0  0  0  0  0  0  0  0  0  0  0  0
   -4.5115    1.5869  -19.0606 H   0  0  0  0  0  0  0  0  0  0  0  0
 20 21  2  0  0  0  0
 19 20  1  0  0  0  0
 21 22  1  0  0  0  0
 18 19  2  0  0  0  0
 22 23  2  0  0  0  0
 18 23  1  0  0  0  0
 17 18  1  0  0  0  0
 23 24  1  0  0  0  0
 15 16  2  0  0  0  0
 15 17  1  0  0  0  0
 14 15  1  0  0  0  0
  8 14  1  0  0  0  0
  7 14  1  0  0  0  0
 12 13  1  0  0  0  0
  8 13  1  0  0  0  0
 11 12  2  0  0  0  0
  7  8  1  0  0  0  0
  8  9  1  0  0  0  0
 10 11  1  0  0  0  0
  6  7  2  0  0  0  0
  5  6  1  0  0  0  0
  9 10  2  0  0  0  0
  2  5  1  0  0  0  0
  2  3  2  0  0  0  0
  1  2  1  0  0  0  0
  2  4  2  0  0  0  0
  1 25  1  0  0  0  0
  1 26  1  0  0  0  0
  1 27  1  0  0  0  0
  5 28  1  0  0  0  0
  6 29  1  0  0  0  0
  9 30  1  0  0  0  0
 10 31  1  0  0  0  0
 11 32  1  0  0  0  0
 12 33  1  0  0  0  0
 13 34  1  0  0  0  0
 13 35  1  0  0  0  0
 14 36  1  0  0  0  0
 17 37  1  0  0  0  0
 19 38  1  0  0  0  0
 21 39  1  0  0  0  0
 22 40  1  0  0  0  0
M  END
> <Chemgauss4>
-13.160794

$$$$
