stable:False satoms:16 tatoms:24 sratio:0.6666666666666666
  -OEChem-07092417403D

 24 24  0     0  0  0  0  0  0999 V2000
    7.0820   -4.6021   26.4731 H   0  0  0  0  0  0  0  0  0  0  0  0
    8.1183   -4.3565   26.1884 C   0  0  0  0  0  0  0  0  0  0  0  0
    8.6952   -5.2953   26.1321 H   0  0  0  0  0  0  0  0  0  0  0  0
    8.5600   -3.7130   26.9736 H   0  0  0  0  0  0  0  0  0  0  0  0
    8.1094   -3.7166   24.9307 N   0  3  0  0  0  0  0  0  0  0  0  0
    8.8172   -2.9982   24.3766 C   0  0  0  0  0  0  0  0  0  0  0  0
    9.5170   -2.2857   23.7742 C   0  0  0  0  0  0  0  0  0  0  0  0
   10.6371   -1.8299   23.4517 C   0  0  0  0  0  0  0  0  0  0  0  0
   10.9648   -0.5877   23.0392 C   0  0  0  0  0  0  0  0  0  0  0  0
   12.3997    0.5506   24.0573 H   0  0  0  0  0  0  0  0  0  0  0  0
   12.2932   -0.0955   23.3356 N   0  0  0  0  0  0  0  0  0  0  0  0
   12.9565   -0.7818   23.0944 H   0  0  0  0  0  0  0  0  0  0  0  0
   11.4403   -2.5683   23.5084 H   0  0  0  0  0  0  0  0  0  0  0  0
   10.0041   -0.2855   22.1851 C   0  0  0  0  0  0  0  0  0  0  0  0
    9.1700    0.1409   21.1962 C   0  0  0  0  0  0  0  0  0  0  0  0
    9.5357    0.9732   20.4413 O   0  0  0  0  0  0  0  0  0  0  0  0
    7.8445   -0.3957   21.0147 N   0  0  0  0  0  0  0  0  0  0  0  0
    7.0052    0.2021   20.2007 C   0  0  0  0  0  0  0  0  0  0  0  0
    6.8804    0.3699   18.7432 C   0  0  0  0  0  0  0  0  0  0  0  0
    7.4693    0.0521   17.9315 H   0  0  0  0  0  0  0  0  0  0  0  0
    5.7864    1.0663   18.4683 N   0  0  0  0  0  0  0  0  0  0  0  0
    5.1134    1.2298   19.5557 N   0  0  0  0  0  0  0  0  0  0  0  0
    5.7715    0.7850   20.6122 C   0  0  0  0  0  0  0  0  0  0  0  0
    5.4130    0.8517   21.6126 H   0  0  0  0  0  0  0  0  0  0  0  0
 19 20  1  0  0  0  0
 19 21  1  0  0  0  0
 21 22  1  0  0  0  0
 18 19  2  0  0  0  0
 22 23  2  0  0  0  0
 18 23  1  0  0  0  0
 17 18  1  0  0  0  0
 15 16  2  0  0  0  0
 23 24  1  0  0  0  0
 15 17  1  0  0  0  0
 14 15  1  0  0  0  0
  9 14  2  0  0  0  0
  9 11  1  0  0  0  0
  8  9  1  0  0  0  0
 11 12  1  0  0  0  0
 10 11  1  0  0  0  0
  8 13  1  0  0  0  0
  7  8  2  3  0  0  0
  6  7  1  0  0  0  0
  5  6  1  0  0  0  0
  2  5  1  0  0  0  0
  2  3  1  0  0  0  0
  1  2  1  0  0  0  0
  2  4  1  0  0  0  0
M  CHG  1   5   1
M  END
> <Shapegauss>
-192.342224

$$$$
