stable:False satoms:16 tatoms:24 sratio:0.6666666666666666
  -OEChem-08062405533D

 33 33  0     0  0  0  0  0  0999 V2000
  -11.3011    6.7292  -22.7943 H   0  0  0  0  0  0  0  0  0  0  0  0
  -11.0052    6.1296  -23.6708 C   0  0  0  0  0  0  0  0  0  0  0  0
  -10.6027    6.8118  -24.4388 H   0  0  0  0  0  0  0  0  0  0  0  0
  -11.9035    5.6256  -24.0768 H   0  0  0  0  0  0  0  0  0  0  0  0
  -10.0162    5.2021  -23.2797 N   0  3  0  0  0  0  0  0  0  0  0  0
   -9.6453    4.1888  -23.6795 C   0  0  0  0  0  0  0  0  0  0  0  0
   -9.2277    3.1701  -24.0644 C   0  0  0  0  0  0  0  0  0  0  0  0
   -8.9531    2.3432  -24.9629 C   0  0  0  0  0  0  0  0  0  0  0  0
   -8.9167    0.9959  -24.8985 C   0  0  0  0  0  0  0  0  0  0  0  0
   -8.5725   -0.5130  -26.1991 H   0  0  0  0  0  0  0  0  0  0  0  0
   -9.2176    0.2443  -26.0982 N   0  3  0  0  0  0  0  0  0  0  0  0
   -9.1307    0.8738  -26.8704 H   0  0  0  0  0  0  0  0  0  0  0  0
   -8.6972    2.8073  -25.9182 H   0  0  0  0  0  0  0  0  0  0  0  0
   -8.2990    0.7607  -23.7553 C   0  0  0  0  0  0  0  0  0  0  0  0
   -7.5798    0.3385  -22.6783 C   0  0  0  0  0  0  0  0  0  0  0  0
   -7.0886   -0.7361  -22.6881 O   0  0  0  0  0  0  0  0  0  0  0  0
   -7.3734    1.1614  -21.5129 N   0  0  0  0  0  0  0  0  0  0  0  0
   -6.8733    0.6308  -20.4207 C   0  0  0  0  0  0  0  0  0  0  0  0
   -5.5602    0.1158  -19.9981 C   0  0  0  0  0  0  0  0  0  0  0  0
   -4.6356    0.0185  -20.4902 H   0  0  0  0  0  0  0  0  0  0  0  0
   -5.6258   -0.2859  -18.7364 N   0  0  0  0  0  0  0  0  0  0  0  0
   -6.7714    0.0522  -18.2514 N   0  0  0  0  0  0  0  0  0  0  0  0
   -7.5663    0.5601  -19.1774 C   0  0  0  0  0  0  0  0  0  0  0  0
   -8.5683    0.8735  -18.9999 H   0  0  0  0  0  0  0  0  0  0  0  0
  -10.2765    4.9859  -22.3387 H   0  0  0  0  0  0  0  0  0  0  0  0
   -9.9209    4.4778  -24.7045 H   0  0  0  0  0  0  0  0  0  0  0  0
  -10.4934    3.6757  -23.2027 H   0  0  0  0  0  0  0  0  0  0  0  0
   -8.9048    2.6745  -23.1608 H   0  0  0  0  0  0  0  0  0  0  0  0
   -8.6971    1.6333  -23.2589 H   0  0  0  0  0  0  0  0  0  0  0  0
   -7.6101    2.1327  -21.5360 H   0  0  0  0  0  0  0  0  0  0  0  0
   -4.9048   -0.7715  -18.2420 H   0  0  0  0  0  0  0  0  0  0  0  0
   -9.1836    5.7559  -23.2764 H   0  0  0  0  0  0  0  0  0  0  0  0
  -10.1496   -0.1155  -26.0526 H   0  0  0  0  0  0  0  0  0  0  0  0
 19 20  1  0  0  0  0
 19 21  1  0  0  0  0
 21 22  1  0  0  0  0
 18 19  2  0  0  0  0
 22 23  2  0  0  0  0
 18 23  1  0  0  0  0
 17 18  1  0  0  0  0
 15 16  2  0  0  0  0
 23 24  1  0  0  0  0
 15 17  1  0  0  0  0
 14 15  1  0  0  0  0
  9 14  2  0  0  0  0
  9 11  1  0  0  0  0
  8  9  1  0  0  0  0
 11 12  1  0  0  0  0
 10 11  1  0  0  0  0
  8 13  1  0  0  0  0
  7  8  2  3  0  0  0
  6  7  1  0  0  0  0
  5  6  1  0  0  0  0
  2  5  1  0  0  0  0
  2  3  1  0  0  0  0
  1  2  1  0  0  0  0
  2  4  1  0  0  0  0
  5 25  1  0  0  0  0
  6 26  1  0  0  0  0
  6 27  1  0  0  0  0
  7 28  1  0  0  0  0
 14 29  1  0  0  0  0
 17 30  1  0  0  0  0
 21 31  1  0  0  0  0
  5 32  1  0  0  0  0
 11 33  1  0  0  0  0
M  CHG  2   5   1  11   1
M  END
> <Chemgauss4>
-7.618024

$$$$
