stable:False satoms:16 tatoms:24 sratio:0.6666666666666666
  -OEChem-08062405533D

 33 33  0     0  0  0  0  0  0999 V2000
   10.6242    6.4442   23.2364 H   0  0  0  0  0  0  0  0  0  0  0  0
   10.2661    5.7866   24.0454 C   0  0  0  0  0  0  0  0  0  0  0  0
    9.7806    6.4127   24.8133 H   0  0  0  0  0  0  0  0  0  0  0  0
   11.1366    5.2755   24.5001 H   0  0  0  0  0  0  0  0  0  0  0  0
    9.3384    4.8665   23.5124 N   0  3  0  0  0  0  0  0  0  0  0  0
    8.9580    3.8238   23.8161 C   0  0  0  0  0  0  0  0  0  0  0  0
    8.5325    2.7758   24.1006 C   0  0  0  0  0  0  0  0  0  0  0  0
    8.1991    1.8903   24.9198 C   0  0  0  0  0  0  0  0  0  0  0  0
    8.2011    0.5491   24.7724 C   0  0  0  0  0  0  0  0  0  0  0  0
    7.7792   -1.0430   25.9447 H   0  0  0  0  0  0  0  0  0  0  0  0
    8.4123   -0.2690   25.9476 N   0  3  0  0  0  0  0  0  0  0  0  0
    8.2419    0.3102   26.7448 H   0  0  0  0  0  0  0  0  0  0  0  0
    7.8482    2.2900   25.8741 H   0  0  0  0  0  0  0  0  0  0  0  0
    7.6933    0.3730   23.5663 C   0  0  0  0  0  0  0  0  0  0  0  0
    7.0831    0.0043   22.4056 C   0  0  0  0  0  0  0  0  0  0  0  0
    6.6190   -1.0779   22.3072 O   0  0  0  0  0  0  0  0  0  0  0  0
    6.9613    0.8931   21.2773 N   0  0  0  0  0  0  0  0  0  0  0  0
    6.5733    0.4213   20.1149 C   0  0  0  0  0  0  0  0  0  0  0  0
    5.3157   -0.0912   19.5456 C   0  0  0  0  0  0  0  0  0  0  0  0
    4.3536   -0.2358   19.9457 H   0  0  0  0  0  0  0  0  0  0  0  0
    5.5028   -0.4134   18.2734 N   0  0  0  0  0  0  0  0  0  0  0  0
    6.6786   -0.0248   17.9146 N   0  0  0  0  0  0  0  0  0  0  0  0
    7.3755    0.4400   18.9371 C   0  0  0  0  0  0  0  0  0  0  0  0
    8.3815    0.7824   18.8697 H   0  0  0  0  0  0  0  0  0  0  0  0
    9.6864    4.7133   22.5875 H   0  0  0  0  0  0  0  0  0  0  0  0
    9.1343    4.0545   24.8771 H   0  0  0  0  0  0  0  0  0  0  0  0
    9.8572    3.3569   23.3881 H   0  0  0  0  0  0  0  0  0  0  0  0
    8.3033    2.3306   23.1437 H   0  0  0  0  0  0  0  0  0  0  0  0
    8.1128    1.2817   23.1605 H   0  0  0  0  0  0  0  0  0  0  0  0
    7.1715    1.8654   21.3794 H   0  0  0  0  0  0  0  0  0  0  0  0
    4.8406   -0.8811   17.6880 H   0  0  0  0  0  0  0  0  0  0  0  0
    8.4962    5.4038   23.4669 H   0  0  0  0  0  0  0  0  0  0  0  0
    9.3530   -0.6078   25.9648 H   0  0  0  0  0  0  0  0  0  0  0  0
 19 20  1  0  0  0  0
 19 21  1  0  0  0  0
 21 22  1  0  0  0  0
 18 19  2  0  0  0  0
 22 23  2  0  0  0  0
 18 23  1  0  0  0  0
 17 18  1  0  0  0  0
 15 16  2  0  0  0  0
 23 24  1  0  0  0  0
 15 17  1  0  0  0  0
 14 15  1  0  0  0  0
  9 14  2  0  0  0  0
  9 11  1  0  0  0  0
  8  9  1  0  0  0  0
 11 12  1  0  0  0  0
 10 11  1  0  0  0  0
  8 13  1  0  0  0  0
  7  8  2  3  0  0  0
  6  7  1  0  0  0  0
  5  6  1  0  0  0  0
  2  5  1  0  0  0  0
  2  3  1  0  0  0  0
  1  2  1  0  0  0  0
  2  4  1  0  0  0  0
  5 25  1  0  0  0  0
  6 26  1  0  0  0  0
  6 27  1  0  0  0  0
  7 28  1  0  0  0  0
 14 29  1  0  0  0  0
 17 30  1  0  0  0  0
 21 31  1  0  0  0  0
  5 32  1  0  0  0  0
 11 33  1  0  0  0  0
M  CHG  2   5   1  11   1
M  END
> <Chemgauss4>
-7.397237

$$$$
