stable:False satoms:16 tatoms:24 sratio:0.6666666666666666
  -OEChem-08062401383D

 27 27  0     1  0  0  0  0  0999 V2000
    6.9419    1.2027   18.8167 O   0  0  0  0  0  0  0  0  0  0  0  0
    6.8679    0.4535   19.8065 C   0  0  0  0  0  0  0  0  0  0  0  0
    5.0240    0.1873   19.6975 H   0  0  0  0  0  0  0  0  0  0  0  0
    5.6163    0.2710   20.4566 O   0  0  0  0  0  0  0  0  0  0  0  0
    8.3179   -0.1568   20.1538 O   0  0  0  0  0  0  0  0  0  0  0  0
    7.6814   -0.4765   21.0510 C   0  0  3  0  0  0  0  0  0  0  0  0
    7.3339   -0.9670   22.1692 C   0  0  0  0  0  0  0  0  0  0  0  0
    7.2480   -2.4650   24.0235 C   0  0  0  0  0  0  0  0  0  0  0  0
    6.7752   -1.4323   23.2450 C   0  0  0  0  0  0  0  0  0  0  0  0
    5.8553   -0.9874   23.5602 H   0  0  0  0  0  0  0  0  0  0  0  0
    6.5452   -2.9226   24.6983 H   0  0  0  0  0  0  0  0  0  0  0  0
    9.8502   -3.8179   22.7577 H   0  0  0  0  0  0  0  0  0  0  0  0
    9.5460   -2.9059   23.2124 C   0  0  0  0  0  0  0  0  0  0  0  0
    8.6837   -3.7300   24.8037 H   0  0  0  0  0  0  0  0  0  0  0  0
    8.5336   -2.9918   24.0450 C   0  0  0  0  0  0  0  0  0  0  0  0
   10.5974   -0.5867   24.2010 C   0  0  0  0  0  2  0  0  0  0  0  0
   10.6231   -1.5407   22.8402 S   0  0  0  0  0  0  0  0  0  0  0  0
   13.2184   -0.6004   23.4988 H   0  0  0  0  0  0  0  0  0  0  0  0
   12.8912   -1.0316   25.1331 H   0  0  0  0  0  0  0  0  0  0  0  0
   13.6801    0.5054   24.8121 H   0  0  0  0  0  0  0  0  0  0  0  0
   12.9346   -0.1789   24.4536 C   0  0  0  0  0  0  0  0  0  0  0  0
   11.5778    0.4565   24.3427 C   0  0  0  0  0  0  0  0  0  0  0  0
   11.2575    1.6210   24.3893 O   0  0  0  0  0  0  0  0  0  0  0  0
    6.0820    1.5562   18.6216 H   0  0  0  0  0  0  0  0  0  0  0  0
    7.4092   -1.4127   20.5417 H   0  0  0  0  0  0  0  0  0  0  0  0
    7.9041   -1.8924   22.0008 H   0  0  0  0  0  0  0  0  0  0  0  0
    7.9515   -0.2535   22.7344 H   0  0  0  0  0  0  0  0  0  0  0  0
 19 21  1  0  0  0  0
 20 21  1  0  0  0  0
 18 21  1  0  0  0  0
 21 22  1  0  0  0  0
 12 13  1  0  0  0  0
 16 22  1  0  0  0  0
 22 23  2  0  0  0  0
 16 17  1  0  0  0  0
 13 17  1  0  0  0  0
 13 15  2  3  0  0  0
 14 15  1  0  0  0  0
  8 15  1  0  0  0  0
  8 11  1  0  0  0  0
  8  9  2  0  0  0  0
  5  6  1  0  0  0  0
  2  5  1  0  0  0  0
  6  7  1  0  0  0  0
  7  9  1  0  0  0  0
  2  6  1  0  0  0  0
  9 10  1  0  0  0  0
  1  2  1  0  0  0  0
  2  4  1  0  0  0  0
  3  4  1  0  0  0  0
  1 24  1  0  0  0  0
  6 25  1  0  0  0  0
  7 26  1  0  0  0  0
  7 27  1  0  0  0  0
M  END
> <Chemgauss4>
-6.154454

$$$$
