REMARK  9 active torsions:
REMARK  status: ('A' for Active; 'I' for Inactive)
REMARK    1  A    between atoms: S_2  and  N_5 
REMARK    2  A    between atoms: C_7  and  C_8 
REMARK    3  A    between atoms: C_8  and  C_9 
REMARK    4  A    between atoms: C_9  and  C_15 
REMARK    5  A    between atoms: C_9  and  C_14 
REMARK    6  A    between atoms: C_12  and  C_13 
REMARK    7  A    between atoms: C_13  and  C_14 
REMARK    8  A    between atoms: C_15  and  C_16 
REMARK       I    between atoms: C_16  and  N_18 
REMARK    9  A    between atoms: N_18  and  C_20 
ROOT
HETATM    1  C   UNL     1      10.349  -1.230  23.164  1.00  0.00     0.109 C 
ENDROOT
BRANCH   1   2
HETATM    2  C   UNL     1       9.442  -2.005  23.555  1.00  0.00     0.011 C 
BRANCH   2   3
HETATM    3  C   UNL     1       8.938  -2.886  24.156  1.00  0.00     0.097 C 
HETATM    4  N   UNL     1       8.087  -3.567  24.653  1.00  0.00    -0.296 N 
ATOM      5  HN  UNL     1       7.227  -3.706  24.123  1.00  0.00     0.177 HD
BRANCH   4   6
HETATM    6  S   UNL     1       8.198  -4.290  26.114  1.00  0.00     0.226 S 
HETATM    7  C   UNL     1       6.601  -4.821  26.437  1.00  0.00     0.186 C 
HETATM    8  O   UNL     1       9.077  -5.429  26.022  1.00  0.00    -0.206 OA
HETATM    9  O   UNL     1       8.605  -3.425  27.173  1.00  0.00    -0.206 OA
ENDBRANCH   4   6
ENDBRANCH   2   3
ENDBRANCH   1   2
BRANCH   1  10
HETATM   10  C   UNL     1       9.753  -0.496  22.315  1.00  0.00    -0.071 C 
BRANCH  10  11
HETATM   11  C   UNL     1       9.101   0.094  21.355  1.00  0.00     0.289 C 
HETATM   12  O   UNL     1       9.566   1.019  20.887  1.00  0.00    -0.259 OA
HETATM   13  N   UNL     1       7.948  -0.587  21.093  1.00  0.00    -0.314 N 
ATOM     14  HN  UNL     1       7.697  -1.436  21.599  1.00  0.00     0.170 HD
BRANCH  13  15
HETATM   15  C   UNL     1       7.208  -0.107  20.188  1.00  0.00     0.072 C 
HETATM   16  C   UNL     1       7.224  -0.022  18.872  1.00  0.00     0.119 C 
HETATM   17  N   UNL     1       6.816   0.321  17.778  1.00  0.00    -0.373 N 
HETATM   18  C   UNL     1       5.641   0.869  18.254  1.00  0.00     0.089 C 
ATOM     19  HN  UNL     1       7.205   0.234  16.839  1.00  0.00     0.164 HD
HETATM   20  C   UNL     1       5.272   0.927  19.359  1.00  0.00     0.043 C 
HETATM   21  C   UNL     1       5.824   0.521  20.512  1.00  0.00     0.063 C 
HETATM   22 CL   UNL     1       5.307   0.654  21.977  1.00  0.00    -0.082 Cl
ENDBRANCH  13  15
ENDBRANCH  10  11
ENDBRANCH   1  10
BRANCH   1  23
HETATM   23  C   UNL     1      11.769  -1.706  22.634  1.00  0.00    -0.006 C 
BRANCH  23  24
HETATM   24  C   UNL     1      12.726  -1.293  22.699  1.00  0.00    -0.002 C 
BRANCH  24  25
HETATM   25  C   UNL     1      13.049  -0.133  23.522  1.00  0.00    -0.001 C 
HETATM   26  C   UNL     1      12.067   0.278  24.250  1.00  0.00    -0.010 C 
HETATM   27  C   UNL     1      11.017   0.026  24.330  1.00  0.00     0.011 C 
ENDBRANCH  24  25
ENDBRANCH  23  24
ENDBRANCH   1  23
TORSDOF 9
