stable:False satoms:11 tatoms:24 sratio:0.4583333333333333
  -OEChem-07092417453D

 24 24  0     1  0  0  0  0  0999 V2000
    6.6014   -4.8214   26.4369 C   0  0  0  0  0  0  0  0  0  0  0  0
    8.1982   -4.2896   26.1139 S   0  0  0  0  0  0  0  0  0  0  0  0
    9.0771   -5.4295   26.0218 O   0  0  0  0  0  0  0  0  0  0  0  0
    8.6051   -3.4247   27.1726 O   0  0  0  0  0  0  0  0  0  0  0  0
    8.0874   -3.5666   24.6534 N   0  0  0  0  0  0  0  0  0  0  0  0
    8.9382   -2.8861   24.1562 C   0  0  0  0  0  0  0  0  0  0  0  0
    9.4421   -2.0045   23.5550 C   0  0  0  0  0  0  0  0  0  0  0  0
   10.3486   -1.2305   23.1639 C   0  0  1  0  0  0  0  0  0  0  0  0
   11.0171    0.0258   24.3304 C   0  0  0  0  0  0  0  0  0  0  0  0
   12.0674    0.2775   24.2499 C   0  0  0  0  0  0  0  0  0  0  0  0
   13.0488   -0.1332   23.5218 C   0  0  0  0  0  0  0  0  0  0  0  0
   12.7257   -1.2934   22.6989 C   0  0  0  0  0  0  0  0  0  0  0  0
   11.7687   -1.7060   22.6336 C   0  0  0  0  0  0  0  0  0  0  0  0
    9.7531   -0.4961   22.3152 C   0  0  0  0  0  0  0  0  0  0  0  0
    9.1009    0.0937   21.3546 C   0  0  0  0  0  0  0  0  0  0  0  0
    9.5655    1.0194   20.8869 O   0  0  0  0  0  0  0  0  0  0  0  0
    7.9480   -0.5872   21.0926 N   0  0  0  0  0  0  0  0  0  0  0  0
    7.2085   -0.1072   20.1878 C   0  0  0  0  0  0  0  0  0  0  0  0
    7.2236   -0.0223   18.8715 C   0  0  0  0  0  0  0  0  0  0  0  0
    6.8157    0.3209   17.7781 N   0  0  0  0  0  0  0  0  0  0  0  0
    5.6410    0.8686   18.2539 C   0  0  0  0  0  0  0  0  0  0  0  0
    5.2719    0.9266   19.3587 C   0  0  0  0  0  0  0  0  0  0  0  0
    5.8236    0.5214   20.5122 C   0  0  0  0  0  0  0  0  0  0  0  0
    5.3067    0.6545   21.9769 Cl  0  0  0  0  0  0  0  0  0  0  0  0
 20 21  2  0  0  0  0
 19 20  1  0  0  0  0
 21 22  1  0  0  0  0
 18 19  2  0  0  0  0
 22 23  2  0  0  0  0
 18 23  1  0  0  0  0
 17 18  1  0  0  0  0
 23 24  1  0  0  0  0
 15 16  2  0  0  0  0
 15 17  1  0  0  0  0
 14 15  1  0  0  0  0
  8 14  1  0  0  0  0
 12 13  2  0  0  0  0
  8 13  1  0  0  0  0
 11 12  1  0  0  0  0
  7  8  1  0  0  0  0
 10 11  1  0  0  0  0
  6  7  3  0  0  0  0
  5  6  1  0  0  0  0
  9 10  2  0  0  0  0
  2  5  1  0  0  0  0
  2  3  2  0  0  0  0
  1  2  1  0  0  0  0
  2  4  2  0  0  0  0
M  END
> <Shapegauss>
-286.920563

$$$$
