stable:False satoms:8 tatoms:24 sratio:0.3333333333333333
  -OEChem-07092417473D

 24 26  0     1  0  0  0  0  0999 V2000
    6.6217   -4.8511   26.4267 C   0  0  0  0  0  0  0  0  0  0  0  0
    8.1512   -4.3100   26.1117 S   0  0  0  0  0  0  0  0  0  0  0  0
    9.0351   -5.4498   26.0246 O   0  0  0  0  0  0  0  0  0  0  0  0
    8.5682   -3.3835   27.1349 O   0  0  0  0  0  0  0  0  0  0  0  0
    8.0768   -3.5605   24.6542 N   0  0  0  0  0  0  0  0  0  0  0  0
    8.9037   -2.9112   24.1287 C   0  0  0  0  0  0  0  0  0  0  0  0
    9.4279   -1.9575   23.4960 C   0  0  0  0  0  0  0  0  0  0  0  0
   10.4057   -1.0806   23.2417 C   0  0  1  0  0  0  0  0  0  0  0  0
   11.1173    0.0342   24.2369 C   0  0  0  0  0  0  0  0  0  0  0  0
   12.1181    0.3932   24.2700 C   0  0  0  0  0  0  0  0  0  0  0  0
   13.2583   -0.2023   23.4489 C   0  0  0  0  0  0  0  0  0  0  0  0
   12.8158   -1.2044   22.7240 C   0  0  0  0  0  0  0  0  0  0  0  0
   11.8415   -1.6710   22.5827 C   0  0  0  0  0  0  0  0  0  0  0  0
    9.6953   -0.6210   22.3811 C   0  0  3  0  0  0  0  0  0  0  0  0
    9.0492    0.0087   21.3716 C   0  0  0  0  0  0  0  0  0  0  0  0
    9.6053    0.9528   21.0034 O   0  0  0  0  0  0  0  0  0  0  0  0
    7.9169   -0.5958   21.0621 N   0  0  0  0  0  0  0  0  0  0  0  0
    7.2007   -0.1169   20.1663 C   0  0  0  0  0  0  0  0  0  0  0  0
    7.1718   -0.0005   18.8605 C   0  0  0  0  0  0  0  0  0  0  0  0
    6.6844    0.2566   17.7452 N   0  0  0  0  0  0  0  0  0  0  0  0
    5.6461    0.8639   18.2410 C   0  0  0  0  0  0  0  0  0  0  0  0
    5.2557    0.9605   19.4322 C   0  0  0  0  0  0  0  0  0  0  0  0
    5.7690    0.5539   20.5521 C   0  0  0  0  0  0  0  0  0  0  0  0
    5.2485    0.6020   22.0001 Cl  0  0  0  0  0  0  0  0  0  0  0  0
 20 21  2  0  0  0  0
 19 20  1  0  0  0  0
 21 22  1  0  0  0  0
 18 19  2  0  0  0  0
 22 23  2  0  0  0  0
 18 23  1  0  0  0  0
 17 18  1  0  0  0  0
 23 24  1  0  0  0  0
 15 16  2  0  0  0  0
 15 17  1  0  0  0  0
 14 15  1  0  0  0  0
  8 14  1  0  0  0  0
  7 14  1  0  0  0  0
 12 13  1  0  0  0  0
  8 13  1  0  0  0  0
 11 12  2  0  0  0  0
  7  8  1  0  0  0  0
  8  9  1  0  0  0  0
 10 11  1  0  0  0  0
  6  7  2  3  0  0  0
  5  6  1  0  0  0  0
  9 10  2  0  0  0  0
  2  5  1  0  0  0  0
  2  3  2  0  0  0  0
  1  2  1  0  0  0  0
  2  4  2  0  0  0  0
M  END
> <Shapegauss>
-286.528656

$$$$
