MODEL 1
REMARK VINA RESULT:    -8.074      0.000      0.000
REMARK INTER + INTRA:         -10.710
REMARK INTER:                  -9.962
REMARK INTRA:                  -0.748
REMARK UNBOUND:                -0.748
REMARK  4 active torsions:
REMARK  status: ('A' for Active; 'I' for Inactive)
REMARK    1  A    between atoms: S_2  and  N_5 
REMARK    2  A    between atoms: N_5  and  C_7 
REMARK    3  A    between atoms: C_15  and  C_16 
REMARK       I    between atoms: C_16  and  N_18 
REMARK    4  A    between atoms: N_18  and  C_20 
ROOT
HETATM    1  C   UNL     1       8.464  -3.576  23.711  1.00  0.00     0.109 C 
HETATM    2  C   UNL     1       8.877  -2.456  23.313  1.00  0.00    -0.008 A 
HETATM    3  C   UNL     1       9.640  -1.360  23.396  1.00  0.00     0.058 A 
HETATM    4  C   UNL     1       9.786  -0.259  24.623  1.00  0.00    -0.003 C 
HETATM    5  C   UNL     1      10.627   0.303  24.952  1.00  0.00    -0.002 C 
HETATM    6  C   UNL     1      12.045   0.087  24.431  1.00  0.00    -0.001 C 
HETATM    7  C   UNL     1      12.056  -0.882  23.544  1.00  0.00    -0.002 C 
HETATM    8  C   UNL     1      11.293  -1.528  23.111  1.00  0.00    -0.003 C 
HETATM    9  C   UNL     1       9.072  -0.956  22.409  1.00  0.00     0.040 A 
ENDROOT
BRANCH   9  10
HETATM   10  C   UNL     1       8.561  -0.355  21.310  1.00  0.00     0.254 C 
HETATM   11  O   UNL     1       9.311   0.361  20.800  1.00  0.00    -0.268 OA
HETATM   12  N   UNL     1       7.308  -0.713  21.094  1.00  0.00    -0.320 N 
ATOM     13  HN  UNL     1       6.849  -1.385  21.709  1.00  0.00     0.169 HD
BRANCH  12  14
HETATM   14  C   UNL     1       6.697  -0.222  20.129  1.00  0.00     0.072 C 
HETATM   15  C   UNL     1       6.364  -0.520  18.896  1.00  0.00     0.119 C 
HETATM   16  N   UNL     1       5.774  -0.393  17.808  1.00  0.00    -0.373 N 
HETATM   17  C   UNL     1       5.346   0.805  18.079  1.00  0.00     0.089 C 
ATOM     18  HN  UNL     1       5.664  -1.006  17.001  1.00  0.00     0.164 HD
HETATM   19  C   UNL     1       5.402   1.464  19.148  1.00  0.00     0.043 C 
HETATM   20  C   UNL     1       5.943   1.210  20.299  1.00  0.00     0.063 C 
HETATM   21 CL   UNL     1       5.938   1.983  21.631  1.00  0.00    -0.082 Cl
ENDBRANCH  12  14
ENDBRANCH   9  10
BRANCH   1  22
HETATM   22  N   UNL     1       7.720  -4.455  23.944  1.00  0.00    -0.295 N 
ATOM     23  HN  UNL     1       7.790  -4.863  24.876  1.00  0.00     0.177 HD
BRANCH  22  24
HETATM   24  S   UNL     1       6.583  -5.110  22.958  1.00  0.00     0.226 S 
HETATM   25  C   UNL     1       5.684  -3.844  22.393  1.00  0.00     0.186 C 
HETATM   26  O   UNL     1       7.229  -5.754  21.837  1.00  0.00    -0.206 OA
HETATM   27  O   UNL     1       5.743  -6.023  23.691  1.00  0.00    -0.206 OA
ENDBRANCH  22  24
ENDBRANCH   1  22
TORSDOF 4
ENDMDL
MODEL 2
REMARK VINA RESULT:    -7.883      3.053      6.032
REMARK INTER + INTRA:         -10.474
REMARK INTER:                  -9.589
REMARK INTRA:                  -0.885
REMARK UNBOUND:                -0.748
REMARK  4 active torsions:
REMARK  status: ('A' for Active; 'I' for Inactive)
REMARK    1  A    between atoms: S_2  and  N_5 
REMARK    2  A    between atoms: N_5  and  C_7 
REMARK    3  A    between atoms: C_15  and  C_16 
REMARK       I    between atoms: C_16  and  N_18 
REMARK    4  A    between atoms: N_18  and  C_20 
ROOT
HETATM    1  C   UNL     1       8.536   0.698  22.176  1.00  0.00     0.109 C 
HETATM    2  C   UNL     1       9.133  -0.076  22.968  1.00  0.00    -0.008 A 
HETATM    3  C   UNL     1      10.222  -0.651  23.490  1.00  0.00     0.058 A 
HETATM    4  C   UNL     1      11.418  -1.525  22.751  1.00  0.00    -0.003 C 
HETATM    5  C   UNL     1      12.457  -1.596  22.967  1.00  0.00    -0.002 C 
HETATM    6  C   UNL     1      13.172  -0.712  23.985  1.00  0.00    -0.001 C 
HETATM    7  C   UNL     1      12.321   0.128  24.529  1.00  0.00    -0.002 C 
HETATM    8  C   UNL     1      11.252   0.309  24.417  1.00  0.00    -0.003 C 
HETATM    9  C   UNL     1       9.479  -1.291  24.195  1.00  0.00     0.040 A 
ENDROOT
BRANCH   9  10
HETATM   10  C   UNL     1       8.808  -2.076  25.070  1.00  0.00     0.254 C 
HETATM   11  O   UNL     1       8.635  -1.564  26.092  1.00  0.00    -0.268 OA
HETATM   12  N   UNL     1       8.529  -3.258  24.552  1.00  0.00    -0.320 N 
ATOM     13  HN  UNL     1       8.798  -3.479  23.593  1.00  0.00     0.169 HD
BRANCH  12  14
HETATM   14  C   UNL     1       7.934  -4.098  25.248  1.00  0.00     0.072 C 
HETATM   15  C   UNL     1       8.188  -5.010  26.155  1.00  0.00     0.119 C 
HETATM   16  N   UNL     1       7.932  -5.850  27.037  1.00  0.00    -0.373 N 
HETATM   17  C   UNL     1       6.657  -5.864  26.777  1.00  0.00     0.089 C 
ATOM     18  HN  UNL     1       8.509  -6.346  27.715  1.00  0.00     0.164 HD
HETATM   19  C   UNL     1       5.978  -5.133  26.013  1.00  0.00     0.043 C 
HETATM   20  C   UNL     1       6.309  -4.180  25.198  1.00  0.00     0.063 C 
HETATM   21 CL   UNL     1       5.466  -3.232  24.326  1.00  0.00    -0.082 Cl
ENDBRANCH  12  14
ENDBRANCH   9  10
BRANCH   1  22
HETATM   22  N   UNL     1       7.711   1.098  21.439  1.00  0.00    -0.295 N 
ATOM     23  HN  UNL     1       7.312   2.008  21.667  1.00  0.00     0.177 HD
BRANCH  22  24
HETATM   24  S   UNL     1       7.122   0.373  20.089  1.00  0.00     0.226 S 
HETATM   25  C   UNL     1       6.359  -0.999  20.602  1.00  0.00     0.186 C 
HETATM   26  O   UNL     1       6.147   1.237  19.464  1.00  0.00    -0.206 OA
HETATM   27  O   UNL     1       8.195   0.035  19.188  1.00  0.00    -0.206 OA
ENDBRANCH  22  24
ENDBRANCH   1  22
TORSDOF 4
ENDMDL
MODEL 3
REMARK VINA RESULT:    -7.556      4.103      6.094
REMARK INTER + INTRA:         -10.071
REMARK INTER:                  -9.379
REMARK INTRA:                  -0.692
REMARK UNBOUND:                -0.748
REMARK  4 active torsions:
REMARK  status: ('A' for Active; 'I' for Inactive)
REMARK    1  A    between atoms: S_2  and  N_5 
REMARK    2  A    between atoms: N_5  and  C_7 
REMARK    3  A    between atoms: C_15  and  C_16 
REMARK       I    between atoms: C_16  and  N_18 
REMARK    4  A    between atoms: N_18  and  C_20 
ROOT
HETATM    1  C   UNL     1       7.156  -5.414  26.859  1.00  0.00     0.109 C 
HETATM    2  C   UNL     1       7.358  -4.589  25.930  1.00  0.00    -0.008 A 
HETATM    3  C   UNL     1       7.216  -4.132  24.681  1.00  0.00     0.058 A 
HETATM    4  C   UNL     1       7.556  -4.865  23.237  1.00  0.00    -0.003 C 
HETATM    5  C   UNL     1       7.074  -4.786  22.291  1.00  0.00    -0.002 C 
HETATM    6  C   UNL     1       5.759  -4.046  22.070  1.00  0.00    -0.001 C 
HETATM    7  C   UNL     1       5.328  -3.544  23.205  1.00  0.00    -0.002 C 
HETATM    8  C   UNL     1       5.706  -3.536  24.227  1.00  0.00    -0.003 C 
HETATM    9  C   UNL     1       7.960  -3.230  24.986  1.00  0.00     0.040 A 
ENDROOT
BRANCH   9  10
HETATM   10  C   UNL     1       8.756  -2.148  25.150  1.00  0.00     0.254 C 
HETATM   11  O   UNL     1       8.610  -1.634  26.175  1.00  0.00    -0.268 OA
HETATM   12  N   UNL     1       9.500  -1.921  24.083  1.00  0.00    -0.320 N 
ATOM     13  HN  UNL     1       9.446  -2.539  23.274  1.00  0.00     0.169 HD
BRANCH  12  14
HETATM   14  C   UNL     1      10.268  -0.943  24.078  1.00  0.00     0.072 C 
HETATM   15  C   UNL     1      11.520  -0.649  24.335  1.00  0.00     0.119 C 
HETATM   16  N   UNL     1      12.550   0.047  24.357  1.00  0.00    -0.373 N 
HETATM   17  C   UNL     1      11.926   1.138  24.021  1.00  0.00     0.089 C 
ATOM     18  HN  UNL     1      13.527  -0.161  24.563  1.00  0.00     0.164 HD
HETATM   19  C   UNL     1      10.738   1.311  23.651  1.00  0.00     0.043 C 
HETATM   20  C   UNL     1       9.734   0.497  23.538  1.00  0.00     0.063 C 
HETATM   21 CL   UNL     1       8.303   0.696  23.006  1.00  0.00    -0.082 Cl
ENDBRANCH  12  14
ENDBRANCH   9  10
BRANCH   1  22
HETATM   22  N   UNL     1       7.370  -6.088  27.798  1.00  0.00    -0.295 N 
ATOM     23  HN  UNL     1       8.294  -6.516  27.840  1.00  0.00     0.177 HD
BRANCH  22  24
HETATM   24  S   UNL     1       6.365  -6.427  29.051  1.00  0.00     0.226 S 
HETATM   25  C   UNL     1       4.867  -6.648  28.390  1.00  0.00     0.186 C 
HETATM   26  O   UNL     1       6.778  -7.661  29.681  1.00  0.00    -0.206 OA
HETATM   27  O   UNL     1       6.336  -5.330  29.986  1.00  0.00    -0.206 OA
ENDBRANCH  22  24
ENDBRANCH   1  22
TORSDOF 4
ENDMDL
MODEL 4
REMARK VINA RESULT:    -7.271      3.012      6.287
REMARK INTER + INTRA:          -9.720
REMARK INTER:                  -8.920
REMARK INTRA:                  -0.800
REMARK UNBOUND:                -0.748
REMARK  4 active torsions:
REMARK  status: ('A' for Active; 'I' for Inactive)
REMARK    1  A    between atoms: S_2  and  N_5 
REMARK    2  A    between atoms: N_5  and  C_7 
REMARK    3  A    between atoms: C_15  and  C_16 
REMARK       I    between atoms: C_16  and  N_18 
REMARK    4  A    between atoms: N_18  and  C_20 
ROOT
HETATM    1  C   UNL     1       9.484   0.030  21.406  1.00  0.00     0.109 C 
HETATM    2  C   UNL     1       8.276  -0.239  21.180  1.00  0.00    -0.008 A 
HETATM    3  C   UNL     1       7.067   0.015  20.666  1.00  0.00     0.058 A 
HETATM    4  C   UNL     1       6.069   1.316  20.889  1.00  0.00    -0.003 C 
HETATM    5  C   UNL     1       5.389   1.789  20.222  1.00  0.00    -0.002 C 
HETATM    6  C   UNL     1       5.286   1.450  18.738  1.00  0.00    -0.001 C 
HETATM    7  C   UNL     1       6.154   0.514  18.428  1.00  0.00    -0.002 C 
HETATM    8  C   UNL     1       6.893  -0.056  18.991  1.00  0.00    -0.003 C 
HETATM    9  C   UNL     1       6.694  -1.012  21.180  1.00  0.00     0.040 A 
ENDROOT
BRANCH   9  10
HETATM   10  C   UNL     1       6.106  -2.131  21.667  1.00  0.00     0.254 C 
HETATM   11  O   UNL     1       5.645  -2.792  20.839  1.00  0.00    -0.268 OA
HETATM   12  N   UNL     1       6.180  -2.189  22.984  1.00  0.00    -0.320 N 
ATOM     13  HN  UNL     1       6.656  -1.455  23.508  1.00  0.00     0.169 HD
BRANCH  12  14
HETATM   14  C   UNL     1       5.662  -3.151  23.576  1.00  0.00     0.072 C 
HETATM   15  C   UNL     1       4.482  -3.575  23.961  1.00  0.00     0.119 C 
HETATM   16  N   UNL     1       3.644  -4.381  24.404  1.00  0.00    -0.373 N 
HETATM   17  C   UNL     1       4.543  -5.233  24.801  1.00  0.00     0.089 C 
ATOM     18  HN  UNL     1       2.625  -4.375  24.442  1.00  0.00     0.164 HD
HETATM   19  C   UNL     1       5.785  -5.248  24.612  1.00  0.00     0.043 C 
HETATM   20  C   UNL     1       6.587  -4.414  24.025  1.00  0.00     0.063 C 
HETATM   21 CL   UNL     1       8.095  -4.475  23.722  1.00  0.00    -0.082 Cl
ENDBRANCH  12  14
ENDBRANCH   9  10
BRANCH   1  22
HETATM   22  N   UNL     1      10.506   0.107  21.983  1.00  0.00    -0.295 N 
ATOM     23  HN  UNL     1      11.099   0.899  21.737  1.00  0.00     0.177 HD
BRANCH  22  24
HETATM   24  S   UNL     1      11.097  -0.902  23.134  1.00  0.00     0.226 S 
HETATM   25  C   UNL     1      11.937   0.051  24.190  1.00  0.00     0.186 C 
HETATM   26  O   UNL     1      10.001  -1.522  23.842  1.00  0.00    -0.206 OA
HETATM   27  O   UNL     1      11.977  -1.880  22.544  1.00  0.00    -0.206 OA
ENDBRANCH  22  24
ENDBRANCH   1  22
TORSDOF 4
ENDMDL
MODEL 5
REMARK VINA RESULT:    -7.127     14.668     15.995
REMARK INTER + INTRA:          -9.542
REMARK INTER:                  -8.737
REMARK INTRA:                  -0.806
REMARK UNBOUND:                -0.748
REMARK  4 active torsions:
REMARK  status: ('A' for Active; 'I' for Inactive)
REMARK    1  A    between atoms: S_2  and  N_5 
REMARK    2  A    between atoms: N_5  and  C_7 
REMARK    3  A    between atoms: C_15  and  C_16 
REMARK       I    between atoms: C_16  and  N_18 
REMARK    4  A    between atoms: N_18  and  C_20 
ROOT
HETATM    1  C   UNL     1      23.916  -4.191  24.302  1.00  0.00     0.109 C 
HETATM    2  C   UNL     1      23.606  -3.089  23.779  1.00  0.00    -0.008 A 
HETATM    3  C   UNL     1      23.010  -1.891  23.771  1.00  0.00     0.058 A 
HETATM    4  C   UNL     1      21.421  -1.494  24.010  1.00  0.00    -0.003 C 
HETATM    5  C   UNL     1      20.982  -0.636  24.461  1.00  0.00    -0.002 C 
HETATM    6  C   UNL     1      21.782   0.436  25.194  1.00  0.00    -0.001 C 
HETATM    7  C   UNL     1      23.059   0.131  25.185  1.00  0.00    -0.002 C 
HETATM    8  C   UNL     1      23.644  -0.689  24.768  1.00  0.00    -0.003 C 
HETATM    9  C   UNL     1      23.406  -1.763  22.637  1.00  0.00     0.040 A 
ENDROOT
BRANCH   9  10
HETATM   10  C   UNL     1      23.776  -1.440  21.376  1.00  0.00     0.254 C 
HETATM   11  O   UNL     1      24.759  -0.833  21.338  1.00  0.00    -0.268 OA
HETATM   12  N   UNL     1      22.908  -1.878  20.483  1.00  0.00    -0.320 N 
ATOM     13  HN  UNL     1      22.088  -2.409  20.777  1.00  0.00     0.169 HD
BRANCH  12  14
HETATM   14  C   UNL     1      23.103  -1.636  19.280  1.00  0.00     0.072 C 
HETATM   15  C   UNL     1      22.852  -0.705  18.391  1.00  0.00     0.119 C 
HETATM   16  N   UNL     1      22.939  -0.110  17.302  1.00  0.00    -0.373 N 
HETATM   17  C   UNL     1      23.562  -1.090  16.715  1.00  0.00     0.089 C 
ATOM     18  HN  UNL     1      22.635   0.810  16.985  1.00  0.00     0.164 HD
HETATM   19  C   UNL     1      24.029  -2.155  17.193  1.00  0.00     0.043 C 
HETATM   20  C   UNL     1      24.001  -2.659  18.388  1.00  0.00     0.063 C 
HETATM   21 CL   UNL     1      24.645  -3.923  18.987  1.00  0.00    -0.082 Cl
ENDBRANCH  12  14
ENDBRANCH   9  10
BRANCH   1  22
HETATM   22  N   UNL     1      24.140  -5.341  24.394  1.00  0.00    -0.295 N 
ATOM     23  HN  UNL     1      24.112  -5.872  23.524  1.00  0.00     0.177 HD
BRANCH  22  24
HETATM   24  S   UNL     1      24.491  -6.200  25.748  1.00  0.00     0.226 S 
HETATM   25  C   UNL     1      26.139  -6.218  25.864  1.00  0.00     0.186 C 
HETATM   26  O   UNL     1      23.954  -5.519  26.904  1.00  0.00    -0.206 OA
HETATM   27  O   UNL     1      23.988  -7.546  25.636  1.00  0.00    -0.206 OA
ENDBRANCH  22  24
ENDBRANCH   1  22
TORSDOF 4
ENDMDL
MODEL 6
REMARK VINA RESULT:    -6.719     23.151     26.047
REMARK INTER + INTRA:          -9.039
REMARK INTER:                  -8.308
REMARK INTRA:                  -0.731
REMARK UNBOUND:                -0.748
REMARK  4 active torsions:
REMARK  status: ('A' for Active; 'I' for Inactive)
REMARK    1  A    between atoms: S_2  and  N_5 
REMARK    2  A    between atoms: N_5  and  C_7 
REMARK    3  A    between atoms: C_15  and  C_16 
REMARK       I    between atoms: C_16  and  N_18 
REMARK    4  A    between atoms: N_18  and  C_20 
ROOT
HETATM    1  C   UNL     1       7.811  14.104   2.310  1.00  0.00     0.109 C 
HETATM    2  C   UNL     1       8.353  15.228   2.472  1.00  0.00    -0.008 A 
HETATM    3  C   UNL     1       8.568  16.511   2.161  1.00  0.00     0.058 A 
HETATM    4  C   UNL     1       9.074  17.189   0.738  1.00  0.00    -0.003 C 
HETATM    5  C   UNL     1       8.829  18.123   0.292  1.00  0.00    -0.002 C 
HETATM    6  C   UNL     1       7.747  19.058   0.823  1.00  0.00    -0.001 C 
HETATM    7  C   UNL     1       7.179  18.532   1.884  1.00  0.00    -0.002 C 
HETATM    8  C   UNL     1       7.323  17.611   2.448  1.00  0.00    -0.003 C 
HETATM    9  C   UNL     1       9.378  16.536   3.057  1.00  0.00     0.040 A 
ENDROOT
BRANCH   9  10
HETATM   10  C   UNL     1      10.301  16.753   4.023  1.00  0.00     0.254 C 
HETATM   11  O   UNL     1      11.112  15.930   4.062  1.00  0.00    -0.268 OA
HETATM   12  N   UNL     1      10.041  17.849   4.711  1.00  0.00    -0.320 N 
ATOM     13  HN  UNL     1       9.235  18.428   4.476  1.00  0.00     0.169 HD
BRANCH  12  14
HETATM   14  C   UNL     1      10.792  18.167   5.649  1.00  0.00     0.072 C 
HETATM   15  C   UNL     1      10.965  17.914   6.925  1.00  0.00     0.119 C 
HETATM   16  N   UNL     1      11.547  17.923   8.024  1.00  0.00    -0.373 N 
HETATM   17  C   UNL     1      12.428  18.805   7.650  1.00  0.00     0.089 C 
ATOM     18  HN  UNL     1      11.392  17.423   8.898  1.00  0.00     0.164 HD
HETATM   19  C   UNL     1      12.653  19.295   6.514  1.00  0.00     0.043 C 
HETATM   20  C   UNL     1      12.065  19.142   5.368  1.00  0.00     0.063 C 
HETATM   21 CL   UNL     1      12.394  19.678   3.963  1.00  0.00    -0.082 Cl
ENDBRANCH  12  14
ENDBRANCH   9  10
BRANCH   1  22
HETATM   22  N   UNL     1       7.692  12.935   2.267  1.00  0.00    -0.295 N 
ATOM     23  HN  UNL     1       7.761  12.514   1.341  1.00  0.00     0.177 HD
BRANCH  22  24
HETATM   24  S   UNL     1       7.429  11.897   3.510  1.00  0.00     0.226 S 
HETATM   25  C   UNL     1       6.386  12.666   4.536  1.00  0.00     0.186 C 
HETATM   26  O   UNL     1       6.789  10.701   3.013  1.00  0.00    -0.206 OA
HETATM   27  O   UNL     1       8.664  11.601   4.192  1.00  0.00    -0.206 OA
ENDBRANCH  22  24
ENDBRANCH   1  22
TORSDOF 4
ENDMDL
MODEL 7
REMARK VINA RESULT:    -6.334     14.874     17.089
REMARK INTER + INTRA:          -8.564
REMARK INTER:                  -7.771
REMARK INTRA:                  -0.792
REMARK UNBOUND:                -0.748
REMARK  4 active torsions:
REMARK  status: ('A' for Active; 'I' for Inactive)
REMARK    1  A    between atoms: S_2  and  N_5 
REMARK    2  A    between atoms: N_5  and  C_7 
REMARK    3  A    between atoms: C_15  and  C_16 
REMARK       I    between atoms: C_16  and  N_18 
REMARK    4  A    between atoms: N_18  and  C_20 
ROOT
HETATM    1  C   UNL     1      22.792  -1.527  20.552  1.00  0.00     0.109 C 
HETATM    2  C   UNL     1      23.013  -1.648  21.785  1.00  0.00    -0.008 A 
HETATM    3  C   UNL     1      22.950  -1.246  23.059  1.00  0.00     0.058 A 
HETATM    4  C   UNL     1      23.474   0.160  23.757  1.00  0.00    -0.003 C 
HETATM    5  C   UNL     1      23.076   0.720  24.569  1.00  0.00    -0.002 C 
HETATM    6  C   UNL     1      21.733   0.419  25.226  1.00  0.00    -0.001 C 
HETATM    7  C   UNL     1      21.163  -0.608  24.638  1.00  0.00    -0.002 C 
HETATM    8  C   UNL     1      21.445  -1.270  23.819  1.00  0.00    -0.003 C 
HETATM    9  C   UNL     1      23.590  -2.230  23.344  1.00  0.00     0.040 A 
ENDROOT
BRANCH   9  10
HETATM   10  C   UNL     1      24.282  -3.279  23.847  1.00  0.00     0.254 C 
HETATM   11  O   UNL     1      25.410  -3.236  23.593  1.00  0.00    -0.268 OA
HETATM   12  N   UNL     1      23.496  -4.119  24.494  1.00  0.00    -0.320 N 
ATOM     13  HN  UNL     1      22.498  -3.929  24.583  1.00  0.00     0.169 HD
BRANCH  12  14
HETATM   14  C   UNL     1      23.988  -5.146  24.993  1.00  0.00     0.072 C 
HETATM   15  C   UNL     1      24.377  -6.346  24.637  1.00  0.00     0.119 C 
HETATM   16  N   UNL     1      24.928  -7.455  24.763  1.00  0.00    -0.373 N 
HETATM   17  C   UNL     1      25.088  -7.328  26.048  1.00  0.00     0.089 C 
ATOM     18  HN  UNL     1      25.166  -8.193  24.101  1.00  0.00     0.164 HD
HETATM   19  C   UNL     1      24.891  -6.337  26.795  1.00  0.00     0.043 C 
HETATM   20  C   UNL     1      24.417  -5.152  26.563  1.00  0.00     0.063 C 
HETATM   21 CL   UNL     1      24.254  -3.914  27.464  1.00  0.00    -0.082 Cl
ENDBRANCH  12  14
ENDBRANCH   9  10
BRANCH   1  22
HETATM   22  N   UNL     1      22.971  -1.580  19.391  1.00  0.00    -0.295 N 
ATOM     23  HN  UNL     1      22.305  -1.068  18.813  1.00  0.00     0.177 HD
BRANCH  22  24
HETATM   24  S   UNL     1      24.157  -2.376  18.584  1.00  0.00     0.226 S 
HETATM   25  C   UNL     1      25.459  -1.358  18.563  1.00  0.00     0.186 C 
HETATM   26  O   UNL     1      24.518  -3.571  19.312  1.00  0.00    -0.206 OA
HETATM   27  O   UNL     1      23.740  -2.673  17.237  1.00  0.00    -0.206 OA
ENDBRANCH  22  24
ENDBRANCH   1  22
TORSDOF 4
ENDMDL
MODEL 8
REMARK VINA RESULT:    -6.237     23.867     26.158
REMARK INTER + INTRA:          -8.444
REMARK INTER:                  -7.612
REMARK INTRA:                  -0.832
REMARK UNBOUND:                -0.748
REMARK  4 active torsions:
REMARK  status: ('A' for Active; 'I' for Inactive)
REMARK    1  A    between atoms: S_2  and  N_5 
REMARK    2  A    between atoms: N_5  and  C_7 
REMARK    3  A    between atoms: C_15  and  C_16 
REMARK       I    between atoms: C_16  and  N_18 
REMARK    4  A    between atoms: N_18  and  C_20 
ROOT
HETATM    1  C   UNL     1      -0.423 -25.535  10.408  1.00  0.00     0.109 C 
HETATM    2  C   UNL     1       0.652 -25.041   9.978  1.00  0.00    -0.008 A 
HETATM    3  C   UNL     1       1.969 -25.055   9.744  1.00  0.00     0.058 A 
HETATM    4  C   UNL     1       3.232 -25.257  10.794  1.00  0.00    -0.003 C 
HETATM    5  C   UNL     1       4.178 -25.724  10.657  1.00  0.00    -0.002 C 
HETATM    6  C   UNL     1       4.557 -26.519   9.411  1.00  0.00    -0.001 C 
HETATM    7  C   UNL     1       3.551 -26.540   8.567  1.00  0.00    -0.002 C 
HETATM    8  C   UNL     1       2.548 -26.113   8.566  1.00  0.00    -0.003 C 
HETATM    9  C   UNL     1       1.846 -23.940   9.297  1.00  0.00     0.040 A 
ENDROOT
BRANCH   9  10
HETATM   10  C   UNL     1       1.897 -22.703   8.750  1.00  0.00     0.254 C 
HETATM   11  O   UNL     1       1.926 -22.724   7.595  1.00  0.00    -0.268 OA
HETATM   12  N   UNL     1       1.924 -21.760   9.674  1.00  0.00    -0.320 N 
ATOM     13  HN  UNL     1       1.888 -22.004  10.663  1.00  0.00     0.169 HD
BRANCH  12  14
HETATM   14  C   UNL     1       1.995 -20.570   9.321  1.00  0.00     0.072 C 
HETATM   15  C   UNL     1       2.896 -19.650   9.070  1.00  0.00     0.119 C 
HETATM   16  N   UNL     1       3.334 -18.560   8.660  1.00  0.00    -0.373 N 
HETATM   17  C   UNL     1       2.152 -18.037   8.518  1.00  0.00     0.089 C 
ATOM     18  HN  UNL     1       4.277 -18.207   8.496  1.00  0.00     0.164 HD
HETATM   19  C   UNL     1       1.015 -18.564   8.612  1.00  0.00     0.043 C 
HETATM   20  C   UNL     1       0.635 -19.762   8.935  1.00  0.00     0.063 C 
HETATM   21 CL   UNL     1      -0.753 -20.427   8.969  1.00  0.00    -0.082 Cl
ENDBRANCH  12  14
ENDBRANCH   9  10
BRANCH   1  22
HETATM   22  N   UNL     1      -1.481 -25.594  10.917  1.00  0.00    -0.295 N 
ATOM     23  HN  UNL     1      -1.960 -26.491  10.848  1.00  0.00     0.177 HD
BRANCH  22  24
HETATM   24  S   UNL     1      -2.285 -24.412  11.724  1.00  0.00     0.226 S 
HETATM   25  C   UNL     1      -3.843 -24.463  11.178  1.00  0.00     0.186 C 
HETATM   26  O   UNL     1      -2.282 -24.706  13.139  1.00  0.00    -0.206 OA
HETATM   27  O   UNL     1      -1.704 -23.123  11.442  1.00  0.00    -0.206 OA
ENDBRANCH  22  24
ENDBRANCH   1  22
TORSDOF 4
ENDMDL
MODEL 9
REMARK VINA RESULT:    -6.153     15.342     16.730
REMARK INTER + INTRA:          -8.340
REMARK INTER:                  -7.490
REMARK INTRA:                  -0.850
REMARK UNBOUND:                -0.748
REMARK  4 active torsions:
REMARK  status: ('A' for Active; 'I' for Inactive)
REMARK    1  A    between atoms: S_2  and  N_5 
REMARK    2  A    between atoms: N_5  and  C_7 
REMARK    3  A    between atoms: C_15  and  C_16 
REMARK       I    between atoms: C_16  and  N_18 
REMARK    4  A    between atoms: N_18  and  C_20 
ROOT
HETATM    1  C   UNL     1      24.008  -4.685  19.761  1.00  0.00     0.109 C 
HETATM    2  C   UNL     1      24.020  -3.444  19.969  1.00  0.00    -0.008 A 
HETATM    3  C   UNL     1      24.092  -2.164  19.584  1.00  0.00     0.058 A 
HETATM    4  C   UNL     1      25.262  -1.381  18.713  1.00  0.00    -0.003 C 
HETATM    5  C   UNL     1      25.186  -0.583  18.015  1.00  0.00    -0.002 C 
HETATM    6  C   UNL     1      23.860  -0.039  17.491  1.00  0.00    -0.001 C 
HETATM    7  C   UNL     1      22.859  -0.704  18.021  1.00  0.00    -0.002 C 
HETATM    8  C   UNL     1      22.782  -1.521  18.739  1.00  0.00    -0.003 C 
HETATM    9  C   UNL     1      24.037  -1.867  20.753  1.00  0.00     0.040 A 
ENDROOT
BRANCH   9  10
HETATM   10  C   UNL     1      23.969  -1.349  22.002  1.00  0.00     0.254 C 
HETATM   11  O   UNL     1      24.936  -0.796  22.312  1.00  0.00    -0.268 OA
HETATM   12  N   UNL     1      22.814  -1.620  22.582  1.00  0.00    -0.320 N 
ATOM     13  HN  UNL     1      22.096  -2.144  22.084  1.00  0.00     0.169 HD
BRANCH  12  14
HETATM   14  C   UNL     1      22.616  -1.228  23.745  1.00  0.00     0.072 C 
HETATM   15  C   UNL     1      22.200  -0.162  24.386  1.00  0.00     0.119 C 
HETATM   16  N   UNL     1      21.812   0.509  25.360  1.00  0.00    -0.373 N 
HETATM   17  C   UNL     1      22.141  -0.400  26.230  1.00  0.00     0.089 C 
ATOM     18  HN  UNL     1      21.390   1.433  25.445  1.00  0.00     0.164 HD
HETATM   19  C   UNL     1      22.541  -1.580  26.059  1.00  0.00     0.043 C 
HETATM   20  C   UNL     1      22.813  -2.260  24.988  1.00  0.00     0.063 C 
HETATM   21 CL   UNL     1      23.223  -3.729  24.779  1.00  0.00    -0.082 Cl
ENDBRANCH  12  14
ENDBRANCH   9  10
BRANCH   1  22
HETATM   22  N   UNL     1      24.219  -5.830  19.923  1.00  0.00    -0.295 N 
ATOM     23  HN  UNL     1      23.695  -6.469  19.325  1.00  0.00     0.177 HD
BRANCH  22  24
HETATM   24  S   UNL     1      25.250  -6.529  20.991  1.00  0.00     0.226 S 
HETATM   25  C   UNL     1      25.158  -8.156  20.719  1.00  0.00     0.186 C 
HETATM   26  O   UNL     1      26.599  -6.091  20.717  1.00  0.00    -0.206 OA
HETATM   27  O   UNL     1      24.853  -6.231  22.345  1.00  0.00    -0.206 OA
ENDBRANCH  22  24
ENDBRANCH   1  22
TORSDOF 4
ENDMDL
