MODEL 1
REMARK VINA RESULT:    -7.213      0.000      0.000
REMARK INTER + INTRA:          -9.495
REMARK INTER:                  -8.900
REMARK INTRA:                  -0.596
REMARK UNBOUND:                -0.596
REMARK  4 active torsions:
REMARK  status: ('A' for Active; 'I' for Inactive)
REMARK    1  A    between atoms: S_2  and  N_5 
REMARK    2  A    between atoms: N_5  and  C_7 
REMARK    3  A    between atoms: C_7  and  C_8 
REMARK    4  A    between atoms: C_16  and  C_17 
REMARK       I    between atoms: C_17  and  N_19 
ROOT
HETATM    1  C   UNL     1       8.146  -4.690  24.831  1.00  0.00     0.032 A 
HETATM    2  C   UNL     1       7.442  -4.682  23.657  1.00  0.00     0.034 A 
HETATM    3  C   UNL     1       7.616  -5.746  22.633  1.00  0.00     0.047 C 
HETATM    4  C   UNL     1       6.825  -5.901  21.892  1.00  0.00     0.100 A 
HETATM    5  N   UNL     1       5.653  -5.433  21.679  1.00  0.00    -0.409 N 
ATOM      6  HN  UNL     1       5.003  -5.587  20.908  1.00  0.00     0.154 HD
HETATM    7  C   UNL     1       5.564  -4.834  22.553  1.00  0.00     0.100 A 
HETATM    8  C   UNL     1       6.032  -4.400  23.576  1.00  0.00     0.047 C 
HETATM    9  C   UNL     1       8.285  -3.727  23.834  1.00  0.00     0.041 A 
ENDROOT
BRANCH   9  10
HETATM   10  C   UNL     1       8.891  -2.473  23.282  1.00  0.00     0.255 C 
HETATM   11  O   UNL     1       8.671  -2.089  22.181  1.00  0.00    -0.268 OA
HETATM   12  N   UNL     1       9.592  -1.972  24.265  1.00  0.00    -0.316 N 
HETATM   13  C   UNL     1      10.240  -0.875  24.148  1.00  0.00     0.094 A 
ATOM     14  HN  UNL     1       9.624  -2.471  25.154  1.00  0.00     0.169 HD
HETATM   15  S   UNL     1       9.308   0.625  24.005  1.00  0.00     0.003 SA
HETATM   16  C   UNL     1      11.588  -0.657  24.140  1.00  0.00     0.056 A 
HETATM   17  N   UNL     1      10.455   1.486  23.936  1.00  0.00    -0.335 N 
HETATM   18  C   UNL     1      11.744   0.671  24.068  1.00  0.00     0.099 A 
ATOM     19  HN  UNL     1      10.417   2.498  23.816  1.00  0.00     0.173 HD
ENDBRANCH   9  10
BRANCH   1  20
HETATM   20  C   UNL     1       8.305  -5.279  25.968  1.00  0.00    -0.022 C 
BRANCH  20  21
HETATM   21  N   UNL     1       8.147  -5.740  26.995  1.00  0.00    -0.236 N 
ATOM     22  HN  UNL     1       8.989  -6.117  27.431  1.00  0.00     0.189 HD
BRANCH  21  23
HETATM   23  S   UNL     1       6.781  -5.896  27.885  1.00  0.00     0.327 S 
HETATM   24 CL   UNL     1       5.512  -6.440  26.698  1.00  0.00     0.042 Cl
HETATM   25  O   UNL     1       6.980  -6.910  28.871  1.00  0.00    -0.188 OA
HETATM   26  O   UNL     1       6.344  -4.652  28.386  1.00  0.00    -0.188 OA
ENDBRANCH  21  23
ENDBRANCH  20  21
ENDBRANCH   1  20
TORSDOF 4
ENDMDL
MODEL 2
REMARK VINA RESULT:    -7.107      1.960      2.061
REMARK INTER + INTRA:          -9.364
REMARK INTER:                  -8.675
REMARK INTRA:                  -0.689
REMARK UNBOUND:                -0.596
REMARK  4 active torsions:
REMARK  status: ('A' for Active; 'I' for Inactive)
REMARK    1  A    between atoms: S_2  and  N_5 
REMARK    2  A    between atoms: N_5  and  C_7 
REMARK    3  A    between atoms: C_7  and  C_8 
REMARK    4  A    between atoms: C_16  and  C_17 
REMARK       I    between atoms: C_17  and  N_19 
ROOT
HETATM    1  C   UNL     1       7.301  -5.040  25.270  1.00  0.00     0.032 A 
HETATM    2  C   UNL     1       6.876  -5.055  23.968  1.00  0.00     0.034 A 
HETATM    3  C   UNL     1       7.461  -5.985  22.965  1.00  0.00     0.047 C 
HETATM    4  C   UNL     1       6.890  -6.211  22.059  1.00  0.00     0.100 A 
HETATM    5  N   UNL     1       5.723  -5.935  21.607  1.00  0.00    -0.409 N 
ATOM      6  HN  UNL     1       5.294  -6.133  20.703  1.00  0.00     0.154 HD
HETATM    7  C   UNL     1       5.340  -5.435  22.463  1.00  0.00     0.100 A 
HETATM    8  C   UNL     1       5.488  -5.014  23.584  1.00  0.00     0.047 C 
HETATM    9  C   UNL     1       7.469  -3.987  24.373  1.00  0.00     0.041 A 
ENDROOT
BRANCH   9  10
HETATM   10  C   UNL     1       7.935  -2.606  24.026  1.00  0.00     0.255 C 
HETATM   11  O   UNL     1       8.127  -1.772  24.848  1.00  0.00    -0.268 OA
HETATM   12  N   UNL     1       8.096  -2.617  22.729  1.00  0.00    -0.316 N 
HETATM   13  C   UNL     1       8.510  -1.590  22.087  1.00  0.00     0.094 A 
ATOM     14  HN  UNL     1       7.886  -3.471  22.212  1.00  0.00     0.169 HD
HETATM   15  S   UNL     1      10.192  -1.088  22.325  1.00  0.00     0.003 SA
HETATM   16  C   UNL     1       7.848  -0.799  21.191  1.00  0.00     0.056 A 
HETATM   17  N   UNL     1      10.130   0.015  21.408  1.00  0.00    -0.335 N 
HETATM   18  C   UNL     1       8.748   0.090  20.754  1.00  0.00     0.099 A 
ATOM     19  HN  UNL     1      10.898   0.659  21.219  1.00  0.00     0.173 HD
ENDBRANCH   9  10
BRANCH   1  20
HETATM   20  C   UNL     1       7.319  -5.685  26.387  1.00  0.00    -0.022 C 
BRANCH  20  21
HETATM   21  N   UNL     1       7.426  -5.983  27.479  1.00  0.00    -0.236 N 
ATOM     22  HN  UNL     1       8.385  -6.134  27.791  1.00  0.00     0.189 HD
BRANCH  21  23
HETATM   23  S   UNL     1       6.283  -6.207  28.631  1.00  0.00     0.327 S 
HETATM   24 CL   UNL     1       4.737  -5.618  27.871  1.00  0.00     0.042 Cl
HETATM   25  O   UNL     1       6.176  -7.602  28.916  1.00  0.00    -0.188 OA
HETATM   26  O   UNL     1       6.510  -5.383  29.752  1.00  0.00    -0.188 OA
ENDBRANCH  21  23
ENDBRANCH  20  21
ENDBRANCH   1  20
TORSDOF 4
ENDMDL
MODEL 3
REMARK VINA RESULT:    -7.105      4.097      5.702
REMARK INTER + INTRA:          -9.362
REMARK INTER:                  -8.855
REMARK INTRA:                  -0.507
REMARK UNBOUND:                -0.596
REMARK  4 active torsions:
REMARK  status: ('A' for Active; 'I' for Inactive)
REMARK    1  A    between atoms: S_2  and  N_5 
REMARK    2  A    between atoms: N_5  and  C_7 
REMARK    3  A    between atoms: C_7  and  C_8 
REMARK    4  A    between atoms: C_16  and  C_17 
REMARK       I    between atoms: C_17  and  N_19 
ROOT
HETATM    1  C   UNL     1       8.285  -2.468  22.870  1.00  0.00     0.032 A 
HETATM    2  C   UNL     1       9.273  -1.547  23.094  1.00  0.00     0.034 A 
HETATM    3  C   UNL     1       9.315  -0.730  24.336  1.00  0.00     0.047 C 
HETATM    4  C   UNL     1      10.263  -0.273  24.636  1.00  0.00     0.100 A 
HETATM    5  N   UNL     1      11.476  -0.301  24.223  1.00  0.00    -0.409 N 
ATOM      6  HN  UNL     1      12.296   0.223  24.528  1.00  0.00     0.154 HD
HETATM    7  C   UNL     1      11.364  -1.039  23.467  1.00  0.00     0.100 A 
HETATM    8  C   UNL     1      10.669  -1.800  22.840  1.00  0.00     0.047 C 
HETATM    9  C   UNL     1       8.470  -1.309  22.118  1.00  0.00     0.041 A 
ENDROOT
BRANCH   9  10
HETATM   10  C   UNL     1       8.104  -0.391  20.991  1.00  0.00     0.255 C 
HETATM   11  O   UNL     1       8.915   0.086  20.268  1.00  0.00    -0.268 OA
HETATM   12  N   UNL     1       6.798  -0.331  21.011  1.00  0.00    -0.316 N 
HETATM   13  C   UNL     1       6.137   0.361  20.163  1.00  0.00     0.094 A 
ATOM     14  HN  UNL     1       6.291  -0.853  21.726  1.00  0.00     0.169 HD
HETATM   15  S   UNL     1       6.118  -0.191  18.480  1.00  0.00     0.003 SA
HETATM   16  C   UNL     1       5.390   1.488  20.353  1.00  0.00     0.056 A 
HETATM   17  N   UNL     1       5.265   0.862  18.006  1.00  0.00    -0.335 N 
HETATM   18  C   UNL     1       4.846   1.772  19.163  1.00  0.00     0.099 A 
ATOM     19  HN  UNL     1       4.979   0.986  17.035  1.00  0.00     0.173 HD
ENDBRANCH   9  10
BRANCH   1  20
HETATM   20  C   UNL     1       7.798  -3.608  23.226  1.00  0.00    -0.022 C 
BRANCH  20  21
HETATM   21  N   UNL     1       7.121  -4.442  23.598  1.00  0.00    -0.236 N 
ATOM     22  HN  UNL     1       7.292  -4.736  24.561  1.00  0.00     0.189 HD
BRANCH  21  23
HETATM   23  S   UNL     1       5.917  -5.249  22.835  1.00  0.00     0.327 S 
HETATM   24 CL   UNL     1       6.722  -6.040  21.406  1.00  0.00     0.042 Cl
HETATM   25  O   UNL     1       5.400  -6.253  23.710  1.00  0.00    -0.188 OA
HETATM   26  O   UNL     1       4.956  -4.364  22.305  1.00  0.00    -0.188 OA
ENDBRANCH  21  23
ENDBRANCH  20  21
ENDBRANCH   1  20
TORSDOF 4
ENDMDL
MODEL 4
REMARK VINA RESULT:    -7.027      3.659      7.208
REMARK INTER + INTRA:          -9.265
REMARK INTER:                  -8.770
REMARK INTRA:                  -0.496
REMARK UNBOUND:                -0.596
REMARK  4 active torsions:
REMARK  status: ('A' for Active; 'I' for Inactive)
REMARK    1  A    between atoms: S_2  and  N_5 
REMARK    2  A    between atoms: N_5  and  C_7 
REMARK    3  A    between atoms: C_7  and  C_8 
REMARK    4  A    between atoms: C_16  and  C_17 
REMARK       I    between atoms: C_17  and  N_19 
ROOT
HETATM    1  C   UNL     1       7.516  -1.683  22.102  1.00  0.00     0.032 A 
HETATM    2  C   UNL     1       8.646  -1.612  22.872  1.00  0.00     0.034 A 
HETATM    3  C   UNL     1      10.005  -1.703  22.277  1.00  0.00     0.047 C 
HETATM    4  C   UNL     1      10.857  -1.311  22.842  1.00  0.00     0.100 A 
HETATM    5  N   UNL     1      11.024  -0.674  23.941  1.00  0.00    -0.409 N 
ATOM      6  HN  UNL     1      11.875  -0.408  24.435  1.00  0.00     0.154 HD
HETATM    7  C   UNL     1      10.001  -0.508  24.181  1.00  0.00     0.100 A 
HETATM    8  C   UNL     1       8.831  -0.649  23.927  1.00  0.00     0.047 C 
HETATM    9  C   UNL     1       7.883  -2.633  23.053  1.00  0.00     0.041 A 
ENDROOT
BRANCH   9  10
HETATM   10  C   UNL     1       7.647  -3.899  23.818  1.00  0.00     0.255 C 
HETATM   11  O   UNL     1       7.828  -4.973  23.347  1.00  0.00    -0.268 OA
HETATM   12  N   UNL     1       7.285  -3.512  25.013  1.00  0.00    -0.316 N 
HETATM   13  C   UNL     1       7.017  -4.346  25.946  1.00  0.00     0.094 A 
ATOM     14  HN  UNL     1       7.214  -2.513  25.208  1.00  0.00     0.169 HD
HETATM   15  S   UNL     1       8.355  -5.289  26.622  1.00  0.00     0.003 SA
HETATM   16  C   UNL     1       5.823  -4.622  26.550  1.00  0.00     0.056 A 
HETATM   17  N   UNL     1       7.549  -5.990  27.581  1.00  0.00    -0.335 N 
HETATM   18  C   UNL     1       6.096  -5.514  27.510  1.00  0.00     0.099 A 
ATOM     19  HN  UNL     1       7.896  -6.705  28.221  1.00  0.00     0.173 HD
ENDBRANCH   9  10
BRANCH   1  20
HETATM   20  C   UNL     1       6.794  -1.079  21.220  1.00  0.00    -0.022 C 
BRANCH  20  21
HETATM   21  N   UNL     1       6.049  -0.828  20.399  1.00  0.00    -0.236 N 
ATOM     22  HN  UNL     1       5.109  -1.198  20.545  1.00  0.00     0.189 HD
BRANCH  21  23
HETATM   23  S   UNL     1       6.244   0.033  19.019  1.00  0.00     0.327 S 
HETATM   24 CL   UNL     1       5.150   1.476  19.214  1.00  0.00     0.042 Cl
HETATM   25  O   UNL     1       7.600   0.469  18.929  1.00  0.00    -0.188 OA
HETATM   26  O   UNL     1       5.766  -0.674  17.896  1.00  0.00    -0.188 OA
ENDBRANCH  21  23
ENDBRANCH  20  21
ENDBRANCH   1  20
TORSDOF 4
ENDMDL
MODEL 5
REMARK VINA RESULT:    -6.949      3.988      5.770
REMARK INTER + INTRA:          -9.169
REMARK INTER:                  -8.773
REMARK INTRA:                  -0.396
REMARK UNBOUND:                -0.596
REMARK  4 active torsions:
REMARK  status: ('A' for Active; 'I' for Inactive)
REMARK    1  A    between atoms: S_2  and  N_5 
REMARK    2  A    between atoms: N_5  and  C_7 
REMARK    3  A    between atoms: C_7  and  C_8 
REMARK    4  A    between atoms: C_16  and  C_17 
REMARK       I    between atoms: C_17  and  N_19 
ROOT
HETATM    1  C   UNL     1       6.431  -2.334  21.644  1.00  0.00     0.032 A 
HETATM    2  C   UNL     1       6.391  -3.571  22.231  1.00  0.00     0.034 A 
HETATM    3  C   UNL     1       5.307  -3.956  23.172  1.00  0.00     0.047 C 
HETATM    4  C   UNL     1       5.113  -5.019  23.348  1.00  0.00     0.100 A 
HETATM    5  N   UNL     1       5.546  -6.129  22.877  1.00  0.00    -0.409 N 
ATOM      6  HN  UNL     1       5.356  -7.092  23.157  1.00  0.00     0.154 HD
HETATM    7  C   UNL     1       6.164  -5.739  22.105  1.00  0.00     0.100 A 
HETATM    8  C   UNL     1       6.635  -4.798  21.516  1.00  0.00     0.047 C 
HETATM    9  C   UNL     1       7.373  -2.805  22.557  1.00  0.00     0.041 A 
ENDROOT
BRANCH   9  10
HETATM   10  C   UNL     1       8.628  -2.652  23.360  1.00  0.00     0.255 C 
HETATM   11  O   UNL     1       9.099  -3.545  23.985  1.00  0.00    -0.268 OA
HETATM   12  N   UNL     1       9.021  -1.424  23.147  1.00  0.00    -0.316 N 
HETATM   13  C   UNL     1      10.087  -0.950  23.672  1.00  0.00     0.094 A 
ATOM     14  HN  UNL     1       8.459  -0.823  22.543  1.00  0.00     0.169 HD
HETATM   15  S   UNL     1      11.641  -1.580  23.101  1.00  0.00     0.003 SA
HETATM   16  C   UNL     1      10.232   0.020  24.623  1.00  0.00     0.056 A 
HETATM   17  N   UNL     1      12.441  -0.740  23.946  1.00  0.00    -0.335 N 
HETATM   18  C   UNL     1      11.551   0.196  24.768  1.00  0.00     0.099 A 
ATOM     19  HN  UNL     1      13.460  -0.762  23.992  1.00  0.00     0.173 HD
ENDBRANCH   9  10
BRANCH   1  20
HETATM   20  C   UNL     1       5.875  -1.551  20.783  1.00  0.00    -0.022 C 
BRANCH  20  21
HETATM   21  N   UNL     1       5.565  -0.653  20.158  1.00  0.00    -0.236 N 
ATOM     22  HN  UNL     1       4.760  -0.138  20.516  1.00  0.00     0.189 HD
BRANCH  21  23
HETATM   23  S   UNL     1       6.206  -0.055  18.774  1.00  0.00     0.327 S 
HETATM   24 CL   UNL     1       5.353   1.533  18.516  1.00  0.00     0.042 Cl
HETATM   25  O   UNL     1       7.602   0.177  18.969  1.00  0.00    -0.188 OA
HETATM   26  O   UNL     1       5.882  -0.862  17.664  1.00  0.00    -0.188 OA
ENDBRANCH  21  23
ENDBRANCH  20  21
ENDBRANCH   1  20
TORSDOF 4
ENDMDL
MODEL 6
REMARK VINA RESULT:    -6.787      3.505      5.525
REMARK INTER + INTRA:          -8.970
REMARK INTER:                  -8.616
REMARK INTRA:                  -0.354
REMARK UNBOUND:                -0.596
REMARK  4 active torsions:
REMARK  status: ('A' for Active; 'I' for Inactive)
REMARK    1  A    between atoms: S_2  and  N_5 
REMARK    2  A    between atoms: N_5  and  C_7 
REMARK    3  A    between atoms: C_7  and  C_8 
REMARK    4  A    between atoms: C_16  and  C_17 
REMARK       I    between atoms: C_17  and  N_19 
ROOT
HETATM    1  C   UNL     1       8.953  -1.467  23.896  1.00  0.00     0.032 A 
HETATM    2  C   UNL     1      10.147  -0.810  23.759  1.00  0.00     0.034 A 
HETATM    3  C   UNL     1      10.641   0.138  24.792  1.00  0.00     0.047 C 
HETATM    4  C   UNL     1      11.710   0.374  24.825  1.00  0.00     0.100 A 
HETATM    5  N   UNL     1      12.765  -0.026  24.218  1.00  0.00    -0.409 N 
ATOM      6  HN  UNL     1      13.728   0.307  24.265  1.00  0.00     0.154 HD
HETATM    7  C   UNL     1      12.328  -0.811  23.650  1.00  0.00     0.100 A 
HETATM    8  C   UNL     1      11.360  -1.448  23.316  1.00  0.00     0.047 C 
HETATM    9  C   UNL     1       9.222  -0.516  22.914  1.00  0.00     0.041 A 
ENDROOT
BRANCH   9  10
HETATM   10  C   UNL     1       8.833   0.294  21.715  1.00  0.00     0.255 C 
HETATM   11  O   UNL     1       9.584   1.040  21.178  1.00  0.00    -0.268 OA
HETATM   12  N   UNL     1       7.606  -0.066  21.445  1.00  0.00    -0.316 N 
HETATM   13  C   UNL     1       6.957   0.422  20.456  1.00  0.00     0.094 A 
ATOM     14  HN  UNL     1       7.151  -0.757  22.042  1.00  0.00     0.169 HD
HETATM   15  S   UNL     1       7.480  -0.022  18.823  1.00  0.00     0.003 SA
HETATM   16  C   UNL     1       5.865   1.242  20.452  1.00  0.00     0.056 A 
HETATM   17  N   UNL     1       6.458   0.728  18.150  1.00  0.00    -0.335 N 
HETATM   18  C   UNL     1       5.529   1.398  19.165  1.00  0.00     0.099 A 
ATOM     19  HN  UNL     1       6.363   0.803  17.137  1.00  0.00     0.173 HD
ENDBRANCH   9  10
BRANCH   1  20
HETATM   20  C   UNL     1       8.314  -2.379  24.546  1.00  0.00    -0.022 C 
BRANCH  20  21
HETATM   21  N   UNL     1       7.800  -2.994  25.354  1.00  0.00    -0.236 N 
ATOM     22  HN  UNL     1       7.044  -2.514  25.842  1.00  0.00     0.189 HD
BRANCH  21  23
HETATM   23  S   UNL     1       8.084  -4.526  25.858  1.00  0.00     0.327 S 
HETATM   24 CL   UNL     1       6.439  -5.189  26.272  1.00  0.00     0.042 Cl
HETATM   25  O   UNL     1       8.644  -5.276  24.780  1.00  0.00    -0.188 OA
HETATM   26  O   UNL     1       8.830  -4.548  27.054  1.00  0.00    -0.188 OA
ENDBRANCH  21  23
ENDBRANCH  20  21
ENDBRANCH   1  20
TORSDOF 4
ENDMDL
MODEL 7
REMARK VINA RESULT:    -6.786     26.543     29.110
REMARK INTER + INTRA:          -8.968
REMARK INTER:                  -8.386
REMARK INTRA:                  -0.582
REMARK UNBOUND:                -0.596
REMARK  4 active torsions:
REMARK  status: ('A' for Active; 'I' for Inactive)
REMARK    1  A    between atoms: S_2  and  N_5 
REMARK    2  A    between atoms: N_5  and  C_7 
REMARK    3  A    between atoms: C_7  and  C_8 
REMARK    4  A    between atoms: C_16  and  C_17 
REMARK       I    between atoms: C_17  and  N_19 
ROOT
HETATM    1  C   UNL     1       9.320  15.110   2.325  1.00  0.00     0.032 A 
HETATM    2  C   UNL     1       9.623  15.034   3.658  1.00  0.00     0.034 A 
HETATM    3  C   UNL     1      11.028  14.980   4.139  1.00  0.00     0.047 C 
HETATM    4  C   UNL     1      11.243  15.259   5.176  1.00  0.00     0.100 A 
HETATM    5  N   UNL     1      10.578  15.732   6.163  1.00  0.00    -0.409 N 
ATOM      6  HN  UNL     1      10.850  15.897   7.132  1.00  0.00     0.154 HD
HETATM    7  C   UNL     1       9.655  15.899   5.663  1.00  0.00     0.100 A 
HETATM    8  C   UNL     1       8.978  15.835   4.667  1.00  0.00     0.047 C 
HETATM    9  C   UNL     1       9.012  14.025   3.143  1.00  0.00     0.041 A 
ENDROOT
BRANCH   9  10
HETATM   10  C   UNL     1       8.407  12.675   3.377  1.00  0.00     0.255 C 
HETATM   11  O   UNL     1       8.827  11.920   4.192  1.00  0.00    -0.268 OA
HETATM   12  N   UNL     1       7.385  12.613   2.564  1.00  0.00    -0.316 N 
HETATM   13  C   UNL     1       6.620  11.590   2.511  1.00  0.00     0.094 A 
ATOM     14  HN  UNL     1       7.193  13.407   1.952  1.00  0.00     0.169 HD
HETATM   15  S   UNL     1       5.573  11.267   3.903  1.00  0.00     0.003 SA
HETATM   16  C   UNL     1       6.450  10.681   1.505  1.00  0.00     0.056 A 
HETATM   17  N   UNL     1       4.953  10.104   3.334  1.00  0.00    -0.335 N 
HETATM   18  C   UNL     1       5.483   9.854   1.919  1.00  0.00     0.099 A 
ATOM     19  HN  UNL     1       4.258   9.525   3.805  1.00  0.00     0.173 HD
ENDBRANCH   9  10
BRANCH   1  20
HETATM   20  C   UNL     1       9.347  15.856   1.272  1.00  0.00    -0.022 C 
BRANCH  20  21
HETATM   21  N   UNL     1       9.312  16.732   0.549  1.00  0.00    -0.236 N 
ATOM     22  HN  UNL     1       9.345  16.476  -0.438  1.00  0.00     0.189 HD
BRANCH  21  23
HETATM   23  S   UNL     1       9.218  18.341   0.840  1.00  0.00     0.327 S 
HETATM   24 CL   UNL     1       7.804  18.526   1.973  1.00  0.00     0.042 Cl
HETATM   25  O   UNL     1      10.414  18.768   1.493  1.00  0.00    -0.188 OA
HETATM   26  O   UNL     1       8.884  19.060  -0.327  1.00  0.00    -0.188 OA
ENDBRANCH  21  23
ENDBRANCH  20  21
ENDBRANCH   1  20
TORSDOF 4
ENDMDL
MODEL 8
REMARK VINA RESULT:    -6.646      2.849      6.386
REMARK INTER + INTRA:          -8.796
REMARK INTER:                  -8.165
REMARK INTRA:                  -0.631
REMARK UNBOUND:                -0.596
REMARK  4 active torsions:
REMARK  status: ('A' for Active; 'I' for Inactive)
REMARK    1  A    between atoms: S_2  and  N_5 
REMARK    2  A    between atoms: N_5  and  C_7 
REMARK    3  A    between atoms: C_7  and  C_8 
REMARK    4  A    between atoms: C_16  and  C_17 
REMARK       I    between atoms: C_17  and  N_19 
ROOT
HETATM    1  C   UNL     1       8.202  -3.576  23.770  1.00  0.00     0.032 A 
HETATM    2  C   UNL     1       7.236  -4.515  23.522  1.00  0.00     0.034 A 
HETATM    3  C   UNL     1       5.887  -4.137  23.026  1.00  0.00     0.047 C 
HETATM    4  C   UNL     1       5.276  -4.895  22.525  1.00  0.00     0.100 A 
HETATM    5  N   UNL     1       5.436  -6.109  22.146  1.00  0.00    -0.409 N 
ATOM      6  HN  UNL     1       4.775  -6.773  21.743  1.00  0.00     0.154 HD
HETATM    7  C   UNL     1       6.468  -6.210  22.379  1.00  0.00     0.100 A 
HETATM    8  C   UNL     1       7.489  -5.751  22.827  1.00  0.00     0.047 C 
HETATM    9  C   UNL     1       7.606  -4.372  24.746  1.00  0.00     0.041 A 
ENDROOT
BRANCH   9  10
HETATM   10  C   UNL     1       7.448  -4.832  26.163  1.00  0.00     0.255 C 
HETATM   11  O   UNL     1       8.319  -4.743  26.964  1.00  0.00    -0.268 OA
HETATM   12  N   UNL     1       6.212  -5.249  26.250  1.00  0.00    -0.316 N 
HETATM   13  C   UNL     1       5.723  -5.701  27.342  1.00  0.00     0.094 A 
ATOM     14  HN  UNL     1       5.619  -5.213  25.421  1.00  0.00     0.169 HD
HETATM   15  S   UNL     1       5.463  -4.557  28.669  1.00  0.00     0.003 SA
HETATM   16  C   UNL     1       5.326  -6.969  27.659  1.00  0.00     0.056 A 
HETATM   17  N   UNL     1       4.910  -5.526  29.572  1.00  0.00    -0.335 N 
HETATM   18  C   UNL     1       4.819  -6.896  28.896  1.00  0.00     0.099 A 
ATOM     19  HN  UNL     1       4.618  -5.329  30.529  1.00  0.00     0.173 HD
ENDBRANCH   9  10
BRANCH   1  20
HETATM   20  C   UNL     1       9.012  -2.723  23.241  1.00  0.00    -0.022 C 
BRANCH  20  21
HETATM   21  N   UNL     1       9.654  -2.123  22.520  1.00  0.00    -0.236 N 
ATOM     22  HN  UNL     1       9.402  -2.222  21.536  1.00  0.00     0.189 HD
BRANCH  21  23
HETATM   23  S   UNL     1      10.919  -1.124  22.809  1.00  0.00     0.327 S 
HETATM   24 CL   UNL     1      10.784  -0.703  24.575  1.00  0.00     0.042 Cl
HETATM   25  O   UNL     1      12.137  -1.834  22.578  1.00  0.00    -0.188 OA
HETATM   26  O   UNL     1      10.792   0.091  22.104  1.00  0.00    -0.188 OA
ENDBRANCH  21  23
ENDBRANCH  20  21
ENDBRANCH   1  20
TORSDOF 4
ENDMDL
MODEL 9
REMARK VINA RESULT:    -6.466      4.829      7.265
REMARK INTER + INTRA:          -8.573
REMARK INTER:                  -8.089
REMARK INTRA:                  -0.484
REMARK UNBOUND:                -0.596
REMARK  4 active torsions:
REMARK  status: ('A' for Active; 'I' for Inactive)
REMARK    1  A    between atoms: S_2  and  N_5 
REMARK    2  A    between atoms: N_5  and  C_7 
REMARK    3  A    between atoms: C_7  and  C_8 
REMARK    4  A    between atoms: C_16  and  C_17 
REMARK       I    between atoms: C_17  and  N_19 
ROOT
HETATM    1  C   UNL     1       7.836   0.920  21.309  1.00  0.00     0.032 A 
HETATM    2  C   UNL     1       6.862   0.686  20.375  1.00  0.00     0.034 A 
HETATM    3  C   UNL     1       5.654   1.547  20.271  1.00  0.00     0.047 C 
HETATM    4  C   UNL     1       5.088   1.551  19.335  1.00  0.00     0.100 A 
HETATM    5  N   UNL     1       5.221   1.034  18.170  1.00  0.00    -0.409 N 
ATOM      6  HN  UNL     1       4.594   1.035  17.365  1.00  0.00     0.154 HD
HETATM    7  C   UNL     1       6.184   0.605  18.301  1.00  0.00     0.100 A 
HETATM    8  C   UNL     1       7.142   0.374  18.996  1.00  0.00     0.047 C 
HETATM    9  C   UNL     1       7.018  -0.208  21.286  1.00  0.00     0.041 A 
ENDROOT
BRANCH   9  10
HETATM   10  C   UNL     1       6.577  -1.534  21.829  1.00  0.00     0.255 C 
HETATM   11  O   UNL     1       5.982  -2.325  21.175  1.00  0.00    -0.268 OA
HETATM   12  N   UNL     1       7.035  -1.570  23.053  1.00  0.00    -0.316 N 
HETATM   13  C   UNL     1       6.855  -2.581  23.815  1.00  0.00     0.094 A 
ATOM     14  HN  UNL     1       7.553  -0.767  23.411  1.00  0.00     0.169 HD
HETATM   15  S   UNL     1       7.710  -4.081  23.417  1.00  0.00     0.003 SA
HETATM   16  C   UNL     1       6.102  -2.692  24.949  1.00  0.00     0.056 A 
HETATM   17  N   UNL     1       7.204  -4.822  24.538  1.00  0.00    -0.335 N 
HETATM   18  C   UNL     1       6.312  -3.932  25.408  1.00  0.00     0.099 A 
ATOM     19  HN  UNL     1       7.410  -5.802  24.728  1.00  0.00     0.173 HD
ENDBRANCH   9  10
BRANCH   1  20
HETATM   20  C   UNL     1       8.789   1.710  21.673  1.00  0.00    -0.022 C 
BRANCH  20  21
HETATM   21  N   UNL     1       9.426   2.485  22.208  1.00  0.00    -0.236 N 
ATOM     22  HN  UNL     1       9.425   3.411  21.780  1.00  0.00     0.189 HD
BRANCH  21  23
HETATM   23  S   UNL     1      10.345   2.349  23.557  1.00  0.00     0.327 S 
HETATM   24 CL   UNL     1      11.258   0.789  23.342  1.00  0.00     0.042 Cl
HETATM   25  O   UNL     1      11.265   3.440  23.606  1.00  0.00    -0.188 OA
HETATM   26  O   UNL     1       9.550   2.185  24.711  1.00  0.00    -0.188 OA
ENDBRANCH  21  23
ENDBRANCH  20  21
ENDBRANCH   1  20
TORSDOF 4
ENDMDL
