stable:False satoms:9 tatoms:24 sratio:0.375
  -OEChem-07092417433D

 24 27  0     1  0  0  0  0  0999 V2000
    6.5580   -4.8360   26.5023 Cl  0  0  0  0  0  0  0  0  0  0  0  0
    8.2561   -4.2781   26.1549 S   0  0  0  0  0  0  0  0  0  0  0  0
    9.1076   -5.4117   25.9893 O   0  0  0  0  0  0  0  0  0  0  0  0
    8.6098   -3.4129   27.2111 O   0  0  0  0  0  0  0  0  0  0  0  0
    8.1493   -3.4756   24.7313 N   0  0  0  0  0  0  0  0  0  0  0  0
    8.8820   -2.7638   24.2318 C   0  0  0  0  0  0  0  0  0  0  0  0
    9.4214   -1.8128   23.5468 C   0  0  0  0  0  0  0  0  0  0  0  0
   10.5788   -1.1299   23.2874 C   0  0  1  0  0  0  0  0  0  0  0  0
   11.1931   -0.2203   24.2902 C   0  0  0  0  0  0  0  0  0  0  0  0
   12.2544    0.0321   24.1948 C   0  0  0  0  0  0  0  0  0  0  0  0
   13.2249   -0.3215   23.4376 N   0  0  0  0  0  0  0  0  0  0  0  0
   12.7272   -1.0886   22.8961 C   0  0  0  0  0  0  0  0  0  0  0  0
   11.7312   -1.7272   22.6612 C   0  0  0  0  0  0  0  0  0  0  0  0
    9.5491   -0.8148   22.5827 C   0  0  3  0  0  0  0  0  0  0  0  0
    8.9984    0.0398   21.4829 C   0  0  0  0  0  0  0  0  0  0  0  0
    9.5878    0.9703   21.0411 O   0  0  0  0  0  0  0  0  0  0  0  0
    7.8547   -0.5093   21.1648 N   0  0  0  0  0  0  0  0  0  0  0  0
    7.1122   -0.0408   20.2354 C   0  0  0  0  0  0  0  0  0  0  0  0
    7.6843   -0.1892   18.5647 S   0  0  0  0  0  0  0  0  0  0  0  0
    6.5304    0.4291   17.9763 N   0  0  0  0  0  0  0  0  0  0  0  0
    4.8027    1.1517   18.4289 H   0  0  0  0  0  0  0  0  0  0  0  0
    5.5075    0.7930   19.0562 C   0  0  0  0  0  0  0  0  0  0  0  0
    5.8862    0.5560   20.3177 C   0  0  0  0  0  0  0  0  0  0  0  0
    5.3770    0.7703   21.3114 H   0  0  0  0  0  0  0  0  0  0  0  0
 19 20  1  0  0  0  0
 20 22  2  0  0  0  0
 21 22  1  0  0  0  0
 18 19  1  0  0  0  0
 22 23  1  0  0  0  0
 18 23  2  0  0  0  0
 17 18  1  0  0  0  0
 23 24  1  0  0  0  0
 15 16  2  0  0  0  0
 15 17  1  0  0  0  0
 14 15  1  0  0  0  0
  8 14  1  0  0  0  0
  7 14  1  0  0  0  0
 12 13  1  0  0  0  0
  8 13  1  0  0  0  0
 11 12  2  0  0  0  0
 10 12  1  0  0  0  0
  7  8  1  0  0  0  0
  8  9  1  0  0  0  0
 10 11  1  0  0  0  0
  6  7  2  0  0  0  0
  9 10  2  0  0  0  0
  5  6  1  0  0  0  0
  2  5  1  0  0  0  0
  2  3  2  0  0  0  0
  1  2  1  0  0  0  0
  2  4  2  0  0  0  0
M  END
> <Shapegauss>
-270.684814

$$$$
