stable:False satoms:20 tatoms:24 sratio:0.8333333333333334
  -OEChem-07092417373D

 24 24  0     1  0  0  0  0  0999 V2000
    7.1522   -4.5626   26.2667 H   0  0  0  0  0  0  0  0  0  0  0  0
    8.1751   -4.1786   26.0948 C   0  0  0  0  0  0  0  0  0  0  0  0
    8.8434   -5.0480   26.0528 H   0  0  0  0  0  0  0  0  0  0  0  0
    8.4514   -3.5404   26.9536 H   0  0  0  0  0  0  0  0  0  0  0  0
    8.3967   -3.3696   24.9625 C   0  0  0  0  0  0  0  0  0  0  0  0
    9.0942   -2.5010   24.4451 C   0  0  0  0  0  0  0  0  0  0  0  0
    9.7710   -1.5035   23.8738 C   0  0  0  0  0  0  0  0  0  0  0  0
   11.5744   -1.0254   22.7032 C   0  0  0  0  0  0  0  0  0  0  0  0
   10.1860   -0.9981   24.8330 O   0  0  0  0  0  0  0  0  0  0  0  0
   11.7465    0.5277   23.8783 H   0  0  0  0  0  0  0  0  0  0  0  0
   12.3351   -0.1612   23.6110 O   0  0  0  0  0  0  0  0  0  0  0  0
   12.1856   -0.8682   21.7869 H   0  0  0  0  0  0  0  0  0  0  0  0
   11.7803   -2.0654   22.9753 H   0  0  0  0  0  0  0  0  0  0  0  0
   10.1267   -0.8729   22.5371 C   0  0  3  0  0  0  0  0  0  0  0  0
    9.3205   -0.2057   21.5525 C   0  0  0  0  0  0  0  0  0  0  0  0
    9.7188    0.7955   21.0213 O   0  0  0  0  0  0  0  0  0  0  0  0
    8.0587   -0.6192   21.1309 N   0  0  0  0  0  0  0  0  0  0  0  0
    7.1806   -0.1793   20.3050 C   0  0  0  0  0  0  0  0  0  0  0  0
    7.3912   -0.1868   18.5891 S   0  0  0  0  0  0  0  0  0  0  0  0
    5.9809    0.6435   18.4178 N   0  3  0  0  0  0  0  0  0  0  0  0
    5.6371    1.1568   17.6410 H   0  0  0  0  0  0  0  0  0  0  0  0
    5.1946    0.8538   19.5424 N   0  0  0  0  0  0  0  0  0  0  0  0
    5.8623    0.3307   20.5651 C   0  0  0  0  0  0  0  0  0  0  0  0
    5.4210    0.2876   21.5577 H   0  0  0  0  0  0  0  0  0  0  0  0
 20 21  1  0  0  0  0
 19 20  1  0  0  0  0
 20 22  2  0  0  0  0
 18 19  1  0  0  0  0
 22 23  1  0  0  0  0
 18 23  2  0  0  0  0
 17 18  1  0  0  0  0
 23 24  1  0  0  0  0
 15 16  2  0  0  0  0
 15 17  1  0  0  0  0
 14 15  1  0  0  0  0
  8 12  1  0  0  0  0
  8 14  1  0  0  0  0
  7 14  1  0  0  0  0
  8 13  1  0  0  0  0
  8 11  1  0  0  0  0
 10 11  1  0  0  0  0
  6  7  1  0  0  0  0
  7  9  2  0  0  0  0
  5  6  1  0  0  0  0
  2  5  1  0  0  0  0
  2  3  1  0  0  0  0
  1  2  1  0  0  0  0
  2  4  1  0  0  0  0
M  CHG  1  20   1
M  END
> <Shapegauss>
-195.917358

$$$$
