MODEL 1
REMARK VINA RESULT:    -5.753      0.000      0.000
REMARK INTER + INTRA:          -8.474
REMARK INTER:                  -7.939
REMARK INTRA:                  -0.535
REMARK UNBOUND:                -0.535
REMARK  7 active torsions:
REMARK  status: ('A' for Active; 'I' for Inactive)
REMARK    1  A    between atoms: C_2  and  C_3 
REMARK    2  A    between atoms: C_3  and  C_4 
REMARK    3  A    between atoms: C_4  and  C_9 
REMARK    4  A    between atoms: C_5  and  C_9 
REMARK    5  A    between atoms: C_5  and  O_8 
REMARK    6  A    between atoms: C_9  and  C_10 
REMARK       I    between atoms: C_10  and  N_12 
REMARK    7  A    between atoms: N_12  and  C_14 
ROOT
HETATM    1  C   UNL     1       1.294 -19.153   9.482  1.00  0.00     0.259 C 
HETATM    2  O   UNL     1       0.213 -19.678   9.494  1.00  0.00    -0.267 OA
HETATM    3  N   UNL     1       1.287 -17.808   9.843  1.00  0.00    -0.315 N 
ATOM      4  HN  UNL     1       2.222 -17.402   9.837  1.00  0.00     0.170 HD
ENDROOT
BRANCH   1   5
HETATM    5  C   UNL     1       2.460 -19.908   9.111  1.00  0.00     0.091 C 
BRANCH   5   6
HETATM    6  C   UNL     1       2.657 -21.390   8.837  1.00  0.00     0.227 C 
HETATM    7  O   UNL     1       3.039 -21.694   7.783  1.00  0.00    -0.279 OA
BRANCH   6   8
HETATM    8  C   UNL     1       2.570 -22.604   9.381  1.00  0.00    -0.102 C 
BRANCH   8   9
HETATM    9  C   UNL     1       2.548 -23.696   9.943  1.00  0.00     0.084 C 
HETATM   10  C   UNL     1       3.265 -24.866  10.266  1.00  0.00     0.017 C 
ENDBRANCH   8   9
ENDBRANCH   6   8
ENDBRANCH   5   6
BRANCH   5  11
HETATM   11  C   UNL     1       3.884 -19.573   9.044  1.00  0.00     0.213 C 
BRANCH  11  12
HETATM   12  O   UNL     1       4.346 -18.181   9.085  1.00  0.00    -0.396 OA
HETATM   13  H   UNL     1       5.259 -18.212   9.324  1.00  0.00     0.209 HD
ENDBRANCH  11  12
ENDBRANCH   5  11
ENDBRANCH   1   5
BRANCH   3  14
HETATM   14  C   UNL     1       0.388 -16.957  10.181  1.00  0.00     0.111 C 
HETATM   15  S   UNL     1      -0.282 -15.789   9.096  1.00  0.00     0.021 SA
HETATM   16  N   UNL     1      -1.116 -15.117  10.344  1.00  0.00    -0.268 N 
HETATM   17  H   UNL     1      -1.548 -14.225  10.412  1.00  0.00     0.195 HD
HETATM   18  N   UNL     1      -1.095 -15.755  11.577  1.00  0.00    -0.303 N 
HETATM   19  C   UNL     1      -0.298 -16.808  11.436  1.00  0.00     0.146 C 
ATOM     20  HN  UNL     1      -1.591 -15.471  12.422  1.00  0.00     0.186 HD
ENDBRANCH   3  14
TORSDOF 7
ENDMDL
MODEL 2
REMARK VINA RESULT:    -5.416     31.589     32.842
REMARK INTER + INTRA:          -8.008
REMARK INTER:                  -7.474
REMARK INTRA:                  -0.535
REMARK UNBOUND:                -0.535
REMARK  7 active torsions:
REMARK  status: ('A' for Active; 'I' for Inactive)
REMARK    1  A    between atoms: C_2  and  C_3 
REMARK    2  A    between atoms: C_3  and  C_4 
REMARK    3  A    between atoms: C_4  and  C_9 
REMARK    4  A    between atoms: C_5  and  C_9 
REMARK    5  A    between atoms: C_5  and  O_8 
REMARK    6  A    between atoms: C_9  and  C_10 
REMARK       I    between atoms: C_10  and  N_12 
REMARK    7  A    between atoms: N_12  and  C_14 
ROOT
HETATM    1  C   UNL     1      24.364  -3.950  27.723  1.00  0.00     0.259 C 
HETATM    2  O   UNL     1      25.327  -4.348  28.320  1.00  0.00    -0.267 OA
HETATM    3  N   UNL     1      23.683  -2.912  28.352  1.00  0.00    -0.315 N 
ATOM      4  HN  UNL     1      22.883  -2.588  27.809  1.00  0.00     0.170 HD
ENDROOT
BRANCH   1   5
HETATM    5  C   UNL     1      23.997  -4.542  26.466  1.00  0.00     0.091 C 
BRANCH   5   6
HETATM    6  C   UNL     1      23.224  -3.991  25.278  1.00  0.00     0.227 C 
HETATM    7  O   UNL     1      23.141  -4.662  24.334  1.00  0.00    -0.279 OA
BRANCH   6   8
HETATM    8  C   UNL     1      22.521  -2.943  24.846  1.00  0.00    -0.102 C 
BRANCH   8   9
HETATM    9  C   UNL     1      21.866  -1.952  24.533  1.00  0.00     0.084 C 
HETATM   10  C   UNL     1      20.606  -1.322  24.554  1.00  0.00     0.017 C 
ENDBRANCH   8   9
ENDBRANCH   6   8
ENDBRANCH   5   6
BRANCH   5  11
HETATM   11  C   UNL     1      24.065  -5.912  25.952  1.00  0.00     0.213 C 
BRANCH  11  12
HETATM   12  O   UNL     1      24.367  -7.045  26.832  1.00  0.00    -0.396 OA
HETATM   13  H   UNL     1      23.545  -7.311  27.214  1.00  0.00     0.209 HD
ENDBRANCH  11  12
ENDBRANCH   5  11
ENDBRANCH   1   5
BRANCH   3  14
HETATM   14  C   UNL     1      23.819  -2.263  29.451  1.00  0.00     0.111 C 
HETATM   15  S   UNL     1      24.664  -0.760  29.578  1.00  0.00     0.021 SA
HETATM   16  N   UNL     1      24.478  -0.800  31.212  1.00  0.00    -0.268 N 
HETATM   17  H   UNL     1      24.958  -0.293  31.919  1.00  0.00     0.195 HD
HETATM   18  N   UNL     1      23.684  -1.794  31.765  1.00  0.00    -0.303 N 
HETATM   19  C   UNL     1      23.283  -2.555  30.753  1.00  0.00     0.146 C 
ATOM     20  HN  UNL     1      23.454  -1.917  32.752  1.00  0.00     0.186 HD
ENDBRANCH   3  14
TORSDOF 7
ENDMDL
MODEL 3
REMARK VINA RESULT:    -5.281     20.583     22.340
REMARK INTER + INTRA:          -7.823
REMARK INTER:                  -7.233
REMARK INTRA:                  -0.590
REMARK UNBOUND:                -0.535
REMARK  7 active torsions:
REMARK  status: ('A' for Active; 'I' for Inactive)
REMARK    1  A    between atoms: C_2  and  C_3 
REMARK    2  A    between atoms: C_3  and  C_4 
REMARK    3  A    between atoms: C_4  and  C_9 
REMARK    4  A    between atoms: C_5  and  C_9 
REMARK    5  A    between atoms: C_5  and  O_8 
REMARK    6  A    between atoms: C_9  and  C_10 
REMARK       I    between atoms: C_10  and  N_12 
REMARK    7  A    between atoms: N_12  and  C_14 
ROOT
HETATM    1  C   UNL     1       8.442  -0.533  21.113  1.00  0.00     0.259 C 
HETATM    2  O   UNL     1       9.060   0.376  20.629  1.00  0.00    -0.267 OA
HETATM    3  N   UNL     1       7.132  -0.648  20.658  1.00  0.00    -0.315 N 
ATOM      4  HN  UNL     1       6.645  -1.440  21.078  1.00  0.00     0.170 HD
ENDROOT
BRANCH   1   5
HETATM    5  C   UNL     1       9.064  -1.395  22.082  1.00  0.00     0.091 C 
BRANCH   5   6
HETATM    6  C   UNL     1       8.601  -2.695  22.720  1.00  0.00     0.227 C 
HETATM    7  O   UNL     1       9.012  -2.951  23.775  1.00  0.00    -0.279 OA
BRANCH   6   8
HETATM    8  C   UNL     1       7.824  -3.764  22.538  1.00  0.00    -0.102 C 
BRANCH   8   9
HETATM    9  C   UNL     1       7.042  -4.702  22.408  1.00  0.00     0.084 C 
HETATM   10  C   UNL     1       6.887  -6.068  22.098  1.00  0.00     0.017 C 
ENDBRANCH   8   9
ENDBRANCH   6   8
ENDBRANCH   5   6
BRANCH   5  11
HETATM   11  C   UNL     1      10.251  -1.251  22.927  1.00  0.00     0.213 C 
BRANCH  11  12
HETATM   12  O   UNL     1      11.518  -1.905  22.584  1.00  0.00    -0.396 OA
HETATM   13  H   UNL     1      11.314  -2.549  21.924  1.00  0.00     0.209 HD
ENDBRANCH  11  12
ENDBRANCH   5  11
ENDBRANCH   1   5
BRANCH   3  14
HETATM   14  C   UNL     1       6.388   0.002  19.838  1.00  0.00     0.111 C 
HETATM   15  S   UNL     1       5.636   1.512  20.217  1.00  0.00     0.021 SA
HETATM   16  N   UNL     1       4.840   1.470  18.778  1.00  0.00    -0.268 N 
HETATM   17  H   UNL     1       4.042   1.980  18.478  1.00  0.00     0.195 HD
HETATM   18  N   UNL     1       5.159   0.468  17.872  1.00  0.00    -0.303 N 
HETATM   19  C   UNL     1       6.067  -0.296  18.469  1.00  0.00     0.146 C 
ATOM     20  HN  UNL     1       4.773   0.343  16.936  1.00  0.00     0.186 HD
ENDBRANCH   3  14
TORSDOF 7
ENDMDL
MODEL 4
REMARK VINA RESULT:    -5.273     28.543     30.998
REMARK INTER + INTRA:          -7.812
REMARK INTER:                  -7.251
REMARK INTRA:                  -0.561
REMARK UNBOUND:                -0.535
REMARK  7 active torsions:
REMARK  status: ('A' for Active; 'I' for Inactive)
REMARK    1  A    between atoms: C_2  and  C_3 
REMARK    2  A    between atoms: C_3  and  C_4 
REMARK    3  A    between atoms: C_4  and  C_9 
REMARK    4  A    between atoms: C_5  and  C_9 
REMARK    5  A    between atoms: C_5  and  O_8 
REMARK    6  A    between atoms: C_9  and  C_10 
REMARK       I    between atoms: C_10  and  N_12 
REMARK    7  A    between atoms: N_12  and  C_14 
ROOT
HETATM    1  C   UNL     1       5.682  10.010   3.310  1.00  0.00     0.259 C 
HETATM    2  O   UNL     1       4.560  10.005   2.880  1.00  0.00    -0.267 OA
HETATM    3  N   UNL     1       5.920   9.073   4.311  1.00  0.00    -0.315 N 
ATOM      4  HN  UNL     1       6.886   9.095   4.639  1.00  0.00     0.170 HD
ENDROOT
BRANCH   1   5
HETATM    5  C   UNL     1       6.650  10.938   2.791  1.00  0.00     0.091 C 
BRANCH   5   6
HETATM    6  C   UNL     1       7.797  11.679   3.461  1.00  0.00     0.227 C 
HETATM    7  O   UNL     1       8.327  11.154   4.350  1.00  0.00    -0.279 OA
BRANCH   6   8
HETATM    8  C   UNL     1       8.518  12.799   3.425  1.00  0.00    -0.102 C 
BRANCH   8   9
HETATM    9  C   UNL     1       9.110  13.876   3.415  1.00  0.00     0.084 C 
HETATM   10  C   UNL     1       9.852  14.802   2.655  1.00  0.00     0.017 C 
ENDBRANCH   8   9
ENDBRANCH   6   8
ENDBRANCH   5   6
BRANCH   5  11
HETATM   11  C   UNL     1       6.775  11.636   1.510  1.00  0.00     0.213 C 
BRANCH  11  12
HETATM   12  O   UNL     1       7.115  10.917   0.277  1.00  0.00    -0.396 OA
HETATM   13  H   UNL     1       7.887  11.336  -0.070  1.00  0.00     0.209 HD
ENDBRANCH  11  12
ENDBRANCH   5  11
ENDBRANCH   1   5
BRANCH   3  14
HETATM   14  C   UNL     1       5.220   8.187   4.920  1.00  0.00     0.111 C 
HETATM   15  S   UNL     1       4.286   8.514   6.339  1.00  0.00     0.021 SA
HETATM   16  N   UNL     1       3.935   6.912   6.469  1.00  0.00    -0.268 N 
HETATM   17  H   UNL     1       3.589   6.399   7.246  1.00  0.00     0.195 HD
HETATM   18  N   UNL     1       4.327   6.061   5.446  1.00  0.00    -0.303 N 
HETATM   19  C   UNL     1       4.986   6.813   4.570  1.00  0.00     0.146 C 
ATOM     20  HN  UNL     1       4.146   5.060   5.379  1.00  0.00     0.186 HD
ENDBRANCH   3  14
TORSDOF 7
ENDMDL
MODEL 5
REMARK VINA RESULT:    -5.134     31.097     33.285
REMARK INTER + INTRA:          -7.619
REMARK INTER:                  -7.339
REMARK INTRA:                  -0.281
REMARK UNBOUND:                -0.535
REMARK  7 active torsions:
REMARK  status: ('A' for Active; 'I' for Inactive)
REMARK    1  A    between atoms: C_2  and  C_3 
REMARK    2  A    between atoms: C_3  and  C_4 
REMARK    3  A    between atoms: C_4  and  C_9 
REMARK    4  A    between atoms: C_5  and  C_9 
REMARK    5  A    between atoms: C_5  and  O_8 
REMARK    6  A    between atoms: C_9  and  C_10 
REMARK       I    between atoms: C_10  and  N_12 
REMARK    7  A    between atoms: N_12  and  C_14 
ROOT
HETATM    1  C   UNL     1       8.222  12.685   3.311  1.00  0.00     0.259 C 
HETATM    2  O   UNL     1       8.854  12.205   4.213  1.00  0.00    -0.267 OA
HETATM    3  N   UNL     1       8.588  13.986   2.978  1.00  0.00    -0.315 N 
ATOM      4  HN  UNL     1       8.043  14.354   2.198  1.00  0.00     0.170 HD
ENDROOT
BRANCH   1   5
HETATM    5  C   UNL     1       7.182  11.925   2.672  1.00  0.00     0.091 C 
BRANCH   5   6
HETATM    6  C   UNL     1       6.414  10.691   3.119  1.00  0.00     0.227 C 
HETATM    7  O   UNL     1       5.831  10.100   2.307  1.00  0.00    -0.279 OA
BRANCH   6   8
HETATM    8  C   UNL     1       6.122   9.932   4.175  1.00  0.00    -0.102 C 
BRANCH   8   9
HETATM    9  C   UNL     1       5.851   9.163   5.094  1.00  0.00     0.084 C 
HETATM   10  C   UNL     1       5.169   7.993   5.484  1.00  0.00     0.017 C 
ENDBRANCH   8   9
ENDBRANCH   6   8
ENDBRANCH   5   6
BRANCH   5  11
HETATM   11  C   UNL     1       6.623  11.943   1.319  1.00  0.00     0.213 C 
BRANCH  11  12
HETATM   12  O   UNL     1       7.219  11.158   0.234  1.00  0.00    -0.396 OA
HETATM   13  H   UNL     1       8.099  11.484   0.122  1.00  0.00     0.209 HD
ENDBRANCH  11  12
ENDBRANCH   5  11
ENDBRANCH   1   5
BRANCH   3  14
HETATM   14  C   UNL     1       9.446  14.835   3.415  1.00  0.00     0.111 C 
HETATM   15  S   UNL     1       9.102  16.513   3.647  1.00  0.00     0.021 SA
HETATM   16  N   UNL     1      10.683  16.782   4.013  1.00  0.00    -0.268 N 
HETATM   17  H   UNL     1      11.194  17.633   4.034  1.00  0.00     0.195 HD
HETATM   18  N   UNL     1      11.529  15.689   4.140  1.00  0.00    -0.303 N 
HETATM   19  C   UNL     1      10.796  14.617   3.860  1.00  0.00     0.146 C 
ATOM     20  HN  UNL     1      12.517  15.706   4.396  1.00  0.00     0.186 HD
ENDBRANCH   3  14
TORSDOF 7
ENDMDL
MODEL 6
REMARK VINA RESULT:    -5.044     22.650     25.065
REMARK INTER + INTRA:          -7.495
REMARK INTER:                  -7.286
REMARK INTRA:                  -0.210
REMARK UNBOUND:                -0.535
REMARK  7 active torsions:
REMARK  status: ('A' for Active; 'I' for Inactive)
REMARK    1  A    between atoms: C_2  and  C_3 
REMARK    2  A    between atoms: C_3  and  C_4 
REMARK    3  A    between atoms: C_4  and  C_9 
REMARK    4  A    between atoms: C_5  and  C_9 
REMARK    5  A    between atoms: C_5  and  O_8 
REMARK    6  A    between atoms: C_9  and  C_10 
REMARK       I    between atoms: C_10  and  N_12 
REMARK    7  A    between atoms: N_12  and  C_14 
ROOT
HETATM    1  C   UNL     1       8.550   1.058  21.291  1.00  0.00     0.259 C 
HETATM    2  O   UNL     1       8.201   2.208  21.284  1.00  0.00    -0.267 OA
HETATM    3  N   UNL     1       7.792   0.220  20.479  1.00  0.00    -0.315 N 
ATOM      4  HN  UNL     1       8.127  -0.743  20.497  1.00  0.00     0.170 HD
ENDROOT
BRANCH   1   5
HETATM    5  C   UNL     1       9.666   0.647  22.098  1.00  0.00     0.091 C 
BRANCH   5   6
HETATM    6  C   UNL     1      10.652   1.443  22.938  1.00  0.00     0.227 C 
HETATM    7  O   UNL     1      11.493   0.854  23.481  1.00  0.00    -0.279 OA
BRANCH   6   8
HETATM    8  C   UNL     1      10.979   2.675  23.332  1.00  0.00    -0.102 C 
BRANCH   8   9
HETATM    9  C   UNL     1      11.284   3.832  23.609  1.00  0.00     0.084 C 
HETATM   10  C   UNL     1      12.306   4.802  23.642  1.00  0.00     0.017 C 
ENDBRANCH   8   9
ENDBRANCH   6   8
ENDBRANCH   5   6
BRANCH   5  11
HETATM   11  C   UNL     1      10.361  -0.632  22.260  1.00  0.00     0.213 C 
BRANCH  11  12
HETATM   12  O   UNL     1       9.846  -1.865  21.656  1.00  0.00    -0.396 OA
HETATM   13  H   UNL     1       8.987  -2.003  22.026  1.00  0.00     0.209 HD
ENDBRANCH  11  12
ENDBRANCH   5  11
ENDBRANCH   1   5
BRANCH   3  14
HETATM   14  C   UNL     1       6.773   0.366  19.712  1.00  0.00     0.111 C 
HETATM   15  S   UNL     1       5.457   1.432  20.059  1.00  0.00     0.021 SA
HETATM   16  N   UNL     1       4.652   0.858  18.745  1.00  0.00    -0.268 N 
HETATM   17  H   UNL     1       3.689   0.925  18.511  1.00  0.00     0.195 HD
HETATM   18  N   UNL     1       5.312  -0.015  17.891  1.00  0.00    -0.303 N 
HETATM   19  C   UNL     1       6.511  -0.220  18.425  1.00  0.00     0.146 C 
ATOM     20  HN  UNL     1       4.950  -0.418  17.027  1.00  0.00     0.186 HD
ENDBRANCH   3  14
TORSDOF 7
ENDMDL
MODEL 7
REMARK VINA RESULT:    -4.995     23.150     25.541
REMARK INTER + INTRA:          -7.428
REMARK INTER:                  -6.768
REMARK INTRA:                  -0.659
REMARK UNBOUND:                -0.535
REMARK  7 active torsions:
REMARK  status: ('A' for Active; 'I' for Inactive)
REMARK    1  A    between atoms: C_2  and  C_3 
REMARK    2  A    between atoms: C_3  and  C_4 
REMARK    3  A    between atoms: C_4  and  C_9 
REMARK    4  A    between atoms: C_5  and  C_9 
REMARK    5  A    between atoms: C_5  and  O_8 
REMARK    6  A    between atoms: C_9  and  C_10 
REMARK       I    between atoms: C_10  and  N_12 
REMARK    7  A    between atoms: N_12  and  C_14 
ROOT
HETATM    1  C   UNL     1      10.655  -1.244  23.448  1.00  0.00     0.259 C 
HETATM    2  O   UNL     1      11.320  -2.019  22.814  1.00  0.00    -0.267 OA
HETATM    3  N   UNL     1       9.380  -1.703  23.764  1.00  0.00    -0.315 N 
ATOM      4  HN  UNL     1       8.851  -1.028  24.316  1.00  0.00     0.170 HD
ENDROOT
BRANCH   1   5
HETATM    5  C   UNL     1      11.192   0.038  23.816  1.00  0.00     0.091 C 
BRANCH   5   6
HETATM    6  C   UNL     1      10.627   1.443  23.684  1.00  0.00     0.227 C 
HETATM    7  O   UNL     1       9.481   1.548  23.528  1.00  0.00    -0.279 OA
BRANCH   6   8
HETATM    8  C   UNL     1      10.952   2.737  23.688  1.00  0.00    -0.102 C 
BRANCH   8   9
HETATM    9  C   UNL     1      11.336   3.903  23.680  1.00  0.00     0.084 C 
HETATM   10  C   UNL     1      12.413   4.784  23.455  1.00  0.00     0.017 C 
ENDBRANCH   8   9
ENDBRANCH   6   8
ENDBRANCH   5   6
BRANCH   5  11
HETATM   11  C   UNL     1      12.515   0.472  24.268  1.00  0.00     0.213 C 
BRANCH  11  12
HETATM   12  O   UNL     1      13.645  -0.460  24.333  1.00  0.00    -0.396 OA
HETATM   13  H   UNL     1      14.156  -0.313  23.552  1.00  0.00     0.209 HD
ENDBRANCH  11  12
ENDBRANCH   5  11
ENDBRANCH   1   5
BRANCH   3  14
HETATM   14  C   UNL     1       8.707  -2.771  23.528  1.00  0.00     0.111 C 
HETATM   15  S   UNL     1       8.465  -4.026  24.692  1.00  0.00     0.021 SA
HETATM   16  N   UNL     1       7.727  -4.942  23.542  1.00  0.00    -0.268 N 
HETATM   17  H   UNL     1       7.539  -5.917  23.531  1.00  0.00     0.195 HD
HETATM   18  N   UNL     1       7.471  -4.372  22.303  1.00  0.00    -0.303 N 
HETATM   19  C   UNL     1       7.974  -3.143  22.349  1.00  0.00     0.146 C 
ATOM     20  HN  UNL     1       6.992  -4.808  21.515  1.00  0.00     0.186 HD
ENDBRANCH   3  14
TORSDOF 7
ENDMDL
MODEL 8
REMARK VINA RESULT:    -4.969     20.754     23.202
REMARK INTER + INTRA:          -7.392
REMARK INTER:                  -6.887
REMARK INTRA:                  -0.505
REMARK UNBOUND:                -0.535
REMARK  7 active torsions:
REMARK  status: ('A' for Active; 'I' for Inactive)
REMARK    1  A    between atoms: C_2  and  C_3 
REMARK    2  A    between atoms: C_3  and  C_4 
REMARK    3  A    between atoms: C_4  and  C_9 
REMARK    4  A    between atoms: C_5  and  C_9 
REMARK    5  A    between atoms: C_5  and  O_8 
REMARK    6  A    between atoms: C_9  and  C_10 
REMARK       I    between atoms: C_10  and  N_12 
REMARK    7  A    between atoms: N_12  and  C_14 
ROOT
HETATM    1  C   UNL     1       8.063  -2.355  22.442  1.00  0.00     0.259 C 
HETATM    2  O   UNL     1       6.976  -1.861  22.305  1.00  0.00    -0.267 OA
HETATM    3  N   UNL     1       8.057  -3.744  22.532  1.00  0.00    -0.315 N 
ATOM      4  HN  UNL     1       8.997  -4.128  22.630  1.00  0.00     0.170 HD
ENDROOT
BRANCH   1   5
HETATM    5  C   UNL     1       9.233  -1.522  22.504  1.00  0.00     0.091 C 
BRANCH   5   6
HETATM    6  C   UNL     1       9.493  -0.109  22.007  1.00  0.00     0.227 C 
HETATM    7  O   UNL     1       9.302   0.107  20.882  1.00  0.00    -0.279 OA
BRANCH   6   8
HETATM    8  C   UNL     1       9.881   1.109  22.387  1.00  0.00    -0.102 C 
BRANCH   8   9
HETATM    9  C   UNL     1      10.285   2.236  22.661  1.00  0.00     0.084 C 
HETATM   10  C   UNL     1      11.002   3.038  23.572  1.00  0.00     0.017 C 
ENDBRANCH   8   9
ENDBRANCH   6   8
ENDBRANCH   5   6
BRANCH   5  11
HETATM   11  C   UNL     1      10.621  -1.782  22.889  1.00  0.00     0.213 C 
BRANCH  11  12
HETATM   12  O   UNL     1      11.718  -1.668  21.922  1.00  0.00    -0.396 OA
HETATM   13  H   UNL     1      12.447  -2.143  22.291  1.00  0.00     0.209 HD
ENDBRANCH  11  12
ENDBRANCH   5  11
ENDBRANCH   1   5
BRANCH   3  14
HETATM   14  C   UNL     1       7.157  -4.658  22.521  1.00  0.00     0.111 C 
HETATM   15  S   UNL     1       6.245  -5.121  23.915  1.00  0.00     0.021 SA
HETATM   16  N   UNL     1       5.557  -6.342  23.053  1.00  0.00    -0.268 N 
HETATM   17  H   UNL     1       5.074  -7.149  23.370  1.00  0.00     0.195 HD
HETATM   18  N   UNL     1       5.810  -6.416  21.691  1.00  0.00    -0.303 N 
HETATM   19  C   UNL     1       6.655  -5.428  21.416  1.00  0.00     0.146 C 
ATOM     20  HN  UNL     1       5.425  -7.093  21.032  1.00  0.00     0.186 HD
ENDBRANCH   3  14
TORSDOF 7
ENDMDL
MODEL 9
REMARK VINA RESULT:    -4.957     19.968     22.373
REMARK INTER + INTRA:          -7.376
REMARK INTER:                  -6.847
REMARK INTRA:                  -0.529
REMARK UNBOUND:                -0.535
REMARK  7 active torsions:
REMARK  status: ('A' for Active; 'I' for Inactive)
REMARK    1  A    between atoms: C_2  and  C_3 
REMARK    2  A    between atoms: C_3  and  C_4 
REMARK    3  A    between atoms: C_4  and  C_9 
REMARK    4  A    between atoms: C_5  and  C_9 
REMARK    5  A    between atoms: C_5  and  O_8 
REMARK    6  A    between atoms: C_9  and  C_10 
REMARK       I    between atoms: C_10  and  N_12 
REMARK    7  A    between atoms: N_12  and  C_14 
ROOT
HETATM    1  C   UNL     1       8.538  -2.638  22.588  1.00  0.00     0.259 C 
HETATM    2  O   UNL     1       8.849  -3.138  23.635  1.00  0.00    -0.267 OA
HETATM    3  N   UNL     1       7.534  -3.315  21.901  1.00  0.00    -0.315 N 
ATOM      4  HN  UNL     1       7.284  -2.853  21.027  1.00  0.00     0.170 HD
ENDROOT
BRANCH   1   5
HETATM    5  C   UNL     1       9.190  -1.440  22.136  1.00  0.00     0.091 C 
BRANCH   5   6
HETATM    6  C   UNL     1       8.734  -0.334  21.197  1.00  0.00     0.227 C 
HETATM    7  O   UNL     1       9.471   0.541  21.001  1.00  0.00    -0.279 OA
BRANCH   6   8
HETATM    8  C   UNL     1       7.727   0.067  20.420  1.00  0.00    -0.102 C 
BRANCH   8   9
HETATM    9  C   UNL     1       6.790   0.507  19.759  1.00  0.00     0.084 C 
HETATM   10  C   UNL     1       6.229   0.664  18.475  1.00  0.00     0.017 C 
ENDBRANCH   8   9
ENDBRANCH   6   8
ENDBRANCH   5   6
BRANCH   5  11
HETATM   11  C   UNL     1      10.563  -0.946  22.260  1.00  0.00     0.213 C 
BRANCH  11  12
HETATM   12  O   UNL     1      11.646  -1.807  22.747  1.00  0.00    -0.396 OA
HETATM   13  H   UNL     1      12.081  -1.324  23.433  1.00  0.00     0.209 HD
ENDBRANCH  11  12
ENDBRANCH   5  11
ENDBRANCH   1   5
BRANCH   3  14
HETATM   14  C   UNL     1       6.846  -4.380  22.103  1.00  0.00     0.111 C 
HETATM   15  S   UNL     1       5.297  -4.389  22.870  1.00  0.00     0.021 SA
HETATM   16  N   UNL     1       5.297  -6.034  22.839  1.00  0.00    -0.268 N 
HETATM   17  H   UNL     1       4.745  -6.679  23.354  1.00  0.00     0.195 HD
HETATM   18  N   UNL     1       6.316  -6.684  22.158  1.00  0.00    -0.303 N 
HETATM   19  C   UNL     1       7.128  -5.733  21.708  1.00  0.00     0.146 C 
ATOM     20  HN  UNL     1       6.422  -7.691  22.029  1.00  0.00     0.186 HD
ENDBRANCH   3  14
TORSDOF 7
ENDMDL
