REMARK  7 active torsions:
REMARK  status: ('A' for Active; 'I' for Inactive)
REMARK    1  A    between atoms: C_2  and  C_3 
REMARK    2  A    between atoms: C_3  and  C_4 
REMARK    3  A    between atoms: C_4  and  C_9 
REMARK    4  A    between atoms: C_5  and  C_9 
REMARK    5  A    between atoms: C_5  and  O_8 
REMARK    6  A    between atoms: C_9  and  C_10 
REMARK       I    between atoms: C_10  and  N_12 
REMARK    7  A    between atoms: N_12  and  C_14 
ROOT
HETATM    1  C   UNL     1       9.320  -0.206  21.552  1.00  0.00     0.259 C 
HETATM    2  O   UNL     1       9.719   0.795  21.021  1.00  0.00    -0.267 OA
HETATM    3  N   UNL     1       8.059  -0.619  21.131  1.00  0.00    -0.315 N 
ATOM      4  HN  UNL     1       7.761  -1.480  21.590  1.00  0.00     0.170 HD
ENDROOT
BRANCH   1   5
HETATM    5  C   UNL     1      10.127  -0.873  22.537  1.00  0.00     0.091 C 
BRANCH   5   6
HETATM    6  C   UNL     1       9.771  -1.504  23.874  1.00  0.00     0.227 C 
HETATM    7  O   UNL     1      10.186  -0.998  24.833  1.00  0.00    -0.279 OA
BRANCH   6   8
HETATM    8  C   UNL     1       9.094  -2.501  24.445  1.00  0.00    -0.102 C 
BRANCH   8   9
HETATM    9  C   UNL     1       8.397  -3.370  24.962  1.00  0.00     0.084 C 
HETATM   10  C   UNL     1       8.175  -4.179  26.095  1.00  0.00     0.017 C 
ENDBRANCH   8   9
ENDBRANCH   6   8
ENDBRANCH   5   6
BRANCH   5  11
HETATM   11  C   UNL     1      11.574  -1.025  22.703  1.00  0.00     0.213 C 
BRANCH  11  12
HETATM   12  O   UNL     1      12.335  -0.161  23.611  1.00  0.00    -0.396 OA
HETATM   13  H   UNL     1      11.746   0.528  23.878  1.00  0.00     0.209 HD
ENDBRANCH  11  12
ENDBRANCH   5  11
ENDBRANCH   1   5
BRANCH   3  14
HETATM   14  C   UNL     1       7.181  -0.179  20.305  1.00  0.00     0.111 C 
HETATM   15  S   UNL     1       7.391  -0.187  18.589  1.00  0.00     0.021 SA
HETATM   16  N   UNL     1       5.981   0.643  18.418  1.00  0.00    -0.268 N 
HETATM   17  H   UNL     1       5.637   1.157  17.641  1.00  0.00     0.195 HD
HETATM   18  N   UNL     1       5.195   0.854  19.542  1.00  0.00    -0.303 N 
HETATM   19  C   UNL     1       5.862   0.331  20.565  1.00  0.00     0.146 C 
ATOM     20  HN  UNL     1       4.287   1.318  19.576  1.00  0.00     0.186 HD
ENDBRANCH   3  14
TORSDOF 7
