MODEL 1
REMARK VINA RESULT:    -7.497      0.000      0.000
REMARK INTER + INTRA:         -10.499
REMARK INTER:                  -9.688
REMARK INTRA:                  -0.811
REMARK UNBOUND:                -0.811
REMARK  5 active torsions:
REMARK  status: ('A' for Active; 'I' for Inactive)
REMARK    1  A    between atoms: S_2  and  N_5 
REMARK    2  A    between atoms: N_5  and  C_7 
REMARK    3  A    between atoms: C_7  and  C_8 
REMARK    4  A    between atoms: C_14  and  C_15 
REMARK       I    between atoms: C_15  and  N_17 
REMARK    5  A    between atoms: N_17  and  C_19 
ROOT
HETATM    1  C   UNL     1       6.753  -2.243  21.885  1.00  0.00     0.060 A 
HETATM    2  C   UNL     1       6.728  -3.550  22.415  1.00  0.00     0.140 A 
HETATM    3  C   UNL     1       5.868  -4.028  23.172  1.00  0.00     0.079 C 
HETATM    4  C   UNL     1       6.076  -5.578  23.066  1.00  0.00     0.001 C 
HETATM    5  C   UNL     1       6.846  -5.641  22.040  1.00  0.00     0.133 C 
HETATM    6  O   UNL     1       7.160  -4.610  21.589  1.00  0.00    -0.341 OA
HETATM    7  C   UNL     1       7.679  -2.693  22.777  1.00  0.00     0.069 A 
ENDROOT
BRANCH   7   8
HETATM    8  C   UNL     1       8.930  -2.461  23.575  1.00  0.00     0.257 C 
HETATM    9  O   UNL     1       9.071  -2.997  24.626  1.00  0.00    -0.267 OA
HETATM   10  N   UNL     1       9.669  -1.652  22.914  1.00  0.00    -0.320 N 
ATOM     11  HN  UNL     1       9.336  -1.285  22.022  1.00  0.00     0.169 HD
BRANCH  10  12
HETATM   12  C   UNL     1      10.784  -1.307  23.338  1.00  0.00     0.072 A 
HETATM   13  C   UNL     1      12.056  -1.651  23.109  1.00  0.00     0.119 A 
HETATM   14  N   UNL     1      13.248  -1.547  23.206  1.00  0.00    -0.373 N 
HETATM   15  C   UNL     1      13.156  -0.534  24.033  1.00  0.00     0.089 A 
ATOM     16  HN  UNL     1      14.035  -2.054  22.799  1.00  0.00     0.164 HD
HETATM   17  C   UNL     1      12.191   0.029  24.503  1.00  0.00     0.043 A 
HETATM   18  C   UNL     1      10.911  -0.101  24.317  1.00  0.00     0.063 A 
HETATM   19 CL   UNL     1       9.678   0.791  24.838  1.00  0.00    -0.082 Cl
ENDBRANCH  10  12
ENDBRANCH   7   8
BRANCH   1  20
HETATM   20  C   UNL     1       6.112  -1.425  21.072  1.00  0.00    -0.019 C 
BRANCH  20  21
HETATM   21  N   UNL     1       5.828  -0.610  20.313  1.00  0.00    -0.236 N 
ATOM     22  HN  UNL     1       5.052  -0.037  20.646  1.00  0.00     0.189 HD
BRANCH  21  23
HETATM   23  S   UNL     1       6.338  -0.139  18.865  1.00  0.00     0.327 S 
HETATM   24 CL   UNL     1       5.473   1.512  18.442  1.00  0.00     0.042 Cl
HETATM   25  O   UNL     1       7.737   0.121  18.910  1.00  0.00    -0.188 OA
HETATM   26  O   UNL     1       5.932  -1.079  17.869  1.00  0.00    -0.188 OA
ENDBRANCH  21  23
ENDBRANCH  20  21
ENDBRANCH   1  20
TORSDOF 5
ENDMDL
MODEL 2
REMARK VINA RESULT:    -7.381      3.058      6.216
REMARK INTER + INTRA:         -10.350
REMARK INTER:                  -9.390
REMARK INTRA:                  -0.960
REMARK UNBOUND:                -0.811
REMARK  5 active torsions:
REMARK  status: ('A' for Active; 'I' for Inactive)
REMARK    1  A    between atoms: S_2  and  N_5 
REMARK    2  A    between atoms: N_5  and  C_7 
REMARK    3  A    between atoms: C_7  and  C_8 
REMARK    4  A    between atoms: C_14  and  C_15 
REMARK       I    between atoms: C_15  and  N_17 
REMARK    5  A    between atoms: N_17  and  C_19 
ROOT
HETATM    1  C   UNL     1       8.860  -2.445  23.108  1.00  0.00     0.060 A 
HETATM    2  C   UNL     1       9.895  -1.511  23.315  1.00  0.00     0.140 A 
HETATM    3  C   UNL     1      10.058  -0.790  24.312  1.00  0.00     0.079 C 
HETATM    4  C   UNL     1      11.550  -0.322  24.215  1.00  0.00     0.001 C 
HETATM    5  C   UNL     1      11.987  -1.120  23.308  1.00  0.00     0.133 C 
HETATM    6  O   UNL     1      11.188  -1.838  22.850  1.00  0.00    -0.341 OA
HETATM    7  C   UNL     1       8.988  -1.312  22.363  1.00  0.00     0.069 A 
ENDROOT
BRANCH   7   8
HETATM    8  C   UNL     1       8.518  -0.446  21.230  1.00  0.00     0.257 C 
HETATM    9  O   UNL     1       9.257   0.346  20.743  1.00  0.00    -0.267 OA
HETATM   10  N   UNL     1       7.299  -0.750  20.987  1.00  0.00    -0.320 N 
ATOM     11  HN  UNL     1       6.837  -1.460  21.556  1.00  0.00     0.169 HD
BRANCH  10  12
HETATM   12  C   UNL     1       6.667  -0.196  20.072  1.00  0.00     0.072 A 
HETATM   13  C   UNL     1       6.292  -0.510  18.828  1.00  0.00     0.119 A 
HETATM   14  N   UNL     1       5.705  -0.350  17.792  1.00  0.00    -0.373 N 
HETATM   15  C   UNL     1       5.219   0.806  18.173  1.00  0.00     0.089 A 
ATOM     16  HN  UNL     1       5.617  -0.904  16.940  1.00  0.00     0.164 HD
HETATM   17  C   UNL     1       5.365   1.435  19.199  1.00  0.00     0.043 A 
HETATM   18  C   UNL     1       5.980   1.181  20.316  1.00  0.00     0.063 A 
HETATM   19 CL   UNL     1       5.997   1.981  21.711  1.00  0.00    -0.082 Cl
ENDBRANCH  10  12
ENDBRANCH   7   8
BRANCH   1  20
HETATM   20  C   UNL     1       8.366  -3.584  23.555  1.00  0.00    -0.019 C 
BRANCH  20  21
HETATM   21  N   UNL     1       7.723  -4.519  23.744  1.00  0.00    -0.236 N 
ATOM     22  HN  UNL     1       7.921  -4.937  24.652  1.00  0.00     0.189 HD
BRANCH  21  23
HETATM   23  S   UNL     1       6.594  -5.335  22.946  1.00  0.00     0.327 S 
HETATM   24 CL   UNL     1       5.667  -4.106  21.813  1.00  0.00     0.042 Cl
HETATM   25  O   UNL     1       7.207  -6.301  22.100  1.00  0.00    -0.188 OA
HETATM   26  O   UNL     1       5.627  -5.859  23.856  1.00  0.00    -0.188 OA
ENDBRANCH  21  23
ENDBRANCH  20  21
ENDBRANCH   1  20
TORSDOF 5
ENDMDL
MODEL 3
REMARK VINA RESULT:    -7.268      2.763      5.267
REMARK INTER + INTRA:         -10.204
REMARK INTER:                  -9.360
REMARK INTRA:                  -0.844
REMARK UNBOUND:                -0.811
REMARK  5 active torsions:
REMARK  status: ('A' for Active; 'I' for Inactive)
REMARK    1  A    between atoms: S_2  and  N_5 
REMARK    2  A    between atoms: N_5  and  C_7 
REMARK    3  A    between atoms: C_7  and  C_8 
REMARK    4  A    between atoms: C_14  and  C_15 
REMARK       I    between atoms: C_15  and  N_17 
REMARK    5  A    between atoms: N_17  and  C_19 
ROOT
HETATM    1  C   UNL     1       9.754  -0.763  22.510  1.00  0.00     0.060 A 
HETATM    2  C   UNL     1      10.913  -0.792  23.313  1.00  0.00     0.140 A 
HETATM    3  C   UNL     1      11.972  -1.392  23.068  1.00  0.00     0.079 C 
HETATM    4  C   UNL     1      13.026  -0.724  24.015  1.00  0.00     0.001 C 
HETATM    5  C   UNL     1      12.371   0.313  24.399  1.00  0.00     0.133 C 
HETATM    6  O   UNL     1      11.278   0.388  23.996  1.00  0.00    -0.341 OA
HETATM    7  C   UNL     1       9.787  -1.361  23.733  1.00  0.00     0.069 A 
ENDROOT
BRANCH   7   8
HETATM    8  C   UNL     1       9.079  -2.091  24.839  1.00  0.00     0.257 C 
HETATM    9  O   UNL     1       8.899  -1.554  25.883  1.00  0.00    -0.267 OA
HETATM   10  N   UNL     1       8.784  -3.259  24.408  1.00  0.00    -0.320 N 
ATOM     11  HN  UNL     1       9.060  -3.529  23.464  1.00  0.00     0.169 HD
BRANCH  10  12
HETATM   12  C   UNL     1       8.167  -4.069  25.118  1.00  0.00     0.072 A 
HETATM   13  C   UNL     1       8.471  -4.920  26.104  1.00  0.00     0.119 A 
HETATM   14  N   UNL     1       8.230  -5.702  26.984  1.00  0.00    -0.373 N 
HETATM   15  C   UNL     1       6.939  -5.656  26.757  1.00  0.00     0.089 A 
ATOM     16  HN  UNL     1       8.809  -6.209  27.653  1.00  0.00     0.164 HD
HETATM   17  C   UNL     1       6.294  -5.043  25.935  1.00  0.00     0.043 A 
HETATM   18  C   UNL     1       6.613  -4.164  25.031  1.00  0.00     0.063 A 
HETATM   19 CL   UNL     1       5.691  -3.254  24.079  1.00  0.00    -0.082 Cl
ENDBRANCH  10  12
ENDBRANCH   7   8
BRANCH   1  20
HETATM   20  C   UNL     1       9.290  -0.347  21.347  1.00  0.00    -0.019 C 
BRANCH  20  21
HETATM   21  N   UNL     1       8.719  -0.231  20.356  1.00  0.00    -0.236 N 
ATOM     22  HN  UNL     1       9.299  -0.475  19.554  1.00  0.00     0.189 HD
BRANCH  21  23
HETATM   23  S   UNL     1       7.244   0.218  19.909  1.00  0.00     0.327 S 
HETATM   24 CL   UNL     1       6.709   1.678  21.020  1.00  0.00     0.042 Cl
HETATM   25  O   UNL     1       7.273   0.700  18.570  1.00  0.00    -0.188 OA
HETATM   26  O   UNL     1       6.313  -0.839  20.148  1.00  0.00    -0.188 OA
ENDBRANCH  21  23
ENDBRANCH  20  21
ENDBRANCH   1  20
TORSDOF 5
ENDMDL
MODEL 4
REMARK VINA RESULT:    -6.878      4.278      6.051
REMARK INTER + INTRA:          -9.700
REMARK INTER:                  -8.848
REMARK INTRA:                  -0.853
REMARK UNBOUND:                -0.811
REMARK  5 active torsions:
REMARK  status: ('A' for Active; 'I' for Inactive)
REMARK    1  A    between atoms: S_2  and  N_5 
REMARK    2  A    between atoms: N_5  and  C_7 
REMARK    3  A    between atoms: C_7  and  C_8 
REMARK    4  A    between atoms: C_14  and  C_15 
REMARK       I    between atoms: C_15  and  N_17 
REMARK    5  A    between atoms: N_17  and  C_19 
ROOT
HETATM    1  C   UNL     1       7.564  -4.890  25.211  1.00  0.00     0.060 A 
HETATM    2  C   UNL     1       7.075  -5.047  23.897  1.00  0.00     0.140 A 
HETATM    3  C   UNL     1       7.540  -5.786  23.015  1.00  0.00     0.079 C 
HETATM    4  C   UNL     1       6.384  -5.915  21.966  1.00  0.00     0.001 C 
HETATM    5  C   UNL     1       5.403  -5.429  22.639  1.00  0.00     0.133 C 
HETATM    6  O   UNL     1       5.677  -5.032  23.702  1.00  0.00    -0.341 OA
HETATM    7  C   UNL     1       7.602  -3.890  24.287  1.00  0.00     0.069 A 
ENDROOT
BRANCH   7   8
HETATM    8  C   UNL     1       7.928  -2.468  23.929  1.00  0.00     0.257 C 
HETATM    9  O   UNL     1       7.276  -1.897  23.116  1.00  0.00    -0.267 OA
HETATM   10  N   UNL     1       8.940  -2.113  24.626  1.00  0.00    -0.320 N 
ATOM     11  HN  UNL     1       9.371  -2.785  25.262  1.00  0.00     0.169 HD
BRANCH  10  12
HETATM   12  C   UNL     1       9.408  -0.965  24.544  1.00  0.00     0.072 A 
HETATM   13  C   UNL     1       9.160   0.223  25.106  1.00  0.00     0.119 A 
HETATM   14  N   UNL     1       9.373   1.380  25.349  1.00  0.00    -0.373 N 
HETATM   15  C   UNL     1      10.425   1.417  24.569  1.00  0.00     0.089 A 
ATOM     16  HN  UNL     1       8.910   2.072  25.939  1.00  0.00     0.164 HD
HETATM   17  C   UNL     1      10.933   0.565  23.871  1.00  0.00     0.043 A 
HETATM   18  C   UNL     1      10.681  -0.697  23.687  1.00  0.00     0.063 A 
HETATM   19 CL   UNL     1      11.495  -1.823  22.877  1.00  0.00    -0.082 Cl
ENDBRANCH  10  12
ENDBRANCH   7   8
BRANCH   1  20
HETATM   20  C   UNL     1       7.736  -5.529  26.352  1.00  0.00    -0.019 C 
BRANCH  20  21
HETATM   21  N   UNL     1       7.617  -5.971  27.407  1.00  0.00    -0.236 N 
ATOM     22  HN  UNL     1       8.502  -6.323  27.771  1.00  0.00     0.189 HD
BRANCH  21  23
HETATM   23  S   UNL     1       6.417  -6.178  28.453  1.00  0.00     0.327 S 
HETATM   24 CL   UNL     1       4.809  -6.460  27.460  1.00  0.00     0.042 Cl
HETATM   25  O   UNL     1       6.646  -7.355  29.220  1.00  0.00    -0.188 OA
HETATM   26  O   UNL     1       6.220  -4.989  29.220  1.00  0.00    -0.188 OA
ENDBRANCH  21  23
ENDBRANCH  20  21
ENDBRANCH   1  20
TORSDOF 5
ENDMDL
MODEL 5
REMARK VINA RESULT:    -6.725      3.891      5.504
REMARK INTER + INTRA:          -9.503
REMARK INTER:                  -8.685
REMARK INTRA:                  -0.818
REMARK UNBOUND:                -0.811
REMARK  5 active torsions:
REMARK  status: ('A' for Active; 'I' for Inactive)
REMARK    1  A    between atoms: S_2  and  N_5 
REMARK    2  A    between atoms: N_5  and  C_7 
REMARK    3  A    between atoms: C_7  and  C_8 
REMARK    4  A    between atoms: C_14  and  C_15 
REMARK       I    between atoms: C_15  and  N_17 
REMARK    5  A    between atoms: N_17  and  C_19 
ROOT
HETATM    1  C   UNL     1       7.114  -4.164  24.675  1.00  0.00     0.060 A 
HETATM    2  C   UNL     1       7.114  -4.555  23.320  1.00  0.00     0.140 A 
HETATM    3  C   UNL     1       7.557  -5.617  22.853  1.00  0.00     0.079 C 
HETATM    4  C   UNL     1       6.900  -5.723  21.435  1.00  0.00     0.001 C 
HETATM    5  C   UNL     1       5.998  -4.812  21.526  1.00  0.00     0.133 C 
HETATM    6  O   UNL     1       5.995  -4.215  22.530  1.00  0.00    -0.341 OA
HETATM    7  C   UNL     1       7.852  -3.526  23.724  1.00  0.00     0.069 A 
ENDROOT
BRANCH   7   8
HETATM    8  C   UNL     1       8.788  -2.417  23.338  1.00  0.00     0.257 C 
HETATM    9  O   UNL     1       8.875  -2.082  22.201  1.00  0.00    -0.267 OA
HETATM   10  N   UNL     1       9.371  -2.010  24.402  1.00  0.00    -0.320 N 
ATOM     11  HN  UNL     1       9.162  -2.464  25.292  1.00  0.00     0.169 HD
BRANCH  10  12
HETATM   12  C   UNL     1      10.186  -1.074  24.373  1.00  0.00     0.072 A 
HETATM   13  C   UNL     1      11.479  -0.926  24.064  1.00  0.00     0.119 A 
HETATM   14  N   UNL     1      12.485  -0.306  23.848  1.00  0.00    -0.373 N 
HETATM   15  C   UNL     1      11.911   0.842  24.116  1.00  0.00     0.089 A 
ATOM     16  HN  UNL     1      13.428  -0.571  23.564  1.00  0.00     0.164 HD
HETATM   17  C   UNL     1      10.781   1.108  24.467  1.00  0.00     0.043 A 
HETATM   18  C   UNL     1       9.712   0.387  24.637  1.00  0.00     0.063 A 
HETATM   19 CL   UNL     1       8.192   0.817  24.939  1.00  0.00    -0.082 Cl
ENDBRANCH  10  12
ENDBRANCH   7   8
BRANCH   1  20
HETATM   20  C   UNL     1       6.610  -4.464  25.856  1.00  0.00    -0.019 C 
BRANCH  20  21
HETATM   21  N   UNL     1       5.960  -4.855  26.720  1.00  0.00    -0.236 N 
ATOM     22  HN  UNL     1       4.966  -4.738  26.527  1.00  0.00     0.189 HD
BRANCH  21  23
HETATM   23  S   UNL     1       6.214  -5.535  28.152  1.00  0.00     0.327 S 
HETATM   24 CL   UNL     1       4.945  -6.948  28.368  1.00  0.00     0.042 Cl
HETATM   25  O   UNL     1       7.508  -6.127  28.181  1.00  0.00    -0.188 OA
HETATM   26  O   UNL     1       5.959  -4.595  29.198  1.00  0.00    -0.188 OA
ENDBRANCH  21  23
ENDBRANCH  20  21
ENDBRANCH   1  20
TORSDOF 5
ENDMDL
MODEL 6
REMARK VINA RESULT:    -6.566     14.586     16.811
REMARK INTER + INTRA:          -9.296
REMARK INTER:                  -8.429
REMARK INTRA:                  -0.867
REMARK UNBOUND:                -0.811
REMARK  5 active torsions:
REMARK  status: ('A' for Active; 'I' for Inactive)
REMARK    1  A    between atoms: S_2  and  N_5 
REMARK    2  A    between atoms: N_5  and  C_7 
REMARK    3  A    between atoms: C_7  and  C_8 
REMARK    4  A    between atoms: C_14  and  C_15 
REMARK       I    between atoms: C_15  and  N_17 
REMARK    5  A    between atoms: N_17  and  C_19 
ROOT
HETATM    1  C   UNL     1      23.346  -3.332  25.333  1.00  0.00     0.060 A 
HETATM    2  C   UNL     1      22.528  -2.192  25.192  1.00  0.00     0.140 A 
HETATM    3  C   UNL     1      22.668  -1.275  24.367  1.00  0.00     0.079 C 
HETATM    4  C   UNL     1      21.278  -0.553  24.347  1.00  0.00     0.001 C 
HETATM    5  C   UNL     1      20.560  -1.411  24.979  1.00  0.00     0.133 C 
HETATM    6  O   UNL     1      21.137  -2.345  25.377  1.00  0.00    -0.341 OA
HETATM    7  C   UNL     1      23.264  -2.361  26.285  1.00  0.00     0.069 A 
ENDROOT
BRANCH   7   8
HETATM    8  C   UNL     1      23.650  -1.839  27.639  1.00  0.00     0.257 C 
HETATM    9  O   UNL     1      23.874  -0.681  27.786  1.00  0.00    -0.267 OA
HETATM   10  N   UNL     1      23.671  -2.829  28.448  1.00  0.00    -0.320 N 
ATOM     11  HN  UNL     1      23.464  -3.766  28.099  1.00  0.00     0.169 HD
BRANCH  10  12
HETATM   12  C   UNL     1      23.939  -2.673  29.651  1.00  0.00     0.072 A 
HETATM   13  C   UNL     1      23.247  -2.549  30.788  1.00  0.00     0.119 A 
HETATM   14  N   UNL     1      23.109  -2.476  31.979  1.00  0.00    -0.373 N 
HETATM   15  C   UNL     1      24.402  -2.520  32.195  1.00  0.00     0.089 A 
ATOM     16  HN  UNL     1      22.296  -2.406  32.591  1.00  0.00     0.164 HD
HETATM   17  C   UNL     1      25.338  -2.590  31.428  1.00  0.00     0.043 A 
HETATM   18  C   UNL     1      25.419  -2.718  30.137  1.00  0.00     0.063 A 
HETATM   19 CL   UNL     1      26.690  -2.978  29.185  1.00  0.00    -0.082 Cl
ENDBRANCH  10  12
ENDBRANCH   7   8
BRANCH   1  20
HETATM   20  C   UNL     1      23.725  -4.438  24.721  1.00  0.00    -0.019 C 
BRANCH  20  21
HETATM   21  N   UNL     1      23.953  -5.528  24.436  1.00  0.00    -0.236 N 
ATOM     22  HN  UNL     1      23.861  -5.684  23.433  1.00  0.00     0.189 HD
BRANCH  21  23
HETATM   23  S   UNL     1      24.377  -6.869  25.211  1.00  0.00     0.327 S 
HETATM   24 CL   UNL     1      26.284  -6.993  25.175  1.00  0.00     0.042 Cl
HETATM   25  O   UNL     1      23.990  -6.777  26.578  1.00  0.00    -0.188 OA
HETATM   26  O   UNL     1      23.881  -8.016  24.521  1.00  0.00    -0.188 OA
ENDBRANCH  21  23
ENDBRANCH  20  21
ENDBRANCH   1  20
TORSDOF 5
ENDMDL
MODEL 7
REMARK VINA RESULT:    -6.527      3.784      6.944
REMARK INTER + INTRA:          -9.247
REMARK INTER:                  -8.905
REMARK INTRA:                  -0.342
REMARK UNBOUND:                -0.811
REMARK  5 active torsions:
REMARK  status: ('A' for Active; 'I' for Inactive)
REMARK    1  A    between atoms: S_2  and  N_5 
REMARK    2  A    between atoms: N_5  and  C_7 
REMARK    3  A    between atoms: C_7  and  C_8 
REMARK    4  A    between atoms: C_14  and  C_15 
REMARK       I    between atoms: C_15  and  N_17 
REMARK    5  A    between atoms: N_17  and  C_19 
ROOT
HETATM    1  C   UNL     1       9.430  -1.465  24.314  1.00  0.00     0.060 A 
HETATM    2  C   UNL     1      10.560  -0.656  24.074  1.00  0.00     0.140 A 
HETATM    3  C   UNL     1      10.889   0.365  24.700  1.00  0.00     0.079 C 
HETATM    4  C   UNL     1      12.397   0.576  24.334  1.00  0.00     0.001 C 
HETATM    5  C   UNL     1      12.665  -0.554  23.785  1.00  0.00     0.133 C 
HETATM    6  O   UNL     1      11.763  -1.290  23.695  1.00  0.00    -0.341 OA
HETATM    7  C   UNL     1       9.579  -0.726  23.180  1.00  0.00     0.069 A 
ENDROOT
BRANCH   7   8
HETATM    8  C   UNL     1       9.071  -0.307  21.830  1.00  0.00     0.257 C 
HETATM    9  O   UNL     1       9.773   0.313  21.098  1.00  0.00    -0.267 OA
HETATM   10  N   UNL     1       7.869  -0.730  21.717  1.00  0.00    -0.320 N 
ATOM     11  HN  UNL     1       7.440  -1.233  22.495  1.00  0.00     0.169 HD
BRANCH  10  12
HETATM   12  C   UNL     1       7.214  -0.541  20.680  1.00  0.00     0.072 A 
HETATM   13  C   UNL     1       7.293   0.271  19.620  1.00  0.00     0.119 A 
HETATM   14  N   UNL     1       6.986   0.679  18.533  1.00  0.00    -0.373 N 
HETATM   15  C   UNL     1       6.013  -0.191  18.411  1.00  0.00     0.089 A 
ATOM     16  HN  UNL     1       7.345   1.421  17.931  1.00  0.00     0.164 HD
HETATM   17  C   UNL     1       5.611  -1.051  19.165  1.00  0.00     0.043 A 
HETATM   18  C   UNL     1       6.023  -1.480  20.322  1.00  0.00     0.063 A 
HETATM   19 CL   UNL     1       5.553  -2.742  21.202  1.00  0.00    -0.082 Cl
ENDBRANCH  10  12
ENDBRANCH   7   8
BRANCH   1  20
HETATM   20  C   UNL     1       8.888  -2.279  25.199  1.00  0.00    -0.019 C 
BRANCH  20  21
HETATM   21  N   UNL     1       8.221  -2.765  26.000  1.00  0.00    -0.236 N 
ATOM     22  HN  UNL     1       7.802  -2.068  26.616  1.00  0.00     0.189 HD
BRANCH  21  23
HETATM   23  S   UNL     1       7.780  -4.256  26.400  1.00  0.00     0.327 S 
HETATM   24 CL   UNL     1       6.202  -4.137  27.473  1.00  0.00     0.042 Cl
HETATM   25  O   UNL     1       7.434  -4.985  25.228  1.00  0.00    -0.188 OA
HETATM   26  O   UNL     1       8.782  -4.866  27.214  1.00  0.00    -0.188 OA
ENDBRANCH  21  23
ENDBRANCH  20  21
ENDBRANCH   1  20
TORSDOF 5
ENDMDL
MODEL 8
REMARK VINA RESULT:    -6.521      3.538      6.838
REMARK INTER + INTRA:          -9.238
REMARK INTER:                  -8.661
REMARK INTRA:                  -0.577
REMARK UNBOUND:                -0.811
REMARK  5 active torsions:
REMARK  status: ('A' for Active; 'I' for Inactive)
REMARK    1  A    between atoms: S_2  and  N_5 
REMARK    2  A    between atoms: N_5  and  C_7 
REMARK    3  A    between atoms: C_7  and  C_8 
REMARK    4  A    between atoms: C_14  and  C_15 
REMARK       I    between atoms: C_15  and  N_17 
REMARK    5  A    between atoms: N_17  and  C_19 
ROOT
HETATM    1  C   UNL     1       8.001  -2.413  24.172  1.00  0.00     0.060 A 
HETATM    2  C   UNL     1       8.955  -1.606  23.517  1.00  0.00     0.140 A 
HETATM    3  C   UNL     1       9.377  -0.501  23.893  1.00  0.00     0.079 C 
HETATM    4  C   UNL     1      10.699  -0.292  23.079  1.00  0.00     0.001 C 
HETATM    5  C   UNL     1      10.876  -1.476  22.613  1.00  0.00     0.133 C 
HETATM    6  O   UNL     1      10.039  -2.246  22.879  1.00  0.00    -0.341 OA
HETATM    7  C   UNL     1       7.766  -1.827  22.965  1.00  0.00     0.069 A 
ENDROOT
BRANCH   7   8
HETATM    8  C   UNL     1       6.863  -1.608  21.784  1.00  0.00     0.257 C 
HETATM    9  O   UNL     1       5.972  -2.365  21.570  1.00  0.00    -0.267 OA
HETATM   10  N   UNL     1       7.266  -0.557  21.175  1.00  0.00    -0.320 N 
ATOM     11  HN  UNL     1       8.086  -0.059  21.524  1.00  0.00     0.169 HD
BRANCH  10  12
HETATM   12  C   UNL     1       6.677  -0.131  20.169  1.00  0.00     0.072 A 
HETATM   13  C   UNL     1       6.352  -0.609  18.963  1.00  0.00     0.119 A 
HETATM   14  N   UNL     1       5.810  -0.588  17.891  1.00  0.00    -0.373 N 
HETATM   15  C   UNL     1       5.317   0.610  18.092  1.00  0.00     0.089 A 
ATOM     16  HN  UNL     1       5.754  -1.251  17.118  1.00  0.00     0.164 HD
HETATM   17  C   UNL     1       5.424   1.371  19.029  1.00  0.00     0.043 A 
HETATM   18  C   UNL     1       5.991   1.268  20.196  1.00  0.00     0.063 A 
HETATM   19 CL   UNL     1       5.955   2.248  21.470  1.00  0.00    -0.082 Cl
ENDBRANCH  10  12
ENDBRANCH   7   8
BRANCH   1  20
HETATM   20  C   UNL     1       7.793  -3.119  25.266  1.00  0.00    -0.019 C 
BRANCH  20  21
HETATM   21  N   UNL     1       7.330  -3.653  26.173  1.00  0.00    -0.236 N 
ATOM     22  HN  UNL     1       6.800  -3.010  26.760  1.00  0.00     0.189 HD
BRANCH  21  23
HETATM   23  S   UNL     1       7.303  -5.150  26.754  1.00  0.00     0.327 S 
HETATM   24 CL   UNL     1       5.792  -6.047  26.001  1.00  0.00     0.042 Cl
HETATM   25  O   UNL     1       8.463  -5.853  26.324  1.00  0.00    -0.188 OA
HETATM   26  O   UNL     1       7.102  -5.128  28.167  1.00  0.00    -0.188 OA
ENDBRANCH  21  23
ENDBRANCH  20  21
ENDBRANCH   1  20
TORSDOF 5
ENDMDL
MODEL 9
REMARK VINA RESULT:    -6.487      1.774      2.043
REMARK INTER + INTRA:          -9.194
REMARK INTER:                  -8.253
REMARK INTRA:                  -0.941
REMARK UNBOUND:                -0.811
REMARK  5 active torsions:
REMARK  status: ('A' for Active; 'I' for Inactive)
REMARK    1  A    between atoms: S_2  and  N_5 
REMARK    2  A    between atoms: N_5  and  C_7 
REMARK    3  A    between atoms: C_7  and  C_8 
REMARK    4  A    between atoms: C_14  and  C_15 
REMARK       I    between atoms: C_15  and  N_17 
REMARK    5  A    between atoms: N_17  and  C_19 
ROOT
HETATM    1  C   UNL     1       6.110  -2.431  21.270  1.00  0.00     0.060 A 
HETATM    2  C   UNL     1       5.948  -3.605  22.034  1.00  0.00     0.140 A 
HETATM    3  C   UNL     1       4.991  -3.883  22.775  1.00  0.00     0.079 C 
HETATM    4  C   UNL     1       5.102  -5.431  22.988  1.00  0.00     0.001 C 
HETATM    5  C   UNL     1       5.957  -5.732  22.079  1.00  0.00     0.133 C 
HETATM    6  O   UNL     1       6.380  -4.827  21.475  1.00  0.00    -0.341 OA
HETATM    7  C   UNL     1       6.917  -2.742  22.322  1.00  0.00     0.069 A 
ENDROOT
BRANCH   7   8
HETATM    8  C   UNL     1       8.102  -2.419  23.187  1.00  0.00     0.257 C 
HETATM    9  O   UNL     1       8.696  -3.293  23.729  1.00  0.00    -0.267 OA
HETATM   10  N   UNL     1       8.257  -1.149  23.177  1.00  0.00    -0.320 N 
ATOM     11  HN  UNL     1       7.603  -0.568  22.650  1.00  0.00     0.169 HD
BRANCH  10  12
HETATM   12  C   UNL     1       9.188  -0.609  23.796  1.00  0.00     0.072 A 
HETATM   13  C   UNL     1       9.377  -0.122  25.027  1.00  0.00     0.119 A 
HETATM   14  N   UNL     1      10.021   0.335  25.933  1.00  0.00    -0.373 N 
HETATM   15  C   UNL     1      11.120   0.367  25.219  1.00  0.00     0.089 A 
ATOM     16  HN  UNL     1       9.797   0.599  26.892  1.00  0.00     0.164 HD
HETATM   17  C   UNL     1      11.335   0.053  24.068  1.00  0.00     0.043 A 
HETATM   18  C   UNL     1      10.598  -0.489  23.144  1.00  0.00     0.063 A 
HETATM   19 CL   UNL     1      10.983  -1.041  21.683  1.00  0.00    -0.082 Cl
ENDBRANCH  10  12
ENDBRANCH   7   8
BRANCH   1  20
HETATM   20  C   UNL     1       5.603  -1.758  20.255  1.00  0.00    -0.019 C 
BRANCH  20  21
HETATM   21  N   UNL     1       5.422  -1.027  19.386  1.00  0.00    -0.236 N 
ATOM     22  HN  UNL     1       5.201  -1.516  18.520  1.00  0.00     0.189 HD
BRANCH  21  23
HETATM   23  S   UNL     1       5.426   0.566  19.187  1.00  0.00     0.327 S 
HETATM   24 CL   UNL     1       6.579   1.324  20.510  1.00  0.00     0.042 Cl
HETATM   25  O   UNL     1       5.979   0.890  17.916  1.00  0.00    -0.188 OA
HETATM   26  O   UNL     1       4.123   1.098  19.429  1.00  0.00    -0.188 OA
ENDBRANCH  21  23
ENDBRANCH  20  21
ENDBRANCH   1  20
TORSDOF 5
ENDMDL
