REMARK  4 active torsions:
REMARK  status: ('A' for Active; 'I' for Inactive)
REMARK    1  A    between atoms: O_1  and  C_5 
REMARK    2  A    between atoms: C_4  and  C_5 
REMARK    3  A    between atoms: C_5  and  C_10 
REMARK    4  A    between atoms: N_7  and  C_10 
ROOT
HETATM    1  C   UNL     1       6.881  -1.334  20.673  1.00  0.00     0.144 C 
HETATM    2  C   UNL     1       6.556  -0.087  20.580  1.00  0.00     0.054 C 
HETATM    3  N   UNL     1       6.232   0.951  20.231  1.00  0.00    -0.198 NA
ENDROOT
TORSDOF 4
