REMARK  4 active torsions:
REMARK  status: ('A' for Active; 'I' for Inactive)
REMARK       I    between atoms: C_1  and  N_5 
REMARK    1  A    between atoms: C_1  and  O_12 
REMARK    2  A    between atoms: C_4  and  C_7 
REMARK    3  A    between atoms: C_6  and  C_16 
REMARK    4  A    between atoms: C_7  and  C_15 
ROOT
HETATM    1  C   UNL     1       8.348   0.622  21.820  1.00  0.00     0.372 C 
HETATM    2  C   UNL     1       7.628  -1.849  24.157  1.00  0.00     0.088 C 
HETATM    3  N   UNL     1       8.402  -0.695  22.066  1.00  0.00    -0.250 N 
HETATM    4  O   UNL     1       8.848   1.172  20.906  1.00  0.00    -0.238 OA
HETATM    5  C   UNL     1       8.253  -1.590  23.046  1.00  0.00     0.080 A 
HETATM    6  C   UNL     1       9.231  -1.615  22.100  1.00  0.00     0.117 A 
ENDROOT
BRANCH   2   7
HETATM    7  C   UNL     1       7.465  -3.173  24.648  1.00  0.00     0.189 C 
HETATM    8  O   UNL     1       6.855  -3.402  25.657  1.00  0.00    -0.287 OA
BRANCH   7   9
HETATM    9  C   UNL     1       8.132  -4.264  23.892  1.00  0.00     0.135 C 
HETATM   10  N   UNL     1       9.004  -4.148  23.037  1.00  0.00    -0.405 N 
HETATM   11  H   UNL     1       9.597  -4.666  22.483  1.00  0.00     0.155 HD
ATOM     12  HN  UNL     1       9.153  -3.157  22.847  1.00  0.00     0.155 HD
ENDBRANCH   7   9
ENDBRANCH   2   7
BRANCH   6  13
HETATM   13  C   UNL     1      10.416  -2.182  21.562  1.00  0.00     0.174 C 
HETATM   14  C   UNL     1      10.936  -1.198  20.587  1.00  0.00     0.098 C 
HETATM   15  O   UNL     1      10.957  -3.199  21.844  1.00  0.00    -0.291 OA
ENDBRANCH   6  13
BRANCH   1  16
HETATM   16  O   UNL     1       7.614   1.090  22.880  1.00  0.00    -0.308 OA
HETATM   17  C   UNL     1       7.446   2.485  22.700  1.00  0.00     0.215 C 
ENDBRANCH   1  16
TORSDOF 4
