stable:False satoms:21 tatoms:24 sratio:0.875
  -OEChem-07092417273D

 24 24  0     1  0  0  0  0  0999 V2000
    8.3481    0.6224   21.8197 C   0  0  0  0  0  0  0  0  0  0  0  0
    7.2178   -1.0403   24.7015 H   0  0  0  0  0  0  0  0  0  0  0  0
    9.0044   -4.1479   23.0367 N   0  5  0  0  0  0  0  0  0  0  0  0
    7.6279   -1.8493   24.1574 C   0  0  0  0  0  0  0  0  0  0  0  0
    8.4018   -0.6946   22.0657 N   0  0  0  0  0  0  0  0  0  0  0  0
   10.6825   -1.4917   19.5821 H   0  0  0  0  0  0  0  0  0  0  0  0
   10.4163   -2.1818   21.5623 C   0  0  0  0  0  0  0  0  0  0  0  0
    8.3798    3.0106   22.8985 H   0  0  0  0  0  0  0  0  0  0  0  0
    7.4652   -3.1732   24.6484 C   0  0  0  0  0  0  0  0  0  0  0  0
    8.8484    1.1719   20.9058 O   0  0  0  0  0  0  0  0  0  0  0  0
    7.1467    2.6891   21.6768 H   0  0  0  0  0  0  0  0  0  0  0  0
    9.5974   -4.6657   22.4831 H   0  0  0  0  0  0  0  0  0  0  0  0
    8.2526   -1.5898   23.0457 C   0  0  0  0  0  0  0  0  0  0  0  0
    7.4457    2.4845   22.6999 C   0  0  0  0  0  0  0  0  0  0  0  0
    7.6145    1.0899   22.8801 O   0  0  0  0  0  0  0  0  0  0  0  0
    6.8548   -3.4022   25.6571 O   0  0  0  0  0  0  0  0  0  0  0  0
   10.9575   -3.1987   21.8437 O   0  0  0  0  0  0  0  0  0  0  0  0
    8.1322   -4.2643   23.8916 C   0  3  0  0  0  0  0  0  0  0  0  0
   10.5444   -0.2046   20.7529 H   0  0  0  0  0  0  0  0  0  0  0  0
    7.7906   -5.2555   24.2408 H   0  0  0  0  0  0  0  0  0  0  0  0
    9.2307   -1.6149   22.0998 C   0  0  3  0  0  0  0  0  0  0  0  0
   10.9362   -1.1978   20.5865 C   0  0  0  0  0  0  0  0  0  0  0  0
    6.6692    2.8128   23.3760 H   0  0  0  0  0  0  0  0  0  0  0  0
   12.0194   -1.1992   20.6846 H   0  0  0  0  0  0  0  0  0  0  0  0
  6 22  1  0  0  0  0
 22 24  1  0  0  0  0
 19 22  1  0  0  0  0
  7 22  1  0  0  0  0
  1 10  2  0  0  0  0
  7 17  2  0  0  0  0
  7 21  1  0  0  0  0
 11 14  1  0  0  0  0
  1  5  1  0  0  0  0
  1 15  1  0  0  0  0
  5 21  1  0  0  0  0
  5 13  1  0  0  0  0
 13 21  1  0  0  0  0
  3 12  1  0  0  0  0
 14 15  1  0  0  0  0
  8 14  1  0  0  0  0
 14 23  1  0  0  0  0
  3 18  1  0  0  0  0
  4 13  2  0  0  0  0
 18 20  1  0  0  0  0
  9 18  1  0  0  0  0
  4  9  1  0  0  0  0
  2  4  1  0  0  0  0
  9 16  2  0  0  0  0
M  CHG  2   3  -1  18   1
M  END
> <Shapegauss>
-98.919571

$$$$
