MODEL 1
REMARK VINA RESULT:    -5.276      0.000      0.000
REMARK INTER + INTRA:          -6.772
REMARK INTER:                  -6.510
REMARK INTRA:                  -0.262
REMARK UNBOUND:                -0.262
REMARK  4 active torsions:
REMARK  status: ('A' for Active; 'I' for Inactive)
REMARK       I    between atoms: C_1  and  N_5 
REMARK    1  A    between atoms: C_1  and  O_12 
REMARK    2  A    between atoms: C_4  and  C_7 
REMARK    3  A    between atoms: C_6  and  C_16 
REMARK    4  A    between atoms: C_7  and  C_15 
ROOT
HETATM    1  C   UNL     1       8.402  -0.165  21.235  1.00  0.00     0.372 C 
HETATM    2  C   UNL     1       7.635  -3.057  23.004  1.00  0.00     0.088 C 
HETATM    3  N   UNL     1       8.905  -1.302  21.736  1.00  0.00    -0.250 N 
HETATM    4  O   UNL     1       9.029   0.721  20.776  1.00  0.00    -0.238 OA
HETATM    5  C   UNL     1       8.604  -2.320  22.546  1.00  0.00     0.080 A 
HETATM    6  C   UNL     1       9.804  -1.680  22.500  1.00  0.00     0.117 A 
ENDROOT
BRANCH   2   7
HETATM    7  C   UNL     1       7.855  -4.354  23.543  1.00  0.00     0.189 C 
HETATM    8  O   UNL     1       8.573  -4.532  24.489  1.00  0.00    -0.287 OA
BRANCH   7   9
HETATM    9  C   UNL     1       7.203  -5.496  22.851  1.00  0.00     0.135 C 
HETATM   10  N   UNL     1       7.470  -5.939  21.739  1.00  0.00    -0.405 N 
HETATM   11  H   UNL     1       7.250  -6.656  21.135  1.00  0.00     0.155 HD
ATOM     12  HN  UNL     1       8.169  -5.339  21.302  1.00  0.00     0.155 HD
ENDBRANCH   7   9
ENDBRANCH   2   7
BRANCH   6  13
HETATM   13  C   UNL     1      11.116  -1.475  23.003  1.00  0.00     0.174 C 
HETATM   14  C   UNL     1      10.966  -0.626  24.206  1.00  0.00     0.098 C 
HETATM   15  O   UNL     1      12.146  -1.920  22.618  1.00  0.00    -0.291 OA
ENDBRANCH   6  13
BRANCH   1  16
HETATM   16  O   UNL     1       7.054  -0.329  21.427  1.00  0.00    -0.308 OA
HETATM   17  C   UNL     1       6.447  -0.399  20.149  1.00  0.00     0.215 C 
ENDBRANCH   1  16
TORSDOF 4
ENDMDL
MODEL 2
REMARK VINA RESULT:    -5.046      1.682      3.672
REMARK INTER + INTRA:          -6.489
REMARK INTER:                  -6.231
REMARK INTRA:                  -0.258
REMARK UNBOUND:                -0.262
REMARK  4 active torsions:
REMARK  status: ('A' for Active; 'I' for Inactive)
REMARK       I    between atoms: C_1  and  N_5 
REMARK    1  A    between atoms: C_1  and  O_12 
REMARK    2  A    between atoms: C_4  and  C_7 
REMARK    3  A    between atoms: C_6  and  C_16 
REMARK    4  A    between atoms: C_7  and  C_15 
ROOT
HETATM    1  C   UNL     1      10.194   0.667  21.871  1.00  0.00     0.372 C 
HETATM    2  C   UNL     1       8.438  -2.291  22.372  1.00  0.00     0.088 C 
HETATM    3  N   UNL     1       8.990   0.084  21.775  1.00  0.00    -0.250 N 
HETATM    4  O   UNL     1      10.479   1.729  21.450  1.00  0.00    -0.238 OA
HETATM    5  C   UNL     1       8.389  -1.107  21.836  1.00  0.00     0.080 A 
HETATM    6  C   UNL     1       8.110  -0.131  20.930  1.00  0.00     0.117 A 
ENDROOT
BRANCH   2   7
HETATM    7  C   UNL     1       7.293  -3.128  22.475  1.00  0.00     0.189 C 
HETATM    8  O   UNL     1       6.180  -2.694  22.351  1.00  0.00    -0.287 OA
BRANCH   7   9
HETATM    9  C   UNL     1       7.525  -4.559  22.801  1.00  0.00     0.135 C 
HETATM   10  N   UNL     1       7.560  -5.502  22.018  1.00  0.00    -0.405 N 
HETATM   11  H   UNL     1       7.739  -6.447  21.975  1.00  0.00     0.155 HD
ATOM     12  HN  UNL     1       7.311  -5.169  21.086  1.00  0.00     0.155 HD
ENDBRANCH   7   9
ENDBRANCH   2   7
BRANCH   6  13
HETATM   13  C   UNL     1       7.417   0.325  19.778  1.00  0.00     0.174 C 
HETATM   14  C   UNL     1       6.176   0.961  20.271  1.00  0.00     0.098 C 
HETATM   15  O   UNL     1       7.747   0.288  18.639  1.00  0.00    -0.291 OA
ENDBRANCH   6  13
BRANCH   1  16
HETATM   16  O   UNL     1      10.929  -0.283  22.533  1.00  0.00    -0.308 OA
HETATM   17  C   UNL     1      11.521   0.343  23.657  1.00  0.00     0.215 C 
ENDBRANCH   1  16
TORSDOF 4
ENDMDL
MODEL 3
REMARK VINA RESULT:    -5.004      2.183      5.116
REMARK INTER + INTRA:          -6.437
REMARK INTER:                  -6.039
REMARK INTRA:                  -0.398
REMARK UNBOUND:                -0.262
REMARK  4 active torsions:
REMARK  status: ('A' for Active; 'I' for Inactive)
REMARK       I    between atoms: C_1  and  N_5 
REMARK    1  A    between atoms: C_1  and  O_12 
REMARK    2  A    between atoms: C_4  and  C_7 
REMARK    3  A    between atoms: C_6  and  C_16 
REMARK    4  A    between atoms: C_7  and  C_15 
ROOT
HETATM    1  C   UNL     1       8.527  -2.166  24.104  1.00  0.00     0.372 C 
HETATM    2  C   UNL     1       7.515  -0.357  21.314  1.00  0.00     0.088 C 
HETATM    3  N   UNL     1       8.067  -2.265  22.849  1.00  0.00    -0.250 N 
HETATM    4  O   UNL     1       8.640  -3.057  24.868  1.00  0.00    -0.238 OA
HETATM    5  C   UNL     1       7.543  -1.537  21.859  1.00  0.00     0.080 A 
HETATM    6  C   UNL     1       7.128  -2.780  22.226  1.00  0.00     0.117 A 
ENDROOT
BRANCH   2   7
HETATM    7  C   UNL     1       7.129  -0.152  19.961  1.00  0.00     0.189 C 
HETATM    8  O   UNL     1       7.841   0.418  19.180  1.00  0.00    -0.287 OA
BRANCH   7   9
HETATM    9  C   UNL     1       5.776  -0.621  19.564  1.00  0.00     0.135 C 
HETATM   10  N   UNL     1       5.475  -1.239  18.548  1.00  0.00    -0.405 N 
HETATM   11  H   UNL     1       4.733  -1.678  18.119  1.00  0.00     0.155 HD
ATOM     12  HN  UNL     1       6.297  -1.315  17.949  1.00  0.00     0.155 HD
ENDBRANCH   7   9
ENDBRANCH   2   7
BRANCH   6  13
HETATM   13  C   UNL     1       6.224  -3.868  22.103  1.00  0.00     0.174 C 
HETATM   14  C   UNL     1       7.027  -5.094  22.305  1.00  0.00     0.098 C 
HETATM   15  O   UNL     1       5.050  -3.853  21.937  1.00  0.00    -0.291 OA
ENDBRANCH   6  13
BRANCH   1  16
HETATM   16  O   UNL     1       8.783  -0.824  24.220  1.00  0.00    -0.308 OA
HETATM   17  C   UNL     1      10.148  -0.677  24.569  1.00  0.00     0.215 C 
ENDBRANCH   1  16
TORSDOF 4
ENDMDL
MODEL 4
REMARK VINA RESULT:    -4.969      3.372      6.781
REMARK INTER + INTRA:          -6.393
REMARK INTER:                  -6.142
REMARK INTRA:                  -0.252
REMARK UNBOUND:                -0.262
REMARK  4 active torsions:
REMARK  status: ('A' for Active; 'I' for Inactive)
REMARK       I    between atoms: C_1  and  N_5 
REMARK    1  A    between atoms: C_1  and  O_12 
REMARK    2  A    between atoms: C_4  and  C_7 
REMARK    3  A    between atoms: C_6  and  C_16 
REMARK    4  A    between atoms: C_7  and  C_15 
ROOT
HETATM    1  C   UNL     1      11.390  -0.987  23.211  1.00  0.00     0.372 C 
HETATM    2  C   UNL     1      11.126   2.396  23.968  1.00  0.00     0.088 C 
HETATM    3  N   UNL     1      10.967   0.202  22.758  1.00  0.00    -0.250 N 
HETATM    4  O   UNL     1      11.177  -2.031  22.707  1.00  0.00    -0.238 OA
HETATM    5  C   UNL     1      10.746   1.459  23.148  1.00  0.00     0.080 A 
HETATM    6  C   UNL     1       9.933   0.735  22.331  1.00  0.00     0.117 A 
ENDROOT
BRANCH   2   7
HETATM    7  C   UNL     1      10.875   3.773  23.719  1.00  0.00     0.189 C 
HETATM    8  O   UNL     1       9.759   4.215  23.682  1.00  0.00    -0.287 OA
BRANCH   7   9
HETATM    9  C   UNL     1      12.052   4.638  23.447  1.00  0.00     0.135 C 
HETATM   10  N   UNL     1      12.129   5.547  22.627  1.00  0.00    -0.405 N 
HETATM   11  H   UNL     1      12.718   6.245  22.322  1.00  0.00     0.155 HD
ATOM     12  HN  UNL     1      11.271   5.572  22.076  1.00  0.00     0.155 HD
ENDBRANCH   7   9
ENDBRANCH   2   7
BRANCH   6  13
HETATM   13  C   UNL     1       8.728   0.596  21.595  1.00  0.00     0.174 C 
HETATM   14  C   UNL     1       7.727   0.058  22.543  1.00  0.00     0.098 C 
HETATM   15  O   UNL     1       8.496   0.893  20.470  1.00  0.00    -0.291 OA
ENDBRANCH   6  13
BRANCH   1  16
HETATM   16  O   UNL     1      12.067  -0.643  24.353  1.00  0.00    -0.308 OA
HETATM   17  C   UNL     1      13.452  -0.767  24.082  1.00  0.00     0.215 C 
ENDBRANCH   1  16
TORSDOF 4
ENDMDL
MODEL 5
REMARK VINA RESULT:    -4.968      2.105      5.681
REMARK INTER + INTRA:          -6.392
REMARK INTER:                  -6.027
REMARK INTRA:                  -0.365
REMARK UNBOUND:                -0.262
REMARK  4 active torsions:
REMARK  status: ('A' for Active; 'I' for Inactive)
REMARK       I    between atoms: C_1  and  N_5 
REMARK    1  A    between atoms: C_1  and  O_12 
REMARK    2  A    between atoms: C_4  and  C_7 
REMARK    3  A    between atoms: C_6  and  C_16 
REMARK    4  A    between atoms: C_7  and  C_15 
ROOT
HETATM    1  C   UNL     1       6.782  -5.099  25.155  1.00  0.00     0.372 C 
HETATM    2  C   UNL     1       8.785  -2.549  23.901  1.00  0.00     0.088 C 
HETATM    3  N   UNL     1       7.366  -4.614  24.049  1.00  0.00    -0.250 N 
HETATM    4  O   UNL     1       5.998  -5.977  25.190  1.00  0.00    -0.238 OA
HETATM    5  C   UNL     1       8.005  -3.540  23.580  1.00  0.00     0.080 A 
HETATM    6  C   UNL     1       7.061  -4.250  22.905  1.00  0.00     0.117 A 
ENDROOT
BRANCH   2   7
HETATM    7  C   UNL     1       9.587  -1.871  22.942  1.00  0.00     0.189 C 
HETATM    8  O   UNL     1      10.780  -2.005  22.909  1.00  0.00    -0.287 OA
BRANCH   7   9
HETATM    9  C   UNL     1       8.895  -0.940  22.015  1.00  0.00     0.135 C 
HETATM   10  N   UNL     1       9.274  -0.580  20.906  1.00  0.00    -0.405 N 
HETATM   11  H   UNL     1       8.998  -0.067  20.139  1.00  0.00     0.155 HD
ATOM     12  HN  UNL     1      10.208  -0.954  20.736  1.00  0.00     0.155 HD
ENDBRANCH   7   9
ENDBRANCH   2   7
BRANCH   6  13
HETATM   13  C   UNL     1       6.224  -4.427  21.772  1.00  0.00     0.174 C 
HETATM   14  C   UNL     1       6.315  -5.860  21.415  1.00  0.00     0.098 C 
HETATM   15  O   UNL     1       5.525  -3.641  21.224  1.00  0.00    -0.291 OA
ENDBRANCH   6  13
BRANCH   1  16
HETATM   16  O   UNL     1       7.319  -4.310  26.140  1.00  0.00    -0.308 OA
HETATM   17  C   UNL     1       8.103  -5.144  26.975  1.00  0.00     0.215 C 
ENDBRANCH   1  16
TORSDOF 4
ENDMDL
MODEL 6
REMARK VINA RESULT:    -4.906     13.517     15.930
REMARK INTER + INTRA:          -6.316
REMARK INTER:                  -6.008
REMARK INTRA:                  -0.308
REMARK UNBOUND:                -0.262
REMARK  4 active torsions:
REMARK  status: ('A' for Active; 'I' for Inactive)
REMARK       I    between atoms: C_1  and  N_5 
REMARK    1  A    between atoms: C_1  and  O_12 
REMARK    2  A    between atoms: C_4  and  C_7 
REMARK    3  A    between atoms: C_6  and  C_16 
REMARK    4  A    between atoms: C_7  and  C_15 
ROOT
HETATM    1  C   UNL     1      23.916  -6.220  25.708  1.00  0.00     0.372 C 
HETATM    2  C   UNL     1      23.053  -2.977  24.801  1.00  0.00     0.088 C 
HETATM    3  N   UNL     1      23.563  -5.015  26.176  1.00  0.00    -0.250 N 
HETATM    4  O   UNL     1      24.300  -7.125  26.357  1.00  0.00    -0.238 OA
HETATM    5  C   UNL     1      23.387  -3.747  25.795  1.00  0.00     0.080 A 
HETATM    6  C   UNL     1      23.981  -4.145  26.953  1.00  0.00     0.117 A 
ENDROOT
BRANCH   2   7
HETATM    7  C   UNL     1      22.573  -1.653  24.992  1.00  0.00     0.189 C 
HETATM    8  O   UNL     1      23.005  -0.943  25.859  1.00  0.00    -0.287 OA
BRANCH   7   9
HETATM    9  C   UNL     1      21.468  -1.197  24.110  1.00  0.00     0.135 C 
HETATM   10  N   UNL     1      20.285  -1.515  24.178  1.00  0.00    -0.405 N 
HETATM   11  H   UNL     1      19.425  -1.325  23.790  1.00  0.00     0.155 HD
ATOM     12  HN  UNL     1      20.175  -2.229  24.898  1.00  0.00     0.155 HD
ENDBRANCH   7   9
ENDBRANCH   2   7
BRANCH   6  13
HETATM   13  C   UNL     1      24.681  -3.842  28.150  1.00  0.00     0.174 C 
HETATM   14  C   UNL     1      26.114  -4.064  27.856  1.00  0.00     0.098 C 
HETATM   15  O   UNL     1      24.263  -3.433  29.182  1.00  0.00    -0.291 OA
ENDBRANCH   6  13
BRANCH   1  16
HETATM   16  O   UNL     1      23.730  -6.077  24.356  1.00  0.00    -0.308 OA
HETATM   17  C   UNL     1      24.992  -6.238  23.733  1.00  0.00     0.215 C 
ENDBRANCH   1  16
TORSDOF 4
ENDMDL
MODEL 7
REMARK VINA RESULT:    -4.883      4.159      5.996
REMARK INTER + INTRA:          -6.287
REMARK INTER:                  -5.881
REMARK INTRA:                  -0.406
REMARK UNBOUND:                -0.262
REMARK  4 active torsions:
REMARK  status: ('A' for Active; 'I' for Inactive)
REMARK       I    between atoms: C_1  and  N_5 
REMARK    1  A    between atoms: C_1  and  O_12 
REMARK    2  A    between atoms: C_4  and  C_7 
REMARK    3  A    between atoms: C_6  and  C_16 
REMARK    4  A    between atoms: C_7  and  C_15 
ROOT
HETATM    1  C   UNL     1       3.855  -5.691  23.877  1.00  0.00     0.372 C 
HETATM    2  C   UNL     1       6.048  -5.343  26.551  1.00  0.00     0.088 C 
HETATM    3  N   UNL     1       5.133  -5.814  24.261  1.00  0.00    -0.250 N 
HETATM    4  O   UNL     1       3.459  -5.766  22.770  1.00  0.00    -0.238 OA
HETATM    5  C   UNL     1       5.964  -5.521  25.265  1.00  0.00     0.080 A 
HETATM    6  C   UNL     1       6.258  -5.403  23.942  1.00  0.00     0.117 A 
ENDROOT
BRANCH   2   7
HETATM    7  C   UNL     1       7.274  -5.473  27.259  1.00  0.00     0.189 C 
HETATM    8  O   UNL     1       7.349  -6.090  28.286  1.00  0.00    -0.287 OA
BRANCH   7   9
HETATM    9  C   UNL     1       8.456  -4.761  26.705  1.00  0.00     0.135 C 
HETATM   10  N   UNL     1       8.564  -3.558  26.493  1.00  0.00    -0.405 N 
HETATM   11  H   UNL     1       9.200  -2.891  26.215  1.00  0.00     0.155 HD
ATOM     12  HN  UNL     1       7.667  -3.107  26.673  1.00  0.00     0.155 HD
ENDBRANCH   7   9
ENDBRANCH   2   7
BRANCH   6  13
HETATM   13  C   UNL     1       7.139  -5.007  22.902  1.00  0.00     0.174 C 
HETATM   14  C   UNL     1       7.119  -6.101  21.906  1.00  0.00     0.098 C 
HETATM   15  O   UNL     1       7.743  -3.994  22.775  1.00  0.00    -0.291 OA
ENDBRANCH   6  13
BRANCH   1  16
HETATM   16  O   UNL     1       3.212  -5.450  25.064  1.00  0.00    -0.308 OA
HETATM   17  C   UNL     1       2.487  -4.241  24.919  1.00  0.00     0.215 C 
ENDBRANCH   1  16
TORSDOF 4
ENDMDL
MODEL 8
REMARK VINA RESULT:    -4.877      2.752      4.283
REMARK INTER + INTRA:          -6.280
REMARK INTER:                  -6.024
REMARK INTRA:                  -0.256
REMARK UNBOUND:                -0.262
REMARK  4 active torsions:
REMARK  status: ('A' for Active; 'I' for Inactive)
REMARK       I    between atoms: C_1  and  N_5 
REMARK    1  A    between atoms: C_1  and  O_12 
REMARK    2  A    between atoms: C_4  and  C_7 
REMARK    3  A    between atoms: C_6  and  C_16 
REMARK    4  A    between atoms: C_7  and  C_15 
ROOT
HETATM    1  C   UNL     1      10.109   1.548  22.310  1.00  0.00     0.372 C 
HETATM    2  C   UNL     1       7.239   0.529  20.634  1.00  0.00     0.088 C 
HETATM    3  N   UNL     1       9.510   0.512  21.704  1.00  0.00    -0.250 N 
HETATM    4  O   UNL     1      11.103   1.494  22.939  1.00  0.00    -0.238 OA
HETATM    5  C   UNL     1       8.335   0.122  21.204  1.00  0.00     0.080 A 
HETATM    6  C   UNL     1       9.171  -0.655  21.946  1.00  0.00     0.117 A 
ENDROOT
BRANCH   2   7
HETATM    7  C   UNL     1       6.417  -0.335  19.860  1.00  0.00     0.189 C 
HETATM    8  O   UNL     1       5.965  -1.351  20.314  1.00  0.00    -0.287 OA
BRANCH   7   9
HETATM    9  C   UNL     1       6.185   0.040  18.442  1.00  0.00     0.135 C 
HETATM   10  N   UNL     1       5.632  -0.633  17.578  1.00  0.00    -0.405 N 
HETATM   11  H   UNL     1       5.327  -0.595  16.665  1.00  0.00     0.155 HD
ATOM     12  HN  UNL     1       5.423  -1.556  17.959  1.00  0.00     0.155 HD
ENDBRANCH   7   9
ENDBRANCH   2   7
BRANCH   6  13
HETATM   13  C   UNL     1       9.455  -1.870  22.622  1.00  0.00     0.174 C 
HETATM   14  C   UNL     1      10.909  -1.859  22.894  1.00  0.00     0.098 C 
HETATM   15  O   UNL     1       8.711  -2.723  22.977  1.00  0.00    -0.291 OA
ENDBRANCH   6  13
BRANCH   1  16
HETATM   16  O   UNL     1       9.268   2.590  22.014  1.00  0.00    -0.308 OA
HETATM   17  C   UNL     1       8.848   3.161  23.240  1.00  0.00     0.215 C 
ENDBRANCH   1  16
TORSDOF 4
ENDMDL
MODEL 9
REMARK VINA RESULT:    -4.736      1.953      4.455
REMARK INTER + INTRA:          -6.106
REMARK INTER:                  -5.919
REMARK INTRA:                  -0.187
REMARK UNBOUND:                -0.262
REMARK  4 active torsions:
REMARK  status: ('A' for Active; 'I' for Inactive)
REMARK       I    between atoms: C_1  and  N_5 
REMARK    1  A    between atoms: C_1  and  O_12 
REMARK    2  A    between atoms: C_4  and  C_7 
REMARK    3  A    between atoms: C_6  and  C_16 
REMARK    4  A    between atoms: C_7  and  C_15 
ROOT
HETATM    1  C   UNL     1       7.920  -2.988  23.110  1.00  0.00     0.372 C 
HETATM    2  C   UNL     1       6.603  -0.888  20.672  1.00  0.00     0.088 C 
HETATM    3  N   UNL     1       7.991  -1.762  22.573  1.00  0.00    -0.250 N 
HETATM    4  O   UNL     1       8.672  -3.440  23.895  1.00  0.00    -0.238 OA
HETATM    5  C   UNL     1       7.569  -1.043  21.530  1.00  0.00     0.080 A 
HETATM    6  C   UNL     1       8.824  -1.006  22.053  1.00  0.00     0.117 A 
ENDROOT
BRANCH   2   7
HETATM    7  C   UNL     1       6.384   0.336  19.984  1.00  0.00     0.189 C 
HETATM    8  O   UNL     1       6.728   1.390  20.446  1.00  0.00    -0.287 OA
BRANCH   7   9
HETATM    9  C   UNL     1       5.656   0.267  18.691  1.00  0.00     0.135 C 
HETATM   10  N   UNL     1       5.758  -0.598  17.828  1.00  0.00    -0.405 N 
HETATM   11  H   UNL     1       5.380  -0.881  16.989  1.00  0.00     0.155 HD
ATOM     12  HN  UNL     1       6.503  -1.243  18.091  1.00  0.00     0.155 HD
ENDBRANCH   7   9
ENDBRANCH   2   7
BRANCH   6  13
HETATM   13  C   UNL     1      10.168  -0.549  22.012  1.00  0.00     0.174 C 
HETATM   14  C   UNL     1      10.098   0.911  21.787  1.00  0.00     0.098 C 
HETATM   15  O   UNL     1      11.173  -1.156  22.180  1.00  0.00    -0.291 OA
ENDBRANCH   6  13
BRANCH   1  16
HETATM   16  O   UNL     1       6.811  -3.514  22.498  1.00  0.00    -0.308 OA
HETATM   17  C   UNL     1       7.103  -4.860  22.168  1.00  0.00     0.215 C 
ENDBRANCH   1  16
TORSDOF 4
ENDMDL
