stable:False satoms:15 tatoms:24 sratio:0.625
  -OEChem-08062408223D

 31 32  0     1  0  0  0  0  0999 V2000
    7.1377   -3.4146   27.2848 H   0  0  0  0  0  0  0  0  0  0  0  0
    8.1844   -3.2547   26.9508 C   0  0  0  0  0  0  0  0  0  0  0  0
    8.7347   -4.1937   27.0709 H   0  0  0  0  0  0  0  0  0  0  0  0
    8.6760   -2.4915   27.6015 H   0  0  0  0  0  0  0  0  0  0  0  0
    8.1838   -2.8800   25.5912 N   0  3  0  0  0  0  0  0  0  0  0  0
    9.0297   -2.2535   25.0249 C   0  0  0  0  0  0  0  0  0  0  0  0
    9.7142   -1.5447   24.4057 C   0  0  0  0  0  0  0  0  0  0  0  0
   10.5008   -0.9138   23.5437 C   0  0  0  0  0  0  0  0  0  0  0  0
   11.8489    0.2698   25.2994 H   0  0  0  0  0  0  0  0  0  0  0  0
   12.4836   -0.1616   24.5445 C   0  0  0  0  0  0  0  0  0  0  0  0
   13.5227    0.0222   24.5269 H   0  0  0  0  0  0  0  0  0  0  0  0
   12.5031   -1.5274   22.9605 H   0  0  0  0  0  0  0  0  0  0  0  0
   11.9397   -0.9403   23.6336 C   0  0  0  0  0  0  0  0  0  0  0  0
    9.8886   -0.3302   22.5692 C   0  0  0  0  0  0  0  0  0  0  0  0
    9.3028    0.3607   21.5788 C   0  0  0  0  0  0  0  0  0  0  0  0
    9.9481    1.2393   21.0411 O   0  0  0  0  0  0  0  0  0  0  0  0
    7.9867   -0.0055   21.3344 N   0  0  0  0  0  0  0  0  0  0  0  0
    7.3400    0.4293   20.3185 C   0  0  0  0  0  0  0  0  0  0  0  0
    7.3185    0.2847   18.9942 C   0  0  0  0  0  0  0  0  0  0  0  0
    6.8282    0.3187   17.8664 N   0  0  0  0  0  0  0  0  0  0  0  0
    5.9251    0.8784   18.4612 C   0  0  1  0  0  0  0  0  0  0  0  0
    5.3379    1.3376   19.4233 N   0  3  0  0  0  0  0  0  0  0  0  0
    6.0518    1.1657   20.4518 C   0  0  0  0  0  0  0  0  0  0  0  0
    5.7617    1.5132   21.4399 H   0  0  0  0  0  0  0  0  0  0  0  0
    7.3435   -2.3522   25.4677 H   0  0  0  0  0  0  0  0  0  0  0  0
    9.3418   -1.2280   22.3213 H   0  0  0  0  0  0  0  0  0  0  0  0
    7.5300   -0.6274   21.9705 H   0  0  0  0  0  0  0  0  0  0  0  0
    6.4042    1.8524   18.2823 H   0  0  0  0  0  0  0  0  0  0  0  0
    5.1768    2.3148   19.2847 H   0  0  0  0  0  0  0  0  0  0  0  0
    8.1149   -3.7397   25.0850 H   0  0  0  0  0  0  0  0  0  0  0  0
    4.4624    0.8685   19.5389 H   0  0  0  0  0  0  0  0  0  0  0  0
 20 21  1  0  0  0  0
 19 20  2  0  0  0  0
 19 21  1  0  0  0  0
 21 22  1  0  0  0  0
 18 19  1  0  0  0  0
 22 23  1  0  0  0  0
 18 23  2  0  0  0  0
 17 18  1  0  0  0  0
 23 24  1  0  0  0  0
 15 16  2  0  0  0  0
 15 17  1  0  0  0  0
 14 15  1  0  0  0  0
  8 14  2  3  0  0  0
 12 13  1  0  0  0  0
  8 13  1  0  0  0  0
  7  8  1  0  0  0  0
 10 13  2  0  0  0  0
  6  7  3  0  0  0  0
 10 11  1  0  0  0  0
  9 10  1  0  0  0  0
  5  6  1  0  0  0  0
  2  5  1  0  0  0  0
  2  3  1  0  0  0  0
  1  2  1  0  0  0  0
  2  4  1  0  0  0  0
  5 25  1  0  0  0  0
 14 26  1  0  0  0  0
 17 27  1  0  0  0  0
 21 28  1  0  0  0  0
 22 29  1  0  0  0  0
  5 30  1  0  0  0  0
 22 31  1  0  0  0  0
M  CHG  2   5   1  22   1
M  END
> <Chemgauss4>
-8.672940

$$$$
