stable:False satoms:15 tatoms:24 sratio:0.625
  -OEChem-08062408223D

 31 32  0     1  0  0  0  0  0999 V2000
   -7.3132   -3.5516  -27.2471 H   0  0  0  0  0  0  0  0  0  0  0  0
   -8.3599   -3.3916  -26.9131 C   0  0  0  0  0  0  0  0  0  0  0  0
   -8.9103   -4.3307  -27.0331 H   0  0  0  0  0  0  0  0  0  0  0  0
   -8.8516   -2.6284  -27.5637 H   0  0  0  0  0  0  0  0  0  0  0  0
   -8.3594   -3.0170  -25.5534 N   0  3  0  0  0  0  0  0  0  0  0  0
   -9.2053   -2.3905  -24.9872 C   0  0  0  0  0  0  0  0  0  0  0  0
   -9.8898   -1.6817  -24.3679 C   0  0  0  0  0  0  0  0  0  0  0  0
  -10.6764   -1.0508  -23.5059 C   0  0  0  0  0  0  0  0  0  0  0  0
  -12.0245    0.1329  -25.2617 H   0  0  0  0  0  0  0  0  0  0  0  0
  -12.6592   -0.2986  -24.5067 C   0  0  0  0  0  0  0  0  0  0  0  0
  -13.6982   -0.1148  -24.4891 H   0  0  0  0  0  0  0  0  0  0  0  0
  -12.6786   -1.6644  -22.9228 H   0  0  0  0  0  0  0  0  0  0  0  0
  -12.1153   -1.0773  -23.5959 C   0  0  0  0  0  0  0  0  0  0  0  0
  -10.0641   -0.4672  -22.5315 C   0  0  0  0  0  0  0  0  0  0  0  0
   -9.4783    0.2237  -21.5410 C   0  0  0  0  0  0  0  0  0  0  0  0
  -10.1237    1.1023  -21.0034 O   0  0  0  0  0  0  0  0  0  0  0  0
   -8.1623   -0.1425  -21.2966 N   0  0  0  0  0  0  0  0  0  0  0  0
   -7.5155    0.2924  -20.2807 C   0  0  0  0  0  0  0  0  0  0  0  0
   -7.4940    0.1477  -18.9565 C   0  0  0  0  0  0  0  0  0  0  0  0
   -7.0038    0.1817  -17.8287 N   0  0  0  0  0  0  0  0  0  0  0  0
   -6.1007    0.7415  -18.4234 C   0  0  1  0  0  0  0  0  0  0  0  0
   -5.5135    1.2006  -19.3856 N   0  3  0  0  0  0  0  0  0  0  0  0
   -6.2273    1.0288  -20.4141 C   0  0  0  0  0  0  0  0  0  0  0  0
   -5.9373    1.3762  -21.4021 H   0  0  0  0  0  0  0  0  0  0  0  0
   -7.5190   -2.4892  -25.4299 H   0  0  0  0  0  0  0  0  0  0  0  0
   -9.5174   -1.3650  -22.2836 H   0  0  0  0  0  0  0  0  0  0  0  0
   -7.7056   -0.7644  -21.9327 H   0  0  0  0  0  0  0  0  0  0  0  0
   -6.5797    1.7154  -18.2446 H   0  0  0  0  0  0  0  0  0  0  0  0
   -5.3524    2.1778  -19.2469 H   0  0  0  0  0  0  0  0  0  0  0  0
   -8.2905   -3.8767  -25.0473 H   0  0  0  0  0  0  0  0  0  0  0  0
   -4.6380    0.7316  -19.5011 H   0  0  0  0  0  0  0  0  0  0  0  0
 20 21  1  0  0  0  0
 19 20  2  0  0  0  0
 19 21  1  0  0  0  0
 21 22  1  0  0  0  0
 18 19  1  0  0  0  0
 22 23  1  0  0  0  0
 18 23  2  0  0  0  0
 17 18  1  0  0  0  0
 23 24  1  0  0  0  0
 15 16  2  0  0  0  0
 15 17  1  0  0  0  0
 14 15  1  0  0  0  0
  8 14  2  3  0  0  0
 12 13  1  0  0  0  0
  8 13  1  0  0  0  0
  7  8  1  0  0  0  0
 10 13  2  0  0  0  0
  6  7  3  0  0  0  0
 10 11  1  0  0  0  0
  9 10  1  0  0  0  0
  5  6  1  0  0  0  0
  2  5  1  0  0  0  0
  2  3  1  0  0  0  0
  1  2  1  0  0  0  0
  2  4  1  0  0  0  0
  5 25  1  0  0  0  0
 14 26  1  0  0  0  0
 17 27  1  0  0  0  0
 21 28  1  0  0  0  0
 22 29  1  0  0  0  0
  5 30  1  0  0  0  0
 22 31  1  0  0  0  0
M  CHG  2   5   1  22   1
M  END
> <Chemgauss4>
-8.442698

$$$$
