REMARK  4 active torsions:
REMARK  status: ('A' for Active; 'I' for Inactive)
REMARK    1  A    between atoms: C_5  and  O_11 
REMARK    2  A    between atoms: C_5  and  C_9 
REMARK    3  A    between atoms: C_6  and  C_9 
REMARK    4  A    between atoms: O_7  and  C_9 
ROOT
HETATM    1  C   UNL     2       5.964   0.408  19.380  1.00  0.00     0.000 C 
ENDROOT
TORSDOF 4
