stable:False satoms:21 tatoms:24 sratio:0.875
  -OEChem-08052420113D

 24 24  0     0  0  0  0  0  0999 V2000
   -9.6250   -2.6147  -22.5102 O   0  0  0  0  0  0  0  0  0  0  0  0
   -8.9269    1.0111  -23.2410 H   0  0  0  0  0  0  0  0  0  0  0  0
  -10.5740   -2.0618  -23.0243 C   0  0  0  0  0  0  0  0  0  0  0  0
  -10.4684   -0.9856  -23.9006 N   0  0  0  0  0  0  0  0  0  0  0  0
  -11.9049   -2.2455  -22.8722 N   0  0  0  0  0  0  0  0  0  0  0  0
  -10.8387    1.7693  -24.5052 N   0  3  0  0  0  0  0  0  0  0  0  0
   -7.1019    1.1023  -25.2109 H   0  0  0  0  0  0  0  0  0  0  0  0
  -12.6047   -1.2206  -23.4907 C   0  0  0  0  0  0  0  0  0  0  0  0
   -8.4967    0.7832  -26.1959 H   0  0  0  0  0  0  0  0  0  0  0  0
   -8.1619    1.2056  -25.2463 C   0  0  0  0  0  0  0  0  0  0  0  0
  -11.7669   -0.3000  -23.9238 C   0  0  0  0  0  0  0  0  0  0  0  0
  -10.4688    1.3643  -25.3413 H   0  0  0  0  0  0  0  0  0  0  0  0
  -13.6631   -1.1661  -23.5933 H   0  0  0  0  0  0  0  0  0  0  0  0
   -7.7830   -0.1923  -23.5047 H   0  0  0  0  0  0  0  0  0  0  0  0
   -8.5363    2.7825  -25.2146 C   0  0  0  0  0  0  0  0  0  0  0  0
   -8.5575    0.3646  -24.0317 C   0  0  0  0  0  0  0  0  0  0  0  0
  -11.9025    1.0796  -24.1228 C   0  0  0  0  0  2  0  0  0  0  0  0
   -9.2110    3.4549  -24.5705 H   0  0  0  0  0  0  0  0  0  0  0  0
  -11.0782    2.7240  -24.6817 H   0  0  0  0  0  0  0  0  0  0  0  0
   -8.9103    3.0103  -26.1823 H   0  0  0  0  0  0  0  0  0  0  0  0
   -7.6075    3.2386  -24.9751 H   0  0  0  0  0  0  0  0  0  0  0  0
   -9.3996   -0.6904  -24.5571 C   0  0  0  0  0  2  0  0  0  0  0  0
  -12.3244   -3.0106  -22.3838 H   0  0  0  0  0  0  0  0  0  0  0  0
  -10.1477    1.7329  -23.7832 H   0  0  0  0  0  0  0  0  0  0  0  0
  6 19  1  0  0  0  0
  6 17  1  0  0  0  0
 11 17  1  0  0  0  0
  8 13  1  0  0  0  0
 15 18  1  0  0  0  0
  6 12  1  0  0  0  0
  8 11  2  0  0  0  0
  5  8  1  0  0  0  0
  4 11  1  0  0  0  0
  2 16  1  0  0  0  0
 15 21  1  0  0  0  0
 15 20  1  0  0  0  0
 10 15  1  0  0  0  0
  3  5  1  0  0  0  0
  3  4  1  0  0  0  0
  4 22  1  0  0  0  0
  1  3  2  0  0  0  0
 10 16  1  0  0  0  0
 16 22  1  0  0  0  0
 14 16  1  0  0  0  0
  9 10  1  0  0  0  0
  7 10  1  0  0  0  0
  5 23  1  0  0  0  0
  6 24  1  0  0  0  0
M  CHG  1   6   1
M  END
> <Chemgauss4>
-5.698845

$$$$
