stable:False satoms:21 tatoms:24 sratio:0.875
  -OEChem-08052420113D

 24 24  0     0  0  0  0  0  0999 V2000
   13.3919    0.5669   25.1060 O   0  0  0  0  0  0  0  0  0  0  0  0
    9.6583    0.0988   25.2002 H   0  0  0  0  0  0  0  0  0  0  0  0
   13.0018   -0.1697   24.2251 C   0  0  0  0  0  0  0  0  0  0  0  0
   11.7406   -0.0882   23.6423 N   0  0  0  0  0  0  0  0  0  0  0  0
   13.5784   -1.2418   23.6365 N   0  0  0  0  0  0  0  0  0  0  0  0
    9.1376   -1.1464   23.1986 N   0  3  0  0  0  0  0  0  0  0  0  0
    8.5322    2.4367   24.5032 H   0  0  0  0  0  0  0  0  0  0  0  0
   12.6564   -1.9075   22.8433 C   0  0  0  0  0  0  0  0  0  0  0  0
    8.9389    1.8853   22.9069 H   0  0  0  0  0  0  0  0  0  0  0  0
    8.7185    1.5606   23.9258 C   0  0  0  0  0  0  0  0  0  0  0  0
   11.4590   -1.3811   23.0052 C   0  0  0  0  0  0  0  0  0  0  0  0
    9.1797   -0.3128   22.6478 H   0  0  0  0  0  0  0  0  0  0  0  0
   12.8687   -2.7331   22.2053 H   0  0  0  0  0  0  0  0  0  0  0  0
   10.3806    1.5937   25.4642 H   0  0  0  0  0  0  0  0  0  0  0  0
    7.3768    0.6509   23.9058 C   0  0  0  0  0  0  0  0  0  0  0  0
    9.9355    1.0020   24.6646 C   0  0  0  0  0  0  0  0  0  0  0  0
   10.1703   -1.9185   22.8969 C   0  0  0  0  0  2  0  0  0  0  0  0
    7.1193   -0.4406   24.1594 H   0  0  0  0  0  0  0  0  0  0  0  0
    8.2751   -1.6177   23.0143 H   0  0  0  0  0  0  0  0  0  0  0  0
    7.0039    0.7077   22.9128 H   0  0  0  0  0  0  0  0  0  0  0  0
    6.7672    1.1173   24.6400 H   0  0  0  0  0  0  0  0  0  0  0  0
   10.9948    0.9621   23.6773 C   0  0  0  0  0  2  0  0  0  0  0  0
   14.5328   -1.5153   23.7560 H   0  0  0  0  0  0  0  0  0  0  0  0
    9.1795   -0.9073   24.1687 H   0  0  0  0  0  0  0  0  0  0  0  0
  6 19  1  0  0  0  0
  6 17  1  0  0  0  0
 11 17  1  0  0  0  0
  8 13  1  0  0  0  0
 15 18  1  0  0  0  0
  6 12  1  0  0  0  0
  8 11  2  0  0  0  0
  5  8  1  0  0  0  0
  4 11  1  0  0  0  0
  2 16  1  0  0  0  0
 15 21  1  0  0  0  0
 15 20  1  0  0  0  0
 10 15  1  0  0  0  0
  3  5  1  0  0  0  0
  3  4  1  0  0  0  0
  4 22  1  0  0  0  0
  1  3  2  0  0  0  0
 10 16  1  0  0  0  0
 16 22  1  0  0  0  0
 14 16  1  0  0  0  0
  9 10  1  0  0  0  0
  7 10  1  0  0  0  0
  5 23  1  0  0  0  0
  6 24  1  0  0  0  0
M  CHG  1   6   1
M  END
> <Chemgauss4>
-5.757534

$$$$
