stable:False satoms:17 tatoms:24 sratio:0.7083333333333334
  -OEChem-08062404113D

 28 28  0     0  0  0  0  0  0999 V2000
    6.6054   -3.8208   26.3230 H   0  0  0  0  0  0  0  0  0  0  0  0
    7.6933   -3.5886   26.4006 C   0  0  0  0  0  0  0  0  0  0  0  0
    8.2319   -4.5381   26.4669 H   0  0  0  0  0  0  0  0  0  0  0  0
    7.8624   -3.0079   27.3303 H   0  0  0  0  0  0  0  0  0  0  0  0
    8.1506   -2.8625   25.2484 N   0  0  0  0  0  0  0  0  0  0  0  0
    9.1981   -2.2144   25.0101 N   0  0  0  0  0  0  0  0  0  0  0  0
    8.4828   -1.2855   23.0475 N   0  3  0  0  0  0  0  0  0  0  0  0
   10.0036   -0.8977   24.4420 C   0  0  0  0  0  0  0  0  0  0  0  0
   11.0003    0.0001   24.8919 C   0  0  0  0  0  0  0  0  0  0  0  0
   10.8840    0.7843   25.6294 H   0  0  0  0  0  0  0  0  0  0  0  0
   12.9995    0.4237   24.4040 H   0  0  0  0  0  0  0  0  0  0  0  0
   12.1500   -0.1804   24.2310 C   0  0  0  0  0  0  0  0  0  0  0  0
   12.1822   -0.9492   23.4873 H   0  0  0  0  0  0  0  0  0  0  0  0
    9.5832   -0.8114   23.3303 N   0  0  0  0  0  0  0  0  0  0  0  0
    8.6297    0.1274   21.2251 C   0  0  0  0  0  0  0  0  0  0  0  0
    9.5904    0.8578   21.3250 O   0  0  0  0  0  0  0  0  0  0  0  0
    8.0492   -0.8025   21.9114 N   0  0  0  0  0  0  0  0  0  0  0  0
    7.7095    0.2449   19.9974 C   0  0  0  0  0  0  0  0  0  0  0  0
    8.1408   -0.0303   18.7928 N   0  0  0  0  0  0  0  0  0  0  0  0
    7.3864    0.3882   17.8942 N   0  0  0  0  0  0  0  0  0  0  0  0
    5.5880    1.3058   17.8962 H   0  0  0  0  0  0  0  0  0  0  0  0
    6.2917    0.8760   18.5466 C   0  0  0  0  0  0  0  0  0  0  0  0
    6.4123    0.7016   19.9165 C   0  0  0  0  0  0  0  0  0  0  0  0
    5.2724    0.9261   21.3035 Br  0  0  0  0  0  0  0  0  0  0  0  0
    7.8314   -1.0576   23.7711 H   0  0  0  0  0  0  0  0  0  0  0  0
    7.2005   -1.1830   21.5442 H   0  0  0  0  0  0  0  0  0  0  0  0
    8.9901   -0.5263   18.6120 H   0  0  0  0  0  0  0  0  0  0  0  0
    8.5632   -2.2795   22.9723 H   0  0  0  0  0  0  0  0  0  0  0  0
 19 20  1  0  0  0  0
 20 22  2  0  0  0  0
 21 22  1  0  0  0  0
 18 19  1  0  0  0  0
 22 23  1  0  0  0  0
 18 23  2  0  0  0  0
 15 18  1  0  0  0  0
 23 24  1  0  0  0  0
 15 16  2  0  0  0  0
 15 17  1  0  0  0  0
  7 17  1  0  0  0  0
 12 13  1  0  0  0  0
  7 14  1  0  0  0  0
  8 14  2  0  0  0  0
 11 12  1  0  0  0  0
  9 12  2  0  0  0  0
  8  9  1  0  0  0  0
  6  8  1  0  0  0  0
  9 10  1  0  0  0  0
  5  6  2  3  0  0  0
  2  5  1  0  0  0  0
  2  3  1  0  0  0  0
  1  2  1  0  0  0  0
  2  4  1  0  0  0  0
  7 25  1  0  0  0  0
 17 26  1  0  0  0  0
 19 27  1  0  0  0  0
  7 28  1  0  0  0  0
M  CHG  1   7   1
M  END
> <Chemgauss4>
-8.379477

$$$$
