stable:False satoms:17 tatoms:24 sratio:0.7083333333333334
  -OEChem-08062404113D

 28 28  0     0  0  0  0  0  0999 V2000
   -7.3989   -3.5541  -26.6972 H   0  0  0  0  0  0  0  0  0  0  0  0
   -8.4719   -3.2504  -26.6873 C   0  0  0  0  0  0  0  0  0  0  0  0
   -9.0747   -4.1562  -26.7972 H   0  0  0  0  0  0  0  0  0  0  0  0
   -8.6554   -2.5831  -27.5540 H   0  0  0  0  0  0  0  0  0  0  0  0
   -8.8136   -2.5991  -25.4532 N   0  0  0  0  0  0  0  0  0  0  0  0
   -9.8007   -1.9112  -25.0977 N   0  0  0  0  0  0  0  0  0  0  0  0
   -8.9147   -1.1989  -23.1143 N   0  3  0  0  0  0  0  0  0  0  0  0
  -10.4840   -0.6014  -24.3746 C   0  0  0  0  0  0  0  0  0  0  0  0
  -11.4435    0.3905  -24.6862 C   0  0  0  0  0  0  0  0  0  0  0  0
  -11.3183    1.2264  -25.3630 H   0  0  0  0  0  0  0  0  0  0  0  0
  -13.3793    0.8916  -24.0412 H   0  0  0  0  0  0  0  0  0  0  0  0
  -12.5629    0.2243  -23.9716 C   0  0  0  0  0  0  0  0  0  0  0  0
  -12.6030   -0.6019  -23.2928 H   0  0  0  0  0  0  0  0  0  0  0  0
   -9.9958   -0.6363  -23.2880 N   0  0  0  0  0  0  0  0  0  0  0  0
   -8.8636    0.0592  -21.1769 C   0  0  0  0  0  0  0  0  0  0  0  0
   -9.7782    0.8525  -21.1565 O   0  0  0  0  0  0  0  0  0  0  0  0
   -8.3859   -0.8421  -21.9720 N   0  0  0  0  0  0  0  0  0  0  0  0
   -7.8688    0.0151  -20.0038 C   0  0  0  0  0  0  0  0  0  0  0  0
   -8.2476   -0.3354  -18.8010 N   0  0  0  0  0  0  0  0  0  0  0  0
   -7.4171   -0.0420  -17.9203 N   0  0  0  0  0  0  0  0  0  0  0  0
   -5.5652    0.7614  -17.9597 H   0  0  0  0  0  0  0  0  0  0  0  0
   -6.3317    0.4324  -18.5978 C   0  0  0  0  0  0  0  0  0  0  0  0
   -6.5419    0.3835  -19.9671 C   0  0  0  0  0  0  0  0  0  0  0  0
   -5.4710    0.6561  -21.3998 Br  0  0  0  0  0  0  0  0  0  0  0  0
   -8.2921   -0.9500  -23.8562 H   0  0  0  0  0  0  0  0  0  0  0  0
   -7.5444   -1.3036  -21.6909 H   0  0  0  0  0  0  0  0  0  0  0  0
   -9.1160   -0.7925  -18.6086 H   0  0  0  0  0  0  0  0  0  0  0  0
   -9.0558   -2.1889  -23.1157 H   0  0  0  0  0  0  0  0  0  0  0  0
 19 20  1  0  0  0  0
 20 22  2  0  0  0  0
 21 22  1  0  0  0  0
 18 19  1  0  0  0  0
 22 23  1  0  0  0  0
 18 23  2  0  0  0  0
 15 18  1  0  0  0  0
 23 24  1  0  0  0  0
 15 16  2  0  0  0  0
 15 17  1  0  0  0  0
  7 17  1  0  0  0  0
 12 13  1  0  0  0  0
  7 14  1  0  0  0  0
  8 14  2  0  0  0  0
 11 12  1  0  0  0  0
  9 12  2  0  0  0  0
  8  9  1  0  0  0  0
  6  8  1  0  0  0  0
  9 10  1  0  0  0  0
  5  6  2  3  0  0  0
  2  5  1  0  0  0  0
  2  3  1  0  0  0  0
  1  2  1  0  0  0  0
  2  4  1  0  0  0  0
  7 25  1  0  0  0  0
 17 26  1  0  0  0  0
 19 27  1  0  0  0  0
  7 28  1  0  0  0  0
M  CHG  1   7   1
M  END
> <Chemgauss4>
-8.289082

$$$$
