stable:False satoms:14 tatoms:24 sratio:0.5833333333333334
  -OEChem-08052414363D

 27 27  0     0  0  0  0  0  0999 V2000
   -8.8672   -0.1655  -26.7978 N   0  0  0  0  0  0  0  0  0  0  0  0
   -8.6477   -2.1953  -22.4675 C   0  0  0  0  0  0  0  0  0  0  0  0
  -11.4790   -1.7020  -21.2564 H   0  0  0  0  0  0  0  0  0  0  0  0
   -8.9814   -0.9349  -21.9982 C   0  0  0  0  0  0  0  0  0  0  0  0
   -9.3204   -0.3874  -25.5587 C   0  0  0  0  0  0  0  0  0  0  0  0
  -12.1157    0.2336  -24.7114 N   0  0  0  0  0  0  0  0  0  0  0  0
   -8.2403   -0.3975  -21.4380 H   0  0  0  0  0  0  0  0  0  0  0  0
  -13.4253   -2.2734  -22.6123 O   0  0  0  0  0  0  0  0  0  0  0  0
   -9.0686   -1.7863  -24.9895 C   0  0  0  0  0  0  0  0  0  0  0  0
   -8.2500   -2.9285  -21.7730 H   0  0  0  0  0  0  0  0  0  0  0  0
   -9.8889    0.6370  -25.0267 N   0  0  0  0  0  0  0  0  0  0  0  0
  -13.6941   -1.0169  -24.8370 H   0  0  0  0  0  0  0  0  0  0  0  0
  -10.2253   -0.3919  -22.2838 C   0  0  0  0  0  0  0  0  0  0  0  0
  -11.3858   -1.1606  -22.1931 C   0  0  0  0  0  0  0  0  0  0  0  0
   -9.1096   -3.2985  -26.8382 O   0  0  0  0  0  0  0  0  0  0  0  0
  -10.2872    0.6374  -22.5852 H   0  0  0  0  0  0  0  0  0  0  0  0
  -12.8185   -0.7136  -24.2659 C   0  3  0  0  0  0  0  0  0  0  0  0
   -9.0467   -2.5639  -25.9873 C   0  0  0  0  0  0  0  0  0  0  0  0
   -8.6215   -3.6029  -24.0113 H   0  0  0  0  0  0  0  0  0  0  0  0
  -12.6142   -1.4566  -23.0043 C   0  0  0  0  0  0  0  0  0  0  0  0
   -8.7873   -2.5551  -23.8082 C   0  0  0  0  0  0  0  0  0  0  0  0
  -11.0701    0.8899  -24.6213 N   0  0  0  0  0  0  0  0  0  0  0  0
   -9.2826    0.6034  -27.2869 H   0  0  0  0  0  0  0  0  0  0  0  0
   -7.8996   -0.3892  -27.0106 H   0  0  0  0  0  0  0  0  0  0  0  0
   -8.3902   -3.1488  -27.4403 H   0  0  0  0  0  0  0  0  0  0  0  0
   -8.0153   -2.8718  -25.7604 H   0  0  0  0  0  0  0  0  0  0  0  0
   -9.0304   -1.7138  -26.6852 H   0  0  0  0  0  0  0  0  0  0  0  0
 12 17  1  0  0  0  0
  8 20  2  0  0  0  0
 17 20  1  0  0  0  0
  6 17  1  0  0  0  0
 14 20  1  0  0  0  0
  6 22  2  3  0  0  0
  3 14  1  0  0  0  0
 13 14  2  3  0  0  0
 11 22  1  0  0  0  0
 15 18  1  0  0  0  0
 13 16  1  0  0  0  0
  4 13  1  0  0  0  0
  5 11  2  3  0  0  0
  9 18  1  0  0  0  0
  1 23  1  0  0  0  0
  5  9  1  0  0  0  0
  1  5  1  0  0  0  0
  9 21  2  0  0  0  0
  1 24  1  0  0  0  0
 19 21  1  0  0  0  0
  2 21  1  0  0  0  0
  2  4  2  3  0  0  0
  4  7  1  0  0  0  0
  2 10  1  0  0  0  0
 15 25  1  0  0  0  0
 18 26  1  0  0  0  0
 18 27  1  0  0  0  0
M  CHG  1  17   1
M  END
> <Chemgauss4>
-6.944914

$$$$
