stable:False satoms:14 tatoms:24 sratio:0.5833333333333334
  -OEChem-08052414363D

 27 27  0     0  0  0  0  0  0999 V2000
    8.6499    0.0478   26.5325 N   0  0  0  0  0  0  0  0  0  0  0  0
    8.8562   -2.5235   22.4994 C   0  0  0  0  0  0  0  0  0  0  0  0
   11.7431   -2.0238   21.4305 H   0  0  0  0  0  0  0  0  0  0  0  0
    9.1623   -1.3155   21.8935 C   0  0  0  0  0  0  0  0  0  0  0  0
    9.2053   -0.3025   25.3668 C   0  0  0  0  0  0  0  0  0  0  0  0
   12.0227    0.3676   24.6386 N   0  0  0  0  0  0  0  0  0  0  0  0
    8.4400   -0.8974   21.2187 H   0  0  0  0  0  0  0  0  0  0  0  0
   13.6075   -2.3047   22.9792 O   0  0  0  0  0  0  0  0  0  0  0  0
    9.0657   -1.7745   24.9693 C   0  0  0  0  0  0  0  0  0  0  0  0
    8.5482   -3.3607   21.8811 H   0  0  0  0  0  0  0  0  0  0  0  0
    9.7615    0.6775   24.7457 N   0  0  0  0  0  0  0  0  0  0  0  0
   13.6464   -0.7630   25.0338 H   0  0  0  0  0  0  0  0  0  0  0  0
   10.3531   -0.6693   22.1901 C   0  0  0  0  0  0  0  0  0  0  0  0
   11.5533   -1.3744   22.2800 C   0  0  0  0  0  0  0  0  0  0  0  0
    9.0414   -3.0355   26.9980 O   0  0  0  0  0  0  0  0  0  0  0  0
   10.3418    0.3918   22.3581 H   0  0  0  0  0  0  0  0  0  0  0  0
   12.8025   -0.5858   24.3697 C   0  3  0  0  0  0  0  0  0  0  0  0
    9.0068   -2.4194   26.0562 C   0  0  0  0  0  0  0  0  0  0  0  0
    8.7827   -3.7234   24.2084 H   0  0  0  0  0  0  0  0  0  0  0  0
   12.7302   -1.4933   23.2049 C   0  0  0  0  0  0  0  0  0  0  0  0
    8.9120   -2.7018   23.8821 C   0  0  0  0  0  0  0  0  0  0  0  0
   10.9560    0.9453   24.3925 N   0  0  0  0  0  0  0  0  0  0  0  0
    8.9892    0.8953   26.9443 H   0  0  0  0  0  0  0  0  0  0  0  0
    7.6811   -0.2030   26.7061 H   0  0  0  0  0  0  0  0  0  0  0  0
    8.2723   -2.8528   27.5249 H   0  0  0  0  0  0  0  0  0  0  0  0
    8.0117   -2.8131   25.8015 H   0  0  0  0  0  0  0  0  0  0  0  0
    8.8965   -1.4901   26.6344 H   0  0  0  0  0  0  0  0  0  0  0  0
 12 17  1  0  0  0  0
  8 20  2  0  0  0  0
 17 20  1  0  0  0  0
  6 17  1  0  0  0  0
 14 20  1  0  0  0  0
  6 22  2  3  0  0  0
  3 14  1  0  0  0  0
 13 14  2  3  0  0  0
 11 22  1  0  0  0  0
 15 18  1  0  0  0  0
 13 16  1  0  0  0  0
  4 13  1  0  0  0  0
  5 11  2  3  0  0  0
  9 18  1  0  0  0  0
  1 23  1  0  0  0  0
  5  9  1  0  0  0  0
  1  5  1  0  0  0  0
  9 21  2  0  0  0  0
  1 24  1  0  0  0  0
 19 21  1  0  0  0  0
  2 21  1  0  0  0  0
  2  4  2  3  0  0  0
  4  7  1  0  0  0  0
  2 10  1  0  0  0  0
 15 25  1  0  0  0  0
 18 26  1  0  0  0  0
 18 27  1  0  0  0  0
M  CHG  1  17   1
M  END
> <Chemgauss4>
-7.030150

$$$$
