MODEL 1
REMARK VINA RESULT:    -7.467      0.000      0.000
REMARK INTER + INTRA:         -11.267
REMARK INTER:                 -10.085
REMARK INTRA:                  -1.181
REMARK UNBOUND:                -1.181
REMARK  6 active torsions:
REMARK  status: ('A' for Active; 'I' for Inactive)
REMARK    1  A    between atoms: S_2  and  N_5 
REMARK    2  A    between atoms: C_7  and  C_8 
REMARK    3  A    between atoms: C_8  and  C_9 
REMARK    4  A    between atoms: C_9  and  C_15 
REMARK    5  A    between atoms: C_15  and  C_16 
REMARK       I    between atoms: C_16  and  N_18 
REMARK    6  A    between atoms: N_18  and  C_20 
ROOT
HETATM    1  C   UNL     1       9.355  -1.619  23.397  1.00  0.00     0.075 C 
HETATM    2  C   UNL     1       9.048  -0.534  24.713  1.00  0.00    -0.000 C 
HETATM    3  C   UNL     1       9.761   0.168  25.102  1.00  0.00    -0.025 C 
HETATM    4  C   UNL     1      11.183   0.368  24.780  1.00  0.00     0.054 C 
HETATM    5  C   UNL     1      11.585  -0.606  23.778  1.00  0.00    -0.025 C 
HETATM    6  C   UNL     1      11.039  -1.363  23.295  1.00  0.00    -0.000 C 
ENDROOT
BRANCH   1   7
HETATM    7  C   UNL     1       8.907  -2.791  23.243  1.00  0.00     0.021 C 
BRANCH   7   8
HETATM    8  C   UNL     1       8.051  -3.561  22.980  1.00  0.00     0.098 C 
HETATM    9  N   UNL     1       7.537  -4.541  22.375  1.00  0.00    -0.296 N 
ATOM     10  HN  UNL     1       8.119  -5.370  22.255  1.00  0.00     0.177 HD
BRANCH   9  11
HETATM   11  S   UNL     1       6.055  -4.599  21.782  1.00  0.00     0.226 S 
HETATM   12  C   UNL     1       5.056  -5.163  23.088  1.00  0.00     0.186 C 
HETATM   13  O   UNL     1       5.589  -3.273  21.406  1.00  0.00    -0.206 OA
HETATM   14  O   UNL     1       5.912  -5.533  20.675  1.00  0.00    -0.206 OA
ENDBRANCH   9  11
ENDBRANCH   7   8
ENDBRANCH   1   7
BRANCH   1  15
HETATM   15  C   UNL     1       8.874  -1.095  22.371  1.00  0.00    -0.061 C 
BRANCH  15  16
HETATM   16  C   UNL     1       8.390  -0.468  21.331  1.00  0.00     0.290 C 
HETATM   17  O   UNL     1       9.115   0.144  20.745  1.00  0.00    -0.259 OA
HETATM   18  N   UNL     1       7.063  -0.666  21.154  1.00  0.00    -0.315 N 
ATOM     19  HN  UNL     1       6.519  -1.197  21.834  1.00  0.00     0.170 HD
BRANCH  18  20
HETATM   20  C   UNL     1       6.517  -0.181  20.136  1.00  0.00     0.057 A 
HETATM   21  C   UNL     1       6.218  -0.552  18.894  1.00  0.00     0.117 A 
HETATM   22  N   UNL     1       5.741  -0.323  17.801  1.00  0.00    -0.373 N 
HETATM   23  C   UNL     1       5.287   0.969  18.043  1.00  0.00     0.088 A 
ATOM     24  HN  UNL     1       5.690  -0.901  16.962  1.00  0.00     0.164 HD
HETATM   25  C   UNL     1       5.373   1.594  19.075  1.00  0.00     0.026 A 
HETATM   26  C   UNL     1       5.894   1.284  20.283  1.00  0.00    -0.033 A 
HETATM   27  C   UNL     1       5.954   2.093  21.583  1.00  0.00     0.050 C 
ENDBRANCH  18  20
ENDBRANCH  15  16
ENDBRANCH   1  15
TORSDOF 6
ENDMDL
MODEL 2
REMARK VINA RESULT:    -7.092      2.766      5.954
REMARK INTER + INTRA:         -10.761
REMARK INTER:                  -9.848
REMARK INTRA:                  -0.913
REMARK UNBOUND:                -1.181
REMARK  6 active torsions:
REMARK  status: ('A' for Active; 'I' for Inactive)
REMARK    1  A    between atoms: S_2  and  N_5 
REMARK    2  A    between atoms: C_7  and  C_8 
REMARK    3  A    between atoms: C_8  and  C_9 
REMARK    4  A    between atoms: C_9  and  C_15 
REMARK    5  A    between atoms: C_15  and  C_16 
REMARK       I    between atoms: C_16  and  N_18 
REMARK    6  A    between atoms: N_18  and  C_20 
ROOT
HETATM    1  C   UNL     1       9.980  -0.653  23.688  1.00  0.00     0.075 C 
HETATM    2  C   UNL     1      11.192  -1.531  22.815  1.00  0.00    -0.000 C 
HETATM    3  C   UNL     1      12.242  -1.506  23.039  1.00  0.00    -0.025 C 
HETATM    4  C   UNL     1      12.997  -0.690  24.003  1.00  0.00     0.054 C 
HETATM    5  C   UNL     1      12.079   0.201  24.693  1.00  0.00    -0.025 C 
HETATM    6  C   UNL     1      11.038   0.323  24.604  1.00  0.00    -0.000 C 
ENDROOT
BRANCH   1   7
HETATM    7  C   UNL     1       8.920  -0.137  23.229  1.00  0.00     0.021 C 
BRANCH   7   8
HETATM    8  C   UNL     1       8.042  -0.070  22.444  1.00  0.00     0.098 C 
HETATM    9  N   UNL     1       7.219  -0.525  21.602  1.00  0.00    -0.296 N 
ATOM     10  HN  UNL     1       6.747  -1.397  21.838  1.00  0.00     0.177 HD
BRANCH   9  11
HETATM   11  S   UNL     1       6.853   0.146  20.200  1.00  0.00     0.226 S 
HETATM   12  C   UNL     1       5.645  -0.886  19.495  1.00  0.00     0.186 C 
HETATM   13  O   UNL     1       6.260   1.461  20.386  1.00  0.00    -0.206 OA
HETATM   14  O   UNL     1       7.979   0.210  19.278  1.00  0.00    -0.206 OA
ENDBRANCH   9  11
ENDBRANCH   7   8
ENDBRANCH   1   7
BRANCH   1  15
HETATM   15  C   UNL     1       9.468  -1.448  24.503  1.00  0.00    -0.061 C 
BRANCH  15  16
HETATM   16  C   UNL     1       8.853  -2.245  25.335  1.00  0.00     0.290 C 
HETATM   17  O   UNL     1       8.625  -1.824  26.342  1.00  0.00    -0.259 OA
HETATM   18  N   UNL     1       8.609  -3.474  24.821  1.00  0.00    -0.315 N 
ATOM     19  HN  UNL     1       8.957  -3.732  23.898  1.00  0.00     0.170 HD
BRANCH  18  20
HETATM   20  C   UNL     1       7.946  -4.287  25.505  1.00  0.00     0.057 A 
HETATM   21  C   UNL     1       8.139  -5.129  26.516  1.00  0.00     0.117 A 
HETATM   22  N   UNL     1       7.730  -5.956  27.306  1.00  0.00    -0.373 N 
HETATM   23  C   UNL     1       6.393  -5.961  26.921  1.00  0.00     0.088 A 
ATOM     24  HN  UNL     1       8.216  -6.485  28.030  1.00  0.00     0.164 HD
HETATM   25  C   UNL     1       5.878  -5.293  26.053  1.00  0.00     0.026 A 
HETATM   26  C   UNL     1       6.375  -4.360  25.212  1.00  0.00    -0.033 A 
HETATM   27  C   UNL     1       5.682  -3.506  24.145  1.00  0.00     0.050 C 
ENDBRANCH  18  20
ENDBRANCH  15  16
ENDBRANCH   1  15
TORSDOF 6
ENDMDL
MODEL 3
REMARK VINA RESULT:    -6.772      2.356      2.439
REMARK INTER + INTRA:         -10.328
REMARK INTER:                  -9.701
REMARK INTRA:                  -0.627
REMARK UNBOUND:                -1.181
REMARK  6 active torsions:
REMARK  status: ('A' for Active; 'I' for Inactive)
REMARK    1  A    between atoms: S_2  and  N_5 
REMARK    2  A    between atoms: C_7  and  C_8 
REMARK    3  A    between atoms: C_8  and  C_9 
REMARK    4  A    between atoms: C_9  and  C_15 
REMARK    5  A    between atoms: C_15  and  C_16 
REMARK       I    between atoms: C_16  and  N_18 
REMARK    6  A    between atoms: N_18  and  C_20 
ROOT
HETATM    1  C   UNL     1       9.705  -1.453  23.616  1.00  0.00     0.075 C 
HETATM    2  C   UNL     1       9.898  -0.203  24.801  1.00  0.00    -0.000 C 
HETATM    3  C   UNL     1      10.792   0.376  24.936  1.00  0.00    -0.025 C 
HETATM    4  C   UNL     1      12.117   0.252  24.308  1.00  0.00     0.054 C 
HETATM    5  C   UNL     1      12.106  -0.877  23.393  1.00  0.00    -0.025 C 
HETATM    6  C   UNL     1      11.341  -1.553  23.140  1.00  0.00    -0.000 C 
ENDROOT
BRANCH   1   7
HETATM    7  C   UNL     1       9.036  -2.520  23.722  1.00  0.00     0.021 C 
BRANCH   7   8
HETATM    8  C   UNL     1       8.448  -3.332  24.346  1.00  0.00     0.098 C 
HETATM    9  N   UNL     1       7.460  -3.801  24.974  1.00  0.00    -0.296 N 
ATOM     10  HN  UNL     1       6.538  -3.663  24.559  1.00  0.00     0.177 HD
BRANCH   9  11
HETATM   11  S   UNL     1       7.525  -4.591  26.361  1.00  0.00     0.226 S 
HETATM   12  C   UNL     1       6.238  -3.933  27.328  1.00  0.00     0.186 C 
HETATM   13  O   UNL     1       7.258  -6.008  26.170  1.00  0.00    -0.206 OA
HETATM   14  O   UNL     1       8.773  -4.389  27.082  1.00  0.00    -0.206 OA
ENDBRANCH   9  11
ENDBRANCH   7   8
ENDBRANCH   1   7
BRANCH   1  15
HETATM   15  C   UNL     1       9.105  -0.947  22.645  1.00  0.00    -0.061 C 
BRANCH  15  16
HETATM   16  C   UNL     1       8.552  -0.419  21.586  1.00  0.00     0.290 C 
HETATM   17  O   UNL     1       9.235   0.137  20.901  1.00  0.00    -0.259 OA
HETATM   18  N   UNL     1       7.217  -0.633  21.512  1.00  0.00    -0.315 N 
ATOM     19  HN  UNL     1       6.721  -1.100  22.271  1.00  0.00     0.170 HD
BRANCH  18  20
HETATM   20  C   UNL     1       6.606  -0.245  20.490  1.00  0.00     0.057 A 
HETATM   21  C   UNL     1       6.179  -0.745  19.334  1.00  0.00     0.117 A 
HETATM   22  N   UNL     1       5.617  -0.623  18.264  1.00  0.00    -0.373 N 
HETATM   23  C   UNL     1       5.246   0.712  18.380  1.00  0.00     0.088 A 
ATOM     24  HN  UNL     1       5.463  -1.295  17.512  1.00  0.00     0.164 HD
HETATM   25  C   UNL     1       5.454   1.452  19.315  1.00  0.00     0.026 A 
HETATM   26  C   UNL     1       6.067   1.261  20.504  1.00  0.00    -0.033 A 
HETATM   27  C   UNL     1       6.281   2.216  21.683  1.00  0.00     0.050 C 
ENDBRANCH  18  20
ENDBRANCH  15  16
ENDBRANCH   1  15
TORSDOF 6
ENDMDL
MODEL 4
REMARK VINA RESULT:    -6.591      3.921      6.242
REMARK INTER + INTRA:         -10.085
REMARK INTER:                  -9.409
REMARK INTRA:                  -0.675
REMARK UNBOUND:                -1.181
REMARK  6 active torsions:
REMARK  status: ('A' for Active; 'I' for Inactive)
REMARK    1  A    between atoms: S_2  and  N_5 
REMARK    2  A    between atoms: C_7  and  C_8 
REMARK    3  A    between atoms: C_8  and  C_9 
REMARK    4  A    between atoms: C_9  and  C_15 
REMARK    5  A    between atoms: C_15  and  C_16 
REMARK       I    between atoms: C_16  and  N_18 
REMARK    6  A    between atoms: N_18  and  C_20 
ROOT
HETATM    1  C   UNL     1       7.251  -5.031  24.139  1.00  0.00     0.075 C 
HETATM    2  C   UNL     1       7.679  -5.860  22.678  1.00  0.00    -0.000 C 
HETATM    3  C   UNL     1       7.047  -5.934  21.812  1.00  0.00    -0.025 C 
HETATM    4  C   UNL     1       5.654  -5.509  21.604  1.00  0.00     0.054 C 
HETATM    5  C   UNL     1       5.145  -4.927  22.835  1.00  0.00    -0.025 C 
HETATM    6  C   UNL     1       5.604  -4.780  23.770  1.00  0.00    -0.000 C 
ENDROOT
BRANCH   1   7
HETATM    7  C   UNL     1       7.569  -5.341  25.323  1.00  0.00     0.021 C 
BRANCH   7   8
HETATM    8  C   UNL     1       7.362  -5.395  26.484  1.00  0.00     0.098 C 
HETATM    9  N   UNL     1       7.500  -5.848  27.653  1.00  0.00    -0.296 N 
ATOM     10  HN  UNL     1       8.448  -6.064  27.959  1.00  0.00     0.177 HD
BRANCH   9  11
HETATM   11  S   UNL     1       6.319  -6.113  28.696  1.00  0.00     0.226 S 
HETATM   12  C   UNL     1       4.882  -5.504  27.931  1.00  0.00     0.186 C 
HETATM   13  O   UNL     1       6.132  -7.537  28.926  1.00  0.00    -0.206 OA
HETATM   14  O   UNL     1       6.490  -5.402  29.954  1.00  0.00    -0.206 OA
ENDBRANCH   9  11
ENDBRANCH   7   8
ENDBRANCH   1   7
BRANCH   1  15
HETATM   15  C   UNL     1       7.782  -3.903  24.088  1.00  0.00    -0.061 C 
BRANCH  15  16
HETATM   16  C   UNL     1       8.318  -2.712  24.121  1.00  0.00     0.290 C 
HETATM   17  O   UNL     1       7.793  -1.953  24.747  1.00  0.00    -0.259 OA
HETATM   18  N   UNL     1       9.433  -2.603  23.360  1.00  0.00    -0.315 N 
ATOM     19  HN  UNL     1       9.743  -3.379  22.775  1.00  0.00     0.170 HD
BRANCH  18  20
HETATM   20  C   UNL     1      10.074  -1.528  23.391  1.00  0.00     0.057 A 
HETATM   21  C   UNL     1      11.071  -0.982  24.080  1.00  0.00     0.117 A 
HETATM   22  N   UNL     1      11.827  -0.059  24.310  1.00  0.00    -0.373 N 
HETATM   23  C   UNL     1      11.395   0.810  23.314  1.00  0.00     0.088 A 
ATOM     24  HN  UNL     1      12.555   0.047  25.016  1.00  0.00     0.164 HD
HETATM   25  C   UNL     1      10.525   0.613  22.497  1.00  0.00     0.026 A 
HETATM   26  C   UNL     1       9.723  -0.448  22.263  1.00  0.00    -0.033 A 
HETATM   27  C   UNL     1       8.652  -0.676  21.191  1.00  0.00     0.050 C 
ENDBRANCH  18  20
ENDBRANCH  15  16
ENDBRANCH   1  15
TORSDOF 6
ENDMDL
MODEL 5
REMARK VINA RESULT:    -6.280     14.701     16.341
REMARK INTER + INTRA:          -9.664
REMARK INTER:                  -8.896
REMARK INTRA:                  -0.768
REMARK UNBOUND:                -1.181
REMARK  6 active torsions:
REMARK  status: ('A' for Active; 'I' for Inactive)
REMARK    1  A    between atoms: S_2  and  N_5 
REMARK    2  A    between atoms: C_7  and  C_8 
REMARK    3  A    between atoms: C_8  and  C_9 
REMARK    4  A    between atoms: C_9  and  C_15 
REMARK    5  A    between atoms: C_15  and  C_16 
REMARK       I    between atoms: C_16  and  N_18 
REMARK    6  A    between atoms: N_18  and  C_20 
ROOT
HETATM    1  C   UNL     1      23.161  -1.878  23.628  1.00  0.00     0.075 C 
HETATM    2  C   UNL     1      21.594  -1.720  24.351  1.00  0.00    -0.000 C 
HETATM    3  C   UNL     1      21.195  -0.804  24.746  1.00  0.00    -0.025 C 
HETATM    4  C   UNL     1      21.820   0.516  24.923  1.00  0.00     0.054 C 
HETATM    5  C   UNL     1      23.202   0.451  24.478  1.00  0.00    -0.025 C 
HETATM    6  C   UNL     1      23.762  -0.345  24.079  1.00  0.00    -0.000 C 
ENDROOT
BRANCH   1   7
HETATM    7  C   UNL     1      23.938  -2.874  23.679  1.00  0.00     0.021 C 
BRANCH   7   8
HETATM    8  C   UNL     1      24.210  -3.976  24.005  1.00  0.00     0.098 C 
HETATM    9  N   UNL     1      23.964  -5.177  24.303  1.00  0.00    -0.296 N 
ATOM     10  HN  UNL     1      23.287  -5.671  23.722  1.00  0.00     0.177 HD
BRANCH   9  11
HETATM   11  S   UNL     1      24.621  -5.992  25.509  1.00  0.00     0.226 S 
HETATM   12  C   UNL     1      24.385  -5.002  26.918  1.00  0.00     0.186 C 
HETATM   13  O   UNL     1      23.929  -7.252  25.729  1.00  0.00    -0.206 OA
HETATM   14  O   UNL     1      26.052  -6.206  25.349  1.00  0.00    -0.206 OA
ENDBRANCH   9  11
ENDBRANCH   7   8
ENDBRANCH   1   7
BRANCH   1  15
HETATM   15  C   UNL     1      23.001  -1.825  22.392  1.00  0.00    -0.061 C 
BRANCH  15  16
HETATM   16  C   UNL     1      22.767  -1.712  21.111  1.00  0.00     0.290 C 
HETATM   17  O   UNL     1      21.698  -1.776  20.799  1.00  0.00    -0.259 OA
HETATM   18  N   UNL     1      23.889  -1.550  20.372  1.00  0.00    -0.315 N 
ATOM     19  HN  UNL     1      24.811  -1.594  20.806  1.00  0.00     0.170 HD
BRANCH  18  20
HETATM   20  C   UNL     1      23.770  -1.344  19.142  1.00  0.00     0.057 A 
HETATM   21  C   UNL     1      23.515  -0.328  18.322  1.00  0.00     0.117 A 
HETATM   22  N   UNL     1      23.355   0.126  17.207  1.00  0.00    -0.373 N 
HETATM   23  C   UNL     1      23.585  -1.037  16.480  1.00  0.00     0.088 A 
ATOM     24  HN  UNL     1      23.123   1.069  16.898  1.00  0.00     0.164 HD
HETATM   25  C   UNL     1      23.869  -2.130  16.916  1.00  0.00     0.026 A 
HETATM   26  C   UNL     1      24.062  -2.582  18.174  1.00  0.00    -0.033 A 
HETATM   27  C   UNL     1      24.457  -3.971  18.687  1.00  0.00     0.050 C 
ENDBRANCH  18  20
ENDBRANCH  15  16
ENDBRANCH   1  15
TORSDOF 6
ENDMDL
MODEL 6
REMARK VINA RESULT:    -5.848     14.813     16.480
REMARK INTER + INTRA:          -9.081
REMARK INTER:                  -8.241
REMARK INTRA:                  -0.839
REMARK UNBOUND:                -1.181
REMARK  6 active torsions:
REMARK  status: ('A' for Active; 'I' for Inactive)
REMARK    1  A    between atoms: S_2  and  N_5 
REMARK    2  A    between atoms: C_7  and  C_8 
REMARK    3  A    between atoms: C_8  and  C_9 
REMARK    4  A    between atoms: C_9  and  C_15 
REMARK    5  A    between atoms: C_15  and  C_16 
REMARK       I    between atoms: C_16  and  N_18 
REMARK    6  A    between atoms: N_18  and  C_20 
ROOT
HETATM    1  C   UNL     1      23.301  -1.596  23.494  1.00  0.00     0.075 C 
HETATM    2  C   UNL     1      21.773  -1.598  24.313  1.00  0.00    -0.000 C 
HETATM    3  C   UNL     1      21.323  -0.734  24.764  1.00  0.00    -0.025 C 
HETATM    4  C   UNL     1      21.845   0.629  24.955  1.00  0.00     0.054 C 
HETATM    5  C   UNL     1      23.198   0.698  24.428  1.00  0.00    -0.025 C 
HETATM    6  C   UNL     1      23.797  -0.033  23.966  1.00  0.00    -0.000 C 
ENDROOT
BRANCH   1   7
HETATM    7  C   UNL     1      24.160  -2.523  23.462  1.00  0.00     0.021 C 
BRANCH   7   8
HETATM    8  C   UNL     1      24.475  -3.660  23.427  1.00  0.00     0.098 C 
HETATM    9  N   UNL     1      25.282  -4.628  23.473  1.00  0.00    -0.296 N 
ATOM     10  HN  UNL     1      25.998  -4.603  24.199  1.00  0.00     0.177 HD
BRANCH   9  11
HETATM   11  S   UNL     1      25.283  -5.890  22.493  1.00  0.00     0.226 S 
HETATM   12  C   UNL     1      26.902  -5.988  21.867  1.00  0.00     0.186 C 
HETATM   13  O   UNL     1      25.011  -7.120  23.220  1.00  0.00    -0.206 OA
HETATM   14  O   UNL     1      24.376  -5.743  21.363  1.00  0.00    -0.206 OA
ENDBRANCH   9  11
ENDBRANCH   7   8
ENDBRANCH   1   7
BRANCH   1  15
HETATM   15  C   UNL     1      23.061  -1.516  22.272  1.00  0.00    -0.061 C 
BRANCH  15  16
HETATM   16  C   UNL     1      22.815  -1.521  20.989  1.00  0.00     0.290 C 
HETATM   17  O   UNL     1      21.771  -1.772  20.689  1.00  0.00    -0.259 OA
HETATM   18  N   UNL     1      23.900  -1.228  20.233  1.00  0.00    -0.315 N 
ATOM     19  HN  UNL     1      24.816  -1.099  20.662  1.00  0.00     0.170 HD
BRANCH  18  20
HETATM   20  C   UNL     1      23.753  -1.119  18.994  1.00  0.00     0.057 A 
HETATM   21  C   UNL     1      23.412  -0.186  18.109  1.00  0.00     0.117 A 
HETATM   22  N   UNL     1      23.206   0.174  16.967  1.00  0.00    -0.373 N 
HETATM   23  C   UNL     1      23.519  -1.016  16.320  1.00  0.00     0.088 A 
ATOM     24  HN  UNL     1      22.898   1.073  16.597  1.00  0.00     0.164 HD
HETATM   25  C   UNL     1      23.891  -2.050  16.826  1.00  0.00     0.026 A 
HETATM   26  C   UNL     1      24.131  -2.396  18.109  1.00  0.00    -0.033 A 
HETATM   27  C   UNL     1      24.638  -3.711  18.712  1.00  0.00     0.050 C 
ENDBRANCH  18  20
ENDBRANCH  15  16
ENDBRANCH   1  15
TORSDOF 6
ENDMDL
MODEL 7
REMARK VINA RESULT:    -5.845     14.812     16.803
REMARK INTER + INTRA:          -9.076
REMARK INTER:                  -7.989
REMARK INTRA:                  -1.088
REMARK UNBOUND:                -1.181
REMARK  6 active torsions:
REMARK  status: ('A' for Active; 'I' for Inactive)
REMARK    1  A    between atoms: S_2  and  N_5 
REMARK    2  A    between atoms: C_7  and  C_8 
REMARK    3  A    between atoms: C_8  and  C_9 
REMARK    4  A    between atoms: C_9  and  C_15 
REMARK    5  A    between atoms: C_15  and  C_16 
REMARK       I    between atoms: C_16  and  N_18 
REMARK    6  A    between atoms: N_18  and  C_20 
ROOT
HETATM    1  C   UNL     1      24.340  -1.994  19.597  1.00  0.00     0.075 C 
HETATM    2  C   UNL     1      25.246  -0.528  19.404  1.00  0.00    -0.000 C 
HETATM    3  C   UNL     1      24.984   0.264  18.728  1.00  0.00    -0.025 C 
HETATM    4  C   UNL     1      23.926   0.345  17.709  1.00  0.00     0.054 C 
HETATM    5  C   UNL     1      23.191  -0.909  17.687  1.00  0.00    -0.025 C 
HETATM    6  C   UNL     1      23.305  -1.786  18.256  1.00  0.00    -0.000 C 
ENDROOT
BRANCH   1   7
HETATM    7  C   UNL     1      24.787  -3.150  19.847  1.00  0.00     0.021 C 
BRANCH   7   8
HETATM    8  C   UNL     1      25.081  -4.023  20.585  1.00  0.00     0.098 C 
HETATM    9  N   UNL     1      24.988  -5.172  21.097  1.00  0.00    -0.296 N 
ATOM     10  HN  UNL     1      24.848  -5.955  20.459  1.00  0.00     0.177 HD
BRANCH   9  11
HETATM   11  S   UNL     1      25.070  -5.508  22.656  1.00  0.00     0.226 S 
HETATM   12  C   UNL     1      26.643  -4.969  23.163  1.00  0.00     0.186 C 
HETATM   13  O   UNL     1      24.078  -4.756  23.408  1.00  0.00    -0.206 OA
HETATM   14  O   UNL     1      24.972  -6.932  22.946  1.00  0.00    -0.206 OA
ENDBRANCH   9  11
ENDBRANCH   7   8
ENDBRANCH   1   7
BRANCH   1  15
HETATM   15  C   UNL     1      23.617  -1.847  20.604  1.00  0.00    -0.061 C 
BRANCH  15  16
HETATM   16  C   UNL     1      22.801  -1.653  21.606  1.00  0.00     0.290 C 
HETATM   17  O   UNL     1      21.717  -1.596  21.353  1.00  0.00    -0.259 OA
HETATM   18  N   UNL     1      23.432  -1.540  22.799  1.00  0.00    -0.315 N 
ATOM     19  HN  UNL     1      24.450  -1.536  22.852  1.00  0.00     0.170 HD
BRANCH  18  20
HETATM   20  C   UNL     1      22.736  -1.441  23.835  1.00  0.00     0.057 A 
HETATM   21  C   UNL     1      21.975  -2.216  24.602  1.00  0.00     0.117 A 
HETATM   22  N   UNL     1      21.255  -2.383  25.566  1.00  0.00    -0.373 N 
HETATM   23  C   UNL     1      21.318  -1.096  26.090  1.00  0.00     0.088 A 
ATOM     24  HN  UNL     1      20.757  -3.211  25.892  1.00  0.00     0.164 HD
HETATM   25  C   UNL     1      21.943  -0.156  25.653  1.00  0.00     0.026 A 
HETATM   26  C   UNL     1      22.757  -0.027  24.583  1.00  0.00    -0.033 A 
HETATM   27  C   UNL     1      23.563   1.174  24.079  1.00  0.00     0.050 C 
ENDBRANCH  18  20
ENDBRANCH  15  16
ENDBRANCH   1  15
TORSDOF 6
ENDMDL
MODEL 8
REMARK VINA RESULT:    -5.826     22.883     26.153
REMARK INTER + INTRA:          -9.051
REMARK INTER:                  -8.256
REMARK INTRA:                  -0.796
REMARK UNBOUND:                -1.181
REMARK  6 active torsions:
REMARK  status: ('A' for Active; 'I' for Inactive)
REMARK    1  A    between atoms: S_2  and  N_5 
REMARK    2  A    between atoms: C_7  and  C_8 
REMARK    3  A    between atoms: C_8  and  C_9 
REMARK    4  A    between atoms: C_9  and  C_15 
REMARK    5  A    between atoms: C_15  and  C_16 
REMARK       I    between atoms: C_16  and  N_18 
REMARK    6  A    between atoms: N_18  and  C_20 
ROOT
HETATM    1  C   UNL     1       8.224  16.795   2.004  1.00  0.00     0.075 C 
HETATM    2  C   UNL     1       8.963  17.428   0.570  1.00  0.00    -0.000 C 
HETATM    3  C   UNL     1       8.818  18.426   0.200  1.00  0.00    -0.025 C 
HETATM    4  C   UNL     1       7.917  19.496   0.658  1.00  0.00     0.054 C 
HETATM    5  C   UNL     1       7.133  19.009   1.781  1.00  0.00    -0.025 C 
HETATM    6  C   UNL     1       7.130  18.077   2.268  1.00  0.00    -0.000 C 
ENDROOT
BRANCH   1   7
HETATM    7  C   UNL     1       7.835  15.610   2.213  1.00  0.00     0.021 C 
BRANCH   7   8
HETATM    8  C   UNL     1       8.024  14.476   2.478  1.00  0.00     0.098 C 
HETATM    9  N   UNL     1       7.987  13.230   2.281  1.00  0.00    -0.296 N 
ATOM     10  HN  UNL     1       8.227  12.900   1.346  1.00  0.00     0.177 HD
BRANCH   9  11
HETATM   11  S   UNL     1       7.597  12.125   3.366  1.00  0.00     0.226 S 
HETATM   12  C   UNL     1       6.388  12.868   4.369  1.00  0.00     0.186 C 
HETATM   13  O   UNL     1       6.997  10.959   2.735  1.00  0.00    -0.206 OA
HETATM   14  O   UNL     1       8.710  11.737   4.220  1.00  0.00    -0.206 OA
ENDBRANCH   9  11
ENDBRANCH   7   8
ENDBRANCH   1   7
BRANCH   1  15
HETATM   15  C   UNL     1       9.069  16.881   2.920  1.00  0.00    -0.061 C 
BRANCH  15  16
HETATM   16  C   UNL     1       9.991  17.036   3.832  1.00  0.00     0.290 C 
HETATM   17  O   UNL     1      10.800  16.269   3.848  1.00  0.00    -0.259 OA
HETATM   18  N   UNL     1       9.790  18.117   4.622  1.00  0.00    -0.315 N 
ATOM     19  HN  UNL     1       8.946  18.682   4.528  1.00  0.00     0.170 HD
BRANCH  18  20
HETATM   20  C   UNL     1      10.663  18.407   5.471  1.00  0.00     0.057 A 
HETATM   21  C   UNL     1      11.047  18.009   6.681  1.00  0.00     0.117 A 
HETATM   22  N   UNL     1      11.781  18.092   7.646  1.00  0.00    -0.373 N 
HETATM   23  C   UNL     1      12.614  19.103   7.181  1.00  0.00     0.088 A 
ATOM     24  HN  UNL     1      11.784  17.578   8.527  1.00  0.00     0.164 HD
HETATM   25  C   UNL     1      12.558  19.666   6.111  1.00  0.00     0.026 A 
HETATM   26  C   UNL     1      11.733  19.519   5.052  1.00  0.00    -0.033 A 
HETATM   27  C   UNL     1      11.715  20.228   3.694  1.00  0.00     0.050 C 
ENDBRANCH  18  20
ENDBRANCH  15  16
ENDBRANCH   1  15
TORSDOF 6
ENDMDL
MODEL 9
REMARK VINA RESULT:    -5.717      4.105      6.442
REMARK INTER + INTRA:          -8.903
REMARK INTER:                  -8.143
REMARK INTRA:                  -0.760
REMARK UNBOUND:                -1.181
REMARK  6 active torsions:
REMARK  status: ('A' for Active; 'I' for Inactive)
REMARK    1  A    between atoms: S_2  and  N_5 
REMARK    2  A    between atoms: C_7  and  C_8 
REMARK    3  A    between atoms: C_8  and  C_9 
REMARK    4  A    between atoms: C_9  and  C_15 
REMARK    5  A    between atoms: C_15  and  C_16 
REMARK       I    between atoms: C_16  and  N_18 
REMARK    6  A    between atoms: N_18  and  C_20 
ROOT
HETATM    1  C   UNL     1       9.968  -0.486  23.905  1.00  0.00     0.075 C 
HETATM    2  C   UNL     1      10.912  -1.376  22.755  1.00  0.00    -0.000 C 
HETATM    3  C   UNL     1      11.976  -1.506  22.812  1.00  0.00    -0.025 C 
HETATM    4  C   UNL     1      12.965  -0.924  23.733  1.00  0.00     0.054 C 
HETATM    5  C   UNL     1      12.286  -0.032  24.658  1.00  0.00    -0.025 C 
HETATM    6  C   UNL     1      11.270   0.224  24.749  1.00  0.00    -0.000 C 
ENDROOT
BRANCH   1   7
HETATM    7  C   UNL     1       8.935   0.209  23.682  1.00  0.00     0.021 C 
BRANCH   7   8
HETATM    8  C   UNL     1       7.815   0.518  23.889  1.00  0.00     0.098 C 
HETATM    9  N   UNL     1       6.664   0.931  23.580  1.00  0.00    -0.296 N 
ATOM     10  HN  UNL     1       6.250   0.559  22.726  1.00  0.00     0.177 HD
BRANCH   9  11
HETATM   11  S   UNL     1       5.797   1.985  24.411  1.00  0.00     0.226 S 
HETATM   12  C   UNL     1       6.380   1.877  26.045  1.00  0.00     0.186 C 
HETATM   13  O   UNL     1       6.032   3.342  23.943  1.00  0.00    -0.206 OA
HETATM   14  O   UNL     1       4.374   1.679  24.423  1.00  0.00    -0.206 OA
ENDBRANCH   9  11
ENDBRANCH   7   8
ENDBRANCH   1   7
BRANCH   1  15
HETATM   15  C   UNL     1       9.472  -1.318  24.693  1.00  0.00    -0.061 C 
BRANCH  15  16
HETATM   16  C   UNL     1       8.882  -2.135  25.524  1.00  0.00     0.290 C 
HETATM   17  O   UNL     1       8.679  -1.737  26.545  1.00  0.00    -0.259 OA
HETATM   18  N   UNL     1       8.629  -3.354  24.990  1.00  0.00    -0.315 N 
ATOM     19  HN  UNL     1       8.953  -3.591  24.053  1.00  0.00     0.170 HD
BRANCH  18  20
HETATM   20  C   UNL     1       7.987  -4.183  25.674  1.00  0.00     0.057 A 
HETATM   21  C   UNL     1       8.217  -5.075  26.633  1.00  0.00     0.117 A 
HETATM   22  N   UNL     1       7.833  -5.929  27.407  1.00  0.00    -0.373 N 
HETATM   23  C   UNL     1       6.478  -5.889  27.099  1.00  0.00     0.088 A 
ATOM     24  HN  UNL     1       8.348  -6.500  28.078  1.00  0.00     0.164 HD
HETATM   25  C   UNL     1       5.931  -5.172  26.293  1.00  0.00     0.026 A 
HETATM   26  C   UNL     1       6.401  -4.212  25.467  1.00  0.00    -0.033 A 
HETATM   27  C   UNL     1       5.669  -3.295  24.480  1.00  0.00     0.050 C 
ENDBRANCH  18  20
ENDBRANCH  15  16
ENDBRANCH   1  15
TORSDOF 6
ENDMDL
