REMARK  6 active torsions:
REMARK  status: ('A' for Active; 'I' for Inactive)
REMARK    1  A    between atoms: S_2  and  N_5 
REMARK    2  A    between atoms: C_7  and  C_8 
REMARK    3  A    between atoms: C_8  and  C_9 
REMARK    4  A    between atoms: C_9  and  C_15 
REMARK    5  A    between atoms: C_15  and  C_16 
REMARK       I    between atoms: C_16  and  N_18 
REMARK    6  A    between atoms: N_18  and  C_20 
ROOT
HETATM    1  C   UNL     1      10.336  -1.167  23.236  1.00  0.00     0.075 C 
HETATM    2  C   UNL     1      11.052  -0.001  24.300  1.00  0.00    -0.000 C 
HETATM    3  C   UNL     1      12.079   0.310  24.260  1.00  0.00    -0.025 C 
HETATM    4  C   UNL     1      13.199  -0.185  23.444  1.00  0.00     0.054 C 
HETATM    5  C   UNL     1      12.732  -1.281  22.611  1.00  0.00    -0.025 C 
HETATM    6  C   UNL     1      11.782  -1.723  22.521  1.00  0.00    -0.000 C 
ENDROOT
BRANCH   1   7
HETATM    7  C   UNL     1       9.430  -2.006  23.508  1.00  0.00     0.021 C 
BRANCH   7   8
HETATM    8  C   UNL     1       8.994  -2.917  24.119  1.00  0.00     0.098 C 
HETATM    9  N   UNL     1       8.089  -3.591  24.683  1.00  0.00    -0.296 N 
ATOM     10  HN  UNL     1       7.204  -3.689  24.186  1.00  0.00     0.177 HD
BRANCH   9  11
HETATM   11  S   UNL     1       8.208  -4.305  26.107  1.00  0.00     0.226 S 
HETATM   12  C   UNL     1       6.609  -4.883  26.469  1.00  0.00     0.186 C 
HETATM   13  O   UNL     1       9.094  -5.457  26.044  1.00  0.00    -0.206 OA
HETATM   14  O   UNL     1       8.608  -3.400  27.175  1.00  0.00    -0.206 OA
ENDBRANCH   9  11
ENDBRANCH   7   8
ENDBRANCH   1   7
BRANCH   1  15
HETATM   15  C   UNL     1       9.743  -0.530  22.341  1.00  0.00    -0.061 C 
BRANCH  15  16
HETATM   16  C   UNL     1       9.054   0.082  21.415  1.00  0.00     0.290 C 
HETATM   17  O   UNL     1       9.490   1.031  21.024  1.00  0.00    -0.259 OA
HETATM   18  N   UNL     1       7.900  -0.551  21.097  1.00  0.00    -0.315 N 
ATOM     19  HN  UNL     1       7.601  -1.380  21.610  1.00  0.00     0.170 HD
BRANCH  18  20
HETATM   20  C   UNL     1       7.208  -0.095  20.158  1.00  0.00     0.057 A 
HETATM   21  C   UNL     1       7.246  -0.035  18.830  1.00  0.00     0.117 A 
HETATM   22  N   UNL     1       6.769   0.303  17.765  1.00  0.00    -0.373 N 
HETATM   23  C   UNL     1       5.604   0.893  18.243  1.00  0.00     0.088 A 
ATOM     24  HN  UNL     1       7.116   0.189  16.813  1.00  0.00     0.164 HD
HETATM   25  C   UNL     1       5.248   0.984  19.396  1.00  0.00     0.026 A 
HETATM   26  C   UNL     1       5.806   0.566  20.553  1.00  0.00    -0.033 A 
HETATM   27  C   UNL     1       5.306   0.668  21.998  1.00  0.00     0.050 C 
ENDBRANCH  18  20
ENDBRANCH  15  16
ENDBRANCH   1  15
TORSDOF 6
