stable:False satoms:11 tatoms:24 sratio:0.4583333333333333
  -OEChem-07092417493D

 24 25  0     1  0  0  0  0  0999 V2000
    6.6086   -4.8830   26.4688 C   0  0  0  0  0  0  0  0  0  0  0  0
    8.2077   -4.3053   26.1066 S   0  0  0  0  0  0  0  0  0  0  0  0
    9.0941   -5.4570   26.0439 O   0  0  0  0  0  0  0  0  0  0  0  0
    8.6080   -3.4004   27.1750 O   0  0  0  0  0  0  0  0  0  0  0  0
    8.0887   -3.5913   24.6829 N   0  0  0  0  0  0  0  0  0  0  0  0
    8.9940   -2.9174   24.1191 C   0  0  0  0  0  0  0  0  0  0  0  0
    9.4297   -2.0057   23.5082 C   0  0  0  0  0  0  0  0  0  0  0  0
   10.3358   -1.1665   23.2356 C   0  0  1  0  0  0  0  0  0  0  0  0
   11.0524   -0.0008   24.3002 C   0  0  0  0  0  0  0  0  0  0  0  0
   12.0791    0.3099   24.2599 C   0  0  0  0  0  0  0  0  0  0  0  0
   13.1990   -0.1850   23.4440 C   0  0  0  0  0  0  0  0  0  0  0  0
   12.7321   -1.2810   22.6115 C   0  0  0  0  0  0  0  0  0  0  0  0
   11.7824   -1.7230   22.5210 C   0  0  0  0  0  0  0  0  0  0  0  0
    9.7432   -0.5302   22.3415 C   0  0  0  0  0  0  0  0  0  0  0  0
    9.0541    0.0821   21.4153 C   0  0  0  0  0  0  0  0  0  0  0  0
    9.4897    1.0307   21.0241 O   0  0  0  0  0  0  0  0  0  0  0  0
    7.8997   -0.5511   21.0966 N   0  0  0  0  0  0  0  0  0  0  0  0
    7.2078   -0.0946   20.1580 C   0  0  0  0  0  0  0  0  0  0  0  0
    7.2458   -0.0348   18.8300 C   0  0  0  0  0  0  0  0  0  0  0  0
    6.7688    0.3028   17.7646 N   0  0  0  0  0  0  0  0  0  0  0  0
    5.6039    0.8930   18.2428 C   0  0  0  0  0  0  0  0  0  0  0  0
    5.2480    0.9840   19.3959 C   0  0  0  0  0  0  0  0  0  0  0  0
    5.8058    0.5661   20.5529 C   0  0  0  0  0  0  0  0  0  0  0  0
    5.3058    0.6682   21.9983 C   0  0  0  0  0  0  0  0  0  0  0  0
 20 21  2  0  0  0  0
 19 20  1  0  0  0  0
 21 22  1  0  0  0  0
 18 19  2  0  0  0  0
 22 23  2  0  0  0  0
 18 23  1  0  0  0  0
 17 18  1  0  0  0  0
 23 24  1  0  0  0  0
 15 16  2  0  0  0  0
 15 17  1  0  0  0  0
 14 15  1  0  0  0  0
  8 14  1  0  0  0  0
 12 13  1  0  0  0  0
  8 13  1  0  0  0  0
 11 12  2  0  0  0  0
  7  8  1  0  0  0  0
  8  9  1  0  0  0  0
 10 11  1  0  0  0  0
  6  7  2  3  0  0  0
  5  6  1  0  0  0  0
  9 10  2  0  0  0  0
  2  5  1  0  0  0  0
  2  3  2  0  0  0  0
  1  2  1  0  0  0  0
  2  4  2  0  0  0  0
M  END
> <Shapegauss>
-285.578430

$$$$
