stable:False satoms:19 tatoms:24 sratio:0.7916666666666666
  -OEChem-08052420523D

 25 25  0     0  0  0  0  0  0999 V2000
  -12.2075   -0.2994  -24.3988 C   0  0  0  0  0  0  0  0  0  0  0  0
  -12.4829    0.8652  -24.5348 C   0  0  0  0  0  0  0  0  0  0  0  0
  -12.7815   -1.0493  -24.8964 H   0  0  0  0  0  0  0  0  0  0  0  0
  -10.5786   -0.7980  -20.8508 H   0  0  0  0  0  0  0  0  0  0  0  0
   -7.3110    0.3622  -20.3915 C   0  0  0  0  0  0  0  0  0  0  0  0
  -11.0478    0.0236  -22.5197 O   0  0  0  0  0  0  0  0  0  0  0  0
   -8.8099   -1.3046  -23.2615 N   0  3  0  0  0  0  0  0  0  0  0  0
  -10.9852   -0.5722  -23.6883 C   0  0  0  0  0  0  0  0  0  0  0  0
   -5.0681    0.5619  -20.3668 C   0  0  0  0  0  0  0  0  0  0  0  0
   -9.8166   -1.2204  -24.0690 C   0  0  0  0  0  0  0  0  0  0  0  0
  -10.0622   -0.4424  -21.6337 N   0  0  0  0  0  0  0  0  0  0  0  0
  -13.3133    1.1540  -25.1621 H   0  0  0  0  0  0  0  0  0  0  0  0
   -9.6900   -1.6785  -25.0216 H   0  0  0  0  0  0  0  0  0  0  0  0
   -7.6115   -0.1901  -21.5759 C   0  0  0  0  0  0  0  0  0  0  0  0
   -6.7807   -0.3161  -22.2396 H   0  0  0  0  0  0  0  0  0  0  0  0
   -5.0592   -0.1569  -19.5578 H   0  0  0  0  0  0  0  0  0  0  0  0
   -8.8579   -0.6283  -22.1227 C   0  0  0  0  0  0  0  0  0  0  0  0
   -6.2702    1.2803  -20.3937 O   0  0  0  0  0  0  0  0  0  0  0  0
   -4.2903    1.2998  -20.1788 H   0  0  0  0  0  0  0  0  0  0  0  0
   -4.8644    0.0296  -21.2871 H   0  0  0  0  0  0  0  0  0  0  0  0
   -7.2299    0.2879  -17.9991 O   0  0  0  0  0  0  0  0  0  0  0  0
   -8.9835   -0.5203  -19.0463 O   0  5  0  0  0  0  0  0  0  0  0  0
   -7.8086    0.0678  -19.0249 C   0  0  0  0  0  0  0  0  0  0  0  0
  -11.8996    1.6207  -24.0295 H   0  0  0  0  0  0  0  0  0  0  0  0
   -8.0148   -1.8662  -23.4907 H   0  0  0  0  0  0  0  0  0  0  0  0
  9 19  1  0  0  0  0
  9 16  1  0  0  0  0
  9 20  1  0  0  0  0
  9 18  1  0  0  0  0
  5 18  1  0  0  0  0
 21 23  2  0  0  0  0
  5 23  1  0  0  0  0
  5 14  2  3  0  0  0
 22 23  1  0  0  0  0
 14 15  1  0  0  0  0
 14 17  1  0  0  0  0
 11 17  1  0  0  0  0
  7 17  2  0  0  0  0
  4 11  1  0  0  0  0
  6 11  1  0  0  0  0
  7 10  1  0  0  0  0
  6  8  1  0  0  0  0
  8 10  2  0  0  0  0
 10 13  1  0  0  0  0
  2 12  1  0  0  0  0
  1  8  1  0  0  0  0
  1  2  2  3  0  0  0
  1  3  1  0  0  0  0
  2 24  1  0  0  0  0
  7 25  1  0  0  0  0
M  CHG  2   7   1  22  -1
M  END
> <Chemgauss4>
-6.406171

$$$$
