stable:False satoms:19 tatoms:24 sratio:0.7916666666666666
  -OEChem-08052420523D

 25 25  0     0  0  0  0  0  0999 V2000
   11.8742   -0.2994   24.0654 C   0  0  0  0  0  0  0  0  0  0  0  0
   12.1496    0.8652   24.2015 C   0  0  0  0  0  0  0  0  0  0  0  0
   12.4482   -1.0493   24.5631 H   0  0  0  0  0  0  0  0  0  0  0  0
   10.2453   -0.7980   20.5175 H   0  0  0  0  0  0  0  0  0  0  0  0
    6.9776    0.3622   20.0582 C   0  0  0  0  0  0  0  0  0  0  0  0
   10.7145    0.0236   22.1863 O   0  0  0  0  0  0  0  0  0  0  0  0
    8.4766   -1.3046   22.9281 N   0  3  0  0  0  0  0  0  0  0  0  0
   10.6518   -0.5722   23.3549 C   0  0  0  0  0  0  0  0  0  0  0  0
    4.7347    0.5619   20.0334 C   0  0  0  0  0  0  0  0  0  0  0  0
    9.4833   -1.2204   23.7357 C   0  0  0  0  0  0  0  0  0  0  0  0
    9.7289   -0.4424   21.3004 N   0  0  0  0  0  0  0  0  0  0  0  0
   12.9800    1.1540   24.8288 H   0  0  0  0  0  0  0  0  0  0  0  0
    9.3567   -1.6785   24.6883 H   0  0  0  0  0  0  0  0  0  0  0  0
    7.2782   -0.1901   21.2425 C   0  0  0  0  0  0  0  0  0  0  0  0
    6.4473   -0.3161   21.9062 H   0  0  0  0  0  0  0  0  0  0  0  0
    4.7259   -0.1569   19.2244 H   0  0  0  0  0  0  0  0  0  0  0  0
    8.5246   -0.6283   21.7893 C   0  0  0  0  0  0  0  0  0  0  0  0
    5.9369    1.2803   20.0604 O   0  0  0  0  0  0  0  0  0  0  0  0
    3.9569    1.2998   19.8455 H   0  0  0  0  0  0  0  0  0  0  0  0
    4.5311    0.0296   20.9537 H   0  0  0  0  0  0  0  0  0  0  0  0
    6.8966    0.2879   17.6657 O   0  0  0  0  0  0  0  0  0  0  0  0
    8.6502   -0.5203   18.7130 O   0  5  0  0  0  0  0  0  0  0  0  0
    7.4753    0.0678   18.6915 C   0  0  0  0  0  0  0  0  0  0  0  0
   11.5662    1.6207   23.6962 H   0  0  0  0  0  0  0  0  0  0  0  0
    7.6815   -1.8662   23.1573 H   0  0  0  0  0  0  0  0  0  0  0  0
  9 19  1  0  0  0  0
  9 16  1  0  0  0  0
  9 20  1  0  0  0  0
  9 18  1  0  0  0  0
  5 18  1  0  0  0  0
 21 23  2  0  0  0  0
  5 23  1  0  0  0  0
  5 14  2  3  0  0  0
 22 23  1  0  0  0  0
 14 15  1  0  0  0  0
 14 17  1  0  0  0  0
 11 17  1  0  0  0  0
  7 17  2  0  0  0  0
  4 11  1  0  0  0  0
  6 11  1  0  0  0  0
  7 10  1  0  0  0  0
  6  8  1  0  0  0  0
  8 10  2  0  0  0  0
 10 13  1  0  0  0  0
  2 12  1  0  0  0  0
  1  8  1  0  0  0  0
  1  2  2  3  0  0  0
  1  3  1  0  0  0  0
  2 24  1  0  0  0  0
  7 25  1  0  0  0  0
M  CHG  2   7   1  22  -1
M  END
> <Chemgauss4>
-6.336401

$$$$
