stable:False satoms:22 tatoms:24 sratio:0.9166666666666666
  -OEChem-08062400443D

 31 30  0     1  0  0  0  0  0999 V2000
    9.0005    5.5003   23.3793 Cl  0  0  0  0  0  0  0  0  0  0  0  0
   11.0853    5.5645   22.1251 H   0  0  0  0  0  0  0  0  0  0  0  0
   11.4463    4.8678   22.6704 O   0  0  0  0  0  0  0  0  0  0  0  0
   10.3862    4.3998   23.2947 C   0  0  3  0  0  0  0  0  0  0  0  0
   10.3371    3.3142   23.9857 N   0  0  0  0  0  0  0  0  0  0  0  0
   12.1140    2.1062   25.1766 H   0  0  0  0  0  0  0  0  0  0  0  0
   10.8892    2.1506   23.6790 N   0  0  0  0  0  0  0  0  0  0  0  0
   12.1200    1.6237   24.2050 C   0  0  0  0  0  0  0  0  0  0  0  0
   11.2157   -0.5911   24.5218 C   0  0  0  0  0  0  0  0  0  0  0  0
   13.1467   -0.1629   23.5390 H   0  0  0  0  0  0  0  0  0  0  0  0
   12.9458    1.9369   23.5655 H   0  0  0  0  0  0  0  0  0  0  0  0
   13.1655    0.0103   25.2716 H   0  0  0  0  0  0  0  0  0  0  0  0
   12.5455    0.1432   24.4003 C   0  0  0  0  0  0  0  0  0  0  0  0
   10.8807   -0.7997   23.5222 H   0  0  0  0  0  0  0  0  0  0  0  0
   11.3333   -1.4822   25.1241 H   0  0  0  0  0  0  0  0  0  0  0  0
    9.5705   -2.0924   26.3770 H   0  0  0  0  0  0  0  0  0  0  0  0
    9.2241   -0.0500   26.0253 N   0  3  0  0  0  0  0  0  0  0  0  0
   10.0024   -0.1178   25.2653 C   0  0  0  0  0  0  0  0  0  0  0  0
    8.7762   -1.3488   26.5460 C   0  0  0  0  0  0  0  0  0  0  0  0
    8.5772   -1.2309   27.6207 H   0  0  0  0  0  0  0  0  0  0  0  0
    6.7338   -2.0702   26.5745 H   0  0  0  0  0  0  0  0  0  0  0  0
    7.6378   -2.5360   25.1427 H   0  0  0  0  0  0  0  0  0  0  0  0
    7.4641   -1.7248   25.8344 C   0  0  0  0  0  0  0  0  0  0  0  0
    7.0719   -0.8705   25.2702 H   0  0  0  0  0  0  0  0  0  0  0  0
    9.9973    3.9109   22.3893 H   0  0  0  0  0  0  0  0  0  0  0  0
    9.3620    3.1178   24.0887 H   0  0  0  0  0  0  0  0  0  0  0  0
   11.0206    2.1782   22.6880 H   0  0  0  0  0  0  0  0  0  0  0  0
    8.4351    0.4165   25.6254 H   0  0  0  0  0  0  0  0  0  0  0  0
    9.3126   -0.2082   24.4132 H   0  0  0  0  0  0  0  0  0  0  0  0
   10.3348    0.9266   25.3589 H   0  0  0  0  0  0  0  0  0  0  0  0
    9.5780    0.4892   26.7895 H   0  0  0  0  0  0  0  0  0  0  0  0
 19 20  1  0  0  0  0
 21 23  1  0  0  0  0
 16 19  1  0  0  0  0
 19 23  1  0  0  0  0
 17 19  1  0  0  0  0
 22 23  1  0  0  0  0
 23 24  1  0  0  0  0
 17 18  1  0  0  0  0
  9 15  1  0  0  0  0
  9 18  1  0  0  0  0
 12 13  1  0  0  0  0
  9 13  1  0  0  0  0
  9 14  1  0  0  0  0
  6  8  1  0  0  0  0
  8 13  1  0  0  0  0
 10 13  1  0  0  0  0
  7  8  1  0  0  0  0
  8 11  1  0  0  0  0
  5  7  1  0  0  0  0
  4  5  1  0  0  0  0
  1  4  1  0  0  0  0
  3  4  1  0  0  0  0
  2  3  1  0  0  0  0
  4 25  1  0  0  0  0
  5 26  1  0  0  0  0
  7 27  1  0  0  0  0
 17 28  1  0  0  0  0
 18 29  1  0  0  0  0
 18 30  1  0  0  0  0
 17 31  1  0  0  0  0
M  CHG  1  17   1
M  END
> <Chemgauss4>
-5.803232

$$$$
