stable:False satoms:22 tatoms:24 sratio:0.9166666666666666
  -OEChem-08062400443D

 31 30  0     1  0  0  0  0  0999 V2000
   -8.8348    5.4419  -23.3938 Cl  0  0  0  0  0  0  0  0  0  0  0  0
  -10.9196    5.5060  -22.1397 H   0  0  0  0  0  0  0  0  0  0  0  0
  -11.2806    4.8093  -22.6849 O   0  0  0  0  0  0  0  0  0  0  0  0
  -10.2205    4.3414  -23.3093 C   0  0  3  0  0  0  0  0  0  0  0  0
  -10.1714    3.2557  -24.0003 N   0  0  0  0  0  0  0  0  0  0  0  0
  -11.9483    2.0477  -25.1912 H   0  0  0  0  0  0  0  0  0  0  0  0
  -10.7235    2.0922  -23.6936 N   0  0  0  0  0  0  0  0  0  0  0  0
  -11.9543    1.5652  -24.2195 C   0  0  0  0  0  0  0  0  0  0  0  0
  -11.0500   -0.6495  -24.5364 C   0  0  0  0  0  0  0  0  0  0  0  0
  -12.9810   -0.2213  -23.5536 H   0  0  0  0  0  0  0  0  0  0  0  0
  -12.7801    1.8784  -23.5801 H   0  0  0  0  0  0  0  0  0  0  0  0
  -12.9998   -0.0481  -25.2862 H   0  0  0  0  0  0  0  0  0  0  0  0
  -12.3798    0.0848  -24.4149 C   0  0  0  0  0  0  0  0  0  0  0  0
  -10.7150   -0.8582  -23.5367 H   0  0  0  0  0  0  0  0  0  0  0  0
  -11.1676   -1.5406  -25.1387 H   0  0  0  0  0  0  0  0  0  0  0  0
   -9.4048   -2.1508  -26.3916 H   0  0  0  0  0  0  0  0  0  0  0  0
   -9.0584   -0.1085  -26.0398 N   0  3  0  0  0  0  0  0  0  0  0  0
   -9.8367   -0.1763  -25.2799 C   0  0  0  0  0  0  0  0  0  0  0  0
   -8.6105   -1.4072  -26.5606 C   0  0  0  0  0  0  0  0  0  0  0  0
   -8.4115   -1.2893  -27.6353 H   0  0  0  0  0  0  0  0  0  0  0  0
   -6.5681   -2.1286  -26.5891 H   0  0  0  0  0  0  0  0  0  0  0  0
   -7.4721   -2.5944  -25.1573 H   0  0  0  0  0  0  0  0  0  0  0  0
   -7.2984   -1.7832  -25.8490 C   0  0  0  0  0  0  0  0  0  0  0  0
   -6.9062   -0.9289  -25.2848 H   0  0  0  0  0  0  0  0  0  0  0  0
   -9.8317    3.8525  -22.4039 H   0  0  0  0  0  0  0  0  0  0  0  0
   -9.1963    3.0594  -24.1033 H   0  0  0  0  0  0  0  0  0  0  0  0
  -10.8549    2.1198  -22.7026 H   0  0  0  0  0  0  0  0  0  0  0  0
   -8.2694    0.3580  -25.6399 H   0  0  0  0  0  0  0  0  0  0  0  0
   -9.1469   -0.2666  -24.4278 H   0  0  0  0  0  0  0  0  0  0  0  0
  -10.1691    0.8681  -25.3735 H   0  0  0  0  0  0  0  0  0  0  0  0
   -9.4123    0.4307  -26.8040 H   0  0  0  0  0  0  0  0  0  0  0  0
 19 20  1  0  0  0  0
 21 23  1  0  0  0  0
 16 19  1  0  0  0  0
 19 23  1  0  0  0  0
 17 19  1  0  0  0  0
 22 23  1  0  0  0  0
 23 24  1  0  0  0  0
 17 18  1  0  0  0  0
  9 15  1  0  0  0  0
  9 18  1  0  0  0  0
 12 13  1  0  0  0  0
  9 13  1  0  0  0  0
  9 14  1  0  0  0  0
  6  8  1  0  0  0  0
  8 13  1  0  0  0  0
 10 13  1  0  0  0  0
  7  8  1  0  0  0  0
  8 11  1  0  0  0  0
  5  7  1  0  0  0  0
  4  5  1  0  0  0  0
  1  4  1  0  0  0  0
  3  4  1  0  0  0  0
  2  3  1  0  0  0  0
  4 25  1  0  0  0  0
  5 26  1  0  0  0  0
  7 27  1  0  0  0  0
 17 28  1  0  0  0  0
 18 29  1  0  0  0  0
 18 30  1  0  0  0  0
 17 31  1  0  0  0  0
M  CHG  1  17   1
M  END
> <Chemgauss4>
-5.730817

$$$$
