
 OpenBabel07202414153D

 45 48  0  0  1  0  0  0  0  0999 V2000
    6.9730    0.5288   -9.7057 C   0  0  0  0  0  0  0  0  0  0  0  0
    5.2316    0.1811   -9.8105 S   0  0  0  0  0  0  0  0  0  0  0  0
    4.5142    1.4371   -9.7547 O   0  0  0  0  0  0  0  0  0  0  0  0
    5.0175   -0.7606  -10.8931 O   0  0  0  0  0  0  0  0  0  0  0  0
    4.9224   -0.6725   -8.2836 C   0  0  0  0  0  0  0  0  0  0  0  0
    4.9551   -2.0600   -8.2279 C   0  0  0  0  0  0  0  0  0  0  0  0
    4.7600   -2.6861   -6.9963 C   0  0  0  0  0  0  0  0  0  0  0  0
    4.5525   -1.9292   -5.8245 C   0  0  0  0  0  0  0  0  0  0  0  0
    4.3807   -2.5415   -4.5838 C   0  0  0  0  0  0  0  0  0  0  0  0
    4.1955   -1.8771   -3.4216 N   0  0  0  0  0  0  0  0  0  0  0  0
    4.1749   -0.5237   -3.4858 C   0  0  0  0  0  0  0  0  0  0  0  0
    4.3335    0.2107   -4.6596 C   0  0  0  0  0  0  0  0  0  0  0  0
    4.4019    1.6266   -4.6806 N   0  0  0  0  0  0  0  0  0  0  0  0
    4.1188    2.5098   -3.6546 C   0  0  0  0  0  0  0  0  0  0  0  0
    3.5634    2.2075   -2.5993 O   0  0  0  0  0  0  0  0  0  0  0  0
    4.5139    3.9765   -3.9383 C   0  0  3  0  0  0  0  0  0  0  0  0
    3.4417    4.7231   -4.7291 C   0  0  0  0  0  0  0  0  0  0  0  0
    3.5737    4.4684   -6.2213 C   0  0  0  0  0  0  0  0  0  0  0  0
    4.8636    4.8005   -6.7386 O   0  0  0  0  0  0  0  0  0  0  0  0
    5.9358    4.4219   -5.9839 C   0  0  0  0  0  0  0  0  0  0  0  0
    7.1657    4.3923   -6.6427 C   0  0  0  0  0  0  0  0  0  0  0  0
    8.3142    3.9728   -5.9688 C   0  0  0  0  0  0  0  0  0  0  0  0
    8.2365    3.6274   -4.6223 C   0  0  0  0  0  0  0  0  0  0  0  0
    9.6372    3.0672   -3.7979 Cl  0  0  0  0  0  0  0  0  0  0  0  0
    7.0195    3.6945   -3.9476 C   0  0  0  0  0  0  0  0  0  0  0  0
    5.8524    4.0693   -4.6339 C   0  0  0  0  0  0  0  0  0  0  0  0
    4.5168   -0.5139   -5.8726 C   0  0  0  0  0  0  0  0  0  0  0  0
    4.6666    0.0901   -7.1394 C   0  0  0  0  0  0  0  0  0  0  0  0
    7.2589    1.1056  -10.5869 H   0  0  0  0  0  0  0  0  0  0  0  0
    7.5212   -0.4145   -9.6801 H   0  0  0  0  0  0  0  0  0  0  0  0
    7.1637    1.1115   -8.8037 H   0  0  0  0  0  0  0  0  0  0  0  0
    5.1306   -2.6566   -9.1208 H   0  0  0  0  0  0  0  0  0  0  0  0
    4.7824   -3.7748   -6.9529 H   0  0  0  0  0  0  0  0  0  0  0  0
    4.3928   -3.6234   -4.4797 H   0  0  0  0  0  0  0  0  0  0  0  0
    4.0677   -0.0499   -2.5159 H   0  0  0  0  0  0  0  0  0  0  0  0
    4.7655    2.0369   -5.5283 H   0  0  0  0  0  0  0  0  0  0  0  0
    4.6077    4.4641   -2.9582 H   0  0  0  0  0  0  0  0  0  0  0  0
    3.5718    5.8001   -4.5562 H   0  0  0  0  0  0  0  0  0  0  0  0
    2.4357    4.4567   -4.3862 H   0  0  0  0  0  0  0  0  0  0  0  0
    2.8458    5.0866   -6.7585 H   0  0  0  0  0  0  0  0  0  0  0  0
    3.3458    3.4292   -6.4805 H   0  0  0  0  0  0  0  0  0  0  0  0
    7.2247    4.6733   -7.6918 H   0  0  0  0  0  0  0  0  0  0  0  0
    9.2611    3.9141   -6.4984 H   0  0  0  0  0  0  0  0  0  0  0  0
    6.9704    3.4210   -2.8947 H   0  0  0  0  0  0  0  0  0  0  0  0
    4.5825    1.1653   -7.2616 H   0  0  0  0  0  0  0  0  0  0  0  0
  1  2  1  0  0  0  0
  1 29  1  0  0  0  0
  1 30  1  0  0  0  0
  1 31  1  0  0  0  0
  2  3  2  0  0  0  0
  2  4  2  0  0  0  0
  2  5  1  0  0  0  0
  5  6  1  0  0  0  0
  5 28  2  0  0  0  0
  6  7  2  0  0  0  0
  6 32  1  0  0  0  0
  7  8  1  0  0  0  0
  7 33  1  0  0  0  0
  8  9  1  0  0  0  0
  8 27  2  0  0  0  0
  9 10  2  0  0  0  0
  9 34  1  0  0  0  0
 10 11  1  0  0  0  0
 11 12  2  0  0  0  0
 11 35  1  0  0  0  0
 12 13  1  0  0  0  0
 12 27  1  0  0  0  0
 13 14  1  0  0  0  0
 13 36  1  0  0  0  0
 14 15  2  0  0  0  0
 14 16  1  0  0  0  0
 16 17  1  0  0  0  0
 16 26  1  0  0  0  0
 16 37  1  0  0  0  0
 17 18  1  0  0  0  0
 17 38  1  0  0  0  0
 17 39  1  0  0  0  0
 18 19  1  0  0  0  0
 18 40  1  0  0  0  0
 18 41  1  0  0  0  0
 19 20  1  0  0  0  0
 20 21  1  0  0  0  0
 20 26  2  0  0  0  0
 21 22  2  0  0  0  0
 21 42  1  0  0  0  0
 22 23  1  0  0  0  0
 22 43  1  0  0  0  0
 23 24  1  0  0  0  0
 23 25  2  0  0  0  0
 25 26  1  0  0  0  0
 25 44  1  0  0  0  0
 27 28  1  0  0  0  0
 28 45  1  0  0  0  0
M  END
$$$$
