MODEL 1
REMARK VINA RESULT:    -5.124      0.000      0.000
REMARK INTER + INTRA:          -7.304
REMARK INTER:                  -6.922
REMARK INTRA:                  -0.383
REMARK UNBOUND:                -0.383
REMARK  6 active torsions:
REMARK  status: ('A' for Active; 'I' for Inactive)
REMARK    1  A    between atoms: N_2  and  C_4 
REMARK    2  A    between atoms: C_4  and  C_5 
REMARK    3  A    between atoms: C_6  and  C_10 
REMARK    4  A    between atoms: C_6  and  O_7 
REMARK    5  A    between atoms: C_11  and  N_12 
REMARK    6  A    between atoms: N_14  and  C_16 
ROOT
HETATM    1  C   UNL     1       6.376  10.525   3.546  1.00  0.00     0.099 C 
HETATM    2  C   UNL     1       5.771  10.198   2.333  1.00  0.00     0.110 C 
HETATM    3  C   UNL     1       6.483  10.742   1.308  1.00  0.00     0.089 C 
HETATM    4  N   UNL     1       7.199  11.208   0.477  1.00  0.00    -0.192 NA
ENDROOT
BRANCH   1   5
HETATM    5  N   UNL     1       7.455  11.146   3.417  1.00  0.00    -0.361 N 
HETATM    6  C   UNL     1       8.214  12.103   3.918  1.00  0.00     0.179 C 
ATOM      7  HN  UNL     1       7.938  10.762   2.605  1.00  0.00     0.166 HD
BRANCH   6   8
HETATM    8  N   UNL     1       9.006  12.645   3.091  1.00  0.00    -0.360 N 
HETATM    9  C   UNL     1       9.403  13.790   3.516  1.00  0.00     0.133 C 
ATOM     10  HN  UNL     1       9.290  12.227   2.205  1.00  0.00     0.165 HD
BRANCH   9  11
HETATM   11  C   UNL     1      10.168  14.791   3.124  1.00  0.00     0.238 A 
HETATM   12  C   UNL     1      10.349  15.702   4.187  1.00  0.00     0.281 A 
HETATM   13  O   UNL     1      11.334  14.820   3.556  1.00  0.00    -0.323 OA
BRANCH  12  14
HETATM   14  C   UNL     1      10.180  16.628   4.982  1.00  0.00    -0.037 C 
BRANCH  14  15
HETATM   15  N   UNL     1      10.158  17.514   5.808  1.00  0.00    -0.363 N 
HETATM   16  C   UNL     1      11.138  18.361   6.430  1.00  0.00     0.155 C 
ATOM     17  HN  UNL     1       9.213  17.705   6.143  1.00  0.00     0.168 HD
ENDBRANCH  14  15
ENDBRANCH  12  14
BRANCH  11  18
HETATM   18  O   UNL     1       9.874  15.138   1.728  1.00  0.00    -0.353 OA
HETATM   19  C   UNL     1       8.846  15.964   1.756  1.00  0.00     0.206 C 
ENDBRANCH  11  18
ENDBRANCH   9  11
ENDBRANCH   6   8
ENDBRANCH   1   5
TORSDOF 6
ENDMDL
MODEL 2
REMARK VINA RESULT:    -4.943      3.494      7.352
REMARK INTER + INTRA:          -7.060
REMARK INTER:                  -6.516
REMARK INTRA:                  -0.544
REMARK UNBOUND:                -0.383
REMARK  6 active torsions:
REMARK  status: ('A' for Active; 'I' for Inactive)
REMARK    1  A    between atoms: N_2  and  C_4 
REMARK    2  A    between atoms: C_4  and  C_5 
REMARK    3  A    between atoms: C_6  and  C_10 
REMARK    4  A    between atoms: C_6  and  O_7 
REMARK    5  A    between atoms: C_11  and  N_12 
REMARK    6  A    between atoms: N_14  and  C_16 
ROOT
HETATM    1  C   UNL     1       9.402  20.953   0.570  1.00  0.00     0.099 C 
HETATM    2  C   UNL     1      10.236  21.411   1.589  1.00  0.00     0.110 C 
HETATM    3  C   UNL     1      10.939  20.368   2.107  1.00  0.00     0.089 C 
HETATM    4  N   UNL     1      11.548  19.405   2.456  1.00  0.00    -0.192 NA
ENDROOT
BRANCH   1   5
HETATM    5  N   UNL     1       9.552  19.739   0.308  1.00  0.00    -0.361 N 
HETATM    6  C   UNL     1       8.929  18.622  -0.021  1.00  0.00     0.179 C 
ATOM      7  HN  UNL     1      10.548  19.529   0.374  1.00  0.00     0.166 HD
BRANCH   6   8
HETATM    8  N   UNL     1       9.533  17.557   0.307  1.00  0.00    -0.360 N 
HETATM    9  C   UNL     1       9.006  17.032   1.354  1.00  0.00     0.133 C 
ATOM     10  HN  UNL     1      10.332  17.169  -0.195  1.00  0.00     0.165 HD
BRANCH   9  11
HETATM   11  C   UNL     1       9.187  15.996   2.152  1.00  0.00     0.238 A 
HETATM   12  C   UNL     1       8.653  14.833   1.556  1.00  0.00     0.281 A 
HETATM   13  O   UNL     1      10.055  15.168   1.821  1.00  0.00    -0.323 OA
BRANCH  12  14
HETATM   14  C   UNL     1       7.873  13.951   1.195  1.00  0.00    -0.037 C 
BRANCH  14  15
HETATM   15  N   UNL     1       7.118  13.028   0.981  1.00  0.00    -0.363 N 
HETATM   16  C   UNL     1       6.092  12.349   1.724  1.00  0.00     0.155 C 
ATOM     17  HN  UNL     1       7.240  12.638   0.047  1.00  0.00     0.168 HD
ENDBRANCH  14  15
ENDBRANCH  12  14
BRANCH  11  18
HETATM   18  O   UNL     1       9.028  16.401   3.553  1.00  0.00    -0.353 OA
HETATM   19  C   UNL     1       9.567  15.443   4.284  1.00  0.00     0.206 C 
ENDBRANCH  11  18
ENDBRANCH   9  11
ENDBRANCH   6   8
ENDBRANCH   1   5
TORSDOF 6
ENDMDL
MODEL 3
REMARK VINA RESULT:    -4.911      2.906      6.562
REMARK INTER + INTRA:          -7.016
REMARK INTER:                  -6.725
REMARK INTRA:                  -0.291
REMARK UNBOUND:                -0.383
REMARK  6 active torsions:
REMARK  status: ('A' for Active; 'I' for Inactive)
REMARK    1  A    between atoms: N_2  and  C_4 
REMARK    2  A    between atoms: C_4  and  C_5 
REMARK    3  A    between atoms: C_6  and  C_10 
REMARK    4  A    between atoms: C_6  and  O_7 
REMARK    5  A    between atoms: C_11  and  N_12 
REMARK    6  A    between atoms: N_14  and  C_16 
ROOT
HETATM    1  C   UNL     1      11.607  18.456   7.288  1.00  0.00     0.099 C 
HETATM    2  C   UNL     1      12.295  19.404   6.532  1.00  0.00     0.110 C 
HETATM    3  C   UNL     1      12.473  18.937   5.266  1.00  0.00     0.089 C 
HETATM    4  N   UNL     1      12.531  18.468   4.172  1.00  0.00    -0.192 NA
ENDROOT
BRANCH   1   5
HETATM    5  N   UNL     1      11.238  17.459   6.626  1.00  0.00    -0.361 N 
HETATM    6  C   UNL     1      10.401  16.438   6.591  1.00  0.00     0.179 C 
ATOM      7  HN  UNL     1      11.808  17.420   5.781  1.00  0.00     0.166 HD
BRANCH   6   8
HETATM    8  N   UNL     1      10.791  15.452   5.897  1.00  0.00    -0.360 N 
HETATM    9  C   UNL     1      10.127  15.370   4.801  1.00  0.00     0.133 C 
ATOM     10  HN  UNL     1      11.533  14.809   6.173  1.00  0.00     0.165 HD
BRANCH   9  11
HETATM   11  C   UNL     1      10.049  14.594   3.735  1.00  0.00     0.238 A 
HETATM   12  C   UNL     1       9.625  15.351   2.621  1.00  0.00     0.281 A 
HETATM   13  O   UNL     1      10.930  14.730   2.867  1.00  0.00    -0.323 OA
BRANCH  12  14
HETATM   14  C   UNL     1       8.918  15.930   1.795  1.00  0.00    -0.037 C 
BRANCH  14  15
HETATM   15  N   UNL     1       8.116  16.502   1.091  1.00  0.00    -0.363 N 
HETATM   16  C   UNL     1       7.748  17.872   0.858  1.00  0.00     0.155 C 
ATOM     17  HN  UNL     1       7.568  15.853   0.525  1.00  0.00     0.168 HD
ENDBRANCH  14  15
ENDBRANCH  12  14
BRANCH  11  18
HETATM   18  O   UNL     1       9.563  13.262   4.112  1.00  0.00    -0.353 OA
HETATM   19  C   UNL     1       8.407  13.097   3.498  1.00  0.00     0.206 C 
ENDBRANCH  11  18
ENDBRANCH   9  11
ENDBRANCH   6   8
ENDBRANCH   1   5
TORSDOF 6
ENDMDL
MODEL 4
REMARK VINA RESULT:    -4.886     22.631     24.435
REMARK INTER + INTRA:          -6.983
REMARK INTER:                  -6.480
REMARK INTRA:                  -0.502
REMARK UNBOUND:                -0.383
REMARK  6 active torsions:
REMARK  status: ('A' for Active; 'I' for Inactive)
REMARK    1  A    between atoms: N_2  and  C_4 
REMARK    2  A    between atoms: C_4  and  C_5 
REMARK    3  A    between atoms: C_6  and  C_10 
REMARK    4  A    between atoms: C_6  and  O_7 
REMARK    5  A    between atoms: C_11  and  N_12 
REMARK    6  A    between atoms: N_14  and  C_16 
ROOT
HETATM    1  C   UNL     1       7.443  -5.467  22.476  1.00  0.00     0.099 C 
HETATM    2  C   UNL     1       6.283  -5.577  21.710  1.00  0.00     0.110 C 
HETATM    3  C   UNL     1       5.812  -4.336  21.412  1.00  0.00     0.089 C 
HETATM    4  N   UNL     1       5.510  -3.212  21.155  1.00  0.00    -0.192 NA
ENDROOT
BRANCH   1   5
HETATM    5  N   UNL     1       7.829  -4.286  22.632  1.00  0.00    -0.361 N 
HETATM    6  C   UNL     1       8.351  -3.427  23.488  1.00  0.00     0.179 C 
ATOM      7  HN  UNL     1       7.682  -3.793  21.751  1.00  0.00     0.166 HD
BRANCH   6   8
HETATM    8  N   UNL     1       8.089  -2.211  23.251  1.00  0.00    -0.360 N 
HETATM    9  C   UNL     1       9.027  -1.662  22.566  1.00  0.00     0.133 C 
ATOM     10  HN  UNL     1       7.245  -1.730  23.564  1.00  0.00     0.165 HD
BRANCH   9  11
HETATM   11  C   UNL     1       9.335  -0.484  22.058  1.00  0.00     0.238 A 
HETATM   12  C   UNL     1       8.410  -0.141  21.047  1.00  0.00     0.281 A 
HETATM   13  O   UNL     1       8.605   0.476  22.362  1.00  0.00    -0.323 OA
BRANCH  12  14
HETATM   14  C   UNL     1       7.839  -0.049  19.960  1.00  0.00    -0.037 C 
BRANCH  14  15
HETATM   15  N   UNL     1       7.390  -0.046  18.835  1.00  0.00    -0.363 N 
HETATM   16  C   UNL     1       6.078   0.053  18.255  1.00  0.00     0.155 C 
ATOM     17  HN  UNL     1       8.119  -0.135  18.128  1.00  0.00     0.168 HD
ENDBRANCH  14  15
ENDBRANCH  12  14
BRANCH  11  18
HETATM   18  O   UNL     1      10.792  -0.328  21.985  1.00  0.00    -0.353 OA
HETATM   19  C   UNL     1      11.313  -1.427  22.496  1.00  0.00     0.206 C 
ENDBRANCH  11  18
ENDBRANCH   9  11
ENDBRANCH   6   8
ENDBRANCH   1   5
TORSDOF 6
ENDMDL
MODEL 5
REMARK VINA RESULT:    -4.620      2.042      6.875
REMARK INTER + INTRA:          -6.623
REMARK INTER:                  -5.970
REMARK INTRA:                  -0.652
REMARK UNBOUND:                -0.383
REMARK  6 active torsions:
REMARK  status: ('A' for Active; 'I' for Inactive)
REMARK    1  A    between atoms: N_2  and  C_4 
REMARK    2  A    between atoms: C_4  and  C_5 
REMARK    3  A    between atoms: C_6  and  C_10 
REMARK    4  A    between atoms: C_6  and  O_7 
REMARK    5  A    between atoms: C_11  and  N_12 
REMARK    6  A    between atoms: N_14  and  C_16 
ROOT
HETATM    1  C   UNL     1       9.932  20.056   4.261  1.00  0.00     0.099 C 
HETATM    2  C   UNL     1      11.158  20.340   4.861  1.00  0.00     0.110 C 
HETATM    3  C   UNL     1      12.040  19.338   4.595  1.00  0.00     0.089 C 
HETATM    4  N   UNL     1      12.755  18.444   4.263  1.00  0.00    -0.192 NA
ENDROOT
BRANCH   1   5
HETATM    5  N   UNL     1       9.947  19.021   3.556  1.00  0.00    -0.361 N 
HETATM    6  C   UNL     1       9.198  18.110   2.963  1.00  0.00     0.179 C 
ATOM      7  HN  UNL     1      10.923  18.791   3.366  1.00  0.00     0.166 HD
BRANCH   6   8
HETATM    8  N   UNL     1       9.765  16.993   2.774  1.00  0.00    -0.360 N 
HETATM    9  C   UNL     1       9.919  16.361   3.882  1.00  0.00     0.133 C 
ATOM     10  HN  UNL     1      10.061  16.642   1.863  1.00  0.00     0.165 HD
BRANCH   9  11
HETATM   11  C   UNL     1      10.434  15.229   4.323  1.00  0.00     0.238 A 
HETATM   12  C   UNL     1       9.820  14.137   3.672  1.00  0.00     0.281 A 
HETATM   13  O   UNL     1      11.200  14.615   3.559  1.00  0.00    -0.323 OA
BRANCH  12  14
HETATM   14  C   UNL     1       9.032  13.236   3.379  1.00  0.00    -0.037 C 
BRANCH  14  15
HETATM   15  N   UNL     1       8.331  12.266   3.194  1.00  0.00    -0.363 N 
HETATM   16  C   UNL     1       7.075  12.018   2.540  1.00  0.00     0.155 C 
ATOM     17  HN  UNL     1       8.728  11.419   3.601  1.00  0.00     0.168 HD
ENDBRANCH  14  15
ENDBRANCH  12  14
BRANCH  11  18
HETATM   18  O   UNL     1      10.723  15.328   5.758  1.00  0.00    -0.353 OA
HETATM   19  C   UNL     1       9.882  16.217   6.250  1.00  0.00     0.206 C 
ENDBRANCH  11  18
ENDBRANCH   9  11
ENDBRANCH   6   8
ENDBRANCH   1   5
TORSDOF 6
ENDMDL
MODEL 6
REMARK VINA RESULT:    -4.586      1.811      2.107
REMARK INTER + INTRA:          -6.577
REMARK INTER:                  -6.010
REMARK INTRA:                  -0.568
REMARK UNBOUND:                -0.383
REMARK  6 active torsions:
REMARK  status: ('A' for Active; 'I' for Inactive)
REMARK    1  A    between atoms: N_2  and  C_4 
REMARK    2  A    between atoms: C_4  and  C_5 
REMARK    3  A    between atoms: C_6  and  C_10 
REMARK    4  A    between atoms: C_6  and  O_7 
REMARK    5  A    between atoms: C_11  and  N_12 
REMARK    6  A    between atoms: N_14  and  C_16 
ROOT
HETATM    1  C   UNL     1       5.578  12.313   2.743  1.00  0.00     0.099 C 
HETATM    2  C   UNL     1       6.198  11.066   2.791  1.00  0.00     0.110 C 
HETATM    3  C   UNL     1       7.343  11.153   3.521  1.00  0.00     0.089 C 
HETATM    4  N   UNL     1       8.295  11.314   4.220  1.00  0.00    -0.192 NA
ENDROOT
BRANCH   1   5
HETATM    5  N   UNL     1       6.148  13.183   3.439  1.00  0.00    -0.361 N 
HETATM    6  C   UNL     1       6.307  14.481   3.625  1.00  0.00     0.179 C 
ATOM      7  HN  UNL     1       6.712  12.699   4.138  1.00  0.00     0.166 HD
BRANCH   6   8
HETATM    8  N   UNL     1       7.393  14.810   4.188  1.00  0.00    -0.360 N 
HETATM    9  C   UNL     1       8.383  14.706   3.375  1.00  0.00     0.133 C 
ATOM     10  HN  UNL     1       7.472  15.117   5.157  1.00  0.00     0.165 HD
BRANCH   9  11
HETATM   11  C   UNL     1       9.692  14.870   3.369  1.00  0.00     0.238 A 
HETATM   12  C   UNL     1      10.157  15.071   4.687  1.00  0.00     0.281 A 
HETATM   13  O   UNL     1      10.385  13.930   3.796  1.00  0.00    -0.323 OA
BRANCH  12  14
HETATM   14  C   UNL     1      10.466  15.601   5.755  1.00  0.00    -0.037 C 
BRANCH  14  15
HETATM   15  N   UNL     1      10.759  15.984   6.866  1.00  0.00    -0.363 N 
HETATM   16  C   UNL     1      10.076  16.095   8.126  1.00  0.00     0.155 C 
ATOM     17  HN  UNL     1      11.725  16.306   6.921  1.00  0.00     0.168 HD
ENDBRANCH  14  15
ENDBRANCH  12  14
BRANCH  11  18
HETATM   18  O   UNL     1      10.103  15.628   2.182  1.00  0.00    -0.353 OA
HETATM   19  C   UNL     1       9.250  15.319   1.224  1.00  0.00     0.206 C 
ENDBRANCH  11  18
ENDBRANCH   9  11
ENDBRANCH   6   8
ENDBRANCH   1   5
TORSDOF 6
ENDMDL
MODEL 7
REMARK VINA RESULT:    -4.558     31.225     32.363
REMARK INTER + INTRA:          -6.540
REMARK INTER:                  -5.853
REMARK INTRA:                  -0.687
REMARK UNBOUND:                -0.383
REMARK  6 active torsions:
REMARK  status: ('A' for Active; 'I' for Inactive)
REMARK    1  A    between atoms: N_2  and  C_4 
REMARK    2  A    between atoms: C_4  and  C_5 
REMARK    3  A    between atoms: C_6  and  C_10 
REMARK    4  A    between atoms: C_6  and  O_7 
REMARK    5  A    between atoms: C_11  and  N_12 
REMARK    6  A    between atoms: N_14  and  C_16 
ROOT
HETATM    1  C   UNL     1      23.039   0.293  25.655  1.00  0.00     0.099 C 
HETATM    2  C   UNL     1      21.903   0.385  24.851  1.00  0.00     0.110 C 
HETATM    3  C   UNL     1      21.146  -0.735  25.001  1.00  0.00     0.089 C 
HETATM    4  N   UNL     1      20.524  -1.723  25.239  1.00  0.00    -0.192 NA
ENDROOT
BRANCH   1   5
HETATM    5  N   UNL     1      23.057  -0.727  26.381  1.00  0.00    -0.361 N 
HETATM    6  C   UNL     1      23.789  -1.446  27.211  1.00  0.00     0.179 C 
ATOM      7  HN  UNL     1      22.147  -1.182  26.299  1.00  0.00     0.166 HD
BRANCH   6   8
HETATM    8  N   UNL     1      23.461  -2.667  27.292  1.00  0.00    -0.360 N 
HETATM    9  C   UNL     1      23.668  -3.274  26.178  1.00  0.00     0.133 C 
ATOM     10  HN  UNL     1      23.083  -3.110  28.129  1.00  0.00     0.165 HD
BRANCH   9  11
HETATM   11  C   UNL     1      23.515  -4.474  25.651  1.00  0.00     0.238 A 
HETATM   12  C   UNL     1      24.249  -5.423  26.396  1.00  0.00     0.281 A 
HETATM   13  O   UNL     1      22.796  -5.280  26.268  1.00  0.00    -0.323 OA
BRANCH  12  14
HETATM   14  C   UNL     1      25.164  -6.131  26.819  1.00  0.00    -0.037 C 
BRANCH  14  15
HETATM   15  N   UNL     1      26.102  -6.846  27.090  1.00  0.00    -0.363 N 
HETATM   16  C   UNL     1      27.201  -7.418  26.361  1.00  0.00     0.155 C 
ATOM     17  HN  UNL     1      26.116  -7.108  28.076  1.00  0.00     0.168 HD
ENDBRANCH  14  15
ENDBRANCH  12  14
BRANCH  11  18
HETATM   18  O   UNL     1      23.457  -4.381  24.187  1.00  0.00    -0.353 OA
HETATM   19  C   UNL     1      24.042  -3.245  23.860  1.00  0.00     0.206 C 
ENDBRANCH  11  18
ENDBRANCH   9  11
ENDBRANCH   6   8
ENDBRANCH   1   5
TORSDOF 6
ENDMDL
MODEL 8
REMARK VINA RESULT:    -4.508     24.209     25.709
REMARK INTER + INTRA:          -6.472
REMARK INTER:                  -5.977
REMARK INTRA:                  -0.495
REMARK UNBOUND:                -0.383
REMARK  6 active torsions:
REMARK  status: ('A' for Active; 'I' for Inactive)
REMARK    1  A    between atoms: N_2  and  C_4 
REMARK    2  A    between atoms: C_4  and  C_5 
REMARK    3  A    between atoms: C_6  and  C_10 
REMARK    4  A    between atoms: C_6  and  O_7 
REMARK    5  A    between atoms: C_11  and  N_12 
REMARK    6  A    between atoms: N_14  and  C_16 
ROOT
HETATM    1  C   UNL     1       7.295  -5.893  22.332  1.00  0.00     0.099 C 
HETATM    2  C   UNL     1       6.232  -5.562  21.491  1.00  0.00     0.110 C 
HETATM    3  C   UNL     1       5.961  -4.233  21.600  1.00  0.00     0.089 C 
HETATM    4  N   UNL     1       5.835  -3.055  21.720  1.00  0.00    -0.192 NA
ENDROOT
BRANCH   1   5
HETATM    5  N   UNL     1       7.804  -4.905  22.908  1.00  0.00    -0.361 N 
HETATM    6  C   UNL     1       8.174  -4.411  24.075  1.00  0.00     0.179 C 
ATOM      7  HN  UNL     1       8.016  -4.207  22.195  1.00  0.00     0.166 HD
BRANCH   6   8
HETATM    8  N   UNL     1       8.201  -3.146  24.135  1.00  0.00    -0.360 N 
HETATM    9  C   UNL     1       9.254  -2.680  23.565  1.00  0.00     0.133 C 
ATOM     10  HN  UNL     1       7.481  -2.574  24.578  1.00  0.00     0.165 HD
BRANCH   9  11
HETATM   11  C   UNL     1       9.832  -1.516  23.334  1.00  0.00     0.238 A 
HETATM   12  C   UNL     1       9.565  -0.628  24.398  1.00  0.00     0.281 A 
HETATM   13  O   UNL     1      10.839  -1.237  24.008  1.00  0.00    -0.323 OA
BRANCH  12  14
HETATM   14  C   UNL     1       9.020   0.206  25.124  1.00  0.00    -0.037 C 
BRANCH  14  15
HETATM   15  N   UNL     1       8.355   0.983  25.771  1.00  0.00    -0.363 N 
HETATM   16  C   UNL     1       7.882   2.328  25.590  1.00  0.00     0.155 C 
ATOM     17  HN  UNL     1       8.057   0.586  26.663  1.00  0.00     0.168 HD
ENDBRANCH  14  15
ENDBRANCH  12  14
BRANCH  11  18
HETATM   18  O   UNL     1       9.772  -1.196  21.903  1.00  0.00    -0.353 OA
HETATM   19  C   UNL     1       8.582  -0.668  21.686  1.00  0.00     0.206 C 
ENDBRANCH  11  18
ENDBRANCH   9  11
ENDBRANCH   6   8
ENDBRANCH   1   5
TORSDOF 6
ENDMDL
MODEL 9
REMARK VINA RESULT:    -4.490     21.273     22.391
REMARK INTER + INTRA:          -6.448
REMARK INTER:                  -6.042
REMARK INTRA:                  -0.407
REMARK UNBOUND:                -0.383
REMARK  6 active torsions:
REMARK  status: ('A' for Active; 'I' for Inactive)
REMARK    1  A    between atoms: N_2  and  C_4 
REMARK    2  A    between atoms: C_4  and  C_5 
REMARK    3  A    between atoms: C_6  and  C_10 
REMARK    4  A    between atoms: C_6  and  O_7 
REMARK    5  A    between atoms: C_11  and  N_12 
REMARK    6  A    between atoms: N_14  and  C_16 
ROOT
HETATM    1  C   UNL     1       5.169   1.787  20.107  1.00  0.00     0.099 C 
HETATM    2  C   UNL     1       5.376   1.071  18.928  1.00  0.00     0.110 C 
HETATM    3  C   UNL     1       6.655   0.609  18.893  1.00  0.00     0.089 C 
HETATM    4  N   UNL     1       7.771   0.201  18.977  1.00  0.00    -0.192 NA
ENDROOT
BRANCH   1   5
HETATM    5  N   UNL     1       6.149   1.764  20.885  1.00  0.00    -0.361 N 
HETATM    6  C   UNL     1       6.558   2.033  22.111  1.00  0.00     0.179 C 
ATOM      7  HN  UNL     1       6.946   1.390  20.368  1.00  0.00     0.166 HD
BRANCH   6   8
HETATM    8  N   UNL     1       7.799   2.260  22.222  1.00  0.00    -0.360 N 
HETATM    9  C   UNL     1       8.350   1.425  23.029  1.00  0.00     0.133 C 
ATOM     10  HN  UNL     1       8.295   3.007  21.736  1.00  0.00     0.165 HD
BRANCH   9  11
HETATM   11  C   UNL     1       9.537   1.172  23.547  1.00  0.00     0.238 A 
HETATM   12  C   UNL     1      10.274   2.370  23.667  1.00  0.00     0.281 A 
HETATM   13  O   UNL     1       9.729   1.517  24.727  1.00  0.00    -0.323 OA
BRANCH  12  14
HETATM   14  C   UNL     1      11.000   3.333  23.415  1.00  0.00    -0.037 C 
BRANCH  14  15
HETATM   15  N   UNL     1      11.589   4.346  23.109  1.00  0.00    -0.363 N 
HETATM   16  C   UNL     1      12.313   5.365  23.818  1.00  0.00     0.155 C 
ATOM     17  HN  UNL     1      11.566   4.517  22.104  1.00  0.00     0.168 HD
ENDBRANCH  14  15
ENDBRANCH  12  14
BRANCH  11  18
HETATM   18  O   UNL     1      10.046  -0.110  23.046  1.00  0.00    -0.353 OA
HETATM   19  C   UNL     1      10.310   0.065  21.766  1.00  0.00     0.206 C 
ENDBRANCH  11  18
ENDBRANCH   9  11
ENDBRANCH   6   8
ENDBRANCH   1   5
TORSDOF 6
ENDMDL
