stable:False satoms:10 tatoms:24 sratio:0.4166666666666667
  -OEChem-07092417513D

 24 25  0     1  0  0  0  0  0999 V2000
    6.6400   -4.8363   26.4653 C   0  0  0  0  0  0  0  0  0  0  0  0
    8.1864   -4.3169   26.1265 S   0  0  0  0  0  0  0  0  0  0  0  0
    9.0432   -5.4920   26.0619 O   0  0  0  0  0  0  0  0  0  0  0  0
    8.6218   -3.4381   27.1651 O   0  0  0  0  0  0  0  0  0  0  0  0
    8.1156   -3.6185   24.6555 N   0  0  0  0  0  0  0  0  0  0  0  0
    8.9751   -2.9384   24.1278 C   0  0  0  0  0  0  0  0  0  0  0  0
    9.4195   -1.9862   23.5066 C   0  0  0  0  0  0  0  0  0  0  0  0
   10.3260   -1.1550   23.2239 C   0  0  1  0  0  0  0  0  0  0  0  0
   11.0443    0.0117   24.3661 C   0  0  0  0  0  0  0  0  0  0  0  0
   12.1096    0.2701   24.2474 C   0  0  0  0  0  0  0  0  0  0  0  0
   13.1327   -0.1124   23.5695 C   0  0  0  0  0  0  0  0  0  0  0  0
   12.7329   -1.2973   22.6329 C   0  0  0  0  0  0  0  0  0  0  0  0
   11.7865   -1.6772   22.5198 C   0  0  0  0  0  0  0  0  0  0  0  0
    9.7245   -0.5496   22.3267 C   0  0  0  0  0  0  0  0  0  0  0  0
    9.0620    0.0463   21.3754 C   0  0  0  0  0  0  0  0  0  0  0  0
    9.5476    0.9920   20.9752 O   0  0  0  0  0  0  0  0  0  0  0  0
    7.9199   -0.5493   21.0687 N   0  0  0  0  0  0  0  0  0  0  0  0
    7.2061   -0.1160   20.1766 C   0  0  0  0  0  0  0  0  0  0  0  0
    7.2274   -0.0104   18.8747 C   0  0  0  0  0  0  0  0  0  0  0  0
    6.8112    0.3257   17.7963 N   0  0  0  0  0  0  0  0  0  0  0  0
    5.6502    0.8822   18.2224 C   0  0  0  0  0  0  0  0  0  0  0  0
    5.2071    0.9879   19.4009 C   0  0  0  0  0  0  0  0  0  0  0  0
    5.7750    0.5939   20.5951 C   0  0  0  0  0  0  0  0  0  0  0  0
    5.3195    0.6937   21.8164 C   0  0  0  0  0  0  0  0  0  0  0  0
 20 21  2  0  0  0  0
 19 20  1  0  0  0  0
 21 22  1  0  0  0  0
 18 19  2  0  0  0  0
 22 23  2  0  0  0  0
 18 23  1  0  0  0  0
 17 18  1  0  0  0  0
 23 24  1  0  0  0  0
 15 16  2  0  0  0  0
 15 17  1  0  0  0  0
 14 15  1  0  0  0  0
  8 14  1  0  0  0  0
 12 13  1  0  0  0  0
  8 13  1  0  0  0  0
 11 12  2  0  0  0  0
  7  8  1  0  0  0  0
  8  9  1  0  0  0  0
  6  7  2  3  0  0  0
 10 11  1  0  0  0  0
  5  6  1  0  0  0  0
  9 10  2  0  0  0  0
  2  5  1  0  0  0  0
  2  3  2  0  0  0  0
  1  2  1  0  0  0  0
  2  4  2  0  0  0  0
M  END
> <Shapegauss>
-286.868683

$$$$
