stable:False satoms:10 tatoms:24 sratio:0.4166666666666667
  -OEChem-08062415423D

 45 46  0     1  0  0  0  0  0999 V2000
    6.5654   -5.2999   26.2355 C   0  0  0  0  0  0  0  0  0  0  0  0
    8.1026   -4.6903   26.0320 S   0  0  0  0  0  0  0  0  0  0  0  0
    9.0166   -5.8193   25.9350 O   0  0  0  0  0  0  0  0  0  0  0  0
    8.4342   -3.8748   27.1570 O   0  0  0  0  0  0  0  0  0  0  0  0
    8.0851   -3.8862   24.6144 N   0  0  0  0  0  0  0  0  0  0  0  0
    8.9408   -3.1318   24.1921 C   0  0  0  0  0  0  0  0  0  0  0  0
    9.3752   -2.1171   23.6708 C   0  0  0  0  0  0  0  0  0  0  0  0
   10.2562   -1.2287   23.5063 C   0  0  1  0  0  0  0  0  0  0  0  0
   10.8502   -0.1221   24.7729 C   0  0  0  0  0  0  0  0  0  0  0  0
   11.9071    0.1901   24.7397 C   0  0  0  0  0  0  0  0  0  0  0  0
   12.9852   -0.0956   24.1004 C   0  0  0  0  0  0  0  0  0  0  0  0
   12.6977   -1.2223   23.0568 C   0  0  0  0  0  0  0  0  0  0  0  0
   11.7786   -1.6328   22.8578 C   0  0  0  0  0  0  0  0  0  0  0  0
    9.6803   -0.5834   22.6201 C   0  0  0  0  0  0  0  0  0  0  0  0
    9.0472    0.0538   21.6756 C   0  0  0  0  0  0  0  0  0  0  0  0
    9.5100    1.0471   21.3764 O   0  0  0  0  0  0  0  0  0  0  0  0
    7.9546   -0.5654   21.2561 N   0  0  0  0  0  0  0  0  0  0  0  0
    7.2745   -0.0968   20.3555 C   0  0  0  0  0  0  0  0  0  0  0  0
    7.3671    0.1079   19.0686 C   0  0  0  0  0  0  0  0  0  0  0  0
    6.9993    0.5066   17.9939 N   0  0  0  0  0  0  0  0  0  0  0  0
    5.7902    0.9788   18.3867 C   0  0  0  0  0  0  0  0  0  0  0  0
    5.2743    0.9758   19.5400 C   0  0  0  0  0  0  0  0  0  0  0  0
    5.7893    0.5172   20.7352 C   0  0  0  0  0  0  0  0  0  0  0  0
    5.2588    0.5046   21.9299 C   0  0  0  0  0  0  0  0  0  0  0  0
    6.5138   -5.8573   27.1824 H   0  0  0  0  0  0  0  0  0  0  0  0
    5.8425   -4.4711   26.2582 H   0  0  0  0  0  0  0  0  0  0  0  0
    6.3247   -5.9736   25.3999 H   0  0  0  0  0  0  0  0  0  0  0  0
    7.2481   -3.3396   24.6381 H   0  0  0  0  0  0  0  0  0  0  0  0
    9.8467   -3.6819   24.4001 H   0  0  0  0  0  0  0  0  0  0  0  0
    8.5895   -1.8249   22.9899 H   0  0  0  0  0  0  0  0  0  0  0  0
   10.1918    0.2329   25.5520 H   0  0  0  0  0  0  0  0  0  0  0  0
   12.0926    0.9714   25.4619 H   0  0  0  0  0  0  0  0  0  0  0  0
   13.9452    0.3726   24.2606 H   0  0  0  0  0  0  0  0  0  0  0  0
   13.5392   -1.6018   22.4963 H   0  0  0  0  0  0  0  0  0  0  0  0
   11.6540   -1.5086   21.7720 H   0  0  0  0  0  0  0  0  0  0  0  0
   11.9004   -2.7004   23.0932 H   0  0  0  0  0  0  0  0  0  0  0  0
   10.6477   -0.3052   22.1766 H   0  0  0  0  0  0  0  0  0  0  0  0
    9.3801    0.1796   23.3534 H   0  0  0  0  0  0  0  0  0  0  0  0
    7.6822   -1.4282   21.6820 H   0  0  0  0  0  0  0  0  0  0  0  0
    8.3235   -0.3354   18.8339 H   0  0  0  0  0  0  0  0  0  0  0  0
    5.1855    1.4175   17.6068 H   0  0  0  0  0  0  0  0  0  0  0  0
    4.2808    1.3952   19.5993 H   0  0  0  0  0  0  0  0  0  0  0  0
    4.6921   -0.4277   22.0702 H   0  0  0  0  0  0  0  0  0  0  0  0
    6.0558    0.5663   22.6855 H   0  0  0  0  0  0  0  0  0  0  0  0
    4.5821    1.3648   22.0396 H   0  0  0  0  0  0  0  0  0  0  0  0
 20 21  2  0  0  0  0
 19 20  1  0  0  0  0
 21 22  1  0  0  0  0
 18 19  2  0  0  0  0
 22 23  2  0  0  0  0
 18 23  1  0  0  0  0
 17 18  1  0  0  0  0
 23 24  1  0  0  0  0
 15 16  2  0  0  0  0
 15 17  1  0  0  0  0
 14 15  1  0  0  0  0
  8 14  1  0  0  0  0
 12 13  1  0  0  0  0
  8 13  1  0  0  0  0
 11 12  2  0  0  0  0
  7  8  1  0  0  0  0
  8  9  1  0  0  0  0
  6  7  2  3  0  0  0
 10 11  1  0  0  0  0
  5  6  1  0  0  0  0
  9 10  2  0  0  0  0
  2  5  1  0  0  0  0
  2  3  2  0  0  0  0
  1  2  1  0  0  0  0
  2  4  2  0  0  0  0
  1 25  1  0  0  0  0
  1 26  1  0  0  0  0
  1 27  1  0  0  0  0
  5 28  1  0  0  0  0
  6 29  1  0  0  0  0
  7 30  1  0  0  0  0
  9 31  1  0  0  0  0
 10 32  1  0  0  0  0
 11 33  1  0  0  0  0
 12 34  1  0  0  0  0
 13 35  1  0  0  0  0
 13 36  1  0  0  0  0
 14 37  1  0  0  0  0
 14 38  1  0  0  0  0
 17 39  1  0  0  0  0
 19 40  1  0  0  0  0
 21 41  1  0  0  0  0
 22 42  1  0  0  0  0
 24 43  1  0  0  0  0
 24 44  1  0  0  0  0
 24 45  1  0  0  0  0
M  END
> <Chemgauss4>
-12.921854

$$$$
