stable:False satoms:10 tatoms:24 sratio:0.4166666666666667
  -OEChem-08062415423D

 45 46  0     1  0  0  0  0  0999 V2000
   -6.6827   -5.3379  -26.1600 C   0  0  0  0  0  0  0  0  0  0  0  0
   -8.2199   -4.7284  -25.9565 S   0  0  0  0  0  0  0  0  0  0  0  0
   -9.1338   -5.8574  -25.8595 O   0  0  0  0  0  0  0  0  0  0  0  0
   -8.5515   -3.9129  -27.0815 O   0  0  0  0  0  0  0  0  0  0  0  0
   -8.2024   -3.9243  -24.5389 N   0  0  0  0  0  0  0  0  0  0  0  0
   -9.0581   -3.1699  -24.1166 C   0  0  0  0  0  0  0  0  0  0  0  0
   -9.4924   -2.1551  -23.5953 C   0  0  0  0  0  0  0  0  0  0  0  0
  -10.3735   -1.2667  -23.4308 C   0  0  1  0  0  0  0  0  0  0  0  0
  -10.9674   -0.1601  -24.6974 C   0  0  0  0  0  0  0  0  0  0  0  0
  -12.0244    0.1520  -24.6642 C   0  0  0  0  0  0  0  0  0  0  0  0
  -13.1024   -0.1337  -24.0249 C   0  0  0  0  0  0  0  0  0  0  0  0
  -12.8149   -1.2603  -22.9813 C   0  0  0  0  0  0  0  0  0  0  0  0
  -11.8959   -1.6709  -22.7823 C   0  0  0  0  0  0  0  0  0  0  0  0
   -9.7975   -0.6215  -22.5446 C   0  0  0  0  0  0  0  0  0  0  0  0
   -9.1644    0.0157  -21.6001 C   0  0  0  0  0  0  0  0  0  0  0  0
   -9.6272    1.0090  -21.3009 O   0  0  0  0  0  0  0  0  0  0  0  0
   -8.0718   -0.6035  -21.1806 N   0  0  0  0  0  0  0  0  0  0  0  0
   -7.3918   -0.1349  -20.2800 C   0  0  0  0  0  0  0  0  0  0  0  0
   -7.4843    0.0698  -18.9931 C   0  0  0  0  0  0  0  0  0  0  0  0
   -7.1165    0.4685  -17.9184 N   0  0  0  0  0  0  0  0  0  0  0  0
   -5.9075    0.9407  -18.3112 C   0  0  0  0  0  0  0  0  0  0  0  0
   -5.3915    0.9377  -19.4645 C   0  0  0  0  0  0  0  0  0  0  0  0
   -5.9065    0.4791  -20.6597 C   0  0  0  0  0  0  0  0  0  0  0  0
   -5.3760    0.4665  -21.8544 C   0  0  0  0  0  0  0  0  0  0  0  0
   -6.6310   -5.8954  -27.1069 H   0  0  0  0  0  0  0  0  0  0  0  0
   -5.9598   -4.5092  -26.1827 H   0  0  0  0  0  0  0  0  0  0  0  0
   -6.4419   -6.0117  -25.3244 H   0  0  0  0  0  0  0  0  0  0  0  0
   -7.3653   -3.3777  -24.5626 H   0  0  0  0  0  0  0  0  0  0  0  0
   -9.9639   -3.7200  -24.3246 H   0  0  0  0  0  0  0  0  0  0  0  0
   -8.7067   -1.8630  -22.9144 H   0  0  0  0  0  0  0  0  0  0  0  0
  -10.3090    0.1948  -25.4765 H   0  0  0  0  0  0  0  0  0  0  0  0
  -12.2099    0.9333  -25.3864 H   0  0  0  0  0  0  0  0  0  0  0  0
  -14.0624    0.3345  -24.1851 H   0  0  0  0  0  0  0  0  0  0  0  0
  -13.6564   -1.6399  -22.4208 H   0  0  0  0  0  0  0  0  0  0  0  0
  -11.7712   -1.5467  -21.6965 H   0  0  0  0  0  0  0  0  0  0  0  0
  -12.0176   -2.7385  -23.0177 H   0  0  0  0  0  0  0  0  0  0  0  0
  -10.7649   -0.3433  -22.1011 H   0  0  0  0  0  0  0  0  0  0  0  0
   -9.4973    0.1415  -23.2779 H   0  0  0  0  0  0  0  0  0  0  0  0
   -7.7995   -1.4662  -21.6065 H   0  0  0  0  0  0  0  0  0  0  0  0
   -8.4408   -0.3735  -18.7584 H   0  0  0  0  0  0  0  0  0  0  0  0
   -5.3028    1.3795  -17.5313 H   0  0  0  0  0  0  0  0  0  0  0  0
   -4.3981    1.3571  -19.5238 H   0  0  0  0  0  0  0  0  0  0  0  0
   -4.8093   -0.4658  -21.9947 H   0  0  0  0  0  0  0  0  0  0  0  0
   -6.1730    0.5282  -22.6100 H   0  0  0  0  0  0  0  0  0  0  0  0
   -4.6993    1.3268  -21.9641 H   0  0  0  0  0  0  0  0  0  0  0  0
 20 21  2  0  0  0  0
 19 20  1  0  0  0  0
 21 22  1  0  0  0  0
 18 19  2  0  0  0  0
 22 23  2  0  0  0  0
 18 23  1  0  0  0  0
 17 18  1  0  0  0  0
 23 24  1  0  0  0  0
 15 16  2  0  0  0  0
 15 17  1  0  0  0  0
 14 15  1  0  0  0  0
  8 14  1  0  0  0  0
 12 13  1  0  0  0  0
  8 13  1  0  0  0  0
 11 12  2  0  0  0  0
  7  8  1  0  0  0  0
  8  9  1  0  0  0  0
  6  7  2  3  0  0  0
 10 11  1  0  0  0  0
  5  6  1  0  0  0  0
  9 10  2  0  0  0  0
  2  5  1  0  0  0  0
  2  3  2  0  0  0  0
  1  2  1  0  0  0  0
  2  4  2  0  0  0  0
  1 25  1  0  0  0  0
  1 26  1  0  0  0  0
  1 27  1  0  0  0  0
  5 28  1  0  0  0  0
  6 29  1  0  0  0  0
  7 30  1  0  0  0  0
  9 31  1  0  0  0  0
 10 32  1  0  0  0  0
 11 33  1  0  0  0  0
 12 34  1  0  0  0  0
 13 35  1  0  0  0  0
 13 36  1  0  0  0  0
 14 37  1  0  0  0  0
 14 38  1  0  0  0  0
 17 39  1  0  0  0  0
 19 40  1  0  0  0  0
 21 41  1  0  0  0  0
 22 42  1  0  0  0  0
 24 43  1  0  0  0  0
 24 44  1  0  0  0  0
 24 45  1  0  0  0  0
M  END
> <Chemgauss4>
-13.222523

$$$$
