REMARK  10 active torsions:
REMARK  status: ('A' for Active; 'I' for Inactive)
REMARK    1  A    between atoms: S_2  and  N_5 
REMARK    2  A    between atoms: N_5  and  C_7 
REMARK    3  A    between atoms: C_8  and  C_9 
REMARK    4  A    between atoms: C_9  and  C_15 
REMARK    5  A    between atoms: C_9  and  C_10 
REMARK    6  A    between atoms: C_10  and  C_11 
REMARK    7  A    between atoms: C_11  and  C_12 
REMARK    8  A    between atoms: C_12  and  C_13 
REMARK    9  A    between atoms: C_15  and  C_16 
REMARK       I    between atoms: C_16  and  N_18 
REMARK   10  A    between atoms: N_18  and  C_20 
ROOT
HETATM    1  C   UNL     1      10.104  -0.944  23.404  1.00  0.00     0.070 C 
ENDROOT
BRANCH   1   2
HETATM    2  C   UNL     1       9.435  -2.000  23.612  1.00  0.00    -0.035 C 
HETATM    3  C   UNL     1       8.974  -2.932  24.173  1.00  0.00     0.026 C 
BRANCH   3   4
HETATM    4  N   UNL     1       8.171  -3.651  24.675  1.00  0.00    -0.243 N 
ATOM      5  HN  UNL     1       7.362  -3.884  24.099  1.00  0.00     0.189 HD
BRANCH   4   6
HETATM    6  S   UNL     1       8.196  -4.308  26.154  1.00  0.00     0.233 S 
HETATM    7  C   UNL     1       6.625  -4.843  26.419  1.00  0.00     0.186 C 
HETATM    8  O   UNL     1       9.053  -5.484  26.140  1.00  0.00    -0.205 OA
HETATM    9  O   UNL     1       8.588  -3.388  27.164  1.00  0.00    -0.205 OA
ENDBRANCH   4   6
ENDBRANCH   3   4
ENDBRANCH   1   2
BRANCH   1  10
HETATM   10  C   UNL     1       9.724  -0.570  22.363  1.00  0.00    -0.035 C 
BRANCH  10  11
HETATM   11  C   UNL     1       9.062   0.055  21.382  1.00  0.00     0.294 C 
HETATM   12  O   UNL     1       9.502   1.015  21.003  1.00  0.00    -0.258 OA
HETATM   13  N   UNL     1       7.913  -0.569  21.095  1.00  0.00    -0.314 N 
ATOM     14  HN  UNL     1       7.652  -1.425  21.585  1.00  0.00     0.170 HD
BRANCH  13  15
HETATM   15  C   UNL     1       7.155  -0.080  20.205  1.00  0.00     0.072 A 
HETATM   16  C   UNL     1       7.172   0.049  18.872  1.00  0.00     0.119 A 
HETATM   17  N   UNL     1       6.798   0.341  17.770  1.00  0.00    -0.373 N 
HETATM   18  C   UNL     1       5.646   0.865  18.285  1.00  0.00     0.089 A 
ATOM     19  HN  UNL     1       7.183   0.239  16.831  1.00  0.00     0.164 HD
HETATM   20  C   UNL     1       5.247   0.948  19.366  1.00  0.00     0.043 A 
HETATM   21  C   UNL     1       5.808   0.579  20.537  1.00  0.00     0.063 A 
HETATM   22 CL   UNL     1       5.293   0.786  22.018  1.00  0.00    -0.082 Cl
ENDBRANCH  13  15
ENDBRANCH  10  11
ENDBRANCH   1  10
BRANCH   1  23
HETATM   23  C   UNL     1      11.081  -0.058  24.219  1.00  0.00     0.029 C 
BRANCH  23  24
HETATM   24  C   UNL     1      12.093   0.233  24.194  1.00  0.00     0.002 C 
BRANCH  24  25
HETATM   25  C   UNL     1      13.093  -0.245  23.400  1.00  0.00    -0.001 C 
BRANCH  25  26
HETATM   26  C   UNL     1      12.716  -1.241  22.603  1.00  0.00    -0.010 C 
HETATM   27  C   UNL     1      12.133  -1.848  22.245  1.00  0.00     0.011 C 
ENDBRANCH  25  26
ENDBRANCH  24  25
ENDBRANCH  23  24
ENDBRANCH   1  23
TORSDOF 10
