stable:False satoms:8 tatoms:24 sratio:0.3333333333333333
  -OEChem-07092417473D

 24 24  0     0  0  0  0  0  0999 V2000
    6.6255   -4.8426   26.4185 C   0  0  0  0  0  0  0  0  0  0  0  0
    8.1961   -4.3083   26.1543 S   0  0  0  0  0  0  0  0  0  0  0  0
    9.0535   -5.4838   26.1405 O   0  0  0  0  0  0  0  0  0  0  0  0
    8.5885   -3.3882   27.1637 O   0  0  0  0  0  0  0  0  0  0  0  0
    8.1707   -3.6514   24.6747 N   0  0  0  0  0  0  0  0  0  0  0  0
    8.9739   -2.9315   24.1727 C   0  0  0  0  0  0  0  0  0  0  0  0
    9.4354   -1.9997   23.6117 C   0  0  0  0  0  0  0  0  0  0  0  0
   10.1045   -0.9440   23.4037 C   0  0  0  0  0  0  0  0  0  0  0  0
   11.0805   -0.0581   24.2193 C   0  0  0  0  0  0  0  0  0  0  0  0
   12.0929    0.2327   24.1938 C   0  0  0  0  0  0  0  0  0  0  0  0
   13.0929   -0.2452   23.3998 C   0  0  0  0  0  0  0  0  0  0  0  0
   12.7155   -1.2410   22.6028 C   0  0  0  0  0  0  0  0  0  0  0  0
   12.1328   -1.8477   22.2451 C   0  0  0  0  0  0  0  0  0  0  0  0
    9.7242   -0.5703   22.3634 C   0  0  0  0  0  0  0  0  0  0  0  0
    9.0622    0.0548   21.3824 C   0  0  0  0  0  0  0  0  0  0  0  0
    9.5025    1.0152   21.0027 O   0  0  0  0  0  0  0  0  0  0  0  0
    7.9126   -0.5689   21.0948 N   0  0  0  0  0  0  0  0  0  0  0  0
    7.1553   -0.0796   20.2054 C   0  0  0  0  0  0  0  0  0  0  0  0
    7.1722    0.0490   18.8720 C   0  0  0  0  0  0  0  0  0  0  0  0
    6.7982    0.3408   17.7696 N   0  0  0  0  0  0  0  0  0  0  0  0
    5.6462    0.8652   18.2852 C   0  0  0  0  0  0  0  0  0  0  0  0
    5.2471    0.9481   19.3658 C   0  0  0  0  0  0  0  0  0  0  0  0
    5.8075    0.5785   20.5371 C   0  0  0  0  0  0  0  0  0  0  0  0
    5.2934    0.7860   22.0177 Cl  0  0  0  0  0  0  0  0  0  0  0  0
 20 21  2  0  0  0  0
 19 20  1  0  0  0  0
 21 22  1  0  0  0  0
 18 19  2  0  0  0  0
 22 23  2  0  0  0  0
 18 23  1  0  0  0  0
 17 18  1  0  0  0  0
 23 24  1  0  0  0  0
 15 16  2  0  0  0  0
 15 17  1  0  0  0  0
 14 15  1  0  0  0  0
 12 13  3  0  0  0  0
  8 14  2  3  0  0  0
 11 12  1  0  0  0  0
 10 11  1  0  0  0  0
  7  8  1  0  0  0  0
  8  9  1  0  0  0  0
  6  7  3  0  0  0  0
  5  6  1  0  0  0  0
  9 10  2  0  0  0  0
  2  5  1  0  0  0  0
  2  3  2  0  0  0  0
  1  2  1  0  0  0  0
  2  4  2  0  0  0  0
M  END
> <Shapegauss>
-284.657440

$$$$
