stable:False satoms:19 tatoms:24 sratio:0.7916666666666666
  -OEChem-07092417283D

 24 24  0     0  0  0  0  0  0999 V2000
    5.9437    1.5806   22.5726 C   0  0  0  0  0  0  0  0  0  0  0  0
    8.9856    2.2698   23.8612 H   0  0  0  0  0  0  0  0  0  0  0  0
    9.9927   -3.7909   21.8895 C   0  0  0  0  0  0  0  0  0  0  0  0
    9.7752   -3.0339   23.0025 C   0  0  0  0  0  0  0  0  0  0  0  0
   10.6675   -6.6378   22.7893 H   0  0  0  0  0  0  0  0  0  0  0  0
   10.2950   -0.8149   22.2184 H   0  0  0  0  0  0  0  0  0  0  0  0
    8.2265    1.7456   23.3361 C   0  0  0  0  0  0  0  0  0  0  0  0
    9.0417   -2.1763   23.2598 O   0  0  0  0  0  0  0  0  0  0  0  0
   10.2008    0.7372   21.4569 H   0  0  0  0  0  0  0  0  0  0  0  0
    6.2677    0.3980   21.9664 C   0  0  0  0  0  0  0  0  0  0  0  0
    6.6758    3.1350   23.8115 H   0  0  0  0  0  0  0  0  0  0  0  0
    8.5396    0.5615   22.6747 C   0  0  0  0  0  0  0  0  0  0  0  0
    5.0634   -0.4495   20.7818 Br  0  0  0  0  0  0  0  0  0  0  0  0
    4.9650    2.0209   22.4710 H   0  0  0  0  0  0  0  0  0  0  0  0
   10.1232   -5.6345   20.5279 O   0  0  0  0  0  0  0  0  0  0  0  0
   10.2561   -5.0502   21.6061 C   0  0  0  0  0  0  0  0  0  0  0  0
    6.9311    2.2314   23.3013 C   0  0  0  0  0  0  0  0  0  0  0  0
    9.9938    0.2193   22.3832 C   0  0  0  0  0  0  0  0  0  0  0  0
    7.6877   -1.1801   21.7760 H   0  0  0  0  0  0  0  0  0  0  0  0
   10.9646   -5.1157   23.5212 H   0  0  0  0  0  0  0  0  0  0  0  0
    7.5239   -0.1764   22.1226 C   0  0  0  0  0  0  0  0  0  0  0  0
   10.6683   -5.6439   22.7518 N   0  0  0  0  0  0  0  0  0  0  0  0
   10.6052    0.6113   23.1822 H   0  0  0  0  0  0  0  0  0  0  0  0
   10.1899   -3.0964   24.0327 N   0  0  0  0  0  0  0  0  0  0  0  0
 15 16  2  0  0  0  0
 10 13  1  0  0  0  0
  9 18  1  0  0  0  0
  3 16  1  0  0  0  0
 16 22  1  0  0  0  0
 19 21  1  0  0  0  0
  3  4  2  3  0  0  0
 10 21  2  0  0  0  0
  1 10  1  0  0  0  0
 12 21  1  0  0  0  0
  6 18  1  0  0  0  0
 12 18  1  0  0  0  0
 18 23  1  0  0  0  0
  1 14  1  0  0  0  0
  1 17  2  0  0  0  0
  7 12  2  0  0  0  0
  5 22  1  0  0  0  0
 20 22  1  0  0  0  0
  4  8  1  0  0  0  0
  4 24  1  0  0  0  0
  8 24  1  0  0  0  0
  7 17  1  0  0  0  0
 11 17  1  0  0  0  0
  2  7  1  0  0  0  0
M  END
> <Shapegauss>
-77.699814

$$$$
