
  -OEChem-07272400173D

 39 42  0     1  0  0  0  0  0999 V2000
   -6.9404   -4.4110  -24.9838 Br  0  0  0  0  0  0  0  0  0  0  0  0
   -8.1020   -2.9224  -25.0461 C   0  0  0  0  0  0  0  0  0  0  0  0
   -8.1087   -2.0958  -26.1659 C   0  0  0  0  0  0  0  0  0  0  0  0
   -8.9765   -1.0047  -26.2128 C   0  0  0  0  0  0  0  0  0  0  0  0
   -9.8178   -0.7263  -25.1362 C   0  0  0  0  0  0  0  0  0  0  0  0
   -9.7933   -1.5361  -23.9959 C   0  0  0  0  0  0  0  0  0  0  0  0
   -8.9432   -2.6565  -23.9666 C   0  0  0  0  0  0  0  0  0  0  0  0
  -10.6498   -1.1883  -22.8033 C   0  0  3  0  0  0  0  0  0  0  0  0
   -9.9300   -0.3670  -21.7214 C   0  0  0  0  0  0  0  0  0  0  0  0
  -10.5679    0.3812  -20.9684 O   0  0  0  0  0  0  0  0  0  0  0  0
   -8.5645   -0.5351  -21.6166 N   0  0  0  0  0  0  0  0  0  0  0  0
   -7.8168    0.1199  -20.6114 C   0  0  0  0  0  0  0  0  0  0  0  0
   -8.1574   -0.0544  -19.2690 C   0  0  0  0  0  0  0  0  0  0  0  0
   -7.4276    0.4124  -18.2345 N   0  0  0  0  0  0  0  0  0  0  0  0
   -6.3129    1.1031  -18.5565 C   0  0  0  0  0  0  0  0  0  0  0  0
   -5.8860    1.3746  -19.8598 C   0  0  0  0  0  0  0  0  0  0  0  0
   -4.7169    2.1154  -20.1172 C   0  0  0  0  0  0  0  0  0  0  0  0
   -4.3307    2.4077  -21.4239 C   0  0  0  0  0  0  0  0  0  0  0  0
   -5.1216    1.9833  -22.4860 C   0  0  0  0  0  0  0  0  0  0  0  0
   -6.2772    1.2359  -22.2444 C   0  0  0  0  0  0  0  0  0  0  0  0
   -6.6674    0.8852  -20.9282 C   0  0  0  0  0  0  0  0  0  0  0  0
  -11.8809   -0.4257  -23.3017 C   0  0  0  0  0  0  0  0  0  0  0  0
  -11.4194    0.7432  -24.1651 C   0  0  0  0  0  0  0  0  0  0  0  0
  -10.6650    0.3311  -25.3078 O   0  0  0  0  0  0  0  0  0  0  0  0
   -7.4581   -2.2982  -27.0126 H   0  0  0  0  0  0  0  0  0  0  0  0
   -9.0055   -0.3704  -27.0956 H   0  0  0  0  0  0  0  0  0  0  0  0
   -8.9327   -3.3120  -23.0974 H   0  0  0  0  0  0  0  0  0  0  0  0
  -10.9939   -2.1106  -22.3170 H   0  0  0  0  0  0  0  0  0  0  0  0
   -8.0660   -0.7591  -22.4699 H   0  0  0  0  0  0  0  0  0  0  0  0
   -9.0266   -0.6417  -18.9815 H   0  0  0  0  0  0  0  0  0  0  0  0
   -5.7454    1.4534  -17.6960 H   0  0  0  0  0  0  0  0  0  0  0  0
   -4.0987    2.4712  -19.2946 H   0  0  0  0  0  0  0  0  0  0  0  0
   -3.4220    2.9736  -21.6111 H   0  0  0  0  0  0  0  0  0  0  0  0
   -4.8405    2.2363  -23.5066 H   0  0  0  0  0  0  0  0  0  0  0  0
   -6.8888    0.9599  -23.1000 H   0  0  0  0  0  0  0  0  0  0  0  0
  -12.4990   -0.0612  -22.4742 H   0  0  0  0  0  0  0  0  0  0  0  0
  -12.5056   -1.0950  -23.9065 H   0  0  0  0  0  0  0  0  0  0  0  0
  -10.8153    1.4615  -23.5994 H   0  0  0  0  0  0  0  0  0  0  0  0
  -12.2931    1.2869  -24.5351 H   0  0  0  0  0  0  0  0  0  0  0  0
  1  2  1  0  0  0  0
  2  3  1  0  0  0  0
  2  7  2  0  0  0  0
  3  4  2  0  0  0  0
  3 25  1  0  0  0  0
  4  5  1  0  0  0  0
  4 26  1  0  0  0  0
  5  6  2  0  0  0  0
  5 24  1  0  0  0  0
  6  7  1  0  0  0  0
  6  8  1  0  0  0  0
  7 27  1  0  0  0  0
  8  9  1  0  0  0  0
  8 22  1  0  0  0  0
  8 28  1  0  0  0  0
  9 10  2  0  0  0  0
  9 11  1  0  0  0  0
 11 12  1  0  0  0  0
 11 29  1  0  0  0  0
 12 13  1  0  0  0  0
 12 21  2  0  0  0  0
 13 14  2  0  0  0  0
 13 30  1  0  0  0  0
 14 15  1  0  0  0  0
 15 16  2  0  0  0  0
 15 31  1  0  0  0  0
 16 17  1  0  0  0  0
 16 21  1  0  0  0  0
 17 18  2  0  0  0  0
 17 32  1  0  0  0  0
 18 19  1  0  0  0  0
 18 33  1  0  0  0  0
 19 20  2  0  0  0  0
 19 34  1  0  0  0  0
 20 21  1  0  0  0  0
 20 35  1  0  0  0  0
 22 23  1  0  0  0  0
 22 36  1  0  0  0  0
 22 37  1  0  0  0  0
 23 24  1  0  0  0  0
 23 38  1  0  0  0  0
 23 39  1  0  0  0  0
M  END
> <Chemgauss4>
-10.755582

$$$$
