REMARK  8 active torsions:
REMARK  status: ('A' for Active; 'I' for Inactive)
REMARK    1  A    between atoms: S_2  and  N_5 
REMARK    2  A    between atoms: C_7  and  C_8 
REMARK    3  A    between atoms: C_9  and  C_10 
REMARK    4  A    between atoms: C_10  and  C_11 
REMARK    5  A    between atoms: C_11  and  C_12 
REMARK    6  A    between atoms: C_12  and  C_13 
REMARK    7  A    between atoms: C_15  and  C_16 
REMARK       I    between atoms: C_16  and  N_18 
REMARK    8  A    between atoms: N_18  and  C_20 
ROOT
HETATM    1  C   UNL     1       9.422  -1.973  23.505  1.00  0.00    -0.017 A 
HETATM    2  C   UNL     1      10.306  -1.032  23.320  1.00  0.00     0.082 A 
HETATM    3  C   UNL     1       9.716  -0.610  22.383  1.00  0.00     0.031 A 
ENDROOT
BRANCH   3   4
HETATM    4  C   UNL     1       9.065   0.041  21.383  1.00  0.00     0.253 C 
HETATM    5  O   UNL     1       9.537   1.014  20.983  1.00  0.00    -0.268 OA
HETATM    6  N   UNL     1       7.933  -0.556  21.062  1.00  0.00    -0.321 N 
ATOM      7  HN  UNL     1       7.646  -1.399  21.559  1.00  0.00     0.169 HD
BRANCH   6   8
HETATM    8  C   UNL     1       7.215  -0.098  20.159  1.00  0.00     0.056 A 
HETATM    9  C   UNL     1       7.253  -0.037  18.846  1.00  0.00     0.117 A 
HETATM   10  N   UNL     1       6.766   0.317  17.757  1.00  0.00    -0.373 N 
HETATM   11  C   UNL     1       5.663   0.902  18.230  1.00  0.00     0.088 A 
ATOM     12  HN  UNL     1       7.104   0.198  16.802  1.00  0.00     0.164 HD
HETATM   13  C   UNL     1       5.290   1.026  19.392  1.00  0.00     0.026 A 
HETATM   14  C   UNL     1       5.838   0.591  20.541  1.00  0.00    -0.033 A 
HETATM   15  C   UNL     1       5.340   0.706  21.986  1.00  0.00     0.050 C 
ENDBRANCH   6   8
ENDBRANCH   3   4
BRANCH   1  16
HETATM   16  C   UNL     1       9.010  -2.942  24.138  1.00  0.00     0.108 C 
HETATM   17  N   UNL     1       8.062  -3.608  24.687  1.00  0.00    -0.295 N 
ATOM     18  HN  UNL     1       7.174  -3.677  24.190  1.00  0.00     0.177 HD
BRANCH  17  19
HETATM   19  S   UNL     1       8.189  -4.338  26.108  1.00  0.00     0.226 S 
HETATM   20  C   UNL     1       6.604  -4.812  26.465  1.00  0.00     0.186 C 
HETATM   21  O   UNL     1       9.032  -5.495  26.046  1.00  0.00    -0.206 OA
HETATM   22  O   UNL     1       8.608  -3.434  27.157  1.00  0.00    -0.206 OA
ENDBRANCH  17  19
ENDBRANCH   1  16
BRANCH   2  23
HETATM   23  C   UNL     1      11.000  -0.044  24.289  1.00  0.00    -0.016 C 
BRANCH  23  24
HETATM   24  C   UNL     1      12.097   0.282  24.253  1.00  0.00    -0.026 C 
BRANCH  24  25
HETATM   25  C   UNL     1      13.117  -0.125  23.517  1.00  0.00     0.053 C 
BRANCH  25  26
HETATM   26  C   UNL     1      12.685  -1.314  22.611  1.00  0.00    -0.033 C 
HETATM   27  C   UNL     1      11.836  -1.750  22.482  1.00  0.00     0.007 C 
ENDBRANCH  25  26
ENDBRANCH  24  25
ENDBRANCH  23  24
ENDBRANCH   2  23
TORSDOF 8
