stable:False satoms:6 tatoms:24 sratio:0.25
  -OEChem-07092417513D

 24 25  0     1  0  0  0  0  0999 V2000
    6.6041   -4.8120   26.4647 C   0  0  0  0  0  0  0  0  0  0  0  0
    8.1887   -4.3384   26.1079 S   0  0  0  0  0  0  0  0  0  0  0  0
    9.0317   -5.4953   26.0461 O   0  0  0  0  0  0  0  0  0  0  0  0
    8.6081   -3.4341   27.1570 O   0  0  0  0  0  0  0  0  0  0  0  0
    8.0625   -3.6076   24.6870 N   0  0  0  0  0  0  0  0  0  0  0  0
    9.0099   -2.9422   24.1376 C   0  0  0  0  0  0  0  0  0  0  0  0
    9.4222   -1.9730   23.5047 C   0  0  0  0  0  0  0  0  0  0  0  0
   10.3059   -1.0316   23.3198 C   0  0  2  0  0  0  0  0  0  0  0  0
   10.9997   -0.0445   24.2889 C   0  0  0  0  0  0  0  0  0  0  0  0
   12.0966    0.2819   24.2526 C   0  0  0  0  0  0  0  0  0  0  0  0
   13.1172   -0.1250   23.5174 C   0  0  0  0  0  0  0  0  0  0  0  0
   12.6848   -1.3142   22.6108 C   0  0  0  0  0  0  0  0  0  0  0  0
   11.8363   -1.7498   22.4823 C   0  0  0  0  0  0  0  0  0  0  0  0
    9.7158   -0.6100   22.3825 C   0  0  2  0  0  0  0  0  0  0  0  0
    9.0651    0.0413   21.3826 C   0  0  0  0  0  0  0  0  0  0  0  0
    9.5367    1.0141   20.9828 O   0  0  0  0  0  0  0  0  0  0  0  0
    7.9331   -0.5559   21.0618 N   0  0  0  0  0  0  0  0  0  0  0  0
    7.2152   -0.0981   20.1589 C   0  0  0  0  0  0  0  0  0  0  0  0
    7.2530   -0.0368   18.8455 C   0  0  0  0  0  0  0  0  0  0  0  0
    6.7665    0.3168   17.7571 N   0  0  0  0  0  0  0  0  0  0  0  0
    5.6630    0.9020   18.2305 C   0  0  0  0  0  0  0  0  0  0  0  0
    5.2901    1.0258   19.3918 C   0  0  0  0  0  0  0  0  0  0  0  0
    5.8383    0.5905   20.5407 C   0  0  0  0  0  0  0  0  0  0  0  0
    5.3396    0.7061   21.9859 C   0  0  0  0  0  0  0  0  0  0  0  0
 20 21  2  0  0  0  0
 19 20  1  0  0  0  0
 21 22  1  0  0  0  0
 18 19  2  0  0  0  0
 22 23  2  0  0  0  0
 18 23  1  0  0  0  0
 17 18  1  0  0  0  0
 23 24  1  0  0  0  0
 15 16  2  0  0  0  0
 15 17  1  0  0  0  0
 14 15  1  0  0  0  0
  8 14  1  0  0  0  0
  7 14  1  0  0  0  0
 12 13  2  0  0  0  0
 11 12  1  0  0  0  0
  7  8  1  0  0  0  0
  8  9  1  0  0  0  0
  6  7  2  3  0  0  0
 10 11  1  0  0  0  0
  5  6  1  0  0  0  0
  9 10  2  0  0  0  0
  2  5  1  0  0  0  0
  2  3  2  0  0  0  0
  1  2  1  0  0  0  0
  2  4  2  0  0  0  0
M  END
> <Shapegauss>
-286.021637

$$$$
