
 OpenBabel07202414173D

 35 36  0  0  0  0  0  0  0  0999 V2000
    0.9370    0.3733   -0.5342 Cl  0  0  0  0  0  0  0  0  0  0  0  0
    2.6928    0.5384   -0.7308 C   0  0  0  0  0  0  0  0  0  0  0  0
    3.2947    1.5150    0.2713 C   0  0  0  0  0  0  0  0  0  0  0  0
    2.6074    2.1792    1.0476 O   0  0  0  0  0  0  0  0  0  0  0  0
    4.6875    1.6123    0.2814 N   0  0  0  0  0  0  0  0  0  0  0  0
    5.5881    0.9759   -0.6932 C   0  0  0  0  0  0  0  0  0  0  0  0
    6.8919    0.4739   -0.0321 C   0  0  0  0  0  0  0  0  0  0  0  0
    7.5514    1.5412    0.7876 N   0  0  0  0  0  0  0  0  0  0  0  0
    8.4126    2.7416   -0.0707 S   0  0  0  0  0  0  0  0  0  0  0  0
    7.8358    2.8730   -1.3906 O   0  0  0  0  0  0  0  0  0  0  0  0
    8.5629    3.8929    0.7936 O   0  0  0  0  0  0  0  0  0  0  0  0
   10.0390    2.0358   -0.2774 C   0  0  0  0  0  0  0  0  0  0  0  0
   10.3342    1.2785   -1.4163 C   0  0  0  0  0  0  0  0  0  0  0  0
   11.6525    0.8721   -1.6555 C   0  0  0  0  0  0  0  0  0  0  0  0
   12.6782    1.2371   -0.7725 C   0  0  0  0  0  0  0  0  0  0  0  0
   14.0326    0.8476   -1.0417 C   0  0  0  0  0  0  0  0  0  0  0  0
   15.1304    0.5346   -1.2624 N   0  0  0  0  0  0  0  0  0  0  0  0
   12.3758    2.0035    0.3601 C   0  0  0  0  0  0  0  0  0  0  0  0
   11.0585    2.4030    0.6099 C   0  0  0  0  0  0  0  0  0  0  0  0
    6.5834    2.0669    1.8113 C   0  0  0  0  0  0  0  0  0  0  0  0
    5.3195    2.6238    1.1443 C   0  0  0  0  0  0  0  0  0  0  0  0
    2.8847    0.8914   -1.7474 H   0  0  0  0  0  0  0  0  0  0  0  0
    3.1206   -0.4561   -0.5824 H   0  0  0  0  0  0  0  0  0  0  0  0
    5.7819    1.7218   -1.4685 H   0  0  0  0  0  0  0  0  0  0  0  0
    5.1016    0.1368   -1.1937 H   0  0  0  0  0  0  0  0  0  0  0  0
    7.5826    0.0665   -0.7750 H   0  0  0  0  0  0  0  0  0  0  0  0
    6.6420   -0.3537    0.6461 H   0  0  0  0  0  0  0  0  0  0  0  0
    9.5584    1.0309   -2.1372 H   0  0  0  0  0  0  0  0  0  0  0  0
   11.8803    0.2951   -2.5513 H   0  0  0  0  0  0  0  0  0  0  0  0
   13.1656    2.3190    1.0407 H   0  0  0  0  0  0  0  0  0  0  0  0
   10.8431    3.0291    1.4740 H   0  0  0  0  0  0  0  0  0  0  0  0
    7.0618    2.8150    2.4503 H   0  0  0  0  0  0  0  0  0  0  0  0
    6.3114    1.2339    2.4733 H   0  0  0  0  0  0  0  0  0  0  0  0
    5.5592    3.4860    0.5109 H   0  0  0  0  0  0  0  0  0  0  0  0
    4.6257    2.9700    1.9167 H   0  0  0  0  0  0  0  0  0  0  0  0
  1  2  1  0  0  0  0
  2  3  1  0  0  0  0
  2 22  1  0  0  0  0
  2 23  1  0  0  0  0
  3  4  2  0  0  0  0
  3  5  1  0  0  0  0
  5  6  1  0  0  0  0
  5 21  1  0  0  0  0
  6  7  1  0  0  0  0
  6 24  1  0  0  0  0
  6 25  1  0  0  0  0
  7  8  1  0  0  0  0
  7 26  1  0  0  0  0
  7 27  1  0  0  0  0
  8  9  1  0  0  0  0
  8 20  1  0  0  0  0
  9 10  2  0  0  0  0
  9 11  2  0  0  0  0
  9 12  1  0  0  0  0
 12 13  1  0  0  0  0
 12 19  2  0  0  0  0
 13 14  2  0  0  0  0
 13 28  1  0  0  0  0
 14 15  1  0  0  0  0
 14 29  1  0  0  0  0
 15 16  1  0  0  0  0
 15 18  2  0  0  0  0
 16 17  3  0  0  0  0
 18 19  1  0  0  0  0
 18 30  1  0  0  0  0
 19 31  1  0  0  0  0
 20 21  1  0  0  0  0
 20 32  1  0  0  0  0
 20 33  1  0  0  0  0
 21 34  1  0  0  0  0
 21 35  1  0  0  0  0
M  END
$$$$
