REMARK  8 active torsions:
REMARK  status: ('A' for Active; 'I' for Inactive)
REMARK    1  A    between atoms: O_1  and  N_3 
REMARK    2  A    between atoms: C_2  and  C_19 
REMARK    3  A    between atoms: C_2  and  C_10 
REMARK    4  A    between atoms: C_4  and  N_14 
REMARK    5  A    between atoms: C_4  and  C_19 
REMARK    6  A    between atoms: N_8  and  N_14 
REMARK    7  A    between atoms: C_15  and  S_21 
REMARK       I    between atoms: C_15  and  N_18 
REMARK    8  A    between atoms: O_16  and  S_21 
ROOT
HETATM    1  C   UNL     1       8.084  -0.873  22.021  1.00  0.00    -0.006 C 
ENDROOT
BRANCH   1   2
HETATM    2  C   UNL     1       7.323  -1.499  22.604  1.00  0.00     0.237 C 
HETATM    3  O   UNL     1       6.272  -1.121  22.217  1.00  0.00    -0.278 OA
BRANCH   2   4
HETATM    4  C   UNL     1       7.713  -2.551  23.598  1.00  0.00     0.155 C 
HETATM    5  N   UNL     1       6.788  -3.148  24.293  1.00  0.00    -0.322 N 
HETATM    6  H   UNL     1       7.068  -3.666  25.100  1.00  0.00     0.169 HD
HETATM    7  C   UNL     1       5.539  -3.269  23.779  1.00  0.00     0.310 C 
HETATM    8  O   UNL     1       4.751  -2.455  23.497  1.00  0.00    -0.258 OA
BRANCH   7   9
HETATM    9  S   UNL     1       5.173  -4.916  23.467  1.00  0.00     0.089 SA
BRANCH   9  10
HETATM   10  O   UNL     1       3.918  -4.804  22.694  1.00  0.00    -0.321 OA
ATOM     11  HO  UNL     1       3.715  -5.716  22.521  1.00  0.00     0.228 HD
ENDBRANCH   9  10
ENDBRANCH   7   9
ENDBRANCH   2   4
ENDBRANCH   1   2
BRANCH   1  12
HETATM   12  C   UNL     1       9.127  -0.302  21.291  1.00  0.00     0.273 C 
HETATM   13  N   UNL     1       8.662   0.383  20.209  1.00  0.00    -0.233 N 
HETATM   14  H   UNL     1       9.101   1.272  20.109  1.00  0.00     0.197 HD
BRANCH  13  15
HETATM   15  O   UNL     1       7.334   0.368  20.009  1.00  0.00    -0.287 OA
HETATM   16  H   UNL     1       6.934   0.578  20.854  1.00  0.00     0.244 HD
ENDBRANCH  13  15
BRANCH  12  17
HETATM   17  N   UNL     1      10.364  -0.391  21.543  1.00  0.00    -0.297 NA
BRANCH  17  18
HETATM   18  N   UNL     1      11.603  -0.324  21.422  1.00  0.00    -0.249 N 
HETATM   19  C   UNL     1      12.408   0.385  22.084  1.00  0.00     0.089 C 
HETATM   20  C   UNL     1      12.415   0.221  23.541  1.00  0.00     0.057 C 
ATOM     21  HN  UNL     1      12.015  -0.915  20.700  1.00  0.00     0.200 HD
ENDBRANCH  17  18
ENDBRANCH  12  17
ENDBRANCH   1  12
TORSDOF 8
