stable:False satoms:9 tatoms:24 sratio:0.375
  -OEChem-08062415293D

 45 46  0     1  0  0  0  0  0999 V2000
    6.5712   -5.1846   26.3527 C   0  0  0  0  0  0  0  0  0  0  0  0
    8.1044   -4.6054   26.0927 S   0  0  0  0  0  0  0  0  0  0  0  0
    9.0049   -5.7599   26.0416 O   0  0  0  0  0  0  0  0  0  0  0  0
    8.4930   -3.7759   27.2159 O   0  0  0  0  0  0  0  0  0  0  0  0
    8.0411   -3.8376   24.7260 N   0  0  0  0  0  0  0  0  0  0  0  0
    8.9926   -3.0755   24.2211 C   0  0  0  0  0  0  0  0  0  0  0  0
    9.4315   -2.1192   23.6771 C   0  0  0  0  0  0  0  0  0  0  0  0
   10.2862   -1.2278   23.5612 C   0  0  1  0  0  0  0  0  0  0  0  0
   10.8901   -0.1791   24.6641 C   0  0  0  0  0  0  0  0  0  0  0  0
   11.9049    0.1858   24.7455 C   0  0  0  0  0  0  0  0  0  0  0  0
   13.0935   -0.2300   23.9084 C   0  0  0  0  0  0  0  0  0  0  0  0
   12.7379   -1.1923   23.0915 C   0  0  0  0  0  0  0  0  0  0  0  0
   11.8176   -1.7560   22.8329 C   0  0  0  0  0  0  0  0  0  0  0  0
    9.7511   -0.6174   22.5909 C   0  0  0  0  0  0  0  0  0  0  0  0
    9.1358   -0.0144   21.6353 C   0  0  0  0  0  0  0  0  0  0  0  0
    9.6311    0.9520   21.3200 O   0  0  0  0  0  0  0  0  0  0  0  0
    8.0090   -0.6224   21.2428 N   0  0  0  0  0  0  0  0  0  0  0  0
    7.3342   -0.1607   20.3018 C   0  0  0  0  0  0  0  0  0  0  0  0
    7.4711   -0.0052   19.0069 C   0  0  0  0  0  0  0  0  0  0  0  0
    7.0314    0.3487   17.9054 N   0  0  0  0  0  0  0  0  0  0  0  0
    5.8631    0.9214   18.3474 C   0  0  0  0  0  0  0  0  0  0  0  0
    5.4129    0.9355   19.4660 C   0  0  0  0  0  0  0  0  0  0  0  0
    5.9023    0.4611   20.6455 C   0  0  0  0  0  0  0  0  0  0  0  0
    5.3823    0.5208   21.9747 C   0  0  0  0  0  0  0  0  0  0  0  0
    6.5441   -5.7383   27.3027 H   0  0  0  0  0  0  0  0  0  0  0  0
    5.8644   -4.3430   26.3986 H   0  0  0  0  0  0  0  0  0  0  0  0
    6.2885   -5.8563   25.5287 H   0  0  0  0  0  0  0  0  0  0  0  0
    7.2389   -3.2445   24.7951 H   0  0  0  0  0  0  0  0  0  0  0  0
    9.8812   -3.6578   24.4154 H   0  0  0  0  0  0  0  0  0  0  0  0
    8.7339   -1.9250   22.8759 H   0  0  0  0  0  0  0  0  0  0  0  0
   10.1910    0.1929   25.3985 H   0  0  0  0  0  0  0  0  0  0  0  0
   12.0895    0.9283   25.5078 H   0  0  0  0  0  0  0  0  0  0  0  0
   14.0825    0.1991   23.9733 H   0  0  0  0  0  0  0  0  0  0  0  0
   13.5782   -1.5324   22.5044 H   0  0  0  0  0  0  0  0  0  0  0  0
   11.6965   -1.7021   21.7410 H   0  0  0  0  0  0  0  0  0  0  0  0
   11.9791   -2.8019   23.1328 H   0  0  0  0  0  0  0  0  0  0  0  0
   10.3027   -1.2389   21.8701 H   0  0  0  0  0  0  0  0  0  0  0  0
   10.3331    0.2888   22.8145 H   0  0  0  0  0  0  0  0  0  0  0  0
    7.7062   -1.4539   21.7086 H   0  0  0  0  0  0  0  0  0  0  0  0
    8.4663   -0.3677   18.7958 H   0  0  0  0  0  0  0  0  0  0  0  0
    5.2718    1.4236   17.5961 H   0  0  0  0  0  0  0  0  0  0  0  0
    4.4464    1.4104   19.5475 H   0  0  0  0  0  0  0  0  0  0  0  0
    4.7865   -0.3815   22.1768 H   0  0  0  0  0  0  0  0  0  0  0  0
    6.2145    0.5788   22.6916 H   0  0  0  0  0  0  0  0  0  0  0  0
    4.7454    1.4116   22.0794 H   0  0  0  0  0  0  0  0  0  0  0  0
 20 21  2  0  0  0  0
 19 20  1  0  0  0  0
 21 22  1  0  0  0  0
 18 19  2  0  0  0  0
 22 23  2  0  0  0  0
 18 23  1  0  0  0  0
 17 18  1  0  0  0  0
 23 24  1  0  0  0  0
 15 16  2  0  0  0  0
 15 17  1  0  0  0  0
 14 15  1  0  0  0  0
  8 14  1  0  0  0  0
 12 13  1  0  0  0  0
  8 13  1  0  0  0  0
 11 12  2  0  0  0  0
  7  8  1  0  0  0  0
  8  9  1  0  0  0  0
 10 11  1  0  0  0  0
  6  7  2  3  0  0  0
  5  6  1  0  0  0  0
  9 10  2  0  0  0  0
  2  5  1  0  0  0  0
  2  3  2  0  0  0  0
  1  2  1  0  0  0  0
  2  4  2  0  0  0  0
  1 25  1  0  0  0  0
  1 26  1  0  0  0  0
  1 27  1  0  0  0  0
  5 28  1  0  0  0  0
  6 29  1  0  0  0  0
  7 30  1  0  0  0  0
  9 31  1  0  0  0  0
 10 32  1  0  0  0  0
 11 33  1  0  0  0  0
 12 34  1  0  0  0  0
 13 35  1  0  0  0  0
 13 36  1  0  0  0  0
 14 37  1  0  0  0  0
 14 38  1  0  0  0  0
 17 39  1  0  0  0  0
 19 40  1  0  0  0  0
 21 41  1  0  0  0  0
 22 42  1  0  0  0  0
 24 43  1  0  0  0  0
 24 44  1  0  0  0  0
 24 45  1  0  0  0  0
M  END
> <Chemgauss4>
-13.058594

$$$$
