stable:False satoms:9 tatoms:24 sratio:0.375
  -OEChem-08062415293D

 45 46  0     1  0  0  0  0  0999 V2000
   -6.5163   -5.1566  -26.3149 C   0  0  0  0  0  0  0  0  0  0  0  0
   -8.0495   -4.5775  -26.0549 S   0  0  0  0  0  0  0  0  0  0  0  0
   -8.9500   -5.7320  -26.0039 O   0  0  0  0  0  0  0  0  0  0  0  0
   -8.4381   -3.7479  -27.1781 O   0  0  0  0  0  0  0  0  0  0  0  0
   -7.9862   -3.8096  -24.6882 N   0  0  0  0  0  0  0  0  0  0  0  0
   -8.9377   -3.0475  -24.1834 C   0  0  0  0  0  0  0  0  0  0  0  0
   -9.3766   -2.0912  -23.6394 C   0  0  0  0  0  0  0  0  0  0  0  0
  -10.2313   -1.1999  -23.5234 C   0  0  1  0  0  0  0  0  0  0  0  0
  -10.8351   -0.1511  -24.6264 C   0  0  0  0  0  0  0  0  0  0  0  0
  -11.8500    0.2138  -24.7077 C   0  0  0  0  0  0  0  0  0  0  0  0
  -13.0386   -0.2020  -23.8707 C   0  0  0  0  0  0  0  0  0  0  0  0
  -12.6830   -1.1644  -23.0537 C   0  0  0  0  0  0  0  0  0  0  0  0
  -11.7626   -1.7280  -22.7952 C   0  0  0  0  0  0  0  0  0  0  0  0
   -9.6962   -0.5894  -22.5532 C   0  0  0  0  0  0  0  0  0  0  0  0
   -9.0809    0.0136  -21.5976 C   0  0  0  0  0  0  0  0  0  0  0  0
   -9.5762    0.9800  -21.2823 O   0  0  0  0  0  0  0  0  0  0  0  0
   -7.9540   -0.5944  -21.2051 N   0  0  0  0  0  0  0  0  0  0  0  0
   -7.2793   -0.1327  -20.2641 C   0  0  0  0  0  0  0  0  0  0  0  0
   -7.4162    0.0227  -18.9692 C   0  0  0  0  0  0  0  0  0  0  0  0
   -6.9765    0.3766  -17.8676 N   0  0  0  0  0  0  0  0  0  0  0  0
   -5.8082    0.9494  -18.3097 C   0  0  0  0  0  0  0  0  0  0  0  0
   -5.3580    0.9635  -19.4283 C   0  0  0  0  0  0  0  0  0  0  0  0
   -5.8474    0.4891  -20.6078 C   0  0  0  0  0  0  0  0  0  0  0  0
   -5.3273    0.5488  -21.9369 C   0  0  0  0  0  0  0  0  0  0  0  0
   -6.4892   -5.7104  -27.2650 H   0  0  0  0  0  0  0  0  0  0  0  0
   -5.8095   -4.3150  -26.3608 H   0  0  0  0  0  0  0  0  0  0  0  0
   -6.2336   -5.8283  -25.4910 H   0  0  0  0  0  0  0  0  0  0  0  0
   -7.1840   -3.2165  -24.7573 H   0  0  0  0  0  0  0  0  0  0  0  0
   -9.8263   -3.6298  -24.3776 H   0  0  0  0  0  0  0  0  0  0  0  0
   -8.6790   -1.8970  -22.8382 H   0  0  0  0  0  0  0  0  0  0  0  0
  -10.1361    0.2209  -25.3608 H   0  0  0  0  0  0  0  0  0  0  0  0
  -12.0345    0.9563  -25.4700 H   0  0  0  0  0  0  0  0  0  0  0  0
  -14.0276    0.2271  -23.9355 H   0  0  0  0  0  0  0  0  0  0  0  0
  -13.5233   -1.5044  -22.4666 H   0  0  0  0  0  0  0  0  0  0  0  0
  -11.6416   -1.6741  -21.7032 H   0  0  0  0  0  0  0  0  0  0  0  0
  -11.9242   -2.7739  -23.0950 H   0  0  0  0  0  0  0  0  0  0  0  0
  -10.2477   -1.2109  -21.8324 H   0  0  0  0  0  0  0  0  0  0  0  0
  -10.2782    0.3168  -22.7768 H   0  0  0  0  0  0  0  0  0  0  0  0
   -7.6513   -1.4259  -21.6708 H   0  0  0  0  0  0  0  0  0  0  0  0
   -8.4114   -0.3398  -18.7581 H   0  0  0  0  0  0  0  0  0  0  0  0
   -5.2169    1.4516  -17.5583 H   0  0  0  0  0  0  0  0  0  0  0  0
   -4.3915    1.4384  -19.5098 H   0  0  0  0  0  0  0  0  0  0  0  0
   -4.7316   -0.3536  -22.1390 H   0  0  0  0  0  0  0  0  0  0  0  0
   -6.1596    0.6068  -22.6539 H   0  0  0  0  0  0  0  0  0  0  0  0
   -4.6905    1.4395  -22.0416 H   0  0  0  0  0  0  0  0  0  0  0  0
 20 21  2  0  0  0  0
 19 20  1  0  0  0  0
 21 22  1  0  0  0  0
 18 19  2  0  0  0  0
 22 23  2  0  0  0  0
 18 23  1  0  0  0  0
 17 18  1  0  0  0  0
 23 24  1  0  0  0  0
 15 16  2  0  0  0  0
 15 17  1  0  0  0  0
 14 15  1  0  0  0  0
  8 14  1  0  0  0  0
 12 13  1  0  0  0  0
  8 13  1  0  0  0  0
 11 12  2  0  0  0  0
  7  8  1  0  0  0  0
  8  9  1  0  0  0  0
 10 11  1  0  0  0  0
  6  7  2  3  0  0  0
  5  6  1  0  0  0  0
  9 10  2  0  0  0  0
  2  5  1  0  0  0  0
  2  3  2  0  0  0  0
  1  2  1  0  0  0  0
  2  4  2  0  0  0  0
  1 25  1  0  0  0  0
  1 26  1  0  0  0  0
  1 27  1  0  0  0  0
  5 28  1  0  0  0  0
  6 29  1  0  0  0  0
  7 30  1  0  0  0  0
  9 31  1  0  0  0  0
 10 32  1  0  0  0  0
 11 33  1  0  0  0  0
 12 34  1  0  0  0  0
 13 35  1  0  0  0  0
 13 36  1  0  0  0  0
 14 37  1  0  0  0  0
 14 38  1  0  0  0  0
 17 39  1  0  0  0  0
 19 40  1  0  0  0  0
 21 41  1  0  0  0  0
 22 42  1  0  0  0  0
 24 43  1  0  0  0  0
 24 44  1  0  0  0  0
 24 45  1  0  0  0  0
M  END
> <Chemgauss4>
-13.077501

$$$$
