stable:False satoms:13 tatoms:24 sratio:0.5416666666666666
  -OEChem-07092417393D

 24 24  0     1  0  0  0  0  0999 V2000
    6.9421   -4.4070   26.4511 H   0  0  0  0  0  0  0  0  0  0  0  0
    7.9657   -4.2416   26.0981 C   0  0  0  0  0  0  0  0  0  0  0  0
    8.4891   -5.2102   26.0594 H   0  0  0  0  0  0  0  0  0  0  0  0
    8.5175   -3.6134   26.8142 H   0  0  0  0  0  0  0  0  0  0  0  0
    7.8493   -3.6700   24.8136 N   0  3  0  0  0  0  0  0  0  0  0  0
    8.7243   -2.8730   24.4415 C   0  0  0  0  0  0  0  0  0  0  0  0
    9.3550   -2.1269   24.0954 C   0  0  0  0  0  0  0  0  0  0  0  0
   10.1447   -1.1981   23.7513 C   0  0  0  0  0  0  0  0  0  0  0  0
   11.1419   -0.2004   24.8131 S   0  0  0  0  0  0  0  0  0  0  0  0
   12.3789   -0.3538   23.7057 C   0  0  0  0  0  0  0  0  0  0  0  0
   13.3704   -0.0966   23.9043 H   0  0  0  0  0  0  0  0  0  0  0  0
   12.5138   -1.4418   21.8881 H   0  0  0  0  0  0  0  0  0  0  0  0
   11.8723   -0.9509   22.5843 C   0  0  0  0  0  0  0  0  0  0  0  0
   10.4216   -0.8202   22.5238 C   0  0  0  0  0  0  0  0  0  0  0  0
    9.0947   -0.2853   21.6658 C   0  0  3  0  0  0  0  0  0  0  0  0
    9.0430    0.5925   20.9804 O   0  0  0  0  0  0  0  0  0  0  0  0
    8.0440   -0.6417   21.6226 N   0  0  0  0  0  0  0  0  0  0  0  0
    6.7780    0.2605   19.8627 C   0  0  0  0  0  0  0  0  0  0  0  0
    7.5859   -0.2495   18.5664 S   0  0  0  0  0  0  0  0  0  0  0  0
    6.5796    0.5871   17.6971 N   0  5  0  0  0  0  0  0  0  0  0  0
    5.8210    0.9767   17.3332 H   0  0  0  0  0  0  0  0  0  0  0  0
    5.2672    1.1004   19.6694 H   0  0  0  0  0  0  0  0  0  0  0  0
    5.9211    0.7438   20.4320 C   0  0  0  0  0  0  0  0  0  0  0  0
    5.7628    0.8292   21.5234 H   0  0  0  0  0  0  0  0  0  0  0  0
 20 21  1  0  0  0  0
 19 20  1  0  0  0  0
 18 19  1  0  0  0  0
 22 23  1  0  0  0  0
 18 23  2  0  0  0  0
 23 24  1  0  0  0  0
 16 17  1  0  0  0  0
 15 16  1  0  0  0  0
 15 17  1  0  0  0  0
 14 15  1  0  0  0  0
 12 13  1  0  0  0  0
 13 14  1  0  0  0  0
  8 14  2  0  0  0  0
 10 13  2  0  0  0  0
 10 11  1  0  0  0  0
  9 10  1  0  0  0  0
  7  8  1  0  0  0  0
  8  9  1  0  0  0  0
  6  7  3  0  0  0  0
  5  6  1  0  0  0  0
  2  5  1  0  0  0  0
  2  3  1  0  0  0  0
  1  2  1  0  0  0  0
  2  4  1  0  0  0  0
M  CHG  2   5   1  20  -1
M  END
> <Shapegauss>
-198.043762

$$$$
