REMARK  5 active torsions:
REMARK  status: ('A' for Active; 'I' for Inactive)
REMARK    1  A    between atoms: N_2  and  C_4 
REMARK    2  A    between atoms: C_5  and  C_6 
REMARK    3  A    between atoms: C_10  and  C_11 
REMARK    4  A    between atoms: C_15  and  S_16 
REMARK    5  A    between atoms: S_16  and  N_17 
ROOT
HETATM    1  S   UNL     2       7.586  -0.249  18.566  1.00  0.00     0.050 SA
ENDROOT
BRANCH   1   2
HETATM    2  C   UNL     2       6.778   0.261  19.863  1.00  0.00     0.072 C 
HETATM    3  C   UNL     2       5.921   0.744  20.432  1.00  0.00     0.021 C 
ENDBRANCH   1   2
BRANCH   1   4
HETATM    4  N   UNL     2       6.580   0.587  17.697  1.00  0.00    -0.420 NA
HETATM    5  H   UNL     2       5.821   0.977  17.333  1.00  0.00     0.277 HD
ENDBRANCH   1   4
TORSDOF 5
