stable:False satoms:4 tatoms:24 sratio:0.16666666666666666
  -OEChem-08062412493D

 41 44  0     1  0  0  0  0  0999 V2000
    6.0665   -5.1840   25.8512 C   0  0  0  0  0  0  0  0  0  0  0  0
    7.6060   -4.6627   25.8017 S   0  0  0  0  0  0  0  0  0  0  0  0
    8.5158   -5.8003   25.7790 O   0  0  0  0  0  0  0  0  0  0  0  0
    7.8582   -3.8246   26.9244 O   0  0  0  0  0  0  0  0  0  0  0  0
    7.7438   -3.8343   24.3885 N   0  0  0  0  0  0  0  0  0  0  0  0
    8.5895   -3.1300   24.0129 C   0  0  0  0  0  0  0  0  0  0  0  0
    9.1625   -2.1931   23.5327 C   0  0  0  0  0  0  0  0  0  0  0  0
   10.1625   -1.3463   23.3885 C   0  0  1  0  0  0  0  0  0  0  0  0
   10.7329   -0.3355   24.5449 C   0  0  0  0  0  0  0  0  0  0  0  0
   11.7866   -0.0509   24.6655 C   0  0  0  0  0  0  0  0  0  0  0  0
   12.8680   -0.5097   23.9797 C   0  0  0  0  0  0  0  0  0  0  0  0
   12.6191   -1.4763   23.1052 C   0  0  0  0  0  0  0  0  0  0  0  0
   11.5820   -1.8822   22.8578 C   0  0  0  0  0  0  0  0  0  0  0  0
    9.5682   -0.7951   22.5058 C   0  0  3  0  0  0  0  0  0  0  0  0
    9.0605   -0.0717   21.4434 C   0  0  0  0  0  0  0  0  0  0  0  0
    9.6734    0.8448   21.1192 O   0  0  0  0  0  0  0  0  0  0  0  0
    7.9619   -0.6050   20.9428 N   0  0  0  0  0  0  0  0  0  0  0  0
    7.3027   -0.0216   20.0343 C   0  0  0  0  0  0  0  0  0  0  0  0
    7.4203    0.2060   18.7104 C   0  0  0  0  0  0  0  0  0  0  0  0
    7.2188    0.5364   17.5162 N   0  0  0  0  0  0  0  0  0  0  0  0
    6.1640    0.9598   18.0926 C   0  0  0  0  0  0  0  0  0  0  0  0
    5.5186    1.0732   19.1753 C   0  0  0  0  0  0  0  0  0  0  0  0
    5.9398    0.6110   20.3295 C   0  0  0  0  0  0  0  0  0  0  0  0
    5.3742    0.6335   21.5335 C   0  0  0  0  0  0  0  0  0  0  0  0
    5.9007   -5.7518   26.7786 H   0  0  0  0  0  0  0  0  0  0  0  0
    5.3860   -4.3202   25.8237 H   0  0  0  0  0  0  0  0  0  0  0  0
    5.8711   -5.8325   24.9844 H   0  0  0  0  0  0  0  0  0  0  0  0
    6.9218   -3.2656   24.3583 H   0  0  0  0  0  0  0  0  0  0  0  0
    9.4444   -3.7339   24.2791 H   0  0  0  0  0  0  0  0  0  0  0  0
   10.0196    0.0819   25.2402 H   0  0  0  0  0  0  0  0  0  0  0  0
   11.9905    0.6880   25.4262 H   0  0  0  0  0  0  0  0  0  0  0  0
   13.8609   -0.1144   24.1361 H   0  0  0  0  0  0  0  0  0  0  0  0
   13.4619   -1.9116   22.5887 H   0  0  0  0  0  0  0  0  0  0  0  0
   11.5120   -1.8209   21.7617 H   0  0  0  0  0  0  0  0  0  0  0  0
   11.6146   -2.9381   23.1646 H   0  0  0  0  0  0  0  0  0  0  0  0
    9.0923   -0.1109   23.2237 H   0  0  0  0  0  0  0  0  0  0  0  0
    7.6442   -1.4879   21.2886 H   0  0  0  0  0  0  0  0  0  0  0  0
    4.5652    1.5800   19.1481 H   0  0  0  0  0  0  0  0  0  0  0  0
    4.7573   -0.2676   21.6664 H   0  0  0  0  0  0  0  0  0  0  0  0
    6.1570    0.6589   22.3059 H   0  0  0  0  0  0  0  0  0  0  0  0
    4.7405    1.5281   21.6242 H   0  0  0  0  0  0  0  0  0  0  0  0
 20 21  2  0  0  0  0
 19 20  1  0  0  0  0
 19 21  1  0  0  0  0
 21 22  1  0  0  0  0
 18 19  2  0  0  0  0
 22 23  2  0  0  0  0
 18 23  1  0  0  0  0
 17 18  1  0  0  0  0
 23 24  1  0  0  0  0
 15 16  2  0  0  0  0
 15 17  1  0  0  0  0
 14 15  1  0  0  0  0
  8 14  1  0  0  0  0
  7 14  1  0  0  0  0
 12 13  1  0  0  0  0
  8 13  1  0  0  0  0
 11 12  2  0  0  0  0
  7  8  1  0  0  0  0
  8  9  1  0  0  0  0
 10 11  1  0  0  0  0
  6  7  2  3  0  0  0
  5  6  1  0  0  0  0
  9 10  2  0  0  0  0
  2  5  1  0  0  0  0
  2  3  2  0  0  0  0
  1  2  1  0  0  0  0
  2  4  2  0  0  0  0
  1 25  1  0  0  0  0
  1 26  1  0  0  0  0
  1 27  1  0  0  0  0
  5 28  1  0  0  0  0
  6 29  1  0  0  0  0
  9 30  1  0  0  0  0
 10 31  1  0  0  0  0
 11 32  1  0  0  0  0
 12 33  1  0  0  0  0
 13 34  1  0  0  0  0
 13 35  1  0  0  0  0
 14 36  1  0  0  0  0
 17 37  1  0  0  0  0
 22 38  1  0  0  0  0
 24 39  1  0  0  0  0
 24 40  1  0  0  0  0
 24 41  1  0  0  0  0
M  END
> <Chemgauss4>
-9.370681

$$$$
