stable:False satoms:4 tatoms:24 sratio:0.16666666666666666
  -OEChem-08062412493D

 41 44  0     1  0  0  0  0  0999 V2000
   -6.8567   -5.3046  -26.2660 C   0  0  0  0  0  0  0  0  0  0  0  0
   -8.3672   -4.7332  -26.0763 S   0  0  0  0  0  0  0  0  0  0  0  0
   -9.3042   -5.8403  -25.9386 O   0  0  0  0  0  0  0  0  0  0  0  0
   -8.7044   -3.9090  -27.1869 O   0  0  0  0  0  0  0  0  0  0  0  0
   -8.3388   -3.8740  -24.6751 N   0  0  0  0  0  0  0  0  0  0  0  0
   -9.1214   -3.1358  -24.2335 C   0  0  0  0  0  0  0  0  0  0  0  0
   -9.6152   -2.1720  -23.7199 C   0  0  0  0  0  0  0  0  0  0  0  0
  -10.5700   -1.2907  -23.4965 C   0  0  1  0  0  0  0  0  0  0  0  0
  -11.2217   -0.2843  -24.6130 C   0  0  0  0  0  0  0  0  0  0  0  0
  -12.2732    0.0317  -24.6352 C   0  0  0  0  0  0  0  0  0  0  0  0
  -13.2944   -0.3788  -23.8360 C   0  0  0  0  0  0  0  0  0  0  0  0
  -12.9891   -1.3362  -22.9691 C   0  0  0  0  0  0  0  0  0  0  0  0
  -11.9453   -1.7705  -22.8164 C   0  0  0  0  0  0  0  0  0  0  0  0
   -9.8745   -0.7423  -22.6892 C   0  0  3  0  0  0  0  0  0  0  0  0
   -9.2421   -0.0155  -21.6984 C   0  0  0  0  0  0  0  0  0  0  0  0
   -9.7918    0.9263  -21.3357 O   0  0  0  0  0  0  0  0  0  0  0  0
   -8.1158   -0.5743  -21.2970 N   0  0  0  0  0  0  0  0  0  0  0  0
   -7.3523    0.0048  -20.4712 C   0  0  0  0  0  0  0  0  0  0  0  0
   -7.3308    0.2612  -19.1475 C   0  0  0  0  0  0  0  0  0  0  0  0
   -7.0018    0.6077  -17.9867 N   0  0  0  0  0  0  0  0  0  0  0  0
   -5.9972    0.9858  -18.6737 C   0  0  0  0  0  0  0  0  0  0  0  0
   -5.4594    1.0577  -19.8171 C   0  0  0  0  0  0  0  0  0  0  0  0
   -6.0070    0.5874  -20.9136 C   0  0  0  0  0  0  0  0  0  0  0  0
   -5.5635    0.5687  -22.1677 C   0  0  0  0  0  0  0  0  0  0  0  0
   -6.8011   -5.8951  -27.1924 H   0  0  0  0  0  0  0  0  0  0  0  0
   -6.1511   -4.4628  -26.3249 H   0  0  0  0  0  0  0  0  0  0  0  0
   -6.5958   -5.9425  -25.4086 H   0  0  0  0  0  0  0  0  0  0  0  0
   -7.5011   -3.3316  -24.7388 H   0  0  0  0  0  0  0  0  0  0  0  0
  -10.0163   -3.7168  -24.4006 H   0  0  0  0  0  0  0  0  0  0  0  0
  -10.5688    0.0965  -25.3844 H   0  0  0  0  0  0  0  0  0  0  0  0
  -12.5293    0.7622  -25.3883 H   0  0  0  0  0  0  0  0  0  0  0  0
  -14.2855    0.0451  -23.9023 H   0  0  0  0  0  0  0  0  0  0  0  0
  -13.7891   -1.7341  -22.3625 H   0  0  0  0  0  0  0  0  0  0  0  0
  -11.7648   -1.6906  -21.7343 H   0  0  0  0  0  0  0  0  0  0  0  0
  -12.0400   -2.8304  -23.0951 H   0  0  0  0  0  0  0  0  0  0  0  0
   -9.4519   -0.0876  -23.4656 H   0  0  0  0  0  0  0  0  0  0  0  0
   -7.8609   -1.4734  -21.6529 H   0  0  0  0  0  0  0  0  0  0  0  0
   -4.4933    1.5340  -19.8953 H   0  0  0  0  0  0  0  0  0  0  0  0
   -4.9904   -0.3541  -22.3408 H   0  0  0  0  0  0  0  0  0  0  0  0
   -6.4181    0.6046  -22.8593 H   0  0  0  0  0  0  0  0  0  0  0  0
   -4.9153    1.4406  -22.3403 H   0  0  0  0  0  0  0  0  0  0  0  0
 20 21  2  0  0  0  0
 19 20  1  0  0  0  0
 19 21  1  0  0  0  0
 21 22  1  0  0  0  0
 18 19  2  0  0  0  0
 22 23  2  0  0  0  0
 18 23  1  0  0  0  0
 17 18  1  0  0  0  0
 23 24  1  0  0  0  0
 15 16  2  0  0  0  0
 15 17  1  0  0  0  0
 14 15  1  0  0  0  0
  8 14  1  0  0  0  0
  7 14  1  0  0  0  0
 12 13  1  0  0  0  0
  8 13  1  0  0  0  0
 11 12  2  0  0  0  0
  7  8  1  0  0  0  0
  8  9  1  0  0  0  0
 10 11  1  0  0  0  0
  6  7  2  3  0  0  0
  5  6  1  0  0  0  0
  9 10  2  0  0  0  0
  2  5  1  0  0  0  0
  2  3  2  0  0  0  0
  1  2  1  0  0  0  0
  2  4  2  0  0  0  0
  1 25  1  0  0  0  0
  1 26  1  0  0  0  0
  1 27  1  0  0  0  0
  5 28  1  0  0  0  0
  6 29  1  0  0  0  0
  9 30  1  0  0  0  0
 10 31  1  0  0  0  0
 11 32  1  0  0  0  0
 12 33  1  0  0  0  0
 13 34  1  0  0  0  0
 13 35  1  0  0  0  0
 14 36  1  0  0  0  0
 17 37  1  0  0  0  0
 22 38  1  0  0  0  0
 24 39  1  0  0  0  0
 24 40  1  0  0  0  0
 24 41  1  0  0  0  0
M  END
> <Chemgauss4>
-9.175078

$$$$
