stable:False satoms:10 tatoms:24 sratio:0.4166666666666667
  -OEChem-08062417353D

 43 45  0     1  0  0  0  0  0999 V2000
    6.3355   -5.2203   26.2769 C   0  0  0  0  0  0  0  0  0  0  0  0
    7.9320   -4.6200   26.0555 S   0  0  0  0  0  0  0  0  0  0  0  0
    8.8254   -5.7545   25.9883 O   0  0  0  0  0  0  0  0  0  0  0  0
    8.2267   -3.7834   27.1594 O   0  0  0  0  0  0  0  0  0  0  0  0
    7.8765   -3.8041   24.6682 N   0  0  0  0  0  0  0  0  0  0  0  0
    8.7976   -3.1576   24.2226 C   0  0  0  0  0  0  0  0  0  0  0  0
    9.2776   -2.1342   23.6349 C   0  0  0  0  0  0  0  0  0  0  0  0
   10.1619   -1.2797   23.4946 C   0  0  1  0  0  0  0  0  0  0  0  0
   10.7636   -0.1375   24.6809 C   0  0  0  0  0  0  0  0  0  0  0  0
   11.7606    0.1454   24.6537 C   0  0  0  0  0  0  0  0  0  0  0  0
   12.8975   -0.2091   23.9262 C   0  0  0  0  0  0  0  0  0  0  0  0
   12.5888   -1.3642   23.0322 C   0  0  0  0  0  0  0  0  0  0  0  0
   11.7448   -1.8447   22.8306 C   0  0  0  0  0  0  0  0  0  0  0  0
    9.6273   -0.7240   22.6093 C   0  0  2  0  0  0  0  0  0  0  0  0
    9.0077   -0.0453   21.5907 C   0  0  0  0  0  0  0  0  0  0  0  0
    9.5064    0.9182   21.2645 O   0  0  0  0  0  0  0  0  0  0  0  0
    7.9045   -0.6501   21.2076 N   0  0  0  0  0  0  0  0  0  0  0  0
    7.2286   -0.1745   20.2642 C   0  0  0  0  0  0  0  0  0  0  0  0
    7.3305   -0.0146   18.9358 C   0  0  0  0  0  0  0  0  0  0  0  0
    6.9530    0.3076   17.8460 N   0  0  0  0  0  0  0  0  0  0  0  0
    5.7486    0.8570   18.2885 C   0  0  0  0  0  0  0  0  0  0  0  0
    5.2962    0.9048   19.3945 C   0  0  0  0  0  0  0  0  0  0  0  0
    5.8092    0.4603   20.5357 C   0  0  0  0  0  0  0  0  0  0  0  0
    5.1959    0.5311   21.9300 C   0  0  0  0  0  0  0  0  0  0  0  0
    6.2862   -5.7961   27.2128 H   0  0  0  0  0  0  0  0  0  0  0  0
    5.6307   -4.3772   26.3277 H   0  0  0  0  0  0  0  0  0  0  0  0
    6.0681   -5.8712   25.4314 H   0  0  0  0  0  0  0  0  0  0  0  0
    7.1161   -3.1616   24.7627 H   0  0  0  0  0  0  0  0  0  0  0  0
    9.6652   -3.7653   24.4329 H   0  0  0  0  0  0  0  0  0  0  0  0
   10.1022    0.2673   25.4326 H   0  0  0  0  0  0  0  0  0  0  0  0
   11.9757    0.9168   25.3783 H   0  0  0  0  0  0  0  0  0  0  0  0
   13.8578    0.2796   23.9991 H   0  0  0  0  0  0  0  0  0  0  0  0
   13.4484   -1.7504   22.5045 H   0  0  0  0  0  0  0  0  0  0  0  0
   11.6407   -1.8452   21.7356 H   0  0  0  0  0  0  0  0  0  0  0  0
   11.8812   -2.8766   23.1865 H   0  0  0  0  0  0  0  0  0  0  0  0
   10.1372   -1.3713   21.8805 H   0  0  0  0  0  0  0  0  0  0  0  0
    7.6056   -1.4865   21.6670 H   0  0  0  0  0  0  0  0  0  0  0  0
    8.3211   -0.3941   18.7335 H   0  0  0  0  0  0  0  0  0  0  0  0
    5.1358    1.3043   17.5198 H   0  0  0  0  0  0  0  0  0  0  0  0
    4.3292    1.3786   19.4771 H   0  0  0  0  0  0  0  0  0  0  0  0
    4.6002   -0.3748   22.1156 H   0  0  0  0  0  0  0  0  0  0  0  0
    5.9976    0.6026   22.6798 H   0  0  0  0  0  0  0  0  0  0  0  0
    4.5477    1.4170   22.0008 H   0  0  0  0  0  0  0  0  0  0  0  0
 20 21  2  0  0  0  0
 19 20  1  0  0  0  0
 21 22  1  0  0  0  0
 18 19  2  0  0  0  0
 22 23  2  0  0  0  0
 18 23  1  0  0  0  0
 17 18  1  0  0  0  0
 23 24  1  0  0  0  0
 15 16  2  0  0  0  0
 15 17  1  0  0  0  0
 14 15  1  0  0  0  0
  8 14  1  0  0  0  0
  7 14  1  0  0  0  0
 12 13  1  0  0  0  0
  8 13  1  0  0  0  0
 11 12  2  0  0  0  0
  7  8  1  0  0  0  0
  8  9  1  0  0  0  0
 10 11  1  0  0  0  0
  6  7  2  3  0  0  0
  5  6  1  0  0  0  0
  9 10  2  0  0  0  0
  2  5  1  0  0  0  0
  2  3  2  0  0  0  0
  1  2  1  0  0  0  0
  2  4  2  0  0  0  0
  1 25  1  0  0  0  0
  1 26  1  0  0  0  0
  1 27  1  0  0  0  0
  5 28  1  0  0  0  0
  6 29  1  0  0  0  0
  9 30  1  0  0  0  0
 10 31  1  0  0  0  0
 11 32  1  0  0  0  0
 12 33  1  0  0  0  0
 13 34  1  0  0  0  0
 13 35  1  0  0  0  0
 14 36  1  0  0  0  0
 17 37  1  0  0  0  0
 19 38  1  0  0  0  0
 21 39  1  0  0  0  0
 22 40  1  0  0  0  0
 24 41  1  0  0  0  0
 24 42  1  0  0  0  0
 24 43  1  0  0  0  0
M  END
> <Chemgauss4>
-13.306993

$$$$
