REMARK  7 active torsions:
REMARK  status: ('A' for Active; 'I' for Inactive)
REMARK    1  A    between atoms: N_5  and  C_8 
REMARK    2  A    between atoms: C_8  and  C_9 
REMARK    3  A    between atoms: C_9  and  C_10 
REMARK    4  A    between atoms: C_10  and  C_13 
REMARK    5  A    between atoms: C_10  and  O_12 
REMARK    6  A    between atoms: C_13  and  C_14 
REMARK    7  A    between atoms: N_15  and  C_17 
ROOT
HETATM    1  H   UNL     1       7.329  -4.797  26.146  1.00  0.00     0.146 HD
HETATM    2  N   UNL     1       8.288  -4.549  26.152  1.00  0.00    -0.439 N 
HETATM    3  H   UNL     1       9.050  -5.162  25.884  1.00  0.00     0.146 HD
HETATM    4  H   UNL     1       8.601  -3.747  26.717  1.00  0.00     0.146 HD
ENDROOT
TORSDOF 7
