stable:False satoms:16 tatoms:24 sratio:0.6666666666666666
  -OEChem-07092417383D

 24 23  0     0  0  0  0  0  0999 V2000
    7.3291   -4.7967   26.1456 H   0  0  0  0  0  0  0  0  0  0  0  0
    8.2876   -4.5491   26.1516 N   0  0  0  0  0  0  0  0  0  0  0  0
    9.0503   -5.1616   25.8844 H   0  0  0  0  0  0  0  0  0  0  0  0
    8.6015   -3.7469   26.7171 H   0  0  0  0  0  0  0  0  0  0  0  0
    7.8335   -2.9402   24.4761 N   0  3  0  0  0  0  0  0  0  0  0  0
    8.6781   -2.8727   24.3129 C   0  0  0  0  0  0  0  0  0  0  0  0
    9.2752   -2.0670   23.6514 C   0  0  0  0  0  0  0  0  0  0  0  0
   10.2629   -1.3886   23.1064 C   0  0  0  0  0  0  0  0  0  0  0  0
   11.5276    0.0584   24.1629 H   0  0  0  0  0  0  0  0  0  0  0  0
   13.0166   -0.6911   24.3681 H   0  0  0  0  0  0  0  0  0  0  0  0
   12.2396   -0.6125   23.6657 C   0  0  0  0  0  0  0  0  0  0  0  0
   12.6951   -0.3671   22.7240 H   0  0  0  0  0  0  0  0  0  0  0  0
   11.4918   -1.7920   23.2804 O   0  0  0  0  0  0  0  0  0  0  0  0
    9.7291   -0.6210   22.3716 C   0  0  0  0  0  0  0  0  0  0  0  0
    8.9798    0.0604   21.4352 C   0  0  0  0  0  0  0  0  0  0  0  0
    9.3605    0.9915   21.0762 H   0  0  0  0  0  0  0  0  0  0  0  0
    7.9056   -0.5566   21.1021 N   0  0  0  0  0  0  0  0  0  0  0  0
    7.2079    0.0160   20.3806 C   0  0  0  0  0  0  0  0  0  0  0  0
    6.9598    0.3395   18.7921 C   0  0  0  0  0  0  0  0  0  0  0  0
    7.5129    0.2816   17.9150 H   0  0  0  0  0  0  0  0  0  0  0  0
    5.7287    0.7483   19.1228 C   0  0  0  0  0  0  0  0  0  0  0  0
    4.9058    1.1536   18.5743 H   0  0  0  0  0  0  0  0  0  0  0  0
    5.7951    0.5333   20.4799 C   0  0  0  0  0  0  0  0  0  0  0  0
    5.2101    0.6901   21.4002 H   0  0  0  0  0  0  0  0  0  0  0  0
 19 20  1  0  0  0  0
 21 22  1  0  0  0  0
 19 21  2  0  0  0  0
 18 19  1  0  0  0  0
 21 23  1  0  0  0  0
 18 23  2  0  0  0  0
 17 18  1  0  0  0  0
 23 24  1  0  0  0  0
 15 16  1  0  0  0  0
 15 17  1  0  0  0  0
 14 15  2  0  0  0  0
  8 14  1  0  0  0  0
 11 12  1  0  0  0  0
  8 13  1  0  0  0  0
  7  8  2  0  0  0  0
 11 13  1  0  0  0  0
  6  7  1  0  0  0  0
  9 11  1  0  0  0  0
 10 11  1  0  0  0  0
  5  6  1  0  0  0  0
  2  3  1  0  0  0  0
  1  2  1  0  0  0  0
  2  4  1  0  0  0  0
M  CHG  1   5   1
M  END
> <Shapegauss>
-170.001266

$$$$
