stable:False satoms:10 tatoms:24 sratio:0.4166666666666667
  -OEChem-07092417393D

 24 23  0     0  0  0  0  0  0999 V2000
    7.2490   -4.7214   26.4453 H   0  0  0  0  0  0  0  0  0  0  0  0
    8.1799   -4.1770   26.2405 C   0  0  0  0  0  0  0  0  0  0  0  0
    8.9972   -4.9094   26.1906 H   0  0  0  0  0  0  0  0  0  0  0  0
    8.3954   -3.4681   27.0595 H   0  0  0  0  0  0  0  0  0  0  0  0
    7.9627   -3.4530   25.0174 N   0  0  0  0  0  0  0  0  0  0  0  0
    8.5502   -2.7887   24.2504 C   0  0  0  0  0  0  0  0  0  0  0  0
    8.8175   -2.0486   23.4480 N   0  0  0  0  0  0  0  0  0  0  0  0
    9.7958   -1.2651   23.0713 C   0  0  0  0  0  0  0  0  0  0  0  0
   11.0157   -1.0292   23.4894 C   0  0  0  0  0  0  0  0  0  0  0  0
   12.8490   -0.3549   23.7882 C   0  0  0  0  0  0  0  0  0  0  0  0
   13.7163    0.1355   24.0742 O   0  0  0  0  0  0  0  0  0  0  0  0
   12.6055   -1.8430   22.5081 H   0  0  0  0  0  0  0  0  0  0  0  0
   12.1493   -1.1624   23.2052 C   0  0  0  0  0  0  0  0  0  0  0  0
    9.8167   -0.5276   22.0240 N   0  0  0  0  0  0  0  0  0  0  0  0
    8.7600    0.0081   21.8422 N   0  0  0  0  0  0  0  0  0  0  0  0
    9.1990    0.7895   19.8451 O   0  0  0  0  0  0  0  0  0  0  0  0
    7.8033   -0.1457   21.1301 N   0  0  0  0  0  0  0  0  0  0  0  0
    6.9676    0.4635   19.0217 C   0  0  0  0  0  0  0  0  0  0  0  0
    8.0347    0.3625   19.9002 C   0  0  0  0  0  0  0  0  0  0  0  0
    7.1058    0.4849   17.9520 H   0  0  0  0  0  0  0  0  0  0  0  0
    4.9408    0.8644   18.7979 H   0  0  0  0  0  0  0  0  0  0  0  0
    5.7055    0.6155   19.4894 C   0  0  0  0  0  0  0  0  0  0  0  0
    5.5047    0.4845   20.7662 C   0  0  0  0  0  2  0  0  0  0  0  0
    5.4626    0.3955   21.7399 H   0  0  0  0  0  0  0  0  0  0  0  0
 18 20  1  0  0  0  0
 21 22  1  0  0  0  0
 18 22  2  0  0  0  0
 18 19  1  0  0  0  0
 22 23  1  0  0  0  0
 16 19  2  0  0  0  0
 17 19  1  0  0  0  0
 23 24  1  0  0  0  0
 15 17  2  3  0  0  0
 14 15  1  0  0  0  0
  8 14  2  3  0  0  0
 12 13  1  0  0  0  0
  7  8  1  0  0  0  0
  8  9  1  0  0  0  0
  9 13  2  0  0  0  0
 10 13  1  0  0  0  0
  6  7  2  0  0  0  0
 10 11  1  0  0  0  0
  5  6  1  0  0  0  0
  2  5  1  0  0  0  0
  2  3  1  0  0  0  0
  1  2  1  0  0  0  0
  2  4  1  0  0  0  0
M  END
> <Shapegauss>
-184.324097

$$$$
