MODEL 1
REMARK VINA RESULT:    -5.087      0.000      0.000
REMARK INTER + INTRA:          -9.310
REMARK INTER:                  -8.358
REMARK INTRA:                  -0.952
REMARK UNBOUND:                -0.952
REMARK  11 active torsions:
REMARK  status: ('A' for Active; 'I' for Inactive)
REMARK    1  A    between atoms: N_2  and  C_4 
REMARK    2  A    between atoms: C_4  and  N_5 
REMARK    3  A    between atoms: N_5  and  C_7 
REMARK    4  A    between atoms: C_7  and  N_12 
REMARK    5  A    between atoms: C_7  and  C_8 
REMARK    6  A    between atoms: C_8  and  C_11 
REMARK    7  A    between atoms: C_9  and  C_11 
REMARK    8  A    between atoms: N_12  and  N_14 
REMARK    9  A    between atoms: N_14  and  N_17 
REMARK       I    between atoms: N_17  and  C_20 
REMARK   10  A    between atoms: C_19  and  C_21 
REMARK   11  A    between atoms: C_19  and  C_20 
ROOT
HETATM    1  C   UNL     1       9.766  14.684   2.448  1.00  0.00     0.129 C 
ENDROOT
BRANCH   1   2
HETATM    2  N   UNL     1      10.816  14.773   3.225  1.00  0.00    -0.293 N 
ATOM      3  HN  UNL     1      11.560  14.179   2.861  1.00  0.00     0.178 HD
BRANCH   2   4
HETATM    4  C   UNL     1      11.171  15.286   4.160  1.00  0.00     0.048 C 
BRANCH   4   5
HETATM    5  N   UNL     1      11.343  16.063   5.020  1.00  0.00    -0.347 N 
HETATM    6  C   UNL     1      10.943  17.391   5.402  1.00  0.00     0.157 C 
ATOM      7  HN  UNL     1      11.978  15.676   5.717  1.00  0.00     0.170 HD
ENDBRANCH   4   5
ENDBRANCH   2   4
ENDBRANCH   1   2
BRANCH   1   8
HETATM    8  N   UNL     1       9.685  15.083   1.234  1.00  0.00    -0.270 N 
ATOM      9  HN  UNL     1       9.829  14.482   0.422  1.00  0.00     0.190 HD
BRANCH   8  10
HETATM   10  N   UNL     1       9.418  16.250   1.171  1.00  0.00    -0.238 N 
ATOM     11  HN  UNL     1       9.166  16.623   2.086  1.00  0.00     0.208 HD
BRANCH  10  12
HETATM   12  N   UNL     1       9.367  17.099   0.321  1.00  0.00    -0.252 N 
HETATM   13  C   UNL     1       9.552  18.325   0.858  1.00  0.00     0.261 C 
HETATM   14  O   UNL     1       9.782  18.211   2.073  1.00  0.00    -0.267 OA
ATOM     15  HN  UNL     1       9.207  16.919  -0.669  1.00  0.00     0.191 HD
BRANCH  13  16
HETATM   16  C   UNL     1       9.311  19.432   0.061  1.00  0.00     0.083 C 
BRANCH  16  17
HETATM   17  C   UNL     1       8.049  19.740  -0.326  1.00  0.00     0.045 C 
HETATM   18  C   UNL     1       7.167  19.979   0.597  1.00  0.00    -0.047 C 
ENDBRANCH  16  17
ENDBRANCH  13  16
ENDBRANCH  10  12
ENDBRANCH   8  10
ENDBRANCH   1   8
BRANCH   1  19
HETATM   19  C   UNL     1       8.521  14.305   2.603  1.00  0.00     0.053 C 
BRANCH  19  20
HETATM   20  C   UNL     1       7.818  13.363   2.602  1.00  0.00     0.045 C 
BRANCH  20  21
HETATM   21  C   UNL     1       8.092  12.605   3.514  1.00  0.00     0.258 C 
HETATM   22  O   UNL     1       8.658  11.945   4.078  1.00  0.00    -0.302 OA
ENDBRANCH  20  21
ENDBRANCH  19  20
ENDBRANCH   1  19
TORSDOF 11
ENDMDL
MODEL 2
REMARK VINA RESULT:    -5.009     27.294     29.475
REMARK INTER + INTRA:          -9.182
REMARK INTER:                  -8.195
REMARK INTRA:                  -0.988
REMARK UNBOUND:                -0.952
REMARK  11 active torsions:
REMARK  status: ('A' for Active; 'I' for Inactive)
REMARK    1  A    between atoms: N_2  and  C_4 
REMARK    2  A    between atoms: C_4  and  N_5 
REMARK    3  A    between atoms: N_5  and  C_7 
REMARK    4  A    between atoms: C_7  and  N_12 
REMARK    5  A    between atoms: C_7  and  C_8 
REMARK    6  A    between atoms: C_8  and  C_11 
REMARK    7  A    between atoms: C_9  and  C_11 
REMARK    8  A    between atoms: N_12  and  N_14 
REMARK    9  A    between atoms: N_14  and  N_17 
REMARK       I    between atoms: N_17  and  C_20 
REMARK   10  A    between atoms: C_19  and  C_21 
REMARK   11  A    between atoms: C_19  and  C_20 
ROOT
HETATM    1  C   UNL     1       8.010  -4.536  23.864  1.00  0.00     0.129 C 
ENDROOT
BRANCH   1   2
HETATM    2  N   UNL     1       8.336  -4.591  25.131  1.00  0.00    -0.293 N 
ATOM      3  HN  UNL     1       8.823  -3.735  25.393  1.00  0.00     0.178 HD
BRANCH   2   4
HETATM    4  C   UNL     1       8.258  -5.267  26.025  1.00  0.00     0.048 C 
BRANCH   4   5
HETATM    5  N   UNL     1       7.869  -5.846  26.967  1.00  0.00    -0.347 N 
HETATM    6  C   UNL     1       6.826  -5.769  27.955  1.00  0.00     0.157 C 
ATOM      7  HN  UNL     1       8.455  -6.662  27.141  1.00  0.00     0.170 HD
ENDBRANCH   4   5
ENDBRANCH   2   4
ENDBRANCH   1   2
BRANCH   1   8
HETATM    8  N   UNL     1       8.317  -3.604  23.041  1.00  0.00    -0.270 N 
ATOM      9  HN  UNL     1       7.805  -3.406  22.181  1.00  0.00     0.190 HD
BRANCH   8  10
HETATM   10  N   UNL     1       9.280  -2.993  23.409  1.00  0.00    -0.238 N 
ATOM     11  HN  UNL     1       9.771  -3.486  24.155  1.00  0.00     0.208 HD
BRANCH  10  12
HETATM   12  N   UNL     1       9.825  -1.956  23.136  1.00  0.00    -0.252 N 
HETATM   13  C   UNL     1       9.865  -1.140  24.212  1.00  0.00     0.261 C 
HETATM   14  O   UNL     1       9.379  -1.727  25.191  1.00  0.00    -0.267 OA
ATOM     15  HN  UNL     1      10.204  -1.724  22.219  1.00  0.00     0.191 HD
BRANCH  13  16
HETATM   16  C   UNL     1      10.262   0.174  24.022  1.00  0.00     0.083 C 
BRANCH  16  17
HETATM   17  C   UNL     1      11.539   0.464  23.672  1.00  0.00     0.045 C 
HETATM   18  C   UNL     1      12.494   0.066  24.458  1.00  0.00    -0.047 C 
ENDBRANCH  16  17
ENDBRANCH  13  16
ENDBRANCH  10  12
ENDBRANCH   8  10
ENDBRANCH   1   8
BRANCH   1  19
HETATM   19  C   UNL     1       7.256  -5.251  23.063  1.00  0.00     0.053 C 
BRANCH  19  20
HETATM   20  C   UNL     1       7.295  -6.042  22.195  1.00  0.00     0.045 C 
BRANCH  20  21
HETATM   21  C   UNL     1       6.508  -5.764  21.308  1.00  0.00     0.258 C 
HETATM   22  O   UNL     1       5.821  -5.201  20.775  1.00  0.00    -0.302 OA
ENDBRANCH  20  21
ENDBRANCH  19  20
ENDBRANCH   1  19
TORSDOF 11
ENDMDL
MODEL 3
REMARK VINA RESULT:    -4.983     23.833     26.697
REMARK INTER + INTRA:          -9.139
REMARK INTER:                  -8.252
REMARK INTRA:                  -0.887
REMARK UNBOUND:                -0.952
REMARK  11 active torsions:
REMARK  status: ('A' for Active; 'I' for Inactive)
REMARK    1  A    between atoms: N_2  and  C_4 
REMARK    2  A    between atoms: C_4  and  N_5 
REMARK    3  A    between atoms: N_5  and  C_7 
REMARK    4  A    between atoms: C_7  and  N_12 
REMARK    5  A    between atoms: C_7  and  C_8 
REMARK    6  A    between atoms: C_8  and  C_11 
REMARK    7  A    between atoms: C_9  and  C_11 
REMARK    8  A    between atoms: N_12  and  N_14 
REMARK    9  A    between atoms: N_14  and  N_17 
REMARK       I    between atoms: N_17  and  C_20 
REMARK   10  A    between atoms: C_19  and  C_21 
REMARK   11  A    between atoms: C_19  and  C_20 
ROOT
HETATM    1  C   UNL     1      10.362  -1.708  23.029  1.00  0.00     0.129 C 
ENDROOT
BRANCH   1   2
HETATM    2  N   UNL     1       9.560  -2.726  23.212  1.00  0.00    -0.293 N 
ATOM      3  HN  UNL     1       9.693  -3.402  22.460  1.00  0.00     0.178 HD
BRANCH   2   4
HETATM    4  C   UNL     1       8.774  -3.103  23.921  1.00  0.00     0.048 C 
BRANCH   4   5
HETATM    5  N   UNL     1       8.206  -3.690  24.762  1.00  0.00    -0.347 N 
HETATM    6  C   UNL     1       6.927  -3.711  25.419  1.00  0.00     0.157 C 
ATOM      7  HN  UNL     1       8.809  -4.414  25.150  1.00  0.00     0.170 HD
ENDBRANCH   4   5
ENDBRANCH   2   4
ENDBRANCH   1   2
BRANCH   1   8
HETATM    8  N   UNL     1      10.660  -1.169  21.907  1.00  0.00    -0.270 N 
ATOM      9  HN  UNL     1      11.610  -0.939  21.614  1.00  0.00     0.190 HD
BRANCH   8  10
HETATM   10  N   UNL     1       9.682  -0.968  21.242  1.00  0.00    -0.238 N 
ATOM     11  HN  UNL     1       9.128  -1.817  21.131  1.00  0.00     0.208 HD
BRANCH  10  12
HETATM   12  N   UNL     1       9.179  -0.037  20.671  1.00  0.00    -0.252 N 
HETATM   13  C   UNL     1       7.833  -0.156  20.655  1.00  0.00     0.261 C 
HETATM   14  O   UNL     1       7.503  -1.169  21.291  1.00  0.00    -0.267 OA
ATOM     15  HN  UNL     1       9.697   0.736  20.255  1.00  0.00     0.191 HD
BRANCH  13  16
HETATM   16  C   UNL     1       7.109   0.712  19.854  1.00  0.00     0.083 C 
BRANCH  16  17
HETATM   17  C   UNL     1       6.733   0.345  18.605  1.00  0.00     0.045 C 
HETATM   18  C   UNL     1       5.467   0.373  18.314  1.00  0.00    -0.047 C 
ENDBRANCH  16  17
ENDBRANCH  13  16
ENDBRANCH  10  12
ENDBRANCH   8  10
ENDBRANCH   1   8
BRANCH   1  19
HETATM   19  C   UNL     1      11.156  -0.998  23.793  1.00  0.00     0.053 C 
BRANCH  19  20
HETATM   20  C   UNL     1      11.821  -0.028  23.814  1.00  0.00     0.045 C 
BRANCH  20  21
HETATM   21  C   UNL     1      12.887  -0.234  24.364  1.00  0.00     0.258 C 
HETATM   22  O   UNL     1      13.840  -0.619  24.499  1.00  0.00    -0.302 OA
ENDBRANCH  20  21
ENDBRANCH  19  20
ENDBRANCH   1  19
TORSDOF 11
ENDMDL
MODEL 4
REMARK VINA RESULT:    -4.953     33.460     35.533
REMARK INTER + INTRA:          -9.089
REMARK INTER:                  -8.411
REMARK INTRA:                  -0.678
REMARK UNBOUND:                -0.952
REMARK  11 active torsions:
REMARK  status: ('A' for Active; 'I' for Inactive)
REMARK    1  A    between atoms: N_2  and  C_4 
REMARK    2  A    between atoms: C_4  and  N_5 
REMARK    3  A    between atoms: N_5  and  C_7 
REMARK    4  A    between atoms: C_7  and  N_12 
REMARK    5  A    between atoms: C_7  and  C_8 
REMARK    6  A    between atoms: C_8  and  C_11 
REMARK    7  A    between atoms: C_9  and  C_11 
REMARK    8  A    between atoms: N_12  and  N_14 
REMARK    9  A    between atoms: N_14  and  N_17 
REMARK       I    between atoms: N_17  and  C_20 
REMARK   10  A    between atoms: C_19  and  C_21 
REMARK   11  A    between atoms: C_19  and  C_20 
ROOT
HETATM    1  C   UNL     1       0.070 -15.620   8.897  1.00  0.00     0.129 C 
ENDROOT
BRANCH   1   2
HETATM    2  N   UNL     1      -0.086 -15.155   7.683  1.00  0.00    -0.293 N 
ATOM      3  HN  UNL     1       0.825 -14.911   7.293  1.00  0.00     0.178 HD
BRANCH   2   4
HETATM    4  C   UNL     1      -0.887 -14.934   6.927  1.00  0.00     0.048 C 
BRANCH   4   5
HETATM    5  N   UNL     1      -1.802 -14.468   6.361  1.00  0.00    -0.347 N 
HETATM    6  C   UNL     1      -3.034 -14.871   5.738  1.00  0.00     0.157 C 
ATOM      7  HN  UNL     1      -1.687 -13.458   6.286  1.00  0.00     0.170 HD
ENDBRANCH   4   5
ENDBRANCH   2   4
ENDBRANCH   1   2
BRANCH   1   8
HETATM    8  N   UNL     1       1.142 -16.122   9.385  1.00  0.00    -0.270 N 
ATOM      9  HN  UNL     1       1.542 -15.855  10.285  1.00  0.00     0.190 HD
BRANCH   8  10
HETATM   10  N   UNL     1       1.616 -16.945   8.654  1.00  0.00    -0.238 N 
ATOM     11  HN  UNL     1       1.024 -17.103   7.838  1.00  0.00     0.208 HD
BRANCH  10  12
HETATM   12  N   UNL     1       2.601 -17.634   8.621  1.00  0.00    -0.252 N 
HETATM   13  C   UNL     1       2.272 -18.942   8.706  1.00  0.00     0.261 C 
HETATM   14  O   UNL     1       1.036 -19.054   8.733  1.00  0.00    -0.267 OA
ATOM     15  HN  UNL     1       3.553 -17.280   8.540  1.00  0.00     0.191 HD
BRANCH  13  16
HETATM   16  C   UNL     1       3.290 -19.861   8.900  1.00  0.00     0.083 C 
BRANCH  16  17
HETATM   17  C   UNL     1       3.527 -20.830   7.982  1.00  0.00     0.045 C 
HETATM   18  C   UNL     1       3.047 -22.016   8.207  1.00  0.00    -0.047 C 
ENDBRANCH  16  17
ENDBRANCH  13  16
ENDBRANCH  10  12
ENDBRANCH   8  10
ENDBRANCH   1   8
BRANCH   1  19
HETATM   19  C   UNL     1      -0.719 -15.832   9.922  1.00  0.00     0.053 C 
BRANCH  19  20
HETATM   20  C   UNL     1      -1.249 -16.680  10.541  1.00  0.00     0.045 C 
BRANCH  20  21
HETATM   21  C   UNL     1      -1.093 -16.517  11.737  1.00  0.00     0.258 C 
HETATM   22  O   UNL     1      -1.347 -16.303  12.719  1.00  0.00    -0.302 OA
ENDBRANCH  20  21
ENDBRANCH  19  20
ENDBRANCH   1  19
TORSDOF 11
ENDMDL
MODEL 5
REMARK VINA RESULT:    -4.941     24.504     27.785
REMARK INTER + INTRA:          -9.071
REMARK INTER:                  -8.313
REMARK INTRA:                  -0.757
REMARK UNBOUND:                -0.952
REMARK  11 active torsions:
REMARK  status: ('A' for Active; 'I' for Inactive)
REMARK    1  A    between atoms: N_2  and  C_4 
REMARK    2  A    between atoms: C_4  and  N_5 
REMARK    3  A    between atoms: N_5  and  C_7 
REMARK    4  A    between atoms: C_7  and  N_12 
REMARK    5  A    between atoms: C_7  and  C_8 
REMARK    6  A    between atoms: C_8  and  C_11 
REMARK    7  A    between atoms: C_9  and  C_11 
REMARK    8  A    between atoms: N_12  and  N_14 
REMARK    9  A    between atoms: N_14  and  N_17 
REMARK       I    between atoms: N_17  and  C_20 
REMARK   10  A    between atoms: C_19  and  C_21 
REMARK   11  A    between atoms: C_19  and  C_20 
ROOT
HETATM    1  C   UNL     1      10.247  -0.815  22.461  1.00  0.00     0.129 C 
ENDROOT
BRANCH   1   2
HETATM    2  N   UNL     1       9.574  -0.004  21.684  1.00  0.00    -0.293 N 
ATOM      3  HN  UNL     1       9.828   0.960  21.898  1.00  0.00     0.178 HD
BRANCH   2   4
HETATM    4  C   UNL     1       8.811  -0.016  20.859  1.00  0.00     0.048 C 
BRANCH   4   5
HETATM    5  N   UNL     1       7.805  -0.052  20.258  1.00  0.00    -0.347 N 
HETATM    6  C   UNL     1       7.294   0.246  18.947  1.00  0.00     0.157 C 
ATOM      7  HN  UNL     1       7.057  -0.407  20.852  1.00  0.00     0.170 HD
ENDBRANCH   4   5
ENDBRANCH   2   4
ENDBRANCH   1   2
BRANCH   1   8
HETATM    8  N   UNL     1      10.268  -2.093  22.387  1.00  0.00    -0.270 N 
ATOM      9  HN  UNL     1      11.019  -2.631  21.953  1.00  0.00     0.190 HD
BRANCH   8  10
HETATM   10  N   UNL     1       9.295  -2.578  22.893  1.00  0.00    -0.238 N 
ATOM     11  HN  UNL     1       9.248  -2.365  23.889  1.00  0.00     0.208 HD
BRANCH  10  12
HETATM   12  N   UNL     1       8.360  -3.249  22.543  1.00  0.00    -0.252 N 
HETATM   13  C   UNL     1       7.955  -4.063  23.542  1.00  0.00     0.261 C 
HETATM   14  O   UNL     1       8.633  -3.836  24.557  1.00  0.00    -0.267 OA
ATOM     15  HN  UNL     1       7.932  -3.209  21.619  1.00  0.00     0.191 HD
BRANCH  13  16
HETATM   16  C   UNL     1       7.032  -5.053  23.246  1.00  0.00     0.083 C 
BRANCH  16  17
HETATM   17  C   UNL     1       7.198  -5.845  22.159  1.00  0.00     0.045 C 
HETATM   18  C   UNL     1       6.262  -5.850  21.258  1.00  0.00    -0.047 C 
ENDBRANCH  16  17
ENDBRANCH  13  16
ENDBRANCH  10  12
ENDBRANCH   8  10
ENDBRANCH   1   8
BRANCH   1  19
HETATM   19  C   UNL     1      10.981  -0.678  23.539  1.00  0.00     0.053 C 
BRANCH  19  20
HETATM   20  C   UNL     1      11.380   0.114  24.309  1.00  0.00     0.045 C 
BRANCH  20  21
HETATM   21  C   UNL     1      12.592   0.061  24.410  1.00  0.00     0.258 C 
HETATM   22  O   UNL     1      13.558  -0.268  24.229  1.00  0.00    -0.302 OA
ENDBRANCH  20  21
ENDBRANCH  19  20
ENDBRANCH   1  19
TORSDOF 11
ENDMDL
MODEL 6
REMARK VINA RESULT:    -4.822      1.997      5.748
REMARK INTER + INTRA:          -8.874
REMARK INTER:                  -7.898
REMARK INTRA:                  -0.976
REMARK UNBOUND:                -0.952
REMARK  11 active torsions:
REMARK  status: ('A' for Active; 'I' for Inactive)
REMARK    1  A    between atoms: N_2  and  C_4 
REMARK    2  A    between atoms: C_4  and  N_5 
REMARK    3  A    between atoms: N_5  and  C_7 
REMARK    4  A    between atoms: C_7  and  N_12 
REMARK    5  A    between atoms: C_7  and  C_8 
REMARK    6  A    between atoms: C_8  and  C_11 
REMARK    7  A    between atoms: C_9  and  C_11 
REMARK    8  A    between atoms: N_12  and  N_14 
REMARK    9  A    between atoms: N_14  and  N_17 
REMARK       I    between atoms: N_17  and  C_20 
REMARK   10  A    between atoms: C_19  and  C_21 
REMARK   11  A    between atoms: C_19  and  C_20 
ROOT
HETATM    1  C   UNL     1       9.035  15.050   1.845  1.00  0.00     0.129 C 
ENDROOT
BRANCH   1   2
HETATM    2  N   UNL     1      10.193  14.838   2.417  1.00  0.00    -0.293 N 
ATOM      3  HN  UNL     1      10.812  14.358   1.764  1.00  0.00     0.178 HD
BRANCH   2   4
HETATM    4  C   UNL     1      10.733  15.009   3.388  1.00  0.00     0.048 C 
BRANCH   4   5
HETATM    5  N   UNL     1      11.142  15.481   4.379  1.00  0.00    -0.347 N 
HETATM    6  C   UNL     1      10.676  15.908   5.671  1.00  0.00     0.157 C 
ATOM      7  HN  UNL     1      12.147  15.639   4.302  1.00  0.00     0.170 HD
ENDBRANCH   4   5
ENDBRANCH   2   4
ENDBRANCH   1   2
BRANCH   1   8
HETATM    8  N   UNL     1       8.301  14.173   1.270  1.00  0.00    -0.270 N 
ATOM      9  HN  UNL     1       7.993  14.229   0.299  1.00  0.00     0.190 HD
BRANCH   8  10
HETATM   10  N   UNL     1       8.021  13.276   2.015  1.00  0.00    -0.238 N 
ATOM     11  HN  UNL     1       8.764  12.579   2.053  1.00  0.00     0.208 HD
BRANCH  10  12
HETATM   12  N   UNL     1       7.102  12.977   2.731  1.00  0.00    -0.252 N 
HETATM   13  C   UNL     1       7.538  12.289   3.808  1.00  0.00     0.261 C 
HETATM   14  O   UNL     1       8.776  12.217   3.775  1.00  0.00    -0.267 OA
ATOM     15  HN  UNL     1       6.126  13.212   2.549  1.00  0.00     0.191 HD
BRANCH  13  16
HETATM   16  C   UNL     1       6.595  11.681   4.622  1.00  0.00     0.083 C 
BRANCH  16  17
HETATM   17  C   UNL     1       6.421  10.338   4.589  1.00  0.00     0.045 C 
HETATM   18  C   UNL     1       5.762   9.831   3.591  1.00  0.00    -0.047 C 
ENDBRANCH  16  17
ENDBRANCH  13  16
ENDBRANCH  10  12
ENDBRANCH   8  10
ENDBRANCH   1   8
BRANCH   1  19
HETATM   19  C   UNL     1       8.310  16.108   1.571  1.00  0.00     0.053 C 
BRANCH  19  20
HETATM   20  C   UNL     1       8.294  17.281   1.644  1.00  0.00     0.045 C 
BRANCH  20  21
HETATM   21  C   UNL     1       9.078  17.784   0.860  1.00  0.00     0.258 C 
HETATM   22  O   UNL     1       9.889  17.845   0.219  1.00  0.00    -0.302 OA
ENDBRANCH  20  21
ENDBRANCH  19  20
ENDBRANCH   1  19
TORSDOF 11
ENDMDL
MODEL 7
REMARK VINA RESULT:    -4.819      2.311      3.828
REMARK INTER + INTRA:          -8.870
REMARK INTER:                  -8.010
REMARK INTRA:                  -0.860
REMARK UNBOUND:                -0.952
REMARK  11 active torsions:
REMARK  status: ('A' for Active; 'I' for Inactive)
REMARK    1  A    between atoms: N_2  and  C_4 
REMARK    2  A    between atoms: C_4  and  N_5 
REMARK    3  A    between atoms: N_5  and  C_7 
REMARK    4  A    between atoms: C_7  and  N_12 
REMARK    5  A    between atoms: C_7  and  C_8 
REMARK    6  A    between atoms: C_8  and  C_11 
REMARK    7  A    between atoms: C_9  and  C_11 
REMARK    8  A    between atoms: N_12  and  N_14 
REMARK    9  A    between atoms: N_14  and  N_17 
REMARK       I    between atoms: N_17  and  C_20 
REMARK   10  A    between atoms: C_19  and  C_21 
REMARK   11  A    between atoms: C_19  and  C_20 
ROOT
HETATM    1  C   UNL     1       8.193  14.980   1.934  1.00  0.00     0.129 C 
ENDROOT
BRANCH   1   2
HETATM    2  N   UNL     1       7.890  14.001   1.120  1.00  0.00    -0.293 N 
ATOM      3  HN  UNL     1       8.400  14.117   0.244  1.00  0.00     0.178 HD
BRANCH   2   4
HETATM    4  C   UNL     1       7.257  13.074   1.064  1.00  0.00     0.048 C 
BRANCH   4   5
HETATM    5  N   UNL     1       6.771  12.063   0.725  1.00  0.00    -0.347 N 
HETATM    6  C   UNL     1       6.405  10.780   1.264  1.00  0.00     0.157 C 
ATOM      7  HN  UNL     1       6.532  12.106  -0.265  1.00  0.00     0.170 HD
ENDBRANCH   4   5
ENDBRANCH   2   4
ENDBRANCH   1   2
BRANCH   1   8
HETATM    8  N   UNL     1       7.723  16.171   1.895  1.00  0.00    -0.270 N 
ATOM      9  HN  UNL     1       7.124  16.576   2.614  1.00  0.00     0.190 HD
BRANCH   8  10
HETATM   10  N   UNL     1       8.077  16.751   0.907  1.00  0.00    -0.238 N 
ATOM     11  HN  UNL     1       8.842  16.261   0.442  1.00  0.00     0.208 HD
BRANCH  10  12
HETATM   12  N   UNL     1       7.774  17.754   0.316  1.00  0.00    -0.252 N 
HETATM   13  C   UNL     1       8.847  18.561   0.161  1.00  0.00     0.261 C 
HETATM   14  O   UNL     1       9.852  18.000   0.626  1.00  0.00    -0.267 OA
ATOM     15  HN  UNL     1       6.836  17.966  -0.023  1.00  0.00     0.191 HD
BRANCH  13  16
HETATM   16  C   UNL     1       8.636  19.848  -0.304  1.00  0.00     0.083 C 
BRANCH  16  17
HETATM   17  C   UNL     1       8.972  20.919   0.456  1.00  0.00     0.045 C 
HETATM   18  C   UNL     1      10.095  21.521   0.201  1.00  0.00    -0.047 C 
ENDBRANCH  16  17
ENDBRANCH  13  16
ENDBRANCH  10  12
ENDBRANCH   8  10
ENDBRANCH   1   8
BRANCH   1  19
HETATM   19  C   UNL     1       9.051  15.151   2.910  1.00  0.00     0.053 C 
BRANCH  19  20
HETATM   20  C   UNL     1       9.406  14.704   3.938  1.00  0.00     0.045 C 
BRANCH  20  21
HETATM   21  C   UNL     1      10.607  14.839   4.087  1.00  0.00     0.258 C 
HETATM   22  O   UNL     1      11.574  15.146   3.874  1.00  0.00    -0.302 OA
ENDBRANCH  20  21
ENDBRANCH  19  20
ENDBRANCH   1  19
TORSDOF 11
ENDMDL
MODEL 8
REMARK VINA RESULT:    -4.814     24.734     27.223
REMARK INTER + INTRA:          -8.861
REMARK INTER:                  -7.925
REMARK INTRA:                  -0.937
REMARK UNBOUND:                -0.952
REMARK  11 active torsions:
REMARK  status: ('A' for Active; 'I' for Inactive)
REMARK    1  A    between atoms: N_2  and  C_4 
REMARK    2  A    between atoms: C_4  and  N_5 
REMARK    3  A    between atoms: N_5  and  C_7 
REMARK    4  A    between atoms: C_7  and  N_12 
REMARK    5  A    between atoms: C_7  and  C_8 
REMARK    6  A    between atoms: C_8  and  C_11 
REMARK    7  A    between atoms: C_9  and  C_11 
REMARK    8  A    between atoms: N_12  and  N_14 
REMARK    9  A    between atoms: N_14  and  N_17 
REMARK       I    between atoms: N_17  and  C_20 
REMARK   10  A    between atoms: C_19  and  C_21 
REMARK   11  A    between atoms: C_19  and  C_20 
ROOT
HETATM    1  C   UNL     1      10.397  -0.725  22.181  1.00  0.00     0.129 C 
ENDROOT
BRANCH   1   2
HETATM    2  N   UNL     1      10.051   0.428  21.667  1.00  0.00    -0.293 N 
ATOM      3  HN  UNL     1       9.383   0.277  20.911  1.00  0.00     0.178 HD
BRANCH   2   4
HETATM    4  C   UNL     1      10.243   1.530  21.782  1.00  0.00     0.048 C 
BRANCH   4   5
HETATM    5  N   UNL     1      10.625   2.571  22.159  1.00  0.00    -0.347 N 
HETATM    6  C   UNL     1      11.153   3.188  23.347  1.00  0.00     0.157 C 
ATOM      7  HN  UNL     1      10.564   3.258  21.408  1.00  0.00     0.170 HD
ENDBRANCH   4   5
ENDBRANCH   2   4
ENDBRANCH   1   2
BRANCH   1   8
HETATM    8  N   UNL     1      10.021  -1.880  21.774  1.00  0.00    -0.270 N 
ATOM      9  HN  UNL     1      10.536  -2.446  21.100  1.00  0.00     0.190 HD
BRANCH   8  10
HETATM   10  N   UNL     1       8.989  -2.212  22.286  1.00  0.00    -0.238 N 
ATOM     11  HN  UNL     1       8.587  -1.454  22.839  1.00  0.00     0.208 HD
BRANCH  10  12
HETATM   12  N   UNL     1       8.298  -3.196  22.324  1.00  0.00    -0.252 N 
HETATM   13  C   UNL     1       7.022  -2.898  21.994  1.00  0.00     0.261 C 
HETATM   14  O   UNL     1       6.947  -1.698  21.688  1.00  0.00    -0.267 OA
ATOM     15  HN  UNL     1       8.631  -4.127  22.571  1.00  0.00     0.191 HD
BRANCH  13  16
HETATM   16  C   UNL     1       6.052  -3.867  22.195  1.00  0.00     0.083 C 
BRANCH  16  17
HETATM   17  C   UNL     1       6.387  -5.180  22.227  1.00  0.00     0.045 C 
HETATM   18  C   UNL     1       6.179  -5.890  21.159  1.00  0.00    -0.047 C 
ENDBRANCH  16  17
ENDBRANCH  13  16
ENDBRANCH  10  12
ENDBRANCH   8  10
ENDBRANCH   1   8
BRANCH   1  19
HETATM   19  C   UNL     1      11.081  -1.111  23.230  1.00  0.00     0.053 C 
BRANCH  19  20
HETATM   20  C   UNL     1      11.389  -0.794  24.320  1.00  0.00     0.045 C 
BRANCH  20  21
HETATM   21  C   UNL     1      12.517  -0.336  24.345  1.00  0.00     0.258 C 
HETATM   22  O   UNL     1      13.516  -0.255  24.608  1.00  0.00    -0.302 OA
ENDBRANCH  20  21
ENDBRANCH  19  20
ENDBRANCH   1  19
TORSDOF 11
ENDMDL
MODEL 9
REMARK VINA RESULT:    -4.673     33.791     35.712
REMARK INTER + INTRA:          -8.629
REMARK INTER:                  -7.646
REMARK INTRA:                  -0.983
REMARK UNBOUND:                -0.952
REMARK  11 active torsions:
REMARK  status: ('A' for Active; 'I' for Inactive)
REMARK    1  A    between atoms: N_2  and  C_4 
REMARK    2  A    between atoms: C_4  and  N_5 
REMARK    3  A    between atoms: N_5  and  C_7 
REMARK    4  A    between atoms: C_7  and  N_12 
REMARK    5  A    between atoms: C_7  and  C_8 
REMARK    6  A    between atoms: C_8  and  C_11 
REMARK    7  A    between atoms: C_9  and  C_11 
REMARK    8  A    between atoms: N_12  and  N_14 
REMARK    9  A    between atoms: N_14  and  N_17 
REMARK       I    between atoms: N_17  and  C_20 
REMARK   10  A    between atoms: C_19  and  C_21 
REMARK   11  A    between atoms: C_19  and  C_20 
ROOT
HETATM    1  C   UNL     1       0.027 -15.629   9.172  1.00  0.00     0.129 C 
ENDROOT
BRANCH   1   2
HETATM    2  N   UNL     1      -0.597 -15.436  10.306  1.00  0.00    -0.293 N 
ATOM      3  HN  UNL     1      -0.168 -14.654  10.800  1.00  0.00     0.178 HD
BRANCH   2   4
HETATM    4  C   UNL     1      -1.447 -15.844  10.917  1.00  0.00     0.048 C 
BRANCH   4   5
HETATM    5  N   UNL     1      -2.105 -16.500  11.632  1.00  0.00    -0.347 N 
HETATM    6  C   UNL     1      -3.266 -17.347  11.593  1.00  0.00     0.157 C 
ATOM      7  HN  UNL     1      -1.738 -16.455  12.582  1.00  0.00     0.170 HD
ENDBRANCH   4   5
ENDBRANCH   2   4
ENDBRANCH   1   2
BRANCH   1   8
HETATM    8  N   UNL     1       1.248 -15.989   9.029  1.00  0.00    -0.270 N 
ATOM      9  HN  UNL     1       2.037 -15.343   8.992  1.00  0.00     0.190 HD
BRANCH   8  10
HETATM   10  N   UNL     1       1.348 -17.181   8.945  1.00  0.00    -0.238 N 
ATOM     11  HN  UNL     1       0.453 -17.614   8.715  1.00  0.00     0.208 HD
BRANCH  10  12
HETATM   12  N   UNL     1       2.217 -18.005   9.058  1.00  0.00    -0.252 N 
HETATM   13  C   UNL     1       2.213 -18.853   8.007  1.00  0.00     0.261 C 
HETATM   14  O   UNL     1       1.346 -18.495   7.194  1.00  0.00    -0.267 OA
ATOM     15  HN  UNL     1       2.868 -18.056   9.841  1.00  0.00     0.191 HD
BRANCH  13  16
HETATM   16  C   UNL     1       3.005 -19.988   8.078  1.00  0.00     0.083 C 
BRANCH  16  17
HETATM   17  C   UNL     1       2.600 -21.064   8.796  1.00  0.00     0.045 C 
HETATM   18  C   UNL     1       2.966 -22.243   8.389  1.00  0.00    -0.047 C 
ENDBRANCH  16  17
ENDBRANCH  13  16
ENDBRANCH  10  12
ENDBRANCH   8  10
ENDBRANCH   1   8
BRANCH   1  19
HETATM   19  C   UNL     1      -0.264 -15.455   7.905  1.00  0.00     0.053 C 
BRANCH  19  20
HETATM   20  C   UNL     1      -1.159 -15.290   7.161  1.00  0.00     0.045 C 
BRANCH  20  21
HETATM   21  C   UNL     1      -0.958 -15.847   6.098  1.00  0.00     0.258 C 
HETATM   22  O   UNL     1      -0.422 -16.313   5.343  1.00  0.00    -0.302 OA
ENDBRANCH  20  21
ENDBRANCH  19  20
ENDBRANCH   1  19
TORSDOF 11
ENDMDL
