REMARK  6 active torsions:
REMARK  status: ('A' for Active; 'I' for Inactive)
REMARK    1  A    between atoms: O_1  and  N_11 
REMARK    2  A    between atoms: O_1  and  C_2 
REMARK    3  A    between atoms: C_2  and  C_8 
REMARK    4  A    between atoms: C_3  and  C_13 
REMARK    5  A    between atoms: C_3  and  N_5 
REMARK    6  A    between atoms: C_3  and  N_11 
ROOT
HETATM    1  N   UNL     1       7.463  -1.103  22.817  1.00  0.00    -0.278 N 
ATOM      2  HN  UNL     1       6.529  -0.889  22.466  1.00  0.00     0.190 HD
ENDROOT
BRANCH   1   3
HETATM    3  O   UNL     1       7.853  -0.990  24.195  1.00  0.00    -0.264 OA
BRANCH   3   4
HETATM    4  C   UNL     1       9.102  -0.854  24.663  1.00  0.00     0.254 C 
HETATM    5  C   UNL     1       9.142  -1.449  25.987  1.00  0.00     0.058 C 
BRANCH   4   6
HETATM    6  C   UNL     1      10.297  -0.234  24.216  1.00  0.00     0.093 C 
HETATM    7  N   UNL     1      11.359   0.192  24.088  1.00  0.00    -0.194 NA
ENDBRANCH   4   6
ENDBRANCH   3   4
ENDBRANCH   1   3
BRANCH   1   8
HETATM    8  C   UNL     1       8.482  -1.526  22.046  1.00  0.00     0.198 C 
BRANCH   8   9
HETATM    9  C   UNL     1       7.895  -1.540  20.586  1.00  0.00     0.043 C 
HETATM   10  C   UNL     1       7.721  -2.964  20.157  1.00  0.00     0.009 C 
ENDBRANCH   8   9
BRANCH   8  11
HETATM   11  N   UNL     1       9.586  -0.557  21.853  1.00  0.00    -0.405 N 
HETATM   12  C   UNL     1       8.939   0.720  21.643  1.00  0.00     0.142 C 
HETATM   13  H   UNL     1      10.463  -0.833  22.170  1.00  0.00     0.154 HD
ENDBRANCH   8  11
ENDBRANCH   1   8
TORSDOF 6
