stable:False satoms:22 tatoms:24 sratio:0.9166666666666666
  -OEChem-07092417323D

 24 23  0     1  0  0  0  0  0999 V2000
    7.8528   -0.9898   24.1947 O   0  0  0  0  0  0  0  0  0  0  0  0
    8.5975   -0.8091   26.6852 H   0  0  0  0  0  0  0  0  0  0  0  0
    8.8317   -2.5385   22.3732 H   0  0  0  0  0  0  0  0  0  0  0  0
    8.6555   -2.4254   25.9908 H   0  0  0  0  0  0  0  0  0  0  0  0
    6.7773   -3.0910   19.6425 H   0  0  0  0  0  0  0  0  0  0  0  0
   10.1497   -1.5781   26.3399 H   0  0  0  0  0  0  0  0  0  0  0  0
    9.1023   -0.8535   24.6632 C   0  0  3  0  0  0  0  0  0  0  0  0
    8.5511   -3.2777   19.5352 H   0  0  0  0  0  0  0  0  0  0  0  0
    8.4823   -1.5258   22.0456 C   0  0  1  0  0  0  0  0  0  0  0  0
   11.3587    0.1915   24.0879 N   0  0  0  0  0  0  0  0  0  0  0  0
    8.6725   -1.0711   19.9806 H   0  0  0  0  0  0  0  0  0  0  0  0
    9.5860   -0.5566   21.8532 N   0  0  0  0  0  0  0  0  0  0  0  0
   10.4629   -0.8327   22.1697 H   0  0  0  0  0  0  0  0  0  0  0  0
    7.7209   -2.9640   20.1572 C   0  0  0  0  0  0  0  0  0  0  0  0
    7.6846   -3.6523   20.9950 H   0  0  0  0  0  0  0  0  0  0  0  0
   10.2971   -0.2339   24.2159 C   0  0  0  0  0  0  0  0  0  0  0  0
    9.1418   -1.4486   25.9867 C   0  0  0  0  0  0  0  0  0  0  0  0
    9.3281    1.3880   22.4164 H   0  0  0  0  0  0  0  0  0  0  0  0
    8.9393    0.7197   21.6430 C   0  0  0  0  0  0  0  0  0  0  0  0
    9.1985    1.0526   20.6427 H   0  0  0  0  0  0  0  0  0  0  0  0
    7.4627   -1.1029   22.8168 N   0  0  0  0  0  0  0  0  0  0  0  0
    6.9907   -0.9323   20.5378 H   0  0  0  0  0  0  0  0  0  0  0  0
    7.8449    0.7811   21.7375 H   0  0  0  0  0  0  0  0  0  0  0  0
    7.8952   -1.5398   20.5860 C   0  0  0  0  0  0  0  0  0  0  0  0
  8 14  1  0  0  0  0
  5 14  1  0  0  0  0
 11 24  1  0  0  0  0
 14 24  1  0  0  0  0
 14 15  1  0  0  0  0
 22 24  1  0  0  0  0
  9 24  1  0  0  0  0
 19 20  1  0  0  0  0
 19 23  1  0  0  0  0
 12 19  1  0  0  0  0
 18 19  1  0  0  0  0
  9 12  1  0  0  0  0
 12 13  1  0  0  0  0
  3  9  1  0  0  0  0
  9 21  1  0  0  0  0
  1 21  1  0  0  0  0
 10 16  3  0  0  0  0
  1  7  1  0  0  0  0
  7 16  1  0  0  0  0
  7 17  1  0  0  0  0
  4 17  1  0  0  0  0
  6 17  1  0  0  0  0
  2 17  1  0  0  0  0
M  END
> <Shapegauss>
-95.317543

$$$$
