REMARK  4 active torsions:
REMARK  status: ('A' for Active; 'I' for Inactive)
REMARK    1  A    between atoms: N_2  and  C_4 
REMARK    2  A    between atoms: C_11  and  N_14 
REMARK    3  A    between atoms: O_12  and  N_14 
REMARK    4  A    between atoms: N_14  and  C_15 
ROOT
HETATM    1  C   UNL     1       9.176  -3.058  24.303  1.00  0.00     0.121 C 
HETATM    2  O   UNL     1       8.816  -1.451  23.008  1.00  0.00    -0.270 OA
HETATM    3  C   UNL     1       9.694  -2.038  23.629  1.00  0.00     0.103 C 
HETATM    4  C   UNL     1      11.089  -0.086  23.470  1.00  0.00     0.192 A 
HETATM    5  C   UNL     1      12.393  -1.032  23.328  1.00  0.00     0.023 A 
HETATM    6  C   UNL     1      11.142  -1.296  23.455  1.00  0.00     0.009 A 
HETATM    7  O   UNL     1      10.067   0.317  22.527  1.00  0.00    -0.300 OA
HETATM    8  C   UNL     1       9.103  -0.356  22.154  1.00  0.00     0.298 C 
ENDROOT
BRANCH   8   9
HETATM    9  N   UNL     1       8.421  -0.004  20.893  1.00  0.00    -0.177 N 
BRANCH   9  10
HETATM   10  O   UNL     1       9.325   0.727  20.384  1.00  0.00    -0.279 OA
ATOM     11  HO  UNL     1       8.886   0.954  19.572  1.00  0.00     0.245 HD
ENDBRANCH   9  10
BRANCH   9  12
HETATM   12  C   UNL     1       7.208   0.210  20.059  1.00  0.00     0.108 C 
HETATM   13  C   UNL     1       7.008   0.263  18.711  1.00  0.00     0.201 C 
HETATM   14  O   UNL     1       5.747   0.743  18.401  1.00  0.00    -0.248 OA
HETATM   15  N   UNL     1       5.197   1.067  19.578  1.00  0.00    -0.271 N 
HETATM   16  C   UNL     1       5.945   0.671  20.567  1.00  0.00     0.148 C 
ATOM     17  HN  UNL     1       4.310   1.559  19.685  1.00  0.00     0.194 HD
ENDBRANCH   9  12
ENDBRANCH   8   9
BRANCH   1  18
HETATM   18  N   UNL     1       8.336  -3.733  24.850  1.00  0.00    -0.401 N 
HETATM   19  C   UNL     1       8.240  -4.525  26.018  1.00  0.00     0.145 C 
ATOM     20  HN  UNL     1       7.459  -3.731  24.329  1.00  0.00     0.158 HD
ENDBRANCH   1  18
TORSDOF 4
