MODEL 1
REMARK VINA RESULT:    -6.090      0.000      0.000
REMARK INTER + INTRA:          -7.647
REMARK INTER:                  -7.336
REMARK INTRA:                  -0.311
REMARK UNBOUND:                -0.311
REMARK  4 active torsions:
REMARK  status: ('A' for Active; 'I' for Inactive)
REMARK    1  A    between atoms: N_2  and  C_4 
REMARK    2  A    between atoms: C_11  and  N_14 
REMARK    3  A    between atoms: O_12  and  N_14 
REMARK    4  A    between atoms: N_14  and  C_15 
ROOT
HETATM    1  C   UNL     1       0.762 -22.469   9.778  1.00  0.00     0.121 C 
HETATM    2  O   UNL     1       1.068 -20.399   9.868  1.00  0.00    -0.270 OA
HETATM    3  C   UNL     1       1.470 -21.432   9.347  1.00  0.00     0.103 C 
HETATM    4  C   UNL     1       3.554 -20.345   8.839  1.00  0.00     0.192 A 
HETATM    5  C   UNL     1       3.643 -21.170   7.451  1.00  0.00     0.023 A 
HETATM    6  C   UNL     1       2.766 -21.149   8.390  1.00  0.00     0.009 A 
HETATM    7  O   UNL     1       2.803 -19.172   9.232  1.00  0.00    -0.300 OA
HETATM    8  C   UNL     1       1.609 -19.130   9.539  1.00  0.00     0.298 C 
ENDROOT
BRANCH   8   9
HETATM    9  N   UNL     1       0.892 -17.841   9.478  1.00  0.00    -0.177 N 
BRANCH   9  10
HETATM   10  O   UNL     1       1.805 -17.139   8.947  1.00  0.00    -0.279 OA
ATOM     11  HO  UNL     1       2.561 -17.602   9.290  1.00  0.00     0.245 HD
ENDBRANCH   9  10
BRANCH   9  12
HETATM   12  C   UNL     1      -0.142 -16.879   9.944  1.00  0.00     0.108 C 
HETATM   13  C   UNL     1      -0.769 -15.828   9.340  1.00  0.00     0.201 C 
HETATM   14  O   UNL     1      -1.473 -15.061  10.253  1.00  0.00    -0.248 OA
HETATM   15  N   UNL     1      -1.204 -15.605  11.447  1.00  0.00    -0.271 N 
HETATM   16  C   UNL     1      -0.544 -16.719  11.314  1.00  0.00     0.148 C 
ATOM     17  HN  UNL     1      -1.480 -15.199  12.341  1.00  0.00     0.194 HD
ENDBRANCH   9  12
ENDBRANCH   8   9
BRANCH   1  18
HETATM   18  N   UNL     1       0.037 -23.114  10.499  1.00  0.00    -0.401 N 
HETATM   19  C   UNL     1      -1.351 -23.218  10.751  1.00  0.00     0.145 C 
ATOM     20  HN  UNL     1       0.570 -23.757  11.085  1.00  0.00     0.158 HD
ENDBRANCH   1  18
TORSDOF 4
ENDMDL
MODEL 2
REMARK VINA RESULT:    -5.922     21.470     23.952
REMARK INTER + INTRA:          -7.445
REMARK INTER:                  -7.148
REMARK INTRA:                  -0.296
REMARK UNBOUND:                -0.311
REMARK  4 active torsions:
REMARK  status: ('A' for Active; 'I' for Inactive)
REMARK    1  A    between atoms: N_2  and  C_4 
REMARK    2  A    between atoms: C_11  and  N_14 
REMARK    3  A    between atoms: O_12  and  N_14 
REMARK    4  A    between atoms: N_14  and  C_15 
ROOT
HETATM    1  C   UNL     1       6.092  -2.339  21.637  1.00  0.00     0.121 C 
HETATM    2  O   UNL     1       7.910  -1.303  21.541  1.00  0.00    -0.270 OA
HETATM    3  C   UNL     1       6.742  -1.278  21.174  1.00  0.00     0.103 C 
HETATM    4  C   UNL     1       7.346   0.240  19.410  1.00  0.00     0.192 A 
HETATM    5  C   UNL     1       5.929   1.000  19.581  1.00  0.00     0.023 A 
HETATM    6  C   UNL     1       6.454   0.001  20.194  1.00  0.00     0.009 A 
HETATM    7  O   UNL     1       8.583   0.298  20.160  1.00  0.00    -0.300 OA
HETATM    8  C   UNL     1       8.817  -0.256  21.237  1.00  0.00     0.298 C 
ENDROOT
BRANCH   8   9
HETATM    9  N   UNL     1       9.922   0.242  22.080  1.00  0.00    -0.177 N 
BRANCH   9  10
HETATM   10  O   UNL     1      10.247   1.256  21.390  1.00  0.00    -0.279 OA
ATOM     11  HO  UNL     1      11.157   1.034  21.228  1.00  0.00     0.245 HD
ENDBRANCH   9  10
BRANCH   9  12
HETATM   12  C   UNL     1      11.012   0.061  23.075  1.00  0.00     0.108 C 
HETATM   13  C   UNL     1      11.636   0.920  23.932  1.00  0.00     0.201 C 
HETATM   14  O   UNL     1      12.772   0.353  24.484  1.00  0.00    -0.248 OA
HETATM   15  N   UNL     1      12.890  -0.842  23.893  1.00  0.00    -0.271 N 
HETATM   16  C   UNL     1      11.843  -1.108  23.166  1.00  0.00     0.148 C 
ATOM     17  HN  UNL     1      13.693  -1.462  23.997  1.00  0.00     0.194 HD
ENDBRANCH   9  12
ENDBRANCH   8   9
BRANCH   1  18
HETATM   18  N   UNL     1       5.928  -3.449  22.087  1.00  0.00    -0.401 N 
HETATM   19  C   UNL     1       6.143  -4.782  21.664  1.00  0.00     0.145 C 
ATOM     20  HN  UNL     1       5.527  -3.416  23.024  1.00  0.00     0.158 HD
ENDBRANCH   1  18
TORSDOF 4
ENDMDL
MODEL 3
REMARK VINA RESULT:    -5.759     20.970     22.868
REMARK INTER + INTRA:          -7.248
REMARK INTER:                  -6.927
REMARK INTRA:                  -0.321
REMARK UNBOUND:                -0.311
REMARK  4 active torsions:
REMARK  status: ('A' for Active; 'I' for Inactive)
REMARK    1  A    between atoms: N_2  and  C_4 
REMARK    2  A    between atoms: C_11  and  N_14 
REMARK    3  A    between atoms: O_12  and  N_14 
REMARK    4  A    between atoms: N_14  and  C_15 
ROOT
HETATM    1  C   UNL     1       8.060  -3.762  23.261  1.00  0.00     0.121 C 
HETATM    2  O   UNL     1       7.804  -1.923  22.290  1.00  0.00    -0.270 OA
HETATM    3  C   UNL     1       8.629  -2.634  22.852  1.00  0.00     0.103 C 
HETATM    4  C   UNL     1      10.023  -0.708  23.206  1.00  0.00     0.192 A 
HETATM    5  C   UNL     1      11.339  -1.623  22.987  1.00  0.00     0.023 A 
HETATM    6  C   UNL     1      10.083  -1.891  22.953  1.00  0.00     0.009 A 
HETATM    7  O   UNL     1       9.083  -0.111  22.281  1.00  0.00    -0.300 OA
HETATM    8  C   UNL     1       8.157  -0.683  21.701  1.00  0.00     0.298 C 
ENDROOT
BRANCH   8   9
HETATM    9  N   UNL     1       7.583  -0.076  20.484  1.00  0.00    -0.177 N 
BRANCH   9  10
HETATM   10  O   UNL     1       8.631  -0.055  19.768  1.00  0.00    -0.279 OA
ATOM     11  HO  UNL     1       8.251  -0.355  18.949  1.00  0.00     0.245 HD
ENDBRANCH   9  10
BRANCH   9  12
HETATM   12  C   UNL     1       6.584   0.760  19.767  1.00  0.00     0.108 C 
HETATM   13  C   UNL     1       5.552   1.543  20.195  1.00  0.00     0.201 C 
HETATM   14  O   UNL     1       4.734   1.926  19.146  1.00  0.00    -0.248 OA
HETATM   15  N   UNL     1       5.226   1.300  18.071  1.00  0.00    -0.271 N 
HETATM   16  C   UNL     1       6.356   0.715  18.348  1.00  0.00     0.148 C 
ATOM     17  HN  UNL     1       4.776   1.283  17.155  1.00  0.00     0.194 HD
ENDBRANCH   9  12
ENDBRANCH   8   9
BRANCH   1  18
HETATM   18  N   UNL     1       7.180  -4.522  23.588  1.00  0.00    -0.401 N 
HETATM   19  C   UNL     1       6.273  -5.399  22.947  1.00  0.00     0.145 C 
ATOM     20  HN  UNL     1       7.057  -4.537  24.601  1.00  0.00     0.158 HD
ENDBRANCH   1  18
TORSDOF 4
ENDMDL
MODEL 4
REMARK VINA RESULT:    -5.695     20.449     22.832
REMARK INTER + INTRA:          -7.171
REMARK INTER:                  -6.857
REMARK INTRA:                  -0.314
REMARK UNBOUND:                -0.311
REMARK  4 active torsions:
REMARK  status: ('A' for Active; 'I' for Inactive)
REMARK    1  A    between atoms: N_2  and  C_4 
REMARK    2  A    between atoms: C_11  and  N_14 
REMARK    3  A    between atoms: O_12  and  N_14 
REMARK    4  A    between atoms: N_14  and  C_15 
ROOT
HETATM    1  C   UNL     1       8.961  -2.963  23.633  1.00  0.00     0.121 C 
HETATM    2  O   UNL     1       7.724  -3.982  24.983  1.00  0.00    -0.270 OA
HETATM    3  C   UNL     1       8.126  -3.978  23.826  1.00  0.00     0.103 C 
HETATM    4  C   UNL     1       6.247  -5.335  23.185  1.00  0.00     0.192 A 
HETATM    5  C   UNL     1       7.176  -6.111  22.113  1.00  0.00     0.023 A 
HETATM    6  C   UNL     1       7.423  -5.168  22.949  1.00  0.00     0.009 A 
HETATM    7  O   UNL     1       6.104  -5.454  24.621  1.00  0.00    -0.300 OA
HETATM    8  C   UNL     1       6.865  -4.996  25.477  1.00  0.00     0.298 C 
ENDROOT
BRANCH   8   9
HETATM    9  N   UNL     1       6.843  -5.562  26.841  1.00  0.00    -0.177 N 
BRANCH   9  10
HETATM   10  O   UNL     1       8.045  -5.964  26.900  1.00  0.00    -0.279 OA
ATOM     11  HO  UNL     1       8.160  -6.208  25.989  1.00  0.00     0.245 HD
ENDBRANCH   9  10
BRANCH   9  12
HETATM   12  C   UNL     1       6.154  -6.166  28.012  1.00  0.00     0.108 C 
HETATM   13  C   UNL     1       6.559  -6.441  29.285  1.00  0.00     0.201 C 
HETATM   14  O   UNL     1       5.646  -7.244  29.948  1.00  0.00    -0.248 OA
HETATM   15  N   UNL     1       4.708  -7.533  29.038  1.00  0.00    -0.271 N 
HETATM   16  C   UNL     1       4.888  -6.844  27.948  1.00  0.00     0.148 C 
ATOM     17  HN  UNL     1       3.953  -8.203  29.180  1.00  0.00     0.194 HD
ENDBRANCH   9  12
ENDBRANCH   8   9
BRANCH   1  18
HETATM   18  N   UNL     1       9.497  -1.898  23.824  1.00  0.00    -0.401 N 
HETATM   19  C   UNL     1       9.100  -0.548  23.974  1.00  0.00     0.145 C 
ATOM     20  HN  UNL     1      10.509  -1.998  23.898  1.00  0.00     0.158 HD
ENDBRANCH   1  18
TORSDOF 4
ENDMDL
MODEL 5
REMARK VINA RESULT:    -5.586     21.137     23.420
REMARK INTER + INTRA:          -7.039
REMARK INTER:                  -6.739
REMARK INTRA:                  -0.300
REMARK UNBOUND:                -0.311
REMARK  4 active torsions:
REMARK  status: ('A' for Active; 'I' for Inactive)
REMARK    1  A    between atoms: N_2  and  C_4 
REMARK    2  A    between atoms: C_11  and  N_14 
REMARK    3  A    between atoms: O_12  and  N_14 
REMARK    4  A    between atoms: N_14  and  C_15 
ROOT
HETATM    1  C   UNL     1       6.678  -5.653  23.364  1.00  0.00     0.121 C 
HETATM    2  O   UNL     1       7.728  -3.862  23.645  1.00  0.00    -0.270 OA
HETATM    3  C   UNL     1       7.358  -4.885  24.208  1.00  0.00     0.103 C 
HETATM    4  C   UNL     1       7.643  -3.800  26.335  1.00  0.00     0.192 A 
HETATM    5  C   UNL     1       8.136  -5.198  26.980  1.00  0.00     0.023 A 
HETATM    6  C   UNL     1       7.771  -4.875  25.791  1.00  0.00     0.009 A 
HETATM    7  O   UNL     1       8.312  -2.814  25.512  1.00  0.00    -0.300 OA
HETATM    8  C   UNL     1       8.529  -2.891  24.300  1.00  0.00     0.298 C 
ENDROOT
BRANCH   8   9
HETATM    9  N   UNL     1       9.583  -2.051  23.699  1.00  0.00    -0.177 N 
BRANCH   9  10
HETATM   10  O   UNL     1       9.543  -2.509  22.517  1.00  0.00    -0.279 OA
ATOM     11  HO  UNL     1      10.416  -2.883  22.478  1.00  0.00     0.245 HD
ENDBRANCH   9  10
BRANCH   9  12
HETATM   12  C   UNL     1      10.815  -1.220  23.771  1.00  0.00     0.108 C 
HETATM   13  C   UNL     1      12.074  -1.384  23.274  1.00  0.00     0.201 C 
HETATM   14  O   UNL     1      12.960  -0.469  23.816  1.00  0.00    -0.248 OA
HETATM   15  N   UNL     1      12.248   0.213  24.723  1.00  0.00    -0.271 N 
HETATM   16  C   UNL     1      10.985  -0.097  24.652  1.00  0.00     0.148 C 
ATOM     17  HN  UNL     1      12.642   0.885  25.381  1.00  0.00     0.194 HD
ENDBRANCH   9  12
ENDBRANCH   8   9
BRANCH   1  18
HETATM   18  N   UNL     1       6.025  -5.949  22.392  1.00  0.00    -0.401 N 
HETATM   19  C   UNL     1       6.085  -5.733  20.996  1.00  0.00     0.145 C 
ATOM     20  HN  UNL     1       5.209  -6.507  22.647  1.00  0.00     0.158 HD
ENDBRANCH   1  18
TORSDOF 4
ENDMDL
MODEL 6
REMARK VINA RESULT:    -5.554     35.121     38.273
REMARK INTER + INTRA:          -7.001
REMARK INTER:                  -6.672
REMARK INTRA:                  -0.329
REMARK UNBOUND:                -0.311
REMARK  4 active torsions:
REMARK  status: ('A' for Active; 'I' for Inactive)
REMARK    1  A    between atoms: N_2  and  C_4 
REMARK    2  A    between atoms: C_11  and  N_14 
REMARK    3  A    between atoms: O_12  and  N_14 
REMARK    4  A    between atoms: N_14  and  C_15 
ROOT
HETATM    1  C   UNL     1      11.093  19.846   2.540  1.00  0.00     0.121 C 
HETATM    2  O   UNL     1       9.912  18.115   2.548  1.00  0.00    -0.270 OA
HETATM    3  C   UNL     1      10.099  19.177   1.967  1.00  0.00     0.103 C 
HETATM    4  C   UNL     1       7.883  19.044   1.044  1.00  0.00     0.192 A 
HETATM    5  C   UNL     1       8.415  19.717  -0.327  1.00  0.00     0.023 A 
HETATM    6  C   UNL     1       9.008  19.398   0.768  1.00  0.00     0.009 A 
HETATM    7  O   UNL     1       7.967  17.697   1.567  1.00  0.00    -0.300 OA
HETATM    8  C   UNL     1       8.946  17.176   2.106  1.00  0.00     0.298 C 
ENDROOT
BRANCH   8   9
HETATM    9  N   UNL     1       9.034  15.704   2.178  1.00  0.00    -0.177 N 
BRANCH   9  10
HETATM   10  O   UNL     1       9.292  15.468   0.958  1.00  0.00    -0.279 OA
ATOM     11  HO  UNL     1       8.469  15.754   0.579  1.00  0.00     0.245 HD
ENDBRANCH   9  10
BRANCH   9  12
HETATM   12  C   UNL     1       8.707  14.387   2.787  1.00  0.00     0.108 C 
HETATM   13  C   UNL     1       9.342  13.611   3.712  1.00  0.00     0.201 C 
HETATM   14  O   UNL     1       8.790  12.342   3.778  1.00  0.00    -0.248 OA
HETATM   15  N   UNL     1       7.857  12.316   2.818  1.00  0.00    -0.271 N 
HETATM   16  C   UNL     1       7.687  13.499   2.301  1.00  0.00     0.148 C 
ATOM     17  HN  UNL     1       7.347  11.481   2.531  1.00  0.00     0.194 HD
ENDBRANCH   9  12
ENDBRANCH   8   9
BRANCH   1  18
HETATM   18  N   UNL     1      11.879  20.175   3.397  1.00  0.00    -0.401 N 
HETATM   19  C   UNL     1      12.585  19.552   4.452  1.00  0.00     0.145 C 
ATOM     20  HN  UNL     1      12.090  21.172   3.345  1.00  0.00     0.158 HD
ENDBRANCH   1  18
TORSDOF 4
ENDMDL
MODEL 7
REMARK VINA RESULT:    -5.538     22.495     25.229
REMARK INTER + INTRA:          -6.982
REMARK INTER:                  -6.716
REMARK INTRA:                  -0.266
REMARK UNBOUND:                -0.311
REMARK  4 active torsions:
REMARK  status: ('A' for Active; 'I' for Inactive)
REMARK    1  A    between atoms: N_2  and  C_4 
REMARK    2  A    between atoms: C_11  and  N_14 
REMARK    3  A    between atoms: O_12  and  N_14 
REMARK    4  A    between atoms: N_14  and  C_15 
ROOT
HETATM    1  C   UNL     1      10.857   3.065  23.335  1.00  0.00     0.121 C 
HETATM    2  O   UNL     1       9.733   1.965  21.952  1.00  0.00    -0.270 OA
HETATM    3  C   UNL     1      10.420   1.869  22.961  1.00  0.00     0.103 C 
HETATM    4  C   UNL     1      10.760  -0.464  22.487  1.00  0.00     0.192 A 
HETATM    5  C   UNL     1      10.734  -0.788  24.071  1.00  0.00     0.023 A 
HETATM    6  C   UNL     1      10.602   0.305  23.409  1.00  0.00     0.009 A 
HETATM    7  O   UNL     1       9.710  -0.212  21.523  1.00  0.00    -0.300 OA
HETATM    8  C   UNL     1       9.089   0.843  21.370  1.00  0.00     0.298 C 
ENDROOT
BRANCH   8   9
HETATM    9  N   UNL     1       7.782   0.820  20.685  1.00  0.00    -0.177 N 
BRANCH   9  10
HETATM   10  O   UNL     1       7.122   1.527  21.507  1.00  0.00    -0.279 OA
ATOM     11  HO  UNL     1       6.296   1.058  21.469  1.00  0.00     0.245 HD
ENDBRANCH   9  10
BRANCH   9  12
HETATM   12  C   UNL     1       6.776   0.212  19.773  1.00  0.00     0.108 C 
HETATM   13  C   UNL     1       6.035  -0.931  19.841  1.00  0.00     0.201 C 
HETATM   14  O   UNL     1       5.421  -1.214  18.632  1.00  0.00    -0.248 OA
HETATM   15  N   UNL     1       5.862  -0.272  17.788  1.00  0.00    -0.271 N 
HETATM   16  C   UNL     1       6.545   0.638  18.420  1.00  0.00     0.148 C 
ATOM     17  HN  UNL     1       5.685  -0.268  16.784  1.00  0.00     0.194 HD
ENDBRANCH   9  12
ENDBRANCH   8   9
BRANCH   1  18
HETATM   18  N   UNL     1      11.156   4.233  23.242  1.00  0.00    -0.401 N 
HETATM   19  C   UNL     1      12.341   4.992  23.101  1.00  0.00     0.145 C 
ATOM     20  HN  UNL     1      10.331   4.832  23.272  1.00  0.00     0.158 HD
ENDBRANCH   1  18
TORSDOF 4
ENDMDL
MODEL 8
REMARK VINA RESULT:    -5.463     22.576     24.720
REMARK INTER + INTRA:          -6.891
REMARK INTER:                  -6.605
REMARK INTRA:                  -0.286
REMARK UNBOUND:                -0.311
REMARK  4 active torsions:
REMARK  status: ('A' for Active; 'I' for Inactive)
REMARK    1  A    between atoms: N_2  and  C_4 
REMARK    2  A    between atoms: C_11  and  N_14 
REMARK    3  A    between atoms: O_12  and  N_14 
REMARK    4  A    between atoms: N_14  and  C_15 
ROOT
HETATM    1  C   UNL     1       9.617   1.011  24.937  1.00  0.00     0.121 C 
HETATM    2  O   UNL     1       9.228  -0.925  24.236  1.00  0.00    -0.270 OA
HETATM    3  C   UNL     1      10.119  -0.105  24.421  1.00  0.00     0.103 C 
HETATM    4  C   UNL     1      11.507  -1.282  22.849  1.00  0.00     0.192 A 
HETATM    5  C   UNL     1      12.810  -0.934  23.741  1.00  0.00     0.023 A 
HETATM    6  C   UNL     1      11.562  -0.666  23.890  1.00  0.00     0.009 A 
HETATM    7  O   UNL     1      10.466  -2.278  22.987  1.00  0.00    -0.300 OA
HETATM    8  C   UNL     1       9.496  -2.229  23.748  1.00  0.00     0.298 C 
ENDROOT
BRANCH   8   9
HETATM    9  N   UNL     1       8.789  -3.477  24.098  1.00  0.00    -0.177 N 
BRANCH   9  10
HETATM   10  O   UNL     1       8.281  -3.734  22.964  1.00  0.00    -0.279 OA
ATOM     11  HO  UNL     1       8.109  -4.660  23.090  1.00  0.00     0.245 HD
ENDBRANCH   9  10
BRANCH   9  12
HETATM   12  C   UNL     1       8.121  -4.395  25.059  1.00  0.00     0.108 C 
HETATM   13  C   UNL     1       6.866  -4.427  25.591  1.00  0.00     0.201 C 
HETATM   14  O   UNL     1       6.780  -5.322  26.644  1.00  0.00    -0.248 OA
HETATM   15  N   UNL     1       8.026  -5.783  26.812  1.00  0.00    -0.271 N 
HETATM   16  C   UNL     1       8.808  -5.375  25.855  1.00  0.00     0.148 C 
ATOM     17  HN  UNL     1       8.322  -6.376  27.588  1.00  0.00     0.194 HD
ENDBRANCH   9  12
ENDBRANCH   8   9
BRANCH   1  18
HETATM   18  N   UNL     1       8.789   1.844  25.221  1.00  0.00    -0.401 N 
HETATM   19  C   UNL     1       7.439   2.117  24.902  1.00  0.00     0.145 C 
ATOM     20  HN  UNL     1       9.167   2.539  25.866  1.00  0.00     0.158 HD
ENDBRANCH   1  18
TORSDOF 4
ENDMDL
MODEL 9
REMARK VINA RESULT:    -5.396     29.782     30.842
REMARK INTER + INTRA:          -6.811
REMARK INTER:                  -6.530
REMARK INTRA:                  -0.281
REMARK UNBOUND:                -0.311
REMARK  4 active torsions:
REMARK  status: ('A' for Active; 'I' for Inactive)
REMARK    1  A    between atoms: N_2  and  C_4 
REMARK    2  A    between atoms: C_11  and  N_14 
REMARK    3  A    between atoms: O_12  and  N_14 
REMARK    4  A    between atoms: N_14  and  C_15 
ROOT
HETATM    1  C   UNL     1      25.333  -6.686  22.689  1.00  0.00     0.121 C 
HETATM    2  O   UNL     1      24.045  -5.589  23.924  1.00  0.00    -0.270 OA
HETATM    3  C   UNL     1      25.010  -6.344  23.931  1.00  0.00     0.103 C 
HETATM    4  C   UNL     1      24.557  -6.877  26.231  1.00  0.00     0.192 A 
HETATM    5  C   UNL     1      26.146  -6.980  26.518  1.00  0.00     0.023 A 
HETATM    6  C   UNL     1      25.474  -6.703  25.458  1.00  0.00     0.009 A 
HETATM    7  O   UNL     1      23.659  -5.749  26.103  1.00  0.00    -0.300 OA
HETATM    8  C   UNL     1      23.527  -5.022  25.116  1.00  0.00     0.298 C 
ENDROOT
BRANCH   8   9
HETATM    9  N   UNL     1      22.927  -3.683  25.280  1.00  0.00    -0.177 N 
BRANCH   9  10
HETATM   10  O   UNL     1      22.871  -3.652  26.548  1.00  0.00    -0.279 OA
ATOM     11  HO  UNL     1      23.199  -4.526  26.727  1.00  0.00     0.245 HD
ENDBRANCH   9  10
BRANCH   9  12
HETATM   12  C   UNL     1      22.113  -2.530  24.810  1.00  0.00     0.108 C 
HETATM   13  C   UNL     1      20.967  -1.954  25.274  1.00  0.00     0.201 C 
HETATM   14  O   UNL     1      20.438  -1.062  24.357  1.00  0.00    -0.248 OA
HETATM   15  N   UNL     1      21.229  -1.155  23.281  1.00  0.00    -0.271 N 
HETATM   16  C   UNL     1      22.272  -1.893  23.531  1.00  0.00     0.148 C 
ATOM     17  HN  UNL     1      21.039  -0.708  22.384  1.00  0.00     0.194 HD
ENDBRANCH   9  12
ENDBRANCH   8   9
BRANCH   1  18
HETATM   18  N   UNL     1      25.199  -6.865  21.501  1.00  0.00    -0.401 N 
HETATM   19  C   UNL     1      25.129  -7.969  20.620  1.00  0.00     0.145 C 
ATOM     20  HN  UNL     1      25.114  -5.981  20.999  1.00  0.00     0.158 HD
ENDBRANCH   1  18
TORSDOF 4
ENDMDL
