MODEL 1
REMARK VINA RESULT:    -6.240      0.000      0.000
REMARK INTER + INTRA:          -9.780
REMARK INTER:                  -8.793
REMARK INTRA:                  -0.986
REMARK UNBOUND:                -0.986
REMARK  7 active torsions:
REMARK  status: ('A' for Active; 'I' for Inactive)
REMARK    1  A    between atoms: S_2  and  N_5 
REMARK    2  A    between atoms: N_5  and  C_7 
REMARK    3  A    between atoms: C_8  and  C_9 
REMARK    4  A    between atoms: C_9  and  C_13 
REMARK    5  A    between atoms: C_9  and  C_10 
REMARK    6  A    between atoms: C_13  and  C_14 
REMARK       I    between atoms: C_14  and  N_16 
REMARK    7  A    between atoms: N_16  and  C_18 
ROOT
HETATM    1  C   UNL     1      10.279  -1.716  22.818  1.00  0.00     0.119 C 
ENDROOT
BRANCH   1   2
HETATM    2  C   UNL     1       9.365  -2.625  23.289  1.00  0.00    -0.030 C 
HETATM    3  C   UNL     1       8.509  -3.283  23.702  1.00  0.00     0.027 C 
BRANCH   3   4
HETATM    4  N   UNL     1       7.591  -4.074  23.914  1.00  0.00    -0.229 N 
ATOM      5  HN  UNL     1       7.601  -4.599  24.789  1.00  0.00     0.190 HD
BRANCH   4   6
HETATM    6  S   UNL     1       6.369  -4.332  22.884  1.00  0.00     0.327 S 
HETATM    7 CL   UNL     1       6.896  -5.875  22.013  1.00  0.00     0.042 Cl
HETATM    8  O   UNL     1       5.174  -4.679  23.580  1.00  0.00    -0.188 OA
HETATM    9  O   UNL     1       6.260  -3.339  21.869  1.00  0.00    -0.188 OA
ENDBRANCH   4   6
ENDBRANCH   3   4
ENDBRANCH   1   2
BRANCH   1  10
HETATM   10  C   UNL     1       9.718  -0.864  22.202  1.00  0.00    -0.030 C 
BRANCH  10  11
HETATM   11  C   UNL     1       9.034  -0.071  21.358  1.00  0.00     0.294 C 
HETATM   12  O   UNL     1       9.508   1.004  21.106  1.00  0.00    -0.258 OA
HETATM   13  N   UNL     1       7.881  -0.677  20.969  1.00  0.00    -0.315 N 
ATOM     14  HN  UNL     1       7.628  -1.613  21.288  1.00  0.00     0.170 HD
BRANCH  13  15
HETATM   15  C   UNL     1       7.126  -0.001  20.172  1.00  0.00     0.051 A 
HETATM   16  C   UNL     1       6.963   0.030  18.847  1.00  0.00     0.117 A 
HETATM   17  N   UNL     1       6.413   0.416  17.883  1.00  0.00    -0.373 N 
HETATM   18  C   UNL     1       5.634   1.230  18.349  1.00  0.00     0.088 A 
ATOM     19  HN  UNL     1       6.551   0.143  16.910  1.00  0.00     0.164 HD
HETATM   20  C   UNL     1       5.528   1.487  19.556  1.00  0.00     0.019 A 
HETATM   21  C   UNL     1       6.098   0.971  20.638  1.00  0.00     0.032 A 
ENDBRANCH  13  15
ENDBRANCH  10  11
ENDBRANCH   1  10
BRANCH   1  22
HETATM   22  C   UNL     1      11.765  -1.503  23.095  1.00  0.00     0.189 C 
HETATM   23  C   UNL     1      11.663  -0.304  24.155  1.00  0.00     0.072 C 
HETATM   24  O   UNL     1      12.763  -1.926  22.892  1.00  0.00    -0.287 OA
ENDBRANCH   1  22
TORSDOF 7
ENDMDL
MODEL 2
REMARK VINA RESULT:    -6.217      3.932      5.673
REMARK INTER + INTRA:          -9.748
REMARK INTER:                  -9.009
REMARK INTRA:                  -0.739
REMARK UNBOUND:                -0.986
REMARK  7 active torsions:
REMARK  status: ('A' for Active; 'I' for Inactive)
REMARK    1  A    between atoms: S_2  and  N_5 
REMARK    2  A    between atoms: N_5  and  C_7 
REMARK    3  A    between atoms: C_8  and  C_9 
REMARK    4  A    between atoms: C_9  and  C_13 
REMARK    5  A    between atoms: C_9  and  C_10 
REMARK    6  A    between atoms: C_13  and  C_14 
REMARK       I    between atoms: C_14  and  N_16 
REMARK    7  A    between atoms: N_16  and  C_18 
ROOT
HETATM    1  C   UNL     1       7.366  -4.250  23.255  1.00  0.00     0.119 C 
ENDROOT
BRANCH   1   2
HETATM    2  C   UNL     1       7.591  -4.861  24.463  1.00  0.00    -0.030 C 
HETATM    3  C   UNL     1       7.907  -5.319  25.476  1.00  0.00     0.027 C 
BRANCH   3   4
HETATM    4  N   UNL     1       8.076  -5.653  26.648  1.00  0.00    -0.229 N 
ATOM      5  HN  UNL     1       9.013  -5.935  26.937  1.00  0.00     0.190 HD
BRANCH   4   6
HETATM    6  S   UNL     1       6.898  -5.672  27.758  1.00  0.00     0.327 S 
HETATM    7 CL   UNL     1       5.502  -6.473  26.849  1.00  0.00     0.042 Cl
HETATM    8  O   UNL     1       7.213  -6.559  28.828  1.00  0.00    -0.188 OA
HETATM    9  O   UNL     1       6.428  -4.375  28.112  1.00  0.00    -0.188 OA
ENDBRANCH   4   6
ENDBRANCH   3   4
ENDBRANCH   1   2
BRANCH   1  10
HETATM   10  C   UNL     1       8.188  -3.407  23.071  1.00  0.00    -0.030 C 
BRANCH  10  11
HETATM   11  C   UNL     1       8.968  -2.315  22.974  1.00  0.00     0.294 C 
HETATM   12  O   UNL     1       9.108  -1.835  21.881  1.00  0.00    -0.258 OA
HETATM   13  N   UNL     1       9.475  -1.986  24.191  1.00  0.00    -0.315 N 
ATOM     14  HN  UNL     1       9.249  -2.517  25.032  1.00  0.00     0.170 HD
BRANCH  13  15
HETATM   15  C   UNL     1      10.261  -0.964  24.220  1.00  0.00     0.051 A 
HETATM   16  C   UNL     1      11.579  -0.800  24.085  1.00  0.00     0.117 A 
HETATM   17  N   UNL     1      12.532  -0.116  24.006  1.00  0.00    -0.373 N 
HETATM   18  C   UNL     1      12.059   0.994  24.183  1.00  0.00     0.088 A 
ATOM     19  HN  UNL     1      13.502  -0.381  23.834  1.00  0.00     0.164 HD
HETATM   20  C   UNL     1      10.856   1.219  24.372  1.00  0.00     0.019 A 
HETATM   21  C   UNL     1       9.783   0.438  24.367  1.00  0.00     0.032 A 
ENDBRANCH  13  15
ENDBRANCH  10  11
ENDBRANCH   1  10
BRANCH   1  22
HETATM   22  C   UNL     1       6.435  -4.572  22.089  1.00  0.00     0.189 C 
HETATM   23  C   UNL     1       6.862  -6.096  21.828  1.00  0.00     0.072 C 
HETATM   24  O   UNL     1       5.595  -4.167  21.501  1.00  0.00    -0.287 OA
ENDBRANCH   1  22
TORSDOF 7
ENDMDL
MODEL 3
REMARK VINA RESULT:    -6.146      4.349      5.841
REMARK INTER + INTRA:          -9.647
REMARK INTER:                  -8.988
REMARK INTRA:                  -0.659
REMARK UNBOUND:                -0.986
REMARK  7 active torsions:
REMARK  status: ('A' for Active; 'I' for Inactive)
REMARK    1  A    between atoms: S_2  and  N_5 
REMARK    2  A    between atoms: N_5  and  C_7 
REMARK    3  A    between atoms: C_8  and  C_9 
REMARK    4  A    between atoms: C_9  and  C_13 
REMARK    5  A    between atoms: C_9  and  C_10 
REMARK    6  A    between atoms: C_13  and  C_14 
REMARK       I    between atoms: C_14  and  N_16 
REMARK    7  A    between atoms: N_16  and  C_18 
ROOT
HETATM    1  C   UNL     1       9.839  -0.282  21.994  1.00  0.00     0.119 C 
ENDROOT
BRANCH   1   2
HETATM    2  C   UNL     1       8.961  -0.084  20.957  1.00  0.00    -0.030 C 
HETATM    3  C   UNL     1       8.121   0.062  20.178  1.00  0.00     0.027 C 
BRANCH   3   4
HETATM    4  N   UNL     1       7.303   0.450  19.345  1.00  0.00    -0.229 N 
ATOM      5  HN  UNL     1       7.533   1.279  18.796  1.00  0.00     0.190 HD
BRANCH   4   6
HETATM    6  S   UNL     1       5.882  -0.276  19.070  1.00  0.00     0.327 S 
HETATM    7 CL   UNL     1       4.665   1.003  19.617  1.00  0.00     0.042 Cl
HETATM    8  O   UNL     1       5.652  -0.445  17.674  1.00  0.00    -0.188 OA
HETATM    9  O   UNL     1       5.649  -1.406  19.905  1.00  0.00    -0.188 OA
ENDBRANCH   4   6
ENDBRANCH   3   4
ENDBRANCH   1   2
BRANCH   1  10
HETATM   10  C   UNL     1       9.978   0.732  22.603  1.00  0.00    -0.030 C 
BRANCH  10  11
HETATM   11  C   UNL     1      10.327   1.779  23.372  1.00  0.00     0.294 C 
HETATM   12  O   UNL     1      10.230   1.644  24.562  1.00  0.00    -0.258 OA
HETATM   13  N   UNL     1      10.712   2.827  22.598  1.00  0.00    -0.315 N 
ATOM     14  HN  UNL     1      10.733   2.768  21.580  1.00  0.00     0.170 HD
BRANCH  13  15
HETATM   15  C   UNL     1      11.050   3.902  23.226  1.00  0.00     0.051 A 
HETATM   16  C   UNL     1      12.214   4.509  23.470  1.00  0.00     0.117 A 
HETATM   17  N   UNL     1      12.840   5.407  23.899  1.00  0.00    -0.373 N 
HETATM   18  C   UNL     1      11.974   6.094  24.413  1.00  0.00     0.088 A 
ATOM     19  HN  UNL     1      13.846   5.570  23.853  1.00  0.00     0.164 HD
HETATM   20  C   UNL     1      10.766   5.818  24.405  1.00  0.00     0.019 A 
HETATM   21  C   UNL     1      10.070   4.843  23.835  1.00  0.00     0.032 A 
ENDBRANCH  13  15
ENDBRANCH  10  11
ENDBRANCH   1  10
BRANCH   1  22
HETATM   22  C   UNL     1      10.472  -1.538  22.588  1.00  0.00     0.189 C 
HETATM   23  C   UNL     1       9.141  -2.325  23.012  1.00  0.00     0.072 C 
HETATM   24  O   UNL     1      11.437  -2.055  22.717  1.00  0.00    -0.287 OA
ENDBRANCH   1  22
TORSDOF 7
ENDMDL
MODEL 4
REMARK VINA RESULT:    -6.141      2.000      2.088
REMARK INTER + INTRA:          -9.641
REMARK INTER:                  -8.849
REMARK INTRA:                  -0.791
REMARK UNBOUND:                -0.986
REMARK  7 active torsions:
REMARK  status: ('A' for Active; 'I' for Inactive)
REMARK    1  A    between atoms: S_2  and  N_5 
REMARK    2  A    between atoms: N_5  and  C_7 
REMARK    3  A    between atoms: C_8  and  C_9 
REMARK    4  A    between atoms: C_9  and  C_13 
REMARK    5  A    between atoms: C_9  and  C_10 
REMARK    6  A    between atoms: C_13  and  C_14 
REMARK       I    between atoms: C_14  and  N_16 
REMARK    7  A    between atoms: N_16  and  C_18 
ROOT
HETATM    1  C   UNL     1      10.128  -1.890  22.880  1.00  0.00     0.119 C 
ENDROOT
BRANCH   1   2
HETATM    2  C   UNL     1       9.344  -2.738  23.621  1.00  0.00    -0.030 C 
HETATM    3  C   UNL     1       8.579  -3.415  24.162  1.00  0.00     0.027 C 
BRANCH   3   4
HETATM    4  N   UNL     1       7.898  -4.319  24.643  1.00  0.00    -0.229 N 
ATOM      5  HN  UNL     1       7.444  -4.972  24.003  1.00  0.00     0.190 HD
BRANCH   4   6
HETATM    6  S   UNL     1       7.679  -4.535  26.232  1.00  0.00     0.327 S 
HETATM    7 CL   UNL     1       6.713  -3.033  26.712  1.00  0.00     0.042 Cl
HETATM    8  O   UNL     1       6.815  -5.639  26.489  1.00  0.00    -0.188 OA
HETATM    9  O   UNL     1       8.885  -4.469  26.987  1.00  0.00    -0.188 OA
ENDBRANCH   4   6
ENDBRANCH   3   4
ENDBRANCH   1   2
BRANCH   1  10
HETATM   10  C   UNL     1       9.441  -1.232  22.162  1.00  0.00    -0.030 C 
BRANCH  10  11
HETATM   11  C   UNL     1       8.859  -0.369  21.310  1.00  0.00     0.294 C 
HETATM   12  O   UNL     1       9.480   0.615  21.012  1.00  0.00    -0.258 OA
HETATM   13  N   UNL     1       7.618  -0.807  20.968  1.00  0.00    -0.315 N 
ATOM     14  HN  UNL     1       7.238  -1.685  21.323  1.00  0.00     0.170 HD
BRANCH  13  15
HETATM   15  C   UNL     1       6.950  -0.047  20.168  1.00  0.00     0.051 A 
HETATM   16  C   UNL     1       6.799   0.004  18.843  1.00  0.00     0.117 A 
HETATM   17  N   UNL     1       6.302   0.452  17.876  1.00  0.00    -0.373 N 
HETATM   18  C   UNL     1       5.618   1.349  18.340  1.00  0.00     0.088 A 
ATOM     19  HN  UNL     1       6.414   0.166  16.904  1.00  0.00     0.164 HD
HETATM   20  C   UNL     1       5.536   1.614  19.547  1.00  0.00     0.019 A 
HETATM   21  C   UNL     1       6.037   1.034  20.631  1.00  0.00     0.032 A 
ENDBRANCH  13  15
ENDBRANCH  10  11
ENDBRANCH   1  10
BRANCH   1  22
HETATM   22  C   UNL     1      11.607  -1.519  22.951  1.00  0.00     0.189 C 
HETATM   23  C   UNL     1      11.529  -0.344  24.039  1.00  0.00     0.072 C 
HETATM   24  O   UNL     1      12.605  -1.831  22.603  1.00  0.00    -0.287 OA
ENDBRANCH   1  22
TORSDOF 7
ENDMDL
MODEL 5
REMARK VINA RESULT:    -5.902      2.915      4.608
REMARK INTER + INTRA:          -9.303
REMARK INTER:                  -8.777
REMARK INTRA:                  -0.526
REMARK UNBOUND:                -0.986
REMARK  7 active torsions:
REMARK  status: ('A' for Active; 'I' for Inactive)
REMARK    1  A    between atoms: S_2  and  N_5 
REMARK    2  A    between atoms: N_5  and  C_7 
REMARK    3  A    between atoms: C_8  and  C_9 
REMARK    4  A    between atoms: C_9  and  C_13 
REMARK    5  A    between atoms: C_9  and  C_10 
REMARK    6  A    between atoms: C_13  and  C_14 
REMARK       I    between atoms: C_14  and  N_16 
REMARK    7  A    between atoms: N_16  and  C_18 
ROOT
HETATM    1  C   UNL     1       8.060  -3.063  23.262  1.00  0.00     0.119 C 
ENDROOT
BRANCH   1   2
HETATM    2  C   UNL     1       9.222  -2.332  23.232  1.00  0.00    -0.030 C 
HETATM    3  C   UNL     1      10.198  -1.724  23.347  1.00  0.00     0.027 C 
BRANCH   3   4
HETATM    4  N   UNL     1      11.343  -1.274  23.366  1.00  0.00    -0.229 N 
ATOM      5  HN  UNL     1      12.074  -1.800  22.887  1.00  0.00     0.190 HD
BRANCH   4   6
HETATM    6  S   UNL     1      11.757   0.105  24.106  1.00  0.00     0.327 S 
HETATM    7 CL   UNL     1      10.528   0.205  25.484  1.00  0.00     0.042 Cl
HETATM    8  O   UNL     1      13.028  -0.012  24.739  1.00  0.00    -0.188 OA
HETATM    9  O   UNL     1      11.535   1.266  23.312  1.00  0.00    -0.188 OA
ENDBRANCH   4   6
ENDBRANCH   3   4
ENDBRANCH   1   2
BRANCH   1  10
HETATM   10  C   UNL     1       7.345  -2.718  22.373  1.00  0.00    -0.030 C 
BRANCH  10  11
HETATM   11  C   UNL     1       6.572  -2.115  21.452  1.00  0.00     0.294 C 
HETATM   12  O   UNL     1       5.545  -2.662  21.153  1.00  0.00    -0.258 OA
HETATM   13  N   UNL     1       7.160  -0.970  21.017  1.00  0.00    -0.315 N 
ATOM     14  HN  UNL     1       8.056  -0.649  21.386  1.00  0.00     0.170 HD
BRANCH  13  15
HETATM   15  C   UNL     1       6.520  -0.313  20.111  1.00  0.00     0.051 A 
HETATM   16  C   UNL     1       6.173  -0.568  18.847  1.00  0.00     0.117 A 
HETATM   17  N   UNL     1       5.618  -0.283  17.851  1.00  0.00    -0.373 N 
HETATM   18  C   UNL     1       5.186   0.826  18.113  1.00  0.00     0.088 A 
ATOM     19  HN  UNL     1       5.522  -0.824  16.991  1.00  0.00     0.164 HD
HETATM   20  C   UNL     1       5.344   1.400  19.200  1.00  0.00     0.019 A 
HETATM   21  C   UNL     1       5.899   1.020  20.345  1.00  0.00     0.032 A 
ENDBRANCH  13  15
ENDBRANCH  10  11
ENDBRANCH   1  10
BRANCH   1  22
HETATM   22  C   UNL     1       7.633  -4.296  24.053  1.00  0.00     0.189 C 
HETATM   23  C   UNL     1       7.455  -5.333  22.843  1.00  0.00     0.072 C 
HETATM   24  O   UNL     1       7.513  -4.680  25.080  1.00  0.00    -0.287 OA
ENDBRANCH   1  22
TORSDOF 7
ENDMDL
MODEL 6
REMARK VINA RESULT:    -5.869      3.167      6.199
REMARK INTER + INTRA:          -9.256
REMARK INTER:                  -8.726
REMARK INTRA:                  -0.531
REMARK UNBOUND:                -0.986
REMARK  7 active torsions:
REMARK  status: ('A' for Active; 'I' for Inactive)
REMARK    1  A    between atoms: S_2  and  N_5 
REMARK    2  A    between atoms: N_5  and  C_7 
REMARK    3  A    between atoms: C_8  and  C_9 
REMARK    4  A    between atoms: C_9  and  C_13 
REMARK    5  A    between atoms: C_9  and  C_10 
REMARK    6  A    between atoms: C_13  and  C_14 
REMARK       I    between atoms: C_14  and  N_16 
REMARK    7  A    between atoms: N_16  and  C_18 
ROOT
HETATM    1  C   UNL     1       6.907  -3.638  22.359  1.00  0.00     0.119 C 
ENDROOT
BRANCH   1   2
HETATM    2  C   UNL     1       6.488  -2.639  21.516  1.00  0.00    -0.030 C 
HETATM    3  C   UNL     1       6.026  -1.784  20.892  1.00  0.00     0.027 C 
BRANCH   3   4
HETATM    4  N   UNL     1       5.729  -0.745  20.303  1.00  0.00    -0.229 N 
ATOM      5  HN  UNL     1       4.760  -0.620  20.008  1.00  0.00     0.190 HD
BRANCH   4   6
HETATM    6  S   UNL     1       6.785   0.435  19.969  1.00  0.00     0.327 S 
HETATM    7 CL   UNL     1       6.242   0.999  18.294  1.00  0.00     0.042 Cl
HETATM    8  O   UNL     1       6.593   1.557  20.827  1.00  0.00    -0.188 OA
HETATM    9  O   UNL     1       8.122  -0.028  19.800  1.00  0.00    -0.188 OA
ENDBRANCH   4   6
ENDBRANCH   3   4
ENDBRANCH   1   2
BRANCH   1  10
HETATM   10  C   UNL     1       7.867  -3.278  22.965  1.00  0.00    -0.030 C 
BRANCH  10  11
HETATM   11  C   UNL     1       8.862  -2.659  23.626  1.00  0.00     0.294 C 
HETATM   12  O   UNL     1       8.842  -2.713  24.827  1.00  0.00    -0.258 OA
HETATM   13  N   UNL     1       9.708  -2.056  22.751  1.00  0.00    -0.315 N 
ATOM     14  HN  UNL     1       9.572  -2.112  21.741  1.00  0.00     0.170 HD
BRANCH  13  15
HETATM   15  C   UNL     1      10.695  -1.408  23.271  1.00  0.00     0.051 A 
HETATM   16  C   UNL     1      10.793  -0.432  24.176  1.00  0.00     0.117 A 
HETATM   17  N   UNL     1      11.428   0.285  24.858  1.00  0.00    -0.373 N 
HETATM   18  C   UNL     1      12.566   0.012  24.516  1.00  0.00     0.088 A 
ATOM     19  HN  UNL     1      11.110   0.960  25.554  1.00  0.00     0.164 HD
HETATM   20  C   UNL     1      12.855  -0.840  23.664  1.00  0.00     0.019 A 
HETATM   21  C   UNL     1      12.123  -1.704  22.971  1.00  0.00     0.032 A 
ENDBRANCH  13  15
ENDBRANCH  10  11
ENDBRANCH   1  10
BRANCH   1  22
HETATM   22  C   UNL     1       6.283  -4.967  22.779  1.00  0.00     0.189 C 
HETATM   23  C   UNL     1       7.116  -5.956  21.831  1.00  0.00     0.072 C 
HETATM   24  O   UNL     1       5.591  -5.417  23.510  1.00  0.00    -0.287 OA
ENDBRANCH   1  22
TORSDOF 7
ENDMDL
MODEL 7
REMARK VINA RESULT:    -5.679      4.593      6.726
REMARK INTER + INTRA:          -8.989
REMARK INTER:                  -8.393
REMARK INTRA:                  -0.596
REMARK UNBOUND:                -0.986
REMARK  7 active torsions:
REMARK  status: ('A' for Active; 'I' for Inactive)
REMARK    1  A    between atoms: S_2  and  N_5 
REMARK    2  A    between atoms: N_5  and  C_7 
REMARK    3  A    between atoms: C_8  and  C_9 
REMARK    4  A    between atoms: C_9  and  C_13 
REMARK    5  A    between atoms: C_9  and  C_10 
REMARK    6  A    between atoms: C_13  and  C_14 
REMARK       I    between atoms: C_14  and  N_16 
REMARK    7  A    between atoms: N_16  and  C_18 
ROOT
HETATM    1  C   UNL     1       5.353  -5.510  24.376  1.00  0.00     0.119 C 
ENDROOT
BRANCH   1   2
HETATM    2  C   UNL     1       5.197  -6.130  25.591  1.00  0.00    -0.030 C 
HETATM    3  C   UNL     1       5.179  -6.725  26.582  1.00  0.00     0.027 C 
BRANCH   3   4
HETATM    4  N   UNL     1       5.214  -7.141  27.739  1.00  0.00    -0.229 N 
ATOM      5  HN  UNL     1       4.508  -7.819  28.027  1.00  0.00     0.190 HD
BRANCH   4   6
HETATM    6  S   UNL     1       6.315  -6.677  28.831  1.00  0.00     0.327 S 
HETATM    7 CL   UNL     1       5.399  -5.400  29.806  1.00  0.00     0.042 Cl
HETATM    8  O   UNL     1       6.600  -7.725  29.753  1.00  0.00    -0.188 OA
HETATM    9  O   UNL     1       7.429  -5.996  28.262  1.00  0.00    -0.188 OA
ENDBRANCH   4   6
ENDBRANCH   3   4
ENDBRANCH   1   2
BRANCH   1  10
HETATM   10  C   UNL     1       6.478  -5.137  24.257  1.00  0.00    -0.030 C 
BRANCH  10  11
HETATM   11  C   UNL     1       7.673  -4.520  24.221  1.00  0.00     0.294 C 
HETATM   12  O   UNL     1       8.643  -5.184  24.469  1.00  0.00    -0.258 OA
HETATM   13  N   UNL     1       7.517  -3.204  23.918  1.00  0.00    -0.315 N 
ATOM     14  HN  UNL     1       6.600  -2.797  23.735  1.00  0.00     0.170 HD
BRANCH  13  15
HETATM   15  C   UNL     1       8.597  -2.501  23.876  1.00  0.00     0.051 A 
HETATM   16  C   UNL     1       9.573  -2.346  22.978  1.00  0.00     0.117 A 
HETATM   17  N   UNL     1      10.559  -1.828  22.602  1.00  0.00    -0.373 N 
HETATM   18  C   UNL     1      10.835  -1.104  23.544  1.00  0.00     0.088 A 
ATOM     19  HN  UNL     1      11.055  -1.952  21.719  1.00  0.00     0.164 HD
HETATM   20  C   UNL     1      10.158  -1.012  24.577  1.00  0.00     0.019 A 
HETATM   21  C   UNL     1       8.996  -1.540  24.941  1.00  0.00     0.032 A 
ENDBRANCH  13  15
ENDBRANCH  10  11
ENDBRANCH   1  10
BRANCH   1  22
HETATM   22  C   UNL     1       4.455  -5.400  23.147  1.00  0.00     0.189 C 
HETATM   23  C   UNL     1       5.507  -5.833  22.016  1.00  0.00     0.072 C 
HETATM   24  O   UNL     1       3.410  -5.230  22.838  1.00  0.00    -0.287 OA
ENDBRANCH   1  22
TORSDOF 7
ENDMDL
MODEL 8
REMARK VINA RESULT:    -5.671      2.940      3.456
REMARK INTER + INTRA:          -8.979
REMARK INTER:                  -8.011
REMARK INTRA:                  -0.968
REMARK UNBOUND:                -0.986
REMARK  7 active torsions:
REMARK  status: ('A' for Active; 'I' for Inactive)
REMARK    1  A    between atoms: S_2  and  N_5 
REMARK    2  A    between atoms: N_5  and  C_7 
REMARK    3  A    between atoms: C_8  and  C_9 
REMARK    4  A    between atoms: C_9  and  C_13 
REMARK    5  A    between atoms: C_9  and  C_10 
REMARK    6  A    between atoms: C_13  and  C_14 
REMARK       I    between atoms: C_14  and  N_16 
REMARK    7  A    between atoms: N_16  and  C_18 
ROOT
HETATM    1  C   UNL     1      11.318  -0.653  23.334  1.00  0.00     0.119 C 
ENDROOT
BRANCH   1   2
HETATM    2  C   UNL     1      10.376  -1.637  23.163  1.00  0.00    -0.030 C 
HETATM    3  C   UNL     1       9.516  -2.408  23.127  1.00  0.00     0.027 C 
BRANCH   3   4
HETATM    4  N   UNL     1       8.546  -3.121  22.873  1.00  0.00    -0.229 N 
ATOM      5  HN  UNL     1       8.686  -4.132  22.848  1.00  0.00     0.190 HD
BRANCH   4   6
HETATM    6  S   UNL     1       7.061  -2.551  22.574  1.00  0.00     0.327 S 
HETATM    7 CL   UNL     1       7.403  -1.076  21.514  1.00  0.00     0.042 Cl
HETATM    8  O   UNL     1       6.321  -3.448  21.750  1.00  0.00    -0.188 OA
HETATM    9  O   UNL     1       6.402  -2.045  23.731  1.00  0.00    -0.188 OA
ENDBRANCH   4   6
ENDBRANCH   3   4
ENDBRANCH   1   2
BRANCH   1  10
HETATM   10  C   UNL     1      10.881   0.390  22.958  1.00  0.00    -0.030 C 
BRANCH  10  11
HETATM   11  C   UNL     1      10.198   1.448  22.485  1.00  0.00     0.294 C 
HETATM   12  O   UNL     1      10.565   1.918  21.441  1.00  0.00    -0.258 OA
HETATM   13  N   UNL     1       9.202   1.790  23.343  1.00  0.00    -0.315 N 
ATOM     14  HN  UNL     1       9.029   1.271  24.204  1.00  0.00     0.170 HD
BRANCH  13  15
HETATM   15  C   UNL     1       8.488   2.810  23.005  1.00  0.00     0.051 A 
HETATM   16  C   UNL     1       8.604   4.128  23.188  1.00  0.00     0.117 A 
HETATM   17  N   UNL     1       8.239   5.231  23.010  1.00  0.00    -0.373 N 
HETATM   18  C   UNL     1       7.214   5.056  22.373  1.00  0.00     0.088 A 
ATOM     19  HN  UNL     1       8.668   6.107  23.310  1.00  0.00     0.164 HD
HETATM   20  C   UNL     1       6.778   3.945  22.041  1.00  0.00     0.019 A 
HETATM   21  C   UNL     1       7.255   2.714  22.176  1.00  0.00     0.032 A 
ENDBRANCH  13  15
ENDBRANCH  10  11
ENDBRANCH   1  10
BRANCH   1  22
HETATM   22  C   UNL     1      12.662  -0.619  24.057  1.00  0.00     0.189 C 
HETATM   23  C   UNL     1      13.444  -1.728  23.202  1.00  0.00     0.072 C 
HETATM   24  O   UNL     1      13.227  -0.072  24.828  1.00  0.00    -0.287 OA
ENDBRANCH   1  22
TORSDOF 7
ENDMDL
MODEL 9
REMARK VINA RESULT:    -5.651      3.761      4.503
REMARK INTER + INTRA:          -8.950
REMARK INTER:                  -8.230
REMARK INTRA:                  -0.720
REMARK UNBOUND:                -0.986
REMARK  7 active torsions:
REMARK  status: ('A' for Active; 'I' for Inactive)
REMARK    1  A    between atoms: S_2  and  N_5 
REMARK    2  A    between atoms: N_5  and  C_7 
REMARK    3  A    between atoms: C_8  and  C_9 
REMARK    4  A    between atoms: C_9  and  C_13 
REMARK    5  A    between atoms: C_9  and  C_10 
REMARK    6  A    between atoms: C_13  and  C_14 
REMARK       I    between atoms: C_14  and  N_16 
REMARK    7  A    between atoms: N_16  and  C_18 
ROOT
HETATM    1  C   UNL     1      11.549  -0.630  23.283  1.00  0.00     0.119 C 
ENDROOT
BRANCH   1   2
HETATM    2  C   UNL     1      10.522  -1.512  23.056  1.00  0.00    -0.030 C 
HETATM    3  C   UNL     1       9.707  -2.327  22.972  1.00  0.00     0.027 C 
BRANCH   3   4
HETATM    4  N   UNL     1       8.688  -3.017  22.956  1.00  0.00    -0.229 N 
ATOM      5  HN  UNL     1       8.380  -3.397  22.061  1.00  0.00     0.190 HD
BRANCH   4   6
HETATM    6  S   UNL     1       7.808  -3.356  24.272  1.00  0.00     0.327 S 
HETATM    7 CL   UNL     1       8.268  -5.112  24.621  1.00  0.00     0.042 Cl
HETATM    8  O   UNL     1       8.262  -2.614  25.400  1.00  0.00    -0.188 OA
HETATM    9  O   UNL     1       6.405  -3.369  24.030  1.00  0.00    -0.188 OA
ENDBRANCH   4   6
ENDBRANCH   3   4
ENDBRANCH   1   2
BRANCH   1  10
HETATM   10  C   UNL     1      11.211   0.470  22.975  1.00  0.00    -0.030 C 
BRANCH  10  11
HETATM   11  C   UNL     1      10.670   1.688  22.793  1.00  0.00     0.294 C 
HETATM   12  O   UNL     1      10.159   1.909  21.728  1.00  0.00    -0.258 OA
HETATM   13  N   UNL     1      10.846   2.454  23.900  1.00  0.00    -0.315 N 
ATOM     14  HN  UNL     1      11.314   2.099  24.734  1.00  0.00     0.170 HD
BRANCH  13  15
HETATM   15  C   UNL     1      10.386   3.658  23.836  1.00  0.00     0.051 A 
HETATM   16  C   UNL     1      10.908   4.836  23.486  1.00  0.00     0.117 A 
HETATM   17  N   UNL     1      10.808   5.987  23.273  1.00  0.00    -0.373 N 
HETATM   18  C   UNL     1       9.645   6.197  23.572  1.00  0.00     0.088 A 
ATOM     19  HN  UNL     1      11.511   6.641  22.928  1.00  0.00     0.164 HD
HETATM   20  C   UNL     1       8.858   5.328  23.972  1.00  0.00     0.019 A 
HETATM   21  C   UNL     1       8.968   4.014  24.119  1.00  0.00     0.032 A 
ENDBRANCH  13  15
ENDBRANCH  10  11
ENDBRANCH   1  10
BRANCH   1  22
HETATM   22  C   UNL     1      12.890  -0.766  24.000  1.00  0.00     0.189 C 
HETATM   23  C   UNL     1      13.574  -1.875  23.065  1.00  0.00     0.072 C 
HETATM   24  O   UNL     1      13.501  -0.325  24.805  1.00  0.00    -0.287 OA
ENDBRANCH   1  22
TORSDOF 7
ENDMDL
