REMARK  7 active torsions:
REMARK  status: ('A' for Active; 'I' for Inactive)
REMARK    1  A    between atoms: S_2  and  N_5 
REMARK    2  A    between atoms: N_5  and  C_7 
REMARK    3  A    between atoms: C_8  and  C_9 
REMARK    4  A    between atoms: C_9  and  C_13 
REMARK    5  A    between atoms: C_9  and  C_10 
REMARK    6  A    between atoms: C_13  and  C_14 
REMARK       I    between atoms: C_14  and  N_16 
REMARK    7  A    between atoms: N_16  and  C_18 
ROOT
HETATM    1  C   UNL     1      10.257  -0.984  23.277  1.00  0.00     0.119 C 
ENDROOT
BRANCH   1   2
HETATM    2  C   UNL     1       9.457  -2.009  23.717  1.00  0.00    -0.030 C 
HETATM    3  C   UNL     1       8.851  -2.861  24.209  1.00  0.00     0.027 C 
BRANCH   3   4
HETATM    4  N   UNL     1       8.017  -3.611  24.715  1.00  0.00    -0.229 N 
ATOM      5  HN  UNL     1       7.159  -3.796  24.195  1.00  0.00     0.190 HD
BRANCH   4   6
HETATM    6  S   UNL     1       8.201  -4.321  26.158  1.00  0.00     0.327 S 
HETATM    7 CL   UNL     1       6.489  -4.906  26.539  1.00  0.00     0.042 Cl
HETATM    8  O   UNL     1       8.991  -5.502  26.054  1.00  0.00    -0.188 OA
HETATM    9  O   UNL     1       8.534  -3.411  27.202  1.00  0.00    -0.188 OA
ENDBRANCH   4   6
ENDBRANCH   3   4
ENDBRANCH   1   2
BRANCH   1  10
HETATM   10  C   UNL     1       9.772  -0.481  22.312  1.00  0.00    -0.030 C 
BRANCH  10  11
HETATM   11  C   UNL     1       9.043   0.127  21.359  1.00  0.00     0.294 C 
HETATM   12  O   UNL     1       9.475   1.153  20.906  1.00  0.00    -0.258 OA
HETATM   13  N   UNL     1       7.904  -0.573  21.116  1.00  0.00    -0.315 N 
ATOM     14  HN  UNL     1       7.690  -1.443  21.604  1.00  0.00     0.170 HD
BRANCH  13  15
HETATM   15  C   UNL     1       7.109  -0.073  20.232  1.00  0.00     0.051 A 
HETATM   16  C   UNL     1       7.176   0.094  18.909  1.00  0.00     0.117 A 
HETATM   17  N   UNL     1       6.700   0.414  17.883  1.00  0.00    -0.373 N 
HETATM   18  C   UNL     1       5.618   0.852  18.235  1.00  0.00     0.088 A 
ATOM     19  HN  UNL     1       7.090   0.344  16.943  1.00  0.00     0.164 HD
HETATM   20  C   UNL     1       5.224   0.883  19.409  1.00  0.00     0.019 A 
HETATM   21  C   UNL     1       5.743   0.431  20.544  1.00  0.00     0.032 A 
ENDBRANCH  13  15
ENDBRANCH  10  11
ENDBRANCH   1  10
BRANCH   1  22
HETATM   22  C   UNL     1      11.474  -0.288  23.881  1.00  0.00     0.189 C 
HETATM   23  C   UNL     1      12.624  -0.941  22.974  1.00  0.00     0.072 C 
HETATM   24  O   UNL     1      11.768   0.499  24.595  1.00  0.00    -0.287 OA
ENDBRANCH   1  22
TORSDOF 7
