stable:False satoms:11 tatoms:24 sratio:0.4583333333333333
  -OEChem-07092417423D

 24 24  0     0  0  0  0  0  0999 V2000
    6.4892   -4.9059   26.5388 Cl  0  0  0  0  0  0  0  0  0  0  0  0
    8.2015   -4.3206   26.1583 S   0  0  0  0  0  0  0  0  0  0  0  0
    8.9912   -5.5017   26.0540 O   0  0  0  0  0  0  0  0  0  0  0  0
    8.5345   -3.4108   27.2024 O   0  0  0  0  0  0  0  0  0  0  0  0
    8.0172   -3.6115   24.7146 N   0  0  0  0  0  0  0  0  0  0  0  0
    8.8513   -2.8614   24.2085 C   0  0  0  0  0  0  0  0  0  0  0  0
    9.4566   -2.0092   23.7172 C   0  0  0  0  0  0  0  0  0  0  0  0
   10.2567   -0.9843   23.2768 C   0  0  0  0  0  0  0  0  0  0  0  0
   11.4742   -0.2882   23.8809 C   0  0  0  0  0  0  0  0  0  0  0  0
   11.7683    0.4987   24.5953 O   0  0  0  0  0  0  0  0  0  0  0  0
   13.5053   -0.5250   23.2589 H   0  0  0  0  0  0  0  0  0  0  0  0
   12.6237   -0.9410   22.9737 C   0  5  0  0  0  0  0  0  0  0  0  0
   12.3363   -1.6484   22.2887 H   0  0  0  0  0  0  0  0  0  0  0  0
    9.7722   -0.4813   22.3116 C   0  0  0  0  0  0  0  0  0  0  0  0
    9.0431    0.1267   21.3594 C   0  0  0  0  0  0  0  0  0  0  0  0
    9.4746    1.1531   20.9061 O   0  0  0  0  0  0  0  0  0  0  0  0
    7.9038   -0.5732   21.1157 N   0  0  0  0  0  0  0  0  0  0  0  0
    7.1092   -0.0729   20.2319 C   0  0  0  0  0  0  0  0  0  0  0  0
    7.1758    0.0936   18.9093 C   0  0  0  0  0  0  0  0  0  0  0  0
    6.7004    0.4145   17.8830 N   0  0  0  0  0  0  0  0  0  0  0  0
    5.6180    0.8523   18.2351 C   0  0  0  0  0  0  0  0  0  0  0  0
    5.2239    0.8830   19.4090 C   0  0  0  0  0  0  0  0  0  0  0  0
    5.7433    0.4313   20.5437 C   0  0  0  0  0  0  0  0  0  0  0  0
    5.3136    0.3921   21.5239 H   0  0  0  0  0  0  0  0  0  0  0  0
 20 21  2  0  0  0  0
 19 20  1  0  0  0  0
 21 22  1  0  0  0  0
 18 19  2  0  0  0  0
 22 23  2  0  0  0  0
 18 23  1  0  0  0  0
 17 18  1  0  0  0  0
 23 24  1  0  0  0  0
 15 16  2  0  0  0  0
 15 17  1  0  0  0  0
 14 15  1  0  0  0  0
 12 13  1  0  0  0  0
  8 14  2  3  0  0  0
 11 12  1  0  0  0  0
  9 12  1  0  0  0  0
  7  8  1  0  0  0  0
  8  9  1  0  0  0  0
  6  7  3  0  0  0  0
  9 10  2  0  0  0  0
  5  6  1  0  0  0  0
  2  5  1  0  0  0  0
  2  3  2  0  0  0  0
  1  2  1  0  0  0  0
  2  4  2  0  0  0  0
M  CHG  1  12  -1
M  END
> <Shapegauss>
-257.930908

$$$$
