stable:False satoms:19 tatoms:24 sratio:0.7916666666666666
  -OEChem-07092417273D

 24 24  0     1  0  0  0  0  0999 V2000
   10.6064    0.3608   23.6095 O   0  0  0  0  0  0  0  0  0  0  0  0
    5.7269    0.3401   21.6953 H   0  0  0  0  0  0  0  0  0  0  0  0
   13.8177    0.2270   24.4753 H   0  0  0  0  0  0  0  0  0  0  0  0
    7.0673   -1.1953   22.0858 C   0  0  0  0  0  0  0  0  0  0  0  0
   12.8671   -0.0372   24.0686 C   0  0  0  0  0  0  0  0  0  0  0  0
    5.9006   -0.3791   22.4939 C   0  0  0  0  0  0  0  0  0  0  0  0
    7.4294   -3.9932   20.2253 H   0  0  0  0  0  0  0  0  0  0  0  0
    7.8077   -3.2415   20.7363 N   0  0  0  0  0  0  0  0  0  0  0  0
   11.7177   -1.6176   22.9243 C   0  0  0  0  0  0  0  0  0  0  0  0
    6.8175   -2.4684   21.3964 C   0  0  0  0  0  0  0  0  0  0  0  0
   11.7390    1.7208   24.6361 H   0  0  0  0  0  0  0  0  0  0  0  0
    8.7329   -2.9862   20.9450 H   0  0  0  0  0  0  0  0  0  0  0  0
   11.7531    0.7643   24.1493 C   0  0  0  0  0  0  0  0  0  0  0  0
    5.0671   -1.7294   23.3581 H   0  0  0  0  0  0  0  0  0  0  0  0
   12.8213   -1.2228   23.4971 N   0  0  0  0  0  0  0  0  0  0  0  0
   10.5326   -0.8567   22.9844 C   0  0  3  0  0  0  0  0  0  0  0  0
   11.7602   -3.1254   22.0949 Cl  0  0  0  0  0  0  0  0  0  0  0  0
    5.6739   -2.8946   21.3143 C   0  5  0  0  0  0  0  0  0  0  0  0
    4.6935   -1.0860   22.7297 O   0  0  0  0  0  0  0  0  0  0  0  0
    9.4135   -1.3490   22.4885 N   0  0  0  0  0  0  0  0  0  0  0  0
    4.7330   -3.0805   21.1144 H   0  0  0  0  0  0  0  0  0  0  0  0
    8.3065   -0.6946   22.3408 C   0  0  0  0  0  0  0  0  0  0  0  0
    8.4493    1.0496   22.5492 Cl  0  0  0  0  0  0  0  0  0  0  0  0
    6.1498    0.2047   23.3842 H   0  0  0  0  0  0  0  0  0  0  0  0
  7  8  1  0  0  0  0
  8 12  1  0  0  0  0
  8 10  1  0  0  0  0
 18 21  1  0  0  0  0
 10 18  2  3  0  0  0
  4 10  1  0  0  0  0
  2  6  1  0  0  0  0
  4 22  2  0  0  0  0
  4  6  1  0  0  0  0
  9 17  1  0  0  0  0
 20 22  1  0  0  0  0
 22 23  1  0  0  0  0
 16 20  1  0  0  0  0
  6 19  1  0  0  0  0
  6 24  1  0  0  0  0
 14 19  1  0  0  0  0
  9 16  1  0  0  0  0
  9 15  2  0  0  0  0
  1 16  1  0  0  0  0
  5 15  1  0  0  0  0
  1 13  1  0  0  0  0
  5 13  2  0  0  0  0
  3  5  1  0  0  0  0
 11 13  1  0  0  0  0
M  CHG  1  18  -1
M  END
> <Shapegauss>
-135.391815

$$$$
