stable:False satoms:19 tatoms:24 sratio:0.7916666666666666
  -OEChem-08052414143D

 28 28  0     1  0  0  0  0  0999 V2000
  -11.4546   -1.2344  -22.7538 O   0  0  0  0  0  0  0  0  0  0  0  0
   -6.8781   -0.5827  -20.2829 H   0  0  0  0  0  0  0  0  0  0  0  0
  -14.2153   -1.4118  -24.6050 H   0  0  0  0  0  0  0  0  0  0  0  0
   -8.3816    0.7557  -20.7879 C   0  0  0  0  0  0  0  0  0  0  0  0
  -13.3575   -1.0256  -24.1012 C   0  0  0  0  0  0  0  0  0  0  0  0
   -7.7284   -0.1184  -19.7862 C   0  0  0  0  0  0  0  0  0  0  0  0
   -7.5297    3.2668  -22.3975 H   0  0  0  0  0  0  0  0  0  0  0  0
   -8.3509    3.0817  -21.8578 N   0  3  0  0  0  0  0  0  0  0  0  0
  -12.1311    0.8339  -23.6936 C   0  0  0  0  0  0  0  0  0  0  0  0
   -8.0048    2.1753  -20.8222 C   0  0  0  0  0  0  0  0  0  0  0  0
  -12.6343   -2.8492  -23.1863 H   0  0  0  0  0  0  0  0  0  0  0  0
   -8.6948    3.9331  -21.4617 H   0  0  0  0  0  0  0  0  0  0  0  0
  -12.5060   -1.7953  -23.3445 C   0  0  0  0  0  0  0  0  0  0  0  0
   -8.1060    0.9538  -18.3817 H   0  0  0  0  0  0  0  0  0  0  0  0
  -13.1799    0.2730  -24.2294 N   0  0  0  0  0  0  0  0  0  0  0  0
  -11.2272    0.1104  -22.8895 C   0  0  3  0  0  0  0  0  0  0  0  0
  -11.8974    2.5120  -23.9977 Cl  0  0  0  0  0  0  0  0  0  0  0  0
   -7.2905    2.6303  -19.9396 C   0  0  0  0  0  0  0  0  0  0  0  0
   -7.2643    0.5188  -18.6068 O   0  0  0  0  0  0  0  0  0  0  0  0
  -10.2454    0.7438  -22.2767 N   0  0  0  0  0  0  0  0  0  0  0  0
   -6.9418    1.9897  -19.1431 H   0  0  0  0  0  0  0  0  0  0  0  0
   -9.2667    0.1789  -21.6454 C   0  0  0  0  0  0  0  0  0  0  0  0
   -9.1214   -1.5567  -21.9148 Cl  0  0  0  0  0  0  0  0  0  0  0  0
   -8.4035   -0.9322  -19.5079 H   0  0  0  0  0  0  0  0  0  0  0  0
  -10.5815   -0.0743  -23.7606 H   0  0  0  0  0  0  0  0  0  0  0  0
   -7.0085    3.6727  -19.9569 H   0  0  0  0  0  0  0  0  0  0  0  0
  -10.6906    1.3327  -21.6022 H   0  0  0  0  0  0  0  0  0  0  0  0
   -9.0553    2.6769  -22.4408 H   0  0  0  0  0  0  0  0  0  0  0  0
  7  8  1  0  0  0  0
  8 12  1  0  0  0  0
  8 10  1  0  0  0  0
 18 21  1  0  0  0  0
 10 18  2  3  0  0  0
  4 10  1  0  0  0  0
  2  6  1  0  0  0  0
  4 22  2  0  0  0  0
  4  6  1  0  0  0  0
  9 17  1  0  0  0  0
 20 22  1  0  0  0  0
 22 23  1  0  0  0  0
 16 20  1  0  0  0  0
  6 19  1  0  0  0  0
  6 24  1  0  0  0  0
 14 19  1  0  0  0  0
  9 16  1  0  0  0  0
  9 15  2  0  0  0  0
  1 16  1  0  0  0  0
  5 15  1  0  0  0  0
  1 13  1  0  0  0  0
  5 13  2  0  0  0  0
  3  5  1  0  0  0  0
 11 13  1  0  0  0  0
 16 25  1  0  0  0  0
 18 26  1  0  0  0  0
 20 27  1  0  0  0  0
  8 28  1  0  0  0  0
M  CHG  1   8   1
M  END
> <Chemgauss4>
-6.173650

$$$$
