stable:False satoms:19 tatoms:24 sratio:0.7916666666666666
  -OEChem-08052414143D

 28 28  0     1  0  0  0  0  0999 V2000
    8.4330   -3.0916   25.1242 O   0  0  0  0  0  0  0  0  0  0  0  0
    9.4979   -0.4013   20.7535 H   0  0  0  0  0  0  0  0  0  0  0  0
    7.5829   -5.0670   27.6649 H   0  0  0  0  0  0  0  0  0  0  0  0
    7.7031   -0.9243   21.6545 C   0  0  0  0  0  0  0  0  0  0  0  0
    7.5366   -4.5129   26.7540 C   0  0  0  0  0  0  0  0  0  0  0  0
    8.7697    0.0736   21.4087 C   0  0  0  0  0  0  0  0  0  0  0  0
    5.6332   -2.4059   19.8817 H   0  0  0  0  0  0  0  0  0  0  0  0
    5.5226   -1.9095   20.7427 N   0  3  0  0  0  0  0  0  0  0  0  0
    6.2435   -3.9869   24.9709 C   0  0  0  0  0  0  0  0  0  0  0  0
    6.5107   -0.8922   20.7969 C   0  0  0  0  0  0  0  0  0  0  0  0
    9.5135   -3.6318   26.7755 H   0  0  0  0  0  0  0  0  0  0  0  0
    4.6116   -1.4992   20.7825 H   0  0  0  0  0  0  0  0  0  0  0  0
    8.5721   -3.7472   26.2731 C   0  0  0  0  0  0  0  0  0  0  0  0
    7.6577    1.4971   21.4555 H   0  0  0  0  0  0  0  0  0  0  0  0
    6.3845   -4.5875   26.1203 N   0  0  0  0  0  0  0  0  0  0  0  0
    7.2555   -3.1699   24.4271 C   0  0  3  0  0  0  0  0  0  0  0  0
    4.7539   -4.2213   24.1406 Cl  0  0  0  0  0  0  0  0  0  0  0  0
    6.3554    0.0362   20.0158 C   0  0  0  0  0  0  0  0  0  0  0  0
    8.3602    1.2939   20.8124 O   0  0  0  0  0  0  0  0  0  0  0  0
    7.0242   -2.4929   23.3186 N   0  0  0  0  0  0  0  0  0  0  0  0
    7.0918    0.8242   19.9604 H   0  0  0  0  0  0  0  0  0  0  0  0
    7.9116   -1.8396   22.6395 C   0  0  0  0  0  0  0  0  0  0  0  0
    9.5801   -2.1632   23.1058 Cl  0  0  0  0  0  0  0  0  0  0  0  0
    9.2941    0.2934   22.3427 H   0  0  0  0  0  0  0  0  0  0  0  0
    7.6431   -4.0179   23.8435 H   0  0  0  0  0  0  0  0  0  0  0  0
    5.4818    0.0679   19.3816 H   0  0  0  0  0  0  0  0  0  0  0  0
    6.3270   -1.8182   23.5611 H   0  0  0  0  0  0  0  0  0  0  0  0
    5.6397   -2.5366   21.5128 H   0  0  0  0  0  0  0  0  0  0  0  0
  7  8  1  0  0  0  0
  8 12  1  0  0  0  0
  8 10  1  0  0  0  0
 18 21  1  0  0  0  0
 10 18  2  3  0  0  0
  4 10  1  0  0  0  0
  2  6  1  0  0  0  0
  4 22  2  0  0  0  0
  4  6  1  0  0  0  0
  9 17  1  0  0  0  0
 20 22  1  0  0  0  0
 22 23  1  0  0  0  0
 16 20  1  0  0  0  0
  6 19  1  0  0  0  0
  6 24  1  0  0  0  0
 14 19  1  0  0  0  0
  9 16  1  0  0  0  0
  9 15  2  0  0  0  0
  1 16  1  0  0  0  0
  5 15  1  0  0  0  0
  1 13  1  0  0  0  0
  5 13  2  0  0  0  0
  3  5  1  0  0  0  0
 11 13  1  0  0  0  0
 16 25  1  0  0  0  0
 18 26  1  0  0  0  0
 20 27  1  0  0  0  0
  8 28  1  0  0  0  0
M  CHG  1   8   1
M  END
> <Chemgauss4>
-6.008464

$$$$
