stable:False satoms:8 tatoms:24 sratio:0.3333333333333333
  -OEChem-08062413283D

 43 44  0     1  0  0  0  0  0999 V2000
    6.6876   -5.4119   26.1376 C   0  0  0  0  0  0  0  0  0  0  0  0
    8.1494   -4.8419   25.9978 S   0  0  0  0  0  0  0  0  0  0  0  0
    9.0816   -5.9667   25.9849 O   0  0  0  0  0  0  0  0  0  0  0  0
    8.4768   -3.9544   27.0982 O   0  0  0  0  0  0  0  0  0  0  0  0
    8.2244   -4.0458   24.5970 N   0  0  0  0  0  0  0  0  0  0  0  0
    9.0293   -3.2607   24.1470 C   0  0  0  0  0  0  0  0  0  0  0  0
    9.4687   -2.2866   23.6349 C   0  0  0  0  0  0  0  0  0  0  0  0
   10.2791   -1.3244   23.4803 C   0  0  1  0  0  0  0  0  0  0  0  0
   10.8393   -0.2998   24.5655 C   0  0  0  0  0  0  0  0  0  0  0  0
   11.9155    0.1507   24.6770 C   0  0  0  0  0  0  0  0  0  0  0  0
   12.9675   -0.1907   23.9689 C   0  0  0  0  0  0  0  0  0  0  0  0
   12.7251   -1.2025   23.0507 C   0  0  0  0  0  0  0  0  0  0  0  0
   11.8549   -1.7330   22.8015 C   0  0  0  0  0  0  0  0  0  0  0  0
    9.6945   -0.7756   22.5278 C   0  0  0  0  0  0  0  0  0  0  0  0
    9.0615   -0.1407   21.5762 C   0  0  0  0  0  0  0  0  0  0  0  0
    9.5479    0.8475   21.2598 O   0  0  0  0  0  0  0  0  0  0  0  0
    7.9668   -0.8150   21.1919 N   0  0  0  0  0  0  0  0  0  0  0  0
    7.3021   -0.3408   20.2549 C   0  0  0  0  0  0  0  0  0  0  0  0
    7.3668   -0.1384   18.9813 C   0  0  0  0  0  0  0  0  0  0  0  0
    6.9794    0.2197   17.8576 N   0  0  0  0  0  0  0  0  0  0  0  0
    5.8031    0.6261   18.3326 C   0  0  0  0  0  0  0  0  0  0  0  0
    5.3398    0.6215   19.4731 C   0  0  0  0  0  0  0  0  0  0  0  0
    5.8106    0.1964   20.5920 C   0  0  0  0  0  0  0  0  0  0  0  0
    5.2835    0.1759   21.8109 C   0  0  0  0  0  0  0  0  0  0  0  0
    6.5976   -5.9636   27.0850 H   0  0  0  0  0  0  0  0  0  0  0  0
    5.9674   -4.5805   26.1278 H   0  0  0  0  0  0  0  0  0  0  0  0
    6.4765   -6.0897   25.2973 H   0  0  0  0  0  0  0  0  0  0  0  0
    7.3634   -3.5378   24.5711 H   0  0  0  0  0  0  0  0  0  0  0  0
   10.1233    0.0266   25.3052 H   0  0  0  0  0  0  0  0  0  0  0  0
   12.0544    0.9139   25.4284 H   0  0  0  0  0  0  0  0  0  0  0  0
   13.9346    0.2744   24.0904 H   0  0  0  0  0  0  0  0  0  0  0  0
   13.5964   -1.4999   22.4862 H   0  0  0  0  0  0  0  0  0  0  0  0
   11.7488   -1.6534   21.7095 H   0  0  0  0  0  0  0  0  0  0  0  0
   12.0450   -2.7811   23.0760 H   0  0  0  0  0  0  0  0  0  0  0  0
    9.0896   -1.6778   22.3543 H   0  0  0  0  0  0  0  0  0  0  0  0
   10.6071   -0.8227   21.9155 H   0  0  0  0  0  0  0  0  0  0  0  0
    7.6963   -1.6660   21.6420 H   0  0  0  0  0  0  0  0  0  0  0  0
    8.3601   -0.4994   18.7587 H   0  0  0  0  0  0  0  0  0  0  0  0
    5.1380    1.0317   17.5845 H   0  0  0  0  0  0  0  0  0  0  0  0
    4.3536    1.0554   19.5483 H   0  0  0  0  0  0  0  0  0  0  0  0
    4.7484   -0.7729   21.9636 H   0  0  0  0  0  0  0  0  0  0  0  0
    6.0851    0.2691   22.5585 H   0  0  0  0  0  0  0  0  0  0  0  0
    4.5806    1.0149   21.9205 H   0  0  0  0  0  0  0  0  0  0  0  0
 20 21  2  0  0  0  0
 19 20  1  0  0  0  0
 21 22  1  0  0  0  0
 18 19  2  0  0  0  0
 22 23  2  0  0  0  0
 18 23  1  0  0  0  0
 17 18  1  0  0  0  0
 23 24  1  0  0  0  0
 15 16  2  0  0  0  0
 15 17  1  0  0  0  0
 14 15  1  0  0  0  0
  8 14  1  0  0  0  0
 12 13  1  0  0  0  0
  8 13  1  0  0  0  0
 11 12  2  0  0  0  0
  7  8  1  0  0  0  0
  8  9  1  0  0  0  0
 10 11  1  0  0  0  0
  6  7  3  0  0  0  0
  5  6  1  0  0  0  0
  9 10  2  0  0  0  0
  2  5  1  0  0  0  0
  2  3  2  0  0  0  0
  1  2  1  0  0  0  0
  2  4  2  0  0  0  0
  1 25  1  0  0  0  0
  1 26  1  0  0  0  0
  1 27  1  0  0  0  0
  5 28  1  0  0  0  0
  9 29  1  0  0  0  0
 10 30  1  0  0  0  0
 11 31  1  0  0  0  0
 12 32  1  0  0  0  0
 13 33  1  0  0  0  0
 13 34  1  0  0  0  0
 14 35  1  0  0  0  0
 14 36  1  0  0  0  0
 17 37  1  0  0  0  0
 19 38  1  0  0  0  0
 21 39  1  0  0  0  0
 22 40  1  0  0  0  0
 24 41  1  0  0  0  0
 24 42  1  0  0  0  0
 24 43  1  0  0  0  0
M  END
> <Chemgauss4>
-13.032640

$$$$
