stable:False satoms:19 tatoms:24 sratio:0.7916666666666666
  -OEChem-07092417373D

 24 26  0     0  0  0  0  0  0999 V2000
    7.2813   -4.0818   26.3907 Cl  0  0  0  0  0  0  0  0  0  0  0  0
    9.4850   -2.4775   26.2396 C   0  0  0  0  0  0  0  0  0  0  0  0
    8.4658   -3.0611   25.5700 C   0  0  0  0  0  0  0  0  0  0  0  0
    9.6480   -2.6105   27.2840 H   0  0  0  0  0  0  0  0  0  0  0  0
    8.2896   -2.6843   24.2204 C   0  0  0  0  0  0  0  0  0  0  0  0
    7.5069   -3.1163   23.6800 H   0  0  0  0  0  0  0  0  0  0  0  0
    9.0789   -1.7389   23.5349 C   0  0  0  0  0  0  0  0  0  0  0  0
   10.2911   -1.3338   24.1687 C   0  0  0  0  0  0  0  0  0  0  0  0
   10.4443   -1.5918   25.4852 C   0  0  0  0  0  0  0  0  0  0  0  0
   11.3471   -0.6989   23.5504 N   0  0  0  0  0  0  0  0  0  0  0  0
   11.8877   -0.9152   26.1096 Cl  0  0  0  0  0  0  0  0  0  0  0  0
   12.1173   -0.7079   21.6845 H   0  0  0  0  0  0  0  0  0  0  0  0
   11.2150   -0.7288   22.2695 C   0  0  0  0  0  0  0  0  0  0  0  0
    9.9105   -0.6613   21.6257 C   0  0  0  0  0  0  0  0  0  0  0  0
    9.6637   -0.1344   20.4766 N   0  5  0  0  0  0  0  0  0  0  0  0
    8.7821   -1.1035   22.2129 N   0  0  0  0  0  0  0  0  0  0  0  0
    8.7686   -0.1848   20.0564 H   0  0  0  0  0  0  0  0  0  0  0  0
    6.6654    0.1779   19.7045 C   0  0  0  0  0  0  0  0  0  0  0  0
    7.6740   -1.1034   21.3767 N   0  0  0  0  0  0  0  0  0  0  0  0
    7.2114    0.3122   18.4382 N   0  0  0  0  0  0  0  0  0  0  0  0
    6.0995    0.4499   17.8697 O   0  0  0  0  0  0  0  0  0  0  0  0
    5.2552    0.7503   18.0043 H   0  0  0  0  0  0  0  0  0  0  0  0
    6.8277   -0.3043   20.7405 C   0  0  0  0  0  0  0  0  0  0  0  0
    5.6679    0.2580   20.6036 O   0  0  0  0  0  0  0  0  0  0  0  0
 21 22  1  0  0  0  0
 20 21  1  0  0  0  0
 18 20  1  0  0  0  0
 18 24  1  0  0  0  0
 18 23  2  0  0  0  0
 15 17  1  0  0  0  0
 14 15  1  0  0  0  0
 23 24  1  0  0  0  0
 19 23  1  0  0  0  0
 16 19  1  0  0  0  0
 14 16  1  0  0  0  0
 13 14  2  0  0  0  0
 12 13  1  0  0  0  0
  7 16  1  0  0  0  0
 10 13  1  0  0  0  0
  7  8  2  0  0  0  0
  5  7  1  0  0  0  0
  8 10  1  0  0  0  0
  5  6  1  0  0  0  0
  8  9  1  0  0  0  0
  3  5  2  0  0  0  0
  9 11  1  0  0  0  0
  2  9  2  0  0  0  0
  2  3  1  0  0  0  0
  1  3  1  0  0  0  0
  2  4  1  0  0  0  0
M  CHG  1  15  -1
M  END
> <Shapegauss>
-189.757843

$$$$
