stable:False satoms:19 tatoms:24 sratio:0.7916666666666666
  -OEChem-08062401063D

 28 30  0     0  0  0  0  0  0999 V2000
   13.5381   -1.8628   22.9095 Cl  0  0  0  0  0  0  0  0  0  0  0  0
   12.2857    0.1713   24.2312 C   0  0  0  0  0  0  0  0  0  0  0  0
   12.1850   -1.0810   23.7320 C   0  0  0  0  0  0  0  0  0  0  0  0
   13.1663    0.7645   24.1437 H   0  0  0  0  0  0  0  0  0  0  0  0
   11.0105   -1.8004   24.0441 C   0  0  0  0  0  0  0  0  0  0  0  0
   10.9080   -2.7724   23.6752 H   0  0  0  0  0  0  0  0  0  0  0  0
    9.9564   -1.3192   24.8466 C   0  0  0  0  0  0  0  0  0  0  0  0
    9.9610    0.0760   25.1441 C   0  0  0  0  0  0  0  0  0  0  0  0
   11.1031    0.7698   24.9504 C   0  0  0  0  0  0  0  0  0  0  0  0
    8.8855    0.8008   25.6115 N   0  0  0  0  0  0  0  0  0  0  0  0
   10.9711    2.3895   25.4892 Cl  0  0  0  0  0  0  0  0  0  0  0  0
    6.8823    0.6717   25.3985 H   0  0  0  0  0  0  0  0  0  0  0  0
    7.7968    0.1187   25.5196 C   0  0  0  0  0  0  0  0  0  0  0  0
    7.7728   -1.3261   25.7008 C   0  0  0  0  0  0  0  0  0  0  0  0
    6.7925   -2.0089   26.1822 N   0  0  0  0  0  0  0  0  0  0  0  0
    8.8311   -2.1140   25.4310 N   0  0  0  0  0  0  0  0  0  0  0  0
    6.0229   -1.3995   26.3725 H   0  0  0  0  0  0  0  0  0  0  0  0
    7.3553   -5.0069   26.7976 C   0  0  0  0  0  0  0  0  0  0  0  0
    8.5573   -3.4726   25.5106 N   0  3  0  0  0  0  0  0  0  0  0  0
    5.9709   -5.0625   26.7895 N   0  0  0  0  0  0  0  0  0  0  0  0
    5.9243   -6.2962   27.0222 O   0  5  0  0  0  0  0  0  0  0  0  0
    8.2657   -4.4458   26.3636 C   0  0  0  0  0  0  0  0  0  0  0  0
    8.5817   -5.4995   27.0490 O   0  0  0  0  0  0  0  0  0  0  0  0
    8.9429    1.7313   25.9734 H   0  0  0  0  0  0  0  0  0  0  0  0
    7.0815   -2.4551   27.0292 H   0  0  0  0  0  0  0  0  0  0  0  0
    9.3739   -3.8501   25.0739 H   0  0  0  0  0  0  0  0  0  0  0  0
    5.5733   -4.8144   25.9061 H   0  0  0  0  0  0  0  0  0  0  0  0
    7.7819   -3.5406   24.8828 H   0  0  0  0  0  0  0  0  0  0  0  0
 20 21  1  0  0  0  0
 18 20  1  0  0  0  0
 18 23  1  0  0  0  0
 18 22  2  0  0  0  0
 15 17  1  0  0  0  0
 14 15  1  0  0  0  0
 22 23  1  0  0  0  0
 19 22  1  0  0  0  0
 16 19  1  0  0  0  0
 14 16  1  0  0  0  0
 13 14  2  0  0  0  0
 12 13  1  0  0  0  0
  7 16  1  0  0  0  0
 10 13  1  0  0  0  0
  7  8  2  0  0  0  0
  5  7  1  0  0  0  0
  8 10  1  0  0  0  0
  5  6  1  0  0  0  0
  8  9  1  0  0  0  0
  3  5  2  0  0  0  0
  9 11  1  0  0  0  0
  2  9  2  0  0  0  0
  2  3  1  0  0  0  0
  1  3  1  0  0  0  0
  2  4  1  0  0  0  0
 10 24  1  0  0  0  0
 15 25  1  0  0  0  0
 19 26  1  0  0  0  0
 20 27  1  0  0  0  0
 19 28  1  0  0  0  0
M  CHG  2  19   1  21  -1
M  END
> <Chemgauss4>
-7.115037

$$$$
