stable:False satoms:19 tatoms:24 sratio:0.7916666666666666
  -OEChem-08062401063D

 28 30  0     0  0  0  0  0  0999 V2000
  -13.2186   -1.9264  -22.8381 Cl  0  0  0  0  0  0  0  0  0  0  0  0
  -12.0234    0.0710  -24.2645 C   0  0  0  0  0  0  0  0  0  0  0  0
  -11.9077   -1.1745  -23.7515 C   0  0  0  0  0  0  0  0  0  0  0  0
  -12.8905    0.6763  -24.1351 H   0  0  0  0  0  0  0  0  0  0  0  0
  -10.7619   -1.9131  -24.1203 C   0  0  0  0  0  0  0  0  0  0  0  0
  -10.6489   -2.8803  -23.7421 H   0  0  0  0  0  0  0  0  0  0  0  0
   -9.7517   -1.4577  -24.9913 C   0  0  0  0  0  0  0  0  0  0  0  0
   -9.7579   -0.0673  -25.3109 C   0  0  0  0  0  0  0  0  0  0  0  0
  -10.8786    0.6435  -25.0617 C   0  0  0  0  0  0  0  0  0  0  0  0
   -8.7037    0.6367  -25.8527 N   0  0  0  0  0  0  0  0  0  0  0  0
  -10.7603    2.2527  -25.6339 Cl  0  0  0  0  0  0  0  0  0  0  0  0
   -6.6930    0.4863  -25.7558 H   0  0  0  0  0  0  0  0  0  0  0  0
   -7.6193   -0.0572  -25.8137 C   0  0  0  0  0  0  0  0  0  0  0  0
   -7.6225   -1.5048  -25.9723 C   0  0  0  0  0  0  0  0  0  0  0  0
   -6.6802   -2.2072  -26.4993 N   0  0  0  0  0  0  0  0  0  0  0  0
   -8.6719   -2.2753  -25.6277 N   0  0  0  0  0  0  0  0  0  0  0  0
   -5.9162   -1.6104  -26.7445 H   0  0  0  0  0  0  0  0  0  0  0  0
   -7.3124   -5.2074  -27.0310 C   0  0  0  0  0  0  0  0  0  0  0  0
   -8.4188   -3.6383  -25.7009 N   0  3  0  0  0  0  0  0  0  0  0  0
   -5.9307   -5.2799  -27.1035 N   0  0  0  0  0  0  0  0  0  0  0  0
   -5.9119   -6.5176  -27.3182 O   0  5  0  0  0  0  0  0  0  0  0  0
   -8.1891   -4.6283  -26.5534 C   0  0  0  0  0  0  0  0  0  0  0  0
   -8.5570   -5.6887  -27.2017 O   0  0  0  0  0  0  0  0  0  0  0  0
   -8.7718    1.5620  -26.2258 H   0  0  0  0  0  0  0  0  0  0  0  0
   -7.0237   -2.6631  -27.3203 H   0  0  0  0  0  0  0  0  0  0  0  0
   -9.2124   -3.9988  -25.2107 H   0  0  0  0  0  0  0  0  0  0  0  0
   -5.4787   -5.0228  -26.2493 H   0  0  0  0  0  0  0  0  0  0  0  0
   -7.6085   -3.7059  -25.1188 H   0  0  0  0  0  0  0  0  0  0  0  0
 20 21  1  0  0  0  0
 18 20  1  0  0  0  0
 18 23  1  0  0  0  0
 18 22  2  0  0  0  0
 15 17  1  0  0  0  0
 14 15  1  0  0  0  0
 22 23  1  0  0  0  0
 19 22  1  0  0  0  0
 16 19  1  0  0  0  0
 14 16  1  0  0  0  0
 13 14  2  0  0  0  0
 12 13  1  0  0  0  0
  7 16  1  0  0  0  0
 10 13  1  0  0  0  0
  7  8  2  0  0  0  0
  5  7  1  0  0  0  0
  8 10  1  0  0  0  0
  5  6  1  0  0  0  0
  8  9  1  0  0  0  0
  3  5  2  0  0  0  0
  9 11  1  0  0  0  0
  2  9  2  0  0  0  0
  2  3  1  0  0  0  0
  1  3  1  0  0  0  0
  2  4  1  0  0  0  0
 10 24  1  0  0  0  0
 15 25  1  0  0  0  0
 19 26  1  0  0  0  0
 20 27  1  0  0  0  0
 19 28  1  0  0  0  0
M  CHG  2  19   1  21  -1
M  END
> <Chemgauss4>
-6.802304

$$$$
