MODEL 1
REMARK VINA RESULT:    -6.886      0.000      0.000
REMARK INTER + INTRA:          -9.558
REMARK INTER:                  -8.899
REMARK INTRA:                  -0.659
REMARK UNBOUND:                -0.659
REMARK  5 active torsions:
REMARK  status: ('A' for Active; 'I' for Inactive)
REMARK    1  A    between atoms: S_2  and  N_5 
REMARK    2  A    between atoms: N_5  and  C_7 
REMARK    3  A    between atoms: C_7  and  N_8 
REMARK    4  A    between atoms: N_8  and  C_13 
REMARK    5  A    between atoms: C_11  and  C_15 
REMARK       I    between atoms: C_15  and  N_17 
ROOT
HETATM    1  O   UNL     1      10.873  15.537   3.407  1.00  0.00    -0.307 OA
HETATM    2  C   UNL     1       9.488  13.827   3.497  1.00  0.00     0.191 C 
HETATM    3  C   UNL     1      10.886  15.003   4.746  1.00  0.00     0.354 C 
HETATM    4  C   UNL     1       9.879  14.957   2.785  1.00  0.00     0.192 C 
HETATM    5  O   UNL     1      10.071  13.815   4.548  1.00  0.00    -0.316 OA
ENDROOT
BRANCH   2   6
HETATM    6  C   UNL     1       8.237  12.850   3.194  1.00  0.00     0.283 C 
HETATM    7  O   UNL     1       7.422  13.435   2.556  1.00  0.00    -0.265 OA
HETATM    8  N   UNL     1       8.203  11.617   3.645  1.00  0.00    -0.325 N 
HETATM    9  C   UNL     1       7.090  11.021   3.366  1.00  0.00     0.014 A 
ATOM     10  HN  UNL     1       8.968  11.178   4.158  1.00  0.00     0.169 HD
HETATM   11  C   UNL     1       6.239  10.778   2.381  1.00  0.00     0.044 A 
HETATM   12  C   UNL     1       6.408  10.067   4.284  1.00  0.00     0.004 A 
HETATM   13  C   UNL     1       5.237   9.954   2.326  1.00  0.00     0.021 A 
HETATM   14  C   UNL     1       5.479   9.649   3.553  1.00  0.00     0.021 A 
ENDBRANCH   2   6
BRANCH   4  15
HETATM   15  N   UNL     1       9.364  15.128   1.608  1.00  0.00    -0.285 N 
ATOM     16  HN  UNL     1       9.003  14.261   1.212  1.00  0.00     0.179 HD
BRANCH  15  17
HETATM   17  C   UNL     1       9.215  16.042   0.890  1.00  0.00     0.065 C 
BRANCH  17  18
HETATM   18  N   UNL     1       9.420  17.072   0.339  1.00  0.00    -0.222 N 
ATOM     19  HN  UNL     1       9.736  16.974  -0.625  1.00  0.00     0.191 HD
BRANCH  18  20
HETATM   20  S   UNL     1       9.292  18.608   0.841  1.00  0.00     0.328 S 
HETATM   21 CL   UNL     1       7.603  18.624   1.662  1.00  0.00     0.042 Cl
HETATM   22  O   UNL     1      10.254  18.897   1.871  1.00  0.00    -0.188 OA
HETATM   23  O   UNL     1       9.316  19.515  -0.237  1.00  0.00    -0.188 OA
ENDBRANCH  18  20
ENDBRANCH  17  18
ENDBRANCH  15  17
ENDBRANCH   4  15
TORSDOF 5
ENDMDL
MODEL 2
REMARK VINA RESULT:    -6.850     22.930     25.485
REMARK INTER + INTRA:          -9.511
REMARK INTER:                  -8.744
REMARK INTRA:                  -0.767
REMARK UNBOUND:                -0.659
REMARK  5 active torsions:
REMARK  status: ('A' for Active; 'I' for Inactive)
REMARK    1  A    between atoms: S_2  and  N_5 
REMARK    2  A    between atoms: N_5  and  C_7 
REMARK    3  A    between atoms: C_7  and  N_8 
REMARK    4  A    between atoms: N_8  and  C_13 
REMARK    5  A    between atoms: C_11  and  C_15 
REMARK       I    between atoms: C_15  and  N_17 
ROOT
HETATM    1  O   UNL     1       5.283  -4.222  21.557  1.00  0.00    -0.307 OA
HETATM    2  C   UNL     1       6.946  -3.344  22.703  1.00  0.00     0.191 C 
HETATM    3  C   UNL     1       5.993  -5.283  22.226  1.00  0.00     0.354 C 
HETATM    4  C   UNL     1       6.013  -3.144  21.690  1.00  0.00     0.192 C 
HETATM    5  O   UNL     1       6.906  -4.497  23.039  1.00  0.00    -0.316 OA
ENDROOT
BRANCH   2   6
HETATM    6  C   UNL     1       8.137  -2.353  23.162  1.00  0.00     0.283 C 
HETATM    7  O   UNL     1       7.679  -1.304  23.485  1.00  0.00    -0.265 OA
HETATM    8  N   UNL     1       9.395  -2.728  23.128  1.00  0.00    -0.325 N 
HETATM    9  C   UNL     1      10.203  -1.774  23.457  1.00  0.00     0.014 A 
ATOM     10  HN  UNL     1       9.701  -3.666  22.871  1.00  0.00     0.169 HD
HETATM   11  C   UNL     1      10.416  -0.835  24.368  1.00  0.00     0.044 A 
HETATM   12  C   UNL     1      11.532  -1.557  22.822  1.00  0.00     0.004 A 
HETATM   13  C   UNL     1      11.459  -0.089  24.571  1.00  0.00     0.021 A 
HETATM   14  C   UNL     1      11.998  -0.641  23.541  1.00  0.00     0.021 A 
ENDBRANCH   2   6
BRANCH   4  15
HETATM   15  N   UNL     1       5.898  -1.944  21.213  1.00  0.00    -0.285 N 
ATOM     16  HN  UNL     1       6.059  -1.228  21.920  1.00  0.00     0.179 HD
BRANCH  15  17
HETATM   17  C   UNL     1       5.653  -1.487  20.162  1.00  0.00     0.065 C 
BRANCH  17  18
HETATM   18  N   UNL     1       5.460  -0.678  19.316  1.00  0.00    -0.222 N 
ATOM     19  HN  UNL     1       4.678  -0.899  18.700  1.00  0.00     0.191 HD
BRANCH  18  20
HETATM   20  S   UNL     1       6.213   0.713  18.961  1.00  0.00     0.328 S 
HETATM   21 CL   UNL     1       5.458   1.907  20.198  1.00  0.00     0.042 Cl
HETATM   22  O   UNL     1       7.616   0.633  19.267  1.00  0.00    -0.188 OA
HETATM   23  O   UNL     1       5.936   1.136  17.646  1.00  0.00    -0.188 OA
ENDBRANCH  18  20
ENDBRANCH  17  18
ENDBRANCH  15  17
ENDBRANCH   4  15
TORSDOF 5
ENDMDL
MODEL 3
REMARK VINA RESULT:    -6.709     23.159     25.762
REMARK INTER + INTRA:          -9.328
REMARK INTER:                  -8.483
REMARK INTRA:                  -0.846
REMARK UNBOUND:                -0.659
REMARK  5 active torsions:
REMARK  status: ('A' for Active; 'I' for Inactive)
REMARK    1  A    between atoms: S_2  and  N_5 
REMARK    2  A    between atoms: N_5  and  C_7 
REMARK    3  A    between atoms: C_7  and  N_8 
REMARK    4  A    between atoms: N_8  and  C_13 
REMARK    5  A    between atoms: C_11  and  C_15 
REMARK       I    between atoms: C_15  and  N_17 
ROOT
HETATM    1  O   UNL     1       6.073  -0.363  19.507  1.00  0.00    -0.307 OA
HETATM    2  C   UNL     1       8.116  -0.160  20.307  1.00  0.00     0.191 C 
HETATM    3  C   UNL     1       6.895   0.285  18.515  1.00  0.00     0.354 C 
HETATM    4  C   UNL     1       6.777  -0.396  20.609  1.00  0.00     0.192 C 
HETATM    5  O   UNL     1       8.196   0.162  19.152  1.00  0.00    -0.316 OA
ENDROOT
BRANCH   2   6
HETATM    6  C   UNL     1       9.348   0.010  21.338  1.00  0.00     0.283 C 
HETATM    7  O   UNL     1       9.664   1.155  21.394  1.00  0.00    -0.265 OA
HETATM    8  N   UNL     1       9.872  -1.023  21.958  1.00  0.00    -0.325 N 
HETATM    9  C   UNL     1      10.895  -0.697  22.679  1.00  0.00     0.014 A 
ATOM     10  HN  UNL     1       9.513  -1.974  21.881  1.00  0.00     0.169 HD
HETATM   11  C   UNL     1      11.317   0.174  23.584  1.00  0.00     0.044 A 
HETATM   12  C   UNL     1      12.105  -1.552  22.834  1.00  0.00     0.004 A 
HETATM   13  C   UNL     1      12.390   0.165  24.316  1.00  0.00     0.021 A 
HETATM   14  C   UNL     1      12.741  -0.914  23.708  1.00  0.00     0.021 A 
ENDBRANCH   2   6
BRANCH   4  15
HETATM   15  N   UNL     1       6.496  -0.777  21.816  1.00  0.00    -0.285 N 
ATOM     16  HN  UNL     1       6.316   0.010  22.439  1.00  0.00     0.179 HD
BRANCH  15  17
HETATM   17  C   UNL     1       6.400  -1.809  22.362  1.00  0.00     0.065 C 
BRANCH  17  18
HETATM   18  N   UNL     1       6.327  -2.981  22.524  1.00  0.00    -0.222 N 
ATOM     19  HN  UNL     1       5.503  -3.410  22.104  1.00  0.00     0.191 HD
BRANCH  18  20
HETATM   20  S   UNL     1       7.300  -4.026  23.292  1.00  0.00     0.328 S 
HETATM   21 CL   UNL     1       7.321  -5.493  22.119  1.00  0.00     0.042 Cl
HETATM   22  O   UNL     1       8.648  -3.528  23.353  1.00  0.00    -0.188 OA
HETATM   23  O   UNL     1       6.774  -4.411  24.541  1.00  0.00    -0.188 OA
ENDBRANCH  18  20
ENDBRANCH  17  18
ENDBRANCH  15  17
ENDBRANCH   4  15
TORSDOF 5
ENDMDL
MODEL 4
REMARK VINA RESULT:    -6.358     23.304     25.563
REMARK INTER + INTRA:          -8.875
REMARK INTER:                  -8.101
REMARK INTRA:                  -0.774
REMARK UNBOUND:                -0.659
REMARK  5 active torsions:
REMARK  status: ('A' for Active; 'I' for Inactive)
REMARK    1  A    between atoms: S_2  and  N_5 
REMARK    2  A    between atoms: N_5  and  C_7 
REMARK    3  A    between atoms: C_7  and  N_8 
REMARK    4  A    between atoms: N_8  and  C_13 
REMARK    5  A    between atoms: C_11  and  C_15 
REMARK       I    between atoms: C_15  and  N_17 
ROOT
HETATM    1  O   UNL     1      10.772  -2.190  23.256  1.00  0.00    -0.307 OA
HETATM    2  C   UNL     1       9.407  -0.831  22.188  1.00  0.00     0.191 C 
HETATM    3  C   UNL     1      11.555  -1.303  22.433  1.00  0.00     0.354 C 
HETATM    4  C   UNL     1       9.523  -2.019  22.904  1.00  0.00     0.192 C 
HETATM    5  O   UNL     1      10.509  -0.405  21.971  1.00  0.00    -0.316 OA
ENDROOT
BRANCH   2   6
HETATM    6  C   UNL     1       8.095  -0.245  21.449  1.00  0.00     0.283 C 
HETATM    7  O   UNL     1       7.229  -0.082  22.248  1.00  0.00    -0.265 OA
HETATM    8  N   UNL     1       8.072  -0.033  20.153  1.00  0.00    -0.325 N 
HETATM    9  C   UNL     1       6.913   0.362  19.739  1.00  0.00     0.014 A 
ATOM     10  HN  UNL     1       8.878  -0.166  19.542  1.00  0.00     0.169 HD
HETATM   11  C   UNL     1       5.940   1.226  19.986  1.00  0.00     0.044 A 
HETATM   12  C   UNL     1       6.315  -0.047  18.438  1.00  0.00     0.004 A 
HETATM   13  C   UNL     1       4.910   1.554  19.266  1.00  0.00     0.021 A 
HETATM   14  C   UNL     1       5.289   0.675  18.405  1.00  0.00     0.021 A 
ENDBRANCH   2   6
BRANCH   4  15
HETATM   15  N   UNL     1       8.427  -2.618  23.249  1.00  0.00    -0.285 N 
ATOM     16  HN  UNL     1       7.758  -1.982  23.684  1.00  0.00     0.179 HD
BRANCH  15  17
HETATM   17  C   UNL     1       8.021  -3.714  23.180  1.00  0.00     0.065 C 
BRANCH  17  18
HETATM   18  N   UNL     1       7.542  -4.699  22.725  1.00  0.00    -0.222 N 
ATOM     19  HN  UNL     1       8.205  -5.462  22.592  1.00  0.00     0.191 HD
BRANCH  18  20
HETATM   20  S   UNL     1       6.025  -5.053  22.275  1.00  0.00     0.328 S 
HETATM   21 CL   UNL     1       5.109  -3.458  22.655  1.00  0.00     0.042 Cl
HETATM   22  O   UNL     1       5.941  -5.248  20.852  1.00  0.00    -0.188 OA
HETATM   23  O   UNL     1       5.488  -6.113  23.032  1.00  0.00    -0.188 OA
ENDBRANCH  18  20
ENDBRANCH  17  18
ENDBRANCH  15  17
ENDBRANCH   4  15
TORSDOF 5
ENDMDL
MODEL 5
REMARK VINA RESULT:    -6.260     27.213     29.889
REMARK INTER + INTRA:          -8.749
REMARK INTER:                  -8.235
REMARK INTRA:                  -0.514
REMARK UNBOUND:                -0.659
REMARK  5 active torsions:
REMARK  status: ('A' for Active; 'I' for Inactive)
REMARK    1  A    between atoms: S_2  and  N_5 
REMARK    2  A    between atoms: N_5  and  C_7 
REMARK    3  A    between atoms: C_7  and  N_8 
REMARK    4  A    between atoms: N_8  and  C_13 
REMARK    5  A    between atoms: C_11  and  C_15 
REMARK       I    between atoms: C_15  and  N_17 
ROOT
HETATM    1  O   UNL     1       6.512  -5.538  24.102  1.00  0.00    -0.307 OA
HETATM    2  C   UNL     1       7.970  -3.926  23.746  1.00  0.00     0.191 C 
HETATM    3  C   UNL     1       6.356  -5.066  22.749  1.00  0.00     0.354 C 
HETATM    4  C   UNL     1       7.308  -4.691  24.702  1.00  0.00     0.192 C 
HETATM    5  O   UNL     1       7.492  -4.162  22.669  1.00  0.00    -0.316 OA
ENDROOT
BRANCH   2   6
HETATM    6  C   UNL     1       8.965  -2.677  23.994  1.00  0.00     0.283 C 
HETATM    7  O   UNL     1       8.795  -2.245  25.089  1.00  0.00    -0.265 OA
HETATM    8  N   UNL     1       9.789  -2.259  23.060  1.00  0.00    -0.325 N 
HETATM    9  C   UNL     1      10.446  -1.205  23.419  1.00  0.00     0.014 A 
ATOM     10  HN  UNL     1       9.899  -2.715  22.154  1.00  0.00     0.169 HD
HETATM   11  C   UNL     1      11.164  -0.691  24.406  1.00  0.00     0.044 A 
HETATM   12  C   UNL     1      10.790  -0.089  22.494  1.00  0.00     0.004 A 
HETATM   13  C   UNL     1      11.900   0.378  24.436  1.00  0.00     0.021 A 
HETATM   14  C   UNL     1      11.527   0.613  23.226  1.00  0.00     0.021 A 
ENDBRANCH   2   6
BRANCH   4  15
HETATM   15  N   UNL     1       7.705  -4.584  25.932  1.00  0.00    -0.285 N 
ATOM     16  HN  UNL     1       8.342  -3.799  26.067  1.00  0.00     0.179 HD
BRANCH  15  17
HETATM   17  C   UNL     1       7.506  -5.173  26.925  1.00  0.00     0.065 C 
BRANCH  17  18
HETATM   18  N   UNL     1       7.492  -6.062  27.709  1.00  0.00    -0.222 N 
ATOM     19  HN  UNL     1       8.253  -6.731  27.596  1.00  0.00     0.191 HD
BRANCH  18  20
HETATM   20  S   UNL     1       6.482  -6.408  28.930  1.00  0.00     0.328 S 
HETATM   21 CL   UNL     1       4.835  -6.599  28.048  1.00  0.00     0.042 Cl
HETATM   22  O   UNL     1       6.792  -7.688  29.508  1.00  0.00    -0.188 OA
HETATM   23  O   UNL     1       6.413  -5.357  29.866  1.00  0.00    -0.188 OA
ENDBRANCH  18  20
ENDBRANCH  17  18
ENDBRANCH  15  17
ENDBRANCH   4  15
TORSDOF 5
ENDMDL
MODEL 6
REMARK VINA RESULT:    -6.001     25.019     25.757
REMARK INTER + INTRA:          -8.414
REMARK INTER:                  -7.473
REMARK INTRA:                  -0.941
REMARK UNBOUND:                -0.659
REMARK  5 active torsions:
REMARK  status: ('A' for Active; 'I' for Inactive)
REMARK    1  A    between atoms: S_2  and  N_5 
REMARK    2  A    between atoms: N_5  and  C_7 
REMARK    3  A    between atoms: C_7  and  N_8 
REMARK    4  A    between atoms: N_8  and  C_13 
REMARK    5  A    between atoms: C_11  and  C_15 
REMARK       I    between atoms: C_15  and  N_17 
ROOT
HETATM    1  O   UNL     1      12.974  -0.710  24.033  1.00  0.00    -0.307 OA
HETATM    2  C   UNL     1      11.121  -1.424  23.080  1.00  0.00     0.191 C 
HETATM    3  C   UNL     1      13.317  -1.697  23.041  1.00  0.00     0.354 C 
HETATM    4  C   UNL     1      11.673  -0.754  24.168  1.00  0.00     0.192 C 
HETATM    5  O   UNL     1      12.014  -1.898  22.429  1.00  0.00    -0.316 OA
ENDROOT
BRANCH   2   6
HETATM    6  C   UNL     1       9.575  -1.830  22.848  1.00  0.00     0.283 C 
HETATM    7  O   UNL     1       9.002  -0.929  22.323  1.00  0.00    -0.265 OA
HETATM    8  N   UNL     1       9.104  -2.994  23.233  1.00  0.00    -0.325 N 
HETATM    9  C   UNL     1       7.832  -3.102  23.031  1.00  0.00     0.014 A 
ATOM     10  HN  UNL     1       9.678  -3.730  23.645  1.00  0.00     0.169 HD
HETATM   11  C   UNL     1       6.886  -2.921  22.122  1.00  0.00     0.044 A 
HETATM   12  C   UNL     1       6.903  -3.805  23.959  1.00  0.00     0.004 A 
HETATM   13  C   UNL     1       5.644  -3.301  22.120  1.00  0.00     0.021 A 
HETATM   14  C   UNL     1       5.836  -3.779  23.300  1.00  0.00     0.021 A 
ENDBRANCH   2   6
BRANCH   4  15
HETATM   15  N   UNL     1      10.856  -0.156  24.978  1.00  0.00    -0.285 N 
ATOM     16  HN  UNL     1      10.579  -0.752  25.758  1.00  0.00     0.179 HD
BRANCH  15  17
HETATM   17  C   UNL     1      10.361   0.904  25.027  1.00  0.00     0.065 C 
BRANCH  17  18
HETATM   18  N   UNL     1       9.980   1.973  24.684  1.00  0.00    -0.222 N 
ATOM     19  HN  UNL     1       9.731   2.594  25.454  1.00  0.00     0.191 HD
BRANCH  18  20
HETATM   20  S   UNL     1       9.784   2.629  23.214  1.00  0.00     0.328 S 
HETATM   21 CL   UNL     1      10.110   4.450  23.538  1.00  0.00     0.042 Cl
HETATM   22  O   UNL     1      10.808   2.181  22.309  1.00  0.00    -0.188 OA
HETATM   23  O   UNL     1       8.472   2.448  22.732  1.00  0.00    -0.188 OA
ENDBRANCH  18  20
ENDBRANCH  17  18
ENDBRANCH  15  17
ENDBRANCH   4  15
TORSDOF 5
ENDMDL
MODEL 7
REMARK VINA RESULT:    -5.720     23.061     25.358
REMARK INTER + INTRA:          -8.051
REMARK INTER:                  -7.533
REMARK INTRA:                  -0.518
REMARK UNBOUND:                -0.659
REMARK  5 active torsions:
REMARK  status: ('A' for Active; 'I' for Inactive)
REMARK    1  A    between atoms: S_2  and  N_5 
REMARK    2  A    between atoms: N_5  and  C_7 
REMARK    3  A    between atoms: C_7  and  N_8 
REMARK    4  A    between atoms: N_8  and  C_13 
REMARK    5  A    between atoms: C_11  and  C_15 
REMARK       I    between atoms: C_15  and  N_17 
ROOT
HETATM    1  O   UNL     1      10.461   0.468  23.352  1.00  0.00    -0.307 OA
HETATM    2  C   UNL     1       9.353  -1.422  23.586  1.00  0.00     0.191 C 
HETATM    3  C   UNL     1      10.753  -0.079  24.653  1.00  0.00     0.354 C 
HETATM    4  C   UNL     1       9.472  -0.237  22.865  1.00  0.00     0.192 C 
HETATM    5  O   UNL     1      10.087  -1.366  24.536  1.00  0.00    -0.316 OA
ENDROOT
BRANCH   2   6
HETATM    6  C   UNL     1       8.217  -2.560  23.439  1.00  0.00     0.283 C 
HETATM    7  O   UNL     1       7.478  -2.506  24.370  1.00  0.00    -0.265 OA
HETATM    8  N   UNL     1       8.203  -3.391  22.422  1.00  0.00    -0.325 N 
HETATM    9  C   UNL     1       7.266  -4.276  22.522  1.00  0.00     0.014 A 
ATOM     10  HN  UNL     1       8.859  -3.344  21.642  1.00  0.00     0.169 HD
HETATM   11  C   UNL     1       5.974  -4.425  22.773  1.00  0.00     0.044 A 
HETATM   12  C   UNL     1       7.417  -5.694  22.092  1.00  0.00     0.004 A 
HETATM   13  C   UNL     1       5.207  -5.461  22.622  1.00  0.00     0.021 A 
HETATM   14  C   UNL     1       6.246  -6.118  22.239  1.00  0.00     0.021 A 
ENDBRANCH   2   6
BRANCH   4  15
HETATM   15  N   UNL     1       8.764  -0.122  21.785  1.00  0.00    -0.285 N 
ATOM     16  HN  UNL     1       9.152  -0.656  21.008  1.00  0.00     0.179 HD
BRANCH  15  17
HETATM   17  C   UNL     1       7.784   0.448  21.490  1.00  0.00     0.065 C 
BRANCH  17  18
HETATM   18  N   UNL     1       6.980   1.013  20.825  1.00  0.00    -0.222 N 
ATOM     19  HN  UNL     1       6.712   1.929  21.184  1.00  0.00     0.191 HD
BRANCH  18  20
HETATM   20  S   UNL     1       6.230   0.594  19.450  1.00  0.00     0.328 S 
HETATM   21 CL   UNL     1       4.877   1.890  19.319  1.00  0.00     0.042 Cl
HETATM   22  O   UNL     1       7.093   0.783  18.314  1.00  0.00    -0.188 OA
HETATM   23  O   UNL     1       5.664  -0.693  19.533  1.00  0.00    -0.188 OA
ENDBRANCH  18  20
ENDBRANCH  17  18
ENDBRANCH  15  17
ENDBRANCH   4  15
TORSDOF 5
ENDMDL
MODEL 8
REMARK VINA RESULT:    -5.703     22.893     24.408
REMARK INTER + INTRA:          -8.029
REMARK INTER:                  -7.309
REMARK INTRA:                  -0.720
REMARK UNBOUND:                -0.659
REMARK  5 active torsions:
REMARK  status: ('A' for Active; 'I' for Inactive)
REMARK    1  A    between atoms: S_2  and  N_5 
REMARK    2  A    between atoms: N_5  and  C_7 
REMARK    3  A    between atoms: C_7  and  N_8 
REMARK    4  A    between atoms: N_8  and  C_13 
REMARK    5  A    between atoms: C_11  and  C_15 
REMARK       I    between atoms: C_15  and  N_17 
ROOT
HETATM    1  O   UNL     1      26.272  -0.734  11.203  1.00  0.00    -0.307 OA
HETATM    2  C   UNL     1      25.467  -1.243  13.189  1.00  0.00     0.191 C 
HETATM    3  C   UNL     1      27.074  -1.790  11.769  1.00  0.00     0.354 C 
HETATM    4  C   UNL     1      25.493  -0.304  12.161  1.00  0.00     0.192 C 
HETATM    5  O   UNL     1      26.291  -2.086  12.957  1.00  0.00    -0.316 OA
ENDROOT
BRANCH   2   6
HETATM    6  C   UNL     1      24.742  -1.116  14.627  1.00  0.00     0.283 C 
HETATM    7  O   UNL     1      23.569  -0.996  14.472  1.00  0.00    -0.265 OA
HETATM    8  N   UNL     1      25.429  -1.132  15.747  1.00  0.00    -0.325 N 
HETATM    9  C   UNL     1      24.683  -0.941  16.785  1.00  0.00     0.014 A 
ATOM     10  HN  UNL     1      26.437  -1.278  15.792  1.00  0.00     0.169 HD
HETATM   11  C   UNL     1      23.558  -1.333  17.366  1.00  0.00     0.044 A 
HETATM   12  C   UNL     1      25.107  -0.155  17.977  1.00  0.00     0.004 A 
HETATM   13  C   UNL     1      23.109  -1.097  18.561  1.00  0.00     0.021 A 
HETATM   14  C   UNL     1      24.147  -0.361  18.757  1.00  0.00     0.021 A 
ENDBRANCH   2   6
BRANCH   4  15
HETATM   15  N   UNL     1      24.650   0.679  12.230  1.00  0.00    -0.285 N 
ATOM     16  HN  UNL     1      23.699   0.362  12.417  1.00  0.00     0.179 HD
BRANCH  15  17
HETATM   17  C   UNL     1      24.721   1.844  12.128  1.00  0.00     0.065 C 
BRANCH  17  18
HETATM   18  N   UNL     1      24.718   2.921  11.633  1.00  0.00    -0.222 N 
ATOM     19  HN  UNL     1      24.849   3.685  12.296  1.00  0.00     0.191 HD
BRANCH  18  20
HETATM   20  S   UNL     1      24.543   3.402  10.095  1.00  0.00     0.328 S 
HETATM   21 CL   UNL     1      24.648   5.272  10.243  1.00  0.00     0.042 Cl
HETATM   22  O   UNL     1      25.665   2.989   9.295  1.00  0.00    -0.188 OA
HETATM   23  O   UNL     1      23.292   3.026   9.567  1.00  0.00    -0.188 OA
ENDBRANCH  18  20
ENDBRANCH  17  18
ENDBRANCH  15  17
ENDBRANCH   4  15
TORSDOF 5
ENDMDL
MODEL 9
REMARK VINA RESULT:    -5.615      4.773      7.566
REMARK INTER + INTRA:          -7.915
REMARK INTER:                  -7.055
REMARK INTRA:                  -0.860
REMARK UNBOUND:                -0.659
REMARK  5 active torsions:
REMARK  status: ('A' for Active; 'I' for Inactive)
REMARK    1  A    between atoms: S_2  and  N_5 
REMARK    2  A    between atoms: N_5  and  C_7 
REMARK    3  A    between atoms: C_7  and  N_8 
REMARK    4  A    between atoms: N_8  and  C_13 
REMARK    5  A    between atoms: C_11  and  C_15 
REMARK       I    between atoms: C_15  and  N_17 
ROOT
HETATM    1  O   UNL     1      10.692  17.061   6.735  1.00  0.00    -0.307 OA
HETATM    2  C   UNL     1      10.162  18.403   5.070  1.00  0.00     0.191 C 
HETATM    3  C   UNL     1      10.098  18.257   7.278  1.00  0.00     0.354 C 
HETATM    4  C   UNL     1      10.907  17.296   5.466  1.00  0.00     0.192 C 
HETATM    5  O   UNL     1       9.673  18.904   6.047  1.00  0.00    -0.316 OA
ENDROOT
BRANCH   2   6
HETATM    6  C   UNL     1      10.178  19.146   3.636  1.00  0.00     0.283 C 
HETATM    7  O   UNL     1      10.126  18.335   2.768  1.00  0.00    -0.265 OA
HETATM    8  N   UNL     1      10.259  20.454   3.540  1.00  0.00    -0.325 N 
HETATM    9  C   UNL     1      10.337  20.853   2.312  1.00  0.00     0.014 A 
ATOM     10  HN  UNL     1      10.262  21.083   4.342  1.00  0.00     0.169 HD
HETATM   11  C   UNL     1       9.784  20.711   1.117  1.00  0.00     0.044 A 
HETATM   12  C   UNL     1      11.173  22.002   1.867  1.00  0.00     0.004 A 
HETATM   13  C   UNL     1       9.948  21.406   0.032  1.00  0.00     0.021 A 
HETATM   14  C   UNL     1      10.827  22.101   0.665  1.00  0.00     0.021 A 
ENDBRANCH   2   6
BRANCH   4  15
HETATM   15  N   UNL     1      11.496  16.610   4.536  1.00  0.00    -0.285 N 
ATOM     16  HN  UNL     1      12.327  17.079   4.176  1.00  0.00     0.179 HD
BRANCH  15  17
HETATM   17  C   UNL     1      11.301  15.581   4.012  1.00  0.00     0.065 C 
BRANCH  17  18
HETATM   18  N   UNL     1      10.759  14.738   3.378  1.00  0.00    -0.222 N 
ATOM     19  HN  UNL     1      11.364  13.959   3.117  1.00  0.00     0.191 HD
BRANCH  18  20
HETATM   20  S   UNL     1       9.233  14.598   2.851  1.00  0.00     0.328 S 
HETATM   21 CL   UNL     1       8.760  12.878   3.439  1.00  0.00     0.042 Cl
HETATM   22  O   UNL     1       8.365  15.520   3.533  1.00  0.00    -0.188 OA
HETATM   23  O   UNL     1       9.155  14.668   1.446  1.00  0.00    -0.188 OA
ENDBRANCH  18  20
ENDBRANCH  17  18
ENDBRANCH  15  17
ENDBRANCH   4  15
TORSDOF 5
ENDMDL
