stable:False satoms:22 tatoms:24 sratio:0.9166666666666666
  -OEChem-07092417333D

 24 22  0     1  0  0  0  0  0999 V2000
    8.4195   -3.5753   23.9992 H   0  0  0  0  0  0  0  0  0  0  0  0
    7.3690   -1.2751   23.3846 O   0  0  0  0  0  0  0  0  0  0  0  0
    8.1379   -2.6087   25.3914 H   0  0  0  0  0  0  0  0  0  0  0  0
   10.0720    0.4429   23.0309 H   0  0  0  0  0  0  0  0  0  0  0  0
    6.8807   -1.3343   20.6729 C   0  5  0  0  0  0  0  0  0  0  0  0
   11.5664   -1.7989   23.9949 H   0  0  0  0  0  0  0  0  0  0  0  0
    9.5834   -0.8743   24.6879 H   0  0  0  0  0  0  0  0  0  0  0  0
    9.7103   -3.2980   25.1737 H   0  0  0  0  0  0  0  0  0  0  0  0
    9.9287   -0.6513   20.5159 H   0  0  0  0  0  0  0  0  0  0  0  0
    9.2197    0.2236   22.3861 C   0  0  0  0  0  0  0  0  0  0  0  0
    8.6605   -1.1701   22.8028 C   0  0  1  0  0  0  0  0  0  0  0  0
   11.0380   -1.8093   22.4532 H   0  0  0  0  0  0  0  0  0  0  0  0
   10.8217   -2.0569   23.3972 N   0  0  0  0  0  0  0  0  0  0  0  0
    9.6380    0.2325   21.0041 C   0  5  0  0  0  0  0  0  0  0  0  0
    9.6229    1.1285   20.4505 H   0  0  0  0  0  0  0  0  0  0  0  0
    8.8827   -2.8499   24.6437 C   0  0  0  0  0  0  0  0  0  0  0  0
    9.5144   -1.6655   23.9194 C   0  0  2  0  0  0  0  0  0  0  0  0
    6.5557   -0.0873   20.5803 C   0  0  0  0  0  0  0  0  0  0  0  0
    6.5315   -2.0927   21.2982 H   0  0  0  0  0  0  0  0  0  0  0  0
    7.3512   -1.6138   19.7433 H   0  0  0  0  0  0  0  0  0  0  0  0
    6.2323    0.9511   20.2313 N   0  0  0  0  0  0  0  0  0  0  0  0
    6.7537   -0.6107   23.0335 H   0  0  0  0  0  0  0  0  0  0  0  0
    8.6728   -1.8297   21.9414 H   0  0  0  0  0  0  0  0  0  0  0  0
    8.4209    0.9332   22.5603 H   0  0  0  0  0  0  0  0  0  0  0  0
  5 20  1  0  0  0  0
 18 21  3  0  0  0  0
 14 15  1  0  0  0  0
  9 14  1  0  0  0  0
  5 18  1  0  0  0  0
  5 19  1  0  0  0  0
 10 14  1  0  0  0  0
 11 23  1  0  0  0  0
 10 24  1  0  0  0  0
 10 11  1  0  0  0  0
  4 10  1  0  0  0  0
 12 13  1  0  0  0  0
  2 11  1  0  0  0  0
 11 17  1  0  0  0  0
  2 22  1  0  0  0  0
 13 17  1  0  0  0  0
  6 13  1  0  0  0  0
 16 17  1  0  0  0  0
  7 17  1  0  0  0  0
  1 16  1  0  0  0  0
  8 16  1  0  0  0  0
  3 16  1  0  0  0  0
M  CHG  2   5  -1  14  -1
M  END
> <Shapegauss>
-95.135841

$$$$
