MODEL 1
REMARK VINA RESULT:    -5.261      0.000      0.000
REMARK INTER + INTRA:          -8.374
REMARK INTER:                  -7.875
REMARK INTRA:                  -0.499
REMARK UNBOUND:                -0.499
REMARK  9 active torsions:
REMARK  status: ('A' for Active; 'I' for Inactive)
REMARK    1  A    between atoms: O_2  and  N_5 
REMARK    2  A    between atoms: N_5  and  C_6 
REMARK    3  A    between atoms: C_6  and  C_7 
REMARK    4  A    between atoms: C_7  and  C_11 
REMARK    5  A    between atoms: C_7  and  C_9 
REMARK    6  A    between atoms: C_11  and  C_12 
REMARK    7  A    between atoms: C_12  and  C_13 
REMARK    8  A    between atoms: C_13  and  C_17 
REMARK    9  A    between atoms: O_15  and  C_17 
ROOT
HETATM    1  C   UNL     1       6.535  -1.548  21.122  1.00  0.00     0.055 C 
ENDROOT
BRANCH   1   2
HETATM    2  C   UNL     1       6.026  -0.825  20.026  1.00  0.00     0.178 C 
HETATM    3 CL   UNL     1       5.916   0.925  19.997  1.00  0.00    -0.058 Cl
BRANCH   2   4
HETATM    4  N   UNL     1       5.598  -1.186  18.773  1.00  0.00    -0.110 N 
HETATM    5  O   UNL     1       5.690  -0.476  17.779  1.00  0.00    -0.537 OA
BRANCH   4   6
HETATM    6  O   UNL     1       5.267  -2.464  18.572  1.00  0.00    -0.256 OA
HETATM    7  H   UNL     1       5.237  -2.540  17.595  1.00  0.00     0.248 HD
ENDBRANCH   4   6
ENDBRANCH   2   4
ENDBRANCH   1   2
BRANCH   1   8
HETATM    8  C   UNL     1       7.524  -1.415  21.984  1.00  0.00    -0.025 C 
HETATM    9  C   UNL     1       7.027  -0.659  23.102  1.00  0.00     0.024 C 
BRANCH   8  10
HETATM   10  C   UNL     1       8.956  -1.724  22.013  1.00  0.00     0.073 C 
BRANCH  10  11
HETATM   11  C   UNL     1       9.960  -0.770  22.103  1.00  0.00     0.247 C 
HETATM   12  O   UNL     1      10.006   0.317  21.579  1.00  0.00    -0.282 OA
BRANCH  11  13
HETATM   13  C   UNL     1      11.180  -1.185  23.014  1.00  0.00     0.333 C 
HETATM   14  O   UNL     1      12.067  -1.902  22.670  1.00  0.00    -0.256 OA
BRANCH  13  15
HETATM   15  O   UNL     1      10.981  -0.581  24.178  1.00  0.00    -0.320 OA
HETATM   16  C   UNL     1      12.058   0.256  24.606  1.00  0.00     0.213 C 
ENDBRANCH  13  15
ENDBRANCH  11  13
ENDBRANCH  10  11
ENDBRANCH   8  10
ENDBRANCH   1   8
BRANCH   1  17
HETATM   17  C   UNL     1       5.854  -2.761  21.858  1.00  0.00     0.274 C 
HETATM   18  O   UNL     1       5.216  -3.459  22.130  1.00  0.00    -0.301 OA
ENDBRANCH   1  17
TORSDOF 9
ENDMDL
MODEL 2
REMARK VINA RESULT:    -5.187      4.483      6.191
REMARK INTER + INTRA:          -8.264
REMARK INTER:                  -7.644
REMARK INTRA:                  -0.620
REMARK UNBOUND:                -0.499
REMARK  9 active torsions:
REMARK  status: ('A' for Active; 'I' for Inactive)
REMARK    1  A    between atoms: O_2  and  N_5 
REMARK    2  A    between atoms: N_5  and  C_6 
REMARK    3  A    between atoms: C_6  and  C_7 
REMARK    4  A    between atoms: C_7  and  C_11 
REMARK    5  A    between atoms: C_7  and  C_9 
REMARK    6  A    between atoms: C_11  and  C_12 
REMARK    7  A    between atoms: C_12  and  C_13 
REMARK    8  A    between atoms: C_13  and  C_17 
REMARK    9  A    between atoms: O_15  and  C_17 
ROOT
HETATM    1  C   UNL     1      10.589   2.587  23.628  1.00  0.00     0.055 C 
ENDROOT
BRANCH   1   2
HETATM    2  C   UNL     1      10.913   3.945  23.806  1.00  0.00     0.178 C 
HETATM    3 CL   UNL     1      12.544   4.572  23.658  1.00  0.00    -0.058 Cl
BRANCH   2   4
HETATM    4  N   UNL     1      10.164   5.073  24.031  1.00  0.00    -0.110 N 
HETATM    5  O   UNL     1      10.259   6.107  23.382  1.00  0.00    -0.537 OA
BRANCH   4   6
HETATM    6  O   UNL     1       9.117   4.972  24.853  1.00  0.00    -0.256 OA
HETATM    7  H   UNL     1       9.475   4.476  25.619  1.00  0.00     0.248 HD
ENDBRANCH   4   6
ENDBRANCH   2   4
ENDBRANCH   1   2
BRANCH   1   8
HETATM    8  C   UNL     1      10.452   1.524  24.396  1.00  0.00    -0.025 C 
HETATM    9  C   UNL     1       9.100   1.513  24.888  1.00  0.00     0.024 C 
BRANCH   8  10
HETATM   10  C   UNL     1      11.332   0.486  24.939  1.00  0.00     0.073 C 
BRANCH  10  11
HETATM   11  C   UNL     1      12.328  -0.153  24.214  1.00  0.00     0.247 C 
HETATM   12  O   UNL     1      13.514   0.073  24.215  1.00  0.00    -0.282 OA
BRANCH  11  13
HETATM   13  C   UNL     1      11.817  -1.318  23.280  1.00  0.00     0.333 C 
HETATM   14  O   UNL     1      12.469  -1.837  22.429  1.00  0.00    -0.256 OA
BRANCH  13  15
HETATM   15  O   UNL     1      10.565  -1.552  23.652  1.00  0.00    -0.320 OA
HETATM   16  C   UNL     1       9.664  -1.818  22.574  1.00  0.00     0.213 C 
ENDBRANCH  13  15
ENDBRANCH  11  13
ENDBRANCH  10  11
ENDBRANCH   8  10
ENDBRANCH   1   8
BRANCH   1  17
HETATM   17  C   UNL     1      10.013   1.910  22.329  1.00  0.00     0.274 C 
HETATM   18  O   UNL     1       9.681   1.758  21.415  1.00  0.00    -0.301 OA
ENDBRANCH   1  17
TORSDOF 9
ENDMDL
MODEL 3
REMARK VINA RESULT:    -5.056     23.871     25.874
REMARK INTER + INTRA:          -8.068
REMARK INTER:                  -7.540
REMARK INTRA:                  -0.528
REMARK UNBOUND:                -0.499
REMARK  9 active torsions:
REMARK  status: ('A' for Active; 'I' for Inactive)
REMARK    1  A    between atoms: O_2  and  N_5 
REMARK    2  A    between atoms: N_5  and  C_6 
REMARK    3  A    between atoms: C_6  and  C_7 
REMARK    4  A    between atoms: C_7  and  C_11 
REMARK    5  A    between atoms: C_7  and  C_9 
REMARK    6  A    between atoms: C_11  and  C_12 
REMARK    7  A    between atoms: C_12  and  C_13 
REMARK    8  A    between atoms: C_13  and  C_17 
REMARK    9  A    between atoms: O_15  and  C_17 
ROOT
HETATM    1  C   UNL     1       8.421  14.636   2.581  1.00  0.00     0.055 C 
ENDROOT
BRANCH   1   2
HETATM    2  C   UNL     1       7.794  13.376   2.637  1.00  0.00     0.178 C 
HETATM    3 CL   UNL     1       6.739  12.770   1.375  1.00  0.00    -0.058 Cl
BRANCH   2   4
HETATM    4  N   UNL     1       7.861  12.327   3.520  1.00  0.00    -0.110 N 
HETATM    5  O   UNL     1       7.385  12.341   4.649  1.00  0.00    -0.537 OA
BRANCH   4   6
HETATM    6  O   UNL     1       8.268  11.144   3.052  1.00  0.00    -0.256 OA
HETATM    7  H   UNL     1       7.515  10.549   3.253  1.00  0.00     0.248 HD
ENDBRANCH   4   6
ENDBRANCH   2   4
ENDBRANCH   1   2
BRANCH   1   8
HETATM    8  C   UNL     1       8.039  15.896   2.511  1.00  0.00    -0.025 C 
HETATM    9  C   UNL     1       7.445  16.240   3.775  1.00  0.00     0.024 C 
BRANCH   8  10
HETATM   10  C   UNL     1       7.964  16.926   1.472  1.00  0.00     0.073 C 
BRANCH  10  11
HETATM   11  C   UNL     1       9.044  17.684   1.042  1.00  0.00     0.247 C 
HETATM   12  O   UNL     1       9.761  17.489   0.090  1.00  0.00    -0.282 OA
BRANCH  11  13
HETATM   13  C   UNL     1       9.349  18.955   1.927  1.00  0.00     0.333 C 
HETATM   14  O   UNL     1       8.604  19.407   2.739  1.00  0.00    -0.256 OA
BRANCH  13  15
HETATM   15  O   UNL     1      10.555  19.367   1.560  1.00  0.00    -0.320 OA
HETATM   16  C   UNL     1      11.276  20.072   2.573  1.00  0.00     0.213 C 
ENDBRANCH  13  15
ENDBRANCH  11  13
ENDBRANCH  10  11
ENDBRANCH   8  10
ENDBRANCH   1   8
BRANCH   1  17
HETATM   17  C   UNL     1       9.942  14.952   2.835  1.00  0.00     0.274 C 
HETATM   18  O   UNL     1      10.903  14.861   3.027  1.00  0.00    -0.301 OA
ENDBRANCH   1  17
TORSDOF 9
ENDMDL
MODEL 4
REMARK VINA RESULT:    -5.004     20.838     23.219
REMARK INTER + INTRA:          -7.989
REMARK INTER:                  -7.311
REMARK INTRA:                  -0.678
REMARK UNBOUND:                -0.499
REMARK  9 active torsions:
REMARK  status: ('A' for Active; 'I' for Inactive)
REMARK    1  A    between atoms: O_2  and  N_5 
REMARK    2  A    between atoms: N_5  and  C_6 
REMARK    3  A    between atoms: C_6  and  C_7 
REMARK    4  A    between atoms: C_7  and  C_11 
REMARK    5  A    between atoms: C_7  and  C_9 
REMARK    6  A    between atoms: C_11  and  C_12 
REMARK    7  A    between atoms: C_12  and  C_13 
REMARK    8  A    between atoms: C_13  and  C_17 
REMARK    9  A    between atoms: O_15  and  C_17 
ROOT
HETATM    1  C   UNL     1       7.721  13.667   2.519  1.00  0.00     0.055 C 
ENDROOT
BRANCH   1   2
HETATM    2  C   UNL     1       8.948  14.359   2.538  1.00  0.00     0.178 C 
HETATM    3 CL   UNL     1       9.346  15.642   1.411  1.00  0.00    -0.058 Cl
BRANCH   2   4
HETATM    4  N   UNL     1      10.037  14.328   3.373  1.00  0.00    -0.110 N 
HETATM    5  O   UNL     1      10.038  13.824   4.490  1.00  0.00    -0.537 OA
BRANCH   4   6
HETATM    6  O   UNL     1      11.224  14.661   2.862  1.00  0.00    -0.256 OA
HETATM    7  H   UNL     1      11.210  14.254   1.970  1.00  0.00     0.248 HD
ENDBRANCH   4   6
ENDBRANCH   2   4
ENDBRANCH   1   2
BRANCH   1   8
HETATM    8  C   UNL     1       6.753  13.406   3.375  1.00  0.00    -0.025 C 
HETATM    9  C   UNL     1       5.887  14.553   3.415  1.00  0.00     0.024 C 
BRANCH   8  10
HETATM   10  C   UNL     1       6.443  12.342   4.334  1.00  0.00     0.073 C 
BRANCH  10  11
HETATM   11  C   UNL     1       7.099  11.120   4.386  1.00  0.00     0.247 C 
HETATM   12  O   UNL     1       8.267  10.909   4.604  1.00  0.00    -0.282 OA
BRANCH  11  13
HETATM   13  C   UNL     1       6.175   9.867   4.125  1.00  0.00     0.333 C 
HETATM   14  O   UNL     1       5.576   9.669   3.115  1.00  0.00    -0.256 OA
BRANCH  13  15
HETATM   15  O   UNL     1       6.226   9.146   5.237  1.00  0.00    -0.320 OA
HETATM   16  C   UNL     1       4.958   8.917   5.856  1.00  0.00     0.213 C 
ENDBRANCH  13  15
ENDBRANCH  11  13
ENDBRANCH  10  11
ENDBRANCH   8  10
ENDBRANCH   1   8
BRANCH   1  17
HETATM   17  C   UNL     1       6.956  13.125   1.255  1.00  0.00     0.274 C 
HETATM   18  O   UNL     1       6.712  12.616   0.449  1.00  0.00    -0.301 OA
ENDBRANCH   1  17
TORSDOF 9
ENDMDL
MODEL 5
REMARK VINA RESULT:    -4.962      2.103      2.726
REMARK INTER + INTRA:          -7.927
REMARK INTER:                  -7.183
REMARK INTRA:                  -0.745
REMARK UNBOUND:                -0.499
REMARK  9 active torsions:
REMARK  status: ('A' for Active; 'I' for Inactive)
REMARK    1  A    between atoms: O_2  and  N_5 
REMARK    2  A    between atoms: N_5  and  C_6 
REMARK    3  A    between atoms: C_6  and  C_7 
REMARK    4  A    between atoms: C_7  and  C_11 
REMARK    5  A    between atoms: C_7  and  C_9 
REMARK    6  A    between atoms: C_11  and  C_12 
REMARK    7  A    between atoms: C_12  and  C_13 
REMARK    8  A    between atoms: C_13  and  C_17 
REMARK    9  A    between atoms: O_15  and  C_17 
ROOT
HETATM    1  C   UNL     1       8.202  -1.534  22.463  1.00  0.00     0.055 C 
ENDROOT
BRANCH   1   2
HETATM    2  C   UNL     1       7.803  -0.862  21.292  1.00  0.00     0.178 C 
HETATM    3 CL   UNL     1       6.223  -1.065  20.558  1.00  0.00    -0.058 Cl
BRANCH   2   4
HETATM    4  N   UNL     1       8.392   0.096  20.506  1.00  0.00    -0.110 N 
HETATM    5  O   UNL     1       9.119   0.987  20.929  1.00  0.00    -0.537 OA
BRANCH   4   6
HETATM    6  O   UNL     1       8.359  -0.076  19.182  1.00  0.00    -0.256 OA
HETATM    7  H   UNL     1       7.634  -0.723  19.055  1.00  0.00     0.248 HD
ENDBRANCH   4   6
ENDBRANCH   2   4
ENDBRANCH   1   2
BRANCH   1   8
HETATM    8  C   UNL     1       8.782  -1.214  23.603  1.00  0.00    -0.025 C 
HETATM    9  C   UNL     1       7.874  -0.366  24.329  1.00  0.00     0.024 C 
BRANCH   8  10
HETATM   10  C   UNL     1      10.102  -1.398  24.212  1.00  0.00     0.073 C 
BRANCH  10  11
HETATM   11  C   UNL     1      11.304  -1.203  23.546  1.00  0.00     0.247 C 
HETATM   12  O   UNL     1      11.821  -1.912  22.717  1.00  0.00    -0.282 OA
BRANCH  11  13
HETATM   13  C   UNL     1      12.067   0.121  23.941  1.00  0.00     0.333 C 
HETATM   14  O   UNL     1      12.970   0.173  24.716  1.00  0.00    -0.256 OA
BRANCH  13  15
HETATM   15  O   UNL     1      11.485   1.091  23.248  1.00  0.00    -0.320 OA
HETATM   16  C   UNL     1      11.171   2.259  24.010  1.00  0.00     0.213 C 
ENDBRANCH  13  15
ENDBRANCH  11  13
ENDBRANCH  10  11
ENDBRANCH   8  10
ENDBRANCH   1   8
BRANCH   1  17
HETATM   17  C   UNL     1       7.828  -3.002  22.890  1.00  0.00     0.274 C 
HETATM   18  O   UNL     1       7.783  -3.984  22.946  1.00  0.00    -0.301 OA
ENDBRANCH   1  17
TORSDOF 9
ENDMDL
MODEL 6
REMARK VINA RESULT:    -4.956     14.171     16.274
REMARK INTER + INTRA:          -7.918
REMARK INTER:                  -7.480
REMARK INTRA:                  -0.439
REMARK UNBOUND:                -0.499
REMARK  9 active torsions:
REMARK  status: ('A' for Active; 'I' for Inactive)
REMARK    1  A    between atoms: O_2  and  N_5 
REMARK    2  A    between atoms: N_5  and  C_6 
REMARK    3  A    between atoms: C_6  and  C_7 
REMARK    4  A    between atoms: C_7  and  C_11 
REMARK    5  A    between atoms: C_7  and  C_9 
REMARK    6  A    between atoms: C_11  and  C_12 
REMARK    7  A    between atoms: C_12  and  C_13 
REMARK    8  A    between atoms: C_13  and  C_17 
REMARK    9  A    between atoms: O_15  and  C_17 
ROOT
HETATM    1  C   UNL     1      22.868  -1.710  25.899  1.00  0.00     0.055 C 
ENDROOT
BRANCH   1   2
HETATM    2  C   UNL     1      22.182  -0.948  24.934  1.00  0.00     0.178 C 
HETATM    3 CL   UNL     1      22.052   0.800  25.003  1.00  0.00    -0.058 Cl
BRANCH   2   4
HETATM    4  N   UNL     1      21.558  -1.261  23.752  1.00  0.00    -0.110 N 
HETATM    5  O   UNL     1      22.103  -1.828  22.812  1.00  0.00    -0.537 OA
BRANCH   4   6
HETATM    6  O   UNL     1      20.229  -1.148  23.699  1.00  0.00    -0.256 OA
HETATM    7  H   UNL     1      19.920  -2.078  23.722  1.00  0.00     0.248 HD
ENDBRANCH   4   6
ENDBRANCH   2   4
ENDBRANCH   1   2
BRANCH   1   8
HETATM    8  C   UNL     1      23.541  -2.844  25.926  1.00  0.00    -0.025 C 
HETATM    9  C   UNL     1      24.942  -2.518  25.929  1.00  0.00     0.024 C 
BRANCH   8  10
HETATM   10  C   UNL     1      23.222  -4.270  25.827  1.00  0.00     0.073 C 
BRANCH  10  11
HETATM   11  C   UNL     1      23.667  -5.102  24.809  1.00  0.00     0.247 C 
HETATM   12  O   UNL     1      23.848  -4.829  23.647  1.00  0.00    -0.282 OA
BRANCH  11  13
HETATM   13  C   UNL     1      23.966  -6.586  25.257  1.00  0.00     0.333 C 
HETATM   14  O   UNL     1      24.070  -6.941  26.389  1.00  0.00    -0.256 OA
BRANCH  13  15
HETATM   15  O   UNL     1      24.071  -7.285  24.135  1.00  0.00    -0.320 OA
HETATM   16  C   UNL     1      25.364  -7.849  23.904  1.00  0.00     0.213 C 
ENDBRANCH  13  15
ENDBRANCH  11  13
ENDBRANCH  10  11
ENDBRANCH   8  10
ENDBRANCH   1   8
BRANCH   1  17
HETATM   17  C   UNL     1      23.264  -1.264  27.356  1.00  0.00     0.274 C 
HETATM   18  O   UNL     1      23.284  -0.810  28.229  1.00  0.00    -0.301 OA
ENDBRANCH   1  17
TORSDOF 9
ENDMDL
MODEL 7
REMARK VINA RESULT:    -4.917     21.287     23.736
REMARK INTER + INTRA:          -7.860
REMARK INTER:                  -6.882
REMARK INTRA:                  -0.977
REMARK UNBOUND:                -0.499
REMARK  9 active torsions:
REMARK  status: ('A' for Active; 'I' for Inactive)
REMARK    1  A    between atoms: O_2  and  N_5 
REMARK    2  A    between atoms: N_5  and  C_6 
REMARK    3  A    between atoms: C_6  and  C_7 
REMARK    4  A    between atoms: C_7  and  C_11 
REMARK    5  A    between atoms: C_7  and  C_9 
REMARK    6  A    between atoms: C_11  and  C_12 
REMARK    7  A    between atoms: C_12  and  C_13 
REMARK    8  A    between atoms: C_13  and  C_17 
REMARK    9  A    between atoms: O_15  and  C_17 
ROOT
HETATM    1  C   UNL     1       6.437  13.901   3.094  1.00  0.00     0.055 C 
ENDROOT
BRANCH   1   2
HETATM    2  C   UNL     1       7.297  14.764   2.386  1.00  0.00     0.178 C 
HETATM    3 CL   UNL     1       7.465  16.470   2.756  1.00  0.00    -0.058 Cl
BRANCH   2   4
HETATM    4  N   UNL     1       8.216  14.569   1.385  1.00  0.00    -0.110 N 
HETATM    5  O   UNL     1       9.345  15.044   1.381  1.00  0.00    -0.537 OA
BRANCH   4   6
HETATM    6  O   UNL     1       7.953  13.630   0.473  1.00  0.00    -0.256 OA
HETATM    7  H   UNL     1       6.976  13.549   0.503  1.00  0.00     0.248 HD
ENDBRANCH   4   6
ENDBRANCH   2   4
ENDBRANCH   1   2
BRANCH   1   8
HETATM    8  C   UNL     1       5.335  13.224   2.840  1.00  0.00    -0.025 C 
HETATM    9  C   UNL     1       4.301  13.741   3.696  1.00  0.00     0.024 C 
BRANCH   8  10
HETATM   10  C   UNL     1       4.968  12.055   2.037  1.00  0.00     0.073 C 
BRANCH  10  11
HETATM   11  C   UNL     1       5.830  11.008   1.741  1.00  0.00     0.247 C 
HETATM   12  O   UNL     1       6.762  11.003   0.974  1.00  0.00    -0.282 OA
BRANCH  11  13
HETATM   13  C   UNL     1       5.530   9.670   2.523  1.00  0.00     0.333 C 
HETATM   14  O   UNL     1       4.950   8.736   2.064  1.00  0.00    -0.256 OA
BRANCH  13  15
HETATM   15  O   UNL     1       6.045   9.839   3.733  1.00  0.00    -0.320 OA
HETATM   16  C   UNL     1       5.165   9.494   4.807  1.00  0.00     0.213 C 
ENDBRANCH  13  15
ENDBRANCH  11  13
ENDBRANCH  10  11
ENDBRANCH   8  10
ENDBRANCH   1   8
BRANCH   1  17
HETATM   17  C   UNL     1       6.699  13.244   4.500  1.00  0.00     0.274 C 
HETATM   18  O   UNL     1       7.013  12.647   5.216  1.00  0.00    -0.301 OA
ENDBRANCH   1  17
TORSDOF 9
ENDMDL
MODEL 8
REMARK VINA RESULT:    -4.851      3.403      4.988
REMARK INTER + INTRA:          -7.761
REMARK INTER:                  -6.837
REMARK INTRA:                  -0.925
REMARK UNBOUND:                -0.499
REMARK  9 active torsions:
REMARK  status: ('A' for Active; 'I' for Inactive)
REMARK    1  A    between atoms: O_2  and  N_5 
REMARK    2  A    between atoms: N_5  and  C_6 
REMARK    3  A    between atoms: C_6  and  C_7 
REMARK    4  A    between atoms: C_7  and  C_11 
REMARK    5  A    between atoms: C_7  and  C_9 
REMARK    6  A    between atoms: C_11  and  C_12 
REMARK    7  A    between atoms: C_12  and  C_13 
REMARK    8  A    between atoms: C_13  and  C_17 
REMARK    9  A    between atoms: O_15  and  C_17 
ROOT
HETATM    1  C   UNL     1      10.666  -1.139  23.506  1.00  0.00     0.055 C 
ENDROOT
BRANCH   1   2
HETATM    2  C   UNL     1       9.516  -1.918  23.276  1.00  0.00     0.178 C 
HETATM    3 CL   UNL     1       8.910  -3.099  24.422  1.00  0.00    -0.058 Cl
BRANCH   2   4
HETATM    4  N   UNL     1       8.578  -1.944  22.275  1.00  0.00    -0.110 N 
HETATM    5  O   UNL     1       7.664  -2.757  22.204  1.00  0.00    -0.537 OA
BRANCH   4   6
HETATM    6  O   UNL     1       8.515  -0.895  21.451  1.00  0.00    -0.256 OA
HETATM    7  H   UNL     1       9.412  -0.862  21.056  1.00  0.00     0.248 HD
ENDBRANCH   4   6
ENDBRANCH   2   4
ENDBRANCH   1   2
BRANCH   1   8
HETATM    8  C   UNL     1      10.973  -0.062  24.202  1.00  0.00    -0.025 C 
HETATM    9  C   UNL     1      10.197  -0.091  25.412  1.00  0.00     0.024 C 
BRANCH   8  10
HETATM   10  C   UNL     1      11.771   1.149  23.988  1.00  0.00     0.073 C 
BRANCH  10  11
HETATM   11  C   UNL     1      11.257   2.352  23.524  1.00  0.00     0.247 C 
HETATM   12  O   UNL     1      11.554   3.471  23.865  1.00  0.00    -0.282 OA
BRANCH  11  13
HETATM   13  C   UNL     1      10.149   2.207  22.410  1.00  0.00     0.333 C 
HETATM   14  O   UNL     1      10.289   1.603  21.393  1.00  0.00    -0.256 OA
BRANCH  13  15
HETATM   15  O   UNL     1       9.099   2.883  22.858  1.00  0.00    -0.320 OA
HETATM   16  C   UNL     1       8.017   2.068  23.314  1.00  0.00     0.213 C 
ENDBRANCH  13  15
ENDBRANCH  11  13
ENDBRANCH  10  11
ENDBRANCH   8  10
ENDBRANCH   1   8
BRANCH   1  17
HETATM   17  C   UNL     1      12.150  -1.500  23.122  1.00  0.00     0.274 C 
HETATM   18  O   UNL     1      12.966  -1.993  22.878  1.00  0.00    -0.301 OA
ENDBRANCH   1  17
TORSDOF 9
ENDMDL
MODEL 9
REMARK VINA RESULT:    -4.720      3.578      5.627
REMARK INTER + INTRA:          -7.565
REMARK INTER:                  -6.943
REMARK INTRA:                  -0.622
REMARK UNBOUND:                -0.499
REMARK  9 active torsions:
REMARK  status: ('A' for Active; 'I' for Inactive)
REMARK    1  A    between atoms: O_2  and  N_5 
REMARK    2  A    between atoms: N_5  and  C_6 
REMARK    3  A    between atoms: C_6  and  C_7 
REMARK    4  A    between atoms: C_7  and  C_11 
REMARK    5  A    between atoms: C_7  and  C_9 
REMARK    6  A    between atoms: C_11  and  C_12 
REMARK    7  A    between atoms: C_12  and  C_13 
REMARK    8  A    between atoms: C_13  and  C_17 
REMARK    9  A    between atoms: O_15  and  C_17 
ROOT
HETATM    1  C   UNL     1      10.755   0.596  24.159  1.00  0.00     0.055 C 
ENDROOT
BRANCH   1   2
HETATM    2  C   UNL     1      10.444   1.850  23.599  1.00  0.00     0.178 C 
HETATM    3 CL   UNL     1      11.478   3.258  23.759  1.00  0.00    -0.058 Cl
BRANCH   2   4
HETATM    4  N   UNL     1       9.430   2.298  22.790  1.00  0.00    -0.110 N 
HETATM    5  O   UNL     1       8.431   2.882  23.192  1.00  0.00    -0.537 OA
BRANCH   4   6
HETATM    6  O   UNL     1       9.639   2.300  21.471  1.00  0.00    -0.256 OA
HETATM    7  H   UNL     1      10.356   2.958  21.356  1.00  0.00     0.248 HD
ENDBRANCH   4   6
ENDBRANCH   2   4
ENDBRANCH   1   2
BRANCH   1   8
HETATM    8  C   UNL     1      10.111  -0.522  24.427  1.00  0.00    -0.025 C 
HETATM    9  C   UNL     1       9.484  -0.366  25.712  1.00  0.00     0.024 C 
BRANCH   8  10
HETATM   10  C   UNL     1       9.996  -1.852  23.822  1.00  0.00     0.073 C 
BRANCH  10  11
HETATM   11  C   UNL     1       9.109  -2.174  22.804  1.00  0.00     0.247 C 
HETATM   12  O   UNL     1       8.989  -1.647  21.724  1.00  0.00    -0.282 OA
BRANCH  11  13
HETATM   13  C   UNL     1       8.152  -3.387  23.126  1.00  0.00     0.333 C 
HETATM   14  O   UNL     1       7.285  -3.773  22.406  1.00  0.00    -0.256 OA
BRANCH  13  15
HETATM   15  O   UNL     1       8.527  -3.833  24.318  1.00  0.00    -0.320 OA
HETATM   16  C   UNL     1       7.530  -4.588  25.011  1.00  0.00     0.213 C 
ENDBRANCH  13  15
ENDBRANCH  11  13
ENDBRANCH  10  11
ENDBRANCH   8  10
ENDBRANCH   1   8
BRANCH   1  17
HETATM   17  C   UNL     1      12.189   0.022  24.465  1.00  0.00     0.274 C 
HETATM   18  O   UNL     1      13.104  -0.090  24.808  1.00  0.00    -0.301 OA
ENDBRANCH   1  17
TORSDOF 9
ENDMDL
