REMARK  9 active torsions:
REMARK  status: ('A' for Active; 'I' for Inactive)
REMARK    1  A    between atoms: O_2  and  N_5 
REMARK    2  A    between atoms: N_5  and  C_6 
REMARK    3  A    between atoms: C_6  and  C_7 
REMARK    4  A    between atoms: C_7  and  C_11 
REMARK    5  A    between atoms: C_7  and  C_9 
REMARK    6  A    between atoms: C_11  and  C_12 
REMARK    7  A    between atoms: C_12  and  C_13 
REMARK    8  A    between atoms: C_13  and  C_17 
REMARK    9  A    between atoms: O_15  and  C_17 
ROOT
HETATM    1  C   UNL     1      10.392  -2.217  24.023  1.00  0.00     0.055 C 
ENDROOT
BRANCH   1   2
HETATM    2  C   UNL     1       9.895  -3.135  24.968  1.00  0.00     0.178 C 
HETATM    3 CL   UNL     1      10.785  -3.618  26.400  1.00  0.00    -0.058 Cl
BRANCH   2   4
HETATM    4  N   UNL     1       8.696  -3.788  25.110  1.00  0.00    -0.110 N 
HETATM    5  O   UNL     1       8.556  -4.859  25.688  1.00  0.00    -0.537 OA
BRANCH   4   6
HETATM    6  O   UNL     1       7.582  -3.120  24.801  1.00  0.00    -0.256 OA
HETATM    7  H   UNL     1       6.884  -3.601  25.294  1.00  0.00     0.248 HD
ENDBRANCH   4   6
ENDBRANCH   2   4
ENDBRANCH   1   2
BRANCH   1   8
HETATM    8  C   UNL     1       9.902  -1.245  23.279  1.00  0.00    -0.025 C 
HETATM    9  C   UNL     1      10.631  -0.046  23.595  1.00  0.00     0.024 C 
BRANCH   8  10
HETATM   10  C   UNL     1       8.774  -1.078  22.359  1.00  0.00     0.073 C 
BRANCH  10  11
HETATM   11  C   UNL     1       8.658  -0.041  21.444  1.00  0.00     0.247 C 
HETATM   12  O   UNL     1       9.519   0.710  21.054  1.00  0.00    -0.282 OA
BRANCH  11  13
HETATM   13  C   UNL     1       7.207   0.156  20.855  1.00  0.00     0.333 C 
HETATM   14  O   UNL     1       6.232   0.348  21.512  1.00  0.00    -0.256 OA
BRANCH  13  15
HETATM   15  O   UNL     1       7.337   0.055  19.539  1.00  0.00    -0.320 OA
HETATM   16  C   UNL     1       6.254   0.612  18.790  1.00  0.00     0.213 C 
ENDBRANCH  13  15
ENDBRANCH  11  13
ENDBRANCH  10  11
ENDBRANCH   8  10
ENDBRANCH   1   8
BRANCH   1  17
HETATM   17  C   UNL     1      11.902  -1.905  23.705  1.00  0.00     0.274 C 
HETATM   18  O   UNL     1      12.799  -1.909  23.300  1.00  0.00    -0.301 OA
ENDBRANCH   1  17
TORSDOF 9
