stable:False satoms:19 tatoms:24 sratio:0.7916666666666666
  -OEChem-07092417353D

 24 23  0     1  0  0  0  0  0999 V2000
    6.8844   -3.6013   25.2937 H   0  0  0  0  0  0  0  0  0  0  0  0
    7.5821   -3.1198   24.8014 O   0  0  0  0  0  0  0  0  0  0  0  0
    8.5564   -4.8589   25.6883 O   0  0  0  0  0  0  0  0  0  0  0  0
   10.7853   -3.6178   26.3996 Cl  0  0  0  0  0  0  0  0  0  0  0  0
    8.6964   -3.7885   25.1102 N   0  0  0  0  0  0  0  0  0  0  0  0
    9.8949   -3.1349   24.9685 C   0  0  3  0  0  0  0  0  0  0  0  0
   10.3921   -2.2166   24.0227 C   0  0  0  0  0  0  0  0  0  0  0  0
   10.0510    0.7867   23.3859 H   0  0  0  0  0  0  0  0  0  0  0  0
   10.6308   -0.0457   23.5947 C   0  5  0  0  0  0  0  0  0  0  0  0
   11.6401    0.1691   23.9582 H   0  0  0  0  0  0  0  0  0  0  0  0
   11.9017   -1.9049   23.7047 C   0  0  0  0  0  0  0  0  0  0  0  0
   12.7989   -1.9090   23.3000 O   0  0  0  0  0  0  0  0  0  0  0  0
    9.9017   -1.2450   23.2794 C   0  0  0  0  0  0  0  0  0  0  0  0
    8.7738   -1.0776   22.3586 C   0  5  3  0  0  0  0  0  0  0  0  0
    8.6583   -0.0408   21.4436 C   0  0  0  0  0  0  0  0  0  0  0  0
    9.5190    0.7095   21.0543 O   0  0  0  0  0  0  0  0  0  0  0  0
    7.9214   -1.7433   22.3823 H   0  0  0  0  0  0  0  0  0  0  0  0
    5.3702    0.0578   19.1027 H   0  0  0  0  0  0  0  0  0  0  0  0
    7.3368    0.0546   19.5387 O   0  0  0  0  0  0  0  0  0  0  0  0
    6.4990    0.4605   17.7485 H   0  0  0  0  0  0  0  0  0  0  0  0
    6.2540    0.6124   18.7900 C   0  0  0  0  0  0  0  0  0  0  0  0
    6.0972    1.6587   19.0044 H   0  0  0  0  0  0  0  0  0  0  0  0
    7.2065    0.1560   20.8545 C   0  0  0  0  0  0  0  0  0  0  0  0
    6.2320    0.3485   21.5118 O   0  0  0  0  0  0  0  0  0  0  0  0
 20 21  1  0  0  0  0
 21 22  1  0  0  0  0
 18 21  1  0  0  0  0
 19 21  1  0  0  0  0
 19 23  1  0  0  0  0
 15 23  1  0  0  0  0
 23 24  2  0  0  0  0
 15 16  2  0  0  0  0
 14 15  1  0  0  0  0
 14 17  1  0  0  0  0
 13 14  1  0  0  0  0
  9 13  1  0  0  0  0
  7 13  2  3  0  0  0
 11 12  1  0  0  0  0
  8  9  1  0  0  0  0
  9 10  1  0  0  0  0
  7 11  1  0  0  0  0
  6  7  1  0  0  0  0
  2  5  1  0  0  0  0
  1  2  1  0  0  0  0
  5  6  1  0  0  0  0
  4  6  1  0  0  0  0
  3  5  1  0  0  0  0
M  CHG  2   9  -1  14  -1
M  END
> <Shapegauss>
-167.373596

$$$$
