REMARK  7 active torsions:
REMARK  status: ('A' for Active; 'I' for Inactive)
REMARK    1  A    between atoms: S_2  and  N_5 
REMARK    2  A    between atoms: N_5  and  C_7 
REMARK    3  A    between atoms: C_8  and  C_9 
REMARK    4  A    between atoms: C_9  and  C_10 
REMARK    5  A    between atoms: C_10  and  C_11 
REMARK    6  A    between atoms: C_13  and  C_14 
REMARK       I    between atoms: C_14  and  N_16 
REMARK    7  A    between atoms: N_16  and  C_18 
ROOT
HETATM    1  C   UNL     1      10.003  -1.056  23.372  1.00  0.00     0.024 C 
HETATM    2  C   UNL     1       9.731  -0.463  22.259  1.00  0.00     0.095 C 
ENDROOT
BRANCH   1   3
HETATM    3  C   UNL     1       9.345  -2.087  23.822  1.00  0.00    -0.043 C 
HETATM    4  C   UNL     1       8.831  -2.882  24.337  1.00  0.00     0.028 C 
BRANCH   4   5
HETATM    5  N   UNL     1       8.009  -3.639  24.822  1.00  0.00    -0.223 N 
ATOM      6  HN  UNL     1       7.189  -3.846  24.252  1.00  0.00     0.192 HD
BRANCH   5   7
HETATM    7  S   UNL     1       8.079  -4.349  26.270  1.00  0.00     0.216 S 
HETATM    8  O   UNL     1       6.669  -4.770  26.607  1.00  0.00    -0.577 OA
HETATM    9  O   UNL     1       8.980  -5.493  26.167  1.00  0.00    -0.577 OA
HETATM   10  O   UNL     1       8.585  -3.463  27.280  1.00  0.00    -0.577 OA
ENDBRANCH   5   7
ENDBRANCH   4   5
ENDBRANCH   1   3
BRANCH   1  11
HETATM   11  C   UNL     1      10.942  -0.357  24.082  1.00  0.00     0.020 C 
BRANCH  11  12
HETATM   12  C   UNL     1      11.995  -0.165  23.968  1.00  0.00    -0.009 C 
HETATM   13  C   UNL     1      12.831  -0.832  23.025  1.00  0.00     0.011 C 
ENDBRANCH  11  12
ENDBRANCH   1  11
BRANCH   2  14
HETATM   14  C   UNL     1       8.980   0.186  21.375  1.00  0.00     0.247 C 
HETATM   15  O   UNL     1       9.300   1.231  20.905  1.00  0.00    -0.268 OA
HETATM   16  N   UNL     1       7.794  -0.482  21.143  1.00  0.00    -0.317 N 
ATOM     17  HN  UNL     1       7.525  -1.312  21.671  1.00  0.00     0.169 HD
BRANCH  16  18
HETATM   18  C   UNL     1       7.064   0.004  20.232  1.00  0.00     0.093 A 
HETATM   19  S   UNL     1       7.594  -0.147  18.656  1.00  0.00     0.003 SA
HETATM   20  N   UNL     1       6.508   0.381  17.716  1.00  0.00    -0.335 N 
HETATM   21  C   UNL     1       5.685   0.825  18.245  1.00  0.00     0.096 A 
ATOM     22  HN  UNL     1       6.560   0.318  16.699  1.00  0.00     0.173 HD
HETATM   23  C   UNL     1       5.351   0.935  19.403  1.00  0.00     0.020 A 
HETATM   24  C   UNL     1       5.813   0.603  20.529  1.00  0.00     0.040 A 
ENDBRANCH  16  18
ENDBRANCH   2  14
TORSDOF 7
