stable:False satoms:11 tatoms:24 sratio:0.4583333333333333
  -OEChem-07092417413D

 24 24  0     0  0  0  0  0  0999 V2000
    6.6689   -4.7699   26.6073 O   0  0  0  0  0  0  0  0  0  0  0  0
    8.0794   -4.3494   26.2701 S   0  0  0  0  0  0  0  0  0  0  0  0
    8.9799   -5.4934   26.1672 O   0  0  0  0  0  0  0  0  0  0  0  0
    8.5850   -3.4632   27.2798 O   0  5  0  0  0  0  0  0  0  0  0  0
    8.0087   -3.6385   24.8222 N   0  0  0  0  0  0  0  0  0  0  0  0
    8.8314   -2.8818   24.3365 C   0  0  0  0  0  0  0  0  0  0  0  0
    9.3448   -2.0866   23.8220 C   0  0  0  0  0  0  0  0  0  0  0  0
   10.0028   -1.0560   23.3717 C   0  0  0  0  0  0  0  0  0  0  0  0
   10.9422   -0.3566   24.0820 C   0  0  0  0  0  0  0  0  0  0  0  0
   11.9955   -0.1647   23.9685 C   0  0  0  0  0  0  0  0  0  0  0  0
   13.7318   -0.4355   23.1194 H   0  0  0  0  0  0  0  0  0  0  0  0
   12.8313   -0.8318   23.0249 C   0  5  0  0  0  0  0  0  0  0  0  0
   12.3881   -1.5743   22.4376 H   0  0  0  0  0  0  0  0  0  0  0  0
    9.7306   -0.4629   22.2594 C   0  0  0  0  0  0  0  0  0  0  0  0
    8.9797    0.1859   21.3748 C   0  0  0  0  0  0  0  0  0  0  0  0
    9.2999    1.2307   20.9053 O   0  0  0  0  0  0  0  0  0  0  0  0
    7.7939   -0.4818   21.1433 N   0  0  0  0  0  0  0  0  0  0  0  0
    7.0635    0.0039   20.2317 C   0  0  0  0  0  0  0  0  0  0  0  0
    7.5941   -0.1472   18.6558 S   0  0  0  0  0  0  0  0  0  0  0  0
    6.5076    0.3810   17.7162 N   0  0  0  0  0  0  0  0  0  0  0  0
    5.6847    0.8246   18.2452 C   0  0  0  0  0  0  0  0  0  0  0  0
    5.3514    0.9351   19.4031 C   0  0  0  0  0  0  0  0  0  0  0  0
    5.8132    0.6032   20.5295 C   0  0  0  0  0  0  0  0  0  0  0  0
    5.3755    0.7394   21.5232 H   0  0  0  0  0  0  0  0  0  0  0  0
 20 21  1  0  0  0  0
 19 20  1  0  0  0  0
 21 22  2  0  0  0  0
 18 19  1  0  0  0  0
 22 23  1  0  0  0  0
 18 23  2  0  0  0  0
 17 18  1  0  0  0  0
 23 24  1  0  0  0  0
 15 16  2  0  0  0  0
 15 17  1  0  0  0  0
 14 15  1  0  0  0  0
  8 14  2  3  0  0  0
 12 13  1  0  0  0  0
 11 12  1  0  0  0  0
 10 12  1  0  0  0  0
  7  8  1  0  0  0  0
  8  9  1  0  0  0  0
  6  7  3  0  0  0  0
  9 10  2  0  0  0  0
  5  6  1  0  0  0  0
  2  5  1  0  0  0  0
  2  3  2  0  0  0  0
  1  2  2  0  0  0  0
  2  4  1  0  0  0  0
M  CHG  2   4  -1  12  -1
M  END
> <Shapegauss>
-261.811920

$$$$
