stable:False satoms:15 tatoms:24 sratio:0.625
  -OEChem-08052423593D

 29 29  0     1  0  0  0  0  0999 V2000
   -7.1774   -1.0313  -22.1484 H   0  0  0  0  0  0  0  0  0  0  0  0
   -8.1848   -2.5041  -22.1694 C   0  0  0  0  0  0  0  0  0  0  0  0
   -7.8101   -3.5231  -21.9264 O   0  0  0  0  0  0  0  0  0  0  0  0
  -10.3526   -2.5897  -22.9160 O   0  0  0  0  0  0  0  0  0  0  0  0
   -8.1959   -1.2445  -22.3364 N   0  0  0  0  0  0  0  0  0  0  0  0
  -10.4357   -1.4391  -22.7863 C   0  0  3  0  0  0  0  0  0  0  0  0
   -9.2917   -0.5267  -22.7595 C   0  0  3  0  0  0  0  0  0  0  0  0
  -12.3011    0.8264  -23.7888 C   0  0  0  0  0  0  0  0  0  0  0  0
  -13.0618    0.0035  -24.5546 C   0  0  0  0  0  0  0  0  0  0  0  0
  -13.0166   -1.0560  -24.6596 H   0  0  0  0  0  0  0  0  0  0  0  0
  -13.8957    0.4093  -25.0727 H   0  0  0  0  0  0  0  0  0  0  0  0
  -12.5185   -1.3397  -22.4371 H   0  0  0  0  0  0  0  0  0  0  0  0
  -11.5926   -1.4644  -22.7282 N   0  0  0  0  0  0  0  0  0  0  0  0
  -10.9970    1.4861  -23.6571 C   0  0  3  0  0  0  0  0  0  0  0  0
  -12.9145    1.4214  -23.1213 H   0  0  0  0  0  0  0  0  0  0  0  0
  -12.1958    3.3059  -23.9610 N   0  0  0  0  0  0  0  0  0  0  0  0
  -10.9897    2.8264  -23.8779 N   0  0  0  0  0  0  0  0  0  0  0  0
  -12.1687    4.5821  -23.6467 O   0  0  0  0  0  0  0  0  0  0  0  0
  -11.2167    5.5785  -23.6838 C   0  0  0  0  0  0  0  0  0  0  0  0
  -11.7299    6.5185  -23.4897 H   0  0  0  0  0  0  0  0  0  0  0  0
  -10.4381    5.4770  -22.9315 H   0  0  0  0  0  0  0  0  0  0  0  0
  -10.7222    5.6132  -24.6608 H   0  0  0  0  0  0  0  0  0  0  0  0
   -9.3147    1.2171  -23.2330 S   0  0  0  0  0  0  0  0  0  0  0  0
  -10.1411    3.3688  -24.1623 H   0  0  0  0  0  0  0  0  0  0  0  0
   -9.2038   -2.7383  -22.4399 H   0  0  0  0  0  0  0  0  0  0  0  0
  -10.3742   -1.5536  -21.6940 H   0  0  0  0  0  0  0  0  0  0  0  0
   -9.5243   -0.2537  -21.7196 H   0  0  0  0  0  0  0  0  0  0  0  0
  -10.7745    1.2930  -24.7169 H   0  0  0  0  0  0  0  0  0  0  0  0
  -12.7959    2.8169  -23.3281 H   0  0  0  0  0  0  0  0  0  0  0  0
 19 20  1  0  0  0  0
 19 21  1  0  0  0  0
 18 19  1  0  0  0  0
 19 22  1  0  0  0  0
 16 18  1  0  0  0  0
 16 17  1  0  0  0  0
  8 15  1  0  0  0  0
 17 24  1  0  0  0  0
 14 17  1  0  0  0  0
  8 14  1  0  0  0  0
 14 23  1  0  0  0  0
  8  9  2  0  0  0  0
  9 11  1  0  0  0  0
  7 23  1  0  0  0  0
  9 10  1  0  0  0  0
 12 13  1  0  0  0  0
  6 13  1  0  0  0  0
  4 13  1  0  0  0  0
  6  7  1  0  0  0  0
  5  7  1  0  0  0  0
  4  6  1  0  0  0  0
  1  5  1  0  0  0  0
  2  5  1  0  0  0  0
  2  3  2  0  0  0  0
  2 25  1  0  0  0  0
  6 26  1  0  0  0  0
  7 27  1  0  0  0  0
 14 28  1  0  0  0  0
 16 29  1  0  0  0  0
M  END
> <Chemgauss4>
-5.860788

$$$$
