stable:False satoms:15 tatoms:24 sratio:0.625
  -OEChem-08052423593D

 29 29  0     1  0  0  0  0  0999 V2000
    8.1735   -7.1738   28.0649 H   0  0  0  0  0  0  0  0  0  0  0  0
    6.4543   -6.9111   28.4650 C   0  0  0  0  0  0  0  0  0  0  0  0
    5.8346   -7.6172   29.0607 O   0  0  0  0  0  0  0  0  0  0  0  0
    5.1703   -5.1998   27.6362 O   0  0  0  0  0  0  0  0  0  0  0  0
    7.4673   -6.4073   27.8864 N   0  0  0  0  0  0  0  0  0  0  0  0
    6.1360   -4.6141   27.3677 C   0  0  3  0  0  0  0  0  0  0  0  0
    7.4480   -5.2318   27.1702 C   0  0  3  0  0  0  0  0  0  0  0  0
    6.9087   -2.2350   25.5346 C   0  0  0  0  0  0  0  0  0  0  0  0
    5.6564   -2.0776   25.0352 C   0  0  0  0  0  0  0  0  0  0  0  0
    4.7563   -2.5861   25.2938 H   0  0  0  0  0  0  0  0  0  0  0  0
    5.4715   -1.2847   24.3528 H   0  0  0  0  0  0  0  0  0  0  0  0
    5.3371   -2.6621   27.5131 H   0  0  0  0  0  0  0  0  0  0  0  0
    5.5885   -3.5932   27.3477 N   0  0  0  0  0  0  0  0  0  0  0  0
    8.1102   -3.0774   25.5317 C   0  0  3  0  0  0  0  0  0  0  0  0
    7.2996   -1.2995   25.9191 H   0  0  0  0  0  0  0  0  0  0  0  0
    9.0035   -1.3214   24.5519 N   0  0  0  0  0  0  0  0  0  0  0  0
    9.1856   -2.5675   24.8769 N   0  0  0  0  0  0  0  0  0  0  0  0
   10.1753   -0.7399   24.4229 O   0  0  0  0  0  0  0  0  0  0  0  0
   11.4515   -1.1670   24.1235 C   0  0  0  0  0  0  0  0  0  0  0  0
   12.0552   -0.2772   23.9550 H   0  0  0  0  0  0  0  0  0  0  0  0
   11.9290   -1.7323   24.9204 H   0  0  0  0  0  0  0  0  0  0  0  0
   11.4542   -1.7999   23.2292 H   0  0  0  0  0  0  0  0  0  0  0  0
    8.7828   -4.5803   26.1410 S   0  0  0  0  0  0  0  0  0  0  0  0
    9.9651   -3.1483   24.4893 H   0  0  0  0  0  0  0  0  0  0  0  0
    5.7085   -6.1708   28.2158 H   0  0  0  0  0  0  0  0  0  0  0  0
    6.3566   -4.4795   28.4369 H   0  0  0  0  0  0  0  0  0  0  0  0
    7.8439   -4.6864   28.0396 H   0  0  0  0  0  0  0  0  0  0  0  0
    7.7717   -3.5846   24.6162 H   0  0  0  0  0  0  0  0  0  0  0  0
    8.4773   -0.8613   25.2670 H   0  0  0  0  0  0  0  0  0  0  0  0
 19 20  1  0  0  0  0
 19 21  1  0  0  0  0
 18 19  1  0  0  0  0
 19 22  1  0  0  0  0
 16 18  1  0  0  0  0
 16 17  1  0  0  0  0
  8 15  1  0  0  0  0
 17 24  1  0  0  0  0
 14 17  1  0  0  0  0
  8 14  1  0  0  0  0
 14 23  1  0  0  0  0
  8  9  2  0  0  0  0
  9 11  1  0  0  0  0
  7 23  1  0  0  0  0
  9 10  1  0  0  0  0
 12 13  1  0  0  0  0
  6 13  1  0  0  0  0
  4 13  1  0  0  0  0
  6  7  1  0  0  0  0
  5  7  1  0  0  0  0
  4  6  1  0  0  0  0
  1  5  1  0  0  0  0
  2  5  1  0  0  0  0
  2  3  2  0  0  0  0
  2 25  1  0  0  0  0
  6 26  1  0  0  0  0
  7 27  1  0  0  0  0
 14 28  1  0  0  0  0
 16 29  1  0  0  0  0
M  END
> <Chemgauss4>
-6.180647

$$$$
