MODEL 1
REMARK VINA RESULT:    -6.691      0.000      0.000
REMARK INTER + INTRA:         -11.314
REMARK INTER:                 -10.212
REMARK INTRA:                  -1.102
REMARK UNBOUND:                -1.102
REMARK  9 active torsions:
REMARK  status: ('A' for Active; 'I' for Inactive)
REMARK    1  A    between atoms: S_2  and  N_5 
REMARK    2  A    between atoms: C_7  and  C_8 
REMARK    3  A    between atoms: C_8  and  C_9 
REMARK    4  A    between atoms: C_9  and  C_15 
REMARK    5  A    between atoms: C_9  and  C_10 
REMARK    6  A    between atoms: C_10  and  C_11 
REMARK    7  A    between atoms: C_11  and  C_12 
REMARK    8  A    between atoms: C_15  and  C_16 
REMARK       I    between atoms: C_16  and  N_18 
REMARK    9  A    between atoms: N_18  and  C_20 
ROOT
HETATM    1  C   UNL     1       7.201  -3.303  22.176  1.00  0.00     0.061 C 
ENDROOT
BRANCH   1   2
HETATM    2  C   UNL     1       6.595  -2.292  21.713  1.00  0.00    -0.090 C 
BRANCH   2   3
HETATM    3  C   UNL     1       6.285  -1.433  21.030  1.00  0.00     0.157 C 
HETATM    4  N   UNL     1       5.570  -0.843  20.273  1.00  0.00    -0.288 N 
ATOM      5  HN  UNL     1       4.570  -0.794  20.466  1.00  0.00     0.178 HD
BRANCH   4   6
HETATM    6  S   UNL     1       6.154  -0.121  18.950  1.00  0.00     0.226 S 
HETATM    7  C   UNL     1       5.159   1.440  18.869  1.00  0.00     0.186 C 
HETATM    8  O   UNL     1       7.519   0.266  19.096  1.00  0.00    -0.206 OA
HETATM    9  O   UNL     1       5.887  -0.814  17.749  1.00  0.00    -0.206 OA
ENDBRANCH   4   6
ENDBRANCH   2   3
ENDBRANCH   1   2
BRANCH   1  10
HETATM   10  C   UNL     1       8.040  -2.871  22.893  1.00  0.00    -0.035 C 
BRANCH  10  11
HETATM   11  C   UNL     1       9.171  -2.567  23.492  1.00  0.00     0.294 C 
HETATM   12  O   UNL     1       9.328  -3.034  24.527  1.00  0.00    -0.258 OA
HETATM   13  N   UNL     1       9.870  -1.691  22.760  1.00  0.00    -0.315 N 
ATOM     14  HN  UNL     1       9.519  -1.334  21.871  1.00  0.00     0.170 HD
BRANCH  13  15
HETATM   15  C   UNL     1      10.989  -1.328  23.227  1.00  0.00     0.060 A 
HETATM   16  C   UNL     1      12.240  -1.680  23.118  1.00  0.00     0.117 A 
HETATM   17  N   UNL     1      13.481  -1.578  23.367  1.00  0.00    -0.373 N 
HETATM   18  C   UNL     1      13.337  -0.524  24.124  1.00  0.00     0.088 A 
ATOM     19  HN  UNL     1      14.296  -2.122  23.080  1.00  0.00     0.164 HD
HETATM   20  C   UNL     1      12.345   0.063  24.463  1.00  0.00     0.030 A 
HETATM   21  C   UNL     1      11.037  -0.101  24.174  1.00  0.00    -0.016 A 
HETATM   22  C   UNL     1       9.972   0.590  24.565  1.00  0.00     0.026 C 
ENDBRANCH  13  15
ENDBRANCH  10  11
ENDBRANCH   1  10
BRANCH   1  23
HETATM   23  C   UNL     1       6.939  -4.836  22.221  1.00  0.00     0.029 C 
BRANCH  23  24
HETATM   24  C   UNL     1       6.525  -5.558  22.883  1.00  0.00     0.002 C 
BRANCH  24  25
HETATM   25  C   UNL     1       5.722  -5.285  24.064  1.00  0.00    -0.001 C 
HETATM   26  C   UNL     1       4.506  -5.259  23.843  1.00  0.00    -0.010 C 
HETATM   27  C   UNL     1       3.760  -5.343  23.313  1.00  0.00     0.011 C 
ENDBRANCH  24  25
ENDBRANCH  23  24
ENDBRANCH   1  23
TORSDOF 9
ENDMDL
MODEL 2
REMARK VINA RESULT:    -6.671      2.261      4.815
REMARK INTER + INTRA:         -11.283
REMARK INTER:                 -10.178
REMARK INTRA:                  -1.105
REMARK UNBOUND:                -1.102
REMARK  9 active torsions:
REMARK  status: ('A' for Active; 'I' for Inactive)
REMARK    1  A    between atoms: S_2  and  N_5 
REMARK    2  A    between atoms: C_7  and  C_8 
REMARK    3  A    between atoms: C_8  and  C_9 
REMARK    4  A    between atoms: C_9  and  C_15 
REMARK    5  A    between atoms: C_9  and  C_10 
REMARK    6  A    between atoms: C_10  and  C_11 
REMARK    7  A    between atoms: C_11  and  C_12 
REMARK    8  A    between atoms: C_15  and  C_16 
REMARK       I    between atoms: C_16  and  N_18 
REMARK    9  A    between atoms: N_18  and  C_20 
ROOT
HETATM    1  C   UNL     1       6.968  -0.163  21.515  1.00  0.00     0.061 C 
ENDROOT
BRANCH   1   2
HETATM    2  C   UNL     1       6.563  -1.336  21.764  1.00  0.00    -0.090 C 
BRANCH   2   3
HETATM    3  C   UNL     1       6.163  -2.397  21.632  1.00  0.00     0.157 C 
HETATM    4  N   UNL     1       5.503  -3.357  21.905  1.00  0.00    -0.288 N 
ATOM      5  HN  UNL     1       4.530  -3.231  22.184  1.00  0.00     0.178 HD
BRANCH   4   6
HETATM    6  S   UNL     1       6.120  -4.849  21.844  1.00  0.00     0.226 S 
HETATM    7  C   UNL     1       5.100  -5.760  23.094  1.00  0.00     0.186 C 
HETATM    8  O   UNL     1       5.893  -5.482  20.586  1.00  0.00    -0.206 OA
HETATM    9  O   UNL     1       7.456  -4.940  22.292  1.00  0.00    -0.206 OA
ENDBRANCH   4   6
ENDBRANCH   2   3
ENDBRANCH   1   2
BRANCH   1  10
HETATM   10  C   UNL     1       8.152  -0.225  21.527  1.00  0.00    -0.035 C 
BRANCH  10  11
HETATM   11  C   UNL     1       9.429  -0.127  21.823  1.00  0.00     0.294 C 
HETATM   12  O   UNL     1      10.049   0.553  21.139  1.00  0.00    -0.258 OA
HETATM   13  N   UNL     1       9.738  -0.933  22.846  1.00  0.00    -0.315 N 
ATOM     14  HN  UNL     1       9.038  -1.528  23.291  1.00  0.00     0.170 HD
BRANCH  13  15
HETATM   15  C   UNL     1      10.942  -0.920  23.235  1.00  0.00     0.060 A 
HETATM   16  C   UNL     1      12.057  -1.530  22.943  1.00  0.00     0.117 A 
HETATM   17  N   UNL     1      13.301  -1.759  23.068  1.00  0.00    -0.373 N 
HETATM   18  C   UNL     1      13.473  -0.838  23.977  1.00  0.00     0.088 A 
ATOM     19  HN  UNL     1      13.934  -2.422  22.620  1.00  0.00     0.164 HD
HETATM   20  C   UNL     1      12.683  -0.101  24.501  1.00  0.00     0.030 A 
HETATM   21  C   UNL     1      11.357   0.091  24.336  1.00  0.00    -0.016 A 
HETATM   22  C   UNL     1      10.525   0.936  24.934  1.00  0.00     0.026 C 
ENDBRANCH  13  15
ENDBRANCH  10  11
ENDBRANCH   1  10
BRANCH   1  23
HETATM   23  C   UNL     1       6.324   1.150  20.981  1.00  0.00     0.029 C 
BRANCH  23  24
HETATM   24  C   UNL     1       5.627   1.454  20.240  1.00  0.00     0.002 C 
BRANCH  24  25
HETATM   25  C   UNL     1       5.125   0.643  19.143  1.00  0.00    -0.001 C 
HETATM   26  C   UNL     1       5.649   0.900  18.053  1.00  0.00    -0.010 C 
HETATM   27  C   UNL     1       6.243   1.338  17.504  1.00  0.00     0.011 C 
ENDBRANCH  24  25
ENDBRANCH  23  24
ENDBRANCH   1  23
TORSDOF 9
ENDMDL
MODEL 3
REMARK VINA RESULT:    -6.656      2.407      5.491
REMARK INTER + INTRA:         -11.260
REMARK INTER:                 -10.049
REMARK INTRA:                  -1.211
REMARK UNBOUND:                -1.102
REMARK  9 active torsions:
REMARK  status: ('A' for Active; 'I' for Inactive)
REMARK    1  A    between atoms: S_2  and  N_5 
REMARK    2  A    between atoms: C_7  and  C_8 
REMARK    3  A    between atoms: C_8  and  C_9 
REMARK    4  A    between atoms: C_9  and  C_15 
REMARK    5  A    between atoms: C_9  and  C_10 
REMARK    6  A    between atoms: C_10  and  C_11 
REMARK    7  A    between atoms: C_11  and  C_12 
REMARK    8  A    between atoms: C_15  and  C_16 
REMARK       I    between atoms: C_16  and  N_18 
REMARK    9  A    between atoms: N_18  and  C_20 
ROOT
HETATM    1  C   UNL     1       8.363  -1.973  22.501  1.00  0.00     0.061 C 
ENDROOT
BRANCH   1   2
HETATM    2  C   UNL     1       7.387  -1.424  21.912  1.00  0.00    -0.090 C 
BRANCH   2   3
HETATM    3  C   UNL     1       6.760  -0.874  21.133  1.00  0.00     0.157 C 
HETATM    4  N   UNL     1       5.910  -0.758  20.298  1.00  0.00    -0.288 N 
ATOM      5  HN  UNL     1       4.993  -1.176  20.459  1.00  0.00     0.178 HD
BRANCH   4   6
HETATM    6  S   UNL     1       6.181   0.044  18.922  1.00  0.00     0.226 S 
HETATM    7  C   UNL     1       5.069   1.516  19.087  1.00  0.00     0.186 C 
HETATM    8  O   UNL     1       7.515   0.542  18.834  1.00  0.00    -0.206 OA
HETATM    9  O   UNL     1       5.753  -0.639  17.763  1.00  0.00    -0.206 OA
ENDBRANCH   4   6
ENDBRANCH   2   3
ENDBRANCH   1   2
BRANCH   1  10
HETATM   10  C   UNL     1       7.922  -2.948  23.009  1.00  0.00    -0.035 C 
BRANCH  10  11
HETATM   11  C   UNL     1       7.592  -3.915  23.837  1.00  0.00     0.294 C 
HETATM   12  O   UNL     1       7.383  -4.934  23.356  1.00  0.00    -0.258 OA
HETATM   13  N   UNL     1       7.499  -3.451  25.090  1.00  0.00    -0.315 N 
ATOM     14  HN  UNL     1       7.663  -2.468  25.311  1.00  0.00     0.170 HD
BRANCH  13  15
HETATM   15  C   UNL     1       7.199  -4.292  25.986  1.00  0.00     0.060 A 
HETATM   16  C   UNL     1       7.809  -5.181  26.719  1.00  0.00     0.117 A 
HETATM   17  N   UNL     1       7.865  -6.081  27.613  1.00  0.00    -0.373 N 
HETATM   18  C   UNL     1       6.598  -5.988  27.916  1.00  0.00     0.088 A 
ATOM     19  HN  UNL     1       8.623  -6.666  27.966  1.00  0.00     0.164 HD
HETATM   20  C   UNL     1       5.731  -5.304  27.445  1.00  0.00     0.030 A 
HETATM   21  C   UNL     1       5.729  -4.363  26.476  1.00  0.00    -0.016 A 
HETATM   22  C   UNL     1       4.739  -3.618  25.997  1.00  0.00     0.026 C 
ENDBRANCH  13  15
ENDBRANCH  10  11
ENDBRANCH   1  10
BRANCH   1  23
HETATM   23  C   UNL     1       9.911  -1.813  22.481  1.00  0.00     0.029 C 
BRANCH  23  24
HETATM   24  C   UNL     1      10.697  -1.558  23.149  1.00  0.00     0.002 C 
BRANCH  24  25
HETATM   25  C   UNL     1      10.559  -0.868  24.421  1.00  0.00    -0.001 C 
HETATM   26  C   UNL     1      11.350   0.072  24.566  1.00  0.00    -0.010 C 
HETATM   27  C   UNL     1      12.018   0.640  24.290  1.00  0.00     0.011 C 
ENDBRANCH  24  25
ENDBRANCH  23  24
ENDBRANCH   1  23
TORSDOF 9
ENDMDL
MODEL 4
REMARK VINA RESULT:    -6.600      2.712      6.472
REMARK INTER + INTRA:         -11.175
REMARK INTER:                  -9.620
REMARK INTRA:                  -1.555
REMARK UNBOUND:                -1.102
REMARK  9 active torsions:
REMARK  status: ('A' for Active; 'I' for Inactive)
REMARK    1  A    between atoms: S_2  and  N_5 
REMARK    2  A    between atoms: C_7  and  C_8 
REMARK    3  A    between atoms: C_8  and  C_9 
REMARK    4  A    between atoms: C_9  and  C_15 
REMARK    5  A    between atoms: C_9  and  C_10 
REMARK    6  A    between atoms: C_10  and  C_11 
REMARK    7  A    between atoms: C_11  and  C_12 
REMARK    8  A    between atoms: C_15  and  C_16 
REMARK       I    between atoms: C_16  and  N_18 
REMARK    9  A    between atoms: N_18  and  C_20 
ROOT
HETATM    1  C   UNL     1       9.629  -1.867  22.872  1.00  0.00     0.061 C 
ENDROOT
BRANCH   1   2
HETATM    2  C   UNL     1       8.834  -2.785  23.232  1.00  0.00    -0.090 C 
BRANCH   2   3
HETATM    3  C   UNL     1       8.073  -3.634  23.200  1.00  0.00     0.157 C 
HETATM    4  N   UNL     1       7.707  -4.769  23.111  1.00  0.00    -0.288 N 
ATOM      5  HN  UNL     1       8.208  -5.497  23.621  1.00  0.00     0.178 HD
BRANCH   4   6
HETATM    6  S   UNL     1       6.436  -5.178  22.200  1.00  0.00     0.226 S 
HETATM    7  C   UNL     1       5.309  -5.996  23.422  1.00  0.00     0.186 C 
HETATM    8  O   UNL     1       5.740  -4.040  21.692  1.00  0.00    -0.206 OA
HETATM    9  O   UNL     1       6.719  -6.153  21.219  1.00  0.00    -0.206 OA
ENDBRANCH   4   6
ENDBRANCH   2   3
ENDBRANCH   1   2
BRANCH   1  10
HETATM   10  C   UNL     1       9.115  -1.346  21.940  1.00  0.00    -0.035 C 
BRANCH  10  11
HETATM   11  C   UNL     1       8.583  -0.498  21.089  1.00  0.00     0.294 C 
HETATM   12  O   UNL     1       9.273   0.341  20.722  1.00  0.00    -0.258 OA
HETATM   13  N   UNL     1       7.287  -0.775  20.896  1.00  0.00    -0.315 N 
ATOM     14  HN  UNL     1       6.826  -1.545  21.380  1.00  0.00     0.170 HD
BRANCH  13  15
HETATM   15  C   UNL     1       6.663  -0.032  20.084  1.00  0.00     0.060 A 
HETATM   16  C   UNL     1       6.323  -0.050  18.825  1.00  0.00     0.117 A 
HETATM   17  N   UNL     1       5.764   0.420  17.786  1.00  0.00    -0.373 N 
HETATM   18  C   UNL     1       5.287   1.467  18.403  1.00  0.00     0.088 A 
ATOM     19  HN  UNL     1       5.708   0.097  16.819  1.00  0.00     0.164 HD
HETATM   20  C   UNL     1       5.411   1.824  19.543  1.00  0.00     0.030 A 
HETATM   21  C   UNL     1       6.034   1.284  20.612  1.00  0.00    -0.016 A 
HETATM   22  C   UNL     1       6.129   1.714  21.865  1.00  0.00     0.026 C 
ENDBRANCH  13  15
ENDBRANCH  10  11
ENDBRANCH   1  10
BRANCH   1  23
HETATM   23  C   UNL     1      10.876  -1.167  23.488  1.00  0.00     0.029 C 
BRANCH  23  24
HETATM   24  C   UNL     1      11.141  -0.222  23.896  1.00  0.00     0.002 C 
BRANCH  24  25
HETATM   25  C   UNL     1      10.546   0.413  25.060  1.00  0.00    -0.001 C 
HETATM   26  C   UNL     1       9.773   1.338  24.781  1.00  0.00    -0.010 C 
HETATM   27  C   UNL     1       9.308   1.880  24.203  1.00  0.00     0.011 C 
ENDBRANCH  24  25
ENDBRANCH  23  24
ENDBRANCH   1  23
TORSDOF 9
ENDMDL
MODEL 5
REMARK VINA RESULT:    -6.575      2.151      6.198
REMARK INTER + INTRA:         -11.137
REMARK INTER:                 -10.179
REMARK INTRA:                  -0.958
REMARK UNBOUND:                -1.102
REMARK  9 active torsions:
REMARK  status: ('A' for Active; 'I' for Inactive)
REMARK    1  A    between atoms: S_2  and  N_5 
REMARK    2  A    between atoms: C_7  and  C_8 
REMARK    3  A    between atoms: C_8  and  C_9 
REMARK    4  A    between atoms: C_9  and  C_15 
REMARK    5  A    between atoms: C_9  and  C_10 
REMARK    6  A    between atoms: C_10  and  C_11 
REMARK    7  A    between atoms: C_11  and  C_12 
REMARK    8  A    between atoms: C_15  and  C_16 
REMARK       I    between atoms: C_16  and  N_18 
REMARK    9  A    between atoms: N_18  and  C_20 
ROOT
HETATM    1  C   UNL     1       8.329  -2.019  22.433  1.00  0.00     0.061 C 
ENDROOT
BRANCH   1   2
HETATM    2  C   UNL     1       7.501  -1.232  21.886  1.00  0.00    -0.090 C 
BRANCH   2   3
HETATM    3  C   UNL     1       6.814  -0.744  21.117  1.00  0.00     0.157 C 
HETATM    4  N   UNL     1       5.938  -0.708  20.302  1.00  0.00    -0.288 N 
ATOM      5  HN  UNL     1       5.063  -1.197  20.489  1.00  0.00     0.178 HD
BRANCH   4   6
HETATM    6  S   UNL     1       6.111   0.098  18.912  1.00  0.00     0.226 S 
HETATM    7  C   UNL     1       4.945   1.522  19.123  1.00  0.00     0.186 C 
HETATM    8  O   UNL     1       7.417   0.652  18.761  1.00  0.00    -0.206 OA
HETATM    9  O   UNL     1       5.660  -0.609  17.776  1.00  0.00    -0.206 OA
ENDBRANCH   4   6
ENDBRANCH   2   3
ENDBRANCH   1   2
BRANCH   1  10
HETATM   10  C   UNL     1       7.820  -3.089  22.400  1.00  0.00    -0.035 C 
BRANCH  10  11
HETATM   11  C   UNL     1       7.149  -4.189  22.663  1.00  0.00     0.294 C 
HETATM   12  O   UNL     1       7.461  -5.118  22.068  1.00  0.00    -0.258 OA
HETATM   13  N   UNL     1       6.171  -3.944  23.544  1.00  0.00    -0.315 N 
ATOM     14  HN  UNL     1       6.008  -3.010  23.918  1.00  0.00     0.170 HD
BRANCH  13  15
HETATM   15  C   UNL     1       5.459  -4.932  23.889  1.00  0.00     0.060 A 
HETATM   16  C   UNL     1       4.483  -5.639  23.391  1.00  0.00     0.117 A 
HETATM   17  N   UNL     1       3.630  -6.580  23.407  1.00  0.00    -0.373 N 
HETATM   18  C   UNL     1       4.027  -7.044  24.561  1.00  0.00     0.088 A 
ATOM     19  HN  UNL     1       2.900  -6.869  22.755  1.00  0.00     0.164 HD
HETATM   20  C   UNL     1       4.874  -6.645  25.312  1.00  0.00     0.030 A 
HETATM   21  C   UNL     1       5.751  -5.620  25.248  1.00  0.00    -0.016 A 
HETATM   22  C   UNL     1       6.686  -5.227  26.106  1.00  0.00     0.026 C 
ENDBRANCH  13  15
ENDBRANCH  10  11
ENDBRANCH   1  10
BRANCH   1  23
HETATM   23  C   UNL     1       9.826  -1.950  22.850  1.00  0.00     0.029 C 
BRANCH  23  24
HETATM   24  C   UNL     1      10.685  -1.356  22.650  1.00  0.00     0.002 C 
BRANCH  24  25
HETATM   25  C   UNL     1      12.024  -1.571  23.174  1.00  0.00    -0.001 C 
HETATM   26  C   UNL     1      12.428  -0.654  23.898  1.00  0.00    -0.010 C 
HETATM   27  C   UNL     1      12.343   0.144  24.347  1.00  0.00     0.011 C 
ENDBRANCH  24  25
ENDBRANCH  23  24
ENDBRANCH   1  23
TORSDOF 9
ENDMDL
MODEL 6
REMARK VINA RESULT:    -6.477      3.734      5.832
REMARK INTER + INTRA:         -10.987
REMARK INTER:                  -9.756
REMARK INTRA:                  -1.230
REMARK UNBOUND:                -1.102
REMARK  9 active torsions:
REMARK  status: ('A' for Active; 'I' for Inactive)
REMARK    1  A    between atoms: S_2  and  N_5 
REMARK    2  A    between atoms: C_7  and  C_8 
REMARK    3  A    between atoms: C_8  and  C_9 
REMARK    4  A    between atoms: C_9  and  C_15 
REMARK    5  A    between atoms: C_9  and  C_10 
REMARK    6  A    between atoms: C_10  and  C_11 
REMARK    7  A    between atoms: C_11  and  C_12 
REMARK    8  A    between atoms: C_15  and  C_16 
REMARK       I    between atoms: C_16  and  N_18 
REMARK    9  A    between atoms: N_18  and  C_20 
ROOT
HETATM    1  C   UNL     1       7.897  -4.687  24.320  1.00  0.00     0.061 C 
ENDROOT
BRANCH   1   2
HETATM    2  C   UNL     1       8.074  -5.001  25.534  1.00  0.00    -0.090 C 
BRANCH   2   3
HETATM    3  C   UNL     1       7.877  -5.316  26.613  1.00  0.00     0.157 C 
HETATM    4  N   UNL     1       7.879  -6.059  27.551  1.00  0.00    -0.288 N 
ATOM      5  HN  UNL     1       8.710  -6.618  27.743  1.00  0.00     0.178 HD
BRANCH   4   6
HETATM    6  S   UNL     1       6.594  -6.198  28.521  1.00  0.00     0.226 S 
HETATM    7  C   UNL     1       5.190  -6.315  27.318  1.00  0.00     0.186 C 
HETATM    8  O   UNL     1       6.601  -7.414  29.267  1.00  0.00    -0.206 OA
HETATM    9  O   UNL     1       6.338  -5.052  29.306  1.00  0.00    -0.206 OA
ENDBRANCH   4   6
ENDBRANCH   2   3
ENDBRANCH   1   2
BRANCH   1  10
HETATM   10  C   UNL     1       8.393  -3.619  24.191  1.00  0.00    -0.035 C 
BRANCH  10  11
HETATM   11  C   UNL     1       8.863  -2.404  24.366  1.00  0.00     0.294 C 
HETATM   12  O   UNL     1       8.309  -1.760  25.136  1.00  0.00    -0.258 OA
HETATM   13  N   UNL     1       9.872  -2.163  23.519  1.00  0.00    -0.315 N 
ATOM     14  HN  UNL     1      10.184  -2.862  22.844  1.00  0.00     0.170 HD
BRANCH  13  15
HETATM   15  C   UNL     1      10.420  -1.025  23.597  1.00  0.00     0.060 A 
HETATM   16  C   UNL     1      11.301  -0.428  24.350  1.00  0.00     0.117 A 
HETATM   17  N   UNL     1      12.028   0.553  24.700  1.00  0.00    -0.373 N 
HETATM   18  C   UNL     1      11.632   1.316  23.717  1.00  0.00     0.088 A 
ATOM     19  HN  UNL     1      12.684   0.694  25.469  1.00  0.00     0.164 HD
HETATM   20  C   UNL     1      10.826   1.115  22.850  1.00  0.00     0.030 A 
HETATM   21  C   UNL     1      10.066   0.046  22.532  1.00  0.00    -0.016 A 
HETATM   22  C   UNL     1       9.194  -0.133  21.546  1.00  0.00     0.026 C 
ENDBRANCH  13  15
ENDBRANCH  10  11
ENDBRANCH   1  10
BRANCH   1  23
HETATM   23  C   UNL     1       7.457  -5.435  23.028  1.00  0.00     0.029 C 
BRANCH  23  24
HETATM   24  C   UNL     1       6.854  -5.261  22.170  1.00  0.00     0.002 C 
BRANCH  24  25
HETATM   25  C   UNL     1       5.532  -4.659  22.152  1.00  0.00    -0.001 C 
HETATM   26  C   UNL     1       5.534  -3.462  21.839  1.00  0.00    -0.010 C 
HETATM   27  C   UNL     1       5.933  -2.680  21.567  1.00  0.00     0.011 C 
ENDBRANCH  24  25
ENDBRANCH  23  24
ENDBRANCH   1  23
TORSDOF 9
ENDMDL
MODEL 7
REMARK VINA RESULT:    -6.464      3.366      7.306
REMARK INTER + INTRA:         -10.968
REMARK INTER:                  -9.866
REMARK INTRA:                  -1.102
REMARK UNBOUND:                -1.102
REMARK  9 active torsions:
REMARK  status: ('A' for Active; 'I' for Inactive)
REMARK    1  A    between atoms: S_2  and  N_5 
REMARK    2  A    between atoms: C_7  and  C_8 
REMARK    3  A    between atoms: C_8  and  C_9 
REMARK    4  A    between atoms: C_9  and  C_15 
REMARK    5  A    between atoms: C_9  and  C_10 
REMARK    6  A    between atoms: C_10  and  C_11 
REMARK    7  A    between atoms: C_11  and  C_12 
REMARK    8  A    between atoms: C_15  and  C_16 
REMARK       I    between atoms: C_16  and  N_18 
REMARK    9  A    between atoms: N_18  and  C_20 
ROOT
HETATM    1  C   UNL     1       8.808  -1.705  23.853  1.00  0.00     0.061 C 
ENDROOT
BRANCH   1   2
HETATM    2  C   UNL     1       8.669  -2.885  24.292  1.00  0.00    -0.090 C 
BRANCH   2   3
HETATM    3  C   UNL     1       8.237  -3.807  24.806  1.00  0.00     0.157 C 
HETATM    4  N   UNL     1       7.405  -4.631  25.051  1.00  0.00    -0.288 N 
ATOM      5  HN  UNL     1       6.875  -5.047  24.286  1.00  0.00     0.178 HD
BRANCH   4   6
HETATM    6  S   UNL     1       7.102  -5.100  26.568  1.00  0.00     0.226 S 
HETATM    7  C   UNL     1       6.008  -3.744  27.199  1.00  0.00     0.186 C 
HETATM    8  O   UNL     1       6.340  -6.305  26.624  1.00  0.00    -0.206 OA
HETATM    9  O   UNL     1       8.237  -5.107  27.407  1.00  0.00    -0.206 OA
ENDBRANCH   4   6
ENDBRANCH   2   3
ENDBRANCH   1   2
BRANCH   1  10
HETATM   10  C   UNL     1       8.213  -1.674  22.829  1.00  0.00    -0.035 C 
BRANCH  10  11
HETATM   11  C   UNL     1       7.343  -1.455  21.867  1.00  0.00     0.294 C 
HETATM   12  O   UNL     1       6.493  -2.219  21.780  1.00  0.00    -0.258 OA
HETATM   13  N   UNL     1       7.706  -0.393  21.138  1.00  0.00    -0.315 N 
ATOM     14  HN  UNL     1       8.558   0.131  21.340  1.00  0.00     0.170 HD
BRANCH  13  15
HETATM   15  C   UNL     1       6.939  -0.071  20.183  1.00  0.00     0.060 A 
HETATM   16  C   UNL     1       6.588  -0.552  19.023  1.00  0.00     0.117 A 
HETATM   17  N   UNL     1       5.934  -0.545  17.935  1.00  0.00    -0.373 N 
HETATM   18  C   UNL     1       5.277   0.544  18.228  1.00  0.00     0.088 A 
ATOM     19  HN  UNL     1       5.924  -1.166  17.125  1.00  0.00     0.164 HD
HETATM   20  C   UNL     1       5.349   1.264  19.187  1.00  0.00     0.030 A 
HETATM   21  C   UNL     1       6.081   1.214  20.321  1.00  0.00    -0.016 A 
HETATM   22  C   UNL     1       6.113   2.033  21.366  1.00  0.00     0.026 C 
ENDBRANCH  13  15
ENDBRANCH  10  11
ENDBRANCH   1  10
BRANCH   1  23
HETATM   23  C   UNL     1       9.306  -0.350  24.435  1.00  0.00     0.029 C 
BRANCH  23  24
HETATM   24  C   UNL     1      10.196   0.067  24.840  1.00  0.00     0.002 C 
BRANCH  24  25
HETATM   25  C   UNL     1      11.163   0.890  24.133  1.00  0.00    -0.001 C 
HETATM   26  C   UNL     1      12.307   0.422  24.131  1.00  0.00    -0.010 C 
HETATM   27  C   UNL     1      12.939  -0.218  24.322  1.00  0.00     0.011 C 
ENDBRANCH  24  25
ENDBRANCH  23  24
ENDBRANCH   1  23
TORSDOF 9
ENDMDL
MODEL 8
REMARK VINA RESULT:    -6.379      3.179      6.118
REMARK INTER + INTRA:         -10.837
REMARK INTER:                  -9.635
REMARK INTRA:                  -1.203
REMARK UNBOUND:                -1.102
REMARK  9 active torsions:
REMARK  status: ('A' for Active; 'I' for Inactive)
REMARK    1  A    between atoms: S_2  and  N_5 
REMARK    2  A    between atoms: C_7  and  C_8 
REMARK    3  A    between atoms: C_8  and  C_9 
REMARK    4  A    between atoms: C_9  and  C_15 
REMARK    5  A    between atoms: C_9  and  C_10 
REMARK    6  A    between atoms: C_10  and  C_11 
REMARK    7  A    between atoms: C_11  and  C_12 
REMARK    8  A    between atoms: C_15  and  C_16 
REMARK       I    between atoms: C_16  and  N_18 
REMARK    9  A    between atoms: N_18  and  C_20 
ROOT
HETATM    1  C   UNL     1       8.408  -0.108  20.502  1.00  0.00     0.061 C 
ENDROOT
BRANCH   1   2
HETATM    2  C   UNL     1       9.243   0.641  21.089  1.00  0.00    -0.090 C 
BRANCH   2   3
HETATM    3  C   UNL     1       9.692   1.472  21.729  1.00  0.00     0.157 C 
HETATM    4  N   UNL     1      10.537   2.240  22.085  1.00  0.00    -0.288 N 
ATOM      5  HN  UNL     1      11.070   2.757  21.385  1.00  0.00     0.178 HD
BRANCH   4   6
HETATM    6  S   UNL     1      10.856   2.479  23.652  1.00  0.00     0.226 S 
HETATM    7  C   UNL     1      11.871   0.992  24.089  1.00  0.00     0.186 C 
HETATM    8  O   UNL     1      11.680   3.622  23.874  1.00  0.00    -0.206 OA
HETATM    9  O   UNL     1       9.717   2.430  24.486  1.00  0.00    -0.206 OA
ENDBRANCH   4   6
ENDBRANCH   2   3
ENDBRANCH   1   2
BRANCH   1  10
HETATM   10  C   UNL     1       8.111  -0.937  21.296  1.00  0.00    -0.035 C 
BRANCH  10  11
HETATM   11  C   UNL     1       7.757  -1.596  22.377  1.00  0.00     0.294 C 
HETATM   12  O   UNL     1       6.883  -1.149  22.970  1.00  0.00    -0.258 OA
HETATM   13  N   UNL     1       8.576  -2.634  22.585  1.00  0.00    -0.315 N 
ATOM     14  HN  UNL     1       9.359  -2.832  21.962  1.00  0.00     0.170 HD
BRANCH  13  15
HETATM   15  C   UNL     1       8.330  -3.358  23.594  1.00  0.00     0.060 A 
HETATM   16  C   UNL     1       8.509  -3.307  24.885  1.00  0.00     0.117 A 
HETATM   17  N   UNL     1       8.408  -3.751  26.070  1.00  0.00    -0.373 N 
HETATM   18  C   UNL     1       7.744  -4.817  25.713  1.00  0.00     0.088 A 
ATOM     19  HN  UNL     1       8.729  -3.402  26.974  1.00  0.00     0.164 HD
HETATM   20  C   UNL     1       7.418  -5.205  24.624  1.00  0.00     0.030 A 
HETATM   21  C   UNL     1       7.565  -4.691  23.384  1.00  0.00    -0.016 A 
HETATM   22  C   UNL     1       7.171  -5.154  22.203  1.00  0.00     0.026 C 
ENDBRANCH  13  15
ENDBRANCH  10  11
ENDBRANCH   1  10
BRANCH   1  23
HETATM   23  C   UNL     1       7.566  -0.032  19.195  1.00  0.00     0.029 C 
BRANCH  23  24
HETATM   24  C   UNL     1       6.545  -0.018  18.902  1.00  0.00     0.002 C 
BRANCH  24  25
HETATM   25  C   UNL     1       5.830   1.105  18.318  1.00  0.00    -0.001 C 
HETATM   26  C   UNL     1       5.032   1.644  19.093  1.00  0.00    -0.010 C 
HETATM   27  C   UNL     1       4.617   1.758  19.905  1.00  0.00     0.011 C 
ENDBRANCH  24  25
ENDBRANCH  23  24
ENDBRANCH   1  23
TORSDOF 9
ENDMDL
MODEL 9
REMARK VINA RESULT:    -6.288     13.927     16.760
REMARK INTER + INTRA:         -10.698
REMARK INTER:                  -9.369
REMARK INTRA:                  -1.329
REMARK UNBOUND:                -1.102
REMARK  9 active torsions:
REMARK  status: ('A' for Active; 'I' for Inactive)
REMARK    1  A    between atoms: S_2  and  N_5 
REMARK    2  A    between atoms: C_7  and  C_8 
REMARK    3  A    between atoms: C_8  and  C_9 
REMARK    4  A    between atoms: C_9  and  C_15 
REMARK    5  A    between atoms: C_9  and  C_10 
REMARK    6  A    between atoms: C_10  and  C_11 
REMARK    7  A    between atoms: C_11  and  C_12 
REMARK    8  A    between atoms: C_15  and  C_16 
REMARK       I    between atoms: C_16  and  N_18 
REMARK    9  A    between atoms: N_18  and  C_20 
ROOT
HETATM    1  C   UNL     1      24.184  -2.093  23.372  1.00  0.00     0.061 C 
ENDROOT
BRANCH   1   2
HETATM    2  C   UNL     1      24.387  -3.337  23.500  1.00  0.00    -0.090 C 
BRANCH   2   3
HETATM    3  C   UNL     1      24.435  -4.387  23.942  1.00  0.00     0.157 C 
HETATM    4  N   UNL     1      24.028  -5.482  24.204  1.00  0.00    -0.288 N 
ATOM      5  HN  UNL     1      23.532  -6.014  23.489  1.00  0.00     0.178 HD
BRANCH   4   6
HETATM    6  S   UNL     1      24.245  -6.136  25.665  1.00  0.00     0.226 S 
HETATM    7  C   UNL     1      26.053  -5.866  25.964  1.00  0.00     0.186 C 
HETATM    8  O   UNL     1      23.547  -5.430  26.689  1.00  0.00    -0.206 OA
HETATM    9  O   UNL     1      24.049  -7.534  25.706  1.00  0.00    -0.206 OA
ENDBRANCH   4   6
ENDBRANCH   2   3
ENDBRANCH   1   2
BRANCH   1  10
HETATM   10  C   UNL     1      23.975  -1.922  22.218  1.00  0.00    -0.035 C 
BRANCH  10  11
HETATM   11  C   UNL     1      23.431  -1.793  21.028  1.00  0.00     0.294 C 
HETATM   12  O   UNL     1      22.298  -1.961  20.976  1.00  0.00    -0.258 OA
HETATM   13  N   UNL     1      24.371  -1.559  20.104  1.00  0.00    -0.315 N 
ATOM     14  HN  UNL     1      25.361  -1.509  20.347  1.00  0.00     0.170 HD
BRANCH  13  15
HETATM   15  C   UNL     1      23.971  -1.402  18.914  1.00  0.00     0.060 A 
HETATM   16  C   UNL     1      23.498  -0.439  18.173  1.00  0.00     0.117 A 
HETATM   17  N   UNL     1      23.058   0.060  17.091  1.00  0.00    -0.373 N 
HETATM   18  C   UNL     1      23.216  -1.043  16.411  1.00  0.00     0.088 A 
ATOM     19  HN  UNL     1      22.708   0.986  16.843  1.00  0.00     0.164 HD
HETATM   20  C   UNL     1      23.603  -2.126  16.759  1.00  0.00     0.030 A 
HETATM   21  C   UNL     1      24.051  -2.606  17.938  1.00  0.00    -0.016 A 
HETATM   22  C   UNL     1      24.484  -3.817  18.271  1.00  0.00     0.026 C 
ENDBRANCH  13  15
ENDBRANCH  10  11
ENDBRANCH   1  10
BRANCH   1  23
HETATM   23  C   UNL     1      23.909  -0.902  24.335  1.00  0.00     0.029 C 
BRANCH  23  24
HETATM   24  C   UNL     1      23.186  -0.609  25.057  1.00  0.00     0.002 C 
BRANCH  24  25
HETATM   25  C   UNL     1      21.948   0.107  24.796  1.00  0.00    -0.001 C 
HETATM   26  C   UNL     1      20.988  -0.632  24.549  1.00  0.00    -0.010 C 
HETATM   27  C   UNL     1      20.578  -1.449  24.450  1.00  0.00     0.011 C 
ENDBRANCH  24  25
ENDBRANCH  23  24
ENDBRANCH   1  23
TORSDOF 9
ENDMDL
