stable:False satoms:12 tatoms:24 sratio:0.5
  -OEChem-07092417353D

 24 25  0     1  0  0  0  0  0999 V2000
    7.3471   -3.8776   25.4799 H   0  0  0  0  0  0  0  0  0  0  0  0
    8.3626   -3.5950   25.7031 C   0  0  0  0  0  0  0  0  0  0  0  0
    8.9792   -4.4667   25.7773 H   0  0  0  0  0  0  0  0  0  0  0  0
    8.3683   -3.0752   26.6475 H   0  0  0  0  0  0  0  0  0  0  0  0
    8.0608   -2.6869   23.6358 N   0  0  0  0  0  0  0  0  0  0  0  0
    8.8622   -2.7659   24.5940 C   0  0  3  0  0  0  0  0  0  0  0  0
    7.7353   -2.2608   22.6077 N   0  0  0  0  0  0  0  0  0  0  0  0
   10.6744   -0.6487   22.0127 N   0  0  0  0  0  0  0  0  0  0  0  0
   11.1503   -0.6130   24.2138 C   0  0  0  0  0  0  0  0  0  0  0  0
   11.1978    0.6208   24.3785 O   0  0  0  0  0  0  0  0  0  0  0  0
   11.9706   -0.2350   23.7730 C   0  0  0  0  0  0  0  0  0  0  0  0
   12.8725   -0.4794   23.1550 H   0  0  0  0  0  0  0  0  0  0  0  0
   10.4888   -2.1962   24.4839 S   0  0  0  0  0  0  0  0  0  0  0  0
   10.4038    0.7741   22.2879 N   0  0  0  0  0  0  0  0  0  0  0  0
    9.7029   -0.0408   21.9352 C   0  0  0  0  0  0  0  0  0  0  0  0
    7.9547    0.4400   19.7215 O   0  0  0  0  0  0  0  0  0  0  0  0
    7.1760   -1.7947   20.7128 H   0  0  0  0  0  0  0  0  0  0  0  0
    7.6589   -1.4006   21.5642 C   0  0  0  0  0  0  0  0  0  0  0  0
    7.1373    0.2296   18.8923 C   0  3  0  0  0  0  0  0  0  0  0  0
    7.0635    0.1003   17.7955 H   0  0  0  0  0  0  0  0  0  0  0  0
    6.4722    0.3390   19.8571 C   0  0  0  0  0  0  0  0  0  0  0  0
    8.2440   -0.3624   21.5720 C   0  0  0  0  0  0  0  0  0  0  0  0
    5.5441   -0.3142   19.8726 H   0  0  0  0  0  0  0  0  0  0  0  0
    6.1569    1.0190   20.6234 H   0  0  0  0  0  0  0  0  0  0  0  0
 19 20  1  0  0  0  0
 16 19  1  0  0  0  0
 19 21  1  0  0  0  0
 16 21  1  0  0  0  0
 21 23  1  0  0  0  0
 21 24  1  0  0  0  0
 17 18  1  0  0  0  0
 18 22  2  3  0  0  0
  7 18  1  0  0  0  0
 15 22  1  0  0  0  0
  8 15  1  0  0  0  0
 14 15  1  0  0  0  0
  8 14  1  0  0  0  0
  5  7  2  0  0  0  0
 11 12  1  0  0  0  0
  5  6  1  0  0  0  0
  9 11  2  0  0  0  0
 10 11  1  0  0  0  0
  9 10  1  0  0  0  0
  9 13  1  0  0  0  0
  6 13  1  0  0  0  0
  2  6  1  0  0  0  0
  1  2  1  0  0  0  0
  2  3  1  0  0  0  0
  2  4  1  0  0  0  0
M  CHG  1  19   1
M  END
> <Shapegauss>
-178.030411

$$$$
