REMARK  5 active torsions:
REMARK  status: ('A' for Active; 'I' for Inactive)
REMARK    1  A    between atoms: N_2  and  N_5 
REMARK    2  A    between atoms: C_4  and  S_12 
REMARK    3  A    between atoms: C_9  and  S_12 
REMARK    4  A    between atoms: C_15  and  C_20 
REMARK    5  A    between atoms: C_17  and  C_20 
ROOT
HETATM    1  O   UNL     1       7.955   0.440  19.721  1.00  0.00    -0.387 OA
HETATM    2  C   UNL     1       7.137   0.230  18.892  1.00  0.00     0.193 A 
HETATM    3  C   UNL     1       6.472   0.339  19.857  1.00  0.00     0.193 A 
ENDROOT
TORSDOF 5
