stable:False satoms:5 tatoms:24 sratio:0.20833333333333334
  -OEChem-07092417443D

 24 24  0     1  0  0  0  0  0999 V2000
    6.5272   -4.8795   26.4121 C   0  0  0  0  0  0  0  0  0  0  0  0
    8.2159   -4.2853   26.0872 S   0  0  0  0  0  0  0  0  0  0  0  0
    9.0458   -5.4690   26.0906 O   0  0  0  0  0  0  0  0  0  0  0  0
    8.5464   -3.3825   27.1547 O   0  0  0  0  0  0  0  0  0  0  0  0
    8.1467   -3.6206   24.6431 N   0  0  0  0  0  0  0  0  0  0  0  0
    8.9654   -2.8923   24.1142 C   0  0  0  0  0  0  0  0  0  0  0  0
    9.4407   -1.9908   23.5014 C   0  0  0  0  0  0  0  0  0  0  0  0
   10.3127   -1.0479   23.2829 C   0  0  2  0  0  0  0  0  0  0  0  0
   11.0366   -0.0685   24.2258 C   0  0  0  0  0  0  0  0  0  0  0  0
   12.1995    0.2110   24.1331 C   0  0  0  0  0  0  0  0  0  0  0  0
   13.1423   -0.0123   23.6240 C   0  0  0  0  0  0  0  0  0  0  0  0
   12.7366   -1.3064   22.5935 C   0  0  0  0  0  0  0  0  0  0  0  0
   11.8982   -1.7120   22.4869 C   0  0  0  0  0  0  0  0  0  0  0  0
    9.7167   -0.5745   22.3371 C   0  0  0  0  0  0  0  0  0  0  0  0
    9.0458    0.0674   21.3846 C   0  0  0  0  0  0  0  0  0  0  0  0
    9.5797    0.9947   20.9977 O   0  0  0  0  0  0  0  0  0  0  0  0
    7.9003   -0.5241   21.1302 N   0  0  0  0  0  0  0  0  0  0  0  0
    7.1899   -0.0798   20.2043 C   0  0  0  0  0  0  0  0  0  0  0  0
    7.2267   -0.0306   18.9139 C   0  0  0  0  0  0  0  0  0  0  0  0
    6.7162    0.3149   17.8288 N   0  0  0  0  0  0  0  0  0  0  0  0
    5.6647    0.8245   18.2931 C   0  0  0  0  0  0  0  0  0  0  0  0
    5.2413    0.9449   19.4038 C   0  0  0  0  0  0  0  0  0  0  0  0
    5.7714    0.5703   20.5594 C   0  0  0  0  0  0  0  0  0  0  0  0
    5.3171    0.6583   21.8943 C   0  0  0  0  0  0  0  0  0  0  0  0
 20 21  2  0  0  0  0
 19 20  1  0  0  0  0
 21 22  1  0  0  0  0
 18 19  2  0  0  0  0
 22 23  2  0  0  0  0
 18 23  1  0  0  0  0
 17 18  1  0  0  0  0
 23 24  1  0  0  0  0
 15 16  2  0  0  0  0
 15 17  1  0  0  0  0
 14 15  1  0  0  0  0
  8 14  1  0  0  0  0
 12 13  2  0  0  0  0
 11 12  1  0  0  0  0
  7  8  1  0  0  0  0
  8  9  1  0  0  0  0
  6  7  2  3  0  0  0
 10 11  1  0  0  0  0
  5  6  1  0  0  0  0
  9 10  2  0  0  0  0
  2  5  1  0  0  0  0
  2  3  2  0  0  0  0
  1  2  1  0  0  0  0
  2  4  2  0  0  0  0
M  END
> <Shapegauss>
-286.504791

$$$$
