stable:False satoms:5 tatoms:24 sratio:0.20833333333333334
  -OEChem-08062414523D

 47 47  0     1  0  0  0  0  0999 V2000
   -6.1131   -5.1646  -26.0717 C   0  0  0  0  0  0  0  0  0  0  0  0
   -7.7880   -4.4623  -25.9619 S   0  0  0  0  0  0  0  0  0  0  0  0
   -8.6840   -5.5938  -26.0440 O   0  0  0  0  0  0  0  0  0  0  0  0
   -7.9326   -3.5681  -27.0769 O   0  0  0  0  0  0  0  0  0  0  0  0
   -7.8489   -3.7673  -24.5318 N   0  0  0  0  0  0  0  0  0  0  0  0
   -8.6773   -2.9783  -24.1175 C   0  0  0  0  0  0  0  0  0  0  0  0
   -9.1646   -2.0349  -23.5820 C   0  0  0  0  0  0  0  0  0  0  0  0
   -9.9956   -1.0363  -23.4860 C   0  0  2  0  0  0  0  0  0  0  0  0
  -10.5401   -0.0389  -24.5258 C   0  0  0  0  0  0  0  0  0  0  0  0
  -11.6860    0.3121  -24.5780 C   0  0  0  0  0  0  0  0  0  0  0  0
  -12.6946    0.1584  -24.1816 C   0  0  0  0  0  0  0  0  0  0  0  0
  -12.4955   -1.1317  -23.0875 C   0  0  0  0  0  0  0  0  0  0  0  0
  -11.7027   -1.5841  -22.8741 C   0  0  0  0  0  0  0  0  0  0  0  0
   -9.4875   -0.5762  -22.4841 C   0  0  0  0  0  0  0  0  0  0  0  0
   -8.8953    0.0478  -21.4694 C   0  0  0  0  0  0  0  0  0  0  0  0
   -9.4123    1.0148  -21.1656 O   0  0  0  0  0  0  0  0  0  0  0  0
   -7.8273   -0.6049  -21.0694 N   0  0  0  0  0  0  0  0  0  0  0  0
   -7.2052   -0.1811  -20.0730 C   0  0  0  0  0  0  0  0  0  0  0  0
   -7.3914   -0.0978  -18.7973 C   0  0  0  0  0  0  0  0  0  0  0  0
   -6.9925    0.2433  -17.6651 N   0  0  0  0  0  0  0  0  0  0  0  0
   -5.8636    0.6772  -18.0090 C   0  0  0  0  0  0  0  0  0  0  0  0
   -5.3049    0.7444  -19.0629 C   0  0  0  0  0  0  0  0  0  0  0  0
   -5.7167    0.3737  -20.2669 C   0  0  0  0  0  0  0  0  0  0  0  0
   -5.1029    0.4011  -21.5391 C   0  0  0  0  0  0  0  0  0  0  0  0
   -5.9890   -5.6682  -27.0418 H   0  0  0  0  0  0  0  0  0  0  0  0
   -5.3707   -4.3582  -25.9798 H   0  0  0  0  0  0  0  0  0  0  0  0
   -5.9668   -5.8921  -25.2597 H   0  0  0  0  0  0  0  0  0  0  0  0
   -6.9763   -3.2863  -24.4466 H   0  0  0  0  0  0  0  0  0  0  0  0
   -9.5743   -3.4573  -24.4813 H   0  0  0  0  0  0  0  0  0  0  0  0
   -8.6061   -1.9696  -22.6599 H   0  0  0  0  0  0  0  0  0  0  0  0
  -10.9239   -1.5084  -23.1317 H   0  0  0  0  0  0  0  0  0  0  0  0
   -9.8500    0.3681  -25.2501 H   0  0  0  0  0  0  0  0  0  0  0  0
  -11.7473    1.0989  -25.3152 H   0  0  0  0  0  0  0  0  0  0  0  0
  -13.3964   -0.1111  -24.9847 H   0  0  0  0  0  0  0  0  0  0  0  0
  -13.0564    1.0600  -23.6657 H   0  0  0  0  0  0  0  0  0  0  0  0
  -13.3875   -1.4680  -22.5799 H   0  0  0  0  0  0  0  0  0  0  0  0
  -11.7178   -2.3912  -22.1567 H   0  0  0  0  0  0  0  0  0  0  0  0
  -10.7741   -1.2982  -23.3458 H   0  0  0  0  0  0  0  0  0  0  0  0
   -8.8554   -1.4667  -22.3523 H   0  0  0  0  0  0  0  0  0  0  0  0
  -10.4187   -0.6995  -21.9117 H   0  0  0  0  0  0  0  0  0  0  0  0
   -7.5190   -1.4241  -21.5529 H   0  0  0  0  0  0  0  0  0  0  0  0
   -8.3643   -0.5357  -18.6291 H   0  0  0  0  0  0  0  0  0  0  0  0
   -5.2824    1.0675  -17.1866 H   0  0  0  0  0  0  0  0  0  0  0  0
   -4.3138    1.1721  -19.0294 H   0  0  0  0  0  0  0  0  0  0  0  0
   -4.5657   -0.5439  -21.7081 H   0  0  0  0  0  0  0  0  0  0  0  0
   -5.8724    0.5290  -22.3147 H   0  0  0  0  0  0  0  0  0  0  0  0
   -4.3927    1.2398  -21.5854 H   0  0  0  0  0  0  0  0  0  0  0  0
 20 21  2  0  0  0  0
 19 20  1  0  0  0  0
 21 22  1  0  0  0  0
 18 19  2  0  0  0  0
 22 23  2  0  0  0  0
 18 23  1  0  0  0  0
 17 18  1  0  0  0  0
 23 24  1  0  0  0  0
 15 16  2  0  0  0  0
 15 17  1  0  0  0  0
 14 15  1  0  0  0  0
  8 14  1  0  0  0  0
 12 13  2  0  0  0  0
 11 12  1  0  0  0  0
  7  8  1  0  0  0  0
  8  9  1  0  0  0  0
  6  7  2  3  0  0  0
 10 11  1  0  0  0  0
  5  6  1  0  0  0  0
  9 10  2  0  0  0  0
  2  5  1  0  0  0  0
  2  3  2  0  0  0  0
  1  2  1  0  0  0  0
  2  4  2  0  0  0  0
  1 25  1  0  0  0  0
  1 26  1  0  0  0  0
  1 27  1  0  0  0  0
  5 28  1  0  0  0  0
  6 29  1  0  0  0  0
  7 30  1  0  0  0  0
  8 31  1  0  0  0  0
  9 32  1  0  0  0  0
 10 33  1  0  0  0  0
 11 34  1  0  0  0  0
 11 35  1  0  0  0  0
 12 36  1  0  0  0  0
 13 37  1  0  0  0  0
 13 38  1  0  0  0  0
 14 39  1  0  0  0  0
 14 40  1  0  0  0  0
 17 41  1  0  0  0  0
 19 42  1  0  0  0  0
 21 43  1  0  0  0  0
 22 44  1  0  0  0  0
 24 45  1  0  0  0  0
 24 46  1  0  0  0  0
 24 47  1  0  0  0  0
M  END
> <Chemgauss4>
-12.920151

$$$$
