stable:False satoms:5 tatoms:24 sratio:0.20833333333333334
  -OEChem-08062414523D

 47 47  0     1  0  0  0  0  0999 V2000
    6.5250   -5.2984   26.1551 C   0  0  0  0  0  0  0  0  0  0  0  0
    8.1998   -4.5961   26.0452 S   0  0  0  0  0  0  0  0  0  0  0  0
    9.0958   -5.7276   26.1273 O   0  0  0  0  0  0  0  0  0  0  0  0
    8.3444   -3.7019   27.1603 O   0  0  0  0  0  0  0  0  0  0  0  0
    8.2607   -3.9011   24.6151 N   0  0  0  0  0  0  0  0  0  0  0  0
    9.0892   -3.1121   24.2009 C   0  0  0  0  0  0  0  0  0  0  0  0
    9.5764   -2.1687   23.6653 C   0  0  0  0  0  0  0  0  0  0  0  0
   10.4075   -1.1701   23.5693 C   0  0  2  0  0  0  0  0  0  0  0  0
   10.9519   -0.1727   24.6091 C   0  0  0  0  0  0  0  0  0  0  0  0
   12.0978    0.1782   24.6613 C   0  0  0  0  0  0  0  0  0  0  0  0
   13.1064    0.0246   24.2650 C   0  0  0  0  0  0  0  0  0  0  0  0
   12.9074   -1.2655   23.1708 C   0  0  0  0  0  0  0  0  0  0  0  0
   12.1145   -1.7179   22.9575 C   0  0  0  0  0  0  0  0  0  0  0  0
    9.8993   -0.7100   22.5674 C   0  0  0  0  0  0  0  0  0  0  0  0
    9.3071   -0.0860   21.5528 C   0  0  0  0  0  0  0  0  0  0  0  0
    9.8241    0.8810   21.2489 O   0  0  0  0  0  0  0  0  0  0  0  0
    8.2391   -0.7387   21.1527 N   0  0  0  0  0  0  0  0  0  0  0  0
    7.6170   -0.3150   20.1563 C   0  0  0  0  0  0  0  0  0  0  0  0
    7.8033   -0.2316   18.8806 C   0  0  0  0  0  0  0  0  0  0  0  0
    7.4043    0.1095   17.7484 N   0  0  0  0  0  0  0  0  0  0  0  0
    6.2754    0.5434   18.0923 C   0  0  0  0  0  0  0  0  0  0  0  0
    5.7167    0.6105   19.1462 C   0  0  0  0  0  0  0  0  0  0  0  0
    6.1286    0.2398   20.3503 C   0  0  0  0  0  0  0  0  0  0  0  0
    5.5147    0.2673   21.6225 C   0  0  0  0  0  0  0  0  0  0  0  0
    6.4009   -5.8020   27.1251 H   0  0  0  0  0  0  0  0  0  0  0  0
    5.7826   -4.4920   26.0631 H   0  0  0  0  0  0  0  0  0  0  0  0
    6.3786   -6.0259   25.3431 H   0  0  0  0  0  0  0  0  0  0  0  0
    7.3881   -3.4201   24.5299 H   0  0  0  0  0  0  0  0  0  0  0  0
    9.9862   -3.5911   24.5647 H   0  0  0  0  0  0  0  0  0  0  0  0
    9.0179   -2.1034   22.7432 H   0  0  0  0  0  0  0  0  0  0  0  0
   11.3357   -1.6422   23.2150 H   0  0  0  0  0  0  0  0  0  0  0  0
   10.2618    0.2343   25.3334 H   0  0  0  0  0  0  0  0  0  0  0  0
   12.1592    0.9651   25.3985 H   0  0  0  0  0  0  0  0  0  0  0  0
   13.8082   -0.2449   25.0680 H   0  0  0  0  0  0  0  0  0  0  0  0
   13.4682    0.9262   23.7490 H   0  0  0  0  0  0  0  0  0  0  0  0
   13.7993   -1.6018   22.6632 H   0  0  0  0  0  0  0  0  0  0  0  0
   12.1296   -2.5250   22.2400 H   0  0  0  0  0  0  0  0  0  0  0  0
   11.1860   -1.4320   23.4291 H   0  0  0  0  0  0  0  0  0  0  0  0
    9.2672   -1.6005   22.4356 H   0  0  0  0  0  0  0  0  0  0  0  0
   10.8305   -0.8333   21.9950 H   0  0  0  0  0  0  0  0  0  0  0  0
    7.9308   -1.5579   21.6362 H   0  0  0  0  0  0  0  0  0  0  0  0
    8.7761   -0.6695   18.7125 H   0  0  0  0  0  0  0  0  0  0  0  0
    5.6942    0.9337   17.2700 H   0  0  0  0  0  0  0  0  0  0  0  0
    4.7256    1.0383   19.1127 H   0  0  0  0  0  0  0  0  0  0  0  0
    4.9775   -0.6777   21.7914 H   0  0  0  0  0  0  0  0  0  0  0  0
    6.2842    0.3952   22.3980 H   0  0  0  0  0  0  0  0  0  0  0  0
    4.8045    1.1060   21.6687 H   0  0  0  0  0  0  0  0  0  0  0  0
 20 21  2  0  0  0  0
 19 20  1  0  0  0  0
 21 22  1  0  0  0  0
 18 19  2  0  0  0  0
 22 23  2  0  0  0  0
 18 23  1  0  0  0  0
 17 18  1  0  0  0  0
 23 24  1  0  0  0  0
 15 16  2  0  0  0  0
 15 17  1  0  0  0  0
 14 15  1  0  0  0  0
  8 14  1  0  0  0  0
 12 13  2  0  0  0  0
 11 12  1  0  0  0  0
  7  8  1  0  0  0  0
  8  9  1  0  0  0  0
  6  7  2  3  0  0  0
 10 11  1  0  0  0  0
  5  6  1  0  0  0  0
  9 10  2  0  0  0  0
  2  5  1  0  0  0  0
  2  3  2  0  0  0  0
  1  2  1  0  0  0  0
  2  4  2  0  0  0  0
  1 25  1  0  0  0  0
  1 26  1  0  0  0  0
  1 27  1  0  0  0  0
  5 28  1  0  0  0  0
  6 29  1  0  0  0  0
  7 30  1  0  0  0  0
  8 31  1  0  0  0  0
  9 32  1  0  0  0  0
 10 33  1  0  0  0  0
 11 34  1  0  0  0  0
 11 35  1  0  0  0  0
 12 36  1  0  0  0  0
 13 37  1  0  0  0  0
 13 38  1  0  0  0  0
 14 39  1  0  0  0  0
 14 40  1  0  0  0  0
 17 41  1  0  0  0  0
 19 42  1  0  0  0  0
 21 43  1  0  0  0  0
 22 44  1  0  0  0  0
 24 45  1  0  0  0  0
 24 46  1  0  0  0  0
 24 47  1  0  0  0  0
M  END
> <Chemgauss4>
-12.541618

$$$$
