
  -OEChem-08092413503D

 39 42  0     1  0  0  0  0  0999 V2000
   12.7825    5.2073   22.6500 Br  0  0  0  0  0  0  0  0  0  0  0  0
   11.3426    4.2492   23.4101 C   0  0  0  0  0  0  0  0  0  0  0  0
   10.3911    4.9248   24.1737 C   0  0  0  0  0  0  0  0  0  0  0  0
    9.3179    4.2164   24.7266 C   0  0  0  0  0  0  0  0  0  0  0  0
    9.2180    2.8469   24.5241 C   0  0  0  0  0  0  0  0  0  0  0  0
   10.1705    2.1589   23.7616 C   0  0  0  0  0  0  0  0  0  0  0  0
   11.2373    2.8750   23.1959 C   0  0  0  0  0  0  0  0  0  0  0  0
   10.0037    0.6792   23.5088 C   0  0  3  0  0  0  0  0  0  0  0  0
    9.4092    0.3700   22.1260 C   0  0  0  0  0  0  0  0  0  0  0  0
   10.0414   -0.3221   21.3271 O   0  0  0  0  0  0  0  0  0  0  0  0
    8.1551    0.9026   21.9137 N   0  0  0  0  0  0  0  0  0  0  0  0
    7.3829    0.8748   20.7252 C   0  0  0  0  0  0  0  0  0  0  0  0
    7.8397    0.3166   19.5334 C   0  0  0  0  0  0  0  0  0  0  0  0
    7.2178    0.4543   18.3385 N   0  0  0  0  0  0  0  0  0  0  0  0
    6.0513    1.1293   18.3405 C   0  0  0  0  0  0  0  0  0  0  0  0
    5.4194    1.6122   19.4854 C   0  0  0  0  0  0  0  0  0  0  0  0
    4.1331    2.1787   19.4227 C   0  0  0  0  0  0  0  0  0  0  0  0
    3.4911    2.6198   20.5779 C   0  0  0  0  0  0  0  0  0  0  0  0
    4.1414    2.5306   21.8002 C   0  0  0  0  0  0  0  0  0  0  0  0
    5.4238    1.9813   21.8717 C   0  0  0  0  0  0  0  0  0  0  0  0
    6.0990    1.4945   20.7189 C   0  0  0  0  0  0  0  0  0  0  0  0
    9.2085   -0.0046   24.6163 C   0  0  0  0  0  0  0  0  0  0  0  0
    8.0038    0.7869   25.0540 C   0  0  0  0  0  0  0  0  0  0  0  0
    6.9635    0.2644   25.4516 O   0  0  0  0  0  0  0  0  0  0  0  0
    8.1285    2.1551   25.0493 N   0  0  0  0  0  0  0  0  0  0  0  0
   10.4747    5.9967   24.3397 H   0  0  0  0  0  0  0  0  0  0  0  0
    8.5826    4.7595   25.3187 H   0  0  0  0  0  0  0  0  0  0  0  0
   11.9771    2.3595   22.5862 H   0  0  0  0  0  0  0  0  0  0  0  0
   11.0064    0.2260   23.5174 H   0  0  0  0  0  0  0  0  0  0  0  0
    7.7956    1.5067   22.6387 H   0  0  0  0  0  0  0  0  0  0  0  0
    8.7560   -0.2623   19.4711 H   0  0  0  0  0  0  0  0  0  0  0  0
    5.6122    1.2648   17.3549 H   0  0  0  0  0  0  0  0  0  0  0  0
    3.6053    2.2440   18.4731 H   0  0  0  0  0  0  0  0  0  0  0  0
    2.4813    3.0177   20.5241 H   0  0  0  0  0  0  0  0  0  0  0  0
    3.6436    2.8653   22.7075 H   0  0  0  0  0  0  0  0  0  0  0  0
    5.8604    1.8943   22.8610 H   0  0  0  0  0  0  0  0  0  0  0  0
    9.8351   -0.1229   25.5085 H   0  0  0  0  0  0  0  0  0  0  0  0
    8.8787   -1.0029   24.3045 H   0  0  0  0  0  0  0  0  0  0  0  0
    7.3709    2.6618   25.4941 H   0  0  0  0  0  0  0  0  0  0  0  0
  1  2  1  0  0  0  0
  2  3  1  0  0  0  0
  2  7  2  0  0  0  0
  3  4  2  0  0  0  0
  3 26  1  0  0  0  0
  4  5  1  0  0  0  0
  4 27  1  0  0  0  0
  5  6  2  0  0  0  0
  5 25  1  0  0  0  0
  6  7  1  0  0  0  0
  6  8  1  0  0  0  0
  7 28  1  0  0  0  0
  8  9  1  0  0  0  0
  8 22  1  0  0  0  0
  8 29  1  0  0  0  0
  9 10  2  0  0  0  0
  9 11  1  0  0  0  0
 11 12  1  0  0  0  0
 11 30  1  0  0  0  0
 12 13  1  0  0  0  0
 12 21  2  0  0  0  0
 13 14  2  0  0  0  0
 13 31  1  0  0  0  0
 14 15  1  0  0  0  0
 15 16  2  0  0  0  0
 15 32  1  0  0  0  0
 16 17  1  0  0  0  0
 16 21  1  0  0  0  0
 17 18  2  0  0  0  0
 17 33  1  0  0  0  0
 18 19  1  0  0  0  0
 18 34  1  0  0  0  0
 19 20  2  0  0  0  0
 19 35  1  0  0  0  0
 20 21  1  0  0  0  0
 20 36  1  0  0  0  0
 22 23  1  0  0  0  0
 22 37  1  0  0  0  0
 22 38  1  0  0  0  0
 23 24  2  0  0  0  0
 23 25  1  0  0  0  0
 25 39  1  0  0  0  0
M  END
> <Chemgauss4>
-7.775066

$$$$
