
  -OEChem-08092413503D

 39 42  0     1  0  0  0  0  0999 V2000
  -14.2129    0.1872  -23.2975 Br  0  0  0  0  0  0  0  0  0  0  0  0
  -12.4607   -0.1305  -23.9284 C   0  0  0  0  0  0  0  0  0  0  0  0
  -11.9267    0.6881  -24.9231 C   0  0  0  0  0  0  0  0  0  0  0  0
  -10.6239    0.4597  -25.3815 C   0  0  0  0  0  0  0  0  0  0  0  0
   -9.8812   -0.5878  -24.8548 C   0  0  0  0  0  0  0  0  0  0  0  0
  -10.4101   -1.4176  -23.8580 C   0  0  0  0  0  0  0  0  0  0  0  0
  -11.7113   -1.1763  -23.3896 C   0  0  0  0  0  0  0  0  0  0  0  0
   -9.5573   -2.5124  -23.2617 C   0  0  3  0  0  0  0  0  0  0  0  0
   -8.9418   -2.1237  -21.9084 C   0  0  0  0  0  0  0  0  0  0  0  0
   -9.1903   -2.7948  -20.9059 O   0  0  0  0  0  0  0  0  0  0  0  0
   -8.1122   -1.0234  -21.9556 N   0  0  0  0  0  0  0  0  0  0  0  0
   -7.4701   -0.3652  -20.8766 C   0  0  0  0  0  0  0  0  0  0  0  0
   -7.6454   -0.7367  -19.5455 C   0  0  0  0  0  0  0  0  0  0  0  0
   -7.2151   -0.0098  -18.4872 N   0  0  0  0  0  0  0  0  0  0  0  0
   -6.5225    1.1117  -18.7682 C   0  0  0  0  0  0  0  0  0  0  0  0
   -6.1596    1.5159  -20.0520 C   0  0  0  0  0  0  0  0  0  0  0  0
   -5.3123    2.6206  -20.2549 C   0  0  0  0  0  0  0  0  0  0  0  0
   -4.9199    2.9919  -21.5392 C   0  0  0  0  0  0  0  0  0  0  0  0
   -5.3973    2.2848  -22.6333 C   0  0  0  0  0  0  0  0  0  0  0  0
   -6.2492    1.1940  -22.4434 C   0  0  0  0  0  0  0  0  0  0  0  0
   -6.6484    0.7680  -21.1470 C   0  0  0  0  0  0  0  0  0  0  0  0
   -8.4880   -2.9989  -24.2344 C   0  0  0  0  0  0  0  0  0  0  0  0
   -7.8014   -1.8764  -24.9678 C   0  0  0  0  0  0  0  0  0  0  0  0
   -6.6236   -1.9237  -25.3198 O   0  0  0  0  0  0  0  0  0  0  0  0
   -8.5734   -0.7872  -25.2923 N   0  0  0  0  0  0  0  0  0  0  0  0
  -12.5125    1.5034  -25.3421 H   0  0  0  0  0  0  0  0  0  0  0  0
  -10.2213    1.1094  -26.1574 H   0  0  0  0  0  0  0  0  0  0  0  0
  -12.1320   -1.8004  -22.6033 H   0  0  0  0  0  0  0  0  0  0  0  0
  -10.2138   -3.3726  -23.0618 H   0  0  0  0  0  0  0  0  0  0  0  0
   -8.0623   -0.5366  -22.8390 H   0  0  0  0  0  0  0  0  0  0  0  0
   -8.1682   -1.6426  -19.2542 H   0  0  0  0  0  0  0  0  0  0  0  0
   -6.2428    1.6945  -17.8937 H   0  0  0  0  0  0  0  0  0  0  0  0
   -4.9196    3.1773  -19.4061 H   0  0  0  0  0  0  0  0  0  0  0  0
   -4.2321    3.8210  -21.6824 H   0  0  0  0  0  0  0  0  0  0  0  0
   -5.0890    2.5635  -23.6384 H   0  0  0  0  0  0  0  0  0  0  0  0
   -6.5500    0.6521  -23.3338 H   0  0  0  0  0  0  0  0  0  0  0  0
   -8.9435   -3.6321  -25.0053 H   0  0  0  0  0  0  0  0  0  0  0  0
   -7.7283   -3.5967  -23.7166 H   0  0  0  0  0  0  0  0  0  0  0  0
   -8.1394   -0.1185  -25.9192 H   0  0  0  0  0  0  0  0  0  0  0  0
  1  2  1  0  0  0  0
  2  3  1  0  0  0  0
  2  7  2  0  0  0  0
  3  4  2  0  0  0  0
  3 26  1  0  0  0  0
  4  5  1  0  0  0  0
  4 27  1  0  0  0  0
  5  6  2  0  0  0  0
  5 25  1  0  0  0  0
  6  7  1  0  0  0  0
  6  8  1  0  0  0  0
  7 28  1  0  0  0  0
  8  9  1  0  0  0  0
  8 22  1  0  0  0  0
  8 29  1  0  0  0  0
  9 10  2  0  0  0  0
  9 11  1  0  0  0  0
 11 12  1  0  0  0  0
 11 30  1  0  0  0  0
 12 13  1  0  0  0  0
 12 21  2  0  0  0  0
 13 14  2  0  0  0  0
 13 31  1  0  0  0  0
 14 15  1  0  0  0  0
 15 16  2  0  0  0  0
 15 32  1  0  0  0  0
 16 17  1  0  0  0  0
 16 21  1  0  0  0  0
 17 18  2  0  0  0  0
 17 33  1  0  0  0  0
 18 19  1  0  0  0  0
 18 34  1  0  0  0  0
 19 20  2  0  0  0  0
 19 35  1  0  0  0  0
 20 21  1  0  0  0  0
 20 36  1  0  0  0  0
 22 23  1  0  0  0  0
 22 37  1  0  0  0  0
 22 38  1  0  0  0  0
 23 24  2  0  0  0  0
 23 25  1  0  0  0  0
 25 39  1  0  0  0  0
M  END
> <Chemgauss4>
-7.617920

$$$$
