MODEL 1
REMARK VINA RESULT:    -5.560      0.000      0.000
REMARK INTER + INTRA:          -8.247
REMARK INTER:                  -7.510
REMARK INTRA:                  -0.737
REMARK UNBOUND:                -0.737
REMARK  6 active torsions:
REMARK  status: ('A' for Active; 'I' for Inactive)
REMARK    1  A    between atoms: N_2  and  C_4 
REMARK    2  A    between atoms: C_5  and  C_6 
REMARK    3  A    between atoms: C_6  and  C_10 
REMARK    4  A    between atoms: C_6  and  C_9 
REMARK    5  A    between atoms: C_10  and  C_11 
REMARK       I    between atoms: C_11  and  N_13 
REMARK    6  A    between atoms: N_13  and  C_15 
ROOT
HETATM    1  C   UNL     1       8.651   0.072  21.278  1.00  0.00     0.295 C 
HETATM    2  O   UNL     1       9.049   1.184  21.047  1.00  0.00    -0.258 OA
HETATM    3  N   UNL     1       7.570  -0.602  20.702  1.00  0.00    -0.301 N 
ATOM      4  HN  UNL     1       7.259  -1.514  21.036  1.00  0.00     0.171 HD
ENDROOT
BRANCH   1   5
HETATM    5  C   UNL     1       9.228  -0.732  22.169  1.00  0.00    -0.035 C 
BRANCH   5   6
HETATM    6  C   UNL     1       9.902  -1.635  22.723  1.00  0.00     0.072 C 
BRANCH   6   7
HETATM    7  C   UNL     1       9.132  -2.666  23.246  1.00  0.00    -0.035 C 
HETATM    8  C   UNL     1       8.381  -3.471  23.642  1.00  0.00     0.011 C 
BRANCH   8   9
HETATM    9  N   UNL     1       7.670  -4.398  23.979  1.00  0.00    -0.354 N 
HETATM   10  C   UNL     1       6.809  -5.221  23.201  1.00  0.00     0.157 C 
ATOM     11  HN  UNL     1       7.696  -4.621  24.974  1.00  0.00     0.169 HD
ENDBRANCH   8   9
ENDBRANCH   6   7
BRANCH   6  12
HETATM   12  C   UNL     1      11.374  -1.460  22.681  1.00  0.00     0.058 C 
HETATM   13  C   UNL     1      11.880  -0.901  23.764  1.00  0.00     0.190 C 
HETATM   14  F   UNL     1      11.049  -0.659  24.742  1.00  0.00    -0.219 F 
ENDBRANCH   6  12
ENDBRANCH   5   6
ENDBRANCH   1   5
BRANCH   3  15
HETATM   15  C   UNL     1       6.976   0.017  19.696  1.00  0.00     0.124 A 
HETATM   16  N   UNL     1       7.464   0.237  18.452  1.00  0.00    -0.286 N 
HETATM   17  N   UNL     1       6.661   0.838  17.743  1.00  0.00    -0.310 N 
ATOM     18  HN  UNL     1       8.388  -0.061  18.142  1.00  0.00     0.188 HD
HETATM   19  C   UNL     1       5.527   1.134  18.519  1.00  0.00     0.111 A 
ATOM     20  HN  UNL     1       6.794   1.080  16.761  1.00  0.00     0.186 HD
HETATM   21  C   UNL     1       5.648   0.560  19.744  1.00  0.00     0.068 A 
ENDBRANCH   3  15
TORSDOF 6
ENDMDL
MODEL 2
REMARK VINA RESULT:    -5.533      1.741      3.109
REMARK INTER + INTRA:          -8.211
REMARK INTER:                  -7.506
REMARK INTRA:                  -0.704
REMARK UNBOUND:                -0.737
REMARK  6 active torsions:
REMARK  status: ('A' for Active; 'I' for Inactive)
REMARK    1  A    between atoms: N_2  and  C_4 
REMARK    2  A    between atoms: C_5  and  C_6 
REMARK    3  A    between atoms: C_6  and  C_10 
REMARK    4  A    between atoms: C_6  and  C_9 
REMARK    5  A    between atoms: C_10  and  C_11 
REMARK       I    between atoms: C_11  and  N_13 
REMARK    6  A    between atoms: N_13  and  C_15 
ROOT
HETATM    1  C   UNL     1       8.188  -0.291  21.007  1.00  0.00     0.295 C 
HETATM    2  O   UNL     1       8.931   0.588  20.656  1.00  0.00    -0.258 OA
HETATM    3  N   UNL     1       6.904  -0.584  20.535  1.00  0.00    -0.301 N 
ATOM      4  HN  UNL     1       6.319  -1.299  20.966  1.00  0.00     0.171 HD
ENDROOT
BRANCH   1   5
HETATM    5  C   UNL     1       8.506  -1.174  21.952  1.00  0.00    -0.035 C 
BRANCH   5   6
HETATM    6  C   UNL     1       9.081  -2.055  22.637  1.00  0.00     0.072 C 
BRANCH   6   7
HETATM    7  C   UNL     1      10.443  -1.837  22.798  1.00  0.00    -0.035 C 
HETATM    8  C   UNL     1      11.560  -1.579  23.033  1.00  0.00     0.011 C 
BRANCH   8   9
HETATM    9  N   UNL     1      12.741  -1.444  23.289  1.00  0.00    -0.354 N 
HETATM   10  C   UNL     1      13.389  -0.528  24.163  1.00  0.00     0.157 C 
ATOM     11  HN  UNL     1      13.363  -2.088  22.800  1.00  0.00     0.169 HD
ENDBRANCH   8   9
ENDBRANCH   6   7
BRANCH   6  12
HETATM   12  C   UNL     1       8.209  -3.128  23.174  1.00  0.00     0.058 C 
HETATM   13  C   UNL     1       7.927  -3.000  24.457  1.00  0.00     0.190 C 
HETATM   14  F   UNL     1       8.372  -1.925  25.051  1.00  0.00    -0.219 F 
ENDBRANCH   6  12
ENDBRANCH   5   6
ENDBRANCH   1   5
BRANCH   3  15
HETATM   15  C   UNL     1       6.498   0.123  19.495  1.00  0.00     0.124 A 
HETATM   16  N   UNL     1       7.136   0.305  18.315  1.00  0.00    -0.286 N 
HETATM   17  N   UNL     1       6.490   1.014  17.548  1.00  0.00    -0.310 N 
ATOM     18  HN  UNL     1       8.044  -0.100  18.090  1.00  0.00     0.188 HD
HETATM   19  C   UNL     1       5.326   1.434  18.215  1.00  0.00     0.111 A 
ATOM     20  HN  UNL     1       6.753   1.257  16.593  1.00  0.00     0.186 HD
HETATM   21  C   UNL     1       5.248   0.826  19.427  1.00  0.00     0.068 A 
ENDBRANCH   3  15
TORSDOF 6
ENDMDL
MODEL 3
REMARK VINA RESULT:    -5.495      4.154      4.885
REMARK INTER + INTRA:          -8.160
REMARK INTER:                  -7.410
REMARK INTRA:                  -0.750
REMARK UNBOUND:                -0.737
REMARK  6 active torsions:
REMARK  status: ('A' for Active; 'I' for Inactive)
REMARK    1  A    between atoms: N_2  and  C_4 
REMARK    2  A    between atoms: C_5  and  C_6 
REMARK    3  A    between atoms: C_6  and  C_10 
REMARK    4  A    between atoms: C_6  and  C_9 
REMARK    5  A    between atoms: C_10  and  C_11 
REMARK       I    between atoms: C_11  and  N_13 
REMARK    6  A    between atoms: N_13  and  C_15 
ROOT
HETATM    1  C   UNL     1      10.742   1.606  22.753  1.00  0.00     0.295 C 
HETATM    2  O   UNL     1      10.494   1.931  21.620  1.00  0.00    -0.258 OA
HETATM    3  N   UNL     1      11.118   2.419  23.828  1.00  0.00    -0.301 N 
ATOM      4  HN  UNL     1      11.396   2.031  24.729  1.00  0.00     0.171 HD
ENDROOT
BRANCH   1   5
HETATM    5  C   UNL     1      10.680   0.345  23.174  1.00  0.00    -0.035 C 
BRANCH   5   6
HETATM    6  C   UNL     1      10.962  -0.796  23.616  1.00  0.00     0.072 C 
BRANCH   6   7
HETATM    7  C   UNL     1       9.973  -1.343  24.423  1.00  0.00    -0.035 C 
HETATM    8  C   UNL     1       9.157  -1.913  25.038  1.00  0.00     0.011 C 
BRANCH   8   9
HETATM    9  N   UNL     1       8.380  -2.472  25.788  1.00  0.00    -0.354 N 
HETATM   10  C   UNL     1       8.410  -3.792  26.318  1.00  0.00     0.157 C 
ATOM     11  HN  UNL     1       7.583  -1.907  26.082  1.00  0.00     0.169 HD
ENDBRANCH   8   9
ENDBRANCH   6   7
BRANCH   6  12
HETATM   12  C   UNL     1      12.260  -1.359  23.171  1.00  0.00     0.058 C 
HETATM   13  C   UNL     1      13.295  -0.950  23.879  1.00  0.00     0.190 C 
HETATM   14  F   UNL     1      13.038  -0.189  24.909  1.00  0.00    -0.219 F 
ENDBRANCH   6  12
ENDBRANCH   5   6
ENDBRANCH   1   5
BRANCH   3  15
HETATM   15  C   UNL     1      11.091   3.721  23.602  1.00  0.00     0.124 A 
HETATM   16  N   UNL     1      10.030   4.477  23.234  1.00  0.00    -0.286 N 
HETATM   17  N   UNL     1      10.331   5.661  23.109  1.00  0.00    -0.310 N 
ATOM     18  HN  UNL     1       9.092   4.108  23.080  1.00  0.00     0.188 HD
HETATM   19  C   UNL     1      11.711   5.790  23.343  1.00  0.00     0.111 A 
ATOM     20  HN  UNL     1       9.691   6.420  22.876  1.00  0.00     0.186 HD
HETATM   21  C   UNL     1      12.221   4.595  23.740  1.00  0.00     0.068 A 
ENDBRANCH   3  15
TORSDOF 6
ENDMDL
MODEL 4
REMARK VINA RESULT:    -5.271      2.641      6.463
REMARK INTER + INTRA:          -7.857
REMARK INTER:                  -7.225
REMARK INTRA:                  -0.632
REMARK UNBOUND:                -0.737
REMARK  6 active torsions:
REMARK  status: ('A' for Active; 'I' for Inactive)
REMARK    1  A    between atoms: N_2  and  C_4 
REMARK    2  A    between atoms: C_5  and  C_6 
REMARK    3  A    between atoms: C_6  and  C_10 
REMARK    4  A    between atoms: C_6  and  C_9 
REMARK    5  A    between atoms: C_10  and  C_11 
REMARK       I    between atoms: C_11  and  N_13 
REMARK    6  A    between atoms: N_13  and  C_15 
ROOT
HETATM    1  C   UNL     1       8.528  -3.445  24.186  1.00  0.00     0.295 C 
HETATM    2  O   UNL     1       7.898  -4.294  23.611  1.00  0.00    -0.258 OA
HETATM    3  N   UNL     1       8.672  -3.253  25.565  1.00  0.00    -0.301 N 
ATOM      4  HN  UNL     1       9.156  -2.444  25.951  1.00  0.00     0.171 HD
ENDROOT
BRANCH   1   5
HETATM    5  C   UNL     1       9.231  -2.510  23.551  1.00  0.00    -0.035 C 
BRANCH   5   6
HETATM    6  C   UNL     1       9.694  -1.417  23.141  1.00  0.00     0.072 C 
BRANCH   6   7
HETATM    7  C   UNL     1       9.111  -0.971  21.962  1.00  0.00    -0.035 C 
HETATM    8  C   UNL     1       8.547  -0.520  21.042  1.00  0.00     0.011 C 
BRANCH   8   9
HETATM    9  N   UNL     1       8.082  -0.013  20.039  1.00  0.00    -0.354 N 
HETATM   10  C   UNL     1       6.737   0.327  19.725  1.00  0.00     0.157 C 
ATOM     11  HN  UNL     1       8.762   0.201  19.310  1.00  0.00     0.169 HD
ENDBRANCH   8   9
ENDBRANCH   6   7
BRANCH   6  12
HETATM   12  C   UNL     1      10.732  -0.793  23.997  1.00  0.00     0.058 C 
HETATM   13  C   UNL     1      11.969  -1.065  23.627  1.00  0.00     0.190 C 
HETATM   14  F   UNL     1      12.115  -1.761  22.531  1.00  0.00    -0.219 F 
ENDBRANCH   6  12
ENDBRANCH   5   6
ENDBRANCH   1   5
BRANCH   3  15
HETATM   15  C   UNL     1       8.141  -4.188  26.334  1.00  0.00     0.124 A 
HETATM   16  N   UNL     1       8.668  -5.392  26.660  1.00  0.00    -0.286 N 
HETATM   17  N   UNL     1       7.927  -6.031  27.403  1.00  0.00    -0.310 N 
ATOM     18  HN  UNL     1       9.572  -5.727  26.330  1.00  0.00     0.188 HD
HETATM   19  C   UNL     1       6.751  -5.285  27.598  1.00  0.00     0.111 A 
ATOM     20  HN  UNL     1       8.129  -6.946  27.807  1.00  0.00     0.186 HD
HETATM   21  C   UNL     1       6.877  -4.070  27.004  1.00  0.00     0.068 A 
ENDBRANCH   3  15
TORSDOF 6
ENDMDL
MODEL 5
REMARK VINA RESULT:    -5.253     19.236     21.076
REMARK INTER + INTRA:          -7.833
REMARK INTER:                  -7.217
REMARK INTRA:                  -0.615
REMARK UNBOUND:                -0.737
REMARK  6 active torsions:
REMARK  status: ('A' for Active; 'I' for Inactive)
REMARK    1  A    between atoms: N_2  and  C_4 
REMARK    2  A    between atoms: C_5  and  C_6 
REMARK    3  A    between atoms: C_6  and  C_10 
REMARK    4  A    between atoms: C_6  and  C_9 
REMARK    5  A    between atoms: C_10  and  C_11 
REMARK       I    between atoms: C_11  and  N_13 
REMARK    6  A    between atoms: N_13  and  C_15 
ROOT
HETATM    1  C   UNL     1      -0.540 -16.606  13.450  1.00  0.00     0.295 C 
HETATM    2  O   UNL     1       0.602 -16.691  13.821  1.00  0.00    -0.258 OA
HETATM    3  N   UNL     1      -1.706 -16.595  14.224  1.00  0.00    -0.301 N 
ATOM      4  HN  UNL     1      -2.635 -16.612  13.803  1.00  0.00     0.171 HD
ENDROOT
BRANCH   1   5
HETATM    5  C   UNL     1      -0.879 -16.494  12.168  1.00  0.00    -0.035 C 
BRANCH   5   6
HETATM    6  C   UNL     1      -1.252 -16.730  10.992  1.00  0.00     0.072 C 
BRANCH   6   7
HETATM    7  C   UNL     1      -0.203 -16.946  10.107  1.00  0.00    -0.035 C 
HETATM    8  C   UNL     1       0.721 -17.010   9.392  1.00  0.00     0.011 C 
BRANCH   8   9
HETATM    9  N   UNL     1       1.717 -17.189   8.718  1.00  0.00    -0.354 N 
HETATM   10  C   UNL     1       2.300 -18.399   8.250  1.00  0.00     0.157 C 
ATOM     11  HN  UNL     1       2.211 -16.339   8.447  1.00  0.00     0.169 HD
ENDBRANCH   8   9
ENDBRANCH   6   7
BRANCH   6  12
HETATM   12  C   UNL     1      -2.718 -16.774  10.775  1.00  0.00     0.058 C 
HETATM   13  C   UNL     1      -3.222 -15.661  10.277  1.00  0.00     0.190 C 
HETATM   14  F   UNL     1      -2.372 -14.719   9.966  1.00  0.00    -0.219 F 
ENDBRANCH   6  12
ENDBRANCH   5   6
ENDBRANCH   1   5
BRANCH   3  15
HETATM   15  C   UNL     1      -1.528 -16.562  15.533  1.00  0.00     0.124 A 
HETATM   16  N   UNL     1      -0.566 -17.182  16.256  1.00  0.00    -0.286 N 
HETATM   17  N   UNL     1      -0.670 -16.946  17.457  1.00  0.00    -0.310 N 
ATOM     18  HN  UNL     1       0.158 -17.775  15.851  1.00  0.00     0.188 HD
HETATM   19  C   UNL     1      -1.810 -16.147  17.650  1.00  0.00     0.111 A 
ATOM     20  HN  UNL     1      -0.038 -17.273  18.188  1.00  0.00     0.186 HD
HETATM   21  C   UNL     1      -2.341 -15.809  16.445  1.00  0.00     0.068 A 
ENDBRANCH   3  15
TORSDOF 6
ENDMDL
MODEL 6
REMARK VINA RESULT:    -5.247      3.903      6.724
REMARK INTER + INTRA:          -7.824
REMARK INTER:                  -7.039
REMARK INTRA:                  -0.785
REMARK UNBOUND:                -0.737
REMARK  6 active torsions:
REMARK  status: ('A' for Active; 'I' for Inactive)
REMARK    1  A    between atoms: N_2  and  C_4 
REMARK    2  A    between atoms: C_5  and  C_6 
REMARK    3  A    between atoms: C_6  and  C_10 
REMARK    4  A    between atoms: C_6  and  C_9 
REMARK    5  A    between atoms: C_10  and  C_11 
REMARK       I    between atoms: C_11  and  N_13 
REMARK    6  A    between atoms: N_13  and  C_15 
ROOT
HETATM    1  C   UNL     1       7.964  -3.931  23.826  1.00  0.00     0.295 C 
HETATM    2  O   UNL     1       7.532  -4.991  23.453  1.00  0.00    -0.258 OA
HETATM    3  N   UNL     1       8.103  -3.461  25.136  1.00  0.00    -0.301 N 
ATOM      4  HN  UNL     1       8.396  -2.506  25.341  1.00  0.00     0.171 HD
ENDROOT
BRANCH   1   5
HETATM    5  C   UNL     1       8.408  -2.996  22.989  1.00  0.00    -0.035 C 
BRANCH   5   6
HETATM    6  C   UNL     1       8.879  -1.941  22.496  1.00  0.00     0.072 C 
BRANCH   6   7
HETATM    7  C   UNL     1      10.240  -1.778  22.723  1.00  0.00    -0.035 C 
HETATM    8  C   UNL     1      11.354  -1.550  22.997  1.00  0.00     0.011 C 
BRANCH   8   9
HETATM    9  N   UNL     1      12.522  -1.443  23.317  1.00  0.00    -0.354 N 
HETATM   10  C   UNL     1      13.153  -0.500  24.176  1.00  0.00     0.157 C 
ATOM     11  HN  UNL     1      13.146  -2.137  22.906  1.00  0.00     0.169 HD
ENDBRANCH   8   9
ENDBRANCH   6   7
BRANCH   6  12
HETATM   12  C   UNL     1       7.923  -1.098  21.739  1.00  0.00     0.058 C 
HETATM   13  C   UNL     1       7.381  -0.128  22.451  1.00  0.00     0.190 C 
HETATM   14  F   UNL     1       7.813   0.013  23.676  1.00  0.00    -0.219 F 
ENDBRANCH   6  12
ENDBRANCH   5   6
ENDBRANCH   1   5
BRANCH   3  15
HETATM   15  C   UNL     1       7.830  -4.333  26.091  1.00  0.00     0.124 A 
HETATM   16  N   UNL     1       8.529  -5.443  26.426  1.00  0.00    -0.286 N 
HETATM   17  N   UNL     1       8.016  -6.042  27.368  1.00  0.00    -0.310 N 
ATOM     18  HN  UNL     1       9.380  -5.745  25.953  1.00  0.00     0.188 HD
HETATM   19  C   UNL     1       6.833  -5.371  27.722  1.00  0.00     0.111 A 
ATOM     20  HN  UNL     1       8.385  -6.881  27.815  1.00  0.00     0.186 HD
HETATM   21  C   UNL     1       6.717  -4.232  26.992  1.00  0.00     0.068 A 
ENDBRANCH   3  15
TORSDOF 6
ENDMDL
MODEL 7
REMARK VINA RESULT:    -5.112      4.351      5.794
REMARK INTER + INTRA:          -7.642
REMARK INTER:                  -6.885
REMARK INTRA:                  -0.757
REMARK UNBOUND:                -0.737
REMARK  6 active torsions:
REMARK  status: ('A' for Active; 'I' for Inactive)
REMARK    1  A    between atoms: N_2  and  C_4 
REMARK    2  A    between atoms: C_5  and  C_6 
REMARK    3  A    between atoms: C_6  and  C_10 
REMARK    4  A    between atoms: C_6  and  C_9 
REMARK    5  A    between atoms: C_10  and  C_11 
REMARK       I    between atoms: C_11  and  N_13 
REMARK    6  A    between atoms: N_13  and  C_15 
ROOT
HETATM    1  C   UNL     1      11.061   1.970  23.190  1.00  0.00     0.295 C 
HETATM    2  O   UNL     1      11.851   1.693  24.056  1.00  0.00    -0.258 OA
HETATM    3  N   UNL     1      10.580   3.232  22.824  1.00  0.00    -0.301 N 
ATOM      4  HN  UNL     1       9.839   3.349  22.134  1.00  0.00     0.171 HD
ENDROOT
BRANCH   1   5
HETATM    5  C   UNL     1      10.504   1.056  22.399  1.00  0.00    -0.035 C 
BRANCH   5   6
HETATM    6  C   UNL     1      10.109  -0.022  21.890  1.00  0.00     0.072 C 
BRANCH   6   7
HETATM    7  C   UNL     1       9.028   0.129  21.030  1.00  0.00    -0.035 C 
HETATM    8  C   UNL     1       8.052   0.184  20.388  1.00  0.00     0.011 C 
BRANCH   8   9
HETATM    9  N   UNL     1       7.047   0.376  19.732  1.00  0.00    -0.354 N 
HETATM   10  C   UNL     1       5.982  -0.511  19.408  1.00  0.00     0.157 C 
ATOM     11  HN  UNL     1       6.952   1.319  19.355  1.00  0.00     0.169 HD
ENDBRANCH   8   9
ENDBRANCH   6   7
BRANCH   6  12
HETATM   12  C   UNL     1      10.880  -1.233  22.262  1.00  0.00     0.058 C 
HETATM   13  C   UNL     1      10.327  -1.949  23.221  1.00  0.00     0.190 C 
HETATM   14  F   UNL     1       9.158  -1.555  23.649  1.00  0.00    -0.219 F 
ENDBRANCH   6  12
ENDBRANCH   5   6
ENDBRANCH   1   5
BRANCH   3  15
HETATM   15  C   UNL     1      11.145   4.261  23.430  1.00  0.00     0.124 A 
HETATM   16  N   UNL     1      12.464   4.558  23.506  1.00  0.00    -0.286 N 
HETATM   17  N   UNL     1      12.667   5.591  24.138  1.00  0.00    -0.310 N 
ATOM     18  HN  UNL     1      13.201   3.990  23.089  1.00  0.00     0.188 HD
HETATM   19  C   UNL     1      11.431   6.067  24.610  1.00  0.00     0.111 A 
ATOM     20  HN  UNL     1      13.575   6.029  24.293  1.00  0.00     0.186 HD
HETATM   21  C   UNL     1      10.426   5.298  24.115  1.00  0.00     0.068 A 
ENDBRANCH   3  15
TORSDOF 6
ENDMDL
MODEL 8
REMARK VINA RESULT:    -5.094     21.271     23.228
REMARK INTER + INTRA:          -7.618
REMARK INTER:                  -6.852
REMARK INTRA:                  -0.766
REMARK UNBOUND:                -0.737
REMARK  6 active torsions:
REMARK  status: ('A' for Active; 'I' for Inactive)
REMARK    1  A    between atoms: N_2  and  C_4 
REMARK    2  A    between atoms: C_5  and  C_6 
REMARK    3  A    between atoms: C_6  and  C_10 
REMARK    4  A    between atoms: C_6  and  C_9 
REMARK    5  A    between atoms: C_10  and  C_11 
REMARK       I    between atoms: C_11  and  N_13 
REMARK    6  A    between atoms: N_13  and  C_15 
ROOT
HETATM    1  C   UNL     1       0.418 -18.757   8.264  1.00  0.00     0.295 C 
HETATM    2  O   UNL     1       0.586 -18.608   7.082  1.00  0.00    -0.258 OA
HETATM    3  N   UNL     1       1.075 -19.638   9.131  1.00  0.00    -0.301 N 
ATOM      4  HN  UNL     1       0.792 -19.751  10.104  1.00  0.00     0.171 HD
ENDROOT
BRANCH   1   5
HETATM    5  C   UNL     1      -0.468 -18.052   8.965  1.00  0.00    -0.035 C 
BRANCH   5   6
HETATM    6  C   UNL     1      -1.199 -17.135   9.413  1.00  0.00     0.072 C 
BRANCH   6   7
HETATM    7  C   UNL     1      -0.974 -16.844  10.752  1.00  0.00    -0.035 C 
HETATM    8  C   UNL     1      -0.670 -16.558  11.845  1.00  0.00     0.011 C 
BRANCH   8   9
HETATM    9  N   UNL     1      -0.464 -16.181  12.982  1.00  0.00    -0.354 N 
HETATM   10  C   UNL     1      -1.057 -16.599  14.206  1.00  0.00     0.157 C 
ATOM     11  HN  UNL     1       0.243 -15.451  13.073  1.00  0.00     0.169 HD
ENDBRANCH   8   9
ENDBRANCH   6   7
BRANCH   6  12
HETATM   12  C   UNL     1      -2.124 -16.511   8.436  1.00  0.00     0.058 C 
HETATM   13  C   UNL     1      -1.627 -15.454   7.823  1.00  0.00     0.190 C 
HETATM   14  F   UNL     1      -0.384 -15.153   8.087  1.00  0.00    -0.219 F 
ENDBRANCH   6  12
ENDBRANCH   5   6
ENDBRANCH   1   5
BRANCH   3  15
HETATM   15  C   UNL     1       2.083 -20.314   8.609  1.00  0.00     0.124 A 
HETATM   16  N   UNL     1       3.194 -19.819   8.013  1.00  0.00    -0.286 N 
HETATM   17  N   UNL     1       3.949 -20.712   7.636  1.00  0.00    -0.310 N 
ATOM     18  HN  UNL     1       3.381 -18.824   7.892  1.00  0.00     0.188 HD
HETATM   19  C   UNL     1       3.341 -21.948   7.916  1.00  0.00     0.111 A 
ATOM     20  HN  UNL     1       4.859 -20.579   7.195  1.00  0.00     0.186 HD
HETATM   21  C   UNL     1       2.190 -21.745   8.609  1.00  0.00     0.068 A 
ENDBRANCH   3  15
TORSDOF 6
ENDMDL
MODEL 9
REMARK VINA RESULT:    -5.055      3.170      4.795
REMARK INTER + INTRA:          -7.565
REMARK INTER:                  -6.825
REMARK INTRA:                  -0.740
REMARK UNBOUND:                -0.737
REMARK  6 active torsions:
REMARK  status: ('A' for Active; 'I' for Inactive)
REMARK    1  A    between atoms: N_2  and  C_4 
REMARK    2  A    between atoms: C_5  and  C_6 
REMARK    3  A    between atoms: C_6  and  C_10 
REMARK    4  A    between atoms: C_6  and  C_9 
REMARK    5  A    between atoms: C_10  and  C_11 
REMARK       I    between atoms: C_11  and  N_13 
REMARK    6  A    between atoms: N_13  and  C_15 
ROOT
HETATM    1  C   UNL     1       8.375   0.216  22.193  1.00  0.00     0.295 C 
HETATM    2  O   UNL     1       8.016  -0.889  22.511  1.00  0.00    -0.258 OA
HETATM    3  N   UNL     1       8.031   0.946  21.051  1.00  0.00    -0.301 N 
ATOM      4  HN  UNL     1       8.464   1.842  20.830  1.00  0.00     0.171 HD
ENDROOT
BRANCH   1   5
HETATM    5  C   UNL     1       9.197   0.952  22.938  1.00  0.00    -0.035 C 
BRANCH   5   6
HETATM    6  C   UNL     1      10.078   1.335  23.747  1.00  0.00     0.072 C 
BRANCH   6   7
HETATM    7  C   UNL     1      10.523   2.630  23.516  1.00  0.00    -0.035 C 
HETATM    8  C   UNL     1      10.866   3.746  23.444  1.00  0.00     0.011 C 
BRANCH   8   9
HETATM    9  N   UNL     1      11.344   4.858  23.332  1.00  0.00    -0.354 N 
HETATM   10  C   UNL     1      12.690   5.256  23.099  1.00  0.00     0.157 C 
ATOM     11  HN  UNL     1      10.677   5.625  23.421  1.00  0.00     0.169 HD
ENDBRANCH   8   9
ENDBRANCH   6   7
BRANCH   6  12
HETATM   12  C   UNL     1      10.446   0.365  24.807  1.00  0.00     0.058 C 
HETATM   13  C   UNL     1      11.469  -0.408  24.497  1.00  0.00     0.190 C 
HETATM   14  F   UNL     1      12.064  -0.167  23.359  1.00  0.00    -0.219 F 
ENDBRANCH   6  12
ENDBRANCH   5   6
ENDBRANCH   1   5
BRANCH   3  15
HETATM   15  C   UNL     1       7.109   0.402  20.276  1.00  0.00     0.124 A 
HETATM   16  N   UNL     1       5.932  -0.153  20.651  1.00  0.00    -0.286 N 
HETATM   17  N   UNL     1       5.292  -0.568  19.687  1.00  0.00    -0.310 N 
ATOM     18  HN  UNL     1       5.615  -0.219  21.617  1.00  0.00     0.188 HD
HETATM   19  C   UNL     1       6.061  -0.361  18.529  1.00  0.00     0.111 A 
ATOM     20  HN  UNL     1       4.364  -0.989  19.722  1.00  0.00     0.186 HD
HETATM   21  C   UNL     1       7.189   0.327  18.845  1.00  0.00     0.068 A 
ENDBRANCH   3  15
TORSDOF 6
ENDMDL
