REMARK  6 active torsions:
REMARK  status: ('A' for Active; 'I' for Inactive)
REMARK    1  A    between atoms: N_2  and  C_4 
REMARK    2  A    between atoms: C_5  and  C_6 
REMARK    3  A    between atoms: C_6  and  C_10 
REMARK    4  A    between atoms: C_6  and  C_9 
REMARK    5  A    between atoms: C_10  and  C_11 
REMARK       I    between atoms: C_11  and  N_13 
REMARK    6  A    between atoms: N_13  and  C_15 
ROOT
HETATM    1  C   UNL     1       9.144   0.128  21.335  1.00  0.00     0.295 C 
HETATM    2  O   UNL     1       9.636   0.987  20.650  1.00  0.00    -0.258 OA
HETATM    3  N   UNL     1       7.861  -0.423  21.250  1.00  0.00    -0.301 N 
ATOM      4  HN  UNL     1       7.509  -1.085  21.941  1.00  0.00     0.171 HD
ENDROOT
BRANCH   1   5
HETATM    5  C   UNL     1       9.797  -0.466  22.332  1.00  0.00    -0.035 C 
BRANCH   5   6
HETATM    6  C   UNL     1      10.384  -1.301  23.063  1.00  0.00     0.072 C 
BRANCH   6   7
HETATM    7  C   UNL     1       9.533  -2.238  23.635  1.00  0.00    -0.035 C 
HETATM    8  C   UNL     1       8.852  -2.980  24.230  1.00  0.00     0.011 C 
BRANCH   8   9
HETATM    9  N   UNL     1       8.040  -3.701  24.777  1.00  0.00    -0.354 N 
HETATM   10  C   UNL     1       8.113  -4.379  26.026  1.00  0.00     0.157 C 
ATOM     11  HN  UNL     1       7.172  -3.842  24.260  1.00  0.00     0.169 HD
ENDBRANCH   8   9
ENDBRANCH   6   7
BRANCH   6  12
HETATM   12  C   UNL     1      11.858  -1.162  23.148  1.00  0.00     0.058 C 
HETATM   13  C   UNL     1      12.264  -0.263  24.024  1.00  0.00     0.190 C 
HETATM   14  F   UNL     1      11.340   0.312  24.746  1.00  0.00    -0.219 F 
ENDBRANCH   6  12
ENDBRANCH   5   6
ENDBRANCH   1   5
BRANCH   3  15
HETATM   15  C   UNL     1       7.134  -0.032  20.218  1.00  0.00     0.124 A 
HETATM   16  N   UNL     1       7.444  -0.121  18.903  1.00  0.00    -0.286 N 
HETATM   17  N   UNL     1       6.551   0.328  18.189  1.00  0.00    -0.310 N 
ATOM     18  HN  UNL     1       8.315  -0.514  18.548  1.00  0.00     0.188 HD
HETATM   19  C   UNL     1       5.537   0.834  19.021  1.00  0.00     0.111 A 
ATOM     20  HN  UNL     1       6.546   0.333  17.169  1.00  0.00     0.186 HD
HETATM   21  C   UNL     1       5.827   0.553  20.318  1.00  0.00     0.068 A 
ENDBRANCH   3  15
TORSDOF 6
