REMARK  8 active torsions:
REMARK  status: ('A' for Active; 'I' for Inactive)
REMARK    1  A    between atoms: S_2  and  N_5 
REMARK    2  A    between atoms: N_5  and  C_7 
REMARK    3  A    between atoms: C_9  and  C_10 
REMARK    4  A    between atoms: C_10  and  C_11 
REMARK    5  A    between atoms: C_11  and  C_12 
REMARK    6  A    between atoms: C_12  and  C_13 
REMARK    7  A    between atoms: C_15  and  C_16 
REMARK       I    between atoms: C_16  and  N_18 
REMARK    8  A    between atoms: N_18  and  C_20 
ROOT
HETATM    1  C   UNL     1       8.982  -2.919  24.145  1.00  0.00     0.108 C 
HETATM    2  C   UNL     1       9.416  -1.919  23.491  1.00  0.00    -0.017 A 
HETATM    3  C   UNL     1      10.330  -1.019  23.348  1.00  0.00     0.082 A 
HETATM    4  C   UNL     1       9.722  -0.579  22.366  1.00  0.00     0.031 A 
ENDROOT
BRANCH   4   5
HETATM    5  C   UNL     1       9.067   0.036  21.376  1.00  0.00     0.253 C 
HETATM    6  O   UNL     1       9.531   0.991  20.948  1.00  0.00    -0.268 OA
HETATM    7  N   UNL     1       7.930  -0.578  21.063  1.00  0.00    -0.321 N 
ATOM      8  HN  UNL     1       7.643  -1.417  21.567  1.00  0.00     0.169 HD
BRANCH   7   9
HETATM    9  C   UNL     1       7.219  -0.120  20.149  1.00  0.00     0.056 A 
HETATM   10  C   UNL     1       7.240  -0.037  18.857  1.00  0.00     0.117 A 
HETATM   11  N   UNL     1       6.726   0.279  17.772  1.00  0.00    -0.373 N 
HETATM   12  C   UNL     1       5.637   0.887  18.223  1.00  0.00     0.088 A 
ATOM     13  HN  UNL     1       7.046   0.119  16.817  1.00  0.00     0.164 HD
HETATM   14  C   UNL     1       5.225   0.990  19.442  1.00  0.00     0.026 A 
HETATM   15  C   UNL     1       5.788   0.578  20.550  1.00  0.00    -0.033 A 
HETATM   16  C   UNL     1       5.341   0.648  21.979  1.00  0.00     0.050 C 
ENDBRANCH   7   9
ENDBRANCH   4   5
BRANCH   3  17
HETATM   17  C   UNL     1      11.040  -0.013  24.282  1.00  0.00    -0.016 C 
BRANCH  17  18
HETATM   18  C   UNL     1      12.120   0.302  24.276  1.00  0.00    -0.026 C 
BRANCH  18  19
HETATM   19  C   UNL     1      13.213  -0.178  23.456  1.00  0.00     0.053 C 
BRANCH  19  20
HETATM   20  C   UNL     1      12.698  -1.319  22.623  1.00  0.00    -0.033 C 
HETATM   21  C   UNL     1      11.820  -1.750  22.476  1.00  0.00     0.007 C 
ENDBRANCH  19  20
ENDBRANCH  18  19
ENDBRANCH  17  18
ENDBRANCH   3  17
BRANCH   1  22
HETATM   22  N   UNL     1       8.119  -3.537  24.671  1.00  0.00    -0.295 N 
ATOM     23  HN  UNL     1       7.234  -3.602  24.169  1.00  0.00     0.177 HD
BRANCH  22  24
HETATM   24  S   UNL     1       8.197  -4.297  26.118  1.00  0.00     0.226 S 
HETATM   25  C   UNL     1       6.572  -4.856  26.459  1.00  0.00     0.186 C 
HETATM   26  O   UNL     1       9.035  -5.466  26.045  1.00  0.00    -0.206 OA
HETATM   27  O   UNL     1       8.615  -3.416  27.183  1.00  0.00    -0.206 OA
ENDBRANCH  22  24
ENDBRANCH   1  22
TORSDOF 8
