MODEL 1
REMARK VINA RESULT:    -6.590      0.000      0.000
REMARK INTER + INTRA:         -10.721
REMARK INTER:                  -9.672
REMARK INTRA:                  -1.049
REMARK UNBOUND:                -1.049
REMARK  8 active torsions:
REMARK  status: ('A' for Active; 'I' for Inactive)
REMARK    1  A    between atoms: S_2  and  N_5 
REMARK    2  A    between atoms: N_5  and  C_7 
REMARK    3  A    between atoms: C_9  and  C_10 
REMARK    4  A    between atoms: C_10  and  C_11 
REMARK    5  A    between atoms: C_11  and  C_12 
REMARK    6  A    between atoms: C_12  and  C_13 
REMARK    7  A    between atoms: C_15  and  C_16 
REMARK       I    between atoms: C_16  and  N_18 
REMARK    8  A    between atoms: N_18  and  C_20 
ROOT
HETATM    1  C   UNL     1       6.060  -1.579  20.764  1.00  0.00     0.108 C 
HETATM    2  C   UNL     1       6.704  -2.282  21.606  1.00  0.00    -0.017 A 
HETATM    3  C   UNL     1       6.771  -3.368  22.299  1.00  0.00     0.082 A 
HETATM    4  C   UNL     1       7.850  -2.985  22.766  1.00  0.00     0.031 A 
ENDROOT
BRANCH   4   5
HETATM    5  C   UNL     1       8.952  -2.593  23.413  1.00  0.00     0.253 C 
HETATM    6  O   UNL     1       9.085  -2.945  24.494  1.00  0.00    -0.268 OA
HETATM    7  N   UNL     1       9.724  -1.808  22.667  1.00  0.00    -0.321 N 
ATOM      8  HN  UNL     1       9.444  -1.564  21.717  1.00  0.00     0.169 HD
BRANCH   7   9
HETATM    9  C   UNL     1      10.792  -1.374  23.139  1.00  0.00     0.056 A 
HETATM   10  C   UNL     1      12.055  -1.658  23.094  1.00  0.00     0.117 A 
HETATM   11  N   UNL     1      13.240  -1.424  23.380  1.00  0.00    -0.373 N 
HETATM   12  C   UNL     1      13.062  -0.386  24.186  1.00  0.00     0.088 A 
ATOM     13  HN  UNL     1      14.096  -1.891  23.083  1.00  0.00     0.164 HD
HETATM   14  C   UNL     1      11.963   0.231  24.466  1.00  0.00     0.026 A 
HETATM   15  C   UNL     1      10.739  -0.030  24.081  1.00  0.00    -0.033 A 
HETATM   16  C   UNL     1       9.440   0.666  24.354  1.00  0.00     0.050 C 
ENDBRANCH   7   9
ENDBRANCH   4   5
BRANCH   3  17
HETATM   17  C   UNL     1       5.807  -4.146  23.223  1.00  0.00    -0.016 C 
BRANCH  17  18
HETATM   18  C   UNL     1       5.191  -3.752  24.078  1.00  0.00    -0.026 C 
BRANCH  18  19
HETATM   19  C   UNL     1       5.072  -4.251  25.432  1.00  0.00     0.053 C 
BRANCH  19  20
HETATM   20  C   UNL     1       6.424  -4.752  25.859  1.00  0.00    -0.033 C 
HETATM   21  C   UNL     1       6.767  -5.543  26.345  1.00  0.00     0.007 C 
ENDBRANCH  19  20
ENDBRANCH  18  19
ENDBRANCH  17  18
ENDBRANCH   3  17
BRANCH   1  22
HETATM   22  N   UNL     1       5.623  -0.552  20.368  1.00  0.00    -0.295 N 
ATOM     23  HN  UNL     1       4.938  -0.089  20.963  1.00  0.00     0.177 HD
BRANCH  22  24
HETATM   24  S   UNL     1       6.002   0.201  18.965  1.00  0.00     0.226 S 
HETATM   25  C   UNL     1       4.992   1.630  18.895  1.00  0.00     0.186 C 
HETATM   26  O   UNL     1       7.369   0.654  18.973  1.00  0.00    -0.206 OA
HETATM   27  O   UNL     1       5.726  -0.616  17.807  1.00  0.00    -0.206 OA
ENDBRANCH  22  24
ENDBRANCH   1  22
TORSDOF 8
ENDMDL
MODEL 2
REMARK VINA RESULT:    -6.534      4.143      6.206
REMARK INTER + INTRA:         -10.638
REMARK INTER:                  -9.618
REMARK INTRA:                  -1.021
REMARK UNBOUND:                -1.049
REMARK  8 active torsions:
REMARK  status: ('A' for Active; 'I' for Inactive)
REMARK    1  A    between atoms: S_2  and  N_5 
REMARK    2  A    between atoms: N_5  and  C_7 
REMARK    3  A    between atoms: C_9  and  C_10 
REMARK    4  A    between atoms: C_10  and  C_11 
REMARK    5  A    between atoms: C_11  and  C_12 
REMARK    6  A    between atoms: C_12  and  C_13 
REMARK    7  A    between atoms: C_15  and  C_16 
REMARK       I    between atoms: C_16  and  N_18 
REMARK    8  A    between atoms: N_18  and  C_20 
ROOT
HETATM    1  C   UNL     1       7.217  -5.430  26.826  1.00  0.00     0.108 C 
HETATM    2  C   UNL     1       7.525  -4.609  25.907  1.00  0.00    -0.017 A 
HETATM    3  C   UNL     1       7.481  -4.302  24.654  1.00  0.00     0.082 A 
HETATM    4  C   UNL     1       8.107  -3.265  24.901  1.00  0.00     0.031 A 
ENDROOT
BRANCH   4   5
HETATM    5  C   UNL     1       8.887  -2.191  25.059  1.00  0.00     0.253 C 
HETATM    6  O   UNL     1       8.911  -1.703  26.094  1.00  0.00    -0.268 OA
HETATM    7  N   UNL     1       9.506  -1.845  23.935  1.00  0.00    -0.321 N 
ATOM      8  HN  UNL     1       9.353  -2.377  23.078  1.00  0.00     0.169 HD
BRANCH   7   9
HETATM    9  C   UNL     1      10.275  -0.865  23.936  1.00  0.00     0.056 A 
HETATM   10  C   UNL     1      11.494  -0.593  24.280  1.00  0.00     0.117 A 
HETATM   11  N   UNL     1      12.461   0.181  24.360  1.00  0.00    -0.373 N 
HETATM   12  C   UNL     1      11.885   1.287  23.909  1.00  0.00     0.088 A 
ATOM     13  HN  UNL     1      13.416   0.015  24.678  1.00  0.00     0.164 HD
HETATM   14  C   UNL     1      10.695   1.432  23.432  1.00  0.00     0.026 A 
HETATM   15  C   UNL     1       9.730   0.554  23.316  1.00  0.00    -0.033 A 
HETATM   16  C   UNL     1       8.348   0.664  22.748  1.00  0.00     0.050 C 
ENDBRANCH   7   9
ENDBRANCH   4   5
BRANCH   3  17
HETATM   17  C   UNL     1       7.778  -5.040  23.329  1.00  0.00    -0.016 C 
BRANCH  17  18
HETATM   18  C   UNL     1       7.106  -5.732  22.750  1.00  0.00    -0.026 C 
BRANCH  18  19
HETATM   19  C   UNL     1       5.917  -5.429  21.981  1.00  0.00     0.053 C 
BRANCH  19  20
HETATM   20  C   UNL     1       4.731  -5.557  22.895  1.00  0.00    -0.033 C 
HETATM   21  C   UNL     1       4.002  -4.961  23.198  1.00  0.00     0.007 C 
ENDBRANCH  19  20
ENDBRANCH  18  19
ENDBRANCH  17  18
ENDBRANCH   3  17
BRANCH   1  22
HETATM   22  N   UNL     1       7.464  -6.065  27.796  1.00  0.00    -0.295 N 
ATOM     23  HN  UNL     1       8.419  -6.411  27.883  1.00  0.00     0.177 HD
BRANCH  22  24
HETATM   24  S   UNL     1       6.434  -6.445  29.009  1.00  0.00     0.226 S 
HETATM   25  C   UNL     1       4.871  -6.692  28.258  1.00  0.00     0.186 C 
HETATM   26  O   UNL     1       6.802  -7.692  29.630  1.00  0.00    -0.206 OA
HETATM   27  O   UNL     1       6.315  -5.387  29.985  1.00  0.00    -0.206 OA
ENDBRANCH  22  24
ENDBRANCH   1  22
TORSDOF 8
ENDMDL
MODEL 3
REMARK VINA RESULT:    -6.497     13.968     16.888
REMARK INTER + INTRA:         -10.584
REMARK INTER:                  -9.276
REMARK INTRA:                  -1.308
REMARK UNBOUND:                -1.049
REMARK  8 active torsions:
REMARK  status: ('A' for Active; 'I' for Inactive)
REMARK    1  A    between atoms: S_2  and  N_5 
REMARK    2  A    between atoms: N_5  and  C_7 
REMARK    3  A    between atoms: C_9  and  C_10 
REMARK    4  A    between atoms: C_10  and  C_11 
REMARK    5  A    between atoms: C_11  and  C_12 
REMARK    6  A    between atoms: C_12  and  C_13 
REMARK    7  A    between atoms: C_15  and  C_16 
REMARK       I    between atoms: C_16  and  N_18 
REMARK    8  A    between atoms: N_18  and  C_20 
ROOT
HETATM    1  C   UNL     1      24.162  -4.444  24.098  1.00  0.00     0.108 C 
HETATM    2  C   UNL     1      24.133  -3.339  23.472  1.00  0.00    -0.017 A 
HETATM    3  C   UNL     1      24.375  -2.071  23.479  1.00  0.00     0.082 A 
HETATM    4  C   UNL     1      23.956  -1.999  22.318  1.00  0.00     0.031 A 
ENDROOT
BRANCH   4   5
HETATM    5  C   UNL     1      23.405  -1.811  21.115  1.00  0.00     0.253 C 
HETATM    6  O   UNL     1      22.266  -1.889  21.037  1.00  0.00    -0.268 OA
HETATM    7  N   UNL     1      24.314  -1.582  20.172  1.00  0.00    -0.321 N 
ATOM      8  HN  UNL     1      25.307  -1.573  20.406  1.00  0.00     0.169 HD
BRANCH   7   9
HETATM    9  C   UNL     1      23.943  -1.380  19.001  1.00  0.00     0.056 A 
HETATM   10  C   UNL     1      23.515  -0.393  18.279  1.00  0.00     0.117 A 
HETATM   11  N   UNL     1      23.146   0.093  17.198  1.00  0.00    -0.373 N 
HETATM   12  C   UNL     1      23.156  -1.007  16.457  1.00  0.00     0.088 A 
ATOM     13  HN  UNL     1      22.905   1.053  16.952  1.00  0.00     0.164 HD
HETATM   14  C   UNL     1      23.553  -2.190  16.787  1.00  0.00     0.026 A 
HETATM   15  C   UNL     1      23.994  -2.631  17.939  1.00  0.00    -0.033 A 
HETATM   16  C   UNL     1      24.490  -3.980  18.364  1.00  0.00     0.050 C 
ENDBRANCH   7   9
ENDBRANCH   4   5
BRANCH   3  17
HETATM   17  C   UNL     1      24.075  -0.898  24.440  1.00  0.00    -0.016 C 
BRANCH  17  18
HETATM   18  C   UNL     1      23.464   0.026  24.244  1.00  0.00    -0.026 C 
BRANCH  18  19
HETATM   19  C   UNL     1      22.258   0.487  24.900  1.00  0.00     0.053 C 
BRANCH  19  20
HETATM   20  C   UNL     1      21.252  -0.629  24.853  1.00  0.00    -0.033 C 
HETATM   21  C   UNL     1      20.571  -0.943  24.208  1.00  0.00     0.007 C 
ENDBRANCH  19  20
ENDBRANCH  18  19
ENDBRANCH  17  18
ENDBRANCH   3  17
BRANCH   1  22
HETATM   22  N   UNL     1      23.686  -5.475  24.434  1.00  0.00    -0.295 N 
ATOM     23  HN  UNL     1      22.681  -5.579  24.296  1.00  0.00     0.177 HD
BRANCH  22  24
HETATM   24  S   UNL     1      24.469  -6.750  25.097  1.00  0.00     0.226 S 
HETATM   25  C   UNL     1      26.162  -6.302  25.153  1.00  0.00     0.186 C 
HETATM   26  O   UNL     1      24.048  -6.968  26.457  1.00  0.00    -0.206 OA
HETATM   27  O   UNL     1      24.336  -7.952  24.307  1.00  0.00    -0.206 OA
ENDBRANCH  22  24
ENDBRANCH   1  22
TORSDOF 8
ENDMDL
MODEL 4
REMARK VINA RESULT:    -6.422      2.898      6.578
REMARK INTER + INTRA:         -10.474
REMARK INTER:                  -9.215
REMARK INTRA:                  -1.259
REMARK UNBOUND:                -1.049
REMARK  8 active torsions:
REMARK  status: ('A' for Active; 'I' for Inactive)
REMARK    1  A    between atoms: S_2  and  N_5 
REMARK    2  A    between atoms: N_5  and  C_7 
REMARK    3  A    between atoms: C_9  and  C_10 
REMARK    4  A    between atoms: C_10  and  C_11 
REMARK    5  A    between atoms: C_11  and  C_12 
REMARK    6  A    between atoms: C_12  and  C_13 
REMARK    7  A    between atoms: C_15  and  C_16 
REMARK       I    between atoms: C_16  and  N_18 
REMARK    8  A    between atoms: N_18  and  C_20 
ROOT
HETATM    1  C   UNL     1       8.348  -3.651  23.712  1.00  0.00     0.108 C 
HETATM    2  C   UNL     1       8.854  -2.671  23.079  1.00  0.00    -0.017 A 
HETATM    3  C   UNL     1       9.877  -1.910  22.879  1.00  0.00     0.082 A 
HETATM    4  C   UNL     1       9.232  -1.293  22.024  1.00  0.00     0.031 A 
ENDROOT
BRANCH   4   5
HETATM    5  C   UNL     1       8.568  -0.496  21.181  1.00  0.00     0.253 C 
HETATM    6  O   UNL     1       9.166   0.317  20.641  1.00  0.00    -0.268 OA
HETATM    7  N   UNL     1       7.270  -0.779  21.132  1.00  0.00    -0.321 N 
ATOM      8  HN  UNL     1       6.885  -1.529  21.706  1.00  0.00     0.169 HD
BRANCH   7   9
HETATM    9  C   UNL     1       6.528  -0.121  20.379  1.00  0.00     0.056 A 
HETATM   10  C   UNL     1       5.975  -0.247  19.215  1.00  0.00     0.117 A 
HETATM   11  N   UNL     1       5.231   0.158  18.307  1.00  0.00    -0.373 N 
HETATM   12  C   UNL     1       4.923   1.349  18.802  1.00  0.00     0.088 A 
ATOM     13  HN  UNL     1       4.944  -0.292  17.438  1.00  0.00     0.164 HD
HETATM   14  C   UNL     1       5.239   1.845  19.951  1.00  0.00     0.026 A 
HETATM   15  C   UNL     1       5.984   1.338  20.901  1.00  0.00    -0.033 A 
HETATM   16  C   UNL     1       6.358   1.857  22.256  1.00  0.00     0.050 C 
ENDBRANCH   7   9
ENDBRANCH   4   5
BRANCH   3  17
HETATM   17  C   UNL     1      10.851  -1.116  23.778  1.00  0.00    -0.016 C 
BRANCH  17  18
HETATM   18  C   UNL     1      11.540  -0.275  23.488  1.00  0.00    -0.026 C 
BRANCH  18  19
HETATM   19  C   UNL     1      11.681   1.042  24.074  1.00  0.00     0.053 C 
BRANCH  19  20
HETATM   20  C   UNL     1      10.708   1.959  23.386  1.00  0.00    -0.033 C 
HETATM   21  C   UNL     1       9.875   2.429  23.639  1.00  0.00     0.007 C 
ENDBRANCH  19  20
ENDBRANCH  18  19
ENDBRANCH  17  18
ENDBRANCH   3  17
BRANCH   1  22
HETATM   22  N   UNL     1       7.468  -4.178  24.304  1.00  0.00    -0.295 N 
ATOM     23  HN  UNL     1       7.548  -4.194  25.320  1.00  0.00     0.177 HD
BRANCH  22  24
HETATM   24  S   UNL     1       6.136  -4.882  23.664  1.00  0.00     0.226 S 
HETATM   25  C   UNL     1       5.066  -3.572  23.211  1.00  0.00     0.186 C 
HETATM   26  O   UNL     1       6.458  -5.597  22.456  1.00  0.00    -0.206 OA
HETATM   27  O   UNL     1       5.452  -5.731  24.610  1.00  0.00    -0.206 OA
ENDBRANCH  22  24
ENDBRANCH   1  22
TORSDOF 8
ENDMDL
MODEL 5
REMARK VINA RESULT:    -6.217     20.956     23.979
REMARK INTER + INTRA:         -10.173
REMARK INTER:                  -8.404
REMARK INTRA:                  -1.769
REMARK UNBOUND:                -1.049
REMARK  8 active torsions:
REMARK  status: ('A' for Active; 'I' for Inactive)
REMARK    1  A    between atoms: S_2  and  N_5 
REMARK    2  A    between atoms: N_5  and  C_7 
REMARK    3  A    between atoms: C_9  and  C_10 
REMARK    4  A    between atoms: C_10  and  C_11 
REMARK    5  A    between atoms: C_11  and  C_12 
REMARK    6  A    between atoms: C_12  and  C_13 
REMARK    7  A    between atoms: C_15  and  C_16 
REMARK       I    between atoms: C_16  and  N_18 
REMARK    8  A    between atoms: N_18  and  C_20 
ROOT
HETATM    1  C   UNL     1       7.170  13.458   1.644  1.00  0.00     0.108 C 
HETATM    2  C   UNL     1       6.173  12.684   1.795  1.00  0.00    -0.017 A 
HETATM    3  C   UNL     1       4.892  12.556   1.883  1.00  0.00     0.082 A 
HETATM    4  C   UNL     1       5.038  11.335   2.014  1.00  0.00     0.031 A 
ENDROOT
BRANCH   4   5
HETATM    5  C   UNL     1       5.113  10.029   2.288  1.00  0.00     0.253 C 
HETATM    6  O   UNL     1       5.618   9.354   1.514  1.00  0.00    -0.268 OA
HETATM    7  N   UNL     1       4.541   9.721   3.448  1.00  0.00    -0.321 N 
ATOM      8  HN  UNL     1       4.104  10.448   4.015  1.00  0.00     0.169 HD
BRANCH   7   9
HETATM    9  C   UNL     1       4.544   8.538   3.837  1.00  0.00     0.056 A 
HETATM   10  C   UNL     1       5.272   7.766   4.578  1.00  0.00     0.117 A 
HETATM   11  N   UNL     1       5.499   6.680   5.136  1.00  0.00    -0.373 N 
HETATM   12  C   UNL     1       4.490   5.975   4.644  1.00  0.00     0.088 A 
ATOM     13  HN  UNL     1       6.242   6.411   5.781  1.00  0.00     0.164 HD
HETATM   14  C   UNL     1       3.518   6.381   3.897  1.00  0.00     0.026 A 
HETATM   15  C   UNL     1       3.299   7.567   3.386  1.00  0.00    -0.033 A 
HETATM   16  C   UNL     1       2.180   8.094   2.540  1.00  0.00     0.050 C 
ENDBRANCH   7   9
ENDBRANCH   4   5
BRANCH   3  17
HETATM   17  C   UNL     1       3.768  13.250   2.685  1.00  0.00    -0.016 C 
BRANCH  17  18
HETATM   18  C   UNL     1       3.615  13.266   3.800  1.00  0.00    -0.026 C 
BRANCH  18  19
HETATM   19  C   UNL     1       4.480  13.782   4.840  1.00  0.00     0.053 C 
BRANCH  19  20
HETATM   20  C   UNL     1       4.996  12.614   5.633  1.00  0.00    -0.033 C 
HETATM   21  C   UNL     1       5.848  12.115   5.687  1.00  0.00     0.007 C 
ENDBRANCH  19  20
ENDBRANCH  18  19
ENDBRANCH  17  18
ENDBRANCH   3  17
BRANCH   1  22
HETATM   22  N   UNL     1       8.260  13.834   1.918  1.00  0.00    -0.295 N 
ATOM     23  HN  UNL     1       8.800  14.254   1.162  1.00  0.00     0.177 HD
BRANCH  22  24
HETATM   24  S   UNL     1       8.989  13.752   3.380  1.00  0.00     0.226 S 
HETATM   25  C   UNL     1       8.066  14.798   4.441  1.00  0.00     0.186 C 
HETATM   26  O   UNL     1       8.905  12.422   3.927  1.00  0.00    -0.206 OA
HETATM   27  O   UNL     1      10.355  14.220   3.344  1.00  0.00    -0.206 OA
ENDBRANCH  22  24
ENDBRANCH   1  22
TORSDOF 8
ENDMDL
MODEL 6
REMARK VINA RESULT:    -6.190      2.216      5.923
REMARK INTER + INTRA:         -10.133
REMARK INTER:                  -9.066
REMARK INTRA:                  -1.068
REMARK UNBOUND:                -1.049
REMARK  8 active torsions:
REMARK  status: ('A' for Active; 'I' for Inactive)
REMARK    1  A    between atoms: S_2  and  N_5 
REMARK    2  A    between atoms: N_5  and  C_7 
REMARK    3  A    between atoms: C_9  and  C_10 
REMARK    4  A    between atoms: C_10  and  C_11 
REMARK    5  A    between atoms: C_11  and  C_12 
REMARK    6  A    between atoms: C_12  and  C_13 
REMARK    7  A    between atoms: C_15  and  C_16 
REMARK       I    between atoms: C_16  and  N_18 
REMARK    8  A    between atoms: N_18  and  C_20 
ROOT
HETATM    1  C   UNL     1       6.902  -0.091  21.961  1.00  0.00     0.108 C 
HETATM    2  C   UNL     1       7.440  -1.115  22.486  1.00  0.00    -0.017 A 
HETATM    3  C   UNL     1       8.499  -1.662  22.981  1.00  0.00     0.082 A 
HETATM    4  C   UNL     1       7.851  -2.694  23.189  1.00  0.00     0.031 A 
ENDROOT
BRANCH   4   5
HETATM    5  C   UNL     1       7.261  -3.885  23.333  1.00  0.00     0.253 C 
HETATM    6  O   UNL     1       7.693  -4.764  22.742  1.00  0.00    -0.268 OA
HETATM    7  N   UNL     1       6.214  -3.835  24.151  1.00  0.00    -0.321 N 
ATOM      8  HN  UNL     1       5.940  -2.953  24.583  1.00  0.00     0.169 HD
BRANCH   7   9
HETATM    9  C   UNL     1       5.572  -4.876  24.386  1.00  0.00     0.056 A 
HETATM   10  C   UNL     1       4.742  -5.659  23.774  1.00  0.00     0.117 A 
HETATM   11  N   UNL     1       4.038  -6.681  23.719  1.00  0.00    -0.373 N 
HETATM   12  C   UNL     1       4.216  -7.126  24.956  1.00  0.00     0.088 A 
ATOM     13  HN  UNL     1       3.487  -7.064  22.952  1.00  0.00     0.164 HD
HETATM   14  C   UNL     1       4.995  -6.656  25.872  1.00  0.00     0.026 A 
HETATM   15  C   UNL     1       5.766  -5.599  25.848  1.00  0.00    -0.033 A 
HETATM   16  C   UNL     1       6.705  -5.029  26.868  1.00  0.00     0.050 C 
ENDBRANCH   7   9
ENDBRANCH   4   5
BRANCH   3  17
HETATM   17  C   UNL     1       9.974  -1.799  22.541  1.00  0.00    -0.016 C 
BRANCH  17  18
HETATM   18  C   UNL     1      10.888  -1.341  23.012  1.00  0.00    -0.026 C 
BRANCH  18  19
HETATM   19  C   UNL     1      11.074  -0.834  24.356  1.00  0.00     0.053 C 
BRANCH  19  20
HETATM   20  C   UNL     1      11.015   0.667  24.295  1.00  0.00    -0.033 C 
HETATM   21  C   UNL     1      11.629   1.390  24.016  1.00  0.00     0.007 C 
ENDBRANCH  19  20
ENDBRANCH  18  19
ENDBRANCH  17  18
ENDBRANCH   3  17
BRANCH   1  22
HETATM   22  N   UNL     1       6.208   0.438  21.159  1.00  0.00    -0.295 N 
ATOM     23  HN  UNL     1       5.521   1.101  21.517  1.00  0.00     0.177 HD
BRANCH  22  24
HETATM   24  S   UNL     1       6.237   0.218  19.538  1.00  0.00     0.226 S 
HETATM   25  C   UNL     1       5.229   1.480  18.860  1.00  0.00     0.186 C 
HETATM   26  O   UNL     1       7.563   0.413  19.011  1.00  0.00    -0.206 OA
HETATM   27  O   UNL     1       5.698  -1.063  19.145  1.00  0.00    -0.206 OA
ENDBRANCH  22  24
ENDBRANCH   1  22
TORSDOF 8
ENDMDL
MODEL 7
REMARK VINA RESULT:    -6.134      2.287      5.970
REMARK INTER + INTRA:         -10.052
REMARK INTER:                  -8.998
REMARK INTRA:                  -1.054
REMARK UNBOUND:                -1.049
REMARK  8 active torsions:
REMARK  status: ('A' for Active; 'I' for Inactive)
REMARK    1  A    between atoms: S_2  and  N_5 
REMARK    2  A    between atoms: N_5  and  C_7 
REMARK    3  A    between atoms: C_9  and  C_10 
REMARK    4  A    between atoms: C_10  and  C_11 
REMARK    5  A    between atoms: C_11  and  C_12 
REMARK    6  A    between atoms: C_12  and  C_13 
REMARK    7  A    between atoms: C_15  and  C_16 
REMARK       I    between atoms: C_16  and  N_18 
REMARK    8  A    between atoms: N_18  and  C_20 
ROOT
HETATM    1  C   UNL     1       7.185  -0.266  22.733  1.00  0.00     0.108 C 
HETATM    2  C   UNL     1       7.841  -1.210  23.276  1.00  0.00    -0.017 A 
HETATM    3  C   UNL     1       8.991  -1.693  23.607  1.00  0.00     0.082 A 
HETATM    4  C   UNL     1       8.421  -2.673  24.099  1.00  0.00     0.031 A 
ENDROOT
BRANCH   4   5
HETATM    5  C   UNL     1       7.896  -3.821  24.540  1.00  0.00     0.253 C 
HETATM    6  O   UNL     1       8.226  -4.787  24.022  1.00  0.00    -0.268 OA
HETATM    7  N   UNL     1       7.027  -3.634  25.528  1.00  0.00    -0.321 N 
ATOM      8  HN  UNL     1       6.822  -2.691  25.861  1.00  0.00     0.169 HD
BRANCH   7   9
HETATM    9  C   UNL     1       6.465  -4.618  26.044  1.00  0.00     0.056 A 
HETATM   10  C   UNL     1       6.695  -5.480  26.983  1.00  0.00     0.117 A 
HETATM   11  N   UNL     1       6.358  -6.442  27.691  1.00  0.00    -0.373 N 
HETATM   12  C   UNL     1       5.199  -6.733  27.116  1.00  0.00     0.088 A 
ATOM     13  HN  UNL     1       6.832  -6.880  28.481  1.00  0.00     0.164 HD
HETATM   14  C   UNL     1       4.592  -6.096  26.171  1.00  0.00     0.026 A 
HETATM   15  C   UNL     1       4.975  -5.040  25.498  1.00  0.00    -0.033 A 
HETATM   16  C   UNL     1       4.301  -4.251  24.417  1.00  0.00     0.050 C 
ENDBRANCH   7   9
ENDBRANCH   4   5
BRANCH   3  17
HETATM   17  C   UNL     1      10.341  -1.915  22.887  1.00  0.00    -0.016 C 
BRANCH  17  18
HETATM   18  C   UNL     1      11.112  -1.149  22.600  1.00  0.00    -0.026 C 
BRANCH  18  19
HETATM   19  C   UNL     1      11.432   0.115  23.231  1.00  0.00     0.053 C 
BRANCH  19  20
HETATM   20  C   UNL     1      12.582  -0.117  24.171  1.00  0.00    -0.033 C 
HETATM   21  C   UNL     1      13.430  -0.626  24.143  1.00  0.00     0.007 C 
ENDBRANCH  19  20
ENDBRANCH  18  19
ENDBRANCH  17  18
ENDBRANCH   3  17
BRANCH   1  22
HETATM   22  N   UNL     1       6.327   0.149  22.030  1.00  0.00    -0.295 N 
ATOM     23  HN  UNL     1       5.403   0.251  22.449  1.00  0.00     0.177 HD
BRANCH  22  24
HETATM   24  S   UNL     1       6.467   0.574  20.456  1.00  0.00     0.226 S 
HETATM   25  C   UNL     1       5.650  -0.677  19.542  1.00  0.00     0.186 C 
HETATM   26  O   UNL     1       5.773   1.808  20.189  1.00  0.00    -0.206 OA
HETATM   27  O   UNL     1       7.843   0.640  20.022  1.00  0.00    -0.206 OA
ENDBRANCH  22  24
ENDBRANCH   1  22
TORSDOF 8
ENDMDL
MODEL 8
REMARK VINA RESULT:    -6.061      1.924      5.168
REMARK INTER + INTRA:          -9.945
REMARK INTER:                  -9.037
REMARK INTRA:                  -0.908
REMARK UNBOUND:                -1.049
REMARK  8 active torsions:
REMARK  status: ('A' for Active; 'I' for Inactive)
REMARK    1  A    between atoms: S_2  and  N_5 
REMARK    2  A    between atoms: N_5  and  C_7 
REMARK    3  A    between atoms: C_9  and  C_10 
REMARK    4  A    between atoms: C_10  and  C_11 
REMARK    5  A    between atoms: C_11  and  C_12 
REMARK    6  A    between atoms: C_12  and  C_13 
REMARK    7  A    between atoms: C_15  and  C_16 
REMARK       I    between atoms: C_16  and  N_18 
REMARK    8  A    between atoms: N_18  and  C_20 
ROOT
HETATM    1  C   UNL     1       6.628   0.724  21.303  1.00  0.00     0.108 C 
HETATM    2  C   UNL     1       7.444   0.253  22.157  1.00  0.00    -0.017 A 
HETATM    3  C   UNL     1       8.499   0.435  22.878  1.00  0.00     0.082 A 
HETATM    4  C   UNL     1       8.364  -0.704  23.336  1.00  0.00     0.031 A 
ENDROOT
BRANCH   4   5
HETATM    5  C   UNL     1       8.366  -1.963  23.786  1.00  0.00     0.253 C 
HETATM    6  O   UNL     1       8.771  -2.774  23.087  1.00  0.00    -0.268 OA
HETATM    7  N   UNL     1       7.852  -2.065  25.009  1.00  0.00    -0.321 N 
ATOM      8  HN  UNL     1       7.506  -1.236  25.491  1.00  0.00     0.169 HD
BRANCH   7   9
HETATM    9  C   UNL     1       7.799  -3.181  25.559  1.00  0.00     0.056 A 
HETATM   10  C   UNL     1       8.541  -3.920  26.320  1.00  0.00     0.117 A 
HETATM   11  N   UNL     1       8.738  -4.941  26.998  1.00  0.00    -0.373 N 
HETATM   12  C   UNL     1       7.619  -5.597  26.722  1.00  0.00     0.088 A 
ATOM     13  HN  UNL     1       9.527  -5.199  27.592  1.00  0.00     0.164 HD
HETATM   14  C   UNL     1       6.604  -5.194  26.034  1.00  0.00     0.026 A 
HETATM   15  C   UNL     1       6.430  -4.070  25.386  1.00  0.00    -0.033 A 
HETATM   16  C   UNL     1       5.267  -3.546  24.599  1.00  0.00     0.050 C 
ENDBRANCH   7   9
ENDBRANCH   4   5
BRANCH   3  17
HETATM   17  C   UNL     1       9.931   0.958  22.621  1.00  0.00    -0.016 C 
BRANCH  17  18
HETATM   18  C   UNL     1      10.498   1.747  23.189  1.00  0.00    -0.026 C 
BRANCH  18  19
HETATM   19  C   UNL     1      11.699   1.620  23.987  1.00  0.00     0.053 C 
BRANCH  19  20
HETATM   20  C   UNL     1      11.852   0.172  24.365  1.00  0.00    -0.033 C 
HETATM   21  C   UNL     1      12.323  -0.613  23.990  1.00  0.00     0.007 C 
ENDBRANCH  19  20
ENDBRANCH  18  19
ENDBRANCH  17  18
ENDBRANCH   3  17
BRANCH   1  22
HETATM   22  N   UNL     1       5.965   0.640  20.325  1.00  0.00    -0.295 N 
ATOM     23  HN  UNL     1       4.979   0.882  20.421  1.00  0.00     0.177 HD
BRANCH  22  24
HETATM   24  S   UNL     1       6.463   0.177  18.837  1.00  0.00     0.226 S 
HETATM   25  C   UNL     1       5.936   1.435  17.737  1.00  0.00     0.186 C 
HETATM   26  O   UNL     1       7.900   0.130  18.763  1.00  0.00    -0.206 OA
HETATM   27  O   UNL     1       5.874  -1.075  18.422  1.00  0.00    -0.206 OA
ENDBRANCH  22  24
ENDBRANCH   1  22
TORSDOF 8
ENDMDL
MODEL 9
REMARK VINA RESULT:    -6.008      3.385      6.025
REMARK INTER + INTRA:          -9.866
REMARK INTER:                  -8.753
REMARK INTRA:                  -1.113
REMARK UNBOUND:                -1.049
REMARK  8 active torsions:
REMARK  status: ('A' for Active; 'I' for Inactive)
REMARK    1  A    between atoms: S_2  and  N_5 
REMARK    2  A    between atoms: N_5  and  C_7 
REMARK    3  A    between atoms: C_9  and  C_10 
REMARK    4  A    between atoms: C_10  and  C_11 
REMARK    5  A    between atoms: C_11  and  C_12 
REMARK    6  A    between atoms: C_12  and  C_13 
REMARK    7  A    between atoms: C_15  and  C_16 
REMARK       I    between atoms: C_16  and  N_18 
REMARK    8  A    between atoms: N_18  and  C_20 
ROOT
HETATM    1  C   UNL     1      10.341   2.124  22.114  1.00  0.00     0.108 C 
HETATM    2  C   UNL     1       9.968   0.923  21.923  1.00  0.00    -0.017 A 
HETATM    3  C   UNL     1       9.408   0.064  21.139  1.00  0.00     0.082 A 
HETATM    4  C   UNL     1       9.594  -0.812  21.992  1.00  0.00     0.031 A 
ENDROOT
BRANCH   4   5
HETATM    5  C   UNL     1       9.641  -1.787  22.905  1.00  0.00     0.253 C 
HETATM    6  O   UNL     1      10.660  -2.261  23.121  1.00  0.00    -0.268 OA
HETATM    7  N   UNL     1       8.443  -2.068  23.408  1.00  0.00    -0.321 N 
ATOM      8  HN  UNL     1       7.618  -1.563  23.084  1.00  0.00     0.169 HD
BRANCH   7   9
HETATM    9  C   UNL     1       8.337  -2.952  24.279  1.00  0.00     0.056 A 
HETATM   10  C   UNL     1       8.556  -3.090  25.548  1.00  0.00     0.117 A 
HETATM   11  N   UNL     1       8.517  -3.749  26.599  1.00  0.00    -0.373 N 
HETATM   12  C   UNL     1       8.081  -4.902  26.111  1.00  0.00     0.088 A 
ATOM     13  HN  UNL     1       8.752  -3.482  27.555  1.00  0.00     0.164 HD
HETATM   14  C   UNL     1       7.711  -5.171  24.904  1.00  0.00     0.026 A 
HETATM   15  C   UNL     1       7.717  -4.408  23.840  1.00  0.00    -0.033 A 
HETATM   16  C   UNL     1       7.275  -4.661  22.431  1.00  0.00     0.050 C 
ENDBRANCH   7   9
ENDBRANCH   4   5
BRANCH   3  17
HETATM   17  C   UNL     1       8.104   0.015  20.311  1.00  0.00    -0.016 C 
BRANCH  17  18
HETATM   18  C   UNL     1       7.046   0.161  20.665  1.00  0.00    -0.026 C 
BRANCH  18  19
HETATM   19  C   UNL     1       6.232   1.358  20.661  1.00  0.00     0.053 C 
BRANCH  19  20
HETATM   20  C   UNL     1       5.182   1.198  19.597  1.00  0.00    -0.033 C 
HETATM   21  C   UNL     1       5.158   0.856  18.669  1.00  0.00     0.007 C 
ENDBRANCH  19  20
ENDBRANCH  18  19
ENDBRANCH  17  18
ENDBRANCH   3  17
BRANCH   1  22
HETATM   22  N   UNL     1      10.451   3.097  22.780  1.00  0.00    -0.295 N 
ATOM     23  HN  UNL     1      11.306   3.638  22.658  1.00  0.00     0.177 HD
BRANCH  22  24
HETATM   24  S   UNL     1       9.376   3.664  23.876  1.00  0.00     0.226 S 
HETATM   25  C   UNL     1       7.890   3.950  22.992  1.00  0.00     0.186 C 
HETATM   26  O   UNL     1       9.083   2.671  24.877  1.00  0.00    -0.206 OA
HETATM   27  O   UNL     1       9.802   4.906  24.476  1.00  0.00    -0.206 OA
ENDBRANCH  22  24
ENDBRANCH   1  22
TORSDOF 8
ENDMDL
