REMARK  4 active torsions:
REMARK  status: ('A' for Active; 'I' for Inactive)
REMARK    1  A    between atoms: O_2  and  S_8 
REMARK    2  A    between atoms: O_2  and  C_4 
REMARK    3  A    between atoms: C_7  and  C_15 
REMARK    4  A    between atoms: C_7  and  O_16 
ROOT
HETATM    1  C   UNL     1       9.616  -1.653  21.973  1.00  0.00     0.090 A 
HETATM    2  C   UNL     1       8.422  -0.949  21.816  1.00  0.00     0.054 A 
HETATM    3  C   UNL     1       9.494  -0.126  23.594  1.00  0.00     0.018 A 
HETATM    4  C   UNL     1      10.276  -1.174  23.107  1.00  0.00     0.039 A 
HETATM    5  C   UNL     1       8.320  -0.031  22.873  1.00  0.00     0.017 A 
ENDROOT
BRANCH   5   6
HETATM    6  C   UNL     1       7.287   0.889  23.365  1.00  0.00     0.145 C 
HETATM    7  N   UNL     1       7.736   1.893  24.005  1.00  0.00    -0.379 N 
HETATM    8  H   UNL     1       7.058   2.521  24.367  1.00  0.00     0.158 HD
ATOM      9  HN  UNL     1       8.736   2.044  24.138  1.00  0.00     0.158 HD
BRANCH   6  10
HETATM   10  O   UNL     1       5.965   0.641  23.197  1.00  0.00    -0.341 OA
HETATM   11  C   UNL     1       5.050   1.696  23.522  1.00  0.00     0.211 C 
ENDBRANCH   6  10
ENDBRANCH   5   6
BRANCH   1  12
HETATM   12  O   UNL     1      10.076  -2.643  21.145  1.00  0.00    -0.233 OA
BRANCH  12  13
HETATM   13  S   UNL     1      10.842  -3.868  21.969  1.00  0.00     0.266 S 
HETATM   14  C   UNL     1      11.082  -4.904  20.502  1.00  0.00     0.194 C 
HETATM   15  O   UNL     1       9.871  -4.417  22.846  1.00  0.00    -0.199 OA
HETATM   16  O   UNL     1      12.134  -3.585  22.529  1.00  0.00    -0.199 OA
ENDBRANCH  12  13
ENDBRANCH   1  12
TORSDOF 4
