MODEL 1
REMARK VINA RESULT:    -5.009      0.000      0.000
REMARK INTER + INTRA:          -6.444
REMARK INTER:                  -6.181
REMARK INTRA:                  -0.263
REMARK UNBOUND:                -0.263
REMARK  4 active torsions:
REMARK  status: ('A' for Active; 'I' for Inactive)
REMARK    1  A    between atoms: O_2  and  S_8 
REMARK    2  A    between atoms: O_2  and  C_4 
REMARK    3  A    between atoms: C_7  and  C_15 
REMARK    4  A    between atoms: C_7  and  O_16 
ROOT
HETATM    1  C   UNL     1       2.515 -22.895   8.304  1.00  0.00     0.090 A 
HETATM    2  C   UNL     1       2.032 -21.847   9.087  1.00  0.00     0.054 A 
HETATM    3  C   UNL     1       3.722 -21.076   7.847  1.00  0.00     0.018 A 
HETATM    4  C   UNL     1       3.599 -22.435   7.553  1.00  0.00     0.039 A 
HETATM    5  C   UNL     1       2.832 -20.721   8.842  1.00  0.00     0.017 A 
ENDROOT
BRANCH   5   6
HETATM    6  C   UNL     1       2.951 -19.375   9.417  1.00  0.00     0.145 C 
HETATM    7  N   UNL     1       4.056 -18.793   9.175  1.00  0.00    -0.379 N 
HETATM    8  H   UNL     1       4.171 -17.889   9.570  1.00  0.00     0.158 HD
ATOM      9  HN  UNL     1       4.782 -19.230   8.608  1.00  0.00     0.158 HD
BRANCH   6  10
HETATM   10  O   UNL     1       1.978 -18.837  10.193  1.00  0.00    -0.341 OA
HETATM   11  C   UNL     1       0.828 -18.296   9.528  1.00  0.00     0.211 C 
ENDBRANCH   6  10
ENDBRANCH   5   6
BRANCH   1  12
HETATM   12  O   UNL     1       2.004 -24.166   8.263  1.00  0.00    -0.233 OA
BRANCH  12  13
HETATM   13  S   UNL     1       2.446 -25.080   9.580  1.00  0.00     0.266 S 
HETATM   14  C   UNL     1       3.319 -26.332   8.604  1.00  0.00     0.194 C 
HETATM   15  O   UNL     1       1.239 -25.589  10.127  1.00  0.00    -0.199 OA
HETATM   16  O   UNL     1       3.383 -24.505  10.504  1.00  0.00    -0.199 OA
ENDBRANCH  12  13
ENDBRANCH   1  12
TORSDOF 4
ENDMDL
MODEL 2
REMARK VINA RESULT:    -4.781     35.426     38.336
REMARK INTER + INTRA:          -6.162
REMARK INTER:                  -5.892
REMARK INTRA:                  -0.270
REMARK UNBOUND:                -0.263
REMARK  4 active torsions:
REMARK  status: ('A' for Active; 'I' for Inactive)
REMARK    1  A    between atoms: O_2  and  S_8 
REMARK    2  A    between atoms: O_2  and  C_4 
REMARK    3  A    between atoms: C_7  and  C_15 
REMARK    4  A    between atoms: C_7  and  O_16 
ROOT
HETATM    1  C   UNL     1       9.185  15.251   1.808  1.00  0.00     0.090 A 
HETATM    2  C   UNL     1       8.119  14.360   1.679  1.00  0.00     0.054 A 
HETATM    3  C   UNL     1       9.294  13.792   3.492  1.00  0.00     0.018 A 
HETATM    4  C   UNL     1       9.950  14.881   2.916  1.00  0.00     0.039 A 
HETATM    5  C   UNL     1       8.227  13.407   2.704  1.00  0.00     0.017 A 
ENDROOT
BRANCH   5   6
HETATM    6  C   UNL     1       7.536  12.159   3.051  1.00  0.00     0.145 C 
HETATM    7  N   UNL     1       8.302  11.226   3.452  1.00  0.00    -0.379 N 
HETATM    8  H   UNL     1       7.864  10.363   3.674  1.00  0.00     0.158 HD
ATOM      9  HN  UNL     1       9.310  11.357   3.542  1.00  0.00     0.158 HD
BRANCH   6  10
HETATM   10  O   UNL     1       6.198  12.010   2.890  1.00  0.00    -0.341 OA
HETATM   11  C   UNL     1       5.713  10.694   2.590  1.00  0.00     0.211 C 
ENDBRANCH   6  10
ENDBRANCH   5   6
BRANCH   1  12
HETATM   12  O   UNL     1       9.434  16.323   0.992  1.00  0.00    -0.233 OA
BRANCH  12  13
HETATM   13  S   UNL     1       8.872  17.756   1.621  1.00  0.00     0.266 S 
HETATM   14  C   UNL     1       8.515  18.495   0.005  1.00  0.00     0.194 C 
HETATM   15  O   UNL     1       9.986  18.374   2.246  1.00  0.00    -0.199 OA
HETATM   16  O   UNL     1       7.648  17.717   2.371  1.00  0.00    -0.199 OA
ENDBRANCH  12  13
ENDBRANCH   1  12
TORSDOF 4
ENDMDL
MODEL 3
REMARK VINA RESULT:    -4.766     25.186     26.870
REMARK INTER + INTRA:          -6.143
REMARK INTER:                  -5.905
REMARK INTRA:                  -0.238
REMARK UNBOUND:                -0.263
REMARK  4 active torsions:
REMARK  status: ('A' for Active; 'I' for Inactive)
REMARK    1  A    between atoms: O_2  and  S_8 
REMARK    2  A    between atoms: O_2  and  C_4 
REMARK    3  A    between atoms: C_7  and  C_15 
REMARK    4  A    between atoms: C_7  and  O_16 
ROOT
HETATM    1  C   UNL     1       8.960  -0.110  21.112  1.00  0.00     0.090 A 
HETATM    2  C   UNL     1       9.805   0.774  21.783  1.00  0.00     0.054 A 
HETATM    3  C   UNL     1       9.720  -1.132  22.942  1.00  0.00     0.018 A 
HETATM    4  C   UNL     1       8.867  -1.292  21.850  1.00  0.00     0.039 A 
HETATM    5  C   UNL     1      10.233   0.150  22.965  1.00  0.00     0.017 A 
ENDROOT
BRANCH   5   6
HETATM    6  C   UNL     1      10.997   0.561  24.149  1.00  0.00     0.145 C 
HETATM    7  N   UNL     1      10.291   0.773  25.186  1.00  0.00    -0.379 N 
HETATM    8  H   UNL     1      10.780   1.072  25.996  1.00  0.00     0.158 HD
ATOM      9  HN  UNL     1       9.279   0.643  25.184  1.00  0.00     0.158 HD
BRANCH   6  10
HETATM   10  O   UNL     1      12.338   0.754  24.106  1.00  0.00    -0.341 OA
HETATM   11  C   UNL     1      13.176  -0.401  24.249  1.00  0.00     0.211 C 
ENDBRANCH   6  10
ENDBRANCH   5   6
BRANCH   1  12
HETATM   12  O   UNL     1       8.334   0.133  19.918  1.00  0.00    -0.233 OA
BRANCH  12  13
HETATM   13  S   UNL     1       6.677   0.193  20.060  1.00  0.00     0.266 S 
HETATM   14  C   UNL     1       6.408   0.812  18.378  1.00  0.00     0.194 C 
HETATM   15  O   UNL     1       6.404   1.187  21.035  1.00  0.00    -0.199 OA
HETATM   16  O   UNL     1       5.977  -1.054  20.191  1.00  0.00    -0.199 OA
ENDBRANCH  12  13
ENDBRANCH   1  12
TORSDOF 4
ENDMDL
MODEL 4
REMARK VINA RESULT:    -4.638     35.661     38.335
REMARK INTER + INTRA:          -5.985
REMARK INTER:                  -5.720
REMARK INTRA:                  -0.266
REMARK UNBOUND:                -0.263
REMARK  4 active torsions:
REMARK  status: ('A' for Active; 'I' for Inactive)
REMARK    1  A    between atoms: O_2  and  S_8 
REMARK    2  A    between atoms: O_2  and  C_4 
REMARK    3  A    between atoms: C_7  and  C_15 
REMARK    4  A    between atoms: C_7  and  O_16 
ROOT
HETATM    1  C   UNL     1       7.676  14.417   2.511  1.00  0.00     0.090 A 
HETATM    2  C   UNL     1       7.517  15.622   1.827  1.00  0.00     0.054 A 
HETATM    3  C   UNL     1       9.703  15.236   2.070  1.00  0.00     0.018 A 
HETATM    4  C   UNL     1       9.040  14.185   2.705  1.00  0.00     0.039 A 
HETATM    5  C   UNL     1       8.793  16.164   1.605  1.00  0.00     0.017 A 
ENDROOT
BRANCH   5   6
HETATM    6  C   UNL     1       9.315  17.432   1.080  1.00  0.00     0.145 C 
HETATM    7  N   UNL     1       9.274  17.535  -0.187  1.00  0.00    -0.379 N 
HETATM    8  H   UNL     1       9.640  18.374  -0.571  1.00  0.00     0.158 HD
ATOM      9  HN  UNL     1       8.886  16.798  -0.776  1.00  0.00     0.158 HD
BRANCH   6  10
HETATM   10  O   UNL     1       9.852  18.378   1.889  1.00  0.00    -0.341 OA
HETATM   11  C   UNL     1      10.029  19.691   1.341  1.00  0.00     0.211 C 
ENDBRANCH   6  10
ENDBRANCH   5   6
BRANCH   1  12
HETATM   12  O   UNL     1       6.664  13.587   2.916  1.00  0.00    -0.233 OA
BRANCH  12  13
HETATM   13  S   UNL     1       6.480  12.264   1.926  1.00  0.00     0.266 S 
HETATM   14  C   UNL     1       4.671  12.253   2.031  1.00  0.00     0.194 C 
HETATM   15  O   UNL     1       7.053  11.170   2.624  1.00  0.00    -0.199 OA
HETATM   16  O   UNL     1       6.844  12.413   0.544  1.00  0.00    -0.199 OA
ENDBRANCH  12  13
ENDBRANCH   1  12
TORSDOF 4
ENDMDL
MODEL 5
REMARK VINA RESULT:    -4.616     22.087     24.464
REMARK INTER + INTRA:          -5.958
REMARK INTER:                  -5.730
REMARK INTRA:                  -0.228
REMARK UNBOUND:                -0.263
REMARK  4 active torsions:
REMARK  status: ('A' for Active; 'I' for Inactive)
REMARK    1  A    between atoms: O_2  and  S_8 
REMARK    2  A    between atoms: O_2  and  C_4 
REMARK    3  A    between atoms: C_7  and  C_15 
REMARK    4  A    between atoms: C_7  and  O_16 
ROOT
HETATM    1  C   UNL     1       7.332  -4.933  26.885  1.00  0.00     0.090 A 
HETATM    2  C   UNL     1       7.966  -5.432  25.747  1.00  0.00     0.054 A 
HETATM    3  C   UNL     1       6.767  -3.643  25.156  1.00  0.00     0.018 A 
HETATM    4  C   UNL     1       6.547  -3.837  26.520  1.00  0.00     0.039 A 
HETATM    5  C   UNL     1       7.559  -4.655  24.651  1.00  0.00     0.017 A 
ENDROOT
BRANCH   5   6
HETATM    6  C   UNL     1       7.737  -4.724  23.195  1.00  0.00     0.145 C 
HETATM    7  N   UNL     1       8.127  -3.637  22.659  1.00  0.00    -0.379 N 
HETATM    8  H   UNL     1       8.235  -3.649  21.673  1.00  0.00     0.158 HD
ATOM      9  HN  UNL     1       8.317  -2.802  23.212  1.00  0.00     0.158 HD
BRANCH   6  10
HETATM   10  O   UNL     1       7.444  -5.842  22.487  1.00  0.00    -0.341 OA
HETATM   11  C   UNL     1       6.484  -5.721  21.430  1.00  0.00     0.211 C 
ENDBRANCH   6  10
ENDBRANCH   5   6
BRANCH   1  12
HETATM   12  O   UNL     1       7.467  -5.425  28.157  1.00  0.00    -0.233 OA
BRANCH  12  13
HETATM   13  S   UNL     1       6.271  -6.508  28.559  1.00  0.00     0.266 S 
HETATM   14  C   UNL     1       5.344  -5.330  29.577  1.00  0.00     0.194 C 
HETATM   15  O   UNL     1       6.896  -7.507  29.349  1.00  0.00    -0.199 OA
HETATM   16  O   UNL     1       5.405  -6.962  27.506  1.00  0.00    -0.199 OA
ENDBRANCH  12  13
ENDBRANCH   1  12
TORSDOF 4
ENDMDL
MODEL 6
REMARK VINA RESULT:    -4.613     25.080     26.714
REMARK INTER + INTRA:          -5.955
REMARK INTER:                  -5.732
REMARK INTRA:                  -0.223
REMARK UNBOUND:                -0.263
REMARK  4 active torsions:
REMARK  status: ('A' for Active; 'I' for Inactive)
REMARK    1  A    between atoms: O_2  and  S_8 
REMARK    2  A    between atoms: O_2  and  C_4 
REMARK    3  A    between atoms: C_7  and  C_15 
REMARK    4  A    between atoms: C_7  and  O_16 
ROOT
HETATM    1  C   UNL     1      10.070  -0.672  22.100  1.00  0.00     0.090 A 
HETATM    2  C   UNL     1       9.478   0.420  21.465  1.00  0.00     0.054 A 
HETATM    3  C   UNL     1       7.964  -1.215  21.609  1.00  0.00     0.018 A 
HETATM    4  C   UNL     1       9.144  -1.715  22.160  1.00  0.00     0.039 A 
HETATM    5  C   UNL     1       8.173   0.053  21.103  1.00  0.00     0.017 A 
ENDROOT
BRANCH   5   6
HETATM    6  C   UNL     1       7.095   0.660  20.313  1.00  0.00     0.145 C 
HETATM    7  N   UNL     1       6.131   1.122  21.003  1.00  0.00    -0.379 N 
HETATM    8  H   UNL     1       5.378   1.521  20.493  1.00  0.00     0.158 HD
ATOM      9  HN  UNL     1       6.132   1.086  22.022  1.00  0.00     0.158 HD
BRANCH   6  10
HETATM   10  O   UNL     1       7.112   0.664  18.957  1.00  0.00    -0.341 OA
HETATM   11  C   UNL     1       6.147  -0.155  18.284  1.00  0.00     0.211 C 
ENDBRANCH   6  10
ENDBRANCH   5   6
BRANCH   1  12
HETATM   12  O   UNL     1      11.346  -0.712  22.598  1.00  0.00    -0.233 OA
BRANCH  12  13
HETATM   13  S   UNL     1      11.532   0.211  23.969  1.00  0.00     0.266 S 
HETATM   14  C   UNL     1      13.207  -0.385  24.322  1.00  0.00     0.194 C 
HETATM   15  O   UNL     1      10.590  -0.286  24.907  1.00  0.00    -0.199 OA
HETATM   16  O   UNL     1      11.593   1.637  23.807  1.00  0.00    -0.199 OA
ENDBRANCH  12  13
ENDBRANCH   1  12
TORSDOF 4
ENDMDL
MODEL 7
REMARK VINA RESULT:    -4.595     26.679     29.101
REMARK INTER + INTRA:          -5.932
REMARK INTER:                  -5.652
REMARK INTRA:                  -0.280
REMARK UNBOUND:                -0.263
REMARK  4 active torsions:
REMARK  status: ('A' for Active; 'I' for Inactive)
REMARK    1  A    between atoms: O_2  and  S_8 
REMARK    2  A    between atoms: O_2  and  C_4 
REMARK    3  A    between atoms: C_7  and  C_15 
REMARK    4  A    between atoms: C_7  and  O_16 
ROOT
HETATM    1  C   UNL     1      10.515   0.764  24.350  1.00  0.00     0.090 A 
HETATM    2  C   UNL     1      11.342   1.832  23.999  1.00  0.00     0.054 A 
HETATM    3  C   UNL     1       9.350   2.651  24.590  1.00  0.00     0.018 A 
HETATM    4  C   UNL     1       9.253   1.262  24.682  1.00  0.00     0.039 A 
HETATM    5  C   UNL     1      10.587   3.012  24.093  1.00  0.00     0.017 A 
ENDROOT
BRANCH   5   6
HETATM    6  C   UNL     1      10.800   4.422  23.745  1.00  0.00     0.145 C 
HETATM    7  N   UNL     1       9.796   4.991  23.209  1.00  0.00    -0.379 N 
HETATM    8  H   UNL     1       9.919   5.940  22.945  1.00  0.00     0.158 HD
ATOM      9  HN  UNL     1       8.915   4.500  23.059  1.00  0.00     0.158 HD
BRANCH   6  10
HETATM   10  O   UNL     1      11.995   5.034  23.930  1.00  0.00    -0.341 OA
HETATM   11  C   UNL     1      12.712   5.447  22.758  1.00  0.00     0.211 C 
ENDBRANCH   6  10
ENDBRANCH   5   6
BRANCH   1  12
HETATM   12  O   UNL     1      10.881  -0.556  24.378  1.00  0.00    -0.233 OA
BRANCH  12  13
HETATM   13  S   UNL     1      10.779  -1.285  22.887  1.00  0.00     0.266 S 
HETATM   14  C   UNL     1       9.482  -2.449  23.382  1.00  0.00     0.194 C 
HETATM   15  O   UNL     1      12.022  -1.939  22.684  1.00  0.00    -0.199 OA
HETATM   16  O   UNL     1      10.276  -0.497  21.796  1.00  0.00    -0.199 OA
ENDBRANCH  12  13
ENDBRANCH   1  12
TORSDOF 4
ENDMDL
MODEL 8
REMARK VINA RESULT:    -4.572     38.971     41.886
REMARK INTER + INTRA:          -5.904
REMARK INTER:                  -5.640
REMARK INTRA:                  -0.264
REMARK UNBOUND:                -0.263
REMARK  4 active torsions:
REMARK  status: ('A' for Active; 'I' for Inactive)
REMARK    1  A    between atoms: O_2  and  S_8 
REMARK    2  A    between atoms: O_2  and  C_4 
REMARK    3  A    between atoms: C_7  and  C_15 
REMARK    4  A    between atoms: C_7  and  O_16 
ROOT
HETATM    1  C   UNL     1       8.553  18.868   0.602  1.00  0.00     0.090 A 
HETATM    2  C   UNL     1       9.372  17.752   0.433  1.00  0.00     0.054 A 
HETATM    3  C   UNL     1       7.620  17.155   1.682  1.00  0.00     0.018 A 
HETATM    4  C   UNL     1       7.474  18.517   1.417  1.00  0.00     0.039 A 
HETATM    5  C   UNL     1       8.814  16.692   1.165  1.00  0.00     0.017 A 
ENDROOT
BRANCH   5   6
HETATM    6  C   UNL     1       9.228  15.328   1.514  1.00  0.00     0.145 C 
HETATM    7  N   UNL     1       8.581  14.410   0.916  1.00  0.00    -0.379 N 
HETATM    8  H   UNL     1       8.827  13.477   1.149  1.00  0.00     0.158 HD
ATOM      9  HN  UNL     1       7.851  14.621   0.235  1.00  0.00     0.158 HD
BRANCH   6  10
HETATM   10  O   UNL     1      10.181  15.083   2.447  1.00  0.00    -0.341 OA
HETATM   11  C   UNL     1       9.822  14.243   3.552  1.00  0.00     0.211 C 
ENDBRANCH   6  10
ENDBRANCH   5   6
BRANCH   1  12
HETATM   12  O   UNL     1       8.762  20.105   0.051  1.00  0.00    -0.233 OA
BRANCH  12  13
HETATM   13  S   UNL     1       9.618  21.121   1.051  1.00  0.00     0.266 S 
HETATM   14  C   UNL     1       8.210  22.209   1.395  1.00  0.00     0.194 C 
HETATM   15  O   UNL     1      10.585  21.757   0.230  1.00  0.00    -0.199 OA
HETATM   16  O   UNL     1      10.081  20.586   2.301  1.00  0.00    -0.199 OA
ENDBRANCH  12  13
ENDBRANCH   1  12
TORSDOF 4
ENDMDL
MODEL 9
REMARK VINA RESULT:    -4.531     36.059     38.755
REMARK INTER + INTRA:          -5.854
REMARK INTER:                  -5.608
REMARK INTRA:                  -0.246
REMARK UNBOUND:                -0.263
REMARK  4 active torsions:
REMARK  status: ('A' for Active; 'I' for Inactive)
REMARK    1  A    between atoms: O_2  and  S_8 
REMARK    2  A    between atoms: O_2  and  C_4 
REMARK    3  A    between atoms: C_7  and  C_15 
REMARK    4  A    between atoms: C_7  and  O_16 
ROOT
HETATM    1  C   UNL     1       7.390  14.931   2.507  1.00  0.00     0.090 A 
HETATM    2  C   UNL     1       8.232  15.414   1.505  1.00  0.00     0.054 A 
HETATM    3  C   UNL     1       7.771  17.092   2.904  1.00  0.00     0.018 A 
HETATM    4  C   UNL     1       7.062  15.982   3.365  1.00  0.00     0.039 A 
HETATM    5  C   UNL     1       8.420  16.788   1.724  1.00  0.00     0.017 A 
ENDROOT
BRANCH   5   6
HETATM    6  C   UNL     1       9.058  17.888   0.990  1.00  0.00     0.145 C 
HETATM    7  N   UNL     1       9.634  17.538  -0.089  1.00  0.00    -0.379 N 
HETATM    8  H   UNL     1      10.091  18.258  -0.596  1.00  0.00     0.158 HD
ATOM      9  HN  UNL     1       9.626  16.571  -0.416  1.00  0.00     0.158 HD
BRANCH   6  10
HETATM   10  O   UNL     1       9.076  19.156   1.469  1.00  0.00    -0.341 OA
HETATM   11  C   UNL     1      10.347  19.697   1.852  1.00  0.00     0.211 C 
ENDBRANCH   6  10
ENDBRANCH   5   6
BRANCH   1  12
HETATM   12  O   UNL     1       6.965  13.635   2.638  1.00  0.00    -0.233 OA
BRANCH  12  13
HETATM   13  S   UNL     1       7.851  12.776   3.753  1.00  0.00     0.266 S 
HETATM   14  C   UNL     1       7.378  11.154   3.097  1.00  0.00     0.194 C 
HETATM   15  O   UNL     1       7.248  13.029   5.012  1.00  0.00    -0.199 OA
HETATM   16  O   UNL     1       9.282  12.881   3.687  1.00  0.00    -0.199 OA
ENDBRANCH  12  13
ENDBRANCH   1  12
TORSDOF 4
ENDMDL
