
 OpenBabel07202414153D

 49 51  0  0  1  0  0  0  0  0999 V2000
    7.2282   -4.3595    3.5382 C   0  0  0  0  0  0  0  0  0  0  0  0
    8.3691   -4.0017    2.2119 S   0  0  0  0  0  0  0  0  0  0  0  0
    8.6773   -2.5879    2.2475 O   0  0  0  0  0  0  0  0  0  0  0  0
    9.4226   -4.9970    2.2980 O   0  0  0  0  0  0  0  0  0  0  0  0
    7.4653   -4.3840    0.8226 N   0  0  0  0  0  0  0  0  0  0  0  0
    6.8625   -3.2926    0.1008 C   0  0  0  0  0  0  0  0  0  0  0  0
    7.7330   -2.4975   -0.6641 C   0  0  0  0  0  0  0  0  0  0  0  0
    7.2528   -1.4127   -1.3946 C   0  0  0  0  0  0  0  0  0  0  0  0
    5.9158   -1.0667   -1.2883 C   0  0  0  0  0  0  0  0  0  0  0  0
    5.0552   -1.8046   -0.4773 C   0  0  0  0  0  0  0  0  0  0  0  0
    5.4803   -2.9894    0.1419 C   0  0  0  0  0  0  0  0  0  0  0  0
    4.5122   -3.8893    0.8521 C   0  0  0  0  0  0  0  0  0  0  0  0
    4.9630   -4.5291    1.8064 O   0  0  0  0  0  0  0  0  0  0  0  0
    3.1670   -4.0598    0.4519 N   0  0  0  0  0  0  0  0  0  0  0  0
    2.2830   -4.7122    1.4266 C   0  0  0  0  0  0  0  0  0  0  0  0
    1.0894   -5.4312    0.8000 C   0  0  0  0  0  0  0  0  0  0  0  0
    0.2867   -4.5574   -0.1804 C   0  0  0  0  0  0  0  0  0  0  0  0
    1.2935   -4.0634   -1.2328 C   0  0  0  0  0  0  0  0  0  0  0  0
    2.5010   -3.3453   -0.6372 C   0  0  0  0  0  0  0  0  0  0  0  0
   -0.5395   -3.4245    0.5031 C   0  0  3  0  0  0  0  0  0  0  0  0
   -1.6285   -3.9575    1.4437 C   0  0  0  0  0  0  0  0  0  0  0  0
   -2.8481   -4.0721    0.5528 C   0  0  0  0  0  0  0  0  0  0  0  0
   -2.7903   -2.8599   -0.2602 N   0  0  0  0  0  0  0  0  0  0  0  0
   -1.3646   -2.5806   -0.4915 C   0  0  0  0  0  0  0  0  0  0  0  0
    5.2919    0.2574   -2.1942 Cl  0  0  0  0  0  0  0  0  0  0  0  0
    7.7774   -4.3240    4.4777 H   0  0  0  0  0  0  0  0  0  0  0  0
    6.8295   -5.3681    3.3992 H   0  0  0  0  0  0  0  0  0  0  0  0
    6.4420   -3.6051    3.5496 H   0  0  0  0  0  0  0  0  0  0  0  0
    6.8262   -5.1593    1.0096 H   0  0  0  0  0  0  0  0  0  0  0  0
    8.7949   -2.7349   -0.7022 H   0  0  0  0  0  0  0  0  0  0  0  0
    7.9309   -0.8358   -2.0200 H   0  0  0  0  0  0  0  0  0  0  0  0
    4.0479   -1.4339   -0.3476 H   0  0  0  0  0  0  0  0  0  0  0  0
    1.9441   -3.9341    2.1208 H   0  0  0  0  0  0  0  0  0  0  0  0
    2.8471   -5.4396    2.0180 H   0  0  0  0  0  0  0  0  0  0  0  0
    0.4541   -5.8377    1.5925 H   0  0  0  0  0  0  0  0  0  0  0  0
    1.4667   -6.3033    0.2479 H   0  0  0  0  0  0  0  0  0  0  0  0
   -0.4254   -5.2126   -0.7003 H   0  0  0  0  0  0  0  0  0  0  0  0
    0.8228   -3.4066   -1.9707 H   0  0  0  0  0  0  0  0  0  0  0  0
    1.6543   -4.9339   -1.7972 H   0  0  0  0  0  0  0  0  0  0  0  0
    2.1819   -2.3794   -0.2409 H   0  0  0  0  0  0  0  0  0  0  0  0
    3.2115   -3.1865   -1.4535 H   0  0  0  0  0  0  0  0  0  0  0  0
    0.1346   -2.7724    1.0705 H   0  0  0  0  0  0  0  0  0  0  0  0
   -1.8207   -3.2218    2.2351 H   0  0  0  0  0  0  0  0  0  0  0  0
   -1.3951   -4.9056    1.9305 H   0  0  0  0  0  0  0  0  0  0  0  0
   -3.7785   -4.1296    1.1251 H   0  0  0  0  0  0  0  0  0  0  0  0
   -2.7904   -4.9572   -0.0913 H   0  0  0  0  0  0  0  0  0  0  0  0
   -3.1930   -2.0889    0.2739 H   0  0  0  0  0  0  0  0  0  0  0  0
   -1.1779   -1.5129   -0.3299 H   0  0  0  0  0  0  0  0  0  0  0  0
   -1.1362   -2.7954   -1.5371 H   0  0  0  0  0  0  0  0  0  0  0  0
  1  2  1  0  0  0  0
  1 26  1  0  0  0  0
  1 27  1  0  0  0  0
  1 28  1  0  0  0  0
  2  3  2  0  0  0  0
  2  4  2  0  0  0  0
  2  5  1  0  0  0  0
  5  6  1  0  0  0  0
  5 29  1  0  0  0  0
  6  7  1  0  0  0  0
  6 11  2  0  0  0  0
  7  8  2  0  0  0  0
  7 30  1  0  0  0  0
  8  9  1  0  0  0  0
  8 31  1  0  0  0  0
  9 10  2  0  0  0  0
  9 25  1  0  0  0  0
 10 11  1  0  0  0  0
 10 32  1  0  0  0  0
 11 12  1  0  0  0  0
 12 13  2  0  0  0  0
 12 14  1  0  0  0  0
 14 15  1  0  0  0  0
 14 19  1  0  0  0  0
 15 16  1  0  0  0  0
 15 33  1  0  0  0  0
 15 34  1  0  0  0  0
 16 17  1  0  0  0  0
 16 35  1  0  0  0  0
 16 36  1  0  0  0  0
 17 18  1  0  0  0  0
 17 20  1  0  0  0  0
 17 37  1  0  0  0  0
 18 19  1  0  0  0  0
 18 38  1  0  0  0  0
 18 39  1  0  0  0  0
 19 40  1  0  0  0  0
 19 41  1  0  0  0  0
 20 21  1  0  0  0  0
 20 24  1  0  0  0  0
 20 42  1  0  0  0  0
 21 22  1  0  0  0  0
 21 43  1  0  0  0  0
 21 44  1  0  0  0  0
 22 23  1  0  0  0  0
 22 45  1  0  0  0  0
 22 46  1  0  0  0  0
 23 24  1  0  0  0  0
 23 47  1  0  0  0  0
 24 48  1  0  0  0  0
 24 49  1  0  0  0  0
M  END
$$$$
