stable:False satoms:11 tatoms:24 sratio:0.4583333333333333
  -OEChem-08062418003D

 45 45  0     0  0  0  0  0  0999 V2000
    6.3622   -5.2370   26.2899 C   0  0  0  0  0  0  0  0  0  0  0  0
    7.9659   -4.5905   26.0928 S   0  0  0  0  0  0  0  0  0  0  0  0
    8.8366   -5.7210   26.0150 O   0  0  0  0  0  0  0  0  0  0  0  0
    8.2758   -3.7729   27.2289 O   0  0  0  0  0  0  0  0  0  0  0  0
    7.8916   -3.7785   24.6870 N   0  0  0  0  0  0  0  0  0  0  0  0
    8.8073   -3.1339   24.2547 C   0  0  0  0  0  0  0  0  0  0  0  0
    9.2744   -2.1341   23.6812 C   0  0  0  0  0  0  0  0  0  0  0  0
   10.0135   -1.1441   23.5991 C   0  0  0  0  0  0  0  0  0  0  0  0
   10.8265   -0.1970   24.5847 C   0  0  0  0  0  0  0  0  0  0  0  0
   11.7858    0.1253   24.6397 C   0  0  0  0  0  0  0  0  0  0  0  0
   12.9777   -0.3150   23.8523 C   0  0  0  0  0  0  0  0  0  0  0  0
   12.5706   -1.3958   22.9830 C   0  0  0  0  0  0  0  0  0  0  0  0
   11.8663   -1.9192   22.7078 C   0  0  0  0  0  0  0  0  0  0  0  0
    9.6152   -0.6991   22.5840 C   0  0  0  0  0  0  0  0  0  0  0  0
    9.0193   -0.0409   21.5750 C   0  0  0  0  0  0  0  0  0  0  0  0
    9.4837    0.9307   21.2433 O   0  0  0  0  0  0  0  0  0  0  0  0
    7.9520   -0.6719   21.1898 N   0  0  0  0  0  0  0  0  0  0  0  0
    7.2446   -0.1606   20.2621 C   0  0  0  0  0  0  0  0  0  0  0  0
    7.3734    0.0042   18.9677 C   0  0  0  0  0  0  0  0  0  0  0  0
    7.0172    0.3452   17.8684 N   0  0  0  0  0  0  0  0  0  0  0  0
    5.8268    0.9001   18.2764 C   0  0  0  0  0  0  0  0  0  0  0  0
    5.3199    0.9572   19.3908 C   0  0  0  0  0  0  0  0  0  0  0  0
    5.8780    0.4387   20.5691 C   0  0  0  0  0  0  0  0  0  0  0  0
    5.2481    0.5045   21.9856 C   0  0  0  0  0  0  0  0  0  0  0  0
    6.3105   -5.8114   27.2266 H   0  0  0  0  0  0  0  0  0  0  0  0
    5.6361   -4.4115   26.3256 H   0  0  0  0  0  0  0  0  0  0  0  0
    6.1261   -5.8966   25.4419 H   0  0  0  0  0  0  0  0  0  0  0  0
    7.1251   -3.1426   24.7765 H   0  0  0  0  0  0  0  0  0  0  0  0
    9.6767   -3.7331   24.4815 H   0  0  0  0  0  0  0  0  0  0  0  0
    8.7464   -2.1238   22.7391 H   0  0  0  0  0  0  0  0  0  0  0  0
   10.2125    0.1944   25.3823 H   0  0  0  0  0  0  0  0  0  0  0  0
   11.9737    0.8971   25.3715 H   0  0  0  0  0  0  0  0  0  0  0  0
   13.7669   -0.6633   24.5348 H   0  0  0  0  0  0  0  0  0  0  0  0
   13.3572    0.5240   23.2506 H   0  0  0  0  0  0  0  0  0  0  0  0
   13.4451   -1.7182   22.4374 H   0  0  0  0  0  0  0  0  0  0  0  0
   12.0221   -2.6860   21.9633 H   0  0  0  0  0  0  0  0  0  0  0  0
   10.8836   -1.7672   23.1290 H   0  0  0  0  0  0  0  0  0  0  0  0
   10.2142   -1.3366   21.9507 H   0  0  0  0  0  0  0  0  0  0  0  0
    7.6912   -1.5400   21.6120 H   0  0  0  0  0  0  0  0  0  0  0  0
    8.3611   -0.3903   18.7801 H   0  0  0  0  0  0  0  0  0  0  0  0
    5.2463    1.3586   17.4895 H   0  0  0  0  0  0  0  0  0  0  0  0
    4.3617    1.4486   19.4729 H   0  0  0  0  0  0  0  0  0  0  0  0
    4.6400   -0.3955   22.1591 H   0  0  0  0  0  0  0  0  0  0  0  0
    6.0470    0.5580   22.7398 H   0  0  0  0  0  0  0  0  0  0  0  0
    4.6109    1.3978   22.0623 H   0  0  0  0  0  0  0  0  0  0  0  0
 20 21  2  0  0  0  0
 19 20  1  0  0  0  0
 21 22  1  0  0  0  0
 18 19  2  0  0  0  0
 22 23  2  0  0  0  0
 18 23  1  0  0  0  0
 17 18  1  0  0  0  0
 23 24  1  0  0  0  0
 15 16  2  0  0  0  0
 15 17  1  0  0  0  0
 14 15  1  0  0  0  0
  8 14  2  3  0  0  0
 12 13  2  0  0  0  0
 11 12  1  0  0  0  0
  7  8  1  0  0  0  0
  8  9  1  0  0  0  0
 10 11  1  0  0  0  0
  6  7  2  3  0  0  0
  5  6  1  0  0  0  0
  9 10  2  0  0  0  0
  2  5  1  0  0  0  0
  2  3  2  0  0  0  0
  1  2  1  0  0  0  0
  2  4  2  0  0  0  0
  1 25  1  0  0  0  0
  1 26  1  0  0  0  0
  1 27  1  0  0  0  0
  5 28  1  0  0  0  0
  6 29  1  0  0  0  0
  7 30  1  0  0  0  0
  9 31  1  0  0  0  0
 10 32  1  0  0  0  0
 11 33  1  0  0  0  0
 11 34  1  0  0  0  0
 12 35  1  0  0  0  0
 13 36  1  0  0  0  0
 13 37  1  0  0  0  0
 14 38  1  0  0  0  0
 17 39  1  0  0  0  0
 19 40  1  0  0  0  0
 21 41  1  0  0  0  0
 22 42  1  0  0  0  0
 24 43  1  0  0  0  0
 24 44  1  0  0  0  0
 24 45  1  0  0  0  0
M  END
> <Chemgauss4>
-13.016717

$$$$
