
 OpenBabel07202414153D

 61 66  0  0  1  0  0  0  0  0999 V2000
    3.2646    0.1515    1.3563 C   0  0  0  0  0  0  0  0  0  0  0  0
    2.4975    0.3393    0.0438 C   0  0  1  0  0  0  0  0  0  0  0  0
    2.5358    1.8184   -0.2533 C   0  0  0  0  0  0  0  0  0  0  0  0
    3.5344    2.0319   -1.2601 N   0  0  0  0  0  0  0  0  0  0  0  0
    4.1834    3.3280   -1.2792 C   0  0  0  0  0  0  0  0  0  0  0  0
    5.5501    3.4294   -1.5363 C   0  0  0  0  0  0  0  0  0  0  0  0
    6.3191    4.4877   -1.1763 N   0  0  0  0  0  0  0  0  0  0  0  0
    5.6953    5.5227   -0.5670 C   0  0  0  0  0  0  0  0  0  0  0  0
    4.3199    5.6296   -0.4024 C   0  0  0  0  0  0  0  0  0  0  0  0
    3.7481    6.7985    0.1563 C   0  0  0  0  0  0  0  0  0  0  0  0
    2.3711    6.9306    0.3065 C   0  0  0  0  0  0  0  0  0  0  0  0
    1.5508    5.9021   -0.1322 C   0  0  0  0  0  0  0  0  0  0  0  0
    2.1155    4.7519   -0.7028 C   0  0  0  0  0  0  0  0  0  0  0  0
    3.5221    4.5342   -0.8077 C   0  0  0  0  0  0  0  0  0  0  0  0
    4.0075    0.7847   -1.7562 C   0  0  0  0  0  0  0  0  0  0  0  0
    4.9375    0.6070   -2.5314 O   0  0  0  0  0  0  0  0  0  0  0  0
    3.0652   -0.3737   -1.2176 C   0  0  1  0  0  0  0  0  0  0  0  0
    3.8655   -1.6762   -0.8650 C   0  0  0  0  0  0  0  0  0  0  0  0
    3.0050   -2.9399   -0.6416 N   0  0  0  0  0  0  0  0  0  0  0  0
    2.0579   -3.0711    0.7728 S   0  0  0  0  0  0  0  0  0  0  0  0
    2.9795   -3.0844    1.8914 O   0  0  0  0  0  0  0  0  0  0  0  0
    1.0184   -2.0719    0.6728 O   0  0  0  0  0  0  0  0  0  0  0  0
    1.2387   -4.6774    0.7673 C   0  0  0  0  0  0  0  0  0  0  0  0
    0.3127   -4.7189    1.9888 C   0  0  0  0  0  0  0  0  0  0  0  0
   -0.7843   -3.7573    2.0205 C   0  0  0  0  0  0  0  0  0  0  0  0
   -1.7003   -3.0589    2.0641 N   0  0  0  0  0  0  0  0  0  0  0  0
   -0.0890   -6.1091    2.4893 C   0  0  0  0  0  0  0  0  0  0  0  0
    0.8185   -5.2569    3.3206 C   0  0  0  0  0  0  0  0  0  0  0  0
    2.3500   -3.2523   -1.9167 C   0  0  0  0  0  0  0  0  0  0  0  0
    1.5861   -2.0925   -2.4975 C   0  0  0  0  0  0  0  0  0  0  0  0
    0.4984   -2.4117   -3.3337 C   0  0  0  0  0  0  0  0  0  0  0  0
   -0.2495   -1.4089   -3.9329 C   0  0  0  0  0  0  0  0  0  0  0  0
    0.1121   -0.0838   -3.7339 C   0  0  0  0  0  0  0  0  0  0  0  0
   -0.8154    1.1607   -4.4773 Cl  0  0  0  0  0  0  0  0  0  0  0  0
    1.2037    0.2515   -2.9215 C   0  0  0  0  0  0  0  0  0  0  0  0
    1.9503   -0.7390   -2.2544 C   0  0  0  0  0  0  0  0  0  0  0  0
    2.7847    0.7244    2.1570 H   0  0  0  0  0  0  0  0  0  0  0  0
    4.3072    0.4749    1.2756 H   0  0  0  0  0  0  0  0  0  0  0  0
    3.2706   -0.8715    1.6978 H   0  0  0  0  0  0  0  0  0  0  0  0
    1.4498    0.0849    0.2085 H   0  0  0  0  0  0  0  0  0  0  0  0
    2.7961    2.3912    0.6434 H   0  0  0  0  0  0  0  0  0  0  0  0
    1.5529    2.1382   -0.6117 H   0  0  0  0  0  0  0  0  0  0  0  0
    6.1193    2.6181   -1.9774 H   0  0  0  0  0  0  0  0  0  0  0  0
    6.3632    6.3026   -0.2066 H   0  0  0  0  0  0  0  0  0  0  0  0
    4.3811    7.6270    0.4714 H   0  0  0  0  0  0  0  0  0  0  0  0
    1.9407    7.8305    0.7311 H   0  0  0  0  0  0  0  0  0  0  0  0
    0.4703    5.9921   -0.0450 H   0  0  0  0  0  0  0  0  0  0  0  0
    1.4134    4.0311   -1.1070 H   0  0  0  0  0  0  0  0  0  0  0  0
    4.5562   -1.5514   -0.0252 H   0  0  0  0  0  0  0  0  0  0  0  0
    4.5341   -1.9160   -1.7091 H   0  0  0  0  0  0  0  0  0  0  0  0
    2.0144   -5.4457    0.8159 H   0  0  0  0  0  0  0  0  0  0  0  0
    0.6400   -4.7828   -0.1379 H   0  0  0  0  0  0  0  0  0  0  0  0
    0.3323   -6.9896    2.0180 H   0  0  0  0  0  0  0  0  0  0  0  0
   -1.1024   -6.2645    2.8539 H   0  0  0  0  0  0  0  0  0  0  0  0
    1.8526   -5.5718    3.4178 H   0  0  0  0  0  0  0  0  0  0  0  0
    0.4123   -4.8528    4.2459 H   0  0  0  0  0  0  0  0  0  0  0  0
    1.7051   -4.1272   -1.8061 H   0  0  0  0  0  0  0  0  0  0  0  0
    3.1195   -3.5613   -2.6382 H   0  0  0  0  0  0  0  0  0  0  0  0
    0.2162   -3.4495   -3.5053 H   0  0  0  0  0  0  0  0  0  0  0  0
   -1.1081   -1.6686   -4.5477 H   0  0  0  0  0  0  0  0  0  0  0  0
    1.4433    1.3051   -2.8136 H   0  0  0  0  0  0  0  0  0  0  0  0
  1 37  1  0  0  0  0
  1 38  1  0  0  0  0
  1 39  1  0  0  0  0
  2  3  1  0  0  0  0
  2 17  1  0  0  0  0
  2  1  1  0  0  0  0
  2 40  1  1  0  0  0
  3  4  1  0  0  0  0
  3 41  1  0  0  0  0
  3 42  1  0  0  0  0
  4  5  1  0  0  0  0
  4 15  1  0  0  0  0
  5  6  1  0  0  0  0
  5 14  2  0  0  0  0
  6  7  2  0  0  0  0
  6 43  1  0  0  0  0
  7  8  1  0  0  0  0
  8  9  2  0  0  0  0
  8 44  1  0  0  0  0
  9 10  1  0  0  0  0
  9 14  1  0  0  0  0
 10 11  2  0  0  0  0
 10 45  1  0  0  0  0
 11 12  1  0  0  0  0
 11 46  1  0  0  0  0
 12 13  2  0  0  0  0
 12 47  1  0  0  0  0
 13 14  1  0  0  0  0
 13 48  1  0  0  0  0
 15 16  2  0  0  0  0
 17 15  1  6  0  0  0
 17 18  1  0  0  0  0
 17 36  1  0  0  0  0
 18 19  1  0  0  0  0
 18 49  1  0  0  0  0
 18 50  1  0  0  0  0
 19 20  1  0  0  0  0
 19 29  1  0  0  0  0
 20 21  2  0  0  0  0
 20 22  2  0  0  0  0
 20 23  1  0  0  0  0
 23 24  1  0  0  0  0
 23 51  1  0  0  0  0
 23 52  1  0  0  0  0
 24 25  1  0  0  0  0
 24 27  1  0  0  0  0
 24 28  1  0  0  0  0
 25 26  3  0  0  0  0
 27 28  1  0  0  0  0
 27 53  1  0  0  0  0
 27 54  1  0  0  0  0
 28 55  1  0  0  0  0
 28 56  1  0  0  0  0
 29 30  1  0  0  0  0
 29 57  1  0  0  0  0
 29 58  1  0  0  0  0
 30 31  1  0  0  0  0
 30 36  2  0  0  0  0
 31 32  2  0  0  0  0
 31 59  1  0  0  0  0
 32 33  1  0  0  0  0
 32 60  1  0  0  0  0
 33 34  1  0  0  0  0
 33 35  2  0  0  0  0
 35 36  1  0  0  0  0
 35 61  1  0  0  0  0
M  END
$$$$
